data_PCOD9319942
_publ_section_title
;
Structure prediction by ZEFSAII (Michael W. Deem and Ramdas Pophale) SiO2 
 PCOD9319942
Probable space group: C 2 2 21
;
_chemical_formula_sum "Si O2"
_cell_formula_units_Z 52
_cell_length_a 5.505473
_cell_length_b 19.882091
_cell_length_c 21.703776
_cell_angle_alpha 90.000000
_cell_angle_beta 90.000000
_cell_angle_gamma 90.000000
_cell_volume 2375.702162
_symmetry_space_group_name_H-M "C 2 2 21"
_symmetry_group_IT_number 20
_symmetry_cell_setting 'orthorhombic'
loop_
_space_group_symop_operation_xyz
x,y,z
-x,-y,1/2+z
x,-y,-z
-x,y,1/2-z
1/2+x,1/2+y,z
1/2-x,1/2-y,1/2+z
1/2+x,1/2-y,-z
1/2-x,1/2+y,1/2-z
loop_
_atom_site_type_symbol
_atom_site_label
_atom_site_fract_x
_atom_site_fract_y
_atom_site_fract_z
Si Si1 0.425020 0.507081 0.113902
Si Si2 0.500000 0.530911 0.250000
Si Si3 0.050381 0.728956 0.150840
Si Si4 0.549980 0.772419 0.127527
Si Si5 0.714594 0.000000 0.500000
Si Si6 0.123529 0.603264 0.951084
Si Si7 0.500000 0.115358 0.250000
Si Si8 0.650641 0.346134 0.563945
O O1 0.500541 0.493940 0.184021
O O2 0.629748 0.496939 0.061954
O O3 0.215904 0.455580 0.093595
O O4 0.355721 0.585514 0.103886
O O5 0.751323 0.573153 0.250752
O O6 0.313078 0.760161 0.169845
O O7 0.118348 0.699891 0.083189
O O8 0.820116 0.777448 0.154454
O O9 0.993269 0.664859 0.192047
O O10 0.502156 0.837210 0.086219
O O11 0.558921 0.704194 0.086234
O O12 0.549345 0.933869 0.499568
O O13 0.339179 0.633833 0.992916
#
# Coordination Sequence:
#
# PCOD9319942 Si02
#       8
#     8   4   8   8   4   8   4   8
#     4  12  25  46  69 110 148 192 255 302 386 435
#     4  12  28  42  77 108 147 196 246 318 358 458
#     4  10  23  41  70 101 139 179 238 306 355 438
#     4  10  26  41  67 103 145 179 238 293 380 426
#     4  12  26  42  78  96 156 192 252 302 382 448
#     4  12  26  43  68 109 144 198 236 317 369 453
#     4  12  22  46  75 106 139 188 264 300 372 424
#     4  10  22  41  64 104 136 185 232 303 357 445
#
# _framework density 21.888266000000002
#
# number of rings (size 3 to 8) (size 9 to 14) (size 15 to 20)
#    0.923    0.000    4.615    1.846   10.769    0.000 
#    0.000    0.769    3.385    0.000    0.000    0.000 
#    0.000    0.000    0.000    0.000    0.000    0.000 
#
# Total GULP energy -144997.125647 kJ/mol
# GULP energy per Si atom -5576.812525 kJ/mol
# Density = 2.183845 g / cm^3
# Si number density = 21.888266 Si / 1000 Ang^3
#
#
#
# Elastic Constant Matrix: (Units=GPa)
#
#
# Indices 1 2 3 4 5 6 
#
# 1 109.5979 4.8753 12.5244 0.0000 0.0000 0.0000
# 2 4.8753 64.1456 8.4846 0.0000 0.0000 0.0000
# 3 12.5244 8.4846 90.4896 0.0000 0.0000 0.0000
# 4 0.0000 0.0000 0.0000 75.5093 0.0000 0.0000
# 5 0.0000 0.0000 0.0000 0.0000 24.1936 0.0000
# 6 0.0000 0.0000 0.0000 0.0000 0.0000 -27.3449
#
#
#
# Elastic Compliance Matrix: (Units=1/GPa)
#
#
# Indices 1 2 3 4 5 6 
#
# 1 0.009290 -0.000543 -0.001235 0.000000 0.000000 0.000000
# 2 -0.000543 0.015817 -0.001408 0.000000 0.000000 0.000000
# 3 -0.001235 -0.001408 0.011354 0.000000 0.000000 0.000000
# 4 0.000000 0.000000 0.000000 0.013243 0.000000 0.000000
# 5 0.000000 0.000000 0.000000 0.000000 0.041333 0.000000
# 6 0.000000 0.000000 0.000000 0.000000 0.000000 -0.036570
#
#
# Mechanical properties :
#
#
# Convention : Reuss Voigt Hill
#
# Bulk Modulus (GPa) = 33.23424 35.11131 34.17277
# Shear Modulus (GPa) = 70.55370 30.36153 50.45761
#
# Velocity S-wave (km/s) = 5.68362 3.72844 4.80650
# Velocity P-wave (km/s) = 7.63465 5.88311 6.81538
#
# Compressibility (1/GPa) = 0.03008945
#
# Stress axis : x y z
#
# Youngs Moduli (GPa) = 107.64819 63.22311 88.07534
#
# Poissons Ratio (x) = 0.03431 0.10876
# Poissons Ratio (y) = 0.05842 0.12401
# Poissons Ratio (z) = 0.13293 0.08901
#
# Static dielectric constant tensor:
#      x y z
#    x 1.906190 0.000000 0.000000 
#    y 0.000000 1.803640 0.000000 
#    z 0.000000 0.000000 2.064180 
# 
# From -- ./inp_files/26133.got.cif
#   From: 2010.05.17/outbox.cif.g08.bks.cpg/sg20_14_cif.got.tgz:26133.got - 2010.06.03 22:52:26.
