data_PCOD9319856
_publ_section_title
;
Structure prediction by ZEFSAII (Michael W. Deem and Ramdas Pophale) SiO2 
 PCOD9319856
Probable space group: C 2 2 21
;
_chemical_formula_sum "Si O2"
_cell_formula_units_Z 48
_cell_length_a 22.294533
_cell_length_b 8.389974
_cell_length_c 11.408229
_cell_angle_alpha 90.000000
_cell_angle_beta 90.000000
_cell_angle_gamma 90.000000
_cell_volume 2133.915534
_symmetry_space_group_name_H-M "C 2 2 21"
_symmetry_group_IT_number 20
_symmetry_cell_setting 'orthorhombic'
loop_
_space_group_symop_operation_xyz
x,y,z
-x,-y,1/2+z
x,-y,-z
-x,y,1/2-z
1/2+x,1/2+y,z
1/2-x,1/2-y,1/2+z
1/2+x,1/2-y,-z
1/2-x,1/2+y,1/2-z
loop_
_atom_site_type_symbol
_atom_site_label
_atom_site_fract_x
_atom_site_fract_y
_atom_site_fract_z
Si Si1 0.941509 0.567396 0.172644
Si Si2 0.569739 0.422066 0.754346
Si Si3 0.905268 0.746180 0.966642
Si Si4 0.787053 0.846637 0.086547
Si Si5 0.835260 0.177206 0.442991
Si Si6 0.362951 0.724101 0.695458
O O1 0.924048 0.403734 0.111300
O O2 0.883707 0.614256 0.246594
O O3 0.000000 0.551036 0.250000
O O4 0.947287 0.713112 0.078998
O O5 0.500000 0.379242 0.750000
O O6 0.589897 0.396355 0.619545
O O7 0.612234 0.325347 0.845578
O O8 0.581239 0.601269 0.798616
O O9 0.838189 0.746639 0.017361
O O10 0.726383 0.748171 0.103480
O O11 0.814521 0.863925 0.219153
O O12 0.777914 0.000000 0.000000
O O13 0.848804 0.267580 0.563192
O O14 0.827946 0.000000 0.500000
#
# Coordination Sequence:
#
# PCOD9319856 Si02
#       6
#     8   8   8   8   8   8
#     4  10  22  40  65  97 135 179 232 287 348 410
#     4  11  23  44  69  98 140 182 232 286 346 424
#     4  10  23  41  65 100 132 187 231 282 352 415
#     4  11  23  43  70 100 137 182 238 286 351 427
#     4  10  26  42  66 103 137 181 228 288 353 405
#     4  10  23  43  64 102 137 181 230 288 348 411
#
# _framework density 22.493860999999999
#
# number of rings (size 3 to 8) (size 9 to 14) (size 15 to 20)
#    0.000    1.667    1.667    1.000    9.333    1.333 
#    9.000    0.000    0.000    0.000    0.000    0.000 
#    0.000    0.000    0.000    0.000    0.000    0.000 
#
# Total GULP energy -133805.715094 kJ/mol
# GULP energy per Si atom -5575.238129 kJ/mol
# Density = 2.244266 g / cm^3
# Si number density = 22.493861 Si / 1000 Ang^3
#
#
#
# Elastic Constant Matrix: (Units=GPa)
#
#
# Indices 1 2 3 4 5 6 
#
# 1 148.8542 28.6446 60.3509 0.0000 0.0000 0.0000
# 2 28.6446 25.9534 10.4600 0.0000 0.0000 0.0000
# 3 60.3509 10.4600 117.5187 0.0000 0.0000 0.0000
# 4 0.0000 0.0000 0.0000 33.9878 0.0000 0.0000
# 5 0.0000 0.0000 0.0000 0.0000 31.3193 0.0000
# 6 0.0000 0.0000 0.0000 0.0000 0.0000 23.3053
#
#
#
# Elastic Compliance Matrix: (Units=1/GPa)
#
#
# Indices 1 2 3 4 5 6 
#
# 1 0.010393 -0.009667 -0.004477 0.000000 0.000000 0.000000
# 2 -0.009667 0.048955 0.000607 0.000000 0.000000 0.000000
# 3 -0.004477 0.000607 0.010754 0.000000 0.000000 0.000000
# 4 0.000000 0.000000 0.000000 0.029422 0.000000 0.000000
# 5 0.000000 0.000000 0.000000 0.000000 0.031929 0.000000
# 6 0.000000 0.000000 0.000000 0.000000 0.000000 0.042909
#
#
# Mechanical properties :
#
#
# Convention : Reuss Voigt Hill
#
# Bulk Modulus (GPa) = 23.24002 54.58192 38.91097
# Shear Modulus (GPa) = 23.17178 30.58054 26.87616
#
# Velocity S-wave (km/s) = 3.21306 3.69115 3.46037
# Velocity P-wave (km/s) = 4.91112 6.51798 5.77075
#
# Compressibility (1/GPa) = 0.04302923
#
# Stress axis : x y z
#
# Youngs Moduli (GPa) = 96.21560 20.42687 92.98517
#
# Poissons Ratio (x) = 0.19746 0.41630
# Poissons Ratio (y) = 0.93009 -0.05643
# Poissons Ratio (z) = 0.43076 -0.01240
#
# Static dielectric constant tensor:
#      x y z
#    x 1.807800 0.000000 0.000000 
#    y 0.000000 1.883500 0.000000 
#    z 0.000000 0.000000 2.040290 
# 
# From -- ./inp_files/16651.got.cif
#   From: 2010.05.17/outbox.cif.g08.bks.cpg/sg20_9_cif.got.tgz:16651.got - 2010.06.03 22:52:26.
