data_PCOD9319555
_publ_section_title
;
Structure prediction by ZEFSAII (Michael W. Deem and Ramdas Pophale) SiO2 
 PCOD9319555
Probable space group: C 2 2 21
;
_chemical_formula_sum "Si O2"
_cell_formula_units_Z 60
_cell_length_a 9.050293
_cell_length_b 24.908958
_cell_length_c 11.480019
_cell_angle_alpha 90.000000
_cell_angle_beta 90.000000
_cell_angle_gamma 90.000000
_cell_volume 2587.979350
_symmetry_space_group_name_H-M "C 2 2 21"
_symmetry_group_IT_number 20
_symmetry_cell_setting 'orthorhombic'
loop_
_space_group_symop_operation_xyz
x,y,z
-x,-y,1/2+z
x,-y,-z
-x,y,1/2-z
1/2+x,1/2+y,z
1/2-x,1/2-y,1/2+z
1/2+x,1/2-y,-z
1/2-x,1/2+y,1/2-z
loop_
_atom_site_type_symbol
_atom_site_label
_atom_site_fract_x
_atom_site_fract_y
_atom_site_fract_z
Si Si1 0.000000 0.173668 0.750000
Si Si2 0.127547 0.638992 0.507920
Si Si3 0.192887 0.190360 0.396626
Si Si4 0.335147 0.083699 0.486761
Si Si5 0.228337 0.407121 0.255559
Si Si6 0.531313 0.252522 0.024534
Si Si7 0.661151 0.370162 0.813439
Si Si8 0.176857 0.477872 0.766881
O O1 0.136684 0.133296 0.744307
O O2 0.001892 0.211929 0.637690
O O3 0.136997 0.621627 0.642375
O O4 0.058297 0.697200 0.487692
O O5 0.288857 0.636787 0.447855
O O6 0.002333 0.600560 0.452375
O O7 0.224870 0.132632 0.454021
O O8 0.302068 0.232023 0.459176
O O9 0.027883 0.212032 0.416602
O O10 0.228712 0.179515 0.261671
O O11 0.334022 0.082824 0.626029
O O12 0.296718 0.033950 0.404245
O O13 0.253240 0.469502 0.288733
O O14 0.500000 0.376700 0.750000
O O15 0.750791 0.424588 0.785762
O O16 0.000000 0.483644 0.750000
#
# Coordination Sequence:
#
# PCOD9319555 Si02
#       8
#     4   8   8   8   8   8   8   8
#     4  12  26  44  68  98 158 194 252 314 394 460
#     4  11  24  43  73 106 148 190 255 316 380 461
#     4  10  23  42  71  99 136 187 252 305 382 454
#     4  10  21  45  70 104 143 187 250 311 373 460
#     4  12  26  41  71 107 149 195 252 322 382 468
#     4  11  23  45  73 102 143 200 244 319 394 460
#     4  11  26  44  70 105 149 196 257 313 386 484
#     4  11  23  45  77 103 145 199 253 312 392 454
#
# _framework density 23.18411
#
# number of rings (size 3 to 8) (size 9 to 14) (size 15 to 20)
#    0.000    1.067    2.667    3.200    4.667    0.533 
#    0.000    0.000    0.000    0.000    0.000    0.000 
#    0.000    0.000    0.000    0.000    0.000    0.000 
#
# Total GULP energy -167315.742889 kJ/mol
# GULP energy per Si atom -5577.191430 kJ/mol
# Density = 2.313134 g / cm^3
# Si number density = 23.184110 Si / 1000 Ang^3
#
#
#
# Elastic Constant Matrix: (Units=GPa)
#
#
# Indices 1 2 3 4 5 6 
#
# 1 60.0864 44.4928 15.4998 0.0000 0.0000 0.0000
# 2 44.4928 100.3628 38.1972 0.0000 0.0000 0.0000
# 3 15.4998 38.1972 104.3753 0.0000 0.0000 0.0000
# 4 0.0000 0.0000 0.0000 28.7525 0.0000 0.0000
# 5 0.0000 0.0000 0.0000 0.0000 26.8631 0.0000
# 6 0.0000 0.0000 0.0000 0.0000 0.0000 -163.2060
#
#
#
# Elastic Compliance Matrix: (Units=1/GPa)
#
#
# Indices 1 2 3 4 5 6 
#
# 1 0.024790 -0.011140 0.000396 0.000000 0.000000 0.000000
# 2 -0.011140 0.016583 -0.004414 0.000000 0.000000 0.000000
# 3 0.000396 -0.004414 0.011137 0.000000 0.000000 0.000000
# 4 0.000000 0.000000 0.000000 0.034780 0.000000 0.000000
# 5 0.000000 0.000000 0.000000 0.000000 0.037226 0.000000
# 6 0.000000 0.000000 0.000000 0.000000 0.000000 -0.006127
#
#
# Mechanical properties :
#
#
# Convention : Reuss Voigt Hill
#
# Bulk Modulus (GPa) = 45.06130 51.24490 48.15310
# Shear Modulus (GPa) = 32.03002 -10.40912 10.81045
#
# Velocity S-wave (km/s) = 3.72095 -2.12121 2.16171
# Velocity P-wave (km/s) = 6.15948 4.01897 5.20054
#
# Compressibility (1/GPa) = 0.02219199
#
# Stress axis : x y z
#
# Youngs Moduli (GPa) = 40.33904 60.30406 89.78679
#
# Poissons Ratio (x) = 0.67181 -0.03552
# Poissons Ratio (y) = 0.44939 0.39634
# Poissons Ratio (z) = -0.01596 0.26620
#
# Static dielectric constant tensor:
#      x y z
#    x 1.954380 0.000000 0.000000 
#    y 0.000000 1.887060 0.000000 
#    z 0.000000 0.000000 2.122920 
# 
# From -- ./inp_files/13292.got.cif
#   From: 2010.05.17/outbox.cif.g08.bks.cpg/sg20_7_cif.got.tgz:13292.got - 2010.06.03 22:52:26.
