data_PCOD9319608
_publ_section_title
;
Structure prediction by ZEFSAII (Michael W. Deem and Ramdas Pophale) SiO2 
 PCOD9319608
Probable space group: C 2 2 21
;
_chemical_formula_sum "Si O2"
_cell_formula_units_Z 48
_cell_length_a 26.472042
_cell_length_b 10.875202
_cell_length_c 8.148430
_cell_angle_alpha 90.000000
_cell_angle_beta 90.000000
_cell_angle_gamma 90.000000
_cell_volume 2345.841768
_symmetry_space_group_name_H-M "C 2 2 21"
_symmetry_group_IT_number 20
_symmetry_cell_setting 'orthorhombic'
loop_
_space_group_symop_operation_xyz
x,y,z
-x,-y,1/2+z
x,-y,-z
-x,y,1/2-z
1/2+x,1/2+y,z
1/2-x,1/2-y,1/2+z
1/2+x,1/2-y,-z
1/2-x,1/2+y,1/2-z
loop_
_atom_site_type_symbol
_atom_site_label
_atom_site_fract_x
_atom_site_fract_y
_atom_site_fract_z
Si Si1 0.805396 0.152630 0.821954
Si Si2 0.811618 0.654680 0.731562
Si Si3 0.651755 0.404939 0.687807
Si Si4 0.103507 0.692263 0.241267
Si Si5 0.380700 0.000000 0.500000
Si Si6 0.556956 0.538193 0.806790
Si Si7 0.359194 0.000000 0.000000
O O1 0.746159 0.173691 0.816481
O O2 0.838583 0.256823 0.734956
O O3 0.815698 0.018672 0.744787
O O4 0.828426 0.131793 0.005544
O O5 0.839776 0.783163 0.710732
O O6 0.842289 0.557490 0.627816
O O7 0.821606 0.595592 0.909379
O O8 0.594916 0.452835 0.701366
O O9 0.089092 0.608628 0.086424
O O10 0.072261 0.819620 0.235556
O O11 0.105780 0.593553 0.391753
O O12 0.500000 0.518116 0.750000
O O13 0.563220 0.500000 0.000000
#
# Coordination Sequence:
#
# PCOD9319608 Si02
#       7
#     8   8   8   8   4   8   4
#     4  10  22  35  61  90 133 175 222 272 330 402
#     4  11  22  36  60  90 133 181 225 271 336 405
#     4  10  22  41  62  94 137 171 223 278 338 400
#     4  10  22  42  60  96 134 175 224 280 340 408
#     4  10  22  36  59  84 132 172 221 262 334 400
#     4  11  26  46  76 104 130 173 231 301 360 410
#     4  10  22  38  61  92 136 186 227 270 344 404
#
# _framework density 20.461739000000001
#
# number of rings (size 3 to 8) (size 9 to 14) (size 15 to 20)
#    0.000    1.667    1.667    2.000   11.667    0.000 
#    6.000    0.833    0.000    4.000    0.000    0.000 
#    0.000    0.000    0.000    0.000    0.000    0.000 
#
# Total GULP energy -133729.015345 kJ/mol
# GULP energy per Si atom -5572.042306 kJ/mol
# Density = 2.041517 g / cm^3
# Si number density = 20.461739 Si / 1000 Ang^3
#
#
#
# Elastic Constant Matrix: (Units=GPa)
#
#
# Indices 1 2 3 4 5 6 
#
# 1 117.7708 45.9435 22.5290 0.0000 0.0000 0.0000
# 2 45.9435 151.6855 17.9276 0.0000 0.0000 0.0000
# 3 22.5290 17.9276 56.2550 0.0000 0.0000 0.0000
# 4 0.0000 0.0000 0.0000 2.9512 0.0000 0.0000
# 5 0.0000 0.0000 0.0000 0.0000 55.5916 0.0000
# 6 0.0000 0.0000 0.0000 0.0000 0.0000 17.7533
#
#
#
# Elastic Compliance Matrix: (Units=1/GPa)
#
#
# Indices 1 2 3 4 5 6 
#
# 1 0.010157 -0.002697 -0.003208 0.000000 0.000000 0.000000
# 2 -0.002697 0.007567 -0.001331 0.000000 0.000000 0.000000
# 3 -0.003208 -0.001331 0.019485 0.000000 0.000000 0.000000
# 4 0.000000 0.000000 0.000000 0.338840 0.000000 0.000000
# 5 0.000000 0.000000 0.000000 0.000000 0.017988 0.000000
# 6 0.000000 0.000000 0.000000 0.000000 0.000000 0.056327
#
#
# Mechanical properties :
#
#
# Convention : Reuss Voigt Hill
#
# Bulk Modulus (GPa) = 43.98332 55.39015 49.68674
# Shear Modulus (GPa) = 10.58387 31.21332 20.89860
#
# Velocity S-wave (km/s) = 2.27678 3.90994 3.19932
# Velocity P-wave (km/s) = 5.33420 6.89292 6.16304
#
# Compressibility (1/GPa) = 0.02273589
#
# Stress axis : x y z
#
# Youngs Moduli (GPa) = 98.45442 132.15466 51.32099
#
# Poissons Ratio (x) = 0.35645 0.16464
# Poissons Ratio (y) = 0.26556 0.06832
# Poissons Ratio (z) = 0.31585 0.17593
#
# Static dielectric constant tensor:
#      x y z
#    x 1.668750 0.000000 0.000000 
#    y 0.000000 1.712470 0.000000 
#    z 0.000000 0.000000 1.590040 
# 
# From -- ./inp_files/10678.got.cif
#   From: 2010.05.17/outbox.cif.g08.bks.cpg/sg20_6_cif.got.tgz:10678.got - 2010.06.03 22:52:26.
