data_PCOD9319341
_publ_section_title
;
Structure prediction by ZEFSAII (Michael W. Deem and Ramdas Pophale) SiO2 
 PCOD9319341
Probable space group: C 2 2 21
;
_chemical_formula_sum "Si O2"
_cell_formula_units_Z 60
_cell_length_a 28.099726
_cell_length_b 18.739954
_cell_length_c 5.153853
_cell_angle_alpha 90.000000
_cell_angle_beta 90.000000
_cell_angle_gamma 90.000000
_cell_volume 2713.954941
_symmetry_space_group_name_H-M "C 2 2 21"
_symmetry_group_IT_number 20
_symmetry_cell_setting 'orthorhombic'
loop_
_space_group_symop_operation_xyz
x,y,z
-x,-y,1/2+z
x,-y,-z
-x,y,1/2-z
1/2+x,1/2+y,z
1/2-x,1/2-y,1/2+z
1/2+x,1/2-y,-z
1/2-x,1/2+y,1/2-z
loop_
_atom_site_type_symbol
_atom_site_label
_atom_site_fract_x
_atom_site_fract_y
_atom_site_fract_z
Si Si1 0.037407 0.422829 0.549546
Si Si2 0.840302 0.951453 0.745850
Si Si3 0.500000 0.802962 0.250000
Si Si4 0.736323 0.709289 0.663558
Si Si5 0.736754 0.075143 0.146298
Si Si6 0.371129 0.306284 0.970940
Si Si7 0.409702 0.770088 0.526840
Si Si8 0.632255 0.073657 0.169939
O O1 0.014866 0.500000 0.500000
O O2 0.089992 0.437976 0.632727
O O3 0.000000 0.389876 0.750000
O O4 0.038932 0.361275 0.342148
O O5 0.786052 0.923079 0.692670
O O6 0.872727 0.885990 0.846086
O O7 0.855157 0.000000 0.500000
O O8 0.836401 0.000000 0.000000
O O9 0.465816 0.762054 0.447228
O O10 0.744842 0.731339 0.959190
O O11 0.760976 0.636663 0.570835
O O12 0.681104 0.700358 0.595840
O O13 0.685466 0.082866 0.281090
O O14 0.735767 0.000000 0.000000
O O15 0.380306 0.259686 0.716929
O O16 0.403034 0.275584 0.207173
O O17 0.386775 0.849517 0.563500
O O18 0.632101 0.000000 0.000000
#
# Coordination Sequence:
#
# PCOD9319341 Si02
#       8
#     8   8   4   8   8   8   8   8
#     4  12  22  39  59  83 116 167 232 295 346 397
#     4  10  21  41  68  98 132 171 211 264 331 414
#     4  12  26  40  62  86 122 172 224 290 356 404
#     4  11  22  39  62  87 124 173 216 266 332 404
#     4   9  21  37  59  90 126 164 216 273 326 387
#     4  11  24  41  65  97 129 168 219 276 340 413
#     4  12  25  43  63  93 131 173 228 288 343 410
#     4  11  22  39  59  89 124 178 234 286 338 390
#
# _framework density 22.107959000000001
#
# number of rings (size 3 to 8) (size 9 to 14) (size 15 to 20)
#    0.000    1.067    2.000    5.200    0.000    5.867 
#    0.000    5.333    0.000    0.000    0.000    2.800 
#    0.000    0.000    0.000    0.000    0.000    0.000 
#
# Total GULP energy -167213.402054 kJ/mol
# GULP energy per Si atom -5573.780068 kJ/mol
# Density = 2.205764 g / cm^3
# Si number density = 22.107959 Si / 1000 Ang^3
#
#
#
# Elastic Constant Matrix: (Units=GPa)
#
#
# Indices 1 2 3 4 5 6 
#
# 1 56.5487 39.4345 23.8719 0.0000 0.0000 0.0000
# 2 39.4345 122.4278 41.9355 0.0000 0.0000 0.0000
# 3 23.8719 41.9355 101.7912 0.0000 0.0000 0.0000
# 4 0.0000 0.0000 0.0000 46.5718 0.0000 0.0000
# 5 0.0000 0.0000 0.0000 0.0000 35.5832 0.0000
# 6 0.0000 0.0000 0.0000 0.0000 0.0000 16.9852
#
#
#
# Elastic Compliance Matrix: (Units=1/GPa)
#
#
# Indices 1 2 3 4 5 6 
#
# 1 0.023464 -0.006605 -0.002782 0.000000 0.000000 0.000000
# 2 -0.006605 0.011369 -0.003135 0.000000 0.000000 0.000000
# 3 -0.002782 -0.003135 0.011768 0.000000 0.000000 0.000000
# 4 0.000000 0.000000 0.000000 0.021472 0.000000 0.000000
# 5 0.000000 0.000000 0.000000 0.000000 0.028103 0.000000
# 6 0.000000 0.000000 0.000000 0.000000 0.000000 0.058875
#
#
# Mechanical properties :
#
#
# Convention : Reuss Voigt Hill
#
# Bulk Modulus (GPa) = 46.38604 54.58348 50.48476
# Shear Modulus (GPa) = 26.69786 31.52978 29.11382
#
# Velocity S-wave (km/s) = 3.47884 3.78057 3.63284
# Velocity P-wave (km/s) = 6.09620 6.61816 6.36253
#
# Compressibility (1/GPa) = 0.02155821
#
# Stress axis : x y z
#
# Youngs Moduli (GPa) = 42.61808 87.95521 84.97708
#
# Poissons Ratio (x) = 0.58095 0.23638
# Poissons Ratio (y) = 0.28150 0.26640
# Poissons Ratio (z) = 0.11855 0.27573
#
# Static dielectric constant tensor:
#      x y z
#    x 1.816180 0.000000 0.000000 
#    y 0.000000 1.925350 0.000000 
#    z 0.000000 0.000000 1.965880 
# 
# From -- ./inp_files/4323.got.cif
#   From: 2010.05.17/outbox.cif.g08.bks.cpg/sg20_3_cif.got.tgz:4323.got - 2010.06.03 22:52:26.
