data_PCOD9319305
_publ_section_title
;
Structure prediction by ZEFSAII (Michael W. Deem and Ramdas Pophale) SiO2 
 PCOD9319305
Probable space group: C 2 2 21
;
_chemical_formula_sum "Si O2"
_cell_formula_units_Z 56
_cell_length_a 8.590355
_cell_length_b 12.030084
_cell_length_c 22.198169
_cell_angle_alpha 90.000000
_cell_angle_beta 90.000000
_cell_angle_gamma 90.000000
_cell_volume 2294.018547
_symmetry_space_group_name_H-M "C 2 2 21"
_symmetry_group_IT_number 20
_symmetry_cell_setting 'orthorhombic'
loop_
_space_group_symop_operation_xyz
x,y,z
-x,-y,1/2+z
x,-y,-z
-x,y,1/2-z
1/2+x,1/2+y,z
1/2-x,1/2-y,1/2+z
1/2+x,1/2-y,-z
1/2-x,1/2+y,1/2-z
loop_
_atom_site_type_symbol
_atom_site_label
_atom_site_fract_x
_atom_site_fract_y
_atom_site_fract_z
Si Si1 0.910945 0.268470 0.564843
Si Si2 0.569022 0.845182 0.815695
Si Si3 0.676529 0.369111 0.224796
Si Si4 0.811751 0.976850 0.399924
Si Si5 0.390029 0.563371 0.063688
Si Si6 0.999898 0.597048 0.959114
Si Si7 0.303388 0.080535 0.651010
O O1 0.012707 0.305195 0.623181
O O2 0.880873 0.139290 0.573310
O O3 0.744644 0.339260 0.565998
O O4 0.005344 0.301228 0.505329
O O5 0.500000 0.839792 0.750000
O O6 0.698199 0.748106 0.809690
O O7 0.609976 0.970103 0.827145
O O8 0.500000 0.387077 0.250000
O O9 0.707571 0.460283 0.172658
O O10 0.769768 0.359706 0.286808
O O11 0.646428 0.969701 0.432754
O O12 0.926947 0.076740 0.418643
O O13 0.340906 0.474093 0.115644
O O14 0.390986 0.500000 0.000000
O O15 0.096212 0.635632 0.901166
O O16 0.077566 0.500000 0.000000
#
# Coordination Sequence:
#
# PCOD9319305 Si02
#       7
#     8   8   8   8   8   8   8
#     4  10  22  43  67  95 138 175 221 279 345 413
#     4   9  20  38  62  92 124 170 223 270 335 408
#     4  10  21  41  64  94 126 172 234 277 337 416
#     4  11  26  39  68 101 132 174 229 287 331 416
#     4  11  20  42  67  91 128 179 217 268 349 405
#     4  12  23  43  63 101 134 171 230 274 347 423
#     4  11  21  39  70  88 132 181 214 283 349 398
#
# _framework density 24.411308999999999
#
# number of rings (size 3 to 8) (size 9 to 14) (size 15 to 20)
#    0.000    1.429    5.714    0.429    4.000    0.000 
#    0.000    1.429    0.000    0.000    0.000    0.000 
#    0.000    0.000    0.000    0.000    0.000    0.000 
#
# Total GULP energy -156013.897798 kJ/mol
# GULP energy per Si atom -5571.924921 kJ/mol
# Density = 2.435575 g / cm^3
# Si number density = 24.411309 Si / 1000 Ang^3
#
#
#
# Elastic Constant Matrix: (Units=GPa)
#
#
# Indices 1 2 3 4 5 6 
#
# 1 76.2438 -1.4403 37.8295 0.0000 0.0000 0.0000
# 2 -1.4403 50.1342 18.5068 0.0000 0.0000 0.0000
# 3 37.8295 18.5068 205.4223 0.0000 0.0000 0.0000
# 4 0.0000 0.0000 0.0000 39.8084 0.0000 0.0000
# 5 0.0000 0.0000 0.0000 0.0000 33.8896 0.0000
# 6 0.0000 0.0000 0.0000 0.0000 0.0000 12.1702
#
#
#
# Elastic Compliance Matrix: (Units=1/GPa)
#
#
# Indices 1 2 3 4 5 6 
#
# 1 0.014537 0.001454 -0.002808 0.000000 0.000000 0.000000
# 2 0.001454 0.020778 -0.002140 0.000000 0.000000 0.000000
# 3 -0.002808 -0.002140 0.005578 0.000000 0.000000 0.000000
# 4 0.000000 0.000000 0.000000 0.025120 0.000000 0.000000
# 5 0.000000 0.000000 0.000000 0.000000 0.029508 0.000000
# 6 0.000000 0.000000 0.000000 0.000000 0.000000 0.082168
#
#
# Mechanical properties :
#
#
# Convention : Reuss Voigt Hill
#
# Bulk Modulus (GPa) = 29.49377 49.06582 39.27979
# Shear Modulus (GPa) = 25.51317 35.63392 30.57354
#
# Velocity S-wave (km/s) = 3.23637 3.82479 3.54281
# Velocity P-wave (km/s) = 5.10624 6.29671 5.73246
#
# Compressibility (1/GPa) = 0.03390547
#
# Stress axis : x y z
#
# Youngs Moduli (GPa) = 68.79226 48.12756 179.27914
#
# Poissons Ratio (x) = -0.06999 0.50341
# Poissons Ratio (y) = -0.10004 0.38361
# Poissons Ratio (z) = 0.19317 0.10298
#
# Static dielectric constant tensor:
#      x y z
#    x 2.177960 0.000000 0.000000 
#    y 0.000000 2.023000 0.000000 
#    z 0.000000 0.000000 2.066450 
# 
# From -- ./inp_files/26744.got.cif
#   From: 2010.05.17/outbox.cif.g08.bks.cpg/sg20_14_cif.got.tgz:26744.got - 2010.06.03 22:52:26.
