data_PCOD9319874
_publ_section_title
;
Structure prediction by ZEFSAII (Michael W. Deem and Ramdas Pophale) SiO2 
 PCOD9319874
Probable space group: C 2 2 21
;
_chemical_formula_sum "Si O2"
_cell_formula_units_Z 64
_cell_length_a 17.941143
_cell_length_b 14.918438
_cell_length_c 12.145077
_cell_angle_alpha 90.000000
_cell_angle_beta 90.000000
_cell_angle_gamma 90.000000
_cell_volume 3250.676369
_symmetry_space_group_name_H-M "C 2 2 21"
_symmetry_group_IT_number 20
_symmetry_cell_setting 'orthorhombic'
loop_
_space_group_symop_operation_xyz
x,y,z
-x,-y,1/2+z
x,-y,-z
-x,y,1/2-z
1/2+x,1/2+y,z
1/2-x,1/2-y,1/2+z
1/2+x,1/2-y,-z
1/2-x,1/2+y,1/2-z
loop_
_atom_site_type_symbol
_atom_site_label
_atom_site_fract_x
_atom_site_fract_y
_atom_site_fract_z
Si Si1 0.200183 0.788003 0.067545
Si Si2 0.893391 0.954795 0.337695
Si Si3 0.976495 0.246214 0.003487
Si Si4 0.360770 0.202437 0.826178
Si Si5 0.433533 0.570121 0.906078
Si Si6 0.575209 0.939456 0.175698
Si Si7 0.086986 0.368669 0.921519
Si Si8 0.620058 0.335366 0.866815
O O1 0.156543 0.876071 0.111923
O O2 0.282494 0.788784 0.113883
O O3 0.156831 0.696543 0.096931
O O4 0.189241 0.796819 0.936287
O O5 0.890818 0.946078 0.206361
O O6 0.978536 0.940464 0.377280
O O7 0.875451 0.057514 0.366662
O O8 0.926271 0.303915 0.084620
O O9 0.044105 0.198267 0.071944
O O10 0.925588 0.169401 0.952412
O O11 0.014709 0.305496 0.909242
O O12 0.364980 0.117006 0.745535
O O13 0.378983 0.290041 0.752425
O O14 0.413439 0.500000 0.000000
O O15 0.500000 0.930367 0.250000
O O16 0.589055 0.044174 0.153752
O O17 0.577982 0.898147 0.051201
#
# Coordination Sequence:
#
# PCOD9319874 Si02
#       8
#     8   8   8   8   8   8   8   8
#     4  11  24  42  61  93 133 179 203 260 328 389
#     4  11  22  37  64  91 130 166 202 252 335 385
#     4  11  20  39  66  98 125 163 214 275 313 373
#     4  12  24  39  69  94 125 172 224 253 315 402
#     4  11  20  34  61 100 126 154 208 268 311 384
#     4  11  21  42  70  94 119 166 224 269 312 375
#     4  10  22  40  67  90 129 167 208 269 326 358
#     4  11  21  42  66  90 131 170 209 263 328 379
#
# _framework density 19.688209000000001
#
# number of rings (size 3 to 8) (size 9 to 14) (size 15 to 20)
#    0.000    1.000    7.500    1.500    1.750    3.000 
#    0.000    2.500    0.000    0.000    0.000    0.000 
#    0.000    0.000    0.000    0.000    0.000    0.000 
#
# Total GULP energy -178638.733181 kJ/mol
# GULP energy per Si atom -5582.460412 kJ/mol
# Density = 1.964340 g / cm^3
# Si number density = 19.688209 Si / 1000 Ang^3
#
#
#
# Elastic Constant Matrix: (Units=GPa)
#
#
# Indices 1 2 3 4 5 6 
#
# 1 75.1893 32.9476 25.2396 0.0000 0.0000 0.0000
# 2 32.9476 125.5186 10.7464 0.0000 0.0000 0.0000
# 3 25.2396 10.7464 60.4713 0.0000 0.0000 0.0000
# 4 0.0000 0.0000 0.0000 36.8550 0.0000 0.0000
# 5 0.0000 0.0000 0.0000 0.0000 21.7779 0.0000
# 6 0.0000 0.0000 0.0000 0.0000 0.0000 12.6468
#
#
#
# Elastic Compliance Matrix: (Units=1/GPa)
#
#
# Indices 1 2 3 4 5 6 
#
# 1 0.017211 -0.003963 -0.006479 0.000000 0.000000 0.000000
# 2 -0.003963 0.009003 0.000054 0.000000 0.000000 0.000000
# 3 -0.006479 0.000054 0.019232 0.000000 0.000000 0.000000
# 4 0.000000 0.000000 0.000000 0.027133 0.000000 0.000000
# 5 0.000000 0.000000 0.000000 0.000000 0.045918 0.000000
# 6 0.000000 0.000000 0.000000 0.000000 0.000000 0.079071
#
#
# Mechanical properties :
#
#
# Convention : Reuss Voigt Hill
#
# Bulk Modulus (GPa) = 40.53678 44.33850 42.43764
# Shear Modulus (GPa) = 22.06846 27.07232 24.57039
#
# Velocity S-wave (km/s) = 3.35161 3.71219 3.53650
# Velocity P-wave (km/s) = 5.96756 6.39868 6.18688
#
# Compressibility (1/GPa) = 0.02466896
#
# Stress axis : x y z
#
# Youngs Moduli (GPa) = 58.10099 111.07928 51.99795
#
# Poissons Ratio (x) = 0.44022 0.33692
# Poissons Ratio (y) = 0.23026 -0.00282
# Poissons Ratio (z) = 0.37646 -0.00603
#
# Static dielectric constant tensor:
#      x y z
#    x 1.664780 0.000000 0.000000 
#    y 0.000000 1.721170 0.000000 
#    z 0.000000 0.000000 1.724650 
# 
# From -- ./inp_files/15896.got.cif
#   From: 2010.05.17/outbox.cif.g08.bks.cpg/sg20_8_cif.got.tgz:15896.got - 2010.06.03 22:52:26.
