data_PCOD9319137
_publ_section_title
;
Structure prediction by ZEFSAII (Michael W. Deem and Ramdas Pophale) SiO2 
 PCOD9319137
Probable space group: C 2 2 21
;
_chemical_formula_sum "Si O2"
_cell_formula_units_Z 56
_cell_length_a 10.828853
_cell_length_b 17.391403
_cell_length_c 13.183366
_cell_angle_alpha 90.000000
_cell_angle_beta 90.000000
_cell_angle_gamma 90.000000
_cell_volume 2482.809431
_symmetry_space_group_name_H-M "C 2 2 21"
_symmetry_group_IT_number 20
_symmetry_cell_setting 'orthorhombic'
loop_
_space_group_symop_operation_xyz
x,y,z
-x,-y,1/2+z
x,-y,-z
-x,y,1/2-z
1/2+x,1/2+y,z
1/2-x,1/2-y,1/2+z
1/2+x,1/2-y,-z
1/2-x,1/2+y,1/2-z
loop_
_atom_site_type_symbol
_atom_site_label
_atom_site_fract_x
_atom_site_fract_y
_atom_site_fract_z
Si Si1 0.123161 0.425182 0.190545
Si Si2 0.374824 0.186610 0.504491
Si Si3 0.528042 0.705826 0.590719
Si Si4 0.279230 0.910956 0.679199
Si Si5 0.031207 0.923242 0.563022
Si Si6 0.792287 0.806558 0.277392
Si Si7 0.680381 0.315593 0.841200
O O1 0.123441 0.382287 0.083610
O O2 0.135532 0.515336 0.175354
O O3 0.236217 0.389890 0.255180
O O4 0.000000 0.405981 0.250000
O O5 0.510568 0.219658 0.478905
O O6 0.321595 0.153832 0.400168
O O7 0.308051 0.257184 0.563957
O O8 0.575325 0.635045 0.525078
O O9 0.613455 0.715789 0.687046
O O10 0.386119 0.690684 0.628405
O O11 0.276178 0.875537 0.791924
O O12 0.144051 0.938032 0.639772
O O13 0.930459 0.872593 0.624640
O O14 0.992476 0.000000 0.500000
O O15 0.679256 0.745960 0.254711
#
# Coordination Sequence:
#
# PCOD9319137 Si02
#       7
#     8   8   8   8   8   8   8
#     4  11  26  45  68  99 140 189 236 285 361 429
#     4  10  22  44  68 102 136 181 235 291 350 416
#     4  10  21  39  70  98 133 176 231 286 346 411
#     4  12  23  44  72  98 142 190 232 290 360 425
#     4  11  23  39  63 103 137 176 231 292 349 408
#     4  10  21  43  66 100 134 182 229 289 350 414
#     4  10  23  40  66 101 136 183 229 289 350 418
#
# _framework density 22.555094
#
# number of rings (size 3 to 8) (size 9 to 14) (size 15 to 20)
#    0.000    1.429    1.429    4.286    2.000    8.000 
#    7.714    0.000    0.000    0.000    0.000    0.000 
#    0.000    0.000    0.000    0.000    0.000    0.000 
#
# Total GULP energy -156055.090746 kJ/mol
# GULP energy per Si atom -5573.396098 kJ/mol
# Density = 2.250376 g / cm^3
# Si number density = 22.555094 Si / 1000 Ang^3
#
#
#
# Elastic Constant Matrix: (Units=GPa)
#
#
# Indices 1 2 3 4 5 6 
#
# 1 59.5465 20.8240 15.9919 0.0000 0.0000 0.0000
# 2 20.8240 98.1810 19.9623 0.0000 0.0000 0.0000
# 3 15.9919 19.9623 69.1782 0.0000 0.0000 0.0000
# 4 0.0000 0.0000 0.0000 31.4685 0.0000 0.0000
# 5 0.0000 0.0000 0.0000 0.0000 45.7120 0.0000
# 6 0.0000 0.0000 0.0000 0.0000 0.0000 28.6331
#
#
#
# Elastic Compliance Matrix: (Units=1/GPa)
#
#
# Indices 1 2 3 4 5 6 
#
# 1 0.018866 -0.003309 -0.003406 0.000000 0.000000 0.000000
# 2 -0.003309 0.011400 -0.002525 0.000000 0.000000 0.000000
# 3 -0.003406 -0.002525 0.015971 0.000000 0.000000 0.000000
# 4 0.000000 0.000000 0.000000 0.031778 0.000000 0.000000
# 5 0.000000 0.000000 0.000000 0.000000 0.021876 0.000000
# 6 0.000000 0.000000 0.000000 0.000000 0.000000 0.034925
#
#
# Mechanical properties :
#
#
# Convention : Reuss Voigt Hill
#
# Bulk Modulus (GPa) = 36.02634 37.82909 36.92771
# Shear Modulus (GPa) = 30.76009 32.50456 31.63232
#
# Velocity S-wave (km/s) = 3.69694 3.80032 3.74899
# Velocity P-wave (km/s) = 5.85068 6.00541 5.92855
#
# Compressibility (1/GPa) = 0.02775747
#
# Stress axis : x y z
#
# Youngs Moduli (GPa) = 53.00679 87.71623 62.61173
#
# Poissons Ratio (x) = 0.29023 0.21328
# Poissons Ratio (y) = 0.17539 0.15809
# Poissons Ratio (z) = 0.18056 0.22147
#
# Static dielectric constant tensor:
#      x y z
#    x 1.912470 0.000000 0.000000 
#    y 0.000000 1.852850 0.000000 
#    z 0.000000 0.000000 1.868820 
# 
# From -- ./inp_files/20059.got.cif
#   From: 2010.05.17/outbox.cif.g08.bks.cpg/sg20_11_cif.got.tgz:20059.got - 2010.06.03 22:52:26.
