data_PCOD9319714
_publ_section_title
;
Structure prediction by ZEFSAII (Michael W. Deem and Ramdas Pophale) SiO2 
 PCOD9319714
Probable space group: C 2 2 21
;
_chemical_formula_sum "Si O2"
_cell_formula_units_Z 40
_cell_length_a 17.197353
_cell_length_b 5.510808
_cell_length_c 18.458781
_cell_angle_alpha 90.000000
_cell_angle_beta 90.000000
_cell_angle_gamma 90.000000
_cell_volume 1749.362865
_symmetry_space_group_name_H-M "C 2 2 21"
_symmetry_group_IT_number 20
_symmetry_cell_setting 'orthorhombic'
loop_
_space_group_symop_operation_xyz
x,y,z
-x,-y,1/2+z
x,-y,-z
-x,y,1/2-z
1/2+x,1/2+y,z
1/2-x,1/2-y,1/2+z
1/2+x,1/2-y,-z
1/2-x,1/2+y,1/2-z
loop_
_atom_site_type_symbol
_atom_site_label
_atom_site_fract_x
_atom_site_fract_y
_atom_site_fract_z
Si Si1 0.069807 0.194761 0.715699
Si Si2 0.877460 0.434120 0.921532
Si Si3 0.296263 0.253109 0.544054
Si Si4 0.803965 0.810773 0.819427
Si Si5 0.151542 0.529476 0.819537
O O1 0.065130 0.304402 0.635001
O O2 0.081178 0.394981 0.779716
O O3 0.000000 0.039219 0.750000
O O4 0.147880 0.041674 0.707243
O O5 0.795175 0.288637 0.932265
O O6 0.852387 0.681434 0.882147
O O7 0.909768 0.500000 0.000000
O O8 0.314803 0.500000 0.500000
O O9 0.303083 0.000000 0.500000
O O10 0.351371 0.219322 0.615041
O O11 0.805006 0.641583 0.749645
O O12 0.716814 0.841747 0.847008
#
# Coordination Sequence:
#
# PCOD9319714 Si02
#       5
#     8   8   8   8   8
#     4  11  25  40  63  97 134 181 225 280 338 409
#     4  10  22  38  66  96 131 170 226 282 340 406
#     4  11  23  37  67 109 138 171 228 293 344 394
#     4  11  20  36  67  98 127 174 224 286 334 396
#     4  11  20  38  65  93 134 168 230 277 338 397
#
# _framework density 22.865469000000001
#
# number of rings (size 3 to 8) (size 9 to 14) (size 15 to 20)
#    0.000    1.200    4.000    3.600    2.800    3.200 
#    0.000    1.000    0.000    0.000    0.000    0.000 
#    0.000    0.000    0.000    0.000    0.000    0.000 
#
# Total GULP energy -111495.129260 kJ/mol
# GULP energy per Si atom -5574.756463 kJ/mol
# Density = 2.281343 g / cm^3
# Si number density = 22.865469 Si / 1000 Ang^3
#
#
#
# Elastic Constant Matrix: (Units=GPa)
#
#
# Indices 1 2 3 4 5 6 
#
# 1 20.0286 -0.2952 36.2973 0.0000 0.0000 0.0000
# 2 -0.2952 65.9897 33.2941 0.0000 0.0000 0.0000
# 3 36.2973 33.2941 143.0653 0.0000 0.0000 0.0000
# 4 0.0000 0.0000 0.0000 24.1522 0.0000 0.0000
# 5 0.0000 0.0000 0.0000 0.0000 28.6464 0.0000
# 6 0.0000 0.0000 0.0000 0.0000 0.0000 4.4395
#
#
#
# Elastic Compliance Matrix: (Units=1/GPa)
#
#
# Indices 1 2 3 4 5 6 
#
# 1 0.105182 0.015788 -0.030360 0.000000 0.000000 0.000000
# 2 0.015788 0.019540 -0.008553 0.000000 0.000000 0.000000
# 3 -0.030360 -0.008553 0.016683 0.000000 0.000000 0.000000
# 4 0.000000 0.000000 0.000000 0.041404 0.000000 0.000000
# 5 0.000000 0.000000 0.000000 0.000000 0.034908 0.000000
# 6 0.000000 0.000000 0.000000 0.000000 0.000000 0.225252
#
#
# Mechanical properties :
#
#
# Convention : Reuss Voigt Hill
#
# Bulk Modulus (GPa) = 10.50913 40.85289 25.68101
# Shear Modulus (GPa) = 9.59808 22.10010 15.84909
#
# Velocity S-wave (km/s) = 2.05104 3.11228 2.63562
# Velocity P-wave (km/s) = 3.19610 5.55161 4.52965
#
# Compressibility (1/GPa) = 0.09515534
#
# Stress axis : x y z
#
# Youngs Moduli (GPa) = 9.50731 51.17763 59.94130
#
# Poissons Ratio (x) = -0.80801 1.81983
# Poissons Ratio (y) = -0.15010 0.51268
# Poissons Ratio (z) = 0.28864 0.43772
#
# Static dielectric constant tensor:
#      x y z
#    x 1.891150 0.000000 0.000000 
#    y 0.000000 1.977530 0.000000 
#    z 0.000000 0.000000 1.955070 
# 
# From -- ./inp_files/22603.got.cif
#   From: 2010.05.17/outbox.cif.g08.bks.cpg/sg20_12_cif.got.tgz:22603.got - 2010.06.03 22:52:26.
