data_PCOD9319667
_publ_section_title
;
Structure prediction by ZEFSAII (Michael W. Deem and Ramdas Pophale) SiO2 
 PCOD9319667
Probable space group: C 2 2 21
;
_chemical_formula_sum "Si O2"
_cell_formula_units_Z 52
_cell_length_a 13.572588
_cell_length_b 7.157251
_cell_length_c 21.871993
_cell_angle_alpha 90.000000
_cell_angle_beta 90.000000
_cell_angle_gamma 90.000000
_cell_volume 2124.698309
_symmetry_space_group_name_H-M "C 2 2 21"
_symmetry_group_IT_number 20
_symmetry_cell_setting 'orthorhombic'
loop_
_space_group_symop_operation_xyz
x,y,z
-x,-y,1/2+z
x,-y,-z
-x,y,1/2-z
1/2+x,1/2+y,z
1/2-x,1/2-y,1/2+z
1/2+x,1/2-y,-z
1/2-x,1/2+y,1/2-z
loop_
_atom_site_type_symbol
_atom_site_label
_atom_site_fract_x
_atom_site_fract_y
_atom_site_fract_z
Si Si1 0.191455 0.594530 0.818089
Si Si2 0.500000 0.709173 0.750000
Si Si3 0.638472 0.603209 0.265626
Si Si4 0.910240 0.772626 0.894634
Si Si5 0.817812 0.719724 0.015043
Si Si6 0.623961 0.151327 0.359014
Si Si7 0.390012 0.126097 0.556766
O O1 0.247360 0.436417 0.780270
O O2 0.121943 0.710741 0.772910
O O3 0.275254 0.748371 0.836758
O O4 0.142828 0.524149 0.880339
O O5 0.410802 0.570335 0.731775
O O6 0.459197 0.819038 0.808130
O O7 0.593704 0.605820 0.333874
O O8 0.870542 0.569943 0.871489
O O9 0.019355 0.750900 0.921166
O O10 0.844807 0.828330 0.953044
O O11 0.889674 0.742937 0.073547
O O12 0.706889 0.767066 0.034125
O O13 0.823872 0.500000 0.000000
O O14 0.422774 0.000000 0.500000
#
# Coordination Sequence:
#
# PCOD9319667 Si02
#       7
#     8   4   8   8   8   8   8
#     4  10  22  39  61  90 126 166 209 257 317 375
#     4  10  22  38  58  90 124 162 206 254 310 372
#     4  11  22  39  61  91 128 166 209 261 315 377
#     4  11  22  40  64  90 123 166 212 262 317 374
#     4   9  20  42  63  86 122 162 212 266 317 375
#     4   9  20  39  61  86 123 166 208 260 315 374
#     4  11  22  38  61  91 121 161 211 261 319 379
#
# _framework density 24.474060999999999
#
# number of rings (size 3 to 8) (size 9 to 14) (size 15 to 20)
#    0.000    1.846    0.000    4.154    0.000    4.308 
#    0.000   20.769    0.000    0.000    0.000    0.000 
#    0.000    0.000    0.000    0.000    0.000    0.000 
#
# Total GULP energy -145411.185923 kJ/mol
# GULP energy per Si atom -5592.737920 kJ/mol
# Density = 2.441836 g / cm^3
# Si number density = 24.474061 Si / 1000 Ang^3
#
#
#
# Elastic Constant Matrix: (Units=GPa)
#
#
# Indices 1 2 3 4 5 6 
#
# 1 81.3591 8.4197 43.9744 0.0000 0.0000 0.0000
# 2 8.4197 45.2781 35.7850 0.0000 0.0000 0.0000
# 3 43.9744 35.7850 165.1019 0.0000 0.0000 0.0000
# 4 0.0000 0.0000 0.0000 46.1937 0.0000 0.0000
# 5 0.0000 0.0000 0.0000 0.0000 49.5114 0.0000
# 6 0.0000 0.0000 0.0000 0.0000 0.0000 30.6997
#
#
#
# Elastic Compliance Matrix: (Units=1/GPa)
#
#
# Indices 1 2 3 4 5 6 
#
# 1 0.014365 0.000426 -0.003918 0.000000 0.000000 0.000000
# 2 0.000426 0.026664 -0.005893 0.000000 0.000000 0.000000
# 3 -0.003918 -0.005893 0.008378 0.000000 0.000000 0.000000
# 4 0.000000 0.000000 0.000000 0.021648 0.000000 0.000000
# 5 0.000000 0.000000 0.000000 0.000000 0.020197 0.000000
# 6 0.000000 0.000000 0.000000 0.000000 0.000000 0.032574
#
#
# Mechanical properties :
#
#
# Convention : Reuss Voigt Hill
#
# Bulk Modulus (GPa) = 32.64166 52.01082 42.32624
# Shear Modulus (GPa) = 32.72083 38.85163 35.78623
#
# Velocity S-wave (km/s) = 3.66041 3.98862 3.82803
# Velocity P-wave (km/s) = 5.58847 6.51994 6.07209
#
# Compressibility (1/GPa) = 0.03063570
#
# Stress axis : x y z
#
# Youngs Moduli (GPa) = 69.61377 37.50417 119.36488
#
# Poissons Ratio (x) = -0.01596 0.46771
# Poissons Ratio (y) = -0.02962 0.70336
# Poissons Ratio (z) = 0.27277 0.22100
#
# Static dielectric constant tensor:
#      x y z
#    x 1.970280 0.000000 0.000000 
#    y 0.000000 1.962960 0.000000 
#    z 0.000000 0.000000 1.965910 
# 
# From -- ./inp_files/27502.got.cif
#   From: 2010.05.17/outbox.cif.g08.bks.cpg/sg20_14_cif.got.tgz:27502.got - 2010.06.03 22:52:26.
