data_PCOD9319512
_publ_section_title
;
Structure prediction by ZEFSAII (Michael W. Deem and Ramdas Pophale) SiO2 
 PCOD9319512
Probable space group: C 2 2 21
;
_chemical_formula_sum "Si O2"
_cell_formula_units_Z 36
_cell_length_a 4.915686
_cell_length_b 13.351757
_cell_length_c 20.240943
_cell_angle_alpha 90.000000
_cell_angle_beta 90.000000
_cell_angle_gamma 90.000000
_cell_volume 1328.474722
_symmetry_space_group_name_H-M "C 2 2 21"
_symmetry_group_IT_number 20
_symmetry_cell_setting 'orthorhombic'
loop_
_space_group_symop_operation_xyz
x,y,z
-x,-y,1/2+z
x,-y,-z
-x,y,1/2-z
1/2+x,1/2+y,z
1/2-x,1/2-y,1/2+z
1/2+x,1/2-y,-z
1/2-x,1/2+y,1/2-z
loop_
_atom_site_type_symbol
_atom_site_label
_atom_site_fract_x
_atom_site_fract_y
_atom_site_fract_z
Si Si1 0.000000 0.954769 0.750000
Si Si2 0.609244 0.836400 0.820368
Si Si3 0.218829 0.465874 0.930846
Si Si4 0.636426 0.677180 0.995649
Si Si5 0.583966 0.608659 0.855405
O O1 0.915584 0.875421 0.807550
O O2 0.830964 0.035895 0.704752
O O3 0.500000 0.872208 0.750000
O O4 0.532718 0.896760 0.885300
O O5 0.561146 0.720052 0.827279
O O6 0.310577 0.556645 0.883698
O O7 0.094260 0.500000 0.000000
O O8 0.483228 0.402187 0.956764
O O9 0.729404 0.627649 0.925911
O O10 0.886226 0.745565 0.018837
#
# Coordination Sequence:
#
# PCOD9319512 Si02
#       5
#     4   8   8   8   8
#     4  10  24  46  64 102 148 184 264 304 386 460
#     4  11  22  44  72 103 143 202 249 320 384 462
#     4   9  21  44  69 105 149 190 258 321 379 466
#     4  11  23  45  75 109 149 198 251 321 387 457
#     4  10  21  44  67 102 146 190 251 315 381 454
#
# _framework density 27.098748000000001
#
# number of rings (size 3 to 8) (size 9 to 14) (size 15 to 20)
#    0.000    1.778    3.333    0.000    0.000    3.556 
#   14.000    5.556    0.000    0.000    0.000    0.000 
#    0.000    0.000    0.000    0.000    0.000    0.000 
#
# Total GULP energy -100391.675329 kJ/mol
# GULP energy per Si atom -5577.315296 kJ/mol
# Density = 2.703707 g / cm^3
# Si number density = 27.098748 Si / 1000 Ang^3
#
#
#
# Elastic Constant Matrix: (Units=GPa)
#
#
# Indices 1 2 3 4 5 6 
#
# 1 70.3054 40.8988 43.1265 0.0000 0.0000 0.0000
# 2 40.8988 218.6739 109.8470 0.0000 0.0000 0.0000
# 3 43.1265 109.8470 211.5847 0.0000 0.0000 0.0000
# 4 0.0000 0.0000 0.0000 76.6822 0.0000 0.0000
# 5 0.0000 0.0000 0.0000 0.0000 32.9288 0.0000
# 6 0.0000 0.0000 0.0000 0.0000 0.0000 20.9197
#
#
#
# Elastic Compliance Matrix: (Units=1/GPa)
#
#
# Indices 1 2 3 4 5 6 
#
# 1 0.016836 -0.001928 -0.002431 0.000000 0.000000 0.000000
# 2 -0.001928 0.006407 -0.002933 0.000000 0.000000 0.000000
# 3 -0.002431 -0.002933 0.006745 0.000000 0.000000 0.000000
# 4 0.000000 0.000000 0.000000 0.013041 0.000000 0.000000
# 5 0.000000 0.000000 0.000000 0.000000 0.030369 0.000000
# 6 0.000000 0.000000 0.000000 0.000000 0.000000 0.047802
#
#
# Mechanical properties :
#
#
# Convention : Reuss Voigt Hill
#
# Bulk Modulus (GPa) = 64.91860 98.70096 81.80978
# Shear Modulus (GPa) = 35.48161 46.55224 41.01692
#
# Velocity S-wave (km/s) = 3.62241 4.14922 3.89473
# Velocity P-wave (km/s) = 6.44237 7.71080 7.10495
#
# Compressibility (1/GPa) = 0.01540391
#
# Stress axis : x y z
#
# Youngs Moduli (GPa) = 59.39567 156.07620 148.26641
#
# Poissons Ratio (x) = 0.30089 0.36041
# Poissons Ratio (y) = 0.11450 0.43492
# Poissons Ratio (z) = 0.14438 0.45783
#
# Static dielectric constant tensor:
#      x y z
#    x 3.828020 0.000000 0.000000 
#    y 0.000000 2.120250 0.000000 
#    z 0.000000 0.000000 2.237700 
# 
# From -- ./inp_files/25923.got.cif
#   From: 2010.05.17/outbox.cif.g08.bks.cpg/sg20_13_cif.got.tgz:25923.got - 2010.06.03 22:52:26.
