data_PCOD9319835
_publ_section_title
;
Structure prediction by ZEFSAII (Michael W. Deem and Ramdas Pophale) SiO2 
 PCOD9319835
Probable space group: C 2 2 21
;
_chemical_formula_sum "Si O2"
_cell_formula_units_Z 48
_cell_length_a 9.701852
_cell_length_b 25.566391
_cell_length_c 8.844709
_cell_angle_alpha 90.000000
_cell_angle_beta 90.000000
_cell_angle_gamma 90.000000
_cell_volume 2193.853487
_symmetry_space_group_name_H-M "C 2 2 21"
_symmetry_group_IT_number 20
_symmetry_cell_setting 'orthorhombic'
loop_
_space_group_symop_operation_xyz
x,y,z
-x,-y,1/2+z
x,-y,-z
-x,y,1/2-z
1/2+x,1/2+y,z
1/2-x,1/2-y,1/2+z
1/2+x,1/2-y,-z
1/2-x,1/2+y,1/2-z
loop_
_atom_site_type_symbol
_atom_site_label
_atom_site_fract_x
_atom_site_fract_y
_atom_site_fract_z
Si Si1 0.849902 0.269357 0.820728
Si Si2 0.798775 0.058364 0.035702
Si Si3 0.155174 0.135152 0.202438
Si Si4 0.918338 0.911110 0.394640
Si Si5 0.149847 0.417153 0.247207
Si Si6 0.362792 0.201266 0.832546
O O1 0.760832 0.318882 0.763968
O O2 0.768233 0.218788 0.764442
O O3 0.000000 0.270484 0.750000
O O4 0.856078 0.274963 0.000924
O O5 0.800905 0.083500 0.202008
O O6 0.703262 0.092401 0.923404
O O7 0.957705 0.059305 0.979116
O O8 0.747717 0.000000 0.000000
O O9 0.000000 0.148737 0.250000
O O10 0.141776 0.126024 0.023570
O O11 0.785420 0.941851 0.328296
O O12 0.000000 0.887316 0.250000
O O13 0.128266 0.361569 0.329098
O O14 0.000000 0.444215 0.250000
O O15 0.500000 0.221157 0.750000
#
# Coordination Sequence:
#
# PCOD9319835 Si02
#       6
#     8   8   8   8   8   8
#     4  12  26  42  69 102 133 178 224 275 336 403
#     4  10  23  41  66  97 131 175 229 282 335 400
#     4  10  22  40  64  94 133 170 224 276 333 402
#     4   9  19  39  63  93 123 173 217 273 331 394
#     4  10  22  41  67  92 135 175 217 272 346 400
#     4  11  25  45  66  98 137 177 221 276 337 407
#
# _framework density 21.87931
#
# number of rings (size 3 to 8) (size 9 to 14) (size 15 to 20)
#    0.000    1.667    1.667    1.500    7.000    8.000 
#    3.000    3.333    0.000    0.000    0.000    0.000 
#    0.000    0.000    0.000    0.000    0.000    0.000 
#
# Total GULP energy -133876.849533 kJ/mol
# GULP energy per Si atom -5578.202064 kJ/mol
# Density = 2.182951 g / cm^3
# Si number density = 21.879310 Si / 1000 Ang^3
#
#
#
# Elastic Constant Matrix: (Units=GPa)
#
#
# Indices 1 2 3 4 5 6 
#
# 1 146.6811 0.7653 26.0510 0.0000 0.0000 0.0000
# 2 0.7653 23.3000 -7.6732 0.0000 0.0000 0.0000
# 3 26.0510 -7.6732 94.8297 0.0000 0.0000 0.0000
# 4 0.0000 0.0000 0.0000 1.9641 0.0000 0.0000
# 5 0.0000 0.0000 0.0000 0.0000 33.2948 0.0000
# 6 0.0000 0.0000 0.0000 0.0000 0.0000 13.1969
#
#
#
# Elastic Compliance Matrix: (Units=1/GPa)
#
#
# Indices 1 2 3 4 5 6 
#
# 1 0.007186 -0.000910 -0.002048 0.000000 0.000000 0.000000
# 2 -0.000910 0.044209 0.003827 0.000000 0.000000 0.000000
# 3 -0.002048 0.003827 0.011417 0.000000 0.000000 0.000000
# 4 0.000000 0.000000 0.000000 0.509141 0.000000 0.000000
# 5 0.000000 0.000000 0.000000 0.000000 0.030035 0.000000
# 6 0.000000 0.000000 0.000000 0.000000 0.000000 0.075776
#
#
# Mechanical properties :
#
#
# Convention : Reuss Voigt Hill
#
# Bulk Modulus (GPa) = 15.49178 33.67744 24.58461
# Shear Modulus (GPa) = 7.16802 26.06901 16.61852
#
# Velocity S-wave (km/s) = 1.81198 3.45554 2.75899
# Velocity P-wave (km/s) = 3.38728 5.59882 4.62712
#
# Compressibility (1/GPa) = 0.06455036
#
# Stress axis : x y z
#
# Youngs Moduli (GPa) = 139.16052 22.62000 87.58525
#
# Poissons Ratio (x) = 0.02059 0.17935
# Poissons Ratio (y) = 0.12669 -0.33521
# Poissons Ratio (z) = 0.28496 -0.08657
#
# Static dielectric constant tensor:
#      x y z
#    x 1.828750 0.000000 0.000000 
#    y 0.000000 1.834350 0.000000 
#    z 0.000000 0.000000 1.826440 
# 
# From -- ./inp_files/6491.got.cif
#   From: 2010.05.17/outbox.cif.g08.bks.cpg/sg20_4_cif.got.tgz:6491.got - 2010.06.03 22:52:26.
