data_PCOD9319546
_publ_section_title
;
Structure prediction by ZEFSAII (Michael W. Deem and Ramdas Pophale) SiO2 
 PCOD9319546
Probable space group: C 2 2 21
;
_chemical_formula_sum "Si O2"
_cell_formula_units_Z 64
_cell_length_a 8.319858
_cell_length_b 12.251966
_cell_length_c 26.847891
_cell_angle_alpha 90.000000
_cell_angle_beta 90.000000
_cell_angle_gamma 90.000000
_cell_volume 2736.729495
_symmetry_space_group_name_H-M "C 2 2 21"
_symmetry_group_IT_number 20
_symmetry_cell_setting 'orthorhombic'
loop_
_space_group_symop_operation_xyz
x,y,z
-x,-y,1/2+z
x,-y,-z
-x,y,1/2-z
1/2+x,1/2+y,z
1/2-x,1/2-y,1/2+z
1/2+x,1/2-y,-z
1/2-x,1/2+y,1/2-z
loop_
_atom_site_type_symbol
_atom_site_label
_atom_site_fract_x
_atom_site_fract_y
_atom_site_fract_z
Si Si1 0.902426 0.759845 0.298311
Si Si2 0.499245 0.428146 0.115640
Si Si3 0.570292 0.189322 0.555016
Si Si4 0.926930 0.926153 0.696191
Si Si5 0.314591 0.961376 0.929282
Si Si6 0.800314 0.210559 0.963351
Si Si7 0.944495 0.531415 0.177333
Si Si8 0.047752 0.293552 0.326774
O O1 0.709491 0.765963 0.296135
O O2 0.000000 0.803062 0.250000
O O3 0.945682 0.829291 0.347861
O O4 0.960634 0.635350 0.303764
O O5 0.448998 0.516431 0.157456
O O6 0.639245 0.499865 0.089806
O O7 0.395587 0.372225 0.072504
O O8 0.639203 0.070607 0.541021
O O9 0.384772 0.184259 0.541853
O O10 0.645967 0.284257 0.520991
O O11 0.591038 0.205701 0.614193
O O12 0.744166 0.969749 0.693719
O O13 0.000000 0.937860 0.750000
O O14 0.918267 0.799616 0.681442
O O15 0.434506 0.961344 0.882244
O O16 0.317306 0.836748 0.946285
O O17 0.013327 0.412485 0.188719
#
# Coordination Sequence:
#
# PCOD9319546 Si02
#       8
#     8   8   8   8   8   8   8   8
#     4  12  23  42  69  98 136 181 226 287 348 404
#     4  11  23  43  70  97 138 182 228 289 338 418
#     4  11  24  43  71 103 132 184 232 281 350 424
#     4  11  23  45  67  97 139 187 233 286 349 415
#     4  10  21  45  65  94 138 180 221 286 342 406
#     4  12  25  44  71  99 139 181 231 288 357 413
#     4  10  22  41  64  93 134 176 226 280 345 401
#     4  11  25  45  66  99 142 174 232 291 337 422
#
# _framework density 23.385579
#
# number of rings (size 3 to 8) (size 9 to 14) (size 15 to 20)
#    0.000    1.000    5.000    3.750    0.000    2.500 
#    0.000    5.625    0.000    0.000    0.000    0.000 
#    0.000    0.000    0.000    0.000    0.000    0.000 
#
# Total GULP energy -178780.090660 kJ/mol
# GULP energy per Si atom -5586.877833 kJ/mol
# Density = 2.333235 g / cm^3
# Si number density = 23.385579 Si / 1000 Ang^3
#
#
#
# Elastic Constant Matrix: (Units=GPa)
#
#
# Indices 1 2 3 4 5 6 
#
# 1 17.8800 4.3236 -6.0609 0.0000 0.0000 0.0000
# 2 4.3236 113.3672 17.7983 0.0000 0.0000 0.0000
# 3 -6.0609 17.7983 60.5834 0.0000 0.0000 0.0000
# 4 0.0000 0.0000 0.0000 44.3730 0.0000 0.0000
# 5 0.0000 0.0000 0.0000 0.0000 31.7764 0.0000
# 6 0.0000 0.0000 0.0000 0.0000 0.0000 16.7772
#
#
#
# Elastic Compliance Matrix: (Units=1/GPa)
#
#
# Indices 1 2 3 4 5 6 
#
# 1 0.059070 -0.003334 0.006889 0.000000 0.000000 0.000000
# 2 -0.003334 0.009436 -0.003106 0.000000 0.000000 0.000000
# 3 0.006889 -0.003106 0.018108 0.000000 0.000000 0.000000
# 4 0.000000 0.000000 0.000000 0.022536 0.000000 0.000000
# 5 0.000000 0.000000 0.000000 0.000000 0.031470 0.000000
# 6 0.000000 0.000000 0.000000 0.000000 0.000000 0.059605
#
#
# Mechanical properties :
#
#
# Convention : Reuss Voigt Hill
#
# Bulk Modulus (GPa) = 11.42707 24.88361 18.15534
# Shear Modulus (GPa) = 21.88220 30.30329 26.09274
#
# Velocity S-wave (km/s) = 3.06226 3.60364 3.34393
# Velocity P-wave (km/s) = 4.17136 5.28949 4.76335
#
# Compressibility (1/GPa) = 0.08751150
#
# Stress axis : x y z
#
# Youngs Moduli (GPa) = 16.92912 105.98130 55.22494
#
# Poissons Ratio (x) = 0.35338 -0.38045
# Poissons Ratio (y) = 0.05645 0.17151
# Poissons Ratio (z) = -0.11663 0.32914
#
# Static dielectric constant tensor:
#      x y z
#    x 1.839080 0.000000 0.000000 
#    y 0.000000 1.893970 0.000000 
#    z 0.000000 0.000000 2.092990 
# 
# From -- ./inp_files/31055.got.cif
#   From: 2010.05.17/outbox.cif.g08.bks.cpg/sg20_16_cif.got.tgz:31055.got - 2010.06.03 22:52:26.
