data_PCOD9319189
_publ_section_title
;
Structure prediction by ZEFSAII (Michael W. Deem and Ramdas Pophale) SiO2 
 PCOD9319189
Probable space group: C 2 2 21
;
_chemical_formula_sum "Si O2"
_cell_formula_units_Z 48
_cell_length_a 5.213863
_cell_length_b 22.157242
_cell_length_c 17.910099
_cell_angle_alpha 90.000000
_cell_angle_beta 90.000000
_cell_angle_gamma 90.000000
_cell_volume 2069.061039
_symmetry_space_group_name_H-M "C 2 2 21"
_symmetry_group_IT_number 20
_symmetry_cell_setting 'orthorhombic'
loop_
_space_group_symop_operation_xyz
x,y,z
-x,-y,1/2+z
x,-y,-z
-x,y,1/2-z
1/2+x,1/2+y,z
1/2-x,1/2-y,1/2+z
1/2+x,1/2-y,-z
1/2-x,1/2+y,1/2-z
loop_
_atom_site_type_symbol
_atom_site_label
_atom_site_fract_x
_atom_site_fract_y
_atom_site_fract_z
Si Si1 0.748827 0.627561 0.730232
Si Si2 0.579440 0.912984 0.663132
Si Si3 0.591221 0.649750 0.405884
Si Si4 0.877437 0.112698 0.927398
Si Si5 0.370403 0.032791 0.922271
Si Si6 0.754326 0.241817 0.205629
O O1 0.500000 0.590452 0.750000
O O2 0.719144 0.649335 0.645316
O O3 0.756802 0.686028 0.784109
O O4 0.000000 0.591937 0.750000
O O5 0.500000 0.907664 0.750000
O O6 0.321000 0.894436 0.619229
O O7 0.822760 0.873228 0.631748
O O8 0.637541 0.981523 0.640196
O O9 0.585362 0.647395 0.495293
O O10 0.695681 0.714045 0.374967
O O11 0.150777 0.082351 0.910522
O O12 0.650867 0.062752 0.931990
O O13 0.304268 0.000000 0.000000
O O14 0.500000 0.222297 0.250000
O O15 0.000000 0.218476 0.250000
#
# Coordination Sequence:
#
# PCOD9319189 Si02
#       6
#     8   8   8   8   8   8
#     4  10  23  44  65  93 129 172 226 281 339 406
#     4  12  25  39  63  97 134 176 227 271 336 413
#     4  12  22  40  65  97 131 174 223 278 343 401
#     4  12  24  41  70  94 133 185 224 277 346 408
#     4  12  23  43  64  95 139 175 225 285 332 397
#     4  10  21  40  64  89 127 169 212 281 337 389
#
# _framework density 23.198931000000002
#
# number of rings (size 3 to 8) (size 9 to 14) (size 15 to 20)
#    0.000    0.667    3.333    5.500    0.000    2.000 
#    0.000    6.667    0.000    0.000    0.000    0.000 
#    0.000    0.000    0.000    0.000    0.000    0.000 
#
# Total GULP energy -134032.901894 kJ/mol
# GULP energy per Si atom -5584.704246 kJ/mol
# Density = 2.314613 g / cm^3
# Si number density = 23.198931 Si / 1000 Ang^3
#
#
#
# Elastic Constant Matrix: (Units=GPa)
#
#
# Indices 1 2 3 4 5 6 
#
# 1 186.2235 6.5400 43.7504 0.0000 0.0000 0.0000
# 2 6.5400 65.0808 33.6439 0.0000 0.0000 0.0000
# 3 43.7504 33.6439 149.7428 0.0000 0.0000 0.0000
# 4 0.0000 0.0000 0.0000 28.0044 0.0000 0.0000
# 5 0.0000 0.0000 0.0000 0.0000 30.8760 0.0000
# 6 0.0000 0.0000 0.0000 0.0000 0.0000 10.4941
#
#
#
# Elastic Compliance Matrix: (Units=1/GPa)
#
#
# Indices 1 2 3 4 5 6 
#
# 1 0.005772 0.000330 -0.001761 0.000000 0.000000 0.000000
# 2 0.000330 0.017404 -0.004007 0.000000 0.000000 0.000000
# 3 -0.001761 -0.004007 0.008093 0.000000 0.000000 0.000000
# 4 0.000000 0.000000 0.000000 0.035709 0.000000 0.000000
# 5 0.000000 0.000000 0.000000 0.000000 0.032388 0.000000
# 6 0.000000 0.000000 0.000000 0.000000 0.000000 0.095291
#
#
# Mechanical properties :
#
#
# Convention : Reuss Voigt Hill
#
# Bulk Modulus (GPa) = 49.03397 63.21285 56.12341
# Shear Modulus (GPa) = 23.54849 35.01578 29.28213
#
# Velocity S-wave (km/s) = 3.18947 3.88928 3.55663
# Velocity P-wave (km/s) = 5.89456 6.89028 6.41178
#
# Compressibility (1/GPa) = 0.02039402
#
# Stress axis : x y z
#
# Youngs Moduli (GPa) = 173.25275 57.45940 123.56814
#
# Poissons Ratio (x) = -0.01897 0.21755
# Poissons Ratio (y) = -0.05719 0.49509
# Poissons Ratio (z) = 0.30502 0.23022
#
# Static dielectric constant tensor:
#      x y z
#    x 2.064490 0.000000 0.000000 
#    y 0.000000 1.883630 0.000000 
#    z 0.000000 0.000000 1.919450 
# 
# From -- ./inp_files/22815.got.cif
#   From: 2010.05.17/outbox.cif.g08.bks.cpg/sg20_12_cif.got.tgz:22815.got - 2010.06.03 22:52:26.
