data_PCOD9319398
_publ_section_title
;
Structure prediction by ZEFSAII (Michael W. Deem and Ramdas Pophale) SiO2 
 PCOD9319398
Probable space group: C 2 2 21
;
_chemical_formula_sum "Si O2"
_cell_formula_units_Z 60
_cell_length_a 8.419500
_cell_length_b 11.420411
_cell_length_c 28.224436
_cell_angle_alpha 90.000000
_cell_angle_beta 90.000000
_cell_angle_gamma 90.000000
_cell_volume 2713.896665
_symmetry_space_group_name_H-M "C 2 2 21"
_symmetry_group_IT_number 20
_symmetry_cell_setting 'orthorhombic'
loop_
_space_group_symop_operation_xyz
x,y,z
-x,-y,1/2+z
x,-y,-z
-x,y,1/2-z
1/2+x,1/2+y,z
1/2-x,1/2-y,1/2+z
1/2+x,1/2-y,-z
1/2-x,1/2+y,1/2-z
loop_
_atom_site_type_symbol
_atom_site_label
_atom_site_fract_x
_atom_site_fract_y
_atom_site_fract_z
Si Si1 0.000000 0.947624 0.750000
Si Si2 0.366075 0.157363 0.686336
Si Si3 0.461086 0.858411 0.051571
Si Si4 0.641279 0.551228 0.346684
Si Si5 0.821489 0.771593 0.385458
Si Si6 0.873673 0.151158 0.395172
Si Si7 0.045952 0.615855 0.439770
Si Si8 0.730697 0.877950 0.289237
O O1 0.918411 0.894240 0.796500
O O2 0.849519 0.018908 0.727701
O O3 0.359200 0.266530 0.651179
O O4 0.303410 0.187205 0.739140
O O5 0.547853 0.106361 0.691307
O O6 0.245265 0.060876 0.665548
O O7 0.299841 0.841183 0.081325
O O8 0.561414 0.744568 0.066481
O O9 0.534345 0.986296 0.064209
O O10 0.434513 0.860466 0.995480
O O11 0.742736 0.646529 0.373696
O O12 0.488527 0.544130 0.380619
O O13 0.829038 0.824002 0.332798
O O14 0.971449 0.730102 0.415173
O O15 0.711633 0.101622 0.413663
#
# Coordination Sequence:
#
# PCOD9319398 Si02
#       8
#     4   8   8   8   8   8   8   8
#     4  10  24  38  62  96 130 174 216 264 322 388
#     4  10  21  42  65  91 135 175 209 272 325 379
#     4  10  23  47  63  95 134 161 222 284 326 397
#     4  10  23  38  63  92 128 172 218 255 324 388
#     4  11  23  40  66  96 127 171 219 262 331 398
#     4  11  23  40  70  95 129 174 220 269 330 394
#     4  11  25  41  70  95 127 175 214 277 346 389
#     4  10  22  40  63  90 135 171 213 271 316 390
#
# _framework density 22.108432000000001
#
# number of rings (size 3 to 8) (size 9 to 14) (size 15 to 20)
#    0.000    1.600    2.667    1.600    7.467    0.000 
#    0.000    2.667    0.000    6.400    0.000    0.000 
#    0.000    0.000    0.000    0.000    0.000    0.000 
#
# Total GULP energy -167245.743615 kJ/mol
# GULP energy per Si atom -5574.858120 kJ/mol
# Density = 2.205811 g / cm^3
# Si number density = 22.108432 Si / 1000 Ang^3
#
#
#
# Elastic Constant Matrix: (Units=GPa)
#
#
# Indices 1 2 3 4 5 6 
#
# 1 34.3922 30.7439 39.2213 0.0000 0.0000 0.0000
# 2 30.7439 67.8183 39.4856 0.0000 0.0000 0.0000
# 3 39.2213 39.4856 134.0573 0.0000 0.0000 0.0000
# 4 0.0000 0.0000 0.0000 37.6690 0.0000 0.0000
# 5 0.0000 0.0000 0.0000 0.0000 32.3614 0.0000
# 6 0.0000 0.0000 0.0000 0.0000 0.0000 18.8084
#
#
#
# Elastic Compliance Matrix: (Units=1/GPa)
#
#
# Indices 1 2 3 4 5 6 
#
# 1 0.061117 -0.020875 -0.011732 0.000000 0.000000 0.000000
# 2 -0.020875 0.024927 -0.001235 0.000000 0.000000 0.000000
# 3 -0.011732 -0.001235 0.011256 0.000000 0.000000 0.000000
# 4 0.000000 0.000000 0.000000 0.026547 0.000000 0.000000
# 5 0.000000 0.000000 0.000000 0.000000 0.030901 0.000000
# 6 0.000000 0.000000 0.000000 0.000000 0.000000 0.053168
#
#
# Mechanical properties :
#
#
# Convention : Reuss Voigt Hill
#
# Bulk Modulus (GPa) = 33.76601 50.57439 42.17020
# Shear Modulus (GPa) = 17.51487 26.22224 21.86855
#
# Velocity S-wave (km/s) = 2.81770 3.44768 3.14849
# Velocity P-wave (km/s) = 5.08842 6.22687 5.68621
#
# Compressibility (1/GPa) = 0.02961558
#
# Stress axis : x y z
#
# Youngs Moduli (GPa) = 16.36213 40.11655 88.84337
#
# Poissons Ratio (x) = 0.83743 1.04235
# Poissons Ratio (y) = 0.34156 0.10970
# Poissons Ratio (z) = 0.19197 0.04953
#
# Static dielectric constant tensor:
#      x y z
#    x 1.902080 0.000000 0.000000 
#    y 0.000000 1.856250 0.000000 
#    z 0.000000 0.000000 1.788010 
# 
# From -- ./inp_files/30160.got.cif
#   From: 2010.05.17/outbox.cif.g08.bks.cpg/sg20_16_cif.got.tgz:30160.got - 2010.06.03 22:52:26.
