data_PCOD9319119
_publ_section_title
;
Structure prediction by ZEFSAII (Michael W. Deem and Ramdas Pophale) SiO2 
 PCOD9319119
Probable space group: C 2 2 21
;
_chemical_formula_sum "Si O2"
_cell_formula_units_Z 56
_cell_length_a 11.608777
_cell_length_b 15.320084
_cell_length_c 14.545127
_cell_angle_alpha 90.000000
_cell_angle_beta 90.000000
_cell_angle_gamma 90.000000
_cell_volume 2586.813584
_symmetry_space_group_name_H-M "C 2 2 21"
_symmetry_group_IT_number 20
_symmetry_cell_setting 'orthorhombic'
loop_
_space_group_symop_operation_xyz
x,y,z
-x,-y,1/2+z
x,-y,-z
-x,y,1/2-z
1/2+x,1/2+y,z
1/2-x,1/2-y,1/2+z
1/2+x,1/2-y,-z
1/2-x,1/2+y,1/2-z
loop_
_atom_site_type_symbol
_atom_site_label
_atom_site_fract_x
_atom_site_fract_y
_atom_site_fract_z
Si Si1 0.864828 0.857656 0.251579
Si Si2 0.783513 0.786320 0.871100
Si Si3 0.569462 0.877280 0.651791
Si Si4 0.027646 0.707734 0.856488
Si Si5 0.228116 0.770125 0.418332
Si Si6 0.400131 0.022122 0.591129
Si Si7 0.737886 0.464252 0.745757
O O1 0.792303 0.787450 0.315014
O O2 0.815355 0.847074 0.148185
O O3 0.000000 0.836466 0.250000
O O4 0.849845 0.960236 0.276154
O O5 0.788880 0.877380 0.814690
O O6 0.914953 0.758191 0.885963
O O7 0.741443 0.792362 0.976557
O O8 0.500000 0.859434 0.750000
O O9 0.620674 0.795678 0.596588
O O10 0.686752 0.928914 0.671601
O O11 0.489062 0.942388 0.596734
O O12 0.148823 0.757215 0.872717
O O13 0.041298 0.615700 0.906655
O O14 0.000000 0.689713 0.750000
O O15 0.328514 0.000000 0.500000
O O16 0.329682 0.015305 0.683697
#
# Coordination Sequence:
#
# PCOD9319119 Si02
#       7
#     8   8   8   8   8   8   8
#     4  12  27  48  71 101 144 183 234 290 353 416
#     4  12  27  45  73 103 138 188 234 282 358 414
#     4  10  21  39  67  95 136 182 232 285 348 408
#     4  12  22  44  67  97 138 180 228 293 341 417
#     4  12  25  43  71 103 139 176 241 287 348 413
#     4  11  21  36  64  99 134 175 232 286 339 403
#     4  11  23  43  66  96 136 184 229 280 348 417
#
# _framework density 21.648254999999999
#
# number of rings (size 3 to 8) (size 9 to 14) (size 15 to 20)
#    0.000    0.571    4.286    4.286    4.000    1.714 
#    0.000    0.000    3.143    0.000    0.000    0.000 
#    0.000    0.000    0.000    0.000    0.000    0.000 
#
# Total GULP energy -156050.818581 kJ/mol
# GULP energy per Si atom -5573.243521 kJ/mol
# Density = 2.159898 g / cm^3
# Si number density = 21.648255 Si / 1000 Ang^3
#
#
#
# Elastic Constant Matrix: (Units=GPa)
#
#
# Indices 1 2 3 4 5 6 
#
# 1 113.5007 38.6112 2.4462 0.0000 0.0000 0.0000
# 2 38.6112 127.9469 12.2478 0.0000 0.0000 0.0000
# 3 2.4462 12.2478 87.9480 0.0000 0.0000 0.0000
# 4 0.0000 0.0000 0.0000 24.2733 0.0000 0.0000
# 5 0.0000 0.0000 0.0000 0.0000 18.9078 0.0000
# 6 0.0000 0.0000 0.0000 0.0000 0.0000 47.9600
#
#
#
# Elastic Compliance Matrix: (Units=1/GPa)
#
#
# Indices 1 2 3 4 5 6 
#
# 1 0.009820 -0.002977 0.000141 0.000000 0.000000 0.000000
# 2 -0.002977 0.008824 -0.001146 0.000000 0.000000 0.000000
# 3 0.000141 -0.001146 0.011526 0.000000 0.000000 0.000000
# 4 0.000000 0.000000 0.000000 0.041198 0.000000 0.000000
# 5 0.000000 0.000000 0.000000 0.000000 0.052888 0.000000
# 6 0.000000 0.000000 0.000000 0.000000 0.000000 0.020851
#
#
# Mechanical properties :
#
#
# Convention : Reuss Voigt Hill
#
# Bulk Modulus (GPa) = 45.03116 48.44512 46.73814
# Shear Modulus (GPa) = 31.15806 36.63423 33.89615
#
# Velocity S-wave (km/s) = 3.79791 4.11816 3.96127
# Velocity P-wave (km/s) = 6.33077 6.71112 6.52372
#
# Compressibility (1/GPa) = 0.02220684
#
# Stress axis : x y z
#
# Youngs Moduli (GPa) = 101.83077 113.32928 86.76027
#
# Poissons Ratio (x) = 0.33739 -0.01227
# Poissons Ratio (y) = 0.30315 0.09943
# Poissons Ratio (z) = -0.01440 0.12988
#
# Static dielectric constant tensor:
#      x y z
#    x 1.796710 0.000000 0.000000 
#    y 0.000000 1.780190 0.000000 
#    z 0.000000 0.000000 1.762800 
# 
# From -- ./inp_files/20069.got.cif
#   From: 2010.05.17/outbox.cif.g08.bks.cpg/sg20_11_cif.got.tgz:20069.got - 2010.06.03 22:52:26.
