data_PCOD9319684
_publ_section_title
;
Structure prediction by ZEFSAII (Michael W. Deem and Ramdas Pophale) SiO2 
 PCOD9319684
Probable space group: C 2 2 21
;
_chemical_formula_sum "Si O2"
_cell_formula_units_Z 64
_cell_length_a 11.435965
_cell_length_b 16.304653
_cell_length_c 17.428557
_cell_angle_alpha 90.000000
_cell_angle_beta 90.000000
_cell_angle_gamma 90.000000
_cell_volume 3249.718996
_symmetry_space_group_name_H-M "C 2 2 21"
_symmetry_group_IT_number 20
_symmetry_cell_setting 'orthorhombic'
loop_
_space_group_symop_operation_xyz
x,y,z
-x,-y,1/2+z
x,-y,-z
-x,y,1/2-z
1/2+x,1/2+y,z
1/2-x,1/2-y,1/2+z
1/2+x,1/2-y,-z
1/2-x,1/2+y,1/2-z
loop_
_atom_site_type_symbol
_atom_site_label
_atom_site_fract_x
_atom_site_fract_y
_atom_site_fract_z
Si Si1 0.794348 0.442848 0.099741
Si Si2 0.110565 0.762355 0.428353
Si Si3 0.963764 0.494898 0.659839
Si Si4 0.075973 0.306698 0.827329
Si Si5 0.686601 0.217693 0.701003
Si Si6 0.216476 0.113062 0.070727
Si Si7 0.004796 0.767157 0.913805
Si Si8 0.686053 0.144397 0.869187
O O1 0.782483 0.367148 0.157261
O O2 0.726816 0.527904 0.116771
O O3 0.929427 0.471911 0.107827
O O4 0.752238 0.411222 0.016514
O O5 0.188396 0.682329 0.406327
O O6 0.185065 0.839454 0.400141
O O7 0.985767 0.752461 0.388514
O O8 0.089271 0.766238 0.518428
O O9 0.936135 0.400285 0.645602
O O10 0.853385 0.552302 0.644043
O O11 0.000000 0.504165 0.750000
O O12 0.207329 0.280209 0.810732
O O13 0.000000 0.299050 0.750000
O O14 0.569481 0.253751 0.663167
O O15 0.674138 0.193294 0.789202
O O16 0.090156 0.154792 0.080004
O O17 0.092180 0.689817 0.923584
#
# Coordination Sequence:
#
# PCOD9319684 Si02
#       8
#     8   8   8   8   8   8   8   8
#     4  11  20  39  64  90 123 166 216 260 313 388
#     4  11  21  39  61  93 126 166 207 262 325 376
#     4  11  20  37  62  91 119 157 214 267 312 375
#     4  11  24  39  61  94 129 161 211 268 321 385
#     4  12  22  41  65  94 125 173 209 264 328 379
#     4  10  22  38  61  96 121 164 214 261 315 381
#     4  11  23  39  65  93 126 169 213 262 315 394
#     4  11  22  39  65  93 126 159 216 268 320 383
#
# _framework density 19.694011
#
# number of rings (size 3 to 8) (size 9 to 14) (size 15 to 20)
#    0.000    1.000    6.250    1.125    1.750    0.000 
#    0.000    3.750    0.000    0.000    0.000    0.000 
#    0.000    0.000    0.000    0.000    0.000    0.000 
#
# Total GULP energy -178734.936973 kJ/mol
# GULP energy per Si atom -5585.466780 kJ/mol
# Density = 1.964919 g / cm^3
# Si number density = 19.694011 Si / 1000 Ang^3
#
#
#
# Elastic Constant Matrix: (Units=GPa)
#
#
# Indices 1 2 3 4 5 6 
#
# 1 83.1366 37.9899 17.4073 0.0000 0.0000 0.0000
# 2 37.9899 94.9739 5.4558 0.0000 0.0000 0.0000
# 3 17.4073 5.4558 59.3349 0.0000 0.0000 0.0000
# 4 0.0000 0.0000 0.0000 8.0792 0.0000 0.0000
# 5 0.0000 0.0000 0.0000 0.0000 34.1186 0.0000
# 6 0.0000 0.0000 0.0000 0.0000 0.0000 24.4534
#
#
#
# Elastic Compliance Matrix: (Units=1/GPa)
#
#
# Indices 1 2 3 4 5 6 
#
# 1 0.015622 -0.006017 -0.004030 0.000000 0.000000 0.000000
# 2 -0.006017 0.012903 0.000579 0.000000 0.000000 0.000000
# 3 -0.004030 0.000579 0.017982 0.000000 0.000000 0.000000
# 4 0.000000 0.000000 0.000000 0.123775 0.000000 0.000000
# 5 0.000000 0.000000 0.000000 0.000000 0.029309 0.000000
# 6 0.000000 0.000000 0.000000 0.000000 0.000000 0.040894
#
#
# Mechanical properties :
#
#
# Convention : Reuss Voigt Hill
#
# Bulk Modulus (GPa) = 36.27008 39.90570 38.08789
# Shear Modulus (GPa) = 18.61421 25.10308 21.85865
#
# Velocity S-wave (km/s) = 3.07770 3.57411 3.33515
# Velocity P-wave (km/s) = 5.57552 6.11058 5.84917
#
# Compressibility (1/GPa) = 0.02757094
#
# Stress axis : x y z
#
# Youngs Moduli (GPa) = 64.01317 77.50206 55.60966
#
# Poissons Ratio (x) = 0.46635 0.22409
# Poissons Ratio (y) = 0.38519 -0.03219
# Poissons Ratio (z) = 0.25796 -0.04487
#
# Static dielectric constant tensor:
#      x y z
#    x 1.678400 0.000000 0.000000 
#    y 0.000000 1.687170 0.000000 
#    z 0.000000 0.000000 1.729840 
# 
# From -- ./inp_files/24437.got.cif
#   From: 2010.05.17/outbox.cif.g08.bks.cpg/sg20_13_cif.got.tgz:24437.got - 2010.06.03 22:52:26.
