data_PCOD9319230
_publ_section_title
;
Structure prediction by ZEFSAII (Michael W. Deem and Ramdas Pophale) SiO2 
 PCOD9319230
Probable space group: C 2 2 21
;
_chemical_formula_sum "Si O2"
_cell_formula_units_Z 56
_cell_length_a 13.926517
_cell_length_b 20.229171
_cell_length_c 9.096570
_cell_angle_alpha 90.000000
_cell_angle_beta 90.000000
_cell_angle_gamma 90.000000
_cell_volume 2562.702928
_symmetry_space_group_name_H-M "C 2 2 21"
_symmetry_group_IT_number 20
_symmetry_cell_setting 'orthorhombic'
loop_
_space_group_symop_operation_xyz
x,y,z
-x,-y,1/2+z
x,-y,-z
-x,y,1/2-z
1/2+x,1/2+y,z
1/2-x,1/2-y,1/2+z
1/2+x,1/2-y,-z
1/2-x,1/2+y,1/2-z
loop_
_atom_site_type_symbol
_atom_site_label
_atom_site_fract_x
_atom_site_fract_y
_atom_site_fract_z
Si Si1 0.228624 0.367671 0.719174
Si Si2 0.166284 0.812256 0.050821
Si Si3 0.540534 0.564378 0.910185
Si Si4 0.093676 0.574194 0.503890
Si Si5 0.427667 0.818937 0.544059
Si Si6 0.695929 0.141946 0.772379
Si Si7 0.660716 0.421034 0.510813
O O1 0.280421 0.317493 0.606177
O O2 0.178806 0.421970 0.615056
O O3 0.304536 0.397935 0.830898
O O4 0.144452 0.341580 0.826339
O O5 0.079254 0.760292 0.061525
O O6 0.250119 0.803683 0.171812
O O7 0.125495 0.884017 0.090229
O O8 0.500000 0.546110 0.750000
O O9 0.568578 0.500000 0.000000
O O10 0.449308 0.598064 0.987957
O O11 0.050866 0.500000 0.500000
O O12 0.140819 0.593010 0.660351
O O13 0.020430 0.633569 0.458722
O O14 0.381457 0.829483 0.384198
O O15 0.772429 0.108351 0.882649
O O16 0.665523 0.500000 0.500000
#
# Coordination Sequence:
#
# PCOD9319230 Si02
#       7
#     8   8   8   8   8   8   8
#     4  10  24  42  66  97 126 177 218 268 322 396
#     4  11  24  44  67  93 131 177 220 269 326 392
#     4  11  25  42  65  99 133 171 217 277 330 385
#     4  11  24  43  68 101 135 169 216 275 336 399
#     4  11  24  44  65  97 131 172 219 270 328 390
#     4  10  22  43  65  96 127 175 218 268 324 390
#     4  10  21  40  66  97 131 167 213 267 330 392
#
# _framework density 21.851928000000001
#
# number of rings (size 3 to 8) (size 9 to 14) (size 15 to 20)
#    0.000    1.429    1.429    2.571    4.000    8.000 
#   15.429    0.000    0.000    0.000    0.000    0.000 
#    0.000    0.000    0.000    0.000    0.000    0.000 
#
# Total GULP energy -156333.300953 kJ/mol
# GULP energy per Si atom -5583.332177 kJ/mol
# Density = 2.180219 g / cm^3
# Si number density = 21.851928 Si / 1000 Ang^3
#
#
#
# Elastic Constant Matrix: (Units=GPa)
#
#
# Indices 1 2 3 4 5 6 
#
# 1 46.1586 12.7295 13.4917 0.0000 0.0000 0.0000
# 2 12.7295 74.7773 28.8156 0.0000 0.0000 0.0000
# 3 13.4917 28.8156 140.0014 0.0000 0.0000 0.0000
# 4 0.0000 0.0000 0.0000 8.9460 0.0000 0.0000
# 5 0.0000 0.0000 0.0000 0.0000 6.8502 0.0000
# 6 0.0000 0.0000 0.0000 0.0000 0.0000 22.4683
#
#
#
# Elastic Compliance Matrix: (Units=1/GPa)
#
#
# Indices 1 2 3 4 5 6 
#
# 1 0.023031 -0.003329 -0.001534 0.000000 0.000000 0.000000
# 2 -0.003329 0.015006 -0.002768 0.000000 0.000000 0.000000
# 3 -0.001534 -0.002768 0.007860 0.000000 0.000000 0.000000
# 4 0.000000 0.000000 0.000000 0.111782 0.000000 0.000000
# 5 0.000000 0.000000 0.000000 0.000000 0.145982 0.000000
# 6 0.000000 0.000000 0.000000 0.000000 0.000000 0.044507
#
#
# Mechanical properties :
#
#
# Convention : Reuss Voigt Hill
#
# Bulk Modulus (GPa) = 32.64252 41.22343 36.93298
# Shear Modulus (GPa) = 13.38176 21.37960 17.38068
#
# Velocity S-wave (km/s) = 2.47732 3.13131 2.82332
# Velocity P-wave (km/s) = 4.81179 5.65502 5.25036
#
# Compressibility (1/GPa) = 0.03063489
#
# Stress axis : x y z
#
# Youngs Moduli (GPa) = 43.41967 66.63819 127.22135
#
# Poissons Ratio (x) = 0.22187 0.19518
# Poissons Ratio (y) = 0.14456 0.35213
# Poissons Ratio (z) = 0.06661 0.18444
#
# Static dielectric constant tensor:
#      x y z
#    x 1.794390 0.000000 0.000000 
#    y 0.000000 1.821230 0.000000 
#    z 0.000000 0.000000 1.788850 
# 
# From -- ./inp_files/8727.got.cif
#   From: 2010.05.17/outbox.cif.g08.bks.cpg/sg20_5_cif.got.tgz:8727.got - 2010.06.03 22:52:26.
