data_PCOD9319887
_publ_section_title
;
Structure prediction by ZEFSAII (Michael W. Deem and Ramdas Pophale) SiO2 
 PCOD9319887
Probable space group: C 2 2 21
;
_chemical_formula_sum "Si O2"
_cell_formula_units_Z 52
_cell_length_a 12.136602
_cell_length_b 8.211172
_cell_length_c 24.866499
_cell_angle_alpha 90.000000
_cell_angle_beta 90.000000
_cell_angle_gamma 90.000000
_cell_volume 2478.089024
_symmetry_space_group_name_H-M "C 2 2 21"
_symmetry_group_IT_number 20
_symmetry_cell_setting 'orthorhombic'
loop_
_space_group_symop_operation_xyz
x,y,z
-x,-y,1/2+z
x,-y,-z
-x,y,1/2-z
1/2+x,1/2+y,z
1/2-x,1/2-y,1/2+z
1/2+x,1/2-y,-z
1/2-x,1/2+y,1/2-z
loop_
_atom_site_type_symbol
_atom_site_label
_atom_site_fract_x
_atom_site_fract_y
_atom_site_fract_z
Si Si1 0.783980 0.094070 0.759922
Si Si2 0.500000 0.383802 0.750000
Si Si3 0.007826 0.500000 0.500000
Si Si4 0.599320 0.500000 0.500000
Si Si5 0.578767 0.710941 0.055023
Si Si6 0.926670 0.389198 0.331267
Si Si7 0.319998 0.817015 0.934134
Si Si8 0.641706 0.905758 0.685940
O O1 0.691342 0.066299 0.805868
O O2 0.829635 0.275953 0.767837
O O3 0.721677 0.055167 0.703565
O O4 0.892425 0.985656 0.764677
O O5 0.534214 0.268033 0.798370
O O6 0.091500 0.549432 0.452834
O O7 0.933921 0.657014 0.508121
O O8 0.521221 0.412123 0.544473
O O9 0.660034 0.352501 0.467349
O O10 0.576249 0.824753 0.107957
O O11 0.696267 0.626375 0.053789
O O12 0.018189 0.526711 0.319501
O O13 0.330631 0.814876 0.869759
#
# Coordination Sequence:
#
# PCOD9319887 Si02
#       8
#     8   4   4   4   8   8   8   8
#     4  12  25  45  67 101 135 186 229 291 338 423
#     4  12  26  42  68  96 138 180 226 284 338 410
#     4  10  22  40  68  92 134 178 224 282 340 402
#     4  10  26  42  68 102 136 180 232 284 342 418
#     4  11  22  42  66  96 131 176 224 280 342 400
#     4  12  24  44  67  97 141 179 231 288 338 420
#     4  11  22  44  65 100 137 177 226 287 340 413
#     4  12  24  45  69  99 141 185 236 281 359 411
#
# _framework density 20.983912
#
# number of rings (size 3 to 8) (size 9 to 14) (size 15 to 20)
#    0.000    0.615    6.154    0.923    4.308    0.000 
#    0.000    0.000    0.000    0.000    0.000    0.000 
#    0.000    0.000    0.000    0.000    0.000    0.000 
#
# Total GULP energy -145043.434833 kJ/mol
# GULP energy per Si atom -5578.593647 kJ/mol
# Density = 2.093615 g / cm^3
# Si number density = 20.983912 Si / 1000 Ang^3
#
#
#
# Elastic Constant Matrix: (Units=GPa)
#
#
# Indices 1 2 3 4 5 6 
#
# 1 130.3679 28.9019 43.1153 0.0000 0.0000 0.0000
# 2 28.9019 58.6210 19.0063 0.0000 0.0000 0.0000
# 3 43.1153 19.0063 77.9752 0.0000 0.0000 0.0000
# 4 0.0000 0.0000 0.0000 50.1814 0.0000 0.0000
# 5 0.0000 0.0000 0.0000 0.0000 13.6655 0.0000
# 6 0.0000 0.0000 0.0000 0.0000 0.0000 51.6712
#
#
#
# Elastic Compliance Matrix: (Units=1/GPa)
#
#
# Indices 1 2 3 4 5 6 
#
# 1 0.009974 -0.003398 -0.004687 0.000000 0.000000 0.000000
# 2 -0.003398 0.019680 -0.002918 0.000000 0.000000 0.000000
# 3 -0.004687 -0.002918 0.016127 0.000000 0.000000 0.000000
# 4 0.000000 0.000000 0.000000 0.019928 0.000000 0.000000
# 5 0.000000 0.000000 0.000000 0.000000 0.073177 0.000000
# 6 0.000000 0.000000 0.000000 0.000000 0.000000 0.019353
#
#
# Mechanical properties :
#
#
# Convention : Reuss Voigt Hill
#
# Bulk Modulus (GPa) = 42.05949 49.89012 45.97480
# Shear Modulus (GPa) = 26.57171 34.83298 30.70235
#
# Velocity S-wave (km/s) = 3.56236 4.07871 3.82925
# Velocity P-wave (km/s) = 6.08340 6.78294 6.44267
#
# Compressibility (1/GPa) = 0.02377585
#
# Stress axis : x y z
#
# Youngs Moduli (GPa) = 100.26190 50.81264 62.00648
#
# Poissons Ratio (x) = 0.17266 0.29061
# Poissons Ratio (y) = 0.34068 0.18095
# Poissons Ratio (z) = 0.46990 0.14828
#
# Static dielectric constant tensor:
#      x y z
#    x 1.754800 0.000000 0.000000 
#    y 0.000000 1.775250 0.000000 
#    z 0.000000 0.000000 1.703810 
# 
# From -- ./inp_files/30141.got.cif
#   From: 2010.05.17/outbox.cif.g08.bks.cpg/sg20_16_cif.got.tgz:30141.got - 2010.06.03 22:52:26.
