data_PCOD9319825
_publ_section_title
;
Structure prediction by ZEFSAII (Michael W. Deem and Ramdas Pophale) SiO2 
 PCOD9319825
Probable space group: C 2 2 21
;
_chemical_formula_sum "Si O2"
_cell_formula_units_Z 40
_cell_length_a 7.618218
_cell_length_b 17.062829
_cell_length_c 11.858913
_cell_angle_alpha 90.000000
_cell_angle_beta 90.000000
_cell_angle_gamma 90.000000
_cell_volume 1541.520546
_symmetry_space_group_name_H-M "C 2 2 21"
_symmetry_group_IT_number 20
_symmetry_cell_setting 'orthorhombic'
loop_
_space_group_symop_operation_xyz
x,y,z
-x,-y,1/2+z
x,-y,-z
-x,y,1/2-z
1/2+x,1/2+y,z
1/2-x,1/2-y,1/2+z
1/2+x,1/2-y,-z
1/2-x,1/2+y,1/2-z
loop_
_atom_site_type_symbol
_atom_site_label
_atom_site_fract_x
_atom_site_fract_y
_atom_site_fract_z
Si Si1 0.379895 0.500000 0.000000
Si Si2 0.376227 0.144258 0.465589
Si Si3 0.124956 0.177984 0.910705
Si Si4 0.266693 0.808648 0.316409
Si Si5 0.000000 0.987404 0.750000
Si Si6 0.251769 0.131269 0.145578
O O1 0.258998 0.426335 0.965676
O O2 0.468570 0.477710 0.122793
O O3 0.312730 0.231945 0.433866
O O4 0.410687 0.156180 0.600098
O O5 0.543904 0.126514 0.387838
O O6 0.228950 0.149498 0.800991
O O7 0.922137 0.188264 0.878868
O O8 0.155979 0.130606 0.024154
O O9 0.294073 0.715916 0.302336
O O10 0.170837 0.934361 0.776341
#
# Coordination Sequence:
#
# PCOD9319825 Si02
#       6
#     4   8   8   8   4   8
#     4  12  28  48  68  92 136 184 228 274 328 408
#     4  10  22  40  63  97 132 174 223 271 331 398
#     4   9  18  36  64  99 134 168 213 275 338 391
#     4   9  18  35  65  99 133 170 215 273 331 392
#     4  12  28  48  70  94 130 182 228 276 338 400
#     4  10  22  41  67  96 130 169 219 278 337 392
#
# _framework density 25.948407
#
# number of rings (size 3 to 8) (size 9 to 14) (size 15 to 20)
#    0.000    2.000    0.000    2.400    0.000   13.600 
#    0.000    2.000    0.000    0.000    0.000    0.000 
#    0.000    0.000    0.000    0.000    0.000    0.000 
#
# Total GULP energy -111808.180868 kJ/mol
# GULP energy per Si atom -5590.409043 kJ/mol
# Density = 2.588935 g / cm^3
# Si number density = 25.948407 Si / 1000 Ang^3
#
#
#
# Elastic Constant Matrix: (Units=GPa)
#
#
# Indices 1 2 3 4 5 6 
#
# 1 64.3536 15.9983 75.9457 0.0000 0.0000 0.0000
# 2 15.9983 76.7772 28.1559 0.0000 0.0000 0.0000
# 3 75.9457 28.1559 211.4487 0.0000 0.0000 0.0000
# 4 0.0000 0.0000 0.0000 27.5180 0.0000 0.0000
# 5 0.0000 0.0000 0.0000 0.0000 48.7285 0.0000
# 6 0.0000 0.0000 0.0000 0.0000 0.0000 31.9870
#
#
#
# Elastic Compliance Matrix: (Units=1/GPa)
#
#
# Indices 1 2 3 4 5 6 
#
# 1 0.027321 -0.002202 -0.009520 0.000000 0.000000 0.000000
# 2 -0.002202 0.013871 -0.001056 0.000000 0.000000 0.000000
# 3 -0.009520 -0.001056 0.008289 0.000000 0.000000 0.000000
# 4 0.000000 0.000000 0.000000 0.036340 0.000000 0.000000
# 5 0.000000 0.000000 0.000000 0.000000 0.020522 0.000000
# 6 0.000000 0.000000 0.000000 0.000000 0.000000 0.031263
#
#
# Mechanical properties :
#
#
# Convention : Reuss Voigt Hill
#
# Bulk Modulus (GPa) = 41.79640 65.86434 53.83037
# Shear Modulus (GPa) = 29.21659 37.14536 33.18098
#
# Velocity S-wave (km/s) = 3.35916 3.78763 3.57981
# Velocity P-wave (km/s) = 5.58460 6.67579 6.15442
#
# Compressibility (1/GPa) = 0.02392551
#
# Stress axis : x y z
#
# Youngs Moduli (GPa) = 36.60202 72.09373 120.64101
#
# Poissons Ratio (x) = 0.15874 1.14845
# Poissons Ratio (y) = 0.08059 0.12742
# Poissons Ratio (z) = 0.34844 0.07614
#
# Static dielectric constant tensor:
#      x y z
#    x 2.063020 0.000000 0.000000 
#    y 0.000000 2.080700 0.000000 
#    z 0.000000 0.000000 2.113900 
# 
# From -- ./inp_files/12763.got.cif
#   From: 2010.05.17/outbox.cif.g08.bks.cpg/sg20_7_cif.got.tgz:12763.got - 2010.06.03 22:52:26.
