data_PCOD9319944
_publ_section_title
;
Structure prediction by ZEFSAII (Michael W. Deem and Ramdas Pophale) SiO2 
 PCOD9319944
Probable space group: C 2 2 21
;
_chemical_formula_sum "Si O2"
_cell_formula_units_Z 32
_cell_length_a 31.933893
_cell_length_b 5.201000
_cell_length_c 8.921864
_cell_angle_alpha 90.000000
_cell_angle_beta 90.000000
_cell_angle_gamma 90.000000
_cell_volume 1481.816132
_symmetry_space_group_name_H-M "C 2 2 21"
_symmetry_group_IT_number 20
_symmetry_cell_setting 'orthorhombic'
loop_
_space_group_symop_operation_xyz
x,y,z
-x,-y,1/2+z
x,-y,-z
-x,y,1/2-z
1/2+x,1/2+y,z
1/2-x,1/2-y,1/2+z
1/2+x,1/2-y,-z
1/2-x,1/2+y,1/2-z
loop_
_atom_site_type_symbol
_atom_site_label
_atom_site_fract_x
_atom_site_fract_y
_atom_site_fract_z
Si Si1 0.905460 0.017610 0.679915
Si Si2 0.818632 0.962056 0.173074
Si Si3 0.954882 0.514233 0.681229
Si Si4 0.269269 0.752298 0.396760
O O1 0.860552 0.105833 0.740530
O O2 0.938409 0.234511 0.727900
O O3 0.902728 0.000000 0.500000
O O4 0.922060 0.736928 0.727147
O O5 0.777668 0.780735 0.168157
O O6 0.800857 0.212367 0.259603
O O7 0.829420 0.000000 0.000000
O O8 0.957690 0.500000 0.500000
O O9 0.000000 0.571251 0.750000
O O10 0.272744 0.500000 0.500000
O O11 0.277300 0.000000 0.500000
#
# Coordination Sequence:
#
# PCOD9319944 Si02
#       4
#     8   8   8   8
#     4  10  23  40  61  90 125 162 200 251 317 382
#     4  11  24  41  65  96 127 167 223 269 312 375
#     4  10  22  41  64  89 119 157 200 249 313 382
#     4  11  25  44  65  91 132 180 219 269 332 383
#
# _framework density 21.595122
#
# number of rings (size 3 to 8) (size 9 to 14) (size 15 to 20)
#    0.000    1.500    0.000    4.500    0.000   13.000 
#    0.000    1.250    0.000    0.000    0.000    0.000 
#    0.000    0.000    0.000    0.000    0.000    0.000 
#
# Total GULP energy -89434.554595 kJ/mol
# GULP energy per Si atom -5589.659662 kJ/mol
# Density = 2.154597 g / cm^3
# Si number density = 21.595122 Si / 1000 Ang^3
#
#
#
# Elastic Constant Matrix: (Units=GPa)
#
#
# Indices 1 2 3 4 5 6 
#
# 1 82.1497 8.6296 16.2963 0.0000 0.0000 0.0000
# 2 8.6296 123.7138 41.5487 0.0000 0.0000 0.0000
# 3 16.2963 41.5487 58.2190 0.0000 0.0000 0.0000
# 4 0.0000 0.0000 0.0000 20.2782 0.0000 0.0000
# 5 0.0000 0.0000 0.0000 0.0000 21.9878 0.0000
# 6 0.0000 0.0000 0.0000 0.0000 0.0000 34.1680
#
#
#
# Elastic Compliance Matrix: (Units=1/GPa)
#
#
# Indices 1 2 3 4 5 6 
#
# 1 0.012904 0.000412 -0.003906 0.000000 0.000000 0.000000
# 2 0.000412 0.010644 -0.007712 0.000000 0.000000 0.000000
# 3 -0.003906 -0.007712 0.023773 0.000000 0.000000 0.000000
# 4 0.000000 0.000000 0.000000 0.049314 0.000000 0.000000
# 5 0.000000 0.000000 0.000000 0.000000 0.045480 0.000000
# 6 0.000000 0.000000 0.000000 0.000000 0.000000 0.029267
#
#
# Mechanical properties :
#
#
# Convention : Reuss Voigt Hill
#
# Bulk Modulus (GPa) = 40.14406 44.11464 42.12935
# Shear Modulus (GPa) = 24.74036 28.46064 26.60050
#
# Velocity S-wave (km/s) = 3.38841 3.63426 3.51348
# Velocity P-wave (km/s) = 5.82565 6.17113 6.00088
#
# Compressibility (1/GPa) = 0.02491029
#
# Stress axis : x y z
#
# Youngs Moduli (GPa) = 77.49244 93.94598 42.06377
#
# Poissons Ratio (x) = -0.03867 0.16430
# Poissons Ratio (y) = -0.03190 0.32439
# Poissons Ratio (z) = 0.30268 0.72449
#
# Static dielectric constant tensor:
#      x y z
#    x 1.726750 0.000000 0.000000 
#    y 0.000000 1.800910 0.000000 
#    z 0.000000 0.000000 1.794780 
# 
# From -- ./inp_files/11237.got.cif
#   From: 2010.05.17/outbox.cif.g08.bks.cpg/sg20_6_cif.got.tgz:11237.got - 2010.06.03 22:52:26.
