data_PCOD9319166
_publ_section_title
;
Structure prediction by ZEFSAII (Michael W. Deem and Ramdas Pophale) SiO2 
 PCOD9319166
Probable space group: C 2 2 21
;
_chemical_formula_sum "Si O2"
_cell_formula_units_Z 56
_cell_length_a 6.603618
_cell_length_b 26.089107
_cell_length_c 14.991268
_cell_angle_alpha 90.000000
_cell_angle_beta 90.000000
_cell_angle_gamma 90.000000
_cell_volume 2582.733078
_symmetry_space_group_name_H-M "C 2 2 21"
_symmetry_group_IT_number 20
_symmetry_cell_setting 'orthorhombic'
loop_
_space_group_symop_operation_xyz
x,y,z
-x,-y,1/2+z
x,-y,-z
-x,y,1/2-z
1/2+x,1/2+y,z
1/2-x,1/2-y,1/2+z
1/2+x,1/2-y,-z
1/2-x,1/2+y,1/2-z
loop_
_atom_site_type_symbol
_atom_site_label
_atom_site_fract_x
_atom_site_fract_y
_atom_site_fract_z
Si Si1 0.750712 0.566686 0.833781
Si Si2 0.527288 0.097967 0.987329
Si Si3 0.011651 0.537836 0.159023
Si Si4 0.631427 0.478735 0.412148
Si Si5 0.148263 0.170673 0.823262
Si Si6 0.683517 0.307649 0.468016
Si Si7 0.006084 0.247025 0.355278
O O1 0.883007 0.514852 0.825792
O O2 0.527015 0.547371 0.849825
O O3 0.730066 0.617793 0.774604
O O4 0.844351 0.595153 0.919225
O O5 0.446324 0.072190 0.077181
O O6 0.641382 0.151378 0.992244
O O7 0.697483 0.059213 0.948693
O O8 0.000000 0.568138 0.250000
O O9 0.241845 0.521718 0.138577
O O10 0.521575 0.500000 0.500000
O O11 0.339959 0.205333 0.844648
O O12 0.000000 0.195204 0.750000
O O13 0.001314 0.167578 0.910601
O O14 0.601194 0.286764 0.563277
O O15 0.795774 0.267052 0.401102
O O16 0.000000 0.227172 0.250000
#
# Coordination Sequence:
#
# PCOD9319166 Si02
#       7
#     8   8   8   8   8   8   8
#     4  11  21  36  64  92 124 173 217 271 329 392
#     4  10  21  40  62  89 124 170 222 265 326 399
#     4  10  23  37  54  89 133 172 217 273 323 388
#     4   9  18  34  57  81 119 166 212 261 314 385
#     4  12  25  39  67 106 137 172 225 287 349 416
#     4  12  24  45  71  98 136 183 223 282 359 411
#     4  12  26  46  73 103 140 175 228 290 352 430
#
# _framework density 21.682455999999998
#
# number of rings (size 3 to 8) (size 9 to 14) (size 15 to 20)
#    0.000    1.143    5.714    2.143    2.000    0.571 
#    0.000    3.571    0.000    0.000    0.000    0.000 
#    0.000    0.000    0.000    0.000    0.000    0.000 
#
# Total GULP energy -155965.624335 kJ/mol
# GULP energy per Si atom -5570.200869 kJ/mol
# Density = 2.163311 g / cm^3
# Si number density = 21.682456 Si / 1000 Ang^3
#
#
#
# Elastic Constant Matrix: (Units=GPa)
#
#
# Indices 1 2 3 4 5 6 
#
# 1 51.4336 -4.7063 33.1402 0.0000 0.0000 0.0000
# 2 -4.7063 26.0893 29.1590 0.0000 0.0000 0.0000
# 3 33.1402 29.1590 138.8535 0.0000 0.0000 0.0000
# 4 0.0000 0.0000 0.0000 -16.5312 0.0000 0.0000
# 5 0.0000 0.0000 0.0000 0.0000 26.5703 0.0000
# 6 0.0000 0.0000 0.0000 0.0000 0.0000 6.3187
#
#
#
# Elastic Compliance Matrix: (Units=1/GPa)
#
#
# Indices 1 2 3 4 5 6 
#
# 1 0.027242 0.015917 -0.009844 0.000000 0.000000 0.000000
# 2 0.015917 0.059385 -0.016270 0.000000 0.000000 0.000000
# 3 -0.009844 -0.016270 0.012968 0.000000 0.000000 0.000000
# 4 0.000000 0.000000 0.000000 -0.060492 0.000000 0.000000
# 5 0.000000 0.000000 0.000000 0.000000 0.037636 0.000000
# 6 0.000000 0.000000 0.000000 0.000000 0.000000 0.158261
#
#
# Mechanical properties :
#
#
# Convention : Reuss Voigt Hill
#
# Bulk Modulus (GPa) = 12.62612 36.84024 24.73318
# Shear Modulus (GPa) = 17.74338 13.85711 15.80025
#
# Velocity S-wave (km/s) = 2.86375 2.53077 2.70239
# Velocity P-wave (km/s) = 4.09519 5.05642 4.60098
#
# Compressibility (1/GPa) = 0.07920092
#
# Stress axis : x y z
#
# Youngs Moduli (GPa) = 36.70797 16.83923 77.11281
#
# Poissons Ratio (x) = -0.26803 0.75913
# Poissons Ratio (y) = -0.58428 1.25460
# Poissons Ratio (z) = 0.36137 0.27397
#
# Static dielectric constant tensor:
#      x y z
#    x 1.799760 0.000000 0.000000 
#    y 0.000000 1.831640 0.000000 
#    z 0.000000 0.000000 1.973640 
# 
# From -- ./inp_files/17969.got.cif
#   From: 2010.05.17/outbox.cif.g08.bks.cpg/sg20_9_cif.got.tgz:17969.got - 2010.06.03 22:52:26.
