data_PCOD9319809
_publ_section_title
;
Structure prediction by ZEFSAII (Michael W. Deem and Ramdas Pophale) SiO2 
 PCOD9319809
Probable space group: C 2 2 21
;
_chemical_formula_sum "Si O2"
_cell_formula_units_Z 60
_cell_length_a 18.344721
_cell_length_b 4.996826
_cell_length_c 29.548055
_cell_angle_alpha 90.000000
_cell_angle_beta 90.000000
_cell_angle_gamma 90.000000
_cell_volume 2708.533656
_symmetry_space_group_name_H-M "C 2 2 21"
_symmetry_group_IT_number 20
_symmetry_cell_setting 'orthorhombic'
loop_
_space_group_symop_operation_xyz
x,y,z
-x,-y,1/2+z
x,-y,-z
-x,y,1/2-z
1/2+x,1/2+y,z
1/2-x,1/2-y,1/2+z
1/2+x,1/2-y,-z
1/2-x,1/2+y,1/2-z
loop_
_atom_site_type_symbol
_atom_site_label
_atom_site_fract_x
_atom_site_fract_y
_atom_site_fract_z
Si Si1 0.808091 0.030085 0.645651
Si Si2 0.591803 0.500000 0.000000
Si Si3 0.404993 0.107707 0.119128
Si Si4 0.188593 0.654776 0.937863
Si Si5 0.565604 0.250574 0.095474
Si Si6 0.335641 0.269932 0.026656
Si Si7 0.665864 0.384756 0.663375
Si Si8 0.206734 0.238108 0.241611
O O1 0.892155 0.090656 0.634604
O O2 0.748060 0.268859 0.652363
O O3 0.788584 0.875888 0.599375
O O4 0.807967 0.849102 0.690554
O O5 0.646138 0.722134 0.019689
O O6 0.553149 0.397865 0.046457
O O7 0.491184 0.150578 0.116764
O O8 0.380207 0.157916 0.068244
O O9 0.357239 0.317576 0.149032
O O10 0.385770 0.813629 0.135811
O O11 0.129102 0.462795 0.916038
O O12 0.266919 0.558405 0.954277
O O13 0.379112 0.500000 0.000000
O O14 0.313237 0.000000 0.000000
O O15 0.654713 0.344985 0.717168
O O16 0.222895 0.551589 0.246355
#
# Coordination Sequence:
#
# PCOD9319809 Si02
#       8
#     8   4   8   8   8   8   8   8
#     4  10  23  42  71  98 128 176 229 287 335 414
#     4  10  22  40  62  92 128 180 238 278 330 396
#     4  12  27  44  68  99 142 184 222 280 354 408
#     4  11  22  41  66  97 131 177 233 286 341 398
#     4  11  26  41  68  93 144 183 234 277 347 415
#     4  12  25  41  67  98 132 174 232 286 338 399
#     4  11  23  46  71 101 136 176 228 290 343 414
#     4  10  22  40  73 107 131 168 230 286 346 403
#
# _framework density 22.152204999999999
#
# number of rings (size 3 to 8) (size 9 to 14) (size 15 to 20)
#    0.000    1.067    2.000    4.400   10.267    1.067 
#    0.000    0.667    0.000    0.000    0.000    0.000 
#    0.000    0.000    0.000    0.000    0.000    0.000 
#
# Total GULP energy -167392.699293 kJ/mol
# GULP energy per Si atom -5579.756643 kJ/mol
# Density = 2.210179 g / cm^3
# Si number density = 22.152205 Si / 1000 Ang^3
#
#
#
# Elastic Constant Matrix: (Units=GPa)
#
#
# Indices 1 2 3 4 5 6 
#
# 1 82.7948 -8.1675 21.9486 0.0000 0.0000 0.0000
# 2 -8.1675 54.3461 0.9076 0.0000 0.0000 0.0000
# 3 21.9486 0.9076 96.7887 0.0000 0.0000 0.0000
# 4 0.0000 0.0000 0.0000 42.9971 0.0000 0.0000
# 5 0.0000 0.0000 0.0000 0.0000 7.8532 0.0000
# 6 0.0000 0.0000 0.0000 0.0000 0.0000 -0.7821
#
#
#
# Elastic Compliance Matrix: (Units=1/GPa)
#
#
# Indices 1 2 3 4 5 6 
#
# 1 0.013067 0.002014 -0.002982 0.000000 0.000000 0.000000
# 2 0.002014 0.018714 -0.000632 0.000000 0.000000 0.000000
# 3 -0.002982 -0.000632 0.011014 0.000000 0.000000 0.000000
# 4 0.000000 0.000000 0.000000 0.023257 0.000000 0.000000
# 5 0.000000 0.000000 0.000000 0.000000 0.127337 0.000000
# 6 0.000000 0.000000 0.000000 0.000000 0.000000 -1.278570
#
#
# Mechanical properties :
#
#
# Convention : Reuss Voigt Hill
#
# Bulk Modulus (GPa) = 25.25648 29.25632 27.25640
# Shear Modulus (GPa) = -4.67822 24.62969 9.97573
#
# Velocity S-wave (km/s) = -1.45480 3.33804 2.12439
# Velocity P-wave (km/s) = 2.93329 5.30022 4.28349
#
# Compressibility (1/GPa) = 0.03959380
#
# Stress axis : x y z
#
# Youngs Moduli (GPa) = 76.52730 53.43657 90.79385
#
# Poissons Ratio (x) = -0.10760 0.27076
# Poissons Ratio (y) = -0.15410 0.05739
# Poissons Ratio (z) = 0.22821 0.03378
#
# Static dielectric constant tensor:
#      x y z
#    x 1.798520 0.000000 0.000000 
#    y 0.000000 1.952160 0.000000 
#    z 0.000000 0.000000 1.893220 
# 
# From -- ./inp_files/30519.got.cif
#   From: 2010.05.17/outbox.cif.g08.bks.cpg/sg20_16_cif.got.tgz:30519.got - 2010.06.03 22:52:26.
