data_PCOD9319969
_publ_section_title
;
Structure prediction by ZEFSAII (Michael W. Deem and Ramdas Pophale) SiO2 
 PCOD9319969
Probable space group: C 2 2 21
;
_chemical_formula_sum "Si O2"
_cell_formula_units_Z 48
_cell_length_a 17.401878
_cell_length_b 8.118593
_cell_length_c 15.410648
_cell_angle_alpha 90.000000
_cell_angle_beta 90.000000
_cell_angle_gamma 90.000000
_cell_volume 2177.197316
_symmetry_space_group_name_H-M "C 2 2 21"
_symmetry_group_IT_number 20
_symmetry_cell_setting 'orthorhombic'
loop_
_space_group_symop_operation_xyz
x,y,z
-x,-y,1/2+z
x,-y,-z
-x,y,1/2-z
1/2+x,1/2+y,z
1/2-x,1/2-y,1/2+z
1/2+x,1/2-y,-z
1/2-x,1/2+y,1/2-z
loop_
_atom_site_type_symbol
_atom_site_label
_atom_site_fract_x
_atom_site_fract_y
_atom_site_fract_z
Si Si1 0.563433 0.429496 0.825688
Si Si2 0.809572 0.702967 0.137934
Si Si3 0.554381 0.632211 0.560667
Si Si4 0.435267 0.817854 0.462914
Si Si5 0.224502 0.693202 0.028236
Si Si6 0.770305 0.891290 0.301655
O O1 0.500000 0.424156 0.750000
O O2 0.517302 0.537080 0.897045
O O3 0.573308 0.245197 0.864653
O O4 0.646363 0.514300 0.808503
O O5 0.894908 0.776209 0.131475
O O6 0.764735 0.820824 0.204928
O O7 0.795296 0.521866 0.174077
O O8 0.779268 0.714925 0.039825
O O9 0.598382 0.500000 0.500000
O O10 0.517763 0.760748 0.495332
O O11 0.360521 0.738203 0.507413
O O12 0.429998 0.000000 0.500000
O O13 0.237108 0.742834 0.128060
O O14 0.227847 0.500000 0.000000
#
# Coordination Sequence:
#
# PCOD9319969 Si02
#       6
#     8   8   8   8   8   8
#     4  11  21  44  72  97 141 194 241 293 361 433
#     4  12  25  42  66 104 140 185 237 299 353 427
#     4  10  22  41  70  98 138 182 242 298 357 426
#     4  10  22  41  67 101 134 186 245 290 357 435
#     4  11  23  43  69  96 137 187 235 292 359 429
#     4  12  25  44  69 102 142 189 242 293 363 433
#
# _framework density 22.046692
#
# number of rings (size 3 to 8) (size 9 to 14) (size 15 to 20)
#    0.000    1.000    5.000    2.000    0.000    1.333 
#    3.000    0.833    0.000    0.000    0.000    0.000 
#    0.000    0.000    0.000    0.000    0.000    0.000 
#
# Total GULP energy -133785.521205 kJ/mol
# GULP energy per Si atom -5574.396717 kJ/mol
# Density = 2.199651 g / cm^3
# Si number density = 22.046692 Si / 1000 Ang^3
#
#
#
# Elastic Constant Matrix: (Units=GPa)
#
#
# Indices 1 2 3 4 5 6 
#
# 1 60.8309 23.1435 2.6359 0.0000 0.0000 0.0000
# 2 23.1435 69.5413 4.2183 0.0000 0.0000 0.0000
# 3 2.6359 4.2183 56.3351 0.0000 0.0000 0.0000
# 4 0.0000 0.0000 0.0000 39.1801 0.0000 0.0000
# 5 0.0000 0.0000 0.0000 0.0000 28.7553 0.0000
# 6 0.0000 0.0000 0.0000 0.0000 0.0000 15.0999
#
#
#
# Elastic Compliance Matrix: (Units=1/GPa)
#
#
# Indices 1 2 3 4 5 6 
#
# 1 0.018832 -0.006242 -0.000414 0.000000 0.000000 0.000000
# 2 -0.006242 0.016515 -0.000945 0.000000 0.000000 0.000000
# 3 -0.000414 -0.000945 0.017841 0.000000 0.000000 0.000000
# 4 0.000000 0.000000 0.000000 0.025523 0.000000 0.000000
# 5 0.000000 0.000000 0.000000 0.000000 0.034776 0.000000
# 6 0.000000 0.000000 0.000000 0.000000 0.000000 0.066226
#
#
# Mechanical properties :
#
#
# Convention : Reuss Voigt Hill
#
# Bulk Modulus (GPa) = 26.32506 27.41141 26.86823
# Shear Modulus (GPa) = 24.08763 27.05438 25.57100
#
# Velocity S-wave (km/s) = 3.30900 3.50686 3.40936
# Velocity P-wave (km/s) = 5.15420 5.37194 5.26420
#
# Compressibility (1/GPa) = 0.03798662
#
# Stress axis : x y z
#
# Youngs Moduli (GPa) = 53.10157 60.55229 56.05065
#
# Poissons Ratio (x) = 0.37798 0.02319
# Poissons Ratio (y) = 0.33147 0.05294
# Poissons Ratio (z) = 0.02197 0.05719
#
# Static dielectric constant tensor:
#      x y z
#    x 1.824490 0.000000 0.000000 
#    y 0.000000 1.809090 0.000000 
#    z 0.000000 0.000000 3.561410 
# 
# From -- ./inp_files/21263.got.cif
#   From: 2010.05.17/outbox.cif.g08.bks.cpg/sg20_11_cif.got.tgz:21263.got - 2010.06.03 22:52:26.
