data_PCOD9319359
_publ_section_title
;
Structure prediction by ZEFSAII (Michael W. Deem and Ramdas Pophale) SiO2 
 PCOD9319359
Probable space group: C 2 2 21
;
_chemical_formula_sum "Si O2"
_cell_formula_units_Z 64
_cell_length_a 18.620648
_cell_length_b 14.394048
_cell_length_c 11.500620
_cell_angle_alpha 90.000000
_cell_angle_beta 90.000000
_cell_angle_gamma 90.000000
_cell_volume 3082.470939
_symmetry_space_group_name_H-M "C 2 2 21"
_symmetry_group_IT_number 20
_symmetry_cell_setting 'orthorhombic'
loop_
_space_group_symop_operation_xyz
x,y,z
-x,-y,1/2+z
x,-y,-z
-x,y,1/2-z
1/2+x,1/2+y,z
1/2-x,1/2-y,1/2+z
1/2+x,1/2-y,-z
1/2-x,1/2+y,1/2-z
loop_
_atom_site_type_symbol
_atom_site_label
_atom_site_fract_x
_atom_site_fract_y
_atom_site_fract_z
Si Si1 0.649845 0.843684 0.865160
Si Si2 0.485745 0.235809 0.488324
Si Si3 0.384356 0.707318 0.842167
Si Si4 0.943607 0.066299 0.407302
Si Si5 0.185111 0.822935 0.580962
Si Si6 0.941340 0.515395 0.645898
Si Si7 0.928457 0.700761 0.796271
Si Si8 0.898907 0.009982 0.169409
O O1 0.587421 0.813191 0.954011
O O2 0.641173 0.774006 0.758214
O O3 0.730578 0.832718 0.906949
O O4 0.627204 0.948881 0.837255
O O5 0.535578 0.262369 0.379771
O O6 0.462064 0.334186 0.541710
O O7 0.537933 0.177481 0.575740
O O8 0.382156 0.597837 0.813281
O O9 0.335952 0.718085 0.956566
O O10 0.897476 0.062828 0.292052
O O11 0.019811 0.018457 0.376331
O O12 0.906650 0.000000 0.500000
O O13 0.142564 0.758558 0.675244
O O14 0.149702 0.925170 0.588912
O O15 0.920700 0.616783 0.703908
O O16 0.000000 0.485234 0.750000
O O17 0.041656 0.500000 0.000000
O O18 0.000000 0.755534 0.750000
#
# Coordination Sequence:
#
# PCOD9319359 Si02
#       8
#     8   8   8   8   8   8   8   8
#     4  12  27  41  64  99 137 176 227 285 350 414
#     4  11  21  39  65  98 133 172 223 283 337 408
#     4  11  23  42  67  94 136 178 222 284 344 408
#     4  11  19  33  63 100 131 161 212 275 321 400
#     4  11  25  43  63  98 139 183 222 275 347 421
#     4  11  25  47  74 101 131 179 239 300 343 404
#     4  10  21  41  71  93 123 175 234 280 325 395
#     4  11  21  37  64  97 133 170 215 265 338 406
#
# _framework density 20.762563
#
# number of rings (size 3 to 8) (size 9 to 14) (size 15 to 20)
#    0.000    1.000    3.750    4.500    1.750    7.000 
#    0.000    0.000    0.000    0.750    0.000    0.000 
#    0.000    0.000    0.000    0.000    0.000    0.000 
#
# Total GULP energy -178189.320207 kJ/mol
# GULP energy per Si atom -5568.416256 kJ/mol
# Density = 2.071531 g / cm^3
# Si number density = 20.762563 Si / 1000 Ang^3
#
#
#
# Elastic Constant Matrix: (Units=GPa)
#
#
# Indices 1 2 3 4 5 6 
#
# 1 128.4546 35.6974 34.1258 0.0000 0.0000 0.0000
# 2 35.6974 107.5969 46.6560 0.0000 0.0000 0.0000
# 3 34.1258 46.6560 122.7203 0.0000 0.0000 0.0000
# 4 0.0000 0.0000 0.0000 28.4746 0.0000 0.0000
# 5 0.0000 0.0000 0.0000 0.0000 14.9518 0.0000
# 6 0.0000 0.0000 0.0000 0.0000 0.0000 -1.4167
#
#
#
# Elastic Compliance Matrix: (Units=1/GPa)
#
#
# Indices 1 2 3 4 5 6 
#
# 1 0.008832 -0.002234 -0.001607 0.000000 0.000000 0.000000
# 2 -0.002234 0.011693 -0.003824 0.000000 0.000000 0.000000
# 3 -0.001607 -0.003824 0.010049 0.000000 0.000000 0.000000
# 4 0.000000 0.000000 0.000000 0.035119 0.000000 0.000000
# 5 0.000000 0.000000 0.000000 0.000000 0.066882 0.000000
# 6 0.000000 0.000000 0.000000 0.000000 0.000000 -0.705890
#
#
# Mechanical properties :
#
#
# Convention : Reuss Voigt Hill
#
# Bulk Modulus (GPa) = 65.59405 65.74781 65.67093
# Shear Modulus (GPa) = -9.04319 24.55481 7.75581
#
# Velocity S-wave (km/s) = -2.08925 3.44270 1.93483
# Velocity P-wave (km/s) = 5.08341 6.89479 6.05719
#
# Compressibility (1/GPa) = 0.01524529
#
# Stress axis : x y z
#
# Youngs Moduli (GPa) = 113.21876 85.51878 99.50773
#
# Poissons Ratio (x) = 0.19101 0.15990
# Poissons Ratio (y) = 0.25288 0.38057
# Poissons Ratio (z) = 0.18194 0.32707
#
# Static dielectric constant tensor:
#      x y z
#    x 1.697780 0.000000 0.000000 
#    y 0.000000 1.819110 0.000000 
#    z 0.000000 0.000000 1.906220 
# 
# From -- ./inp_files/15916.got.cif
#   From: 2010.05.17/outbox.cif.g08.bks.cpg/sg20_8_cif.got.tgz:15916.got - 2010.06.03 22:52:26.
