data_PCOD9319970
_publ_section_title
;
Structure prediction by ZEFSAII (Michael W. Deem and Ramdas Pophale) SiO2 
 PCOD9319970
Probable space group: C 2 2 21
;
_chemical_formula_sum "Si O2"
_cell_formula_units_Z 48
_cell_length_a 30.240315
_cell_length_b 9.080964
_cell_length_c 8.224076
_cell_angle_alpha 90.000000
_cell_angle_beta 90.000000
_cell_angle_gamma 90.000000
_cell_volume 2258.423477
_symmetry_space_group_name_H-M "C 2 2 21"
_symmetry_group_IT_number 20
_symmetry_cell_setting 'orthorhombic'
loop_
_space_group_symop_operation_xyz
x,y,z
-x,-y,1/2+z
x,-y,-z
-x,y,1/2-z
1/2+x,1/2+y,z
1/2-x,1/2-y,1/2+z
1/2+x,1/2-y,-z
1/2-x,1/2+y,1/2-z
loop_
_atom_site_type_symbol
_atom_site_label
_atom_site_fract_x
_atom_site_fract_y
_atom_site_fract_z
Si Si1 0.547655 0.665656 0.805323
Si Si2 0.361938 0.813472 0.690854
Si Si3 0.212081 0.129298 0.618021
Si Si4 0.362302 0.167587 0.690119
Si Si5 0.779669 0.365757 0.111671
Si Si6 0.048105 0.173490 0.196515
O O1 0.500000 0.722357 0.750000
O O2 0.589872 0.758663 0.753269
O O3 0.552152 0.496356 0.746476
O O4 0.547920 0.667793 0.000915
O O5 0.325922 0.725108 0.795252
O O6 0.356452 0.782385 0.497347
O O7 0.360806 0.990048 0.700335
O O8 0.240092 0.241401 0.505256
O O9 0.245042 0.074649 0.757724
O O10 0.196238 0.000000 0.500000
O O11 0.320960 0.211379 0.800105
O O12 0.409325 0.232128 0.747228
O O13 0.794871 0.500000 0.000000
O O14 0.000000 0.230385 0.250000
#
# Coordination Sequence:
#
# PCOD9319970 Si02
#       6
#     8   8   8   8   8   8
#     4   9  19  37  59  90 129 166 210 263 317 379
#     4  10  22  42  63  94 128 174 217 263 329 383
#     4  12  27  43  67  99 128 171 217 270 327 396
#     4  10  22  41  67  88 132 172 215 269 320 389
#     4  12  25  46  66  95 131 169 215 267 331 388
#     4   9  19  37  60  91 124 169 213 260 320 379
#
# _framework density 21.253765000000001
#
# number of rings (size 3 to 8) (size 9 to 14) (size 15 to 20)
#    0.000    1.667    1.667    2.000    4.667    2.000 
#    6.000    0.000    0.000    0.000    0.000    0.000 
#    0.000    0.000    0.000    0.000    0.000    0.000 
#
# Total GULP energy -134049.578169 kJ/mol
# GULP energy per Si atom -5585.399090 kJ/mol
# Density = 2.120539 g / cm^3
# Si number density = 21.253765 Si / 1000 Ang^3
#
#
#
# Elastic Constant Matrix: (Units=GPa)
#
#
# Indices 1 2 3 4 5 6 
#
# 1 139.6394 34.7927 53.9524 0.0000 0.0000 0.0000
# 2 34.7927 58.8098 42.5351 0.0000 0.0000 0.0000
# 3 53.9524 42.5351 68.8595 0.0000 0.0000 0.0000
# 4 0.0000 0.0000 0.0000 32.8084 0.0000 0.0000
# 5 0.0000 0.0000 0.0000 0.0000 35.7012 0.0000
# 6 0.0000 0.0000 0.0000 0.0000 0.0000 32.7927
#
#
#
# Elastic Compliance Matrix: (Units=1/GPa)
#
#
# Indices 1 2 3 4 5 6 
#
# 1 0.010277 -0.000463 -0.007766 0.000000 0.000000 0.000000
# 2 -0.000463 0.030756 -0.018636 0.000000 0.000000 0.000000
# 3 -0.007766 -0.018636 0.032119 0.000000 0.000000 0.000000
# 4 0.000000 0.000000 0.000000 0.030480 0.000000 0.000000
# 5 0.000000 0.000000 0.000000 0.000000 0.028010 0.000000
# 6 0.000000 0.000000 0.000000 0.000000 0.000000 0.030495
#
#
# Mechanical properties :
#
#
# Convention : Reuss Voigt Hill
#
# Bulk Modulus (GPa) = 51.48719 58.87434 55.18076
# Shear Modulus (GPa) = 22.48786 29.32903 25.90844
#
# Velocity S-wave (km/s) = 3.25632 3.71879 3.49521
# Velocity P-wave (km/s) = 6.19804 6.79706 6.50445
#
# Compressibility (1/GPa) = 0.01942231
#
# Stress axis : x y z
#
# Youngs Moduli (GPa) = 97.30082 32.51351 31.13429
#
# Poissons Ratio (x) = 0.01505 0.24180
# Poissons Ratio (y) = 0.04505 0.58021
# Poissons Ratio (z) = 0.75569 0.60591
#
# Static dielectric constant tensor:
#      x y z
#    x 1.739660 0.000000 0.000000 
#    y 0.000000 1.765490 0.000000 
#    z 0.000000 0.000000 1.778310 
# 
# From -- ./inp_files/11459.got.cif
#   From: 2010.05.17/outbox.cif.g08.bks.cpg/sg20_6_cif.got.tgz:11459.got - 2010.06.03 22:52:26.
