data_PCOD9319938
_publ_section_title
;
Structure prediction by ZEFSAII (Michael W. Deem and Ramdas Pophale) SiO2 
 PCOD9319938
Probable space group: C 2 2 21
;
_chemical_formula_sum "Si O2"
_cell_formula_units_Z 40
_cell_length_a 5.161588
_cell_length_b 23.833966
_cell_length_c 15.680436
_cell_angle_alpha 90.000000
_cell_angle_beta 90.000000
_cell_angle_gamma 90.000000
_cell_volume 1929.024687
_symmetry_space_group_name_H-M "C 2 2 21"
_symmetry_group_IT_number 20
_symmetry_cell_setting 'orthorhombic'
loop_
_space_group_symop_operation_xyz
x,y,z
-x,-y,1/2+z
x,-y,-z
-x,y,1/2-z
1/2+x,1/2+y,z
1/2-x,1/2-y,1/2+z
1/2+x,1/2-y,-z
1/2-x,1/2+y,1/2-z
loop_
_atom_site_type_symbol
_atom_site_label
_atom_site_fract_x
_atom_site_fract_y
_atom_site_fract_z
Si Si1 0.244491 0.465417 0.193631
Si Si2 0.233068 0.446006 0.943948
Si Si3 0.723921 0.744921 0.054092
Si Si4 0.439586 0.650450 0.851166
Si Si5 0.268055 0.374660 0.518913
O O1 0.500000 0.472800 0.250000
O O2 0.190021 0.523273 0.145834
O O3 0.296850 0.409476 0.138227
O O4 0.000000 0.450795 0.250000
O O5 0.470463 0.403248 0.946986
O O6 0.969486 0.417100 0.974657
O O7 0.307884 0.500000 0.000000
O O8 0.779170 0.794756 0.120062
O O9 0.791410 0.680617 0.074982
O O10 0.427822 0.743052 0.022651
O O11 0.500000 0.654784 0.750000
O O12 0.672204 0.644482 0.920757
#
# Coordination Sequence:
#
# PCOD9319938 Si02
#       5
#     8   8   8   8   8
#     4  11  25  42  64  95 134 170 217 280 331 376
#     4  12  24  40  67  94 133 173 221 257 326 396
#     4  10  22  41  63  91 129 166 212 260 323 384
#     4  10  23  41  66  98 130 163 216 279 330 379
#     4  11  23  41  66  96 129 174 217 267 316 396
#
# _framework density 20.735868
#
# number of rings (size 3 to 8) (size 9 to 14) (size 15 to 20)
#    0.000    1.200    2.000    4.200    5.600    3.200 
#    0.000    3.000    0.000    4.800    0.000    0.000 
#    0.000    0.000    0.000    0.000    0.000    0.000 
#
# Total GULP energy -111621.884621 kJ/mol
# GULP energy per Si atom -5581.094231 kJ/mol
# Density = 2.068867 g / cm^3
# Si number density = 20.735868 Si / 1000 Ang^3
#
#
#
# Elastic Constant Matrix: (Units=GPa)
#
#
# Indices 1 2 3 4 5 6 
#
# 1 86.4214 23.9392 29.3044 0.0000 0.0000 0.0000
# 2 23.9392 135.5635 53.0496 0.0000 0.0000 0.0000
# 3 29.3044 53.0496 69.5625 0.0000 0.0000 0.0000
# 4 0.0000 0.0000 0.0000 45.8947 0.0000 0.0000
# 5 0.0000 0.0000 0.0000 0.0000 23.6458 0.0000
# 6 0.0000 0.0000 0.0000 0.0000 0.0000 45.1110
#
#
#
# Elastic Compliance Matrix: (Units=1/GPa)
#
#
# Indices 1 2 3 4 5 6 
#
# 1 0.013504 -0.000226 -0.005517 0.000000 0.000000 0.000000
# 2 -0.000226 0.010518 -0.007926 0.000000 0.000000 0.000000
# 3 -0.005517 -0.007926 0.022744 0.000000 0.000000 0.000000
# 4 0.000000 0.000000 0.000000 0.021789 0.000000 0.000000
# 5 0.000000 0.000000 0.000000 0.000000 0.042291 0.000000
# 6 0.000000 0.000000 0.000000 0.000000 0.000000 0.022168
#
#
# Mechanical properties :
#
#
# Convention : Reuss Voigt Hill
#
# Bulk Modulus (GPa) = 51.46878 56.01486 53.74182
# Shear Modulus (GPa) = 29.97094 35.28060 32.62577
#
# Velocity S-wave (km/s) = 3.80592 4.12931 3.97091
# Velocity P-wave (km/s) = 6.64744 7.05742 6.85549
#
# Compressibility (1/GPa) = 0.01942926
#
# Stress axis : x y z
#
# Youngs Moduli (GPa) = 74.04981 95.07277 43.96717
#
# Poissons Ratio (x) = 0.02148 0.24255
# Poissons Ratio (y) = 0.01673 0.34849
# Poissons Ratio (z) = 0.40851 0.75357
#
# Static dielectric constant tensor:
#      x y z
#    x 1.730370 0.000000 0.000000 
#    y 0.000000 1.758710 0.000000 
#    z 0.000000 0.000000 1.813110 
# 
# From -- ./inp_files/17636.got.cif
#   From: 2010.05.17/outbox.cif.g08.bks.cpg/sg20_9_cif.got.tgz:17636.got - 2010.06.03 22:52:26.
