data_PCOD9319579
_publ_section_title
;
Structure prediction by ZEFSAII (Michael W. Deem and Ramdas Pophale) SiO2 
 PCOD9319579
Probable space group: C 2 2 21
;
_chemical_formula_sum "Si O2"
_cell_formula_units_Z 48
_cell_length_a 13.891464
_cell_length_b 26.779522
_cell_length_c 5.183548
_cell_angle_alpha 90.000000
_cell_angle_beta 90.000000
_cell_angle_gamma 90.000000
_cell_volume 1928.314927
_symmetry_space_group_name_H-M "C 2 2 21"
_symmetry_group_IT_number 20
_symmetry_cell_setting 'orthorhombic'
loop_
_space_group_symop_operation_xyz
x,y,z
-x,-y,1/2+z
x,-y,-z
-x,y,1/2-z
1/2+x,1/2+y,z
1/2-x,1/2-y,1/2+z
1/2+x,1/2-y,-z
1/2-x,1/2+y,1/2-z
loop_
_atom_site_type_symbol
_atom_site_label
_atom_site_fract_x
_atom_site_fract_y
_atom_site_fract_z
Si Si1 0.934845 0.000000 0.500000
Si Si2 0.916409 0.550778 0.907770
Si Si3 0.665262 0.417552 0.320048
Si Si4 0.725289 0.000000 0.000000
Si Si5 0.595466 0.665048 0.405365
Si Si6 0.211564 0.634730 0.422933
Si Si7 0.811207 0.257137 0.840624
O O1 0.130520 0.954442 0.097555
O O2 0.000000 0.012024 0.250000
O O3 0.836425 0.524140 0.727513
O O4 0.862557 0.587745 0.107871
O O5 0.000000 0.579039 0.750000
O O6 0.967805 0.500000 0.000000
O O7 0.705548 0.453021 0.546483
O O8 0.580990 0.383951 0.425145
O O9 0.744662 0.379490 0.203697
O O10 0.500000 0.675001 0.250000
O O11 0.618314 0.713132 0.577424
O O12 0.692139 0.648735 0.243214
O O13 0.154355 0.686625 0.398032
O O14 0.722801 0.249564 0.045833
#
# Coordination Sequence:
#
# PCOD9319579 Si02
#       7
#     4   8   8   4   8   8   8
#     4  12  31  46  67 102 156 202 258 311 361 448
#     4  11  22  41  66 102 142 184 247 308 374 453
#     4  11  25  43  65  99 139 198 243 299 375 441
#     4  10  23  40  67  90 138 188 244 295 371 442
#     4  11  25  43  74 105 148 195 254 308 375 462
#     4  10  24  41  71  99 144 194 238 310 381 441
#     4  10  21  47  70 102 138 185 241 300 366 431
#
# _framework density 24.892201
#
# number of rings (size 3 to 8) (size 9 to 14) (size 15 to 20)
#    0.000    1.333    2.500    1.500   11.667    0.667 
#    0.000    0.000    0.000    0.000    0.000    0.000 
#    0.000    0.000    0.000    0.000    0.000    0.000 
#
# Total GULP energy -133996.495117 kJ/mol
# GULP energy per Si atom -5583.187297 kJ/mol
# Density = 2.483554 g / cm^3
# Si number density = 24.892201 Si / 1000 Ang^3
#
#
#
# Elastic Constant Matrix: (Units=GPa)
#
#
# Indices 1 2 3 4 5 6 
#
# 1 84.5908 26.0465 23.4258 0.0000 0.0000 0.0000
# 2 26.0465 156.4090 21.4048 0.0000 0.0000 0.0000
# 3 23.4258 21.4048 79.1534 0.0000 0.0000 0.0000
# 4 0.0000 0.0000 0.0000 39.8415 0.0000 0.0000
# 5 0.0000 0.0000 0.0000 0.0000 49.2537 0.0000
# 6 0.0000 0.0000 0.0000 0.0000 0.0000 5.6574
#
#
#
# Elastic Compliance Matrix: (Units=1/GPa)
#
#
# Indices 1 2 3 4 5 6 
#
# 1 0.013319 -0.001743 -0.003471 0.000000 0.000000 0.000000
# 2 -0.001743 0.006867 -0.001341 0.000000 0.000000 0.000000
# 3 -0.003471 -0.001341 0.014024 0.000000 0.000000 0.000000
# 4 0.000000 0.000000 0.000000 0.025099 0.000000 0.000000
# 5 0.000000 0.000000 0.000000 0.000000 0.020303 0.000000
# 6 0.000000 0.000000 0.000000 0.000000 0.000000 0.176759
#
#
# Mechanical properties :
#
#
# Convention : Reuss Voigt Hill
#
# Bulk Modulus (GPa) = 47.39216 51.32303 49.35759
# Shear Modulus (GPa) = 18.08221 35.56892 26.82556
#
# Velocity S-wave (km/s) = 2.69814 3.78420 3.28635
# Velocity P-wave (km/s) = 5.36535 6.30527 5.85420
#
# Compressibility (1/GPa) = 0.02110054
#
# Stress axis : x y z
#
# Youngs Moduli (GPa) = 75.07821 145.61729 71.30876
#
# Poissons Ratio (x) = 0.25383 0.24748
# Poissons Ratio (y) = 0.13087 0.09564
# Poissons Ratio (z) = 0.26056 0.19530
#
# Static dielectric constant tensor:
#      x y z
#    x 2.055070 0.000000 0.000000 
#    y 0.000000 2.003260 0.000000 
#    z 0.000000 0.000000 2.080270 
# 
# From -- ./inp_files/2078.got.cif
#   From: 2010.05.17/outbox.cif.g08.bks.cpg/sg20_2_cif.got.tgz:2078.got - 2010.06.03 22:52:26.
