data_PCOD9319826
_publ_section_title
;
Structure prediction by ZEFSAII (Michael W. Deem and Ramdas Pophale) SiO2 
 PCOD9319826
Probable space group: C 2 2 21
;
_chemical_formula_sum "Si O2"
_cell_formula_units_Z 48
_cell_length_a 7.072521
_cell_length_b 11.802337
_cell_length_c 24.916241
_cell_angle_alpha 90.000000
_cell_angle_beta 90.000000
_cell_angle_gamma 90.000000
_cell_volume 2079.815353
_symmetry_space_group_name_H-M "C 2 2 21"
_symmetry_group_IT_number 20
_symmetry_cell_setting 'orthorhombic'
loop_
_space_group_symop_operation_xyz
x,y,z
-x,-y,1/2+z
x,-y,-z
-x,y,1/2-z
1/2+x,1/2+y,z
1/2-x,1/2-y,1/2+z
1/2+x,1/2-y,-z
1/2-x,1/2+y,1/2-z
loop_
_atom_site_type_symbol
_atom_site_label
_atom_site_fract_x
_atom_site_fract_y
_atom_site_fract_z
Si Si1 0.897587 0.476140 0.440486
Si Si2 0.736085 0.935585 0.629757
Si Si3 0.781598 0.732150 0.046511
Si Si4 0.835453 0.239226 0.282503
Si Si5 0.799857 0.339892 0.177606
Si Si6 0.221024 0.289651 0.928965
O O1 0.981615 0.500000 0.500000
O O2 0.814196 0.351360 0.439330
O O3 0.744625 0.576493 0.435273
O O4 0.048296 0.505639 0.394998
O O5 0.819810 0.870794 0.577727
O O6 0.729161 0.836307 0.674198
O O7 0.809296 0.046253 0.660580
O O8 0.994888 0.729214 0.067933
O O9 0.792872 0.725914 0.982111
O O10 0.719445 0.291405 0.233451
O O11 0.000000 0.168706 0.250000
O O12 0.972083 0.336252 0.308822
O O13 0.786511 0.256167 0.127424
#
# Coordination Sequence:
#
# PCOD9319826 Si02
#       6
#     8   8   8   8   8   8
#     4   9  21  40  60  96 139 176 218 267 336 411
#     4  11  20  39  70  94 126 177 220 280 335 415
#     4  10  23  39  63 102 136 178 223 271 349 421
#     4   8  22  44  60  94 132 173 225 288 338 395
#     4   9  22  41  62  97 128 170 229 276 343 399
#     4  10  22  40  63  97 142 179 217 282 338 418
#
# _framework density 23.078969000000001
#
# number of rings (size 3 to 8) (size 9 to 14) (size 15 to 20)
#    1.000    1.333    0.000    1.000    9.333    1.333 
#   21.000    1.667    0.000    0.000    0.000    0.000 
#    0.000    0.000    0.000    0.000    0.000    0.000 
#
# Total GULP energy -133603.433837 kJ/mol
# GULP energy per Si atom -5566.809743 kJ/mol
# Density = 2.302644 g / cm^3
# Si number density = 23.078969 Si / 1000 Ang^3
#
#
#
# Elastic Constant Matrix: (Units=GPa)
#
#
# Indices 1 2 3 4 5 6 
#
# 1 63.4585 24.1772 29.8094 0.0000 0.0000 0.0000
# 2 24.1772 109.7077 34.2921 0.0000 0.0000 0.0000
# 3 29.8094 34.2921 133.9633 0.0000 0.0000 0.0000
# 4 0.0000 0.0000 0.0000 34.9206 0.0000 0.0000
# 5 0.0000 0.0000 0.0000 0.0000 31.8524 0.0000
# 6 0.0000 0.0000 0.0000 0.0000 0.0000 23.9289
#
#
#
# Elastic Compliance Matrix: (Units=1/GPa)
#
#
# Indices 1 2 3 4 5 6 
#
# 1 0.018480 -0.003030 -0.003337 0.000000 0.000000 0.000000
# 2 -0.003030 0.010405 -0.001989 0.000000 0.000000 0.000000
# 3 -0.003337 -0.001989 0.008716 0.000000 0.000000 0.000000
# 4 0.000000 0.000000 0.000000 0.028636 0.000000 0.000000
# 5 0.000000 0.000000 0.000000 0.000000 0.031395 0.000000
# 6 0.000000 0.000000 0.000000 0.000000 0.000000 0.041790
#
#
# Mechanical properties :
#
#
# Convention : Reuss Voigt Hill
#
# Bulk Modulus (GPa) = 47.86985 53.74299 50.80642
# Shear Modulus (GPa) = 30.65663 32.73043 31.69353
#
# Velocity S-wave (km/s) = 3.64859 3.76998 3.70978
# Velocity P-wave (km/s) = 6.20777 6.50288 6.35704
#
# Compressibility (1/GPa) = 0.02088998
#
# Stress axis : x y z
#
# Youngs Moduli (GPa) = 54.11270 96.11146 114.72632
#
# Poissons Ratio (x) = 0.29118 0.38280
# Poissons Ratio (y) = 0.16394 0.22822
# Poissons Ratio (z) = 0.18055 0.19119
#
# Static dielectric constant tensor:
#      x y z
#    x 1.941310 0.000000 0.000000 
#    y 0.000000 1.951950 0.000000 
#    z 0.000000 0.000000 1.932890 
# 
# From -- ./inp_files/28732.got.cif
#   From: 2010.05.17/outbox.cif.g08.bks.cpg/sg20_15_cif.got.tgz:28732.got - 2010.06.03 22:52:26.
