data_PCOD9319381
_publ_section_title
;
Structure prediction by ZEFSAII (Michael W. Deem and Ramdas Pophale) SiO2 
 PCOD9319381
Probable space group: C 2 2 21
;
_chemical_formula_sum "Si O2"
_cell_formula_units_Z 56
_cell_length_a 5.250218
_cell_length_b 19.948495
_cell_length_c 24.256514
_cell_angle_alpha 90.000000
_cell_angle_beta 90.000000
_cell_angle_gamma 90.000000
_cell_volume 2540.480464
_symmetry_space_group_name_H-M "C 2 2 21"
_symmetry_group_IT_number 20
_symmetry_cell_setting 'orthorhombic'
loop_
_space_group_symop_operation_xyz
x,y,z
-x,-y,1/2+z
x,-y,-z
-x,y,1/2-z
1/2+x,1/2+y,z
1/2-x,1/2-y,1/2+z
1/2+x,1/2-y,-z
1/2-x,1/2+y,1/2-z
loop_
_atom_site_type_symbol
_atom_site_label
_atom_site_fract_x
_atom_site_fract_y
_atom_site_fract_z
Si Si1 0.618944 0.222007 0.194034
Si Si2 0.454877 0.932536 0.996979
Si Si3 0.827720 0.883559 0.074588
Si Si4 0.864816 0.027993 0.095067
Si Si5 0.255562 0.067281 0.284053
Si Si6 0.582045 0.343594 0.958206
Si Si7 0.372408 0.241659 0.631921
O O1 0.500000 0.253089 0.250000
O O2 0.718511 0.147588 0.207892
O O3 0.365743 0.215730 0.156064
O O4 0.868607 0.258363 0.168234
O O5 0.665819 0.959168 0.954537
O O6 0.369568 0.861341 0.973100
O O7 0.553853 0.911893 0.056321
O O8 0.279352 0.000000 0.000000
O O9 0.768121 0.828421 0.119733
O O10 0.969577 0.952073 0.091321
O O11 0.945152 0.853546 0.017596
O O12 0.750373 0.035797 0.155495
O O13 0.033650 0.094042 0.083863
O O14 0.500000 0.044329 0.250000
O O15 0.000000 0.053190 0.250000
O O16 0.543216 0.275564 0.925954
#
# Coordination Sequence:
#
# PCOD9319381 Si02
#       7
#     8   8   8   8   8   8   8
#     4  11  24  46  70  97 127 173 232 287 335 400
#     4   9  19  37  62  89 126 178 219 265 324 404
#     4  10  25  40  60  97 143 173 220 271 337 414
#     4  10  21  42  63  95 130 176 222 276 341 401
#     4  11  23  41  70  99 123 160 226 292 330 382
#     4  11  22  37  67  94 132 182 226 267 327 412
#     4  12  26  41  69 101 136 179 221 279 341 395
#
# _framework density 22.043075999999999
#
# number of rings (size 3 to 8) (size 9 to 14) (size 15 to 20)
#    0.000    1.429    1.429    5.143    8.000    0.000 
#    0.000    2.143    0.000    0.000    0.000    0.000 
#    0.000    0.000    0.000    0.000    0.000    0.000 
#
# Total GULP energy -155875.604371 kJ/mol
# GULP energy per Si atom -5566.985870 kJ/mol
# Density = 2.199291 g / cm^3
# Si number density = 22.043076 Si / 1000 Ang^3
#
#
#
# Elastic Constant Matrix: (Units=GPa)
#
#
# Indices 1 2 3 4 5 6 
#
# 1 88.1110 4.8982 25.5986 0.0000 0.0000 0.0000
# 2 4.8982 45.0741 1.5985 0.0000 0.0000 0.0000
# 3 25.5986 1.5985 79.4983 0.0000 0.0000 0.0000
# 4 0.0000 0.0000 0.0000 20.1836 0.0000 0.0000
# 5 0.0000 0.0000 0.0000 0.0000 22.4345 0.0000
# 6 0.0000 0.0000 0.0000 0.0000 0.0000 16.4539
#
#
#
# Elastic Compliance Matrix: (Units=1/GPa)
#
#
# Indices 1 2 3 4 5 6 
#
# 1 0.012588 -0.001225 -0.004029 0.000000 0.000000 0.000000
# 2 -0.001225 0.022321 -0.000054 0.000000 0.000000 0.000000
# 3 -0.004029 -0.000054 0.013877 0.000000 0.000000 0.000000
# 4 0.000000 0.000000 0.000000 0.049545 0.000000 0.000000
# 5 0.000000 0.000000 0.000000 0.000000 0.044574 0.000000
# 6 0.000000 0.000000 0.000000 0.000000 0.000000 0.060776
#
#
# Mechanical properties :
#
#
# Convention : Reuss Voigt Hill
#
# Bulk Modulus (GPa) = 26.19882 30.76380 28.48131
# Shear Modulus (GPa) = 22.02446 23.85361 22.93903
#
# Velocity S-wave (km/s) = 3.16437 3.29315 3.22940
# Velocity P-wave (km/s) = 5.02614 5.33351 5.18210
#
# Compressibility (1/GPa) = 0.03816966
#
# Stress axis : x y z
#
# Youngs Moduli (GPa) = 79.44159 44.80135 72.06057
#
# Poissons Ratio (x) = 0.05488 0.29031
# Poissons Ratio (y) = 0.09732 0.00392
# Poissons Ratio (z) = 0.32004 0.00243
#
# Static dielectric constant tensor:
#      x y z
#    x 2.038320 0.000000 0.000000 
#    y 0.000000 1.985760 0.000000 
#    z 0.000000 0.000000 1.783790 
# 
# From -- ./inp_files/28426.got.cif
#   From: 2010.05.17/outbox.cif.g08.bks.cpg/sg20_15_cif.got.tgz:28426.got - 2010.06.03 22:52:26.
