data_PCOD9319635
_publ_section_title
;
Structure prediction by ZEFSAII (Michael W. Deem and Ramdas Pophale) SiO2 
 PCOD9319635
Probable space group: C 2 2 21
;
_chemical_formula_sum "Si O2"
_cell_formula_units_Z 48
_cell_length_a 8.626491
_cell_length_b 28.007350
_cell_length_c 8.805830
_cell_angle_alpha 90.000000
_cell_angle_beta 90.000000
_cell_angle_gamma 90.000000
_cell_volume 2127.533902
_symmetry_space_group_name_H-M "C 2 2 21"
_symmetry_group_IT_number 20
_symmetry_cell_setting 'orthorhombic'
loop_
_space_group_symop_operation_xyz
x,y,z
-x,-y,1/2+z
x,-y,-z
-x,y,1/2-z
1/2+x,1/2+y,z
1/2-x,1/2-y,1/2+z
1/2+x,1/2-y,-z
1/2-x,1/2+y,1/2-z
loop_
_atom_site_type_symbol
_atom_site_label
_atom_site_fract_x
_atom_site_fract_y
_atom_site_fract_z
Si Si1 0.821212 0.578946 0.188966
Si Si2 0.500000 0.819974 0.250000
Si Si3 0.000000 0.169509 0.750000
Si Si4 0.187150 0.685166 0.260649
Si Si5 0.748895 0.103771 0.646125
Si Si6 0.751378 0.229553 0.943877
Si Si7 0.669940 0.015530 0.825818
O O1 0.758753 0.630437 0.241168
O O2 0.748560 0.530427 0.250952
O O3 0.000000 0.578157 0.250000
O O4 0.802717 0.578356 0.008239
O O5 0.378471 0.855971 0.176303
O O6 0.410197 0.788790 0.373429
O O7 0.906264 0.133639 0.641047
O O8 0.885405 0.202583 0.848361
O O9 0.233286 0.714594 0.409925
O O10 0.000000 0.684753 0.250000
O O11 0.253361 0.714460 0.118166
O O12 0.751376 0.065246 0.783053
O O13 0.500000 0.021222 0.750000
O O14 0.652839 0.000000 0.000000
#
# Coordination Sequence:
#
# PCOD9319635 Si02
#       7
#     8   4   4   8   8   8   8
#     4  10  22  39  66  99 132 168 228 286 334 397
#     4  10  22  36  70  94 126 182 230 276 330 400
#     4  10  26  44  70  96 144 182 230 276 346 414
#     4  11  25  42  68 100 141 176 230 283 346 402
#     4  11  22  43  68  96 136 178 225 277 348 404
#     4  11  25  43  68 100 141 182 233 282 342 412
#     4  11  22  37  67 103 134 173 230 290 343 402
#
# _framework density 22.561330999999999
#
# number of rings (size 3 to 8) (size 9 to 14) (size 15 to 20)
#    0.000    1.333    1.667    4.500   11.667    0.000 
#    0.000    1.667    0.000    0.000    0.000    0.000 
#    0.000    0.000    0.000    0.000    0.000    0.000 
#
# Total GULP energy -134242.552484 kJ/mol
# GULP energy per Si atom -5593.439687 kJ/mol
# Density = 2.250998 g / cm^3
# Si number density = 22.561331 Si / 1000 Ang^3
#
#
#
# Elastic Constant Matrix: (Units=GPa)
#
#
# Indices 1 2 3 4 5 6 
#
# 1 45.3259 25.6937 11.4390 0.0000 0.0000 0.0000
# 2 25.6937 135.5760 7.4748 0.0000 0.0000 0.0000
# 3 11.4390 7.4748 94.1153 0.0000 0.0000 0.0000
# 4 0.0000 0.0000 0.0000 43.8627 0.0000 0.0000
# 5 0.0000 0.0000 0.0000 0.0000 26.5339 0.0000
# 6 0.0000 0.0000 0.0000 0.0000 0.0000 20.0281
#
#
#
# Elastic Compliance Matrix: (Units=1/GPa)
#
#
# Indices 1 2 3 4 5 6 
#
# 1 0.025391 -0.004662 -0.002716 0.000000 0.000000 0.000000
# 2 -0.004662 0.008264 -0.000090 0.000000 0.000000 0.000000
# 3 -0.002716 -0.000090 0.010962 0.000000 0.000000 0.000000
# 4 0.000000 0.000000 0.000000 0.022798 0.000000 0.000000
# 5 0.000000 0.000000 0.000000 0.000000 0.037688 0.000000
# 6 0.000000 0.000000 0.000000 0.000000 0.000000 0.049930
#
#
# Mechanical properties :
#
#
# Convention : Reuss Voigt Hill
#
# Bulk Modulus (GPa) = 33.69019 40.47025 37.08022
# Shear Modulus (GPa) = 27.79895 33.44559 30.62227
#
# Velocity S-wave (km/s) = 3.51401 3.85441 3.68814
# Velocity P-wave (km/s) = 5.60620 6.14699 5.88281
#
# Compressibility (1/GPa) = 0.02968223
#
# Stress axis : x y z
#
# Youngs Moduli (GPa) = 39.38455 121.00037 91.22033
#
# Poissons Ratio (x) = 0.56413 0.24773
# Poissons Ratio (y) = 0.18362 0.00818
# Poissons Ratio (z) = 0.10696 0.01086
#
# Static dielectric constant tensor:
#      x y z
#    x 1.845080 0.000000 0.000000 
#    y 0.000000 1.848920 0.000000 
#    z 0.000000 0.000000 1.867080 
# 
# From -- ./inp_files/6566.got.cif
#   From: 2010.05.17/outbox.cif.g08.bks.cpg/sg20_4_cif.got.tgz:6566.got - 2010.06.03 22:52:26.
