data_PCOD9319247
_publ_section_title
;
Structure prediction by ZEFSAII (Michael W. Deem and Ramdas Pophale) SiO2 
 PCOD9319247
Probable space group: C 2 2 21
;
_chemical_formula_sum "Si O2"
_cell_formula_units_Z 52
_cell_length_a 19.699747
_cell_length_b 9.509741
_cell_length_c 13.495772
_cell_angle_alpha 90.000000
_cell_angle_beta 90.000000
_cell_angle_gamma 90.000000
_cell_volume 2528.291067
_symmetry_space_group_name_H-M "C 2 2 21"
_symmetry_group_IT_number 20
_symmetry_cell_setting 'orthorhombic'
loop_
_space_group_symop_operation_xyz
x,y,z
-x,-y,1/2+z
x,-y,-z
-x,y,1/2-z
1/2+x,1/2+y,z
1/2-x,1/2-y,1/2+z
1/2+x,1/2-y,-z
1/2-x,1/2+y,1/2-z
loop_
_atom_site_type_symbol
_atom_site_label
_atom_site_fract_x
_atom_site_fract_y
_atom_site_fract_z
Si Si1 0.633332 0.793941 0.021304
Si Si2 0.692567 0.835505 0.799570
Si Si3 0.062570 0.642517 0.319531
Si Si4 0.529199 0.534198 0.650660
Si Si5 0.508599 0.000000 0.000000
Si Si6 0.239240 0.105652 0.645421
Si Si7 0.135326 0.000000 0.500000
Si Si8 0.414502 0.500000 0.500000
O O1 0.658937 0.804414 0.906853
O O2 0.562350 0.877885 0.032912
O O3 0.689538 0.857301 0.093830
O O4 0.626199 0.629339 0.043652
O O5 0.633115 0.899757 0.730443
O O6 0.719769 0.703346 0.737285
O O7 0.752436 0.946135 0.817888
O O8 0.061047 0.813359 0.325206
O O9 0.000000 0.602881 0.250000
O O10 0.041421 0.571287 0.421243
O O11 0.500000 0.466580 0.750000
O O12 0.583640 0.448421 0.585894
O O13 0.464055 0.563237 0.582815
O O14 0.184066 0.108365 0.556644
#
# Coordination Sequence:
#
# PCOD9319247 Si02
#       8
#     8   8   8   8   4   8   4   4
#     4  12  23  46  70  94 140 177 226 285 345 409
#     4  12  25  46  70  98 137 186 229 283 346 415
#     4  11  20  40  70  95 129 175 224 277 346 408
#     4  10  21  40  68  98 130 172 223 282 345 401
#     4  12  21  42  72  92 131 180 218 280 348 404
#     4  12  26  46  69 100 138 188 232 278 347 414
#     4  11  21  42  70  92 141 183 216 284 346 409
#     4  11  24  38  68 106 124 171 228 280 338 411
#
# _framework density 20.567252
#
# number of rings (size 3 to 8) (size 9 to 14) (size 15 to 20)
#    0.000    0.615    7.692    0.923    2.154    0.000 
#    5.538    2.308    0.000    0.000    0.000    0.000 
#    0.000    0.000    0.000    0.000    0.000    0.000 
#
# Total GULP energy -145108.800066 kJ/mol
# GULP energy per Si atom -5581.107695 kJ/mol
# Density = 2.052044 g / cm^3
# Si number density = 20.567252 Si / 1000 Ang^3
#
#
#
# Elastic Constant Matrix: (Units=GPa)
#
#
# Indices 1 2 3 4 5 6 
#
# 1 64.7289 6.2698 26.6176 0.0000 0.0000 0.0000
# 2 6.2698 61.2076 0.3413 0.0000 0.0000 0.0000
# 3 26.6176 0.3413 60.0108 0.0000 0.0000 0.0000
# 4 0.0000 0.0000 0.0000 33.6092 0.0000 0.0000
# 5 0.0000 0.0000 0.0000 0.0000 25.7160 0.0000
# 6 0.0000 0.0000 0.0000 0.0000 0.0000 -33.8645
#
#
#
# Elastic Compliance Matrix: (Units=1/GPa)
#
#
# Indices 1 2 3 4 5 6 
#
# 1 0.019116 -0.001911 -0.008468 0.000000 0.000000 0.000000
# 2 -0.001911 0.016529 0.000754 0.000000 0.000000 0.000000
# 3 -0.008468 0.000754 0.020415 0.000000 0.000000 0.000000
# 4 0.000000 0.000000 0.000000 0.029754 0.000000 0.000000
# 5 0.000000 0.000000 0.000000 0.000000 0.038886 0.000000
# 6 0.000000 0.000000 0.000000 0.000000 0.000000 -0.029529
#
#
# Mechanical properties :
#
#
# Convention : Reuss Voigt Hill
#
# Bulk Modulus (GPa) = 27.16643 28.04498 27.60571
# Shear Modulus (GPa) = 39.46549 15.27337 27.36943
#
# Velocity S-wave (km/s) = 4.38522 2.72804 3.65187
# Velocity P-wave (km/s) = 6.23518 4.85677 5.58864
#
# Compressibility (1/GPa) = 0.03681013
#
# Stress axis : x y z
#
# Youngs Moduli (GPa) = 52.31113 60.49827 48.98261
#
# Poissons Ratio (x) = 0.11561 0.41479
# Poissons Ratio (y) = 0.09996 -0.03691
# Poissons Ratio (z) = 0.44298 -0.04559
#
# Static dielectric constant tensor:
#      x y z
#    x 1.741680 0.000000 0.000000 
#    y 0.000000 1.734280 0.000000 
#    z 0.000000 0.000000 2.019100 
# 
# From -- ./inp_files/21735.got.cif
#   From: 2010.05.17/outbox.cif.g08.bks.cpg/sg20_11_cif.got.tgz:21735.got - 2010.06.03 22:52:26.
