data_PCOD9319525
_publ_section_title
;
Structure prediction by ZEFSAII (Michael W. Deem and Ramdas Pophale) SiO2 
 PCOD9319525
Probable space group: C 2 2 21
;
_chemical_formula_sum "Si O2"
_cell_formula_units_Z 40
_cell_length_a 10.382359
_cell_length_b 21.628129
_cell_length_c 8.226881
_cell_angle_alpha 90.000000
_cell_angle_beta 90.000000
_cell_angle_gamma 90.000000
_cell_volume 1847.354354
_symmetry_space_group_name_H-M "C 2 2 21"
_symmetry_group_IT_number 20
_symmetry_cell_setting 'orthorhombic'
loop_
_space_group_symop_operation_xyz
x,y,z
-x,-y,1/2+z
x,-y,-z
-x,y,1/2-z
1/2+x,1/2+y,z
1/2-x,1/2-y,1/2+z
1/2+x,1/2-y,-z
1/2-x,1/2+y,1/2-z
loop_
_atom_site_type_symbol
_atom_site_label
_atom_site_fract_x
_atom_site_fract_y
_atom_site_fract_z
Si Si1 0.152077 0.291757 0.780478
Si Si2 0.745160 0.165359 0.859662
Si Si3 0.105381 0.500000 0.500000
Si Si4 0.000000 0.593087 0.750000
Si Si5 0.937967 0.926187 0.987328
Si Si6 0.202241 0.096356 0.144539
O O1 0.199193 0.223420 0.736763
O O2 0.221848 0.339872 0.659219
O O3 0.000000 0.296602 0.750000
O O4 0.193226 0.311042 0.963502
O O5 0.625401 0.134639 0.768957
O O6 0.852998 0.112749 0.887463
O O7 0.018539 0.451920 0.402701
O O8 0.198833 0.459310 0.613736
O O9 0.869912 0.912609 0.815286
O O10 0.086332 0.904627 0.984561
O O11 0.936967 0.000000 0.000000
#
# Coordination Sequence:
#
# PCOD9319525 Si02
#       6
#     8   8   4   4   8   8
#     4  11  27  47  73 102 146 193 246 300 371 438
#     4  11  28  46  75 104 147 191 247 305 366 439
#     4  12  26  44  72 104 144 194 240 304 368 434
#     4  12  30  46  74 106 152 190 252 300 374 440
#     4  10  21  44  70 105 139 182 236 295 363 431
#     4  10  23  42  71 100 142 185 233 299 359 433
#
# _framework density 21.652587
#
# number of rings (size 3 to 8) (size 9 to 14) (size 15 to 20)
#    0.000    1.200    1.000    2.400   16.800    1.600 
#    3.600    0.000    0.000    0.000    0.000    0.000 
#    0.000    0.000    0.000    0.000    0.000    0.000 
#
# Total GULP energy -111973.667700 kJ/mol
# GULP energy per Si atom -5598.683385 kJ/mol
# Density = 2.160330 g / cm^3
# Si number density = 21.652587 Si / 1000 Ang^3
#
#
#
# Elastic Constant Matrix: (Units=GPa)
#
#
# Indices 1 2 3 4 5 6 
#
# 1 138.8310 88.4521 14.0041 0.0000 0.0000 0.0000
# 2 88.4521 179.8984 29.8816 0.0000 0.0000 0.0000
# 3 14.0041 29.8816 49.3847 0.0000 0.0000 0.0000
# 4 0.0000 0.0000 0.0000 36.7743 0.0000 0.0000
# 5 0.0000 0.0000 0.0000 0.0000 23.9312 0.0000
# 6 0.0000 0.0000 0.0000 0.0000 0.0000 51.6840
#
#
#
# Elastic Compliance Matrix: (Units=1/GPa)
#
#
# Indices 1 2 3 4 5 6 
#
# 1 0.010490 -0.005185 0.000162 0.000000 0.000000 0.000000
# 2 -0.005185 0.008742 -0.003820 0.000000 0.000000 0.000000
# 3 0.000162 -0.003820 0.022514 0.000000 0.000000 0.000000
# 4 0.000000 0.000000 0.000000 0.027193 0.000000 0.000000
# 5 0.000000 0.000000 0.000000 0.000000 0.041786 0.000000
# 6 0.000000 0.000000 0.000000 0.000000 0.000000 0.019348
#
#
# Mechanical properties :
#
#
# Convention : Reuss Voigt Hill
#
# Bulk Modulus (GPa) = 41.55759 70.30995 55.93377
# Shear Modulus (GPa) = 32.09686 38.19631 35.14659
#
# Velocity S-wave (km/s) = 3.85432 4.20462 4.03327
# Velocity P-wave (km/s) = 6.24838 7.49094 6.89769
#
# Compressibility (1/GPa) = 0.02406299
#
# Stress axis : x y z
#
# Youngs Moduli (GPa) = 95.33039 114.38651 44.41630
#
# Poissons Ratio (x) = 0.59305 -0.00722
# Poissons Ratio (y) = 0.49425 0.16965
# Poissons Ratio (z) = -0.01549 0.43691
#
# Static dielectric constant tensor:
#      x y z
#    x 1.750810 0.000000 0.000000 
#    y 0.000000 1.741170 0.000000 
#    z 0.000000 0.000000 1.825050 
# 
# From -- ./inp_files/6154.got.cif
#   From: 2010.05.17/outbox.cif.g08.bks.cpg/sg20_4_cif.got.tgz:6154.got - 2010.06.03 22:52:26.
