data_PCOD9319326
_publ_section_title
;
Structure prediction by ZEFSAII (Michael W. Deem and Ramdas Pophale) SiO2 
 PCOD9319326
Probable space group: C 2 2 21
;
_chemical_formula_sum "Si O2"
_cell_formula_units_Z 44
_cell_length_a 11.893108
_cell_length_b 13.304198
_cell_length_c 13.882660
_cell_angle_alpha 90.000000
_cell_angle_beta 90.000000
_cell_angle_gamma 90.000000
_cell_volume 2196.629187
_symmetry_space_group_name_H-M "C 2 2 21"
_symmetry_group_IT_number 20
_symmetry_cell_setting 'orthorhombic'
loop_
_space_group_symop_operation_xyz
x,y,z
-x,-y,1/2+z
x,-y,-z
-x,y,1/2-z
1/2+x,1/2+y,z
1/2-x,1/2-y,1/2+z
1/2+x,1/2-y,-z
1/2-x,1/2+y,1/2-z
loop_
_atom_site_type_symbol
_atom_site_label
_atom_site_fract_x
_atom_site_fract_y
_atom_site_fract_z
Si Si1 0.125789 0.503657 0.731495
Si Si2 0.833405 0.628101 0.413312
Si Si3 0.263315 0.652307 0.603848
Si Si4 0.413940 0.167223 0.071042
Si Si5 0.988719 0.111653 0.864683
Si Si6 0.159786 0.000000 0.500000
O O1 0.165463 0.456040 0.831208
O O2 0.204410 0.588303 0.687015
O O3 0.116417 0.410657 0.656143
O O4 0.000000 0.543288 0.750000
O O5 0.794355 0.733507 0.368812
O O6 0.740912 0.594595 0.488611
O O7 0.957865 0.637302 0.458094
O O8 0.177649 0.655011 0.513352
O O9 0.387570 0.607721 0.586800
O O10 0.430596 0.281211 0.108736
O O11 0.000000 0.106455 0.750000
O O12 0.917173 0.021013 0.908246
#
# Coordination Sequence:
#
# PCOD9319326 Si02
#       6
#     8   8   8   8   8   4
#     4  10  22  39  66  95 128 169 217 269 331 394
#     4  10  23  41  63  95 134 171 216 271 332 390
#     4  11  22  42  65  97 128 169 225 273 325 401
#     4  10  21  41  67  95 127 169 218 269 332 397
#     4  11  24  44  66  92 138 182 217 270 345 401
#     4  12  24  42  64  98 128 182 220 276 326 408
#
# _framework density 20.030691999999998
#
# number of rings (size 3 to 8) (size 9 to 14) (size 15 to 20)
#    0.000    1.455    1.818    4.364    7.636    0.000 
#    0.000    2.727    0.000    0.000    0.000    0.000 
#    0.000    0.000    0.000    0.000    0.000    0.000 
#
# Total GULP energy -122830.562184 kJ/mol
# GULP energy per Si atom -5583.207372 kJ/mol
# Density = 1.998510 g / cm^3
# Si number density = 20.030692 Si / 1000 Ang^3
#
#
#
# Elastic Constant Matrix: (Units=GPa)
#
#
# Indices 1 2 3 4 5 6 
#
# 1 129.0682 40.6281 52.0705 0.0000 0.0000 0.0000
# 2 40.6281 41.5192 3.5507 0.0000 0.0000 0.0000
# 3 52.0705 3.5507 74.4842 0.0000 0.0000 0.0000
# 4 0.0000 0.0000 0.0000 32.1652 0.0000 0.0000
# 5 0.0000 0.0000 0.0000 0.0000 28.1330 0.0000
# 6 0.0000 0.0000 0.0000 0.0000 0.0000 25.3570
#
#
#
# Elastic Compliance Matrix: (Units=1/GPa)
#
#
# Indices 1 2 3 4 5 6 
#
# 1 0.017398 -0.016050 -0.011398 0.000000 0.000000 0.000000
# 2 -0.016050 0.038990 0.009362 0.000000 0.000000 0.000000
# 3 -0.011398 0.009362 0.020947 0.000000 0.000000 0.000000
# 4 0.000000 0.000000 0.000000 0.031089 0.000000 0.000000
# 5 0.000000 0.000000 0.000000 0.000000 0.035545 0.000000
# 6 0.000000 0.000000 0.000000 0.000000 0.000000 0.039437
#
#
# Mechanical properties :
#
#
# Convention : Reuss Voigt Hill
#
# Bulk Modulus (GPa) = 24.29329 48.61893 36.45611
# Shear Modulus (GPa) = 21.43146 27.05252 24.24199
#
# Velocity S-wave (km/s) = 3.27453 3.67897 3.48263
# Velocity P-wave (km/s) = 5.14306 6.50933 5.86611
#
# Compressibility (1/GPa) = 0.04116362
#
# Stress axis : x y z
#
# Youngs Moduli (GPa) = 57.47653 25.64730 47.73874
#
# Poissons Ratio (x) = 0.41165 0.54412
# Poissons Ratio (y) = 0.92251 -0.44692
# Poissons Ratio (z) = 0.65510 -0.24010
#
# Static dielectric constant tensor:
#      x y z
#    x 1.715770 0.000000 0.000000 
#    y 0.000000 1.747370 0.000000 
#    z 0.000000 0.000000 1.681840 
# 
# From -- ./inp_files/19842.got.cif
#   From: 2010.05.17/outbox.cif.g08.bks.cpg/sg20_10_cif.got.tgz:19842.got - 2010.06.03 22:52:26.
