data_PCOD9319051
_publ_section_title
;
Structure prediction by ZEFSAII (Michael W. Deem and Ramdas Pophale) SiO2 
 PCOD9319051
Probable space group: C 2 2 21
;
_chemical_formula_sum "Si O2"
_cell_formula_units_Z 64
_cell_length_a 5.150040
_cell_length_b 23.007453
_cell_length_c 22.997123
_cell_angle_alpha 90.000000
_cell_angle_beta 90.000000
_cell_angle_gamma 90.000000
_cell_volume 2724.913081
_symmetry_space_group_name_H-M "C 2 2 21"
_symmetry_group_IT_number 20
_symmetry_cell_setting 'orthorhombic'
loop_
_space_group_symop_operation_xyz
x,y,z
-x,-y,1/2+z
x,-y,-z
-x,y,1/2-z
1/2+x,1/2+y,z
1/2-x,1/2-y,1/2+z
1/2+x,1/2-y,-z
1/2-x,1/2+y,1/2-z
loop_
_atom_site_type_symbol
_atom_site_label
_atom_site_fract_x
_atom_site_fract_y
_atom_site_fract_z
Si Si1 0.104683 0.508981 0.136687
Si Si2 0.040819 0.794788 0.684079
Si Si3 0.617395 0.548302 0.813225
Si Si4 0.253323 0.252296 0.079459
Si Si5 0.610952 0.645121 0.900298
Si Si6 0.537523 0.128156 0.315993
Si Si7 0.756559 0.054634 0.970346
Si Si8 0.005899 0.662723 0.004546
O O1 0.399330 0.491122 0.153443
O O2 0.061228 0.477736 0.074191
O O3 0.895110 0.481590 0.180387
O O4 0.046499 0.576800 0.141598
O O5 0.330141 0.819537 0.678667
O O6 0.000000 0.770361 0.750000
O O7 0.965511 0.755533 0.628614
O O8 0.829397 0.847451 0.680175
O O9 0.500000 0.553878 0.750000
O O10 0.662989 0.611852 0.841020
O O11 0.466494 0.294220 0.107545
O O12 0.193965 0.285962 0.018462
O O13 0.349069 0.189474 0.057793
O O14 0.425549 0.598878 0.932978
O O15 0.840493 0.653192 0.945903
O O16 0.500000 0.105517 0.250000
O O17 0.631278 0.100170 0.015147
O O18 0.897808 0.000000 0.000000
#
# Coordination Sequence:
#
# PCOD9319051 Si02
#       8
#     8   8   8   8   8   8   8   8
#     4  11  22  40  64  95 132 174 219 267 325 406
#     4  10  24  43  63  98 136 170 224 280 329 392
#     4  11  22  41  65  94 129 173 217 271 334 394
#     4  11  24  41  69  93 124 179 223 275 336 394
#     4  10  23  44  61  95 132 167 226 276 322 407
#     4  10  21  39  62  93 132 174 218 266 325 400
#     4  10  24  41  63  97 134 168 215 276 338 392
#     4  11  22  43  67  90 127 169 225 277 329 398
#
# _framework density 23.486988
#
# number of rings (size 3 to 8) (size 9 to 14) (size 15 to 20)
#    0.000    1.500    2.500    1.875    3.500    2.500 
#    2.250    0.000    0.000    0.000    0.000    0.000 
#    0.000    0.000    0.000    0.000    0.000    0.000 
#
# Total GULP energy -178734.107789 kJ/mol
# GULP energy per Si atom -5585.440868 kJ/mol
# Density = 2.343353 g / cm^3
# Si number density = 23.486988 Si / 1000 Ang^3
#
#
#
# Elastic Constant Matrix: (Units=GPa)
#
#
# Indices 1 2 3 4 5 6 
#
# 1 51.0811 8.7013 -16.9276 0.0000 0.0000 0.0000
# 2 8.7013 93.5990 26.6158 0.0000 0.0000 0.0000
# 3 -16.9276 26.6158 84.4014 0.0000 0.0000 0.0000
# 4 0.0000 0.0000 0.0000 34.0571 0.0000 0.0000
# 5 0.0000 0.0000 0.0000 0.0000 20.2601 0.0000
# 6 0.0000 0.0000 0.0000 0.0000 0.0000 19.4215
#
#
#
# Elastic Compliance Matrix: (Units=1/GPa)
#
#
# Indices 1 2 3 4 5 6 
#
# 1 0.022040 -0.003631 0.005565 0.000000 0.000000 0.000000
# 2 -0.003631 0.012335 -0.004618 0.000000 0.000000 0.000000
# 3 0.005565 -0.004618 0.014421 0.000000 0.000000 0.000000
# 4 0.000000 0.000000 0.000000 0.029362 0.000000 0.000000
# 5 0.000000 0.000000 0.000000 0.000000 0.049358 0.000000
# 6 0.000000 0.000000 0.000000 0.000000 0.000000 0.051489
#
#
# Mechanical properties :
#
#
# Convention : Reuss Voigt Hill
#
# Bulk Modulus (GPa) = 23.02726 29.54007 26.28366
# Shear Modulus (GPa) = 25.14475 28.79386 26.96931
#
# Velocity S-wave (km/s) = 3.27552 3.50515 3.39228
# Velocity P-wave (km/s) = 4.91233 5.38386 5.15349
#
# Compressibility (1/GPa) = 0.04342680
#
# Stress axis : x y z
#
# Youngs Moduli (GPa) = 45.37283 81.07240 69.34503
#
# Poissons Ratio (x) = 0.29441 -0.38594
# Poissons Ratio (y) = 0.16477 0.32024
# Poissons Ratio (z) = -0.25252 0.37440
#
# Static dielectric constant tensor:
#      x y z
#    x 1.935860 0.000000 0.000000 
#    y 0.000000 1.992820 0.000000 
#    z 0.000000 0.000000 1.938530 
# 
# From -- ./inp_files/28521.got.cif
#   From: 2010.05.17/outbox.cif.g08.bks.cpg/sg20_15_cif.got.tgz:28521.got - 2010.06.03 22:52:26.
