data_PCOD9319822
_publ_section_title
;
Structure prediction by ZEFSAII (Michael W. Deem and Ramdas Pophale) SiO2 
 PCOD9319822
Probable space group: C 2 2 21
;
_chemical_formula_sum "Si O2"
_cell_formula_units_Z 48
_cell_length_a 6.781711
_cell_length_b 28.769476
_cell_length_c 12.523127
_cell_angle_alpha 90.000000
_cell_angle_beta 90.000000
_cell_angle_gamma 90.000000
_cell_volume 2443.340621
_symmetry_space_group_name_H-M "C 2 2 21"
_symmetry_group_IT_number 20
_symmetry_cell_setting 'orthorhombic'
loop_
_space_group_symop_operation_xyz
x,y,z
-x,-y,1/2+z
x,-y,-z
-x,y,1/2-z
1/2+x,1/2+y,z
1/2-x,1/2-y,1/2+z
1/2+x,1/2-y,-z
1/2-x,1/2+y,1/2-z
loop_
_atom_site_type_symbol
_atom_site_label
_atom_site_fract_x
_atom_site_fract_y
_atom_site_fract_z
Si Si1 0.264296 0.180374 0.486354
Si Si2 0.500000 0.464163 0.750000
Si Si3 0.974658 0.097321 0.454999
Si Si4 0.660693 0.150583 0.589543
Si Si5 0.243826 0.030792 0.598524
Si Si6 0.000000 0.409723 0.250000
Si Si7 0.944064 0.765540 0.373032
O O1 0.131136 0.139316 0.437101
O O2 0.434303 0.157464 0.558001
O O3 0.378771 0.213887 0.405013
O O4 0.122608 0.213559 0.556649
O O5 0.569278 0.431339 0.847609
O O6 0.655120 0.497798 0.690777
O O7 0.075962 0.063352 0.543543
O O8 0.780959 0.121129 0.503026
O O9 0.668416 0.122668 0.700193
O O10 0.762482 0.200080 0.603855
O O11 0.413199 0.060076 0.654535
O O12 0.320247 0.000000 0.500000
O O13 0.000000 0.767725 0.250000
#
# Coordination Sequence:
#
# PCOD9319822 Si02
#       7
#     8   4   8   8   8   4   8
#     4  11  22  44  61  93 130 162 213 263 304 375
#     4  10  22  44  63  90 126 168 201 262 324 378
#     4  10  23  42  64  91 129 164 209 261 315 373
#     4  11  23  39  65  93 126 162 210 261 306 374
#     4  10  22  40  63  92 126 159 210 261 313 380
#     4  12  22  38  67  96 120 166 209 256 320 376
#     4  11  24  40  64  92 127 170 209 260 314 366
#
# _framework density 19.645235
#
# number of rings (size 3 to 8) (size 9 to 14) (size 15 to 20)
#    0.000    1.333    3.333    2.000    2.333    2.667 
#    0.000    0.000    0.000    0.000    0.000    0.000 
#    0.000    0.000    0.000    0.000    0.000    0.000 
#
# Total GULP energy -134028.451917 kJ/mol
# GULP energy per Si atom -5584.518830 kJ/mol
# Density = 1.960052 g / cm^3
# Si number density = 19.645235 Si / 1000 Ang^3
#
#
#
# Elastic Constant Matrix: (Units=GPa)
#
#
# Indices 1 2 3 4 5 6 
#
# 1 67.0459 28.8577 24.6410 0.0000 0.0000 0.0000
# 2 28.8577 113.3545 49.6908 0.0000 0.0000 0.0000
# 3 24.6410 49.6908 95.7463 0.0000 0.0000 0.0000
# 4 0.0000 0.0000 0.0000 29.8053 0.0000 0.0000
# 5 0.0000 0.0000 0.0000 0.0000 15.5961 0.0000
# 6 0.0000 0.0000 0.0000 0.0000 0.0000 12.0764
#
#
#
# Elastic Compliance Matrix: (Units=1/GPa)
#
#
# Indices 1 2 3 4 5 6 
#
# 1 0.017314 -0.003177 -0.002807 0.000000 0.000000 0.000000
# 2 -0.003177 0.012003 -0.005412 0.000000 0.000000 0.000000
# 3 -0.002807 -0.005412 0.013975 0.000000 0.000000 0.000000
# 4 0.000000 0.000000 0.000000 0.033551 0.000000 0.000000
# 5 0.000000 0.000000 0.000000 0.000000 0.064119 0.000000
# 6 0.000000 0.000000 0.000000 0.000000 0.000000 0.082806
#
#
# Mechanical properties :
#
#
# Convention : Reuss Voigt Hill
#
# Bulk Modulus (GPa) = 48.77904 53.61398 51.19651
# Shear Modulus (GPa) = 19.73213 23.02606 21.37909
#
# Velocity S-wave (km/s) = 3.17270 3.42730 3.30246
# Velocity P-wave (km/s) = 6.18912 6.55837 6.37642
#
# Compressibility (1/GPa) = 0.02050061
#
# Stress axis : x y z
#
# Youngs Moduli (GPa) = 57.75544 83.31194 71.55516
#
# Poissons Ratio (x) = 0.26472 0.20085
# Poissons Ratio (y) = 0.18351 0.38723
# Poissons Ratio (z) = 0.16212 0.45086
#
# Static dielectric constant tensor:
#      x y z
#    x 1.675970 0.000000 0.000000 
#    y 0.000000 1.698440 0.000000 
#    z 0.000000 0.000000 1.665410 
# 
# From -- ./inp_files/17811.got.cif
#   From: 2010.05.17/outbox.cif.g08.bks.cpg/sg20_9_cif.got.tgz:17811.got - 2010.06.03 22:52:26.
