data_PCOD9319419
_publ_section_title
;
Structure prediction by ZEFSAII (Michael W. Deem and Ramdas Pophale) SiO2 
 PCOD9319419
Probable space group: C 2 2 21
;
_chemical_formula_sum "Si O2"
_cell_formula_units_Z 48
_cell_length_a 7.000642
_cell_length_b 10.331778
_cell_length_c 28.254016
_cell_angle_alpha 90.000000
_cell_angle_beta 90.000000
_cell_angle_gamma 90.000000
_cell_volume 2043.586955
_symmetry_space_group_name_H-M "C 2 2 21"
_symmetry_group_IT_number 20
_symmetry_cell_setting 'orthorhombic'
loop_
_space_group_symop_operation_xyz
x,y,z
-x,-y,1/2+z
x,-y,-z
-x,y,1/2-z
1/2+x,1/2+y,z
1/2-x,1/2-y,1/2+z
1/2+x,1/2-y,-z
1/2-x,1/2+y,1/2-z
loop_
_atom_site_type_symbol
_atom_site_label
_atom_site_fract_x
_atom_site_fract_y
_atom_site_fract_z
Si Si1 0.253485 0.770208 0.197778
Si Si2 0.043087 0.678937 0.433888
Si Si3 0.642132 0.365964 0.605891
Si Si4 0.226141 0.994737 0.262996
Si Si5 0.080276 0.135222 0.016405
Si Si6 0.617652 0.632236 0.645519
O O1 0.374124 0.721420 0.152753
O O2 0.317590 0.900585 0.224091
O O3 0.229076 0.646668 0.232431
O O4 0.050022 0.803082 0.175423
O O5 0.866670 0.610176 0.407101
O O6 0.937813 0.770585 0.472055
O O7 0.207821 0.608333 0.463364
O O8 0.158250 0.763606 0.394844
O O9 0.541086 0.309833 0.560031
O O10 0.548546 0.503721 0.618112
O O11 0.254622 0.927271 0.314298
O O12 0.000000 0.993725 0.250000
O O13 0.990616 0.000000 0.000000
#
# Coordination Sequence:
#
# PCOD9319419 Si02
#       6
#     8   8   8   8   8   8
#     4   9  19  38  69  95 132 184 225 276 351 402
#     4  11  23  40  64  95 128 178 223 270 344 404
#     4  10  21  42  67  95 135 177 223 284 340 405
#     4   9  18  38  65  92 131 177 223 279 342 404
#     4  12  24  39  65  93 130 176 224 278 339 410
#     4   9  19  40  65  89 135 174 215 288 336 395
#
# _framework density 23.488112000000001
#
# number of rings (size 3 to 8) (size 9 to 14) (size 15 to 20)
#    0.000    2.000    3.333    0.000    0.000    2.000 
#    9.000    2.500   14.667    0.000    0.000    0.000 
#    0.000    0.000    0.000    0.000    0.000    0.000 
#
# Total GULP energy -133890.273022 kJ/mol
# GULP energy per Si atom -5578.761376 kJ/mol
# Density = 2.343465 g / cm^3
# Si number density = 23.488112 Si / 1000 Ang^3
#
#
#
# Elastic Constant Matrix: (Units=GPa)
#
#
# Indices 1 2 3 4 5 6 
#
# 1 73.1704 10.3303 15.7238 0.0000 0.0000 0.0000
# 2 10.3303 84.4426 37.9881 0.0000 0.0000 0.0000
# 3 15.7238 37.9881 111.8995 0.0000 0.0000 0.0000
# 4 0.0000 0.0000 0.0000 50.1771 0.0000 0.0000
# 5 0.0000 0.0000 0.0000 0.0000 32.6284 0.0000
# 6 0.0000 0.0000 0.0000 0.0000 0.0000 17.5661
#
#
#
# Elastic Compliance Matrix: (Units=1/GPa)
#
#
# Indices 1 2 3 4 5 6 
#
# 1 0.014162 -0.000988 -0.001655 0.000000 0.000000 0.000000
# 2 -0.000988 0.014046 -0.004630 0.000000 0.000000 0.000000
# 3 -0.001655 -0.004630 0.010741 0.000000 0.000000 0.000000
# 4 0.000000 0.000000 0.000000 0.019929 0.000000 0.000000
# 5 0.000000 0.000000 0.000000 0.000000 0.030648 0.000000
# 6 0.000000 0.000000 0.000000 0.000000 0.000000 0.056928
#
#
# Mechanical properties :
#
#
# Convention : Reuss Voigt Hill
#
# Bulk Modulus (GPa) = 40.97679 44.17741 42.57710
# Shear Modulus (GPa) = 29.56255 33.77235 31.66745
#
# Velocity S-wave (km/s) = 3.55155 3.79601 3.67581
# Velocity P-wave (km/s) = 5.85676 6.16946 6.01514
#
# Compressibility (1/GPa) = 0.02440406
#
# Stress axis : x y z
#
# Youngs Moduli (GPa) = 70.61258 71.19505 93.10359
#
# Poissons Ratio (x) = 0.07035 0.15404
# Poissons Ratio (y) = 0.06978 0.43102
# Poissons Ratio (z) = 0.11683 0.32960
#
# Static dielectric constant tensor:
#      x y z
#    x 1.928580 0.000000 0.000000 
#    y 0.000000 1.859670 0.000000 
#    z 0.000000 0.000000 1.922530 
# 
# From -- ./inp_files/30965.got.cif
#   From: 2010.05.17/outbox.cif.g08.bks.cpg/sg20_16_cif.got.tgz:30965.got - 2010.06.03 22:52:26.
