data_PCOD9319237
_publ_section_title
;
Structure prediction by ZEFSAII (Michael W. Deem and Ramdas Pophale) SiO2 
 PCOD9319237
Probable space group: C 2 2 21
;
_chemical_formula_sum "Si O2"
_cell_formula_units_Z 60
_cell_length_a 25.956229
_cell_length_b 10.659366
_cell_length_c 9.565527
_cell_angle_alpha 90.000000
_cell_angle_beta 90.000000
_cell_angle_gamma 90.000000
_cell_volume 2646.560787
_symmetry_space_group_name_H-M "C 2 2 21"
_symmetry_group_IT_number 20
_symmetry_cell_setting 'orthorhombic'
loop_
_space_group_symop_operation_xyz
x,y,z
-x,-y,1/2+z
x,-y,-z
-x,y,1/2-z
1/2+x,1/2+y,z
1/2-x,1/2-y,1/2+z
1/2+x,1/2-y,-z
1/2-x,1/2+y,1/2-z
loop_
_atom_site_type_symbol
_atom_site_label
_atom_site_fract_x
_atom_site_fract_y
_atom_site_fract_z
Si Si1 0.498429 0.798820 0.901024
Si Si2 0.183933 0.219641 0.386034
Si Si3 0.898284 0.716324 0.556234
Si Si4 0.062625 0.500000 0.500000
Si Si5 0.139598 0.476725 0.265670
Si Si6 0.640025 0.542289 0.159459
Si Si7 0.097745 0.880714 0.401900
Si Si8 0.795225 0.366255 0.577604
O O1 0.500000 0.865095 0.750000
O O2 0.456480 0.689501 0.884064
O O3 0.556324 0.774969 0.946453
O O4 0.473947 0.883039 0.023095
O O5 0.169116 0.355549 0.326551
O O6 0.180124 0.113043 0.263230
O O7 0.143077 0.189201 0.509525
O O8 0.243141 0.210802 0.429074
O O9 0.895248 0.586291 0.643109
O O10 0.901370 0.843636 0.646024
O O11 0.841236 0.712493 0.490631
O O12 0.100137 0.532123 0.374752
O O13 0.179801 0.582567 0.220469
O O14 0.618924 0.428099 0.252644
O O15 0.652953 0.500000 0.000000
O O16 0.087251 0.000000 0.500000
O O17 0.786476 0.500000 0.500000
#
# Coordination Sequence:
#
# PCOD9319237 Si02
#       8
#     8   8   8   4   8   8   8   8
#     4  12  26  41  67 101 133 180 230 291 350 409
#     4  10  21  45  69  99 137 181 230 282 357 415
#     4  10  24  43  65  97 136 179 228 277 356 409
#     4  12  26  44  66  98 136 180 238 288 342 418
#     4  10  23  45  64 100 132 180 233 283 349 417
#     4  10  21  40  67  98 138 171 228 285 343 423
#     4  10  22  44  71 100 137 181 230 287 351 424
#     4  10  21  42  70  93 136 182 223 288 348 423
#
# _framework density 22.670933000000002
#
# number of rings (size 3 to 8) (size 9 to 14) (size 15 to 20)
#    0.000    1.600    1.333    2.800    4.667    2.667 
#    8.400    0.000    0.000    0.000    0.000    0.000 
#    0.000    0.000    0.000    0.000    0.000    0.000 
#
# Total GULP energy -167433.404058 kJ/mol
# GULP energy per Si atom -5581.113469 kJ/mol
# Density = 2.261933 g / cm^3
# Si number density = 22.670933 Si / 1000 Ang^3
#
#
#
# Elastic Constant Matrix: (Units=GPa)
#
#
# Indices 1 2 3 4 5 6 
#
# 1 132.2170 9.1666 47.4133 0.0000 0.0000 0.0000
# 2 9.1666 51.4494 14.2091 0.0000 0.0000 0.0000
# 3 47.4133 14.2091 83.1465 0.0000 0.0000 0.0000
# 4 0.0000 0.0000 0.0000 36.0766 0.0000 0.0000
# 5 0.0000 0.0000 0.0000 0.0000 15.5495 0.0000
# 6 0.0000 0.0000 0.0000 0.0000 0.0000 19.6070
#
#
#
# Elastic Compliance Matrix: (Units=1/GPa)
#
#
# Indices 1 2 3 4 5 6 
#
# 1 0.009510 -0.000206 -0.005387 0.000000 0.000000 0.000000
# 2 -0.000206 0.020404 -0.003369 0.000000 0.000000 0.000000
# 3 -0.005387 -0.003369 0.015675 0.000000 0.000000 0.000000
# 4 0.000000 0.000000 0.000000 0.027719 0.000000 0.000000
# 5 0.000000 0.000000 0.000000 0.000000 0.064311 0.000000
# 6 0.000000 0.000000 0.000000 0.000000 0.000000 0.051002
#
#
# Mechanical properties :
#
#
# Convention : Reuss Voigt Hill
#
# Bulk Modulus (GPa) = 36.15036 45.37677 40.76356
# Shear Modulus (GPa) = 23.17317 27.31488 25.24402
#
# Velocity S-wave (km/s) = 3.20058 3.47485 3.34053
# Velocity P-wave (km/s) = 5.44413 6.01317 5.73572
#
# Compressibility (1/GPa) = 0.02766224
#
# Stress axis : x y z
#
# Youngs Moduli (GPa) = 105.15699 49.01038 63.79644
#
# Poissons Ratio (x) = 0.01012 0.34370
# Poissons Ratio (y) = 0.02171 0.21494
# Poissons Ratio (z) = 0.56653 0.16512
#
# Static dielectric constant tensor:
#      x y z
#    x 1.794950 0.000000 0.000000 
#    y 0.000000 1.876000 0.000000 
#    z 0.000000 0.000000 1.972180 
# 
# From -- ./inp_files/11161.got.cif
#   From: 2010.05.17/outbox.cif.g08.bks.cpg/sg20_6_cif.got.tgz:11161.got - 2010.06.03 22:52:26.
