data_PCOD9319479
_publ_section_title
;
Structure prediction by ZEFSAII (Michael W. Deem and Ramdas Pophale) SiO2 
 PCOD9319479
Probable space group: C 2 2 21
;
_chemical_formula_sum "Si O2"
_cell_formula_units_Z 44
_cell_length_a 12.793574
_cell_length_b 7.429914
_cell_length_c 20.272991
_cell_angle_alpha 90.000000
_cell_angle_beta 90.000000
_cell_angle_gamma 90.000000
_cell_volume 1927.052293
_symmetry_space_group_name_H-M "C 2 2 21"
_symmetry_group_IT_number 20
_symmetry_cell_setting 'orthorhombic'
loop_
_space_group_symop_operation_xyz
x,y,z
-x,-y,1/2+z
x,-y,-z
-x,y,1/2-z
1/2+x,1/2+y,z
1/2-x,1/2-y,1/2+z
1/2+x,1/2-y,-z
1/2-x,1/2+y,1/2-z
loop_
_atom_site_type_symbol
_atom_site_label
_atom_site_fract_x
_atom_site_fract_y
_atom_site_fract_z
Si Si1 0.818858 0.180486 0.674993
Si Si2 0.023140 0.861882 0.057640
Si Si3 0.108769 0.122747 0.375115
Si Si4 0.353211 0.951578 0.782639
Si Si5 0.000000 0.232380 0.250000
Si Si6 0.077817 0.499942 0.567465
O O1 0.891998 0.130242 0.615205
O O2 0.871175 0.287290 0.734672
O O3 0.724173 0.309421 0.646310
O O4 0.766935 0.004215 0.706826
O O5 0.911582 0.943605 0.083508
O O6 0.007864 0.648446 0.046554
O O7 0.054306 0.000000 0.000000
O O8 0.034843 0.114943 0.311274
O O9 0.061774 0.290099 0.416816
O O10 0.405141 0.123374 0.746102
O O11 0.391828 0.935870 0.858140
O O12 0.148047 0.500000 0.500000
#
# Coordination Sequence:
#
# PCOD9319479 Si02
#       6
#     8   8   8   8   4   8
#     4  10  24  41  65 110 131 174 243 286 354 429
#     4  12  25  43  72  99 135 192 232 280 364 426
#     4  10  23  42  68  96 136 179 223 289 352 421
#     4  10  22  40  67  95 136 173 222 301 347 411
#     4   8  18  38  64  88 128 168 216 284 350 398
#     4  10  21  43  66  91 137 178 233 285 350 421
#
# _framework density 22.832799999999999
#
# number of rings (size 3 to 8) (size 9 to 14) (size 15 to 20)
#    0.000    2.182    1.818    2.182    7.636    2.909 
#    0.000    0.909    0.000    0.000    0.000    0.000 
#    0.000    0.000    0.000    0.000    0.000    0.000 
#
# Total GULP energy -122474.501895 kJ/mol
# GULP energy per Si atom -5567.022813 kJ/mol
# Density = 2.278083 g / cm^3
# Si number density = 22.832800 Si / 1000 Ang^3
#
#
#
# Elastic Constant Matrix: (Units=GPa)
#
#
# Indices 1 2 3 4 5 6 
#
# 1 51.7814 11.9695 25.3563 0.0000 0.0000 0.0000
# 2 11.9695 98.4383 10.8032 0.0000 0.0000 0.0000
# 3 25.3563 10.8032 103.0854 0.0000 0.0000 0.0000
# 4 0.0000 0.0000 0.0000 37.9341 0.0000 0.0000
# 5 0.0000 0.0000 0.0000 0.0000 15.6928 0.0000
# 6 0.0000 0.0000 0.0000 0.0000 0.0000 16.7534
#
#
#
# Elastic Compliance Matrix: (Units=1/GPa)
#
#
# Indices 1 2 3 4 5 6 
#
# 1 0.022395 -0.002143 -0.005284 0.000000 0.000000 0.000000
# 2 -0.002143 0.010482 -0.000571 0.000000 0.000000 0.000000
# 3 -0.005284 -0.000571 0.011060 0.000000 0.000000 0.000000
# 4 0.000000 0.000000 0.000000 0.026361 0.000000 0.000000
# 5 0.000000 0.000000 0.000000 0.000000 0.063723 0.000000
# 6 0.000000 0.000000 0.000000 0.000000 0.000000 0.059689
#
#
# Mechanical properties :
#
#
# Convention : Reuss Voigt Hill
#
# Bulk Modulus (GPa) = 35.79079 38.84034 37.31556
# Shear Modulus (GPa) = 22.82881 27.75448 25.29165
#
# Velocity S-wave (km/s) = 3.16543 3.49026 3.33181
# Velocity P-wave (km/s) = 5.39158 5.76977 5.58388
#
# Compressibility (1/GPa) = 0.02794015
#
# Stress axis : x y z
#
# Youngs Moduli (GPa) = 44.65324 95.40218 90.41365
#
# Poissons Ratio (x) = 0.20446 0.47774
# Poissons Ratio (y) = 0.09570 0.05166
# Poissons Ratio (z) = 0.23594 0.05451
#
# Static dielectric constant tensor:
#      x y z
#    x 1.922470 0.000000 0.000000 
#    y 0.000000 1.929270 0.000000 
#    z 0.000000 0.000000 2.031860 
# 
# From -- ./inp_files/24747.got.cif
#   From: 2010.05.17/outbox.cif.g08.bks.cpg/sg20_13_cif.got.tgz:24747.got - 2010.06.03 22:52:26.
