data_PCOD9319198
_publ_section_title
;
Structure prediction by ZEFSAII (Michael W. Deem and Ramdas Pophale) SiO2 
 PCOD9319198
Probable space group: C 2 2 21
;
_chemical_formula_sum "Si O2"
_cell_formula_units_Z 60
_cell_length_a 8.473718
_cell_length_b 24.455064
_cell_length_c 13.459058
_cell_angle_alpha 90.000000
_cell_angle_beta 90.000000
_cell_angle_gamma 90.000000
_cell_volume 2789.057547
_symmetry_space_group_name_H-M "C 2 2 21"
_symmetry_group_IT_number 20
_symmetry_cell_setting 'orthorhombic'
loop_
_space_group_symop_operation_xyz
x,y,z
-x,-y,1/2+z
x,-y,-z
-x,y,1/2-z
1/2+x,1/2+y,z
1/2-x,1/2-y,1/2+z
1/2+x,1/2-y,-z
1/2-x,1/2+y,1/2-z
loop_
_atom_site_type_symbol
_atom_site_label
_atom_site_fract_x
_atom_site_fract_y
_atom_site_fract_z
Si Si1 0.659773 0.689765 0.089898
Si Si2 0.394724 0.337525 0.166577
Si Si3 0.189865 0.778247 0.525547
Si Si4 0.353699 0.597709 0.540353
Si Si5 0.178361 0.042613 0.293335
Si Si6 0.819758 0.428907 0.221422
Si Si7 0.179158 0.335380 0.785789
Si Si8 0.579871 0.500000 0.500000
O O1 0.485019 0.712953 0.070061
O O2 0.719542 0.696392 0.201605
O O3 0.768467 0.716583 0.004103
O O4 0.666297 0.624850 0.066370
O O5 0.500000 0.306187 0.250000
O O6 0.535223 0.361228 0.100209
O O7 0.292767 0.386381 0.216915
O O8 0.295094 0.305626 0.084159
O O9 0.300831 0.805979 0.607742
O O10 0.202208 0.585566 0.605610
O O11 0.461938 0.545210 0.539787
O O12 0.256869 0.102311 0.289565
O O13 0.175124 0.025125 0.409164
O O14 0.000000 0.045457 0.250000
O O15 0.263729 0.991341 0.239839
O O16 0.000000 0.422134 0.250000
O O17 0.000000 0.335807 0.750000
#
# Coordination Sequence:
#
# PCOD9319198 Si02
#       8
#     8   8   8   8   8   8   8   4
#     4  11  25  45  70 102 136 182 238 293 362 424
#     4   9  19  41  66  96 127 171 227 278 336 416
#     4  11  24  45  72  98 136 186 236 295 361 422
#     4  10  21  40  64  94 124 174 227 271 336 424
#     4  12  22  42  68  96 135 179 231 280 352 429
#     4  11  22  37  60  95 133 167 212 276 342 408
#     4  12  27  45  67 102 145 185 237 300 356 432
#     4  12  20  38  72  92 126 178 230 274 338 432
#
# _framework density 21.512643000000001
#
# number of rings (size 3 to 8) (size 9 to 14) (size 15 to 20)
#    0.000    1.067    2.667    5.200    0.000    5.867 
#    0.000    0.000    0.000    0.000    0.000    0.000 
#    0.000    0.000    0.000    0.000    0.000    0.000 
#
# Total GULP energy -167484.896058 kJ/mol
# GULP energy per Si atom -5582.829869 kJ/mol
# Density = 2.146368 g / cm^3
# Si number density = 21.512643 Si / 1000 Ang^3
#
#
#
# Elastic Constant Matrix: (Units=GPa)
#
#
# Indices 1 2 3 4 5 6 
#
# 1 62.2380 31.2779 28.6290 0.0000 0.0000 0.0000
# 2 31.2779 62.6527 30.5794 0.0000 0.0000 0.0000
# 3 28.6290 30.5794 112.2488 0.0000 0.0000 0.0000
# 4 0.0000 0.0000 0.0000 26.0612 0.0000 0.0000
# 5 0.0000 0.0000 0.0000 0.0000 34.6461 0.0000
# 6 0.0000 0.0000 0.0000 0.0000 0.0000 25.1898
#
#
#
# Elastic Compliance Matrix: (Units=1/GPa)
#
#
# Indices 1 2 3 4 5 6 
#
# 1 0.022327 -0.009650 -0.003066 0.000000 0.000000 0.000000
# 2 -0.009650 0.022580 -0.003690 0.000000 0.000000 0.000000
# 3 -0.003066 -0.003690 0.010696 0.000000 0.000000 0.000000
# 4 0.000000 0.000000 0.000000 0.038371 0.000000 0.000000
# 5 0.000000 0.000000 0.000000 0.000000 0.028863 0.000000
# 6 0.000000 0.000000 0.000000 0.000000 0.000000 0.039699
#
#
# Mechanical properties :
#
#
# Convention : Reuss Voigt Hill
#
# Bulk Modulus (GPa) = 43.87637 46.45690 45.16663
# Shear Modulus (GPa) = 24.63731 26.95630 25.79680
#
# Velocity S-wave (km/s) = 3.38782 3.54368 3.46663
# Velocity P-wave (km/s) = 5.97855 6.19561 6.08805
#
# Compressibility (1/GPa) = 0.02279131
#
# Stress axis : x y z
#
# Youngs Moduli (GPa) = 44.78847 44.28781 93.49363
#
# Poissons Ratio (x) = 0.42738 0.28662
# Poissons Ratio (y) = 0.43221 0.34499
# Poissons Ratio (z) = 0.13730 0.16342
#
# Static dielectric constant tensor:
#      x y z
#    x 1.759380 0.000000 0.000000 
#    y 0.000000 1.794210 0.000000 
#    z 0.000000 0.000000 1.859750 
# 
# From -- ./inp_files/13281.got.cif
#   From: 2010.05.17/outbox.cif.g08.bks.cpg/sg20_7_cif.got.tgz:13281.got - 2010.06.03 22:52:26.
