data_PCOD9319158
_publ_section_title
;
Structure prediction by ZEFSAII (Michael W. Deem and Ramdas Pophale) SiO2 
 PCOD9319158
Probable space group: C 2 2 21
;
_chemical_formula_sum "Si O2"
_cell_formula_units_Z 48
_cell_length_a 16.265141
_cell_length_b 16.239773
_cell_length_c 8.559923
_cell_angle_alpha 90.000000
_cell_angle_beta 90.000000
_cell_angle_gamma 90.000000
_cell_volume 2261.036873
_symmetry_space_group_name_H-M "C 2 2 21"
_symmetry_group_IT_number 20
_symmetry_cell_setting 'orthorhombic'
loop_
_space_group_symop_operation_xyz
x,y,z
-x,-y,1/2+z
x,-y,-z
-x,y,1/2-z
1/2+x,1/2+y,z
1/2-x,1/2-y,1/2+z
1/2+x,1/2-y,-z
1/2-x,1/2+y,1/2-z
loop_
_atom_site_type_symbol
_atom_site_label
_atom_site_fract_x
_atom_site_fract_y
_atom_site_fract_z
Si Si1 0.093421 0.497898 0.813714
Si Si2 0.343325 0.671123 0.348177
Si Si3 0.157079 0.337411 0.648929
Si Si4 0.907143 0.999070 0.688949
Si Si5 0.592564 0.678954 0.814755
Si Si6 0.592250 0.828624 0.316336
O O1 0.141948 0.419951 0.747021
O O2 0.126170 0.585264 0.750665
O O3 0.000000 0.490633 0.750000
O O4 0.092408 0.500000 0.000000
O O5 0.250526 0.666008 0.409666
O O6 0.361941 0.584510 0.263532
O O7 0.403281 0.680514 0.497223
O O8 0.357558 0.749084 0.238377
O O9 0.141151 0.256767 0.751302
O O10 0.095496 0.335672 0.502589
O O11 0.000000 0.993657 0.750000
O O12 0.906409 0.000000 0.500000
O O13 0.874137 0.088949 0.737271
O O14 0.500000 0.684666 0.750000
O O15 0.500000 0.820019 0.250000
#
# Coordination Sequence:
#
# PCOD9319158 Si02
#       6
#     8   8   8   8   8   8
#     4  11  23  42  66  91 120 161 211 256 306 372
#     4  11  23  39  61  92 127 162 202 256 313 365
#     4  12  24  39  62  93 128 162 201 259 315 366
#     4   9  20  38  61  85 114 155 202 248 295 356
#     4  10  21  40  62  85 118 167 212 250 302 370
#     4  11  23  40  63  90 122 163 208 253 304 369
#
# _framework density 21.229198
#
# number of rings (size 3 to 8) (size 9 to 14) (size 15 to 20)
#    0.000    1.333    0.000    6.500    0.000    8.000 
#    0.000    0.833    0.000    0.000    0.000    0.000 
#    0.000    0.000    0.000    0.000    0.000    0.000 
#
# Total GULP energy -134154.609498 kJ/mol
# GULP energy per Si atom -5589.775396 kJ/mol
# Density = 2.118088 g / cm^3
# Si number density = 21.229198 Si / 1000 Ang^3
#
#
#
# Elastic Constant Matrix: (Units=GPa)
#
#
# Indices 1 2 3 4 5 6 
#
# 1 47.8698 23.9870 -5.3533 0.0000 0.0000 0.0000
# 2 23.9870 206.1901 41.0375 0.0000 0.0000 0.0000
# 3 -5.3533 41.0375 78.8748 0.0000 0.0000 0.0000
# 4 0.0000 0.0000 0.0000 24.8579 0.0000 0.0000
# 5 0.0000 0.0000 0.0000 0.0000 16.2614 0.0000
# 6 0.0000 0.0000 0.0000 0.0000 0.0000 3.5148
#
#
#
# Elastic Compliance Matrix: (Units=1/GPa)
#
#
# Indices 1 2 3 4 5 6 
#
# 1 0.022921 -0.003320 0.003283 0.000000 0.000000 0.000000
# 2 -0.003320 0.005891 -0.003290 0.000000 0.000000 0.000000
# 3 0.003283 -0.003290 0.014613 0.000000 0.000000 0.000000
# 4 0.000000 0.000000 0.000000 0.040229 0.000000 0.000000
# 5 0.000000 0.000000 0.000000 0.000000 0.061495 0.000000
# 6 0.000000 0.000000 0.000000 0.000000 0.000000 0.284510
#
#
# Mechanical properties :
#
#
# Convention : Reuss Voigt Hill
#
# Bulk Modulus (GPa) = 27.19596 50.25302 38.72449
# Shear Modulus (GPa) = 11.14654 27.14440 19.14547
#
# Velocity S-wave (km/s) = 2.29390 3.57968 3.00633
# Velocity P-wave (km/s) = 4.45583 6.38815 5.50740
#
# Compressibility (1/GPa) = 0.03677017
#
# Stress axis : x y z
#
# Youngs Moduli (GPa) = 43.62876 169.75145 68.43207
#
# Poissons Ratio (x) = 0.56355 -0.22466
# Poissons Ratio (y) = 0.14484 0.22516
# Poissons Ratio (z) = -0.14323 0.55853
#
# Static dielectric constant tensor:
#      x y z
#    x 1.757360 0.000000 0.000000 
#    y 0.000000 1.791240 0.000000 
#    z 0.000000 0.000000 1.737460 
# 
# From -- ./inp_files/9328.got.cif
#   From: 2010.05.17/outbox.cif.g08.bks.cpg/sg20_5_cif.got.tgz:9328.got - 2010.06.03 22:52:26.
