data_PCOD9319044
_publ_section_title
;
Structure prediction by ZEFSAII (Michael W. Deem and Ramdas Pophale) SiO2 
 PCOD9319044
Probable space group: C 2 2 21
;
_chemical_formula_sum "Si O2"
_cell_formula_units_Z 56
_cell_length_a 21.635674
_cell_length_b 12.673377
_cell_length_c 9.626453
_cell_angle_alpha 90.000000
_cell_angle_beta 90.000000
_cell_angle_gamma 90.000000
_cell_volume 2639.545046
_symmetry_space_group_name_H-M "C 2 2 21"
_symmetry_group_IT_number 20
_symmetry_cell_setting 'orthorhombic'
loop_
_space_group_symop_operation_xyz
x,y,z
-x,-y,1/2+z
x,-y,-z
-x,y,1/2-z
1/2+x,1/2+y,z
1/2-x,1/2-y,1/2+z
1/2+x,1/2-y,-z
1/2-x,1/2+y,1/2-z
loop_
_atom_site_type_symbol
_atom_site_label
_atom_site_fract_x
_atom_site_fract_y
_atom_site_fract_z
Si Si1 0.927756 0.815340 0.739112
Si Si2 0.113464 0.944720 0.286051
Si Si3 0.345625 0.861434 0.804281
Si Si4 0.019925 0.592358 0.399466
Si Si5 0.418095 0.734233 0.575885
Si Si6 0.258374 0.534745 0.154904
Si Si7 0.153579 0.201557 0.473843
O O1 0.904344 0.790692 0.584041
O O2 0.891525 0.751186 0.857679
O O3 0.000000 0.793346 0.750000
O O4 0.916070 0.939429 0.774402
O O5 0.083317 0.872012 0.167885
O O6 0.112608 0.881439 0.432858
O O7 0.187844 0.963037 0.277410
O O8 0.406961 0.893967 0.886942
O O9 0.369797 0.806782 0.661708
O O10 0.297669 0.948859 0.758250
O O11 0.317065 0.777154 0.911108
O O12 0.000822 0.500000 0.500000
O O13 0.000000 0.553197 0.250000
O O14 0.982861 0.701699 0.421172
O O15 0.294537 0.642525 0.116060
O O16 0.238580 0.500000 0.000000
#
# Coordination Sequence:
#
# PCOD9319044 Si02
#       7
#     8   8   8   8   8   8   8
#     4  11  21  33  57  91 125 164 208 253 308 373
#     4   9  20  39  61  88 124 162 205 259 313 369
#     4  10  21  39  62  86 119 164 207 254 311 368
#     4  10  23  42  62  87 120 158 203 254 310 369
#     4  10  22  39  61  89 122 158 203 258 310 369
#     4   9  19  38  61  87 120 161 208 258 313 370
#     4   9  20  38  56  84 127 165 202 254 311 368
#
# _framework density 21.215778
#
# number of rings (size 3 to 8) (size 9 to 14) (size 15 to 20)
#    0.000    2.286    0.000    2.571    0.000   12.571 
#    0.000    7.143    0.000    1.714    0.000    0.000 
#    0.000    0.000    0.000    0.000    0.000    0.000 
#
# Total GULP energy -156114.329931 kJ/mol
# GULP energy per Si atom -5575.511783 kJ/mol
# Density = 2.116749 g / cm^3
# Si number density = 21.215778 Si / 1000 Ang^3
#
#
#
# Elastic Constant Matrix: (Units=GPa)
#
#
# Indices 1 2 3 4 5 6 
#
# 1 68.7325 28.0824 32.3705 0.0000 0.0000 0.0000
# 2 28.0824 48.2191 33.3065 0.0000 0.0000 0.0000
# 3 32.3705 33.3065 129.2849 0.0000 0.0000 0.0000
# 4 0.0000 0.0000 0.0000 19.3326 0.0000 0.0000
# 5 0.0000 0.0000 0.0000 0.0000 20.5805 0.0000
# 6 0.0000 0.0000 0.0000 0.0000 0.0000 30.8469
#
#
#
# Elastic Compliance Matrix: (Units=1/GPa)
#
#
# Indices 1 2 3 4 5 6 
#
# 1 0.019687 -0.009806 -0.002403 0.000000 0.000000 0.000000
# 2 -0.009806 0.030112 -0.005302 0.000000 0.000000 0.000000
# 3 -0.002403 -0.005302 0.009703 0.000000 0.000000 0.000000
# 4 0.000000 0.000000 0.000000 0.051726 0.000000 0.000000
# 5 0.000000 0.000000 0.000000 0.000000 0.048590 0.000000
# 6 0.000000 0.000000 0.000000 0.000000 0.000000 0.032418
#
#
# Mechanical properties :
#
#
# Convention : Reuss Voigt Hill
#
# Bulk Modulus (GPa) = 40.85078 48.19504 44.52291
# Shear Modulus (GPa) = 21.23881 24.31714 22.77797
#
# Velocity S-wave (km/s) = 3.16743 3.38920 3.28019
# Velocity P-wave (km/s) = 5.71607 6.17102 5.94790
#
# Compressibility (1/GPa) = 0.02447933
#
# Stress axis : x y z
#
# Youngs Moduli (GPa) = 50.79398 33.20945 103.06581
#
# Poissons Ratio (x) = 0.32565 0.24769
# Poissons Ratio (y) = 0.49808 0.54648
# Poissons Ratio (z) = 0.12207 0.17609
#
# Static dielectric constant tensor:
#      x y z
#    x 1.795150 0.000000 0.000000 
#    y 0.000000 1.835490 0.000000 
#    z 0.000000 0.000000 1.747120 
# 
# From -- ./inp_files/10196.got.cif
#   From: 2010.05.17/outbox.cif.g08.bks.cpg/sg20_6_cif.got.tgz:10196.got - 2010.06.03 22:52:26.
