data_PCOD9319718
_publ_section_title
;
Structure prediction by ZEFSAII (Michael W. Deem and Ramdas Pophale) SiO2 
 PCOD9319718
Probable space group: C 2 2 21
;
_chemical_formula_sum "Si O2"
_cell_formula_units_Z 48
_cell_length_a 16.921075
_cell_length_b 13.669870
_cell_length_c 8.573018
_cell_angle_alpha 90.000000
_cell_angle_beta 90.000000
_cell_angle_gamma 90.000000
_cell_volume 1983.015325
_symmetry_space_group_name_H-M "C 2 2 21"
_symmetry_group_IT_number 20
_symmetry_cell_setting 'orthorhombic'
loop_
_space_group_symop_operation_xyz
x,y,z
-x,-y,1/2+z
x,-y,-z
-x,y,1/2-z
1/2+x,1/2+y,z
1/2-x,1/2-y,1/2+z
1/2+x,1/2-y,-z
1/2-x,1/2+y,1/2-z
loop_
_atom_site_type_symbol
_atom_site_label
_atom_site_fract_x
_atom_site_fract_y
_atom_site_fract_z
Si Si1 0.144262 0.400173 0.819640
Si Si2 0.732693 0.500000 0.500000
Si Si3 0.500000 0.480480 0.250000
Si Si4 0.292785 0.687638 0.642691
Si Si5 0.120867 0.000000 0.000000
Si Si6 0.887704 0.851369 0.045455
Si Si7 0.004656 0.500000 0.000000
Si Si8 0.116957 0.649631 0.543551
O O1 0.178144 0.298642 0.896643
O O2 0.137057 0.382524 0.635256
O O3 0.204788 0.488691 0.858777
O O4 0.061511 0.430169 0.898436
O O5 0.669261 0.581256 0.445580
O O6 0.566009 0.531651 0.146391
O O7 0.455609 0.411661 0.127329
O O8 0.330788 0.596559 0.548907
O O9 0.326036 0.676104 0.817112
O O10 0.199309 0.671936 0.628290
O O11 0.922274 0.756015 0.967750
O O12 0.945372 0.569635 0.901647
#
# Coordination Sequence:
#
# PCOD9319718 Si02
#       8
#     8   4   4   8   4   8   4   8
#     4  10  24  43  65  95 138 171 218 288 329 407
#     4  11  21  42  65  93 128 170 224 269 335 386
#     4  10  22  40  62  96 130 170 214 270 338 382
#     4  10  22  43  66  97 129 178 227 266 332 402
#     4  10  22  38  68  90 134 166 222 272 324 406
#     4  10  23  39  67  92 130 175 219 269 329 398
#     4  11  25  40  69  97 134 170 228 275 349 394
#     4  11  23  42  67  96 126 180 216 276 335 403
#
# _framework density 24.205559999999998
#
# number of rings (size 3 to 8) (size 9 to 14) (size 15 to 20)
#    0.000    1.667    1.667    1.500   14.000    0.000 
#    0.000    0.000    7.333    0.000    0.000    0.000 
#    0.000    0.000    0.000    0.000    0.000    0.000 
#
# Total GULP energy -133945.771809 kJ/mol
# GULP energy per Si atom -5581.073825 kJ/mol
# Density = 2.415047 g / cm^3
# Si number density = 24.205560 Si / 1000 Ang^3
#
#
#
# Elastic Constant Matrix: (Units=GPa)
#
#
# Indices 1 2 3 4 5 6 
#
# 1 128.5124 55.9631 20.4226 0.0000 0.0000 0.0000
# 2 55.9631 110.9603 23.9663 0.0000 0.0000 0.0000
# 3 20.4226 23.9663 29.0137 0.0000 0.0000 0.0000
# 4 0.0000 0.0000 0.0000 27.9357 0.0000 0.0000
# 5 0.0000 0.0000 0.0000 0.0000 32.1847 0.0000
# 6 0.0000 0.0000 0.0000 0.0000 0.0000 25.6680
#
#
#
# Elastic Compliance Matrix: (Units=1/GPa)
#
#
# Indices 1 2 3 4 5 6 
#
# 1 0.010270 -0.004404 -0.003591 0.000000 0.000000 0.000000
# 2 -0.004404 0.012858 -0.007521 0.000000 0.000000 0.000000
# 3 -0.003591 -0.007521 0.043207 0.000000 0.000000 0.000000
# 4 0.000000 0.000000 0.000000 0.035796 0.000000 0.000000
# 5 0.000000 0.000000 0.000000 0.000000 0.031071 0.000000
# 6 0.000000 0.000000 0.000000 0.000000 0.000000 0.038959
#
#
# Mechanical properties :
#
#
# Convention : Reuss Voigt Hill
#
# Bulk Modulus (GPa) = 28.32674 52.13228 40.22951
# Shear Modulus (GPa) = 23.26010 28.36665 25.81337
#
# Velocity S-wave (km/s) = 3.10327 3.42703 3.26916
# Velocity P-wave (km/s) = 4.95665 6.10274 5.55930
#
# Compressibility (1/GPa) = 0.03530233
#
# Stress axis : x y z
#
# Youngs Moduli (GPa) = 97.37273 77.77344 23.14445
#
# Poissons Ratio (x) = 0.34251 0.08311
# Poissons Ratio (y) = 0.42883 0.17407
# Poissons Ratio (z) = 0.34967 0.58494
#
# Static dielectric constant tensor:
#      x y z
#    x 1.913240 0.000000 0.000000 
#    y 0.000000 2.101450 0.000000 
#    z 0.000000 0.000000 1.965710 
# 
# From -- ./inp_files/9398.got.cif
#   From: 2010.05.17/outbox.cif.g08.bks.cpg/sg20_5_cif.got.tgz:9398.got - 2010.06.03 22:52:26.
