data_PCOD9319042
_publ_section_title
;
Structure prediction by ZEFSAII (Michael W. Deem and Ramdas Pophale) SiO2 
 PCOD9319042
Probable space group: C 2 2 21
;
_chemical_formula_sum "Si O2"
_cell_formula_units_Z 40
_cell_length_a 27.963359
_cell_length_b 7.635729
_cell_length_c 8.061302
_cell_angle_alpha 90.000000
_cell_angle_beta 90.000000
_cell_angle_gamma 90.000000
_cell_volume 1721.254292
_symmetry_space_group_name_H-M "C 2 2 21"
_symmetry_group_IT_number 20
_symmetry_cell_setting 'orthorhombic'
loop_
_space_group_symop_operation_xyz
x,y,z
-x,-y,1/2+z
x,-y,-z
-x,y,1/2-z
1/2+x,1/2+y,z
1/2-x,1/2-y,1/2+z
1/2+x,1/2-y,-z
1/2-x,1/2+y,1/2-z
loop_
_atom_site_type_symbol
_atom_site_label
_atom_site_fract_x
_atom_site_fract_y
_atom_site_fract_z
Si Si1 0.813344 0.696551 0.527959
Si Si2 0.210199 0.306510 0.417779
Si Si3 0.609090 0.295245 0.489015
Si Si4 0.054475 0.794225 0.803908
Si Si5 0.907899 0.191172 0.633338
O O1 0.830498 0.500000 0.500000
O O2 0.804117 0.712533 0.724546
O O3 0.762104 0.723664 0.442369
O O4 0.853876 0.812842 0.440078
O O5 0.212888 0.500000 0.500000
O O6 0.166282 0.216393 0.511893
O O7 0.595744 0.500000 0.500000
O O8 0.586904 0.216264 0.656435
O O9 0.591436 0.221531 0.314005
O O10 0.000000 0.791983 0.750000
O O11 0.072075 0.995675 0.832359
O O12 0.062238 0.718595 0.987308
#
# Coordination Sequence:
#
# PCOD9319042 Si02
#       5
#     8   8   8   8   8
#     4  12  25  44  64  97 137 181 224 271 341 404
#     4  12  25  41  67  96 135 179 227 277 330 407
#     4  10  21  39  61  97 132 173 220 273 334 394
#     4  10  22  38  65  99 132 171 224 280 335 393
#     4  10  22  37  64  94 133 170 217 275 329 394
#
# _framework density 23.238866000000002
#
# number of rings (size 3 to 8) (size 9 to 14) (size 15 to 20)
#    0.000    1.200    2.000    4.200   11.200    1.600 
#    0.000    0.000    0.000    2.400    0.000    0.000 
#    0.000    0.000    0.000    0.000    0.000    0.000 
#
# Total GULP energy -111713.033748 kJ/mol
# GULP energy per Si atom -5585.651687 kJ/mol
# Density = 2.318597 g / cm^3
# Si number density = 23.238866 Si / 1000 Ang^3
#
#
#
# Elastic Constant Matrix: (Units=GPa)
#
#
# Indices 1 2 3 4 5 6 
#
# 1 152.3800 3.7920 67.1485 0.0000 0.0000 0.0000
# 2 3.7920 52.8624 7.8015 0.0000 0.0000 0.0000
# 3 67.1485 7.8015 166.2864 0.0000 0.0000 0.0000
# 4 0.0000 0.0000 0.0000 7.7311 0.0000 0.0000
# 5 0.0000 0.0000 0.0000 0.0000 49.1415 0.0000
# 6 0.0000 0.0000 0.0000 0.0000 0.0000 38.8232
#
#
#
# Elastic Compliance Matrix: (Units=1/GPa)
#
#
# Indices 1 2 3 4 5 6 
#
# 1 0.007984 -0.000098 -0.003219 0.000000 0.000000 0.000000
# 2 -0.000098 0.019050 -0.000854 0.000000 0.000000 0.000000
# 3 -0.003219 -0.000854 0.007354 0.000000 0.000000 0.000000
# 4 0.000000 0.000000 0.000000 0.129348 0.000000 0.000000
# 5 0.000000 0.000000 0.000000 0.000000 0.020349 0.000000
# 6 0.000000 0.000000 0.000000 0.000000 0.000000 0.025758
#
#
# Mechanical properties :
#
#
# Convention : Reuss Voigt Hill
#
# Bulk Modulus (GPa) = 38.39500 58.77918 48.58709
# Shear Modulus (GPa) = 22.03940 38.65828 30.34884
#
# Velocity S-wave (km/s) = 3.08293 4.08305 3.61772
# Velocity P-wave (km/s) = 5.40651 6.89759 6.19706
#
# Compressibility (1/GPa) = 0.02604506
#
# Stress axis : x y z
#
# Youngs Moduli (GPa) = 125.25673 52.49312 135.98415
#
# Poissons Ratio (x) = 0.00512 0.43777
# Poissons Ratio (y) = 0.01222 0.11618
# Poissons Ratio (z) = 0.40324 0.04485
#
# Static dielectric constant tensor:
#      x y z
#    x 1.825640 0.000000 0.000000 
#    y 0.000000 1.748160 0.000000 
#    z 0.000000 0.000000 1.984170 
# 
# From -- ./inp_files/10494.got.cif
#   From: 2010.05.17/outbox.cif.g08.bks.cpg/sg20_6_cif.got.tgz:10494.got - 2010.06.03 22:52:26.
