data_PCOD9319395
_publ_section_title
;
Structure prediction by ZEFSAII (Michael W. Deem and Ramdas Pophale) SiO2 
 PCOD9319395
Probable space group: C 2 2 21
;
_chemical_formula_sum "Si O2"
_cell_formula_units_Z 40
_cell_length_a 4.997115
_cell_length_b 12.717403
_cell_length_c 26.531845
_cell_angle_alpha 90.000000
_cell_angle_beta 90.000000
_cell_angle_gamma 90.000000
_cell_volume 1686.107380
_symmetry_space_group_name_H-M "C 2 2 21"
_symmetry_group_IT_number 20
_symmetry_cell_setting 'orthorhombic'
loop_
_space_group_symop_operation_xyz
x,y,z
-x,-y,1/2+z
x,-y,-z
-x,y,1/2-z
1/2+x,1/2+y,z
1/2-x,1/2-y,1/2+z
1/2+x,1/2-y,-z
1/2-x,1/2+y,1/2-z
loop_
_atom_site_type_symbol
_atom_site_label
_atom_site_fract_x
_atom_site_fract_y
_atom_site_fract_z
Si Si1 0.918497 0.474904 0.193509
Si Si2 0.500598 0.761344 0.034482
Si Si3 0.251382 0.016803 0.556596
Si Si4 0.144725 0.644307 0.390649
Si Si5 0.052991 0.123861 0.645755
O O1 0.840256 0.576915 0.160579
O O2 0.162147 0.411892 0.167790
O O3 0.000000 0.501773 0.250000
O O4 0.664429 0.399800 0.187908
O O5 0.592247 0.677784 0.077090
O O6 0.569641 0.877012 0.054400
O O7 0.705771 0.742067 0.988083
O O8 0.025389 0.047168 0.597078
O O9 0.148266 0.000000 0.500000
O O10 0.445093 0.923753 0.574614
O O11 0.033211 0.757999 0.373835
#
# Coordination Sequence:
#
# PCOD9319395 Si02
#       5
#     8   8   8   8   8
#     4  11  25  46  72 100 131 177 233 293 353 408
#     4  11  24  41  64  97 138 184 224 270 332 398
#     4  10  21  42  65 100 135 184 224 267 327 413
#     4  10  24  45  69  99 141 179 228 279 340 404
#     4  10  25  45  67 101 139 171 230 286 337 413
#
# _framework density 23.723279999999999
#
# number of rings (size 3 to 8) (size 9 to 14) (size 15 to 20)
#    0.000    1.600    2.000    0.600    2.800   14.400 
#    0.000    0.000    0.000    0.000    0.000    0.000 
#    0.000    0.000    0.000    0.000    0.000    0.000 
#
# Total GULP energy -112019.461577 kJ/mol
# GULP energy per Si atom -5600.973079 kJ/mol
# Density = 2.366928 g / cm^3
# Si number density = 23.723280 Si / 1000 Ang^3
#
#
#
# Elastic Constant Matrix: (Units=GPa)
#
#
# Indices 1 2 3 4 5 6 
#
# 1 59.0259 16.4917 -6.8245 0.0000 0.0000 0.0000
# 2 16.4917 161.5233 43.6510 0.0000 0.0000 0.0000
# 3 -6.8245 43.6510 123.9438 0.0000 0.0000 0.0000
# 4 0.0000 0.0000 0.0000 37.1809 0.0000 0.0000
# 5 0.0000 0.0000 0.0000 0.0000 35.7021 0.0000
# 6 0.0000 0.0000 0.0000 0.0000 0.0000 25.9334
#
#
#
# Elastic Compliance Matrix: (Units=1/GPa)
#
#
# Indices 1 2 3 4 5 6 
#
# 1 0.017791 -0.002300 0.001790 0.000000 0.000000 0.000000
# 2 -0.002300 0.007140 -0.002641 0.000000 0.000000 0.000000
# 3 0.001790 -0.002641 0.009097 0.000000 0.000000 0.000000
# 4 0.000000 0.000000 0.000000 0.026896 0.000000 0.000000
# 5 0.000000 0.000000 0.000000 0.000000 0.028010 0.000000
# 6 0.000000 0.000000 0.000000 0.000000 0.000000 0.038560
#
#
# Mechanical properties :
#
#
# Convention : Reuss Voigt Hill
#
# Bulk Modulus (GPa) = 36.06898 50.12548 43.09723
# Shear Modulus (GPa) = 34.95576 39.17494 37.06535
#
# Velocity S-wave (km/s) = 3.84276 4.06806 3.95701
# Velocity P-wave (km/s) = 5.90983 6.57576 6.25167
#
# Compressibility (1/GPa) = 0.02772465
#
# Stress axis : x y z
#
# Youngs Moduli (GPa) = 56.20720 140.06268 109.92782
#
# Poissons Ratio (x) = 0.32217 -0.19674
# Poissons Ratio (y) = 0.12929 0.29033
# Poissons Ratio (z) = -0.10059 0.36992
#
# Static dielectric constant tensor:
#      x y z
#    x 1.899490 0.000000 0.000000 
#    y 0.000000 1.932310 0.000000 
#    z 0.000000 0.000000 1.913420 
# 
# From -- ./inp_files/29221.got.cif
#   From: 2010.05.17/outbox.cif.g08.bks.cpg/sg20_15_cif.got.tgz:29221.got - 2010.06.03 22:52:26.
