data_PCOD9319405
_publ_section_title
;
Structure prediction by ZEFSAII (Michael W. Deem and Ramdas Pophale) SiO2 
 PCOD9319405
Probable space group: C 2 2 21
;
_chemical_formula_sum "Si O2"
_cell_formula_units_Z 40
_cell_length_a 12.823636
_cell_length_b 14.395176
_cell_length_c 10.374215
_cell_angle_alpha 90.000000
_cell_angle_beta 90.000000
_cell_angle_gamma 90.000000
_cell_volume 1915.064498
_symmetry_space_group_name_H-M "C 2 2 21"
_symmetry_group_IT_number 20
_symmetry_cell_setting 'orthorhombic'
loop_
_space_group_symop_operation_xyz
x,y,z
-x,-y,1/2+z
x,-y,-z
-x,y,1/2-z
1/2+x,1/2+y,z
1/2-x,1/2-y,1/2+z
1/2+x,1/2-y,-z
1/2-x,1/2+y,1/2-z
loop_
_atom_site_type_symbol
_atom_site_label
_atom_site_fract_x
_atom_site_fract_y
_atom_site_fract_z
Si Si1 0.189145 0.905039 0.548420
Si Si2 0.617338 0.794883 0.380429
Si Si3 0.387185 0.820552 0.423164
Si Si4 0.161650 0.137621 0.940802
Si Si5 0.615057 0.467797 0.797614
O O1 0.126843 0.807488 0.553392
O O2 0.294799 0.889855 0.466575
O O3 0.201466 0.930915 0.698359
O O4 0.133303 0.000000 0.500000
O O5 0.509117 0.844836 0.414850
O O6 0.630869 0.785173 0.224567
O O7 0.714719 0.853625 0.427909
O O8 0.378854 0.740475 0.531579
O O9 0.132649 0.082317 0.068415
O O10 0.121592 0.078186 0.820506
O O11 0.500000 0.442185 0.750000
#
# Coordination Sequence:
#
# PCOD9319405 Si02
#       5
#     8   8   8   8   8
#     4  11  23  38  66  97 128 164 221 269 317 387
#     4  10  21  42  66  90 132 173 216 258 331 386
#     4  10  21  42  66  93 129 178 207 266 329 389
#     4  10  22  40  63  92 128 173 209 269 321 391
#     4  11  23  39  63  96 130 164 216 273 328 371
#
# _framework density 20.887024
#
# number of rings (size 3 to 8) (size 9 to 14) (size 15 to 20)
#    0.000    1.600    2.000    2.400    5.600    0.000 
#    3.600    1.000    0.000    0.000    0.000    0.000 
#    0.000    0.000    0.000    0.000    0.000    0.000 
#
# Total GULP energy -111452.070787 kJ/mol
# GULP energy per Si atom -5572.603539 kJ/mol
# Density = 2.083948 g / cm^3
# Si number density = 20.887024 Si / 1000 Ang^3
#
#
#
# Elastic Constant Matrix: (Units=GPa)
#
#
# Indices 1 2 3 4 5 6 
#
# 1 133.1347 19.6924 50.8467 0.0000 0.0000 0.0000
# 2 19.6924 52.7771 11.7979 0.0000 0.0000 0.0000
# 3 50.8467 11.7979 49.5404 0.0000 0.0000 0.0000
# 4 0.0000 0.0000 0.0000 43.7095 0.0000 0.0000
# 5 0.0000 0.0000 0.0000 0.0000 36.9388 0.0000
# 6 0.0000 0.0000 0.0000 0.0000 0.0000 11.8741
#
#
#
# Elastic Compliance Matrix: (Units=1/GPa)
#
#
# Indices 1 2 3 4 5 6 
#
# 1 0.012532 -0.001902 -0.012409 0.000000 0.000000 0.000000
# 2 -0.001902 0.020302 -0.002883 0.000000 0.000000 0.000000
# 3 -0.012409 -0.002883 0.033609 0.000000 0.000000 0.000000
# 4 0.000000 0.000000 0.000000 0.022878 0.000000 0.000000
# 5 0.000000 0.000000 0.000000 0.000000 0.027072 0.000000
# 6 0.000000 0.000000 0.000000 0.000000 0.000000 0.084217
#
#
# Mechanical properties :
#
#
# Convention : Reuss Voigt Hill
#
# Bulk Modulus (GPa) = 31.19717 44.45845 37.82781
# Shear Modulus (GPa) = 20.35149 28.71216 24.53183
#
# Velocity S-wave (km/s) = 3.12486 3.71164 3.43082
# Velocity P-wave (km/s) = 5.29039 6.30077 5.81756
#
# Compressibility (1/GPa) = 0.03205419
#
# Stress axis : x y z
#
# Youngs Moduli (GPa) = 79.79637 49.25701 29.75425
#
# Poissons Ratio (x) = 0.09368 0.36923
# Poissons Ratio (y) = 0.15177 0.08577
# Poissons Ratio (z) = 0.99022 0.14199
#
# Static dielectric constant tensor:
#      x y z
#    x 1.744040 0.000000 0.000000 
#    y 0.000000 1.847650 0.000000 
#    z 0.000000 0.000000 1.805800 
# 
# From -- ./inp_files/13894.got.cif
#   From: 2010.05.17/outbox.cif.g08.bks.cpg/sg20_7_cif.got.tgz:13894.got - 2010.06.03 22:52:26.
