data_PCOD9319091
_publ_section_title
;
Structure prediction by ZEFSAII (Michael W. Deem and Ramdas Pophale) SiO2 
 PCOD9319091
Probable space group: C 2 2 21
;
_chemical_formula_sum "Si O2"
_cell_formula_units_Z 44
_cell_length_a 6.775062
_cell_length_b 22.517000
_cell_length_c 14.305025
_cell_angle_alpha 90.000000
_cell_angle_beta 90.000000
_cell_angle_gamma 90.000000
_cell_volume 2182.289800
_symmetry_space_group_name_H-M "C 2 2 21"
_symmetry_group_IT_number 20
_symmetry_cell_setting 'orthorhombic'
loop_
_space_group_symop_operation_xyz
x,y,z
-x,-y,1/2+z
x,-y,-z
-x,y,1/2-z
1/2+x,1/2+y,z
1/2-x,1/2-y,1/2+z
1/2+x,1/2-y,-z
1/2-x,1/2+y,1/2-z
loop_
_atom_site_type_symbol
_atom_site_label
_atom_site_fract_x
_atom_site_fract_y
_atom_site_fract_z
Si Si1 0.113790 0.694126 0.661414
Si Si2 0.481514 0.694179 0.904588
Si Si3 0.414103 0.903802 0.853134
Si Si4 0.653556 0.292701 0.891235
Si Si5 0.456015 0.000000 0.000000
Si Si6 0.139414 0.617117 0.972804
O O1 0.042755 0.762493 0.651897
O O2 0.025401 0.658678 0.574017
O O3 0.000000 0.668820 0.750000
O O4 0.345162 0.685493 0.668879
O O5 0.331332 0.745942 0.876507
O O6 0.602999 0.708978 0.998838
O O7 0.596726 0.878042 0.916301
O O8 0.500000 0.915916 0.750000
O O9 0.237115 0.855594 0.856379
O O10 0.352865 0.960841 0.918274
O O11 0.346715 0.361049 0.065389
O O12 0.590349 0.950720 0.050359
#
# Coordination Sequence:
#
# PCOD9319091 Si02
#       6
#     8   8   8   8   4   8
#     4  11  24  36  60  98 132 173 215 262 336 409
#     4  11  19  38  61  85 135 172 204 269 321 396
#     4  10  21  39  65  94 127 169 221 281 335 397
#     4  11  21  34  60  92 124 168 211 258 336 391
#     4   8  20  42  62  92 124 174 224 286 322 392
#     4   9  21  40  62  88 125 173 221 268 329 383
#
# _framework density 20.162310000000002
#
# number of rings (size 3 to 8) (size 9 to 14) (size 15 to 20)
#    1.091    0.727    3.636    1.091    2.545    2.909 
#    0.000    3.636    0.000    2.182    0.000    0.000 
#    0.000    0.000    0.000    0.000    0.000    0.000 
#
# Total GULP energy -122475.244547 kJ/mol
# GULP energy per Si atom -5567.056570 kJ/mol
# Density = 2.011642 g / cm^3
# Si number density = 20.162310 Si / 1000 Ang^3
#
#
#
# Elastic Constant Matrix: (Units=GPa)
#
#
# Indices 1 2 3 4 5 6 
#
# 1 104.8071 31.3026 6.4596 0.0000 0.0000 0.0000
# 2 31.3026 117.6960 21.4004 0.0000 0.0000 0.0000
# 3 6.4596 21.4004 86.4237 0.0000 0.0000 0.0000
# 4 0.0000 0.0000 0.0000 17.6582 0.0000 0.0000
# 5 0.0000 0.0000 0.0000 0.0000 24.1026 0.0000
# 6 0.0000 0.0000 0.0000 0.0000 0.0000 10.9905
#
#
#
# Elastic Compliance Matrix: (Units=1/GPa)
#
#
# Indices 1 2 3 4 5 6 
#
# 1 0.010365 -0.002739 -0.000096 0.000000 0.000000 0.000000
# 2 -0.002739 0.009621 -0.002178 0.000000 0.000000 0.000000
# 3 -0.000096 -0.002178 0.012117 0.000000 0.000000 0.000000
# 4 0.000000 0.000000 0.000000 0.056631 0.000000 0.000000
# 5 0.000000 0.000000 0.000000 0.000000 0.041489 0.000000
# 6 0.000000 0.000000 0.000000 0.000000 0.000000 0.090988
#
#
# Mechanical properties :
#
#
# Convention : Reuss Voigt Hill
#
# Bulk Modulus (GPa) = 45.29590 47.47243 46.38416
# Shear Modulus (GPa) = 20.95579 27.20120 24.07850
#
# Velocity S-wave (km/s) = 3.22740 3.67701 3.45952
# Velocity P-wave (km/s) = 6.03345 6.45162 6.24604
#
# Compressibility (1/GPa) = 0.02207706
#
# Stress axis : x y z
#
# Youngs Moduli (GPa) = 96.47463 103.93975 82.52642
#
# Poissons Ratio (x) = 0.28472 0.00796
# Poissons Ratio (y) = 0.26427 0.17971
# Poissons Ratio (z) = 0.00930 0.22634
#
# Static dielectric constant tensor:
#      x y z
#    x 1.759550 0.000000 0.000000 
#    y 0.000000 1.732570 0.000000 
#    z 0.000000 0.000000 1.902090 
# 
# From -- ./inp_files/18800.got.cif
#   From: 2010.05.17/outbox.cif.g08.bks.cpg/sg20_10_cif.got.tgz:18800.got - 2010.06.03 22:52:26.
