data_PCOD9319493
_publ_section_title
;
Structure prediction by ZEFSAII (Michael W. Deem and Ramdas Pophale) SiO2 
 PCOD9319493
Probable space group: C 2 2 21
;
_chemical_formula_sum "Si O2"
_cell_formula_units_Z 32
_cell_length_a 5.375242
_cell_length_b 36.065413
_cell_length_c 7.210842
_cell_angle_alpha 90.000000
_cell_angle_beta 90.000000
_cell_angle_gamma 90.000000
_cell_volume 1397.896157
_symmetry_space_group_name_H-M "C 2 2 21"
_symmetry_group_IT_number 20
_symmetry_cell_setting 'orthorhombic'
loop_
_space_group_symop_operation_xyz
x,y,z
-x,-y,1/2+z
x,-y,-z
-x,y,1/2-z
1/2+x,1/2+y,z
1/2-x,1/2-y,1/2+z
1/2+x,1/2-y,-z
1/2-x,1/2+y,1/2-z
loop_
_atom_site_type_symbol
_atom_site_label
_atom_site_fract_x
_atom_site_fract_y
_atom_site_fract_z
Si Si1 0.255399 0.456262 0.030184
Si Si2 0.756525 0.575614 0.951817
Si Si3 0.754724 0.849480 0.630107
Si Si4 0.901646 0.228743 0.543842
O O1 0.249113 0.442094 0.245333
O O2 0.507154 0.439020 0.955512
O O3 0.001428 0.440087 0.953164
O O4 0.260003 0.500000 0.000000
O O5 0.765605 0.619869 0.967350
O O6 0.500000 0.849929 0.750000
O O7 0.807285 0.808740 0.551369
O O8 0.000000 0.859056 0.750000
O O9 0.652983 0.254519 0.550958
O O10 0.000000 0.221183 0.750000
#
# Coordination Sequence:
#
# PCOD9319493 Si02
#       4
#     8   8   8   8
#     4  10  21  43  69  94 136 175 235 305 359 439
#     4  10  23  43  67 100 135 182 241 285 375 427
#     4  12  26  48  72 104 154 194 242 305 360 435
#     4  12  26  47  78 111 149 195 249 302 367 440
#
# _framework density 22.891542999999999
#
# number of rings (size 3 to 8) (size 9 to 14) (size 15 to 20)
#    0.000    1.000    0.000    6.750    3.500    0.000 
#   31.500    0.000    0.000    0.000    0.000    0.000 
#    0.000    0.000    0.000    0.000    0.000    0.000 
#
# Total GULP energy -89422.722467 kJ/mol
# GULP energy per Si atom -5588.920154 kJ/mol
# Density = 2.283944 g / cm^3
# Si number density = 22.891543 Si / 1000 Ang^3
#
#
#
# Elastic Constant Matrix: (Units=GPa)
#
#
# Indices 1 2 3 4 5 6 
#
# 1 256.3459 72.4914 34.5625 0.0000 0.0000 0.0000
# 2 72.4914 200.4925 50.7354 0.0000 0.0000 0.0000
# 3 34.5625 50.7354 132.7599 0.0000 0.0000 0.0000
# 4 0.0000 0.0000 0.0000 44.9734 0.0000 0.0000
# 5 0.0000 0.0000 0.0000 0.0000 -3.9686 0.0000
# 6 0.0000 0.0000 0.0000 0.0000 0.0000 85.2166
#
#
#
# Elastic Compliance Matrix: (Units=1/GPa)
#
#
# Indices 1 2 3 4 5 6 
#
# 1 0.004387 -0.001436 -0.000593 0.000000 0.000000 0.000000
# 2 -0.001436 0.005992 -0.001916 0.000000 0.000000 0.000000
# 3 -0.000593 -0.001916 0.008419 0.000000 0.000000 0.000000
# 4 0.000000 0.000000 0.000000 0.022235 0.000000 0.000000
# 5 0.000000 0.000000 0.000000 0.000000 -0.251977 0.000000
# 6 0.000000 0.000000 0.000000 0.000000 0.000000 0.011735
#
#
# Mechanical properties :
#
#
# Convention : Reuss Voigt Hill
#
# Bulk Modulus (GPa) = 91.68226 100.57522 96.12874
# Shear Modulus (GPa) = -26.64076 54.03153 13.69538
#
# Velocity S-wave (km/s) = -3.41513 4.86359 2.44861
# Velocity P-wave (km/s) = 4.95852 8.69312 7.07662
#
# Compressibility (1/GPa) = 0.01090724
#
# Stress axis : x y z
#
# Youngs Moduli (GPa) = 227.94203 166.89485 118.77817
#
# Poissons Ratio (x) = 0.23967 0.07047
# Poissons Ratio (y) = 0.32734 0.22757
# Poissons Ratio (z) = 0.13524 0.31976
#
# Static dielectric constant tensor:
#      x y z
#    x 1.873000 0.000000 0.000000 
#    y 0.000000 1.830790 0.000000 
#    z 0.000000 0.000000 1.494950 
# 
# From -- ./inp_files/5128.got.cif
#   From: 2010.05.17/outbox.cif.g08.bks.cpg/sg20_3_cif.got.tgz:5128.got - 2010.06.03 22:52:26.
