data_PCOD9319657
_publ_section_title
;
Structure prediction by ZEFSAII (Michael W. Deem and Ramdas Pophale) SiO2 
 PCOD9319657
Probable space group: C 2 2 21
;
_chemical_formula_sum "Si O2"
_cell_formula_units_Z 36
_cell_length_a 27.272070
_cell_length_b 9.535736
_cell_length_c 5.347705
_cell_angle_alpha 90.000000
_cell_angle_beta 90.000000
_cell_angle_gamma 90.000000
_cell_volume 1390.720203
_symmetry_space_group_name_H-M "C 2 2 21"
_symmetry_group_IT_number 20
_symmetry_cell_setting 'orthorhombic'
loop_
_space_group_symop_operation_xyz
x,y,z
-x,-y,1/2+z
x,-y,-z
-x,y,1/2-z
1/2+x,1/2+y,z
1/2-x,1/2-y,1/2+z
1/2+x,1/2-y,-z
1/2-x,1/2+y,1/2-z
loop_
_atom_site_type_symbol
_atom_site_label
_atom_site_fract_x
_atom_site_fract_y
_atom_site_fract_z
Si Si1 0.583895 0.500000 0.000000
Si Si2 0.045741 0.623831 0.863768
Si Si3 0.808003 0.000000 0.000000
Si Si4 0.500000 0.649908 0.750000
Si Si5 0.133647 0.760480 0.707116
Si Si6 0.263422 0.835519 0.238966
O O1 0.546830 0.456751 0.226966
O O2 0.618236 0.632226 0.069539
O O3 0.082267 0.687232 0.658670
O O4 0.000000 0.543941 0.750000
O O5 0.075138 0.500000 0.000000
O O6 0.019573 0.745566 0.028993
O O7 0.770169 0.971834 0.224769
O O8 0.843510 0.132324 0.011383
O O9 0.177745 0.651734 0.750047
O O10 0.250756 0.745100 0.487156
#
# Coordination Sequence:
#
# PCOD9319657 Si02
#       6
#     4   8   4   4   8   8
#     4  10  22  37  64  94 140 170 245 280 354 406
#     4  11  24  45  67  95 143 185 237 279 352 421
#     4  10  22  41  72  98 146 172 243 294 360 424
#     4  10  24  40  62  96 130 184 218 300 338 408
#     4  10  23  39  68 102 134 185 230 290 354 426
#     4  10  22  43  67 100 141 184 229 294 362 422
#
# _framework density 25.885867000000001
#
# number of rings (size 3 to 8) (size 9 to 14) (size 15 to 20)
#    0.000    1.778    1.111    1.333   10.889    2.667 
#    4.000    0.000    0.000    0.000    0.000    0.000 
#    0.000    0.000    0.000    0.000    0.000    0.000 
#
# Total GULP energy -100277.736046 kJ/mol
# GULP energy per Si atom -5570.985336 kJ/mol
# Density = 2.582695 g / cm^3
# Si number density = 25.885867 Si / 1000 Ang^3
#
#
#
# Elastic Constant Matrix: (Units=GPa)
#
#
# Indices 1 2 3 4 5 6 
#
# 1 184.8356 29.8197 16.1329 0.0000 0.0000 0.0000
# 2 29.8197 81.1429 16.1703 0.0000 0.0000 0.0000
# 3 16.1329 16.1703 90.2711 0.0000 0.0000 0.0000
# 4 0.0000 0.0000 0.0000 34.0661 0.0000 0.0000
# 5 0.0000 0.0000 0.0000 0.0000 15.4150 0.0000
# 6 0.0000 0.0000 0.0000 0.0000 0.0000 -79.9268
#
#
#
# Elastic Compliance Matrix: (Units=1/GPa)
#
#
# Indices 1 2 3 4 5 6 
#
# 1 0.005791 -0.001993 -0.000678 0.000000 0.000000 0.000000
# 2 -0.001993 0.013466 -0.002056 0.000000 0.000000 0.000000
# 3 -0.000678 -0.002056 0.011567 0.000000 0.000000 0.000000
# 4 0.000000 0.000000 0.000000 0.029355 0.000000 0.000000
# 5 0.000000 0.000000 0.000000 0.000000 0.064872 0.000000
# 6 0.000000 0.000000 0.000000 0.000000 0.000000 -0.012511
#
#
# Mechanical properties :
#
#
# Convention : Reuss Voigt Hill
#
# Bulk Modulus (GPa) = 46.79395 53.38839 50.09117
# Shear Modulus (GPa) = 38.72465 13.51930 26.12198
#
# Velocity S-wave (km/s) = 3.87198 2.28779 3.18011
# Velocity P-wave (km/s) = 6.17300 5.25813 5.73384
#
# Compressibility (1/GPa) = 0.02137028
#
# Stress axis : x y z
#
# Youngs Moduli (GPa) = 172.68407 74.26059 86.45138
#
# Poissons Ratio (x) = 0.14800 0.05861
# Poissons Ratio (y) = 0.34417 0.17774
# Poissons Ratio (z) = 0.11707 0.15268
#
# Static dielectric constant tensor:
#      x y z
#    x 2.010700 0.000000 0.000000 
#    y 0.000000 2.143900 0.000000 
#    z 0.000000 0.000000 2.184980 
# 
# From -- ./inp_files/3601.got.cif
#   From: 2010.05.17/outbox.cif.g08.bks.cpg/sg20_2_cif.got.tgz:3601.got - 2010.06.03 22:52:26.
