data_PCOD9319883
_publ_section_title
;
Structure prediction by ZEFSAII (Michael W. Deem and Ramdas Pophale) SiO2 
 PCOD9319883
Probable space group: C 2 2 21
;
_chemical_formula_sum "Si O2"
_cell_formula_units_Z 32
_cell_length_a 13.801813
_cell_length_b 19.158445
_cell_length_c 5.121477
_cell_angle_alpha 90.000000
_cell_angle_beta 90.000000
_cell_angle_gamma 90.000000
_cell_volume 1354.227480
_symmetry_space_group_name_H-M "C 2 2 21"
_symmetry_group_IT_number 20
_symmetry_cell_setting 'orthorhombic'
loop_
_space_group_symop_operation_xyz
x,y,z
-x,-y,1/2+z
x,-y,-z
-x,y,1/2-z
1/2+x,1/2+y,z
1/2-x,1/2-y,1/2+z
1/2+x,1/2-y,-z
1/2-x,1/2+y,1/2-z
loop_
_atom_site_type_symbol
_atom_site_label
_atom_site_fract_x
_atom_site_fract_y
_atom_site_fract_z
Si Si1 0.708827 0.924053 0.637127
Si Si2 0.000000 0.450646 0.750000
Si Si3 0.500000 0.422306 0.250000
Si Si4 0.163412 0.000000 0.500000
Si Si5 0.000000 0.822544 0.750000
Si Si6 0.706020 0.717418 0.071772
O O1 0.596547 0.907756 0.688335
O O2 0.764465 0.861786 0.498016
O O3 0.708149 0.000000 0.500000
O O4 0.768297 0.938412 0.900449
O O5 0.978703 0.500000 0.500000
O O6 0.592477 0.472537 0.274862
O O7 0.509345 0.373012 0.500476
O O8 0.902569 0.779839 0.686975
O O9 0.775692 0.738584 0.311928
#
# Coordination Sequence:
#
# PCOD9319883 Si02
#       6
#     8   4   4   4   4   8
#     4  11  25  45  75 106 147 193 248 306 358 435
#     4  10  22  40  68 104 138 186 246 300 356 410
#     4  12  25  40  73 114 145 191 234 308 368 441
#     4  12  24  40  72 112 144 184 238 306 374 428
#     4  12  25  50  73 102 149 195 246 292 370 449
#     4  12  29  49  73 106 148 195 241 302 370 437
#
# _framework density 23.629708999999998
#
# number of rings (size 3 to 8) (size 9 to 14) (size 15 to 20)
#    0.000    0.500    3.750    3.750    5.250    2.000 
#    0.000    1.250    0.000    0.000    0.000    0.000 
#    0.000    0.000    0.000    0.000    0.000    0.000 
#
# Total GULP energy -89572.277122 kJ/mol
# GULP energy per Si atom -5598.267320 kJ/mol
# Density = 2.357593 g / cm^3
# Si number density = 23.629709 Si / 1000 Ang^3
#
#
#
# Elastic Constant Matrix: (Units=GPa)
#
#
# Indices 1 2 3 4 5 6 
#
# 1 144.4771 19.8894 2.0228 0.0000 0.0000 0.0000
# 2 19.8894 66.6277 21.0985 0.0000 0.0000 0.0000
# 3 2.0228 21.0985 129.4708 0.0000 0.0000 0.0000
# 4 0.0000 0.0000 0.0000 50.0031 0.0000 0.0000
# 5 0.0000 0.0000 0.0000 0.0000 29.4196 0.0000
# 6 0.0000 0.0000 0.0000 0.0000 0.0000 23.1483
#
#
#
# Elastic Compliance Matrix: (Units=1/GPa)
#
#
# Indices 1 2 3 4 5 6 
#
# 1 0.007226 -0.002237 0.000252 0.000000 0.000000 0.000000
# 2 -0.002237 0.016518 -0.002657 0.000000 0.000000 0.000000
# 3 0.000252 -0.002657 0.008153 0.000000 0.000000 0.000000
# 4 0.000000 0.000000 0.000000 0.019999 0.000000 0.000000
# 5 0.000000 0.000000 0.000000 0.000000 0.033991 0.000000
# 6 0.000000 0.000000 0.000000 0.000000 0.000000 0.043200
#
#
# Mechanical properties :
#
#
# Convention : Reuss Voigt Hill
#
# Bulk Modulus (GPa) = 44.22303 47.39966 45.81135
# Shear Modulus (GPa) = 34.26836 40.35186 37.31011
#
# Velocity S-wave (km/s) = 3.81231 4.13689 3.97791
# Velocity P-wave (km/s) = 6.17527 6.55144 6.36613
#
# Compressibility (1/GPa) = 0.02261265
#
# Stress axis : x y z
#
# Youngs Moduli (GPa) = 138.39097 60.54089 122.65778
#
# Poissons Ratio (x) = 0.13541 -0.03086
# Poissons Ratio (y) = 0.30954 0.32587
# Poissons Ratio (z) = -0.03482 0.16084
#
# Static dielectric constant tensor:
#      x y z
#    x 1.968340 0.000000 0.000000 
#    y 0.000000 1.902640 0.000000 
#    z 0.000000 0.000000 1.910180 
# 
# From -- ./inp_files/1072.got.cif
#   From: 2010.05.17/outbox.cif.g08.bks.cpg/sg20_1_cif.got.tgz:1072.got - 2010.06.03 22:52:26.
