data_PCOD9319093
_publ_section_title
;
Structure prediction by ZEFSAII (Michael W. Deem and Ramdas Pophale) SiO2 
 PCOD9319093
Probable space group: C 2 2 21
;
_chemical_formula_sum "Si O2"
_cell_formula_units_Z 52
_cell_length_a 7.985488
_cell_length_b 12.098367
_cell_length_c 26.491891
_cell_angle_alpha 90.000000
_cell_angle_beta 90.000000
_cell_angle_gamma 90.000000
_cell_volume 2559.417738
_symmetry_space_group_name_H-M "C 2 2 21"
_symmetry_group_IT_number 20
_symmetry_cell_setting 'orthorhombic'
loop_
_space_group_symop_operation_xyz
x,y,z
-x,-y,1/2+z
x,-y,-z
-x,y,1/2-z
1/2+x,1/2+y,z
1/2-x,1/2-y,1/2+z
1/2+x,1/2-y,-z
1/2-x,1/2+y,1/2-z
loop_
_atom_site_type_symbol
_atom_site_label
_atom_site_fract_x
_atom_site_fract_y
_atom_site_fract_z
Si Si1 0.828071 0.268459 0.955501
Si Si2 0.850440 0.763161 0.834353
Si Si3 0.840583 0.519690 0.787549
Si Si4 0.000000 0.081565 0.250000
Si Si5 0.532916 0.678130 0.443952
Si Si6 0.203981 0.520781 0.945488
Si Si7 0.019800 0.384076 0.867658
O O1 0.662434 0.342991 0.952968
O O2 0.766976 0.144815 0.942923
O O3 0.954913 0.307829 0.913012
O O4 0.906260 0.258038 0.010949
O O5 0.834420 0.640127 0.812970
O O6 0.959488 0.839083 0.797153
O O7 0.931257 0.767651 0.889927
O O8 0.668215 0.820349 0.839247
O O9 0.665376 0.490733 0.760923
O O10 0.879467 0.426514 0.829614
O O11 0.000000 0.517803 0.750000
O O12 0.642160 0.566499 0.445877
O O13 0.095507 0.489290 0.897194
O O14 0.117202 0.500000 0.000000
#
# Coordination Sequence:
#
# PCOD9319093 Si02
#       7
#     8   8   8   4   8   8   8
#     4  11  21  40  64  95 135 174 207 266 324 389
#     4  11  24  45  68  97 131 172 219 279 331 388
#     4  12  26  46  69  96 128 174 221 277 335 390
#     4  12  26  46  70  94 130 168 228 280 328 396
#     4  10  21  39  65  95 133 170 217 263 323 396
#     4   9  20  39  62  93 130 169 210 259 315 390
#     4  11  24  41  67  97 132 167 222 265 331 398
#
# _framework density 20.317122000000001
#
# number of rings (size 3 to 8) (size 9 to 14) (size 15 to 20)
#    0.000    1.231    2.308    4.615    0.000    4.923 
#    2.769   10.000    0.000    0.000    0.000    0.000 
#    0.000    0.000    0.000    0.000    0.000    0.000 
#
# Total GULP energy -145367.729876 kJ/mol
# GULP energy per Si atom -5591.066534 kJ/mol
# Density = 2.027088 g / cm^3
# Si number density = 20.317122 Si / 1000 Ang^3
#
#
#
# Elastic Constant Matrix: (Units=GPa)
#
#
# Indices 1 2 3 4 5 6 
#
# 1 102.5383 11.8698 40.5445 0.0000 0.0000 0.0000
# 2 11.8698 62.9615 43.9734 0.0000 0.0000 0.0000
# 3 40.5445 43.9734 116.0837 0.0000 0.0000 0.0000
# 4 0.0000 0.0000 0.0000 31.4738 0.0000 0.0000
# 5 0.0000 0.0000 0.0000 0.0000 26.9453 0.0000
# 6 0.0000 0.0000 0.0000 0.0000 0.0000 -251.4914
#
#
#
# Elastic Compliance Matrix: (Units=1/GPa)
#
#
# Indices 1 2 3 4 5 6 
#
# 1 0.011349 0.000855 -0.004288 0.000000 0.000000 0.000000
# 2 0.000855 0.021661 -0.008504 0.000000 0.000000 0.000000
# 3 -0.004288 -0.008504 0.013333 0.000000 0.000000 0.000000
# 4 0.000000 0.000000 0.000000 0.031773 0.000000 0.000000
# 5 0.000000 0.000000 0.000000 0.000000 0.037112 0.000000
# 6 0.000000 0.000000 0.000000 0.000000 0.000000 -0.003976
#
#
# Mechanical properties :
#
#
# Convention : Reuss Voigt Hill
#
# Bulk Modulus (GPa) = 44.50394 52.70654 48.60524
# Shear Modulus (GPa) = 35.05953 -26.26807 4.39573
#
# Velocity S-wave (km/s) = 4.15856 -3.59960 1.47250
# Velocity P-wave (km/s) = 6.70898 2.95332 5.18326
#
# Compressibility (1/GPa) = 0.02246992
#
# Stress axis : x y z
#
# Youngs Moduli (GPa) = 88.11447 46.16637 74.99965
#
# Poissons Ratio (x) = -0.03948 0.32158
# Poissons Ratio (y) = -0.07535 0.63779
# Poissons Ratio (z) = 0.37781 0.39260
#
# Static dielectric constant tensor:
#      x y z
#    x 1.737070 0.000000 0.000000 
#    y 0.000000 1.744860 0.000000 
#    z 0.000000 0.000000 1.747110 
# 
# From -- ./inp_files/30109.got.cif
#   From: 2010.05.17/outbox.cif.g08.bks.cpg/sg20_16_cif.got.tgz:30109.got - 2010.06.03 22:52:26.
