data_PCOD9319109
_publ_section_title
;
Structure prediction by ZEFSAII (Michael W. Deem and Ramdas Pophale) SiO2 
 PCOD9319109
Probable space group: C 2 2 21
;
_chemical_formula_sum "Si O2"
_cell_formula_units_Z 64
_cell_length_a 20.342227
_cell_length_b 9.302505
_cell_length_c 14.324783
_cell_angle_alpha 90.000000
_cell_angle_beta 90.000000
_cell_angle_gamma 90.000000
_cell_volume 2710.731236
_symmetry_space_group_name_H-M "C 2 2 21"
_symmetry_group_IT_number 20
_symmetry_cell_setting 'orthorhombic'
loop_
_space_group_symop_operation_xyz
x,y,z
-x,-y,1/2+z
x,-y,-z
-x,y,1/2-z
1/2+x,1/2+y,z
1/2-x,1/2-y,1/2+z
1/2+x,1/2-y,-z
1/2-x,1/2+y,1/2-z
loop_
_atom_site_type_symbol
_atom_site_label
_atom_site_fract_x
_atom_site_fract_y
_atom_site_fract_z
Si Si1 0.665420 0.842868 0.004757
Si Si2 0.876733 0.604062 0.091762
Si Si3 0.214342 0.875157 0.392974
Si Si4 0.862770 0.149200 0.162744
Si Si5 0.793797 0.417079 0.217626
Si Si6 0.333227 0.572314 0.597717
Si Si7 0.456672 0.676492 0.007282
Si Si8 0.577472 0.333425 0.857943
O O1 0.744382 0.858986 0.011971
O O2 0.635464 0.756371 0.092371
O O3 0.653834 0.739535 0.917333
O O4 0.635315 0.000000 0.000000
O O5 0.819871 0.721262 0.112973
O O6 0.870488 0.500000 0.000000
O O7 0.859041 0.503854 0.821213
O O8 0.942260 0.707272 0.076038
O O9 0.273151 0.925879 0.324520
O O10 0.158207 0.988248 0.364286
O O11 0.803571 0.248643 0.195269
O O12 0.891163 0.205074 0.066350
O O13 0.916324 0.171415 0.246009
O O14 0.726551 0.460965 0.165544
O O15 0.313038 0.500000 0.500000
O O16 0.401626 0.498281 0.623897
O O17 0.515883 0.709909 0.078718
O O18 0.460514 0.500000 0.000000
#
# Coordination Sequence:
#
# PCOD9319109 Si02
#       8
#     8   8   8   8   8   8   8   8
#     4  11  23  38  63  99 139 173 225 286 359 426
#     4  12  25  43  69 105 141 187 239 294 362 430
#     4  12  24  41  67 106 145 180 228 293 374 437
#     4  12  24  43  70 105 140 186 234 295 360 429
#     4  12  22  41  69 103 145 178 223 300 376 442
#     4  10  21  39  66  95 135 183 229 281 351 432
#     4  12  26  46  73  95 136 190 253 294 336 424
#     4  11  24  48  67  97 136 195 242 288 350 420
#
# _framework density 23.609867000000001
#
# number of rings (size 3 to 8) (size 9 to 14) (size 15 to 20)
#    0.000    0.500    5.000    5.625    1.750    0.500 
#    0.000    0.000    0.000    1.500    0.000    0.000 
#    0.000    0.000    0.000    0.000    0.000    0.000 
#
# Total GULP energy -178155.390866 kJ/mol
# GULP energy per Si atom -5567.355965 kJ/mol
# Density = 2.355613 g / cm^3
# Si number density = 23.609867 Si / 1000 Ang^3
#
#
#
# Elastic Constant Matrix: (Units=GPa)
#
#
# Indices 1 2 3 4 5 6 
#
# 1 54.4717 14.0623 10.8390 0.0000 0.0000 0.0000
# 2 14.0623 147.2834 9.1150 0.0000 0.0000 0.0000
# 3 10.8390 9.1150 57.6952 0.0000 0.0000 0.0000
# 4 0.0000 0.0000 0.0000 27.1526 0.0000 0.0000
# 5 0.0000 0.0000 0.0000 0.0000 33.6633 0.0000
# 6 0.0000 0.0000 0.0000 0.0000 0.0000 18.2068
#
#
#
# Elastic Compliance Matrix: (Units=1/GPa)
#
#
# Indices 1 2 3 4 5 6 
#
# 1 0.019459 -0.001648 -0.003395 0.000000 0.000000 0.000000
# 2 -0.001648 0.006996 -0.000796 0.000000 0.000000 0.000000
# 3 -0.003395 -0.000796 0.018096 0.000000 0.000000 0.000000
# 4 0.000000 0.000000 0.000000 0.036829 0.000000 0.000000
# 5 0.000000 0.000000 0.000000 0.000000 0.029706 0.000000
# 6 0.000000 0.000000 0.000000 0.000000 0.000000 0.054924
#
#
# Mechanical properties :
#
#
# Convention : Reuss Voigt Hill
#
# Bulk Modulus (GPa) = 30.41955 36.38700 33.40328
# Shear Modulus (GPa) = 26.50459 30.83345 28.66902
#
# Velocity S-wave (km/s) = 3.35417 3.61772 3.48843
# Velocity P-wave (km/s) = 5.28326 5.73548 5.51401
#
# Compressibility (1/GPa) = 0.03287359
#
# Stress axis : x y z
#
# Youngs Moduli (GPa) = 51.38967 142.93459 55.26060
#
# Poissons Ratio (x) = 0.23553 0.18763
# Poissons Ratio (y) = 0.08468 0.04397
# Poissons Ratio (z) = 0.17449 0.11374
#
# Static dielectric constant tensor:
#      x y z
#    x 1.937320 0.000000 0.000000 
#    y 0.000000 1.976210 0.000000 
#    z 0.000000 0.000000 1.966060 
# 
# From -- ./inp_files/25519.got.cif
#   From: 2010.05.17/outbox.cif.g08.bks.cpg/sg20_13_cif.got.tgz:25519.got - 2010.06.03 22:52:26.
