data_PCOD9319192
_publ_section_title
;
Structure prediction by ZEFSAII (Michael W. Deem and Ramdas Pophale) SiO2 
 PCOD9319192
Probable space group: C 2 2 21
;
_chemical_formula_sum "Si O2"
_cell_formula_units_Z 32
_cell_length_a 12.098954
_cell_length_b 14.469940
_cell_length_c 7.464751
_cell_angle_alpha 90.000000
_cell_angle_beta 90.000000
_cell_angle_gamma 90.000000
_cell_volume 1306.862456
_symmetry_space_group_name_H-M "C 2 2 21"
_symmetry_group_IT_number 20
_symmetry_cell_setting 'orthorhombic'
loop_
_space_group_symop_operation_xyz
x,y,z
-x,-y,1/2+z
x,-y,-z
-x,y,1/2-z
1/2+x,1/2+y,z
1/2-x,1/2-y,1/2+z
1/2+x,1/2-y,-z
1/2-x,1/2+y,1/2-z
loop_
_atom_site_type_symbol
_atom_site_label
_atom_site_fract_x
_atom_site_fract_y
_atom_site_fract_z
Si Si1 0.877069 0.557408 0.315006
Si Si2 0.694992 0.307532 0.533816
Si Si3 0.987504 0.897827 0.460254
Si Si4 0.746787 0.888349 0.360144
O O1 0.890846 0.500000 0.500000
O O2 0.792059 0.642083 0.352210
O O3 0.819568 0.481613 0.184303
O O4 0.000000 0.585025 0.250000
O O5 0.570173 0.337919 0.575947
O O6 0.687863 0.197781 0.548149
O O7 0.720864 0.346730 0.335552
O O8 0.856750 0.898232 0.480511
O O9 0.000000 0.875683 0.250000
O O10 0.029986 0.000000 0.500000
#
# Coordination Sequence:
#
# PCOD9319192 Si02
#       4
#     8   8   8   8
#     4  10  23  43  64  91 128 165 206 257 312 373
#     4  10  22  41  63  92 127 164 209 259 310 369
#     4  10  21  40  64  90 126 166 209 259 307 366
#     4  10  23  40  62  93 125 165 210 255 312 370
#
# _framework density 24.486128000000001
#
# number of rings (size 3 to 8) (size 9 to 14) (size 15 to 20)
#    0.000    2.000    0.000    3.750    0.000   14.000 
#    0.000    0.000    0.000    3.000    0.000    0.000 
#    0.000    0.000    0.000    0.000    0.000    0.000 
#
# Total GULP energy -89371.681838 kJ/mol
# GULP energy per Si atom -5585.730115 kJ/mol
# Density = 2.443040 g / cm^3
# Si number density = 24.486128 Si / 1000 Ang^3
#
#
#
# Elastic Constant Matrix: (Units=GPa)
#
#
# Indices 1 2 3 4 5 6 
#
# 1 154.2914 18.0861 34.9079 0.0000 0.0000 0.0000
# 2 18.0861 28.1531 -19.6695 0.0000 0.0000 0.0000
# 3 34.9079 -19.6695 97.1450 0.0000 0.0000 0.0000
# 4 0.0000 0.0000 0.0000 30.0215 0.0000 0.0000
# 5 0.0000 0.0000 0.0000 0.0000 49.0169 0.0000
# 6 0.0000 0.0000 0.0000 0.0000 0.0000 69.4106
#
#
#
# Elastic Compliance Matrix: (Units=1/GPa)
#
#
# Indices 1 2 3 4 5 6 
#
# 1 0.008653 -0.009005 -0.004933 0.000000 0.000000 0.000000
# 2 -0.009005 0.050744 0.013510 0.000000 0.000000 0.000000
# 3 -0.004933 0.013510 0.014802 0.000000 0.000000 0.000000
# 4 0.000000 0.000000 0.000000 0.033309 0.000000 0.000000
# 5 0.000000 0.000000 0.000000 0.000000 0.020401 0.000000
# 6 0.000000 0.000000 0.000000 0.000000 0.000000 0.014407
#
#
# Mechanical properties :
#
#
# Convention : Reuss Voigt Hill
#
# Bulk Modulus (GPa) = 13.63431 38.47093 26.05262
# Shear Modulus (GPa) = 29.82958 46.10746 37.96852
#
# Velocity S-wave (km/s) = 3.49409 4.34407 3.94205
# Velocity P-wave (km/s) = 4.67531 6.39583 5.60202
#
# Compressibility (1/GPa) = 0.07334437
#
# Stress axis : x y z
#
# Youngs Moduli (GPa) = 115.56989 19.70671 67.55916
#
# Poissons Ratio (x) = 0.17746 0.33324
# Poissons Ratio (y) = 1.04069 -0.91274
# Poissons Ratio (z) = 0.57005 -0.26624
#
# Static dielectric constant tensor:
#      x y z
#    x 1.978200 0.000000 0.000000 
#    y 0.000000 1.940090 0.000000 
#    z 0.000000 0.000000 2.027880 
# 
# From -- ./inp_files/6756.got.cif
#   From: 2010.05.17/outbox.cif.g08.bks.cpg/sg20_4_cif.got.tgz:6756.got - 2010.06.03 22:52:26.
