data_PCOD9319085
_publ_section_title
;
Structure prediction by ZEFSAII (Michael W. Deem and Ramdas Pophale) SiO2 
 PCOD9319085
Probable space group: C 2 2 21
;
_chemical_formula_sum "Si O2"
_cell_formula_units_Z 60
_cell_length_a 13.282893
_cell_length_b 12.904835
_cell_length_c 16.221309
_cell_angle_alpha 90.000000
_cell_angle_beta 90.000000
_cell_angle_gamma 90.000000
_cell_volume 2780.552039
_symmetry_space_group_name_H-M "C 2 2 21"
_symmetry_group_IT_number 20
_symmetry_cell_setting 'orthorhombic'
loop_
_space_group_symop_operation_xyz
x,y,z
-x,-y,1/2+z
x,-y,-z
-x,y,1/2-z
1/2+x,1/2+y,z
1/2-x,1/2-y,1/2+z
1/2+x,1/2-y,-z
1/2-x,1/2+y,1/2-z
loop_
_atom_site_type_symbol
_atom_site_label
_atom_site_fract_x
_atom_site_fract_y
_atom_site_fract_z
Si Si1 0.201891 0.000000 0.000000
Si Si2 0.705628 0.106010 0.340265
Si Si3 0.165759 0.992100 0.408603
Si Si4 0.701479 0.917846 0.236850
Si Si5 0.633577 0.275951 0.577390
Si Si6 0.663263 0.678892 0.881834
Si Si7 0.443588 0.273687 0.098576
Si Si8 0.891488 0.221188 0.256431
O O1 0.263788 0.064188 0.068917
O O2 0.143645 0.916872 0.055690
O O3 0.631991 0.202607 0.350003
O O4 0.805177 0.144395 0.289518
O O5 0.656754 0.009104 0.292990
O O6 0.246098 0.976389 0.338260
O O7 0.093297 0.893125 0.400637
O O8 0.211771 0.000000 0.500000
O O9 0.113540 0.103423 0.403550
O O10 0.788109 0.864991 0.296713
O O11 0.632062 0.828480 0.196746
O O12 0.752865 0.250606 0.572903
O O13 0.572996 0.242594 0.497562
O O14 0.610046 0.226651 0.664898
O O15 0.557327 0.734356 0.870932
O O16 0.000000 0.169611 0.250000
#
# Coordination Sequence:
#
# PCOD9319085 Si02
#       8
#     4   8   8   8   8   8   8   8
#     4  10  22  40  66  96 130 174 206 276 324 386
#     4  11  22  44  67  92 136 168 217 270 326 391
#     4  10  21  39  65  90 129 166 211 272 329 373
#     4  10  22  45  61  94 134 166 216 274 328 393
#     4  10  22  42  61  93 134 164 216 272 320 385
#     4  10  23  39  66  95 131 170 217 268 328 392
#     4  11  23  40  68  96 125 172 218 266 326 391
#     4  11  24  41  66  93 125 176 216 269 325 389
#
# _framework density 21.57845
#
# number of rings (size 3 to 8) (size 9 to 14) (size 15 to 20)
#    0.000    1.600    4.000    0.000    4.667    1.600 
#    2.400    0.000    4.400    0.000    0.000    0.000 
#    0.000    0.000    0.000    0.000    0.000    0.000 
#
# Total GULP energy -167030.870597 kJ/mol
# GULP energy per Si atom -5567.695687 kJ/mol
# Density = 2.152934 g / cm^3
# Si number density = 21.578450 Si / 1000 Ang^3
#
#
#
# Elastic Constant Matrix: (Units=GPa)
#
#
# Indices 1 2 3 4 5 6 
#
# 1 82.5527 23.2262 18.1632 0.0000 0.0000 0.0000
# 2 23.2262 83.5726 4.9570 0.0000 0.0000 0.0000
# 3 18.1632 4.9570 70.5126 0.0000 0.0000 0.0000
# 4 0.0000 0.0000 0.0000 32.4275 0.0000 0.0000
# 5 0.0000 0.0000 0.0000 0.0000 58.3596 0.0000
# 6 0.0000 0.0000 0.0000 0.0000 0.0000 9.1338
#
#
#
# Elastic Compliance Matrix: (Units=1/GPa)
#
#
# Indices 1 2 3 4 5 6 
#
# 1 0.013872 -0.003659 -0.003316 0.000000 0.000000 0.000000
# 2 -0.003659 0.012981 0.000030 0.000000 0.000000 0.000000
# 3 -0.003316 0.000030 0.015034 0.000000 0.000000 0.000000
# 4 0.000000 0.000000 0.000000 0.030838 0.000000 0.000000
# 5 0.000000 0.000000 0.000000 0.000000 0.017135 0.000000
# 6 0.000000 0.000000 0.000000 0.000000 0.000000 0.109483
#
#
# Mechanical properties :
#
#
# Convention : Reuss Voigt Hill
#
# Bulk Modulus (GPa) = 35.71788 36.59230 36.15509
# Shear Modulus (GPa) = 22.46523 32.67028 27.56776
#
# Velocity S-wave (km/s) = 3.23010 3.89527 3.57817
# Velocity P-wave (km/s) = 5.52267 6.10126 5.81916
#
# Compressibility (1/GPa) = 0.02799719
#
# Stress axis : x y z
#
# Youngs Moduli (GPa) = 72.08516 77.03751 66.51601
#
# Poissons Ratio (x) = 0.28186 0.22058
# Poissons Ratio (y) = 0.26374 -0.00199
# Poissons Ratio (z) = 0.23905 -0.00230
#
# Static dielectric constant tensor:
#      x y z
#    x 1.856510 0.000000 0.000000 
#    y 0.000000 0.646690 0.000000 
#    z 0.000000 0.000000 1.867570 
# 
# From -- ./inp_files/24426.got.cif
#   From: 2010.05.17/outbox.cif.g08.bks.cpg/sg20_13_cif.got.tgz:24426.got - 2010.06.03 22:52:26.
