data_PCOD9319994
_publ_section_title
;
Structure prediction by ZEFSAII (Michael W. Deem and Ramdas Pophale) SiO2 
 PCOD9319994
Probable space group: C 2 2 21
;
_chemical_formula_sum "Si O2"
_cell_formula_units_Z 28
_cell_length_a 8.619902
_cell_length_b 11.954811
_cell_length_c 12.480081
_cell_angle_alpha 90.000000
_cell_angle_beta 90.000000
_cell_angle_gamma 90.000000
_cell_volume 1286.063602
_symmetry_space_group_name_H-M "C 2 2 21"
_symmetry_group_IT_number 20
_symmetry_cell_setting 'orthorhombic'
loop_
_space_group_symop_operation_xyz
x,y,z
-x,-y,1/2+z
x,-y,-z
-x,y,1/2-z
1/2+x,1/2+y,z
1/2-x,1/2-y,1/2+z
1/2+x,1/2-y,-z
1/2-x,1/2+y,1/2-z
loop_
_atom_site_type_symbol
_atom_site_label
_atom_site_fract_x
_atom_site_fract_y
_atom_site_fract_z
Si Si1 0.717428 0.500000 0.000000
Si Si2 0.211178 0.394240 0.073372
Si Si3 0.160387 0.124156 0.796139
Si Si4 0.888299 0.283675 0.044245
O O1 0.630940 0.466280 0.109299
O O2 0.824871 0.391822 0.979217
O O3 0.249803 0.426427 0.194729
O O4 0.065185 0.309508 0.071169
O O5 0.176497 0.500000 0.000000
O O6 0.354665 0.327150 0.021269
O O7 0.275563 0.212831 0.852034
O O8 0.000000 0.170315 0.750000
#
# Coordination Sequence:
#
# PCOD9319994 Si02
#       4
#     4   8   8   8
#     4   8  22  44  64  98 146 172 232 288 340 416
#     4  12  24  42  72 103 133 185 229 283 354 412
#     4  10  22  41  70 100 139 184 232 285 355 410
#     4  10  23  44  65 100 141 175 232 285 342 417
#
# _framework density 21.771863
#
# number of rings (size 3 to 8) (size 9 to 14) (size 15 to 20)
#    1.714    0.000    1.429    2.571    2.000    2.286 
#    0.000    2.857    0.000    0.000    0.000    0.000 
#    0.000    0.000    0.000    0.000    0.000    0.000 
#
# Total GULP energy -78054.433485 kJ/mol
# GULP energy per Si atom -5575.316677 kJ/mol
# Density = 2.172231 g / cm^3
# Si number density = 21.771863 Si / 1000 Ang^3
#
#
#
# Elastic Constant Matrix: (Units=GPa)
#
#
# Indices 1 2 3 4 5 6 
#
# 1 112.1040 22.3033 51.5223 0.0000 0.0000 0.0000
# 2 22.3033 44.0739 27.8803 0.0000 0.0000 0.0000
# 3 51.5223 27.8803 162.4771 0.0000 0.0000 0.0000
# 4 0.0000 0.0000 0.0000 27.7018 0.0000 0.0000
# 5 0.0000 0.0000 0.0000 0.0000 27.0136 0.0000
# 6 0.0000 0.0000 0.0000 0.0000 0.0000 -0.0966
#
#
#
# Elastic Compliance Matrix: (Units=1/GPa)
#
#
# Indices 1 2 3 4 5 6 
#
# 1 0.010971 -0.003759 -0.002834 0.000000 0.000000 0.000000
# 2 -0.003759 0.026740 -0.003396 0.000000 0.000000 0.000000
# 3 -0.002834 -0.003396 0.007636 0.000000 0.000000 0.000000
# 4 0.000000 0.000000 0.000000 0.036099 0.000000 0.000000
# 5 0.000000 0.000000 0.000000 0.000000 0.037018 0.000000
# 6 0.000000 0.000000 0.000000 0.000000 0.000000-10.353579
#
#
# Mechanical properties :
#
#
# Convention : Reuss Voigt Hill
#
# Bulk Modulus (GPa) = 39.41952 58.00742 48.71347
# Shear Modulus (GPa) = -0.48988 25.38704 12.44858
#
# Velocity S-wave (km/s) = -0.47486 3.41845 2.39377
# Velocity P-wave (km/s) = 4.22426 6.50248 5.48300
#
# Compressibility (1/GPa) = 0.02536814
#
# Stress axis : x y z
#
# Youngs Moduli (GPa) = 91.15333 37.39735 130.95630
#
# Poissons Ratio (x) = 0.14057 0.37110
# Poissons Ratio (y) = 0.34264 0.44479
# Poissons Ratio (z) = 0.25831 0.12702
#
# Static dielectric constant tensor:
#      x y z
#    x 1.822810 0.000000 0.000000 
#    y 0.000000 1.753240 0.000000 
#    z 0.000000 0.000000 1.853630 
# 
# From -- ./inp_files/18120.got.cif
#   From: 2010.05.17/outbox.cif.g08.bks.cpg/sg20_10_cif.got.tgz:18120.got - 2010.06.03 22:52:26.
