data_PCOD9319885
_publ_section_title
;
Structure prediction by ZEFSAII (Michael W. Deem and Ramdas Pophale) SiO2 
 PCOD9319885
Probable space group: C 2 2 21
;
_chemical_formula_sum "Si O2"
_cell_formula_units_Z 56
_cell_length_a 12.440956
_cell_length_b 19.577320
_cell_length_c 8.814922
_cell_angle_alpha 90.000000
_cell_angle_beta 90.000000
_cell_angle_gamma 90.000000
_cell_volume 2146.967486
_symmetry_space_group_name_H-M "C 2 2 21"
_symmetry_group_IT_number 20
_symmetry_cell_setting 'orthorhombic'
loop_
_space_group_symop_operation_xyz
x,y,z
-x,-y,1/2+z
x,-y,-z
-x,y,1/2-z
1/2+x,1/2+y,z
1/2-x,1/2-y,1/2+z
1/2+x,1/2-y,-z
1/2-x,1/2+y,1/2-z
loop_
_atom_site_type_symbol
_atom_site_label
_atom_site_fract_x
_atom_site_fract_y
_atom_site_fract_z
Si Si1 0.000000 0.916690 0.750000
Si Si2 0.531266 0.561205 0.926728
Si Si3 0.043044 0.500000 0.500000
Si Si4 0.663596 0.995960 0.167455
Si Si5 0.228140 0.139814 0.293437
Si Si6 0.398912 0.841681 0.971977
Si Si7 0.894415 0.803898 0.052657
Si Si8 0.775014 0.125200 0.703198
O O1 0.987977 0.971586 0.606210
O O2 0.892080 0.873740 0.734025
O O3 0.500000 0.572929 0.750000
O O4 0.467863 0.631080 0.983604
O O5 0.659490 0.578549 0.916421
O O6 0.100582 0.492445 0.327378
O O7 0.035930 0.588317 0.472479
O O8 0.737188 0.929371 0.169812
O O9 0.733942 0.063321 0.162362
O O10 0.598325 0.000000 0.000000
O O11 0.314339 0.160748 0.168148
O O12 0.206736 0.188946 0.436089
O O13 0.454295 0.767879 0.964934
O O14 0.327813 0.843972 0.123500
O O15 0.846199 0.817283 0.218764
#
# Coordination Sequence:
#
# PCOD9319885 Si02
#       8
#     4   8   4   8   8   8   8   8
#     4  10  22  40  68 110 146 186 240 302 370 444
#     4  11  25  42  72 107 149 192 243 300 374 459
#     4  10  26  52  74 112 142 204 262 312 382 438
#     4  10  23  47  73 106 142 198 246 316 370 451
#     4  11  22  45  72 105 149 193 240 307 387 437
#     4  12  26  47  75 109 148 197 261 316 369 459
#     4  11  26  46  68 110 153 198 240 313 388 449
#     4  12  24  46  75 108 145 198 254 308 381 459
#
# _framework density 26.083300999999999
#
# number of rings (size 3 to 8) (size 9 to 14) (size 15 to 20)
#    0.429    0.571    2.857    3.000    7.000    2.286 
#   10.286    2.857    0.000    0.000    0.000    0.000 
#    0.000    0.000    0.000    0.000    0.000    0.000 
#
# Total GULP energy -156209.305373 kJ/mol
# GULP energy per Si atom -5578.903763 kJ/mol
# Density = 2.602393 g / cm^3
# Si number density = 26.083301 Si / 1000 Ang^3
#
#
#
# Elastic Constant Matrix: (Units=GPa)
#
#
# Indices 1 2 3 4 5 6 
#
# 1 81.0627 22.8457 10.7473 0.0000 0.0000 0.0000
# 2 22.8457 201.3676 10.7115 0.0000 0.0000 0.0000
# 3 10.7473 10.7115 137.4549 0.0000 0.0000 0.0000
# 4 0.0000 0.0000 0.0000 24.3560 0.0000 0.0000
# 5 0.0000 0.0000 0.0000 0.0000 28.1048 0.0000
# 6 0.0000 0.0000 0.0000 0.0000 0.0000 43.8593
#
#
#
# Elastic Compliance Matrix: (Units=1/GPa)
#
#
# Indices 1 2 3 4 5 6 
#
# 1 0.012852 -0.001411 -0.000895 0.000000 0.000000 0.000000
# 2 -0.001411 0.005142 -0.000290 0.000000 0.000000 0.000000
# 3 -0.000895 -0.000290 0.007368 0.000000 0.000000 0.000000
# 4 0.000000 0.000000 0.000000 0.041058 0.000000 0.000000
# 5 0.000000 0.000000 0.000000 0.000000 0.035581 0.000000
# 6 0.000000 0.000000 0.000000 0.000000 0.000000 0.022800
#
#
# Mechanical properties :
#
#
# Convention : Reuss Voigt Hill
#
# Bulk Modulus (GPa) = 49.57911 56.49937 53.03924
# Shear Modulus (GPa) = 36.57232 44.30275 40.43754
#
# Velocity S-wave (km/s) = 3.74857 4.12577 3.94169
# Velocity P-wave (km/s) = 6.14695 6.66364 6.41050
#
# Compressibility (1/GPa) = 0.02016979
#
# Stress axis : x y z
#
# Youngs Moduli (GPa) = 77.80705 194.49518 135.72728
#
# Poissons Ratio (x) = 0.27434 0.12147
# Poissons Ratio (y) = 0.10975 0.03941
# Poissons Ratio (z) = 0.06964 0.05648
#
# Static dielectric constant tensor:
#      x y z
#    x 2.170190 0.000000 0.000000 
#    y 0.000000 2.034550 0.000000 
#    z 0.000000 0.000000 1.957480 
# 
# From -- ./inp_files/10323.got.cif
#   From: 2010.05.17/outbox.cif.g08.bks.cpg/sg20_6_cif.got.tgz:10323.got - 2010.06.03 22:52:26.
