data_PCOD9319023
_publ_section_title
;
Structure prediction by ZEFSAII (Michael W. Deem and Ramdas Pophale) SiO2 
 PCOD9319023
Probable space group: C 2 2 21
;
_chemical_formula_sum "Si O2"
_cell_formula_units_Z 64
_cell_length_a 18.416671
_cell_length_b 12.073864
_cell_length_c 15.164305
_cell_angle_alpha 90.000000
_cell_angle_beta 90.000000
_cell_angle_gamma 90.000000
_cell_volume 3371.940637
_symmetry_space_group_name_H-M "C 2 2 21"
_symmetry_group_IT_number 20
_symmetry_cell_setting 'orthorhombic'
loop_
_space_group_symop_operation_xyz
x,y,z
-x,-y,1/2+z
x,-y,-z
-x,y,1/2-z
1/2+x,1/2+y,z
1/2-x,1/2-y,1/2+z
1/2+x,1/2-y,-z
1/2-x,1/2+y,1/2-z
loop_
_atom_site_type_symbol
_atom_site_label
_atom_site_fract_x
_atom_site_fract_y
_atom_site_fract_z
Si Si1 0.933087 0.679778 0.577661
Si Si2 0.164301 0.887151 0.629513
Si Si3 0.349497 0.825649 0.236763
Si Si4 0.297736 0.362078 0.174806
Si Si5 0.554731 0.758776 0.667564
Si Si6 0.040410 0.514185 0.654432
Si Si7 0.024216 0.876116 0.508440
Si Si8 0.288555 0.132979 0.496574
O O1 0.889564 0.670074 0.669186
O O2 0.870867 0.674403 0.503073
O O3 0.989863 0.578675 0.584837
O O4 0.976634 0.793365 0.567401
O O5 0.141444 0.798124 0.701265
O O6 0.103453 0.887406 0.553330
O O7 0.240350 0.844374 0.588740
O O8 0.174696 0.011629 0.664157
O O9 0.265884 0.854693 0.253696
O O10 0.388170 0.912003 0.171298
O O11 0.364888 0.281916 0.193460
O O12 0.258738 0.331339 0.081696
O O13 0.500000 0.749692 0.750000
O O14 0.531179 0.680697 0.586774
O O15 0.555256 0.886120 0.635037
O O16 0.000000 0.514488 0.750000
O O17 0.993904 0.000000 0.500000
O O18 0.293632 0.000000 0.500000
#
# Coordination Sequence:
#
# PCOD9319023 Si02
#       8
#     8   8   8   8   8   8   8   8
#     4  10  22  39  63  90 123 159 209 264 306 368
#     4  11  20  40  66  85 121 174 209 251 313 387
#     4  10  22  39  64  92 121 164 211 261 308 377
#     4  10  21  39  60  88 122 163 206 253 311 365
#     4  11  24  39  63  92 130 161 209 268 317 368
#     4   9  20  39  59  91 125 155 203 262 317 364
#     4  12  23  41  63  89 127 170 212 249 317 394
#     4   9  19  37  61  85 112 157 211 253 300 367
#
# _framework density 18.980167000000002
#
# number of rings (size 3 to 8) (size 9 to 14) (size 15 to 20)
#    0.000    1.750    3.750    0.375    3.500    2.000 
#    0.000    0.000    0.000    0.000    0.000    0.000 
#    0.000    0.000    0.000    0.000    0.000    0.000 
#
# Total GULP energy -178593.187574 kJ/mol
# GULP energy per Si atom -5581.037112 kJ/mol
# Density = 1.893697 g / cm^3
# Si number density = 18.980167 Si / 1000 Ang^3
#
#
#
# Elastic Constant Matrix: (Units=GPa)
#
#
# Indices 1 2 3 4 5 6 
#
# 1 128.3835 63.8073 24.4744 0.0000 0.0000 0.0000
# 2 63.8073 129.2849 24.3574 0.0000 0.0000 0.0000
# 3 24.4744 24.3574 23.9742 0.0000 0.0000 0.0000
# 4 0.0000 0.0000 0.0000 30.0154 0.0000 0.0000
# 5 0.0000 0.0000 0.0000 0.0000 7.3805 0.0000
# 6 0.0000 0.0000 0.0000 0.0000 0.0000 27.8747
#
#
#
# Elastic Compliance Matrix: (Units=1/GPa)
#
#
# Indices 1 2 3 4 5 6 
#
# 1 0.011250 -0.004191 -0.007227 0.000000 0.000000 0.000000
# 2 -0.004191 0.011127 -0.007027 0.000000 0.000000 0.000000
# 3 -0.007227 -0.007027 0.056228 0.000000 0.000000 0.000000
# 4 0.000000 0.000000 0.000000 0.033316 0.000000 0.000000
# 5 0.000000 0.000000 0.000000 0.000000 0.135492 0.000000
# 6 0.000000 0.000000 0.000000 0.000000 0.000000 0.035875
#
#
# Mechanical properties :
#
#
# Convention : Reuss Voigt Hill
#
# Bulk Modulus (GPa) = 23.97140 56.32453 40.14797
# Shear Modulus (GPa) = 14.96641 24.32102 19.64371
#
# Velocity S-wave (km/s) = 2.81112 3.58354 3.22057
# Velocity P-wave (km/s) = 4.81598 6.84560 5.91844
#
# Compressibility (1/GPa) = 0.04171638
#
# Stress axis : x y z
#
# Youngs Moduli (GPa) = 88.89216 89.87217 17.78475
#
# Poissons Ratio (x) = 0.37662 0.12853
# Poissons Ratio (y) = 0.37251 0.12497
# Poissons Ratio (z) = 0.64240 0.63150
#
# Static dielectric constant tensor:
#      x y z
#    x 1.684240 0.000000 0.000000 
#    y 0.000000 1.624770 0.000000 
#    z 0.000000 0.000000 1.678470 
# 
# From -- ./inp_files/21494.got.cif
#   From: 2010.05.17/outbox.cif.g08.bks.cpg/sg20_11_cif.got.tgz:21494.got - 2010.06.03 22:52:26.
