data_PCOD9319480
_publ_section_title
;
Structure prediction by ZEFSAII (Michael W. Deem and Ramdas Pophale) SiO2 
 PCOD9319480
Probable space group: C 2 2 21
;
_chemical_formula_sum "Si O2"
_cell_formula_units_Z 48
_cell_length_a 7.995614
_cell_length_b 26.930320
_cell_length_c 9.581662
_cell_angle_alpha 90.000000
_cell_angle_beta 90.000000
_cell_angle_gamma 90.000000
_cell_volume 2063.166039
_symmetry_space_group_name_H-M "C 2 2 21"
_symmetry_group_IT_number 20
_symmetry_cell_setting 'orthorhombic'
loop_
_space_group_symop_operation_xyz
x,y,z
-x,-y,1/2+z
x,-y,-z
-x,y,1/2-z
1/2+x,1/2+y,z
1/2-x,1/2-y,1/2+z
1/2+x,1/2-y,-z
1/2-x,1/2+y,1/2-z
loop_
_atom_site_type_symbol
_atom_site_label
_atom_site_fract_x
_atom_site_fract_y
_atom_site_fract_z
Si Si1 0.327172 0.931106 0.332800
Si Si2 0.867648 0.952827 0.430249
Si Si3 0.026173 0.428733 0.590125
Si Si4 0.056719 0.774718 0.908091
Si Si5 0.061188 0.689950 0.403902
Si Si6 0.420790 0.352626 0.108813
O O1 0.500000 0.930783 0.250000
O O2 0.196647 0.958768 0.230038
O O3 0.376835 0.946211 0.488995
O O4 0.255453 0.875479 0.347888
O O5 0.701849 0.946075 0.525574
O O6 0.973597 0.902155 0.433070
O O7 0.956664 0.000000 0.500000
O O8 0.032943 0.368868 0.583542
O O9 0.000000 0.444544 0.750000
O O10 0.243113 0.796757 0.919244
O O11 0.000000 0.770459 0.750000
O O12 0.038546 0.722370 0.984597
O O13 0.934776 0.813210 0.987612
O O14 0.000000 0.704593 0.250000
O O15 0.500000 0.330858 0.250000
#
# Coordination Sequence:
#
# PCOD9319480 Si02
#       6
#     8   8   8   8   8   8
#     4   9  21  40  66  95 128 175 219 272 333 402
#     4  10  21  43  66  94 133 174 226 280 332 402
#     4  10  22  40  66  96 138 174 221 278 338 403
#     4  12  26  42  68  98 135 180 227 283 342 406
#     4  11  25  45  64  99 140 177 228 278 340 412
#     4  10  22  42  65  96 135 176 224 275 340 407
#
# _framework density 23.265214
#
# number of rings (size 3 to 8) (size 9 to 14) (size 15 to 20)
#    0.000    1.667    1.667    1.500    7.000    4.000 
#    0.000   10.833    0.000    0.000    0.000    0.000 
#    0.000    0.000    0.000    0.000    0.000    0.000 
#
# Total GULP energy -134313.401982 kJ/mol
# GULP energy per Si atom -5596.391749 kJ/mol
# Density = 2.321226 g / cm^3
# Si number density = 23.265214 Si / 1000 Ang^3
#
#
#
# Elastic Constant Matrix: (Units=GPa)
#
#
# Indices 1 2 3 4 5 6 
#
# 1 57.6319 16.1936 14.7873 0.0000 0.0000 0.0000
# 2 16.1936 125.6191 58.1155 0.0000 0.0000 0.0000
# 3 14.7873 58.1155 186.5024 0.0000 0.0000 0.0000
# 4 0.0000 0.0000 0.0000 32.5840 0.0000 0.0000
# 5 0.0000 0.0000 0.0000 0.0000 24.6786 0.0000
# 6 0.0000 0.0000 0.0000 0.0000 0.0000 -46.2356
#
#
#
# Elastic Compliance Matrix: (Units=1/GPa)
#
#
# Indices 1 2 3 4 5 6 
#
# 1 0.018112 -0.001952 -0.000828 0.000000 0.000000 0.000000
# 2 -0.001952 0.009512 -0.002809 0.000000 0.000000 0.000000
# 3 -0.000828 -0.002809 0.006303 0.000000 0.000000 0.000000
# 4 0.000000 0.000000 0.000000 0.030690 0.000000 0.000000
# 5 0.000000 0.000000 0.000000 0.000000 0.040521 0.000000
# 6 0.000000 0.000000 0.000000 0.000000 0.000000 -0.021628
#
#
# Mechanical properties :
#
#
# Convention : Reuss Voigt Hill
#
# Bulk Modulus (GPa) = 43.95760 60.88288 52.42024
# Shear Modulus (GPa) = 48.88998 20.91586 34.90292
#
# Velocity S-wave (km/s) = 4.58910 3.00162 3.87747
# Velocity P-wave (km/s) = 6.85674 6.18375 6.52892
#
# Compressibility (1/GPa) = 0.02274919
#
# Stress axis : x y z
#
# Youngs Moduli (GPa) = 55.21091 105.13245 158.65803
#
# Poissons Ratio (x) = 0.20520 0.13135
# Poissons Ratio (y) = 0.10776 0.44570
# Poissons Ratio (z) = 0.04571 0.29534
#
# Static dielectric constant tensor:
#      x y z
#    x 1.923140 0.000000 0.000000 
#    y 0.000000 1.859770 0.000000 
#    z 0.000000 0.000000 2.744770 
# 
# From -- ./inp_files/6552.got.cif
#   From: 2010.05.17/outbox.cif.g08.bks.cpg/sg20_4_cif.got.tgz:6552.got - 2010.06.03 22:52:26.
