data_PCOD9319715
_publ_section_title
;
Structure prediction by ZEFSAII (Michael W. Deem and Ramdas Pophale) SiO2 
 PCOD9319715
Probable space group: C 2 2 21
;
_chemical_formula_sum "Si O2"
_cell_formula_units_Z 20
_cell_length_a 21.997753
_cell_length_b 4.697375
_cell_length_c 7.127905
_cell_angle_alpha 90.000000
_cell_angle_beta 90.000000
_cell_angle_gamma 90.000000
_cell_volume 736.538505
_symmetry_space_group_name_H-M "C 2 2 21"
_symmetry_group_IT_number 20
_symmetry_cell_setting 'orthorhombic'
loop_
_space_group_symop_operation_xyz
x,y,z
-x,-y,1/2+z
x,-y,-z
-x,y,1/2-z
1/2+x,1/2+y,z
1/2-x,1/2-y,1/2+z
1/2+x,1/2-y,-z
1/2-x,1/2+y,1/2-z
loop_
_atom_site_type_symbol
_atom_site_label
_atom_site_fract_x
_atom_site_fract_y
_atom_site_fract_z
Si Si1 0.500000 0.367853 0.750000
Si Si2 0.709489 0.385274 0.205927
Si Si3 0.588306 0.884343 0.790822
O O1 0.546197 0.609926 0.823896
O O2 0.550668 0.133812 0.684398
O O3 0.737221 0.653712 0.312059
O O4 0.651128 0.229158 0.292450
O O5 0.692436 0.500000 0.000000
O O6 0.601010 0.000000 0.000000
#
# Coordination Sequence:
#
# PCOD9319715 Si02
#       3
#     4   8   8
#     4  10  22  38  66  98 120 164 232 274 326 418
#     4  12  25  45  73 105 142 188 237 286 348 418
#     4  11  22  43  68  94 134 182 224 282 359 416
#
# _framework density 27.154045
#
# number of rings (size 3 to 8) (size 9 to 14) (size 15 to 20)
#    0.000    0.800    0.000    9.600    0.000    0.000 
#    0.000   30.000    0.000    0.000    0.000    0.000 
#    0.000    0.000    0.000    0.000    0.000    0.000 
#
# Total GULP energy -55800.617650 kJ/mol
# GULP energy per Si atom -5580.061765 kJ/mol
# Density = 2.709224 g / cm^3
# Si number density = 27.154045 Si / 1000 Ang^3
#
#
#
# Elastic Constant Matrix: (Units=GPa)
#
#
# Indices 1 2 3 4 5 6 
#
# 1 173.3425 85.2439 4.1514 0.0000 0.0000 0.0000
# 2 85.2439 250.0926 24.9598 0.0000 0.0000 0.0000
# 3 4.1514 24.9598 24.1744 0.0000 0.0000 0.0000
# 4 0.0000 0.0000 0.0000 41.6009 0.0000 0.0000
# 5 0.0000 0.0000 0.0000 0.0000 58.7622 0.0000
# 6 0.0000 0.0000 0.0000 0.0000 0.0000 118.7854
#
#
#
# Elastic Compliance Matrix: (Units=1/GPa)
#
#
# Indices 1 2 3 4 5 6 
#
# 1 0.006973 -0.002517 0.001401 0.000000 0.000000 0.000000
# 2 -0.002517 0.005366 -0.005108 0.000000 0.000000 0.000000
# 3 0.001401 -0.005108 0.046400 0.000000 0.000000 0.000000
# 4 0.000000 0.000000 0.000000 0.024038 0.000000 0.000000
# 5 0.000000 0.000000 0.000000 0.000000 0.017018 0.000000
# 6 0.000000 0.000000 0.000000 0.000000 0.000000 0.008419
#
#
# Mechanical properties :
#
#
# Convention : Reuss Voigt Hill
#
# Bulk Modulus (GPa) = 21.60257 75.14664 48.37460
# Shear Modulus (GPa) = 36.74010 66.04666 51.39338
#
# Velocity S-wave (km/s) = 3.68234 4.93718 4.35519
# Velocity P-wave (km/s) = 5.10415 7.76114 6.56839
#
# Compressibility (1/GPa) = 0.04629080
#
# Stress axis : x y z
#
# Youngs Moduli (GPa) = 143.41208 186.35541 21.55187
#
# Poissons Ratio (x) = 0.46897 -0.03019
# Poissons Ratio (y) = 0.36090 0.11009
# Poissons Ratio (z) = -0.20090 0.95195
#
# Static dielectric constant tensor:
#      x y z
#    x 2.065200 0.000000 0.000000 
#    y 0.000000 1.947210 0.000000 
#    z 0.000000 0.000000 0.306910 
# 
# From -- ./inp_files/10418.got.cif
#   From: 2010.05.17/outbox.cif.g08.bks.cpg/sg20_6_cif.got.tgz:10418.got - 2010.06.03 22:52:26.
