data_PCOD9319379
_publ_section_title
;
Structure prediction by ZEFSAII (Michael W. Deem and Ramdas Pophale) SiO2 
 PCOD9319379
Probable space group: C 2 2 21
;
_chemical_formula_sum "Si O2"
_cell_formula_units_Z 48
_cell_length_a 12.544005
_cell_length_b 7.360486
_cell_length_c 21.886921
_cell_angle_alpha 90.000000
_cell_angle_beta 90.000000
_cell_angle_gamma 90.000000
_cell_volume 2020.818829
_symmetry_space_group_name_H-M "C 2 2 21"
_symmetry_group_IT_number 20
_symmetry_cell_setting 'orthorhombic'
loop_
_space_group_symop_operation_xyz
x,y,z
-x,-y,1/2+z
x,-y,-z
-x,y,1/2-z
1/2+x,1/2+y,z
1/2-x,1/2-y,1/2+z
1/2+x,1/2-y,-z
1/2-x,1/2+y,1/2-z
loop_
_atom_site_type_symbol
_atom_site_label
_atom_site_fract_x
_atom_site_fract_y
_atom_site_fract_z
Si Si1 0.220326 0.244142 0.145769
Si Si2 0.966773 0.756434 0.560103
Si Si3 0.807585 0.888432 0.889307
Si Si4 0.077296 0.318792 0.926431
Si Si5 0.445891 0.875066 0.812755
Si Si6 0.103007 0.241366 0.269241
O O1 0.127606 0.162064 0.102775
O O2 0.275670 0.401329 0.105612
O O3 0.320973 0.138200 0.172189
O O4 0.163558 0.306240 0.208715
O O5 0.954105 0.783596 0.487776
O O6 0.949829 0.536384 0.566991
O O7 0.082817 0.825614 0.580260
O O8 0.702569 0.790947 0.914726
O O9 0.820541 0.855616 0.816791
O O10 0.009688 0.276436 0.866430
O O11 0.500000 0.810129 0.750000
O O12 0.451397 0.093570 0.806484
O O13 0.000000 0.123667 0.250000
#
# Coordination Sequence:
#
# PCOD9319379 Si02
#       6
#     8   8   8   8   8   8
#     4  11  23  38  62  97 128 162 207 268 317 373
#     4  10  21  42  63  91 123 170 212 253 317 384
#     4  11  21  41  66  90 121 168 211 258 318 375
#     4  10  22  40  66  89 123 170 210 255 319 379
#     4  11  22  41  62  90 130 163 208 265 320 375
#     4  11  19  39  65  90 122 165 213 252 316 381
#
# _framework density 23.752748
#
# number of rings (size 3 to 8) (size 9 to 14) (size 15 to 20)
#    0.000    1.333    3.333    5.000    2.333    0.667 
#    6.000    0.000    0.000    0.000    0.000    0.000 
#    0.000    0.000    0.000    0.000    0.000    0.000 
#
# Total GULP energy -133954.777967 kJ/mol
# GULP energy per Si atom -5581.449082 kJ/mol
# Density = 2.369869 g / cm^3
# Si number density = 23.752748 Si / 1000 Ang^3
#
#
#
# Elastic Constant Matrix: (Units=GPa)
#
#
# Indices 1 2 3 4 5 6 
#
# 1 205.7703 19.8364 75.0850 0.0000 0.0000 0.0000
# 2 19.8364 26.8174 -7.9551 0.0000 0.0000 0.0000
# 3 75.0850 -7.9551 163.1474 0.0000 0.0000 0.0000
# 4 0.0000 0.0000 0.0000 35.3118 0.0000 0.0000
# 5 0.0000 0.0000 0.0000 0.0000 42.8335 0.0000
# 6 0.0000 0.0000 0.0000 0.0000 0.0000 40.2201
#
#
#
# Elastic Compliance Matrix: (Units=1/GPa)
#
#
# Indices 1 2 3 4 5 6 
#
# 1 0.006652 -0.005914 -0.003350 0.000000 0.000000 0.000000
# 2 -0.005914 0.043095 0.004823 0.000000 0.000000 0.000000
# 3 -0.003350 0.004823 0.007906 0.000000 0.000000 0.000000
# 4 0.000000 0.000000 0.000000 0.028319 0.000000 0.000000
# 5 0.000000 0.000000 0.000000 0.000000 0.023346 0.000000
# 6 0.000000 0.000000 0.000000 0.000000 0.000000 0.024863
#
#
# Mechanical properties :
#
#
# Convention : Reuss Voigt Hill
#
# Bulk Modulus (GPa) = 20.50384 63.29642 41.90013
# Shear Modulus (GPa) = 31.38311 44.25765 37.82038
#
# Velocity S-wave (km/s) = 3.63883 4.32124 3.99463
# Velocity P-wave (km/s) = 5.12891 7.18355 6.24136
#
# Compressibility (1/GPa) = 0.04877135
#
# Stress axis : x y z
#
# Youngs Moduli (GPa) = 150.32306 23.20465 126.48034
#
# Poissons Ratio (x) = 0.13724 0.42371
# Poissons Ratio (y) = 0.88907 -0.61005
# Poissons Ratio (z) = 0.50358 -0.11192
#
# Static dielectric constant tensor:
#      x y z
#    x 2.054470 0.000000 0.000000 
#    y 0.000000 1.990420 0.000000 
#    z 0.000000 0.000000 1.894840 
# 
# From -- ./inp_files/29078.got.cif
#   From: 2010.05.17/outbox.cif.g08.bks.cpg/sg20_15_cif.got.tgz:29078.got - 2010.06.03 22:52:26.
