data_PCOD9319150
_publ_section_title
;
Structure prediction by ZEFSAII (Michael W. Deem and Ramdas Pophale) SiO2 
 PCOD9319150
Probable space group: C 2 2 21
;
_chemical_formula_sum "Si O2"
_cell_formula_units_Z 52
_cell_length_a 10.772317
_cell_length_b 17.891145
_cell_length_c 14.674535
_cell_angle_alpha 90.000000
_cell_angle_beta 90.000000
_cell_angle_gamma 90.000000
_cell_volume 2828.209710
_symmetry_space_group_name_H-M "C 2 2 21"
_symmetry_group_IT_number 20
_symmetry_cell_setting 'orthorhombic'
loop_
_space_group_symop_operation_xyz
x,y,z
-x,-y,1/2+z
x,-y,-z
-x,y,1/2-z
1/2+x,1/2+y,z
1/2-x,1/2-y,1/2+z
1/2+x,1/2-y,-z
1/2-x,1/2+y,1/2-z
loop_
_atom_site_type_symbol
_atom_site_label
_atom_site_fract_x
_atom_site_fract_y
_atom_site_fract_z
Si Si1 0.000000 0.066118 0.250000
Si Si2 0.000000 0.778112 0.250000
Si Si3 0.423636 0.821332 0.074079
Si Si4 0.260746 0.992906 0.788135
Si Si5 0.649807 0.162043 0.375139
Si Si6 0.500000 0.083989 0.750000
Si Si7 0.928466 0.169315 0.419033
Si Si8 0.158860 0.870675 0.108378
O O1 0.976046 0.116815 0.338441
O O2 0.869623 0.022385 0.236541
O O3 0.078085 0.722291 0.314575
O O4 0.081434 0.833319 0.188416
O O5 0.482958 0.868237 0.157202
O O6 0.486538 0.741194 0.071804
O O7 0.278097 0.817499 0.096670
O O8 0.422594 0.852785 0.970385
O O9 0.374065 0.035650 0.739757
O O10 0.214932 0.048395 0.868349
O O11 0.319621 0.915923 0.824877
O O12 0.787328 0.193270 0.396352
O O13 0.918078 0.127563 0.515445
#
# Coordination Sequence:
#
# PCOD9319150 Si02
#       8
#     4   4   8   8   8   4   8   8
#     4  10  22  36  66  84 132 158 212 252 319 375
#     4  12  22  40  62 100 124 162 208 278 294 378
#     4  10  21  40  60  93 115 167 203 263 305 377
#     4  10  22  43  60  97 120 180 202 261 314 387
#     4  10  23  38  65  86 131 160 210 252 325 369
#     4  10  22  36  66  84 132 158 212 252 319 375
#     4  10  21  40  60  93 115 167 203 263 305 377
#     4  10  23  38  65  86 131 160 210 252 325 369
#
# _framework density 18.386188000000001
#
# number of rings (size 3 to 8) (size 9 to 14) (size 15 to 20)
#    0.000    1.846    1.538    1.385    8.615    9.846 
#    0.000    0.000    0.000   11.077    0.000    0.000 
#    0.000    0.000    0.000    0.000    0.000    0.000 
#
# Total GULP energy -144919.494353 kJ/mol
# GULP energy per Si atom -5573.826706 kJ/mol
# Density = 1.834434 g / cm^3
# Si number density = 18.386188 Si / 1000 Ang^3
#
#
#
# Elastic Constant Matrix: (Units=GPa)
#
#
# Indices 1 2 3 4 5 6 
#
# 1 66.7042 9.9211 32.6892 0.0000 0.0000 0.0000
# 2 9.9211 31.8234 3.8851 0.0000 0.0000 0.0000
# 3 32.6892 3.8851 98.9912 0.0000 0.0000 0.0000
# 4 0.0000 0.0000 0.0000 0.6207 0.0000 0.0000
# 5 0.0000 0.0000 0.0000 0.0000 37.9978 0.0000
# 6 0.0000 0.0000 0.0000 0.0000 0.0000 -266.9501
#
#
#
# Elastic Compliance Matrix: (Units=1/GPa)
#
#
# Indices 1 2 3 4 5 6 
#
# 1 0.018673 -0.005093 -0.005966 0.000000 0.000000 0.000000
# 2 -0.005093 0.032964 0.000388 0.000000 0.000000 0.000000
# 3 -0.005966 0.000388 0.012057 0.000000 0.000000 0.000000
# 4 0.000000 0.000000 0.000000 1.611154 0.000000 0.000000
# 5 0.000000 0.000000 0.000000 0.000000 0.026317 0.000000
# 6 0.000000 0.000000 0.000000 0.000000 0.000000 -0.003746
#
#
# Mechanical properties :
#
#
# Convention : Reuss Voigt Hill
#
# Bulk Modulus (GPa) = 23.61212 32.27884 27.94548
# Shear Modulus (GPa) = 2.88537 -35.59810 -16.35636
#
# Velocity S-wave (km/s) = 1.25408 -4.40492 -2.98585
# Velocity P-wave (km/s) = 3.86874 2.87698 1.82896
#
# Compressibility (1/GPa) = 0.04235113
#
# Stress axis : x y z
#
# Youngs Moduli (GPa) = 53.55347 30.33636 82.93997
#
# Poissons Ratio (x) = 0.15450 0.49485
# Poissons Ratio (y) = 0.27275 -0.03219
# Poissons Ratio (z) = 0.31952 -0.01177
#
# Static dielectric constant tensor:
#      x y z
#    x 1.633180 0.000000 0.000000 
#    y 0.000000 1.622930 0.000000 
#    z 0.000000 0.000000 1.661150 
# 
# From -- ./inp_files/20213.got.cif
#   From: 2010.05.17/outbox.cif.g08.bks.cpg/sg20_11_cif.got.tgz:20213.got - 2010.06.03 22:52:26.
