data_PCOD9319899
_publ_section_title
;
Structure prediction by ZEFSAII (Michael W. Deem and Ramdas Pophale) SiO2 
 PCOD9319899
Probable space group: C 2 2 21
;
_chemical_formula_sum "Si O2"
_cell_formula_units_Z 32
_cell_length_a 15.683994
_cell_length_b 4.891784
_cell_length_c 15.250682
_cell_angle_alpha 90.000000
_cell_angle_beta 90.000000
_cell_angle_gamma 90.000000
_cell_volume 1170.073666
_symmetry_space_group_name_H-M "C 2 2 21"
_symmetry_group_IT_number 20
_symmetry_cell_setting 'orthorhombic'
loop_
_space_group_symop_operation_xyz
x,y,z
-x,-y,1/2+z
x,-y,-z
-x,y,1/2-z
1/2+x,1/2+y,z
1/2-x,1/2-y,1/2+z
1/2+x,1/2-y,-z
1/2-x,1/2+y,1/2-z
loop_
_atom_site_type_symbol
_atom_site_label
_atom_site_fract_x
_atom_site_fract_y
_atom_site_fract_z
Si Si1 0.500000 0.808115 0.250000
Si Si2 0.406534 0.849124 0.414652
Si Si3 0.753235 0.515177 0.894946
Si Si4 0.347503 0.460858 0.163353
Si Si5 0.950680 0.000000 0.000000
O O1 0.449399 0.976399 0.326407
O O2 0.423359 0.612475 0.214772
O O3 0.342451 0.603242 0.390471
O O4 0.489695 0.721110 0.457538
O O5 0.366199 0.000000 0.500000
O O6 0.775644 0.818939 0.864125
O O7 0.800430 0.324841 0.821263
O O8 0.773579 0.500000 0.000000
O O9 0.393891 0.373625 0.074028
#
# Coordination Sequence:
#
# PCOD9319899 Si02
#       5
#     4   8   8   8   4
#     4  10  28  50  72 120 158 216 264 338 394 480
#     4  11  25  47  76 112 160 211 266 331 399 477
#     4  12  23  45  76 112 149 203 261 322 396 469
#     4  11  25  44  73 107 154 199 256 319 390 470
#     4  10  22  40  70 104 146 192 256 308 396 454
#
# _framework density 27.348704000000001
#
# number of rings (size 3 to 8) (size 9 to 14) (size 15 to 20)
#    0.000    1.000    3.750    1.500    7.000    3.000 
#    4.500    0.000    0.000    0.000    0.000    0.000 
#    0.000    0.000    0.000    0.000    0.000    0.000 
#
# Total GULP energy -89296.689560 kJ/mol
# GULP energy per Si atom -5581.043098 kJ/mol
# Density = 2.728646 g / cm^3
# Si number density = 27.348704 Si / 1000 Ang^3
#
#
#
# Elastic Constant Matrix: (Units=GPa)
#
#
# Indices 1 2 3 4 5 6 
#
# 1 116.1717 38.3680 72.7978 0.0000 0.0000 0.0000
# 2 38.3680 91.8164 1.7593 0.0000 0.0000 0.0000
# 3 72.7978 1.7593 117.8001 0.0000 0.0000 0.0000
# 4 0.0000 0.0000 0.0000 28.5545 0.0000 0.0000
# 5 0.0000 0.0000 0.0000 0.0000 83.9415 0.0000
# 6 0.0000 0.0000 0.0000 0.0000 0.0000 -13.4799
#
#
#
# Elastic Compliance Matrix: (Units=1/GPa)
#
#
# Indices 1 2 3 4 5 6 
#
# 1 0.017844 -0.007247 -0.010919 0.000000 0.000000 0.000000
# 2 -0.007247 0.013838 0.004272 0.000000 0.000000 0.000000
# 3 -0.010919 0.004272 0.015173 0.000000 0.000000 0.000000
# 4 0.000000 0.000000 0.000000 0.035021 0.000000 0.000000
# 5 0.000000 0.000000 0.000000 0.000000 0.011913 0.000000
# 6 0.000000 0.000000 0.000000 0.000000 0.000000 -0.074185
#
#
# Mechanical properties :
#
#
# Convention : Reuss Voigt Hill
#
# Bulk Modulus (GPa) = 52.44877 61.29314 56.87095
# Shear Modulus (GPa) = 93.02916 33.99409 63.51163
#
# Velocity S-wave (km/s) = 5.83865 3.52943 4.82424
# Velocity P-wave (km/s) = 8.04192 6.25056 7.20215
#
# Compressibility (1/GPa) = 0.01906622
#
# Stress axis : x y z
#
# Youngs Moduli (GPa) = 56.04260 72.26536 65.90801
#
# Poissons Ratio (x) = 0.52372 0.71963
# Poissons Ratio (y) = 0.40615 -0.28156
# Poissons Ratio (z) = 0.61191 -0.30871
#
# Static dielectric constant tensor:
#      x y z
#    x 2.073370 0.000000 0.000000 
#    y 0.000000 2.259340 0.000000 
#    z 0.000000 0.000000 2.280290 
# 
# From -- ./inp_files/17469.got.cif
#   From: 2010.05.17/outbox.cif.g08.bks.cpg/sg20_9_cif.got.tgz:17469.got - 2010.06.03 22:52:26.
