data_PCOD9319445
_publ_section_title
;
Structure prediction by ZEFSAII (Michael W. Deem and Ramdas Pophale) SiO2 
 PCOD9319445
Probable space group: C 2 2 21
;
_chemical_formula_sum "Si O2"
_cell_formula_units_Z 48
_cell_length_a 9.228610
_cell_length_b 25.869403
_cell_length_c 8.928963
_cell_angle_alpha 90.000000
_cell_angle_beta 90.000000
_cell_angle_gamma 90.000000
_cell_volume 2131.688405
_symmetry_space_group_name_H-M "C 2 2 21"
_symmetry_group_IT_number 20
_symmetry_cell_setting 'orthorhombic'
loop_
_space_group_symop_operation_xyz
x,y,z
-x,-y,1/2+z
x,-y,-z
-x,y,1/2-z
1/2+x,1/2+y,z
1/2-x,1/2-y,1/2+z
1/2+x,1/2-y,-z
1/2-x,1/2+y,1/2-z
loop_
_atom_site_type_symbol
_atom_site_label
_atom_site_fract_x
_atom_site_fract_y
_atom_site_fract_z
Si Si1 0.368406 0.782679 0.141489
Si Si2 0.232793 0.877155 0.332162
Si Si3 0.074566 0.746421 0.092966
Si Si4 0.984074 0.149126 0.426966
Si Si5 0.530470 0.950647 0.077879
Si Si6 0.799060 0.942224 0.456355
O O1 0.500000 0.768884 0.250000
O O2 0.287339 0.830211 0.225286
O O3 0.246795 0.738002 0.117299
O O4 0.460424 0.791587 0.989239
O O5 0.370482 0.900680 0.417327
O O6 0.182390 0.922383 0.216194
O O7 0.116815 0.861860 0.457103
O O8 0.000000 0.758382 0.250000
O O9 0.079988 0.797928 0.992388
O O10 0.879884 0.100498 0.449171
O O11 0.000000 0.153875 0.250000
O O12 0.500000 0.964910 0.250000
O O13 0.372830 0.940473 0.010143
O O14 0.601105 0.000000 0.000000
O O15 0.847811 0.000000 0.500000
#
# Coordination Sequence:
#
# PCOD9319445 Si02
#       6
#     8   8   8   8   8   8
#     4  12  25  47  78 109 148 196 250 318 407 467
#     4  11  23  45  73 105 151 197 250 317 395 467
#     4  12  25  48  76 107 147 193 254 325 390 478
#     4  12  26  44  68 105 150 192 250 318 380 471
#     4   9  20  38  69 102 142 190 243 305 369 463
#     4  10  21  42  70 102 142 195 247 311 388 458
#
# _framework density 22.517363
#
# number of rings (size 3 to 8) (size 9 to 14) (size 15 to 20)
#    0.000    1.000    3.333    3.500    0.000    6.000 
#    0.000    0.000    0.000    3.000    0.000    0.000 
#    0.000    0.000    0.000    0.000    0.000    0.000 
#
# Total GULP energy -133973.212836 kJ/mol
# GULP energy per Si atom -5582.217202 kJ/mol
# Density = 2.246611 g / cm^3
# Si number density = 22.517363 Si / 1000 Ang^3
#
#
#
# Elastic Constant Matrix: (Units=GPa)
#
#
# Indices 1 2 3 4 5 6 
#
# 1 104.4930 34.4369 58.6022 0.0000 0.0000 0.0000
# 2 34.4369 107.1048 47.5619 0.0000 0.0000 0.0000
# 3 58.6022 47.5619 120.3514 0.0000 0.0000 0.0000
# 4 0.0000 0.0000 0.0000 29.0963 0.0000 0.0000
# 5 0.0000 0.0000 0.0000 0.0000 26.7438 0.0000
# 6 0.0000 0.0000 0.0000 0.0000 0.0000 12.0645
#
#
#
# Elastic Compliance Matrix: (Units=1/GPa)
#
#
# Indices 1 2 3 4 5 6 
#
# 1 0.013420 -0.001714 -0.005857 0.000000 0.000000 0.000000
# 2 -0.001714 0.011543 -0.003727 0.000000 0.000000 0.000000
# 3 -0.005857 -0.003727 0.012634 0.000000 0.000000 0.000000
# 4 0.000000 0.000000 0.000000 0.034369 0.000000 0.000000
# 5 0.000000 0.000000 0.000000 0.000000 0.037392 0.000000
# 6 0.000000 0.000000 0.000000 0.000000 0.000000 0.082888
#
#
# Mechanical properties :
#
#
# Convention : Reuss Voigt Hill
#
# Bulk Modulus (GPa) = 66.66536 68.12789 67.39662
# Shear Modulus (GPa) = 22.74378 26.33748 24.54063
#
# Velocity S-wave (km/s) = 3.18158 3.42373 3.30487
# Velocity P-wave (km/s) = 6.57017 6.77869 6.67524
#
# Compressibility (1/GPa) = 0.01500029
#
# Stress axis : x y z
#
# Youngs Moduli (GPa) = 74.51780 86.63425 79.15219
#
# Poissons Ratio (x) = 0.14847 0.46360
# Poissons Ratio (y) = 0.12771 0.29501
# Poissons Ratio (z) = 0.43646 0.32290
#
# Static dielectric constant tensor:
#      x y z
#    x 1.950090 0.000000 0.000000 
#    y 0.000000 1.839320 0.000000 
#    z 0.000000 0.000000 1.915600 
# 
# From -- ./inp_files/6472.got.cif
#   From: 2010.05.17/outbox.cif.g08.bks.cpg/sg20_4_cif.got.tgz:6472.got - 2010.06.03 22:52:26.
