data_PCOD9319651
_publ_section_title
;
Structure prediction by ZEFSAII (Michael W. Deem and Ramdas Pophale) SiO2 
 PCOD9319651
Probable space group: C 2 2 21
;
_chemical_formula_sum "Si O2"
_cell_formula_units_Z 60
_cell_length_a 14.077060
_cell_length_b 19.323316
_cell_length_c 11.254677
_cell_angle_alpha 90.000000
_cell_angle_beta 90.000000
_cell_angle_gamma 90.000000
_cell_volume 3061.446352
_symmetry_space_group_name_H-M "C 2 2 21"
_symmetry_group_IT_number 20
_symmetry_cell_setting 'orthorhombic'
loop_
_space_group_symop_operation_xyz
x,y,z
-x,-y,1/2+z
x,-y,-z
-x,y,1/2-z
1/2+x,1/2+y,z
1/2-x,1/2-y,1/2+z
1/2+x,1/2-y,-z
1/2-x,1/2+y,1/2-z
loop_
_atom_site_type_symbol
_atom_site_label
_atom_site_fract_x
_atom_site_fract_y
_atom_site_fract_z
Si Si1 0.038807 0.307100 0.886396
Si Si2 0.357874 0.638361 0.162607
Si Si3 0.000000 0.040065 0.750000
Si Si4 0.827431 0.172320 0.572566
Si Si5 0.943983 0.911997 0.597997
Si Si6 0.852554 0.739248 0.007088
Si Si7 0.824350 0.866664 0.172100
Si Si8 0.188236 0.421958 0.967262
O O1 0.102324 0.237469 0.904054
O O2 0.000000 0.312246 0.750000
O O3 0.949609 0.301721 0.976065
O O4 0.103889 0.371800 0.925514
O O5 0.447567 0.612191 0.085811
O O6 0.393937 0.632066 0.296254
O O7 0.340518 0.715154 0.113148
O O8 0.269123 0.588770 0.134703
O O9 0.083467 0.085218 0.692024
O O10 0.046221 0.988315 0.847762
O O11 0.886555 0.109636 0.516637
O O12 0.741889 0.194097 0.487115
O O13 0.785364 0.148444 0.697556
O O14 0.855031 0.794642 0.113215
O O15 0.745002 0.895698 0.083774
O O16 0.160304 0.500000 0.000000
#
# Coordination Sequence:
#
# PCOD9319651 Si02
#       8
#     8   8   4   8   8   8   8   8
#     4  12  24  42  68 100 129 175 228 286 336 401
#     4   9  19  36  60  95 128 172 216 273 324 398
#     4  10  22  42  64 100 144 180 222 276 344 426
#     4  12  24  40  67  99 141 171 222 284 342 402
#     4  10  22  37  61  99 139 176 215 272 339 402
#     4  11  23  39  64  97 129 169 225 276 336 392
#     4  11  23  42  66  99 134 176 219 277 340 412
#     4  11  24  45  70  92 129 182 232 269 335 410
#
# _framework density 19.598579000000001
#
# number of rings (size 3 to 8) (size 9 to 14) (size 15 to 20)
#    0.000    1.333    5.333    2.400    5.600    0.533 
#    4.800    1.333    0.000    0.000    0.000    0.000 
#    0.000    0.000    0.000    0.000    0.000    0.000 
#
# Total GULP energy -167486.779031 kJ/mol
# GULP energy per Si atom -5582.892634 kJ/mol
# Density = 1.955397 g / cm^3
# Si number density = 19.598579 Si / 1000 Ang^3
#
#
#
# Elastic Constant Matrix: (Units=GPa)
#
#
# Indices 1 2 3 4 5 6 
#
# 1 103.5851 50.8461 32.3936 0.0000 0.0000 0.0000
# 2 50.8461 92.1955 34.2052 0.0000 0.0000 0.0000
# 3 32.3936 34.2052 66.8569 0.0000 0.0000 0.0000
# 4 0.0000 0.0000 0.0000 20.2048 0.0000 0.0000
# 5 0.0000 0.0000 0.0000 0.0000 33.4137 0.0000
# 6 0.0000 0.0000 0.0000 0.0000 0.0000 33.3272
#
#
#
# Elastic Compliance Matrix: (Units=1/GPa)
#
#
# Indices 1 2 3 4 5 6 
#
# 1 0.013857 -0.006358 -0.003461 0.000000 0.000000 0.000000
# 2 -0.006358 0.016305 -0.005261 0.000000 0.000000 0.000000
# 3 -0.003461 -0.005261 0.019326 0.000000 0.000000 0.000000
# 4 0.000000 0.000000 0.000000 0.049493 0.000000 0.000000
# 5 0.000000 0.000000 0.000000 0.000000 0.029928 0.000000
# 6 0.000000 0.000000 0.000000 0.000000 0.000000 0.030006
#
#
# Mechanical properties :
#
#
# Convention : Reuss Voigt Hill
#
# Bulk Modulus (GPa) = 51.74076 55.28080 53.51078
# Shear Modulus (GPa) = 25.57299 27.06865 26.32082
#
# Velocity S-wave (km/s) = 3.61617 3.72042 3.66867
# Velocity P-wave (km/s) = 6.62519 6.83543 6.73113
#
# Compressibility (1/GPa) = 0.01932712
#
# Stress axis : x y z
#
# Youngs Moduli (GPa) = 72.16405 61.33064 51.74343
#
# Poissons Ratio (x) = 0.38995 0.17909
# Poissons Ratio (y) = 0.45883 0.27224
# Poissons Ratio (z) = 0.24977 0.32268
#
# Static dielectric constant tensor:
#      x y z
#    x 1.749110 0.000000 0.000000 
#    y 0.000000 1.696750 0.000000 
#    z 0.000000 0.000000 1.734460 
# 
# From -- ./inp_files/14393.got.cif
#   From: 2010.05.17/outbox.cif.g08.bks.cpg/sg20_8_cif.got.tgz:14393.got - 2010.06.03 22:52:26.
