data_PCOD9319573
_publ_section_title
;
Structure prediction by ZEFSAII (Michael W. Deem and Ramdas Pophale) SiO2 
 PCOD9319573
Probable space group: C 2 2 21
;
_chemical_formula_sum "Si O2"
_cell_formula_units_Z 36
_cell_length_a 14.772621
_cell_length_b 9.278535
_cell_length_c 12.879104
_cell_angle_alpha 90.000000
_cell_angle_beta 90.000000
_cell_angle_gamma 90.000000
_cell_volume 1765.316646
_symmetry_space_group_name_H-M "C 2 2 21"
_symmetry_group_IT_number 20
_symmetry_cell_setting 'orthorhombic'
loop_
_space_group_symop_operation_xyz
x,y,z
-x,-y,1/2+z
x,-y,-z
-x,y,1/2-z
1/2+x,1/2+y,z
1/2-x,1/2-y,1/2+z
1/2+x,1/2-y,-z
1/2-x,1/2+y,1/2-z
loop_
_atom_site_type_symbol
_atom_site_label
_atom_site_fract_x
_atom_site_fract_y
_atom_site_fract_z
Si Si1 0.905673 0.468339 0.200260
Si Si2 0.500000 0.446293 0.250000
Si Si3 0.178057 0.383285 0.090253
Si Si4 0.503258 0.700955 0.412509
Si Si5 0.878021 0.232299 0.887590
O O1 0.836664 0.448789 0.294755
O O2 0.932445 0.315489 0.149382
O O3 0.877731 0.595033 0.123740
O O4 0.000000 0.520300 0.250000
O O5 0.489989 0.556846 0.346137
O O6 0.583851 0.344148 0.282903
O O7 0.277491 0.317640 0.086297
O O8 0.095005 0.273122 0.075978
O O9 0.168673 0.500000 0.000000
O O10 0.553186 0.686212 0.521745
#
# Coordination Sequence:
#
# PCOD9319573 Si02
#       5
#     8   4   8   8   8
#     4  10  21  46  70  92 129 184 225 273 340 410
#     4  12  24  42  66  98 140 174 222 288 336 396
#     4  11  24  41  72  97 137 176 230 273 341 409
#     4  11  23  48  67  97 137 184 225 279 345 405
#     4  12  26  42  70 104 136 176 232 286 337 398
#
# _framework density 20.392944
#
# number of rings (size 3 to 8) (size 9 to 14) (size 15 to 20)
#    0.000    0.889    4.444    5.333    3.111    1.778 
#    0.000    2.222    0.000    0.000    0.000    0.000 
#    0.000    0.000    0.000    0.000    0.000    0.000 
#
# Total GULP energy -100554.289919 kJ/mol
# GULP energy per Si atom -5586.349440 kJ/mol
# Density = 2.034653 g / cm^3
# Si number density = 20.392944 Si / 1000 Ang^3
#
#
#
# Elastic Constant Matrix: (Units=GPa)
#
#
# Indices 1 2 3 4 5 6 
#
# 1 76.3273 24.1640 40.1097 0.0000 0.0000 0.0000
# 2 24.1640 94.5574 43.0360 0.0000 0.0000 0.0000
# 3 40.1097 43.0360 97.9681 0.0000 0.0000 0.0000
# 4 0.0000 0.0000 0.0000 38.5627 0.0000 0.0000
# 5 0.0000 0.0000 0.0000 0.0000 28.1469 0.0000
# 6 0.0000 0.0000 0.0000 0.0000 0.0000 -11.9009
#
#
#
# Elastic Compliance Matrix: (Units=1/GPa)
#
#
# Indices 1 2 3 4 5 6 
#
# 1 0.016852 -0.001458 -0.006259 0.000000 0.000000 0.000000
# 2 -0.001458 0.013344 -0.005265 0.000000 0.000000 0.000000
# 3 -0.006259 -0.005265 0.015083 0.000000 0.000000 0.000000
# 4 0.000000 0.000000 0.000000 0.025932 0.000000 0.000000
# 5 0.000000 0.000000 0.000000 0.000000 0.035528 0.000000
# 6 0.000000 0.000000 0.000000 0.000000 0.000000 -0.084027
#
#
# Mechanical properties :
#
#
# Convention : Reuss Voigt Hill
#
# Bulk Modulus (GPa) = 51.77256 53.71915 52.74585
# Shear Modulus (GPa) = 90.71993 21.73128 56.22561
#
# Velocity S-wave (km/s) = 6.67701 3.26794 5.25652
# Velocity P-wave (km/s) = 9.21336 6.37483 7.92226
#
# Compressibility (1/GPa) = 0.01931525
#
# Stress axis : x y z
#
# Youngs Moduli (GPa) = 59.33962 74.93738 66.30013
#
# Poissons Ratio (x) = 0.10924 0.41498
# Poissons Ratio (y) = 0.08651 0.34908
# Poissons Ratio (z) = 0.37142 0.39456
#
# Static dielectric constant tensor:
#      x y z
#    x 1.666820 0.000000 0.000000 
#    y 0.000000 1.737650 0.000000 
#    z 0.000000 0.000000 1.787180 
# 
# From -- ./inp_files/20445.got.cif
#   From: 2010.05.17/outbox.cif.g08.bks.cpg/sg20_11_cif.got.tgz:20445.got - 2010.06.03 22:52:26.
