data_PCOD9319669
_publ_section_title
;
Structure prediction by ZEFSAII (Michael W. Deem and Ramdas Pophale) SiO2 
 PCOD9319669
Probable space group: C 2 2 21
;
_chemical_formula_sum "Si O2"
_cell_formula_units_Z 64
_cell_length_a 27.892023
_cell_length_b 12.509176
_cell_length_c 7.891811
_cell_angle_alpha 90.000000
_cell_angle_beta 90.000000
_cell_angle_gamma 90.000000
_cell_volume 2753.501982
_symmetry_space_group_name_H-M "C 2 2 21"
_symmetry_group_IT_number 20
_symmetry_cell_setting 'orthorhombic'
loop_
_space_group_symop_operation_xyz
x,y,z
-x,-y,1/2+z
x,-y,-z
-x,y,1/2-z
1/2+x,1/2+y,z
1/2-x,1/2-y,1/2+z
1/2+x,1/2-y,-z
1/2-x,1/2+y,1/2-z
loop_
_atom_site_type_symbol
_atom_site_label
_atom_site_fract_x
_atom_site_fract_y
_atom_site_fract_z
Si Si1 0.941885 0.060306 0.743388
Si Si2 0.454076 0.937255 0.679499
Si Si3 0.606632 0.245816 0.057365
Si Si4 0.299707 0.169600 0.306355
Si Si5 0.799412 0.232157 0.075586
Si Si6 0.916486 0.359179 0.191203
Si Si7 0.813553 0.551379 0.832692
Si Si8 0.406928 0.355383 0.898943
O O1 0.919076 0.143115 0.607860
O O2 0.000000 0.064228 0.750000
O O3 0.925054 0.935703 0.752292
O O4 0.918544 0.097974 0.918949
O O5 0.500000 0.877192 0.750000
O O6 0.412919 0.849112 0.678963
O O7 0.455095 0.000000 0.500000
O O8 0.448703 0.037830 0.803136
O O9 0.663611 0.242008 0.085358
O O10 0.594107 0.196811 0.873604
O O11 0.247096 0.163093 0.386535
O O12 0.316451 0.045434 0.296691
O O13 0.300669 0.220868 0.116293
O O14 0.789891 0.334819 0.199813
O O15 0.850151 0.173718 0.113266
O O16 0.866658 0.406139 0.124279
O O17 0.935147 0.257299 0.094234
O O18 0.790486 0.500000 0.000000
#
# Coordination Sequence:
#
# PCOD9319669 Si02
#       8
#     8   8   8   8   8   8   8   8
#     4  11  25  46  71  95 135 186 236 289 361 423
#     4  10  22  38  58  94 127 162 214 262 327 388
#     4  11  23  41  63  99 138 172 225 280 337 407
#     4  11  22  41  69  97 139 179 225 286 348 411
#     4  10  23  42  67 102 130 181 232 281 346 415
#     4  10  22  39  66  93 126 172 222 271 340 404
#     4   9  20  40  63  92 131 174 220 276 340 405
#     4  10  24  46  68  96 136 174 236 284 347 421
#
# _framework density 23.243127999999999
#
# number of rings (size 3 to 8) (size 9 to 14) (size 15 to 20)
#    0.000    1.750    2.500    0.375    3.500    7.500 
#    0.000    0.000    0.000    0.000    0.000    0.000 
#    0.000    0.000    0.000    0.000    0.000    0.000 
#
# Total GULP energy -178369.034395 kJ/mol
# GULP energy per Si atom -5574.032325 kJ/mol
# Density = 2.319023 g / cm^3
# Si number density = 23.243128 Si / 1000 Ang^3
#
#
#
# Elastic Constant Matrix: (Units=GPa)
#
#
# Indices 1 2 3 4 5 6 
#
# 1 102.5289 26.5362 14.9772 0.0000 0.0000 0.0000
# 2 26.5362 104.9483 35.2451 0.0000 0.0000 0.0000
# 3 14.9772 35.2451 69.8119 0.0000 0.0000 0.0000
# 4 0.0000 0.0000 0.0000 31.8614 0.0000 0.0000
# 5 0.0000 0.0000 0.0000 0.0000 23.3802 0.0000
# 6 0.0000 0.0000 0.0000 0.0000 0.0000 28.9800
#
#
#
# Elastic Compliance Matrix: (Units=1/GPa)
#
#
# Indices 1 2 3 4 5 6 
#
# 1 0.010506 -0.002287 -0.001099 0.000000 0.000000 0.000000
# 2 -0.002287 0.011972 -0.005553 0.000000 0.000000 0.000000
# 3 -0.001099 -0.005553 0.017364 0.000000 0.000000 0.000000
# 4 0.000000 0.000000 0.000000 0.031386 0.000000 0.000000
# 5 0.000000 0.000000 0.000000 0.000000 0.042771 0.000000
# 6 0.000000 0.000000 0.000000 0.000000 0.000000 0.034507
#
#
# Mechanical properties :
#
#
# Convention : Reuss Voigt Hill
#
# Bulk Modulus (GPa) = 45.53361 47.86736 46.70048
# Shear Modulus (GPa) = 28.78436 30.21302 29.49869
#
# Velocity S-wave (km/s) = 3.52291 3.60928 3.56636
# Velocity P-wave (km/s) = 6.01503 6.16507 6.09051
#
# Compressibility (1/GPa) = 0.02196180
#
# Stress axis : x y z
#
# Youngs Moduli (GPa) = 95.18467 83.52930 57.59146
#
# Poissons Ratio (x) = 0.19106 0.06330
# Poissons Ratio (y) = 0.21771 0.31983
# Poissons Ratio (z) = 0.10462 0.46387
#
# Static dielectric constant tensor:
#      x y z
#    x 1.920850 0.000000 0.000000 
#    y 0.000000 1.963170 0.000000 
#    z 0.000000 0.000000 1.995950 
# 
# From -- ./inp_files/11630.got.cif
#   From: 2010.05.17/outbox.cif.g08.bks.cpg/sg20_6_cif.got.tgz:11630.got - 2010.06.03 22:52:26.
