data_PCOD9319266
_publ_section_title
;
Structure prediction by ZEFSAII (Michael W. Deem and Ramdas Pophale) SiO2 
 PCOD9319266
Probable space group: C 2 2 21
;
_chemical_formula_sum "Si O2"
_cell_formula_units_Z 60
_cell_length_a 15.512877
_cell_length_b 12.187299
_cell_length_c 14.447574
_cell_angle_alpha 90.000000
_cell_angle_beta 90.000000
_cell_angle_gamma 90.000000
_cell_volume 2731.459357
_symmetry_space_group_name_H-M "C 2 2 21"
_symmetry_group_IT_number 20
_symmetry_cell_setting 'orthorhombic'
loop_
_space_group_symop_operation_xyz
x,y,z
-x,-y,1/2+z
x,-y,-z
-x,y,1/2-z
1/2+x,1/2+y,z
1/2-x,1/2-y,1/2+z
1/2+x,1/2-y,-z
1/2-x,1/2+y,1/2-z
loop_
_atom_site_type_symbol
_atom_site_label
_atom_site_fract_x
_atom_site_fract_y
_atom_site_fract_z
Si Si1 0.099217 0.155147 0.345650
Si Si2 0.845711 0.283132 0.329129
Si Si3 0.760535 0.126217 0.479384
Si Si4 0.658975 0.331606 0.276455
Si Si5 0.000000 0.023890 0.750000
Si Si6 0.431789 0.113727 0.497468
Si Si7 0.587191 0.235098 0.456566
Si Si8 0.709890 0.176417 0.126818
O O1 0.102415 0.237126 0.258237
O O2 0.083754 0.213443 0.442054
O O3 0.199602 0.119894 0.350549
O O4 0.032483 0.057960 0.330094
O O5 0.809194 0.181504 0.391731
O O6 0.761914 0.351464 0.292250
O O7 0.905493 0.347192 0.400987
O O8 0.658883 0.139702 0.458673
O O9 0.776500 0.211090 0.565481
O O10 0.783230 0.000000 0.500000
O O11 0.587412 0.408462 0.227610
O O12 0.620099 0.316700 0.378477
O O13 0.663606 0.217755 0.219359
O O14 0.490506 0.197279 0.440923
O O15 0.346232 0.099801 0.437505
O O16 0.480855 0.000000 0.500000
#
# Coordination Sequence:
#
# PCOD9319266 Si02
#       8
#     8   8   8   8   4   8   8   8
#     4  10  22  41  61  87 127 162 205 263 317 373
#     4   9  21  41  59  88 129 165 201 262 315 372
#     4   9  18  35  64  89 118 164 215 258 309 382
#     4  10  22  41  61  87 127 162 205 263 317 373
#     4  12  24  34  64  92 114 160 216 252 320 374
#     4  11  22  37  64  89 120 166 211 246 313 388
#     4  10  21  41  58  86 130 162 203 272 317 358
#     4   9  21  41  59  88 129 165 201 262 315 372
#
# _framework density 21.966279
#
# number of rings (size 3 to 8) (size 9 to 14) (size 15 to 20)
#    0.000    2.133    0.000    2.800    3.733    0.533 
#    0.000    5.333    0.000    0.000    0.000    0.000 
#    0.000    0.000    0.000    0.000    0.000    0.000 
#
# Total GULP energy -167289.346192 kJ/mol
# GULP energy per Si atom -5576.311540 kJ/mol
# Density = 2.191628 g / cm^3
# Si number density = 21.966279 Si / 1000 Ang^3
#
#
#
# Elastic Constant Matrix: (Units=GPa)
#
#
# Indices 1 2 3 4 5 6 
#
# 1 97.8493 27.0619 19.8167 0.0000 0.0000 0.0000
# 2 27.0619 55.5458 7.1887 0.0000 0.0000 0.0000
# 3 19.8167 7.1887 91.1040 0.0000 0.0000 0.0000
# 4 0.0000 0.0000 0.0000 -16.3265 0.0000 0.0000
# 5 0.0000 0.0000 0.0000 0.0000 -33.2431 0.0000
# 6 0.0000 0.0000 0.0000 0.0000 0.0000 0.3768
#
#
#
# Elastic Compliance Matrix: (Units=1/GPa)
#
#
# Indices 1 2 3 4 5 6 
#
# 1 0.012238 -0.005676 -0.002214 0.000000 0.000000 0.000000
# 2 -0.005676 0.020821 -0.000408 0.000000 0.000000 0.000000
# 3 -0.002214 -0.000408 0.011490 0.000000 0.000000 0.000000
# 4 0.000000 0.000000 0.000000 -0.061250 0.000000 0.000000
# 5 0.000000 0.000000 0.000000 0.000000 -0.030081 0.000000
# 6 0.000000 0.000000 0.000000 0.000000 0.000000 2.653968
#
#
# Mechanical properties :
#
#
# Convention : Reuss Voigt Hill
#
# Bulk Modulus (GPa) = 35.77432 39.18152 37.47792
# Shear Modulus (GPa) = 1.89890 2.85690 2.37790
#
# Velocity S-wave (km/s) = 0.93077 1.14167 1.04157
# Velocity P-wave (km/s) = 4.18049 4.42874 4.30640
#
# Compressibility (1/GPa) = 0.02795301
#
# Stress axis : x y z
#
# Youngs Moduli (GPa) = 81.71319 48.02792 87.02998
#
# Poissons Ratio (x) = 0.27259 0.19269
# Poissons Ratio (y) = 0.46378 0.03554
# Poissons Ratio (z) = 0.18092 0.01961
#
# Static dielectric constant tensor:
#      x y z
#    x 1.831190 0.000000 0.000000 
#    y 0.000000 1.865260 0.000000 
#    z 0.000000 0.000000 1.799410 
# 
# From -- ./inp_files/21470.got.cif
#   From: 2010.05.17/outbox.cif.g08.bks.cpg/sg20_11_cif.got.tgz:21470.got - 2010.06.03 22:52:26.
