data_PCOD9319964
_publ_section_title
;
Structure prediction by ZEFSAII (Michael W. Deem and Ramdas Pophale) SiO2 
 PCOD9319964
Probable space group: C 2 2 21
;
_chemical_formula_sum "Si O2"
_cell_formula_units_Z 56
_cell_length_a 11.322459
_cell_length_b 16.385664
_cell_length_c 14.087387
_cell_angle_alpha 90.000000
_cell_angle_beta 90.000000
_cell_angle_gamma 90.000000
_cell_volume 2613.576685
_symmetry_space_group_name_H-M "C 2 2 21"
_symmetry_group_IT_number 20
_symmetry_cell_setting 'orthorhombic'
loop_
_space_group_symop_operation_xyz
x,y,z
-x,-y,1/2+z
x,-y,-z
-x,y,1/2-z
1/2+x,1/2+y,z
1/2-x,1/2-y,1/2+z
1/2+x,1/2-y,-z
1/2-x,1/2+y,1/2-z
loop_
_atom_site_type_symbol
_atom_site_label
_atom_site_fract_x
_atom_site_fract_y
_atom_site_fract_z
Si Si1 0.288521 0.515512 0.288833
Si Si2 0.297340 0.666956 0.411630
Si Si3 0.146744 0.806932 0.465953
Si Si4 0.709928 0.043872 0.901475
Si Si5 0.438364 0.048175 0.899700
Si Si6 0.970382 0.738685 0.863194
Si Si7 0.437112 0.574846 0.562768
O O1 0.300998 0.609134 0.319974
O O2 0.289919 0.495922 0.178878
O O3 0.163784 0.485806 0.332434
O O4 0.388780 0.463233 0.341371
O O5 0.178637 0.718291 0.424312
O O6 0.407965 0.727928 0.407277
O O7 0.326090 0.608508 0.501128
O O8 0.250467 0.864872 0.426881
O O9 0.126686 0.794630 0.579976
O O10 0.030365 0.852808 0.428242
O O11 0.574332 0.033065 0.870545
O O12 0.724493 0.000000 0.000000
O O13 0.435926 0.146867 0.893496
O O14 0.424141 0.000000 0.000000
O O15 0.000000 0.741520 0.750000
O O16 0.488084 0.500000 0.500000
#
# Coordination Sequence:
#
# PCOD9319964 Si02
#       7
#     8   8   8   8   8   8   8
#     4  11  22  42  70  93 131 178 233 269 336 422
#     4  10  22  41  66 102 132 174 225 284 342 394
#     4  11  22  41  64  97 142 163 225 291 337 390
#     4  11  25  40  64  96 135 179 223 281 342 397
#     4  11  22  42  72  99 130 177 229 276 334 415
#     4  11  23  40  70 100 136 186 233 272 342 414
#     4   9  20  40  66  96 127 178 220 270 336 409
#
# _framework density 21.426573999999999
#
# number of rings (size 3 to 8) (size 9 to 14) (size 15 to 20)
#    0.000    1.429    1.429    4.714    2.000    0.571 
#    0.000    0.000    9.429    0.000    0.000    0.000 
#    0.000    0.000    0.000    0.000    0.000    0.000 
#
# Total GULP energy -156193.868191 kJ/mol
# GULP energy per Si atom -5578.352435 kJ/mol
# Density = 2.137781 g / cm^3
# Si number density = 21.426574 Si / 1000 Ang^3
#
#
#
# Elastic Constant Matrix: (Units=GPa)
#
#
# Indices 1 2 3 4 5 6 
#
# 1 74.2496 34.2826 13.8656 0.0000 0.0000 0.0000
# 2 34.2826 99.0770 5.9322 0.0000 0.0000 0.0000
# 3 13.8656 5.9322 43.1383 0.0000 0.0000 0.0000
# 4 0.0000 0.0000 0.0000 18.5812 0.0000 0.0000
# 5 0.0000 0.0000 0.0000 0.0000 48.0528 0.0000
# 6 0.0000 0.0000 0.0000 0.0000 0.0000 53.8681
#
#
#
# Elastic Compliance Matrix: (Units=1/GPa)
#
#
# Indices 1 2 3 4 5 6 
#
# 1 0.016913 -0.005573 -0.004670 0.000000 0.000000 0.000000
# 2 -0.005573 0.012013 0.000139 0.000000 0.000000 0.000000
# 3 -0.004670 0.000139 0.024663 0.000000 0.000000 0.000000
# 4 0.000000 0.000000 0.000000 0.053818 0.000000 0.000000
# 5 0.000000 0.000000 0.000000 0.000000 0.020810 0.000000
# 6 0.000000 0.000000 0.000000 0.000000 0.000000 0.018564
#
#
# Mechanical properties :
#
#
# Convention : Reuss Voigt Hill
#
# Bulk Modulus (GPa) = 29.95577 36.06952 33.01265
# Shear Modulus (GPa) = 28.07158 34.92605 31.49882
#
# Velocity S-wave (km/s) = 3.62350 4.04175 3.83832
# Velocity P-wave (km/s) = 5.61403 6.21704 5.92321
#
# Compressibility (1/GPa) = 0.03338255
#
# Stress axis : x y z
#
# Youngs Moduli (GPa) = 59.12546 83.24261 40.54632
#
# Poissons Ratio (x) = 0.46388 0.18935
# Poissons Ratio (y) = 0.32949 -0.00564
# Poissons Ratio (z) = 0.27611 -0.01159
#
# Static dielectric constant tensor:
#      x y z
#    x 1.806860 0.000000 0.000000 
#    y 0.000000 1.715210 0.000000 
#    z 0.000000 0.000000 1.771490 
# 
# From -- ./inp_files/20072.got.cif
#   From: 2010.05.17/outbox.cif.g08.bks.cpg/sg20_11_cif.got.tgz:20072.got - 2010.06.03 22:52:26.
