data_PCOD9319827
_publ_section_title
;
Structure prediction by ZEFSAII (Michael W. Deem and Ramdas Pophale) SiO2 
 PCOD9319827
Probable space group: C 2 2 21
;
_chemical_formula_sum "Si O2"
_cell_formula_units_Z 28
_cell_length_a 21.459668
_cell_length_b 8.058848
_cell_length_c 7.286083
_cell_angle_alpha 90.000000
_cell_angle_beta 90.000000
_cell_angle_gamma 90.000000
_cell_volume 1260.056670
_symmetry_space_group_name_H-M "C 2 2 21"
_symmetry_group_IT_number 20
_symmetry_cell_setting 'orthorhombic'
loop_
_space_group_symop_operation_xyz
x,y,z
-x,-y,1/2+z
x,-y,-z
-x,y,1/2-z
1/2+x,1/2+y,z
1/2-x,1/2-y,1/2+z
1/2+x,1/2-y,-z
1/2-x,1/2+y,1/2-z
loop_
_atom_site_type_symbol
_atom_site_label
_atom_site_fract_x
_atom_site_fract_y
_atom_site_fract_z
Si Si1 0.115477 0.157439 0.316730
Si Si2 0.231956 0.000000 0.500000
Si Si3 0.157365 0.494273 0.277498
Si Si4 0.071302 0.195632 0.712694
O O1 0.117916 0.332359 0.217850
O O2 0.072181 0.182862 0.491844
O O3 0.183374 0.131529 0.413923
O O4 0.095168 0.986452 0.222188
O O5 0.278023 0.030128 0.670152
O O6 0.164785 0.500000 0.500000
O O7 0.120194 0.662333 0.230603
O O8 0.000000 0.232792 0.750000
#
# Coordination Sequence:
#
# PCOD9319827 Si02
#       4
#     8   4   8   8
#     4   9  22  40  62  92 127 162 212 265 304 384
#     4  10  22  40  64 100 120 158 224 238 326 396
#     4  10  22  41  63  92 128 164 199 268 311 365
#     4   9  19  41  61  85 126 165 209 257 309 367
#
# _framework density 22.221226000000001
#
# number of rings (size 3 to 8) (size 9 to 14) (size 15 to 20)
#    0.000    2.857    0.000    0.000   12.000    1.143 
#   18.000    0.000    6.286    0.000    0.000    0.000 
#    0.000    0.000    0.000    0.000    0.000    0.000 
#
# Total GULP energy -77973.584320 kJ/mol
# GULP energy per Si atom -5569.541737 kJ/mol
# Density = 2.217065 g / cm^3
# Si number density = 22.221226 Si / 1000 Ang^3
#
#
#
# Elastic Constant Matrix: (Units=GPa)
#
#
# Indices 1 2 3 4 5 6 
#
# 1 90.0739 -4.0032 22.6219 0.0000 0.0000 0.0000
# 2 -4.0032 113.4479 -2.8818 0.0000 0.0000 0.0000
# 3 22.6219 -2.8818 80.8256 0.0000 0.0000 0.0000
# 4 0.0000 0.0000 0.0000 -7.6758 0.0000 0.0000
# 5 0.0000 0.0000 0.0000 0.0000 20.8507 0.0000
# 6 0.0000 0.0000 0.0000 0.0000 0.0000 -3.5615
#
#
#
# Elastic Compliance Matrix: (Units=1/GPa)
#
#
# Indices 1 2 3 4 5 6 
#
# 1 0.011954 0.000337 -0.003334 0.000000 0.000000 0.000000
# 2 0.000337 0.008832 0.000221 0.000000 0.000000 0.000000
# 3 -0.003334 0.000221 0.013313 0.000000 0.000000 0.000000
# 4 0.000000 0.000000 0.000000 -0.130279 0.000000 0.000000
# 5 0.000000 0.000000 0.000000 0.000000 0.047960 0.000000
# 6 0.000000 0.000000 0.000000 0.000000 0.000000 -0.280780
#
#
# Mechanical properties :
#
#
# Convention : Reuss Voigt Hill
#
# Bulk Modulus (GPa) = 35.02947 35.09126 35.06037
# Shear Modulus (GPa) = -15.92703 19.83004 1.95151
#
# Velocity S-wave (km/s) = -2.68012 2.99053 0.93815
# Velocity P-wave (km/s) = 2.49415 5.26787 4.12136
#
# Compressibility (1/GPa) = 0.02854739
#
# Stress axis : x y z
#
# Youngs Moduli (GPa) = 83.65225 113.22315 75.11311
#
# Poissons Ratio (x) = -0.03817 0.25041
# Poissons Ratio (y) = -0.02820 -0.01657
# Poissons Ratio (z) = 0.27888 -0.02497
#
# Static dielectric constant tensor:
#      x y z
#    x 1.825400 0.000000 0.000000 
#    y 0.000000 1.925020 0.000000 
#    z 0.000000 0.000000 1.683170 
# 
# From -- ./inp_files/5643.got.cif
#   From: 2010.05.17/outbox.cif.g08.bks.cpg/sg20_3_cif.got.tgz:5643.got - 2010.06.03 22:52:26.
