data_PCOD9319504
_publ_section_title
;
Structure prediction by ZEFSAII (Michael W. Deem and Ramdas Pophale) SiO2 
 PCOD9319504
Probable space group: C 2 2 21
;
_chemical_formula_sum "Si O2"
_cell_formula_units_Z 32
_cell_length_a 5.952580
_cell_length_b 18.167197
_cell_length_c 11.693627
_cell_angle_alpha 90.000000
_cell_angle_beta 90.000000
_cell_angle_gamma 90.000000
_cell_volume 1264.568627
_symmetry_space_group_name_H-M "C 2 2 21"
_symmetry_group_IT_number 20
_symmetry_cell_setting 'orthorhombic'
loop_
_space_group_symop_operation_xyz
x,y,z
-x,-y,1/2+z
x,-y,-z
-x,y,1/2-z
1/2+x,1/2+y,z
1/2-x,1/2-y,1/2+z
1/2+x,1/2-y,-z
1/2-x,1/2+y,1/2-z
loop_
_atom_site_type_symbol
_atom_site_label
_atom_site_fract_x
_atom_site_fract_y
_atom_site_fract_z
Si Si1 0.263970 0.542025 0.270306
Si Si2 0.359326 0.328414 0.364923
Si Si3 0.074218 0.577736 0.505425
Si Si4 0.692280 0.672158 0.417313
O O1 0.500000 0.499362 0.250000
O O2 0.249665 0.565705 0.402708
O O3 0.303234 0.612117 0.185163
O O4 0.000000 0.519945 0.250000
O O5 0.500000 0.329739 0.250000
O O6 0.203990 0.400309 0.380559
O O7 0.510400 0.327036 0.480709
O O8 0.218132 0.252984 0.365492
O O9 0.941831 0.500000 0.500000
O O10 0.920359 0.646657 0.479786
#
# Coordination Sequence:
#
# PCOD9319504 Si02
#       4
#     8   8   8   8
#     4  10  21  43  74  98 139 197 235 286 367 445
#     4  12  25  44  73 106 135 188 249 309 360 442
#     4  11  25  46  69 105 143 188 239 304 369 442
#     4  11  24  46  73  98 145 186 247 297 376 443
#
# _framework density 25.305070000000001
#
# number of rings (size 3 to 8) (size 9 to 14) (size 15 to 20)
#    0.000    1.000    5.000    2.250    0.000    3.000 
#   13.500    0.000    0.000    0.000    0.000    0.000 
#    0.000    0.000    0.000    0.000    0.000    0.000 
#
# Total GULP energy -89273.828936 kJ/mol
# GULP energy per Si atom -5579.614309 kJ/mol
# Density = 2.524747 g / cm^3
# Si number density = 25.305070 Si / 1000 Ang^3
#
#
#
# Elastic Constant Matrix: (Units=GPa)
#
#
# Indices 1 2 3 4 5 6 
#
# 1 116.3737 30.9561 11.4576 0.0000 0.0000 0.0000
# 2 30.9561 120.4492 26.6843 0.0000 0.0000 0.0000
# 3 11.4576 26.6843 92.7601 0.0000 0.0000 0.0000
# 4 0.0000 0.0000 0.0000 26.1232 0.0000 0.0000
# 5 0.0000 0.0000 0.0000 0.0000 53.2939 0.0000
# 6 0.0000 0.0000 0.0000 0.0000 0.0000 20.7796
#
#
#
# Elastic Compliance Matrix: (Units=1/GPa)
#
#
# Indices 1 2 3 4 5 6 
#
# 1 0.009244 -0.002267 -0.000490 0.000000 0.000000 0.000000
# 2 -0.002267 0.009423 -0.002431 0.000000 0.000000 0.000000
# 3 -0.000490 -0.002431 0.011540 0.000000 0.000000 0.000000
# 4 0.000000 0.000000 0.000000 0.038280 0.000000 0.000000
# 5 0.000000 0.000000 0.000000 0.000000 0.018764 0.000000
# 6 0.000000 0.000000 0.000000 0.000000 0.000000 0.048124
#
#
# Mechanical properties :
#
#
# Convention : Reuss Voigt Hill
#
# Bulk Modulus (GPa) = 50.42216 51.97544 51.19880
# Shear Modulus (GPa) = 32.81645 37.40502 35.11074
#
# Velocity S-wave (km/s) = 3.60506 3.84886 3.72895
# Velocity P-wave (km/s) = 6.10718 6.35104 6.23030
#
# Compressibility (1/GPa) = 0.01983255
#
# Stress axis : x y z
#
# Youngs Moduli (GPa) = 108.17424 106.11770 86.65339
#
# Poissons Ratio (x) = 0.24061 0.04242
# Poissons Ratio (y) = 0.24527 0.21064
# Poissons Ratio (z) = 0.05296 0.25795
#
# Static dielectric constant tensor:
#      x y z
#    x 2.063260 0.000000 0.000000 
#    y 0.000000 1.987310 0.000000 
#    z 0.000000 0.000000 2.054170 
# 
# From -- ./inp_files/11893.got.cif
#   From: 2010.05.17/outbox.cif.g08.bks.cpg/sg20_6_cif.got.tgz:11893.got - 2010.06.03 22:52:26.
