data_PCOD9319239
_publ_section_title
;
Structure prediction by ZEFSAII (Michael W. Deem and Ramdas Pophale) SiO2 
 PCOD9319239
Probable space group: C 2 2 21
;
_chemical_formula_sum "Si O2"
_cell_formula_units_Z 60
_cell_length_a 17.085362
_cell_length_b 9.003118
_cell_length_c 19.463507
_cell_angle_alpha 90.000000
_cell_angle_beta 90.000000
_cell_angle_gamma 90.000000
_cell_volume 2993.906429
_symmetry_space_group_name_H-M "C 2 2 21"
_symmetry_group_IT_number 20
_symmetry_cell_setting 'orthorhombic'
loop_
_space_group_symop_operation_xyz
x,y,z
-x,-y,1/2+z
x,-y,-z
-x,y,1/2-z
1/2+x,1/2+y,z
1/2-x,1/2-y,1/2+z
1/2+x,1/2-y,-z
1/2-x,1/2+y,1/2-z
loop_
_atom_site_type_symbol
_atom_site_label
_atom_site_fract_x
_atom_site_fract_y
_atom_site_fract_z
Si Si1 0.681752 0.127492 0.446108
Si Si2 0.857928 0.519325 0.270892
Si Si3 0.067618 0.753210 0.334765
Si Si4 0.612767 0.244725 0.124726
Si Si5 0.279354 0.502310 0.322616
Si Si6 0.667654 0.175405 0.979989
Si Si7 0.500000 0.487004 0.750000
Si Si8 0.901029 0.762743 0.667584
O O1 0.618182 0.226370 0.404120
O O2 0.748229 0.240926 0.474532
O O3 0.652779 0.000000 0.500000
O O4 0.726006 0.028709 0.389041
O O5 0.897541 0.632733 0.217979
O O6 0.842409 0.606259 0.341350
O O7 0.777417 0.461247 0.238930
O O8 0.913601 0.384459 0.289000
O O9 0.977249 0.728329 0.354323
O O10 0.061946 0.906641 0.290725
O O11 0.654233 0.386747 0.157345
O O12 0.622558 0.247941 0.043833
O O13 0.321160 0.657842 0.307923
O O14 0.618173 0.213648 0.910733
O O15 0.674458 0.000000 0.000000
O O16 0.465901 0.381533 0.689842
#
# Coordination Sequence:
#
# PCOD9319239 Si02
#       8
#     8   8   8   8   8   8   4   8
#     4  10  22  44  69  99 132 177 228 282 340 423
#     4  11  22  39  68 100 131 174 228 287 338 408
#     4  11  24  44  67  97 141 180 221 290 364 404
#     4  12  21  42  71  93 139 183 226 282 351 416
#     4  10  21  40  67  99 128 174 227 279 341 408
#     4  11  24  43  67  98 135 181 236 284 345 422
#     4  12  24  44  64 100 140 178 224 290 348 414
#     4  11  24  39  66  98 133 174 232 282 337 415
#
# _framework density 20.040704999999999
#
# number of rings (size 3 to 8) (size 9 to 14) (size 15 to 20)
#    0.000    1.067    5.333    0.800    1.867    2.667 
#    2.400    1.333    0.000    0.000    0.000    0.000 
#    0.000    0.000    0.000    0.000    0.000    0.000 
#
# Total GULP energy -167207.050102 kJ/mol
# GULP energy per Si atom -5573.568337 kJ/mol
# Density = 1.999509 g / cm^3
# Si number density = 20.040705 Si / 1000 Ang^3
#
#
#
# Elastic Constant Matrix: (Units=GPa)
#
#
# Indices 1 2 3 4 5 6 
#
# 1 62.1992 22.6715 53.6017 0.0000 0.0000 0.0000
# 2 22.6715 121.8672 59.7229 0.0000 0.0000 0.0000
# 3 53.6017 59.7229 109.5280 0.0000 0.0000 0.0000
# 4 0.0000 0.0000 0.0000 31.3155 0.0000 0.0000
# 5 0.0000 0.0000 0.0000 0.0000 31.7296 0.0000
# 6 0.0000 0.0000 0.0000 0.0000 0.0000 24.2829
#
#
#
# Elastic Compliance Matrix: (Units=1/GPa)
#
#
# Indices 1 2 3 4 5 6 
#
# 1 0.028180 0.002069 -0.014919 0.000000 0.000000 0.000000
# 2 0.002069 0.011350 -0.007201 0.000000 0.000000 0.000000
# 3 -0.014919 -0.007201 0.020358 0.000000 0.000000 0.000000
# 4 0.000000 0.000000 0.000000 0.031933 0.000000 0.000000
# 5 0.000000 0.000000 0.000000 0.000000 0.031516 0.000000
# 6 0.000000 0.000000 0.000000 0.000000 0.000000 0.041181
#
#
# Mechanical properties :
#
#
# Convention : Reuss Voigt Hill
#
# Bulk Modulus (GPa) = 50.54342 62.84298 56.69320
# Shear Modulus (GPa) = 23.67233 27.97215 25.82224
#
# Velocity S-wave (km/s) = 3.44061 3.74005 3.59345
# Velocity P-wave (km/s) = 6.40772 7.07647 6.75038
#
# Compressibility (1/GPa) = 0.01978497
#
# Stress axis : x y z
#
# Youngs Moduli (GPa) = 35.48583 88.10666 49.12054
#
# Poissons Ratio (x) = -0.18228 0.73284
# Poissons Ratio (y) = -0.07342 0.35373
# Poissons Ratio (z) = 0.52942 0.63448
#
# Static dielectric constant tensor:
#      x y z
#    x 1.702430 0.000000 0.000000 
#    y 0.000000 1.758480 0.000000 
#    z 0.000000 0.000000 1.734460 
# 
# From -- ./inp_files/29320.got.cif
#   From: 2010.05.17/outbox.cif.g08.bks.cpg/sg20_15_cif.got.tgz:29320.got - 2010.06.03 22:52:26.
