data_PCOD9319815
_publ_section_title
;
Structure prediction by ZEFSAII (Michael W. Deem and Ramdas Pophale) SiO2 
 PCOD9319815
Probable space group: C 2 2 21
;
_chemical_formula_sum "Si O2"
_cell_formula_units_Z 40
_cell_length_a 27.901643
_cell_length_b 8.757518
_cell_length_c 7.582399
_cell_angle_alpha 90.000000
_cell_angle_beta 90.000000
_cell_angle_gamma 90.000000
_cell_volume 1852.752681
_symmetry_space_group_name_H-M "C 2 2 21"
_symmetry_group_IT_number 20
_symmetry_cell_setting 'orthorhombic'
loop_
_space_group_symop_operation_xyz
x,y,z
-x,-y,1/2+z
x,-y,-z
-x,y,1/2-z
1/2+x,1/2+y,z
1/2-x,1/2-y,1/2+z
1/2+x,1/2-y,-z
1/2-x,1/2+y,1/2-z
loop_
_atom_site_type_symbol
_atom_site_label
_atom_site_fract_x
_atom_site_fract_y
_atom_site_fract_z
Si Si1 0.296973 0.247960 0.091269
Si Si2 0.895132 0.317094 0.381513
Si Si3 0.056950 0.630942 0.237207
Si Si4 0.207117 0.429154 0.219208
Si Si5 0.399165 0.337165 0.977605
O O1 0.254761 0.366977 0.126840
O O2 0.295954 0.109134 0.233879
O O3 0.292616 0.159111 0.906280
O O4 0.347258 0.335091 0.072856
O O5 0.919054 0.280581 0.569611
O O6 0.924498 0.460598 0.301365
O O7 0.839900 0.371495 0.384316
O O8 0.896181 0.191075 0.230317
O O9 0.075242 0.700355 0.419774
O O10 0.000000 0.635026 0.250000
O O11 0.423552 0.500000 0.000000
#
# Coordination Sequence:
#
# PCOD9319815 Si02
#       5
#     8   8   8   8   8
#     4  10  23  39  63  95 132 187 226 277 344 406
#     4  10  24  44  71 101 136 178 230 299 339 414
#     4  11  25  45  75 102 125 182 239 289 356 417
#     4  10  22  40  62  96 138 175 231 281 339 414
#     4  11  25  46  66 100 148 177 226 290 349 420
#
# _framework density 21.589497000000001
#
# number of rings (size 3 to 8) (size 9 to 14) (size 15 to 20)
#    0.000    1.600    2.000    0.600   14.000    0.800 
#    3.600    0.000    0.000    0.000    0.000    0.000 
#    0.000    0.000    0.000    0.000    0.000    0.000 
#
# Total GULP energy -111713.831220 kJ/mol
# GULP energy per Si atom -5585.691561 kJ/mol
# Density = 2.154036 g / cm^3
# Si number density = 21.589497 Si / 1000 Ang^3
#
#
#
# Elastic Constant Matrix: (Units=GPa)
#
#
# Indices 1 2 3 4 5 6 
#
# 1 133.3477 -18.6624 13.9605 0.0000 0.0000 0.0000
# 2 -18.6624 40.2413 6.1044 0.0000 0.0000 0.0000
# 3 13.9605 6.1044 89.8065 0.0000 0.0000 0.0000
# 4 0.0000 0.0000 0.0000 35.4521 0.0000 0.0000
# 5 0.0000 0.0000 0.0000 0.0000 78.2245 0.0000
# 6 0.0000 0.0000 0.0000 0.0000 0.0000 19.7231
#
#
#
# Elastic Compliance Matrix: (Units=1/GPa)
#
#
# Indices 1 2 3 4 5 6 
#
# 1 0.008229 0.004052 -0.001555 0.000000 0.000000 0.000000
# 2 0.004052 0.027104 -0.002472 0.000000 0.000000 0.000000
# 3 -0.001555 -0.002472 0.011545 0.000000 0.000000 0.000000
# 4 0.000000 0.000000 0.000000 0.028207 0.000000 0.000000
# 5 0.000000 0.000000 0.000000 0.000000 0.012784 0.000000
# 6 0.000000 0.000000 0.000000 0.000000 0.000000 0.050702
#
#
# Mechanical properties :
#
#
# Convention : Reuss Voigt Hill
#
# Bulk Modulus (GPa) = 21.30893 29.57782 25.44337
# Shear Modulus (GPa) = 32.43315 44.14617 38.28966
#
# Velocity S-wave (km/s) = 3.88011 4.52685 4.21590
# Velocity P-wave (km/s) = 5.47404 6.40726 5.95895
#
# Compressibility (1/GPa) = 0.04692869
#
# Stress axis : x y z
#
# Youngs Moduli (GPa) = 121.52052 36.89446 86.61933
#
# Poissons Ratio (x) = -0.14950 0.13466
# Poissons Ratio (y) = -0.49242 0.21415
# Poissons Ratio (z) = 0.18892 0.09121
#
# Static dielectric constant tensor:
#      x y z
#    x 1.759130 0.000000 0.000000 
#    y 0.000000 1.799990 0.000000 
#    z 0.000000 0.000000 1.832110 
# 
# From -- ./inp_files/6261.got.cif
#   From: 2010.05.17/outbox.cif.g08.bks.cpg/sg20_4_cif.got.tgz:6261.got - 2010.06.03 22:52:26.
