data_PCOD9319554
_publ_section_title
;
Structure prediction by ZEFSAII (Michael W. Deem and Ramdas Pophale) SiO2 
 PCOD9319554
Probable space group: C 2 2 21
;
_chemical_formula_sum "Si O2"
_cell_formula_units_Z 56
_cell_length_a 15.410349
_cell_length_b 8.503547
_cell_length_c 19.626693
_cell_angle_alpha 90.000000
_cell_angle_beta 90.000000
_cell_angle_gamma 90.000000
_cell_volume 2571.933410
_symmetry_space_group_name_H-M "C 2 2 21"
_symmetry_group_IT_number 20
_symmetry_cell_setting 'orthorhombic'
loop_
_space_group_symop_operation_xyz
x,y,z
-x,-y,1/2+z
x,-y,-z
-x,y,1/2-z
1/2+x,1/2+y,z
1/2-x,1/2-y,1/2+z
1/2+x,1/2-y,-z
1/2-x,1/2+y,1/2-z
loop_
_atom_site_type_symbol
_atom_site_label
_atom_site_fract_x
_atom_site_fract_y
_atom_site_fract_z
Si Si1 0.046063 0.921808 0.927658
Si Si2 0.367386 0.072684 0.574313
Si Si3 0.744451 0.491994 0.305179
Si Si4 0.724724 0.456316 0.080337
Si Si5 0.176033 0.666187 0.312199
Si Si6 0.127627 0.228540 0.368961
Si Si7 0.016432 0.466536 0.669979
O O1 0.096224 0.751647 0.930500
O O2 0.122261 0.039005 0.898076
O O3 0.950080 0.880936 0.898896
O O4 0.029061 0.000000 0.000000
O O5 0.356947 0.000000 0.500000
O O6 0.282322 0.050508 0.620476
O O7 0.437911 0.975933 0.618284
O O8 0.815037 0.547651 0.251334
O O9 0.704364 0.330029 0.281691
O O10 0.672591 0.626040 0.310806
O O11 0.766432 0.591227 0.128007
O O12 0.788059 0.303851 0.090775
O O13 0.727341 0.500000 0.000000
O O14 0.079743 0.679720 0.341862
O O15 0.074824 0.380948 0.346027
O O16 0.000000 0.468403 0.750000
#
# Coordination Sequence:
#
# PCOD9319554 Si02
#       7
#     8   8   8   8   8   8   8
#     4  10  23  44  67 102 142 185 233 297 357 435
#     4  11  25  43  71 101 142 187 233 293 365 433
#     4  12  25  43  66 103 137 185 236 290 359 429
#     4  10  22  43  70  97 137 188 227 294 366 416
#     4  11  23  43  69  98 138 181 236 286 355 432
#     4  10  25  40  69 101 138 188 231 295 352 439
#     4  10  21  45  69  97 138 181 233 293 359 432
#
# _framework density 21.773503999999999
#
# number of rings (size 3 to 8) (size 9 to 14) (size 15 to 20)
#    0.000    1.429    2.857    1.714    4.000    8.000 
#    0.000    0.714    0.000    0.000    0.000    0.000 
#    0.000    0.000    0.000    0.000    0.000    0.000 
#
# Total GULP energy -155942.643749 kJ/mol
# GULP energy per Si atom -5569.380134 kJ/mol
# Density = 2.172395 g / cm^3
# Si number density = 21.773504 Si / 1000 Ang^3
#
#
#
# Elastic Constant Matrix: (Units=GPa)
#
#
# Indices 1 2 3 4 5 6 
#
# 1 101.8131 7.2879 -5.1485 0.0000 0.0000 0.0000
# 2 7.2879 43.6019 -9.6523 0.0000 0.0000 0.0000
# 3 -5.1485 -9.6523 56.7962 0.0000 0.0000 0.0000
# 4 0.0000 0.0000 0.0000 30.4470 0.0000 0.0000
# 5 0.0000 0.0000 0.0000 0.0000 33.4418 0.0000
# 6 0.0000 0.0000 0.0000 0.0000 0.0000 23.8106
#
#
#
# Elastic Compliance Matrix: (Units=1/GPa)
#
#
# Indices 1 2 3 4 5 6 
#
# 1 0.009964 -0.001523 0.000644 0.000000 0.000000 0.000000
# 2 -0.001523 0.024064 0.003952 0.000000 0.000000 0.000000
# 3 0.000644 0.003952 0.018337 0.000000 0.000000 0.000000
# 4 0.000000 0.000000 0.000000 0.032844 0.000000 0.000000
# 5 0.000000 0.000000 0.000000 0.000000 0.029903 0.000000
# 6 0.000000 0.000000 0.000000 0.000000 0.000000 0.041998
#
#
# Mechanical properties :
#
#
# Convention : Reuss Voigt Hill
#
# Bulk Modulus (GPa) = 17.09082 20.79836 18.94459
# Shear Modulus (GPa) = 29.33132 31.52149 30.42640
#
# Velocity S-wave (km/s) = 3.67428 3.80899 3.74224
# Velocity P-wave (km/s) = 5.08595 5.37749 5.23375
#
# Compressibility (1/GPa) = 0.05851094
#
# Stress axis : x y z
#
# Youngs Moduli (GPa) = 100.36632 41.55570 54.53517
#
# Poissons Ratio (x) = 0.06328 -0.03514
# Poissons Ratio (y) = 0.15283 -0.21550
# Poissons Ratio (z) = -0.06468 -0.16421
#
# Static dielectric constant tensor:
#      x y z
#    x 1.850680 0.000000 0.000000 
#    y 0.000000 1.827350 0.000000 
#    z 0.000000 0.000000 1.758710 
# 
# From -- ./inp_files/27543.got.cif
#   From: 2010.05.17/outbox.cif.g08.bks.cpg/sg20_14_cif.got.tgz:27543.got - 2010.06.03 22:52:26.
