data_PCOD9319928
_publ_section_title
;
Structure prediction by ZEFSAII (Michael W. Deem and Ramdas Pophale) SiO2 
 PCOD9319928
Probable space group: C 2 2 21
;
_chemical_formula_sum "Si O2"
_cell_formula_units_Z 48
_cell_length_a 10.145141
_cell_length_b 15.164141
_cell_length_c 15.080209
_cell_angle_alpha 90.000000
_cell_angle_beta 90.000000
_cell_angle_gamma 90.000000
_cell_volume 2319.974770
_symmetry_space_group_name_H-M "C 2 2 21"
_symmetry_group_IT_number 20
_symmetry_cell_setting 'orthorhombic'
loop_
_space_group_symop_operation_xyz
x,y,z
-x,-y,1/2+z
x,-y,-z
-x,y,1/2-z
1/2+x,1/2+y,z
1/2-x,1/2-y,1/2+z
1/2+x,1/2-y,-z
1/2-x,1/2+y,1/2-z
loop_
_atom_site_type_symbol
_atom_site_label
_atom_site_fract_x
_atom_site_fract_y
_atom_site_fract_z
Si Si1 0.759445 0.235639 0.615655
Si Si2 0.551095 0.588155 0.913803
Si Si3 0.132614 0.096172 0.113097
Si Si4 0.476744 0.794125 0.351792
Si Si5 0.718504 0.324169 0.428839
Si Si6 0.352368 0.826663 0.786554
O O1 0.617489 0.190025 0.604614
O O2 0.769142 0.287356 0.523203
O O3 0.764639 0.299160 0.701050
O O4 0.876243 0.167163 0.636581
O O5 0.560119 0.495040 0.864883
O O6 0.400567 0.608370 0.938870
O O7 0.633110 0.591903 0.006249
O O8 0.062692 0.190214 0.133854
O O9 0.726936 0.096765 0.337739
O O10 0.500000 0.809345 0.250000
O O11 0.354452 0.852121 0.383426
O O12 0.657496 0.250194 0.361795
O O13 0.500000 0.842047 0.750000
#
# Coordination Sequence:
#
# PCOD9319928 Si02
#       6
#     8   8   8   8   8   8
#     4  12  20  37  66  95 125 173 217 267 318 383
#     4  11  22  39  68  94 127 170 214 275 325 387
#     4  10  22  41  62  92 133 166 214 268 342 383
#     4  11  21  39  62  90 130 173 214 268 327 380
#     4  11  21  38  63  97 123 165 229 265 309 396
#     4  11  22  38  65  99 129 176 219 267 322 399
#
# _framework density 20.689881
#
# number of rings (size 3 to 8) (size 9 to 14) (size 15 to 20)
#    0.000    1.000   10.000    0.000    0.000    0.000 
#    3.000    0.833    3.667    2.000    0.000    0.000 
#    0.000    0.000    0.000    0.000    0.000    0.000 
#
# Total GULP energy -133671.608472 kJ/mol
# GULP energy per Si atom -5569.650353 kJ/mol
# Density = 2.064279 g / cm^3
# Si number density = 20.689881 Si / 1000 Ang^3
#
#
#
# Elastic Constant Matrix: (Units=GPa)
#
#
# Indices 1 2 3 4 5 6 
#
# 1 125.0337 24.7147 6.7271 0.0000 0.0000 0.0000
# 2 24.7147 34.2636 7.9659 0.0000 0.0000 0.0000
# 3 6.7271 7.9659 93.2022 0.0000 0.0000 0.0000
# 4 0.0000 0.0000 0.0000 11.7051 0.0000 0.0000
# 5 0.0000 0.0000 0.0000 0.0000 35.8265 0.0000
# 6 0.0000 0.0000 0.0000 0.0000 0.0000 10.0561
#
#
#
# Elastic Compliance Matrix: (Units=1/GPa)
#
#
# Indices 1 2 3 4 5 6 
#
# 1 0.009329 -0.006706 -0.000100 0.000000 0.000000 0.000000
# 2 -0.006706 0.034597 -0.002473 0.000000 0.000000 0.000000
# 3 -0.000100 -0.002473 0.010948 0.000000 0.000000 0.000000
# 4 0.000000 0.000000 0.000000 0.085433 0.000000 0.000000
# 5 0.000000 0.000000 0.000000 0.000000 0.027912 0.000000
# 6 0.000000 0.000000 0.000000 0.000000 0.000000 0.099443
#
#
# Mechanical properties :
#
#
# Convention : Reuss Voigt Hill
#
# Bulk Modulus (GPa) = 27.53584 36.81277 32.17430
# Shear Modulus (GPa) = 16.76026 25.72364 21.24195
#
# Velocity S-wave (km/s) = 2.84926 3.52987 3.20767
# Velocity P-wave (km/s) = 4.91550 5.86895 5.41325
#
# Compressibility (1/GPa) = 0.03631631
#
# Stress axis : x y z
#
# Youngs Moduli (GPa) = 107.19623 28.90405 91.34126
#
# Poissons Ratio (x) = 0.19382 0.00915
# Poissons Ratio (y) = 0.71881 0.22589
# Poissons Ratio (z) = 0.01074 0.07148
#
# Static dielectric constant tensor:
#      x y z
#    x 1.940980 0.000000 0.000000 
#    y 0.000000 1.834230 0.000000 
#    z 0.000000 0.000000 1.789470 
# 
# From -- ./inp_files/19922.got.cif
#   From: 2010.05.17/outbox.cif.g08.bks.cpg/sg20_10_cif.got.tgz:19922.got - 2010.06.03 22:52:26.
