data_PCOD9319927
_publ_section_title
;
Structure prediction by ZEFSAII (Michael W. Deem and Ramdas Pophale) SiO2 
 PCOD9319927
Probable space group: C 2 2 21
;
_chemical_formula_sum "Si O2"
_cell_formula_units_Z 48
_cell_length_a 28.488265
_cell_length_b 5.114014
_cell_length_c 16.476080
_cell_angle_alpha 90.000000
_cell_angle_beta 90.000000
_cell_angle_gamma 90.000000
_cell_volume 2400.389980
_symmetry_space_group_name_H-M "C 2 2 21"
_symmetry_group_IT_number 20
_symmetry_cell_setting 'orthorhombic'
loop_
_space_group_symop_operation_xyz
x,y,z
-x,-y,1/2+z
x,-y,-z
-x,y,1/2-z
1/2+x,1/2+y,z
1/2-x,1/2-y,1/2+z
1/2+x,1/2-y,-z
1/2-x,1/2+y,1/2-z
loop_
_atom_site_type_symbol
_atom_site_label
_atom_site_fract_x
_atom_site_fract_y
_atom_site_fract_z
Si Si1 0.387887 0.383147 0.826188
Si Si2 0.694674 0.257236 0.553292
Si Si3 0.488058 0.500900 0.902221
Si Si4 0.953821 0.501202 0.597271
Si Si5 0.236959 0.275656 0.800276
Si Si6 0.630296 0.882833 0.785978
O O1 0.351919 0.358261 0.901034
O O2 0.440334 0.414288 0.859830
O O3 0.378329 0.629699 0.769048
O O4 0.378272 0.128422 0.772519
O O5 0.712092 0.500000 0.500000
O O6 0.733553 0.195849 0.621059
O O7 0.685176 0.000000 0.500000
O O8 0.506028 0.789781 0.880518
O O9 0.528129 0.289675 0.880403
O O10 0.481631 0.500000 0.000000
O O11 0.947788 0.500000 0.500000
O O12 0.906761 0.414537 0.641848
O O13 0.262030 0.525651 0.759101
O O14 0.183737 0.363146 0.816262
#
# Coordination Sequence:
#
# PCOD9319927 Si02
#       6
#     8   8   8   8   8   8
#     4  12  24  40  66  98 132 169 216 269 335 399
#     4  12  25  42  67 100 128 168 221 272 320 396
#     4  10  22  41  62  91 132 176 208 269 333 377
#     4  10  23  42  63  91 130 171 222 269 317 389
#     4  12  23  46  67  91 134 177 213 269 343 392
#     4  12  24  41  68  95 126 177 215 272 335 389
#
# _framework density 19.996751
#
# number of rings (size 3 to 8) (size 9 to 14) (size 15 to 20)
#    0.000    0.667    3.333    4.500    0.000    6.667 
#    0.000    2.500    0.000    0.000    0.000    0.000 
#    0.000    0.000    0.000    0.000    0.000    0.000 
#
# Total GULP energy -134276.110295 kJ/mol
# GULP energy per Si atom -5594.837929 kJ/mol
# Density = 1.995124 g / cm^3
# Si number density = 19.996751 Si / 1000 Ang^3
#
#
#
# Elastic Constant Matrix: (Units=GPa)
#
#
# Indices 1 2 3 4 5 6 
#
# 1 120.8366 11.8021 51.7283 0.0000 0.0000 0.0000
# 2 11.8021 133.6040 33.4794 0.0000 0.0000 0.0000
# 3 51.7283 33.4794 65.1812 0.0000 0.0000 0.0000
# 4 0.0000 0.0000 0.0000 41.5907 0.0000 0.0000
# 5 0.0000 0.0000 0.0000 0.0000 14.0771 0.0000
# 6 0.0000 0.0000 0.0000 0.0000 0.0000 40.3451
#
#
#
# Elastic Compliance Matrix: (Units=1/GPa)
#
#
# Indices 1 2 3 4 5 6 
#
# 1 0.012835 0.001628 -0.011022 0.000000 0.000000 0.000000
# 2 0.001628 0.008797 -0.005811 0.000000 0.000000 0.000000
# 3 -0.011022 -0.005811 0.027074 0.000000 0.000000 0.000000
# 4 0.000000 0.000000 0.000000 0.024044 0.000000 0.000000
# 5 0.000000 0.000000 0.000000 0.000000 0.071037 0.000000
# 6 0.000000 0.000000 0.000000 0.000000 0.000000 0.024786
#
#
# Mechanical properties :
#
#
# Convention : Reuss Voigt Hill
#
# Bulk Modulus (GPa) = 54.65546 57.07125 55.86335
# Shear Modulus (GPa) = 24.38055 34.04340 29.21197
#
# Velocity S-wave (km/s) = 3.49553 4.13055 3.82623
# Velocity P-wave (km/s) = 6.60932 7.16595 6.89325
#
# Compressibility (1/GPa) = 0.01829643
#
# Stress axis : x y z
#
# Youngs Moduli (GPa) = 77.91129 113.67450 36.93606
#
# Poissons Ratio (x) = -0.18509 0.40712
# Poissons Ratio (y) = -0.12686 0.21462
# Poissons Ratio (z) = 0.85877 0.66052
#
# Static dielectric constant tensor:
#      x y z
#    x 1.687490 0.000000 0.000000 
#    y 0.000000 1.676130 0.000000 
#    z 0.000000 0.000000 1.502150 
# 
# From -- ./inp_files/22144.got.cif
#   From: 2010.05.17/outbox.cif.g08.bks.cpg/sg20_12_cif.got.tgz:22144.got - 2010.06.03 22:52:26.
