data_PCOD9319775
_publ_section_title
;
Structure prediction by ZEFSAII (Michael W. Deem and Ramdas Pophale) SiO2 
 PCOD9319775
Probable space group: C 2 2 21
;
_chemical_formula_sum "Si O2"
_cell_formula_units_Z 48
_cell_length_a 18.574916
_cell_length_b 9.837936
_cell_length_c 10.483365
_cell_angle_alpha 90.000000
_cell_angle_beta 90.000000
_cell_angle_gamma 90.000000
_cell_volume 1915.717905
_symmetry_space_group_name_H-M "C 2 2 21"
_symmetry_group_IT_number 20
_symmetry_cell_setting 'orthorhombic'
loop_
_space_group_symop_operation_xyz
x,y,z
-x,-y,1/2+z
x,-y,-z
-x,y,1/2-z
1/2+x,1/2+y,z
1/2-x,1/2-y,1/2+z
1/2+x,1/2-y,-z
1/2-x,1/2+y,1/2-z
loop_
_atom_site_type_symbol
_atom_site_label
_atom_site_fract_x
_atom_site_fract_y
_atom_site_fract_z
Si Si1 0.717812 0.545930 0.717268
Si Si2 0.117945 0.312317 0.436316
Si Si3 0.061575 0.029866 0.355391
Si Si4 0.265144 0.310796 0.595923
Si Si5 0.927271 0.580382 0.185214
Si Si6 0.841966 0.621120 0.420640
O O1 0.635583 0.551987 0.670026
O O2 0.720182 0.458639 0.846988
O O3 0.751786 0.696129 0.706191
O O4 0.767689 0.451840 0.625289
O O5 0.091565 0.184428 0.357216
O O6 0.193982 0.303871 0.508405
O O7 0.063142 0.338217 0.554631
O O8 0.117356 0.446908 0.351464
O O9 0.000000 0.008593 0.250000
O O10 0.036462 0.000000 0.500000
O O11 0.328003 0.248638 0.509900
O O12 0.884549 0.658508 0.294287
O O13 0.000000 0.535538 0.250000
O O14 0.880165 0.500000 0.500000
#
# Coordination Sequence:
#
# PCOD9319775 Si02
#       6
#     8   8   8   8   8   8
#     4  11  23  45  75 107 150 197 259 315 392 455
#     4  11  24  46  73 104 147 197 247 315 388 456
#     4  12  26  49  77 104 154 211 258 321 389 469
#     4  11  23  44  77 111 149 201 253 326 383 465
#     4  11  26  44  70 108 150 192 246 314 389 463
#     4  10  22  39  68 104 147 186 242 313 371 457
#
# _framework density 25.055882
#
# number of rings (size 3 to 8) (size 9 to 14) (size 15 to 20)
#    0.000    1.000    5.000    1.000    7.000    2.000 
#    0.000    3.333    0.000    0.000    0.000    0.000 
#    0.000    0.000    0.000    0.000    0.000    0.000 
#
# Total GULP energy -134479.522444 kJ/mol
# GULP energy per Si atom -5603.313435 kJ/mol
# Density = 2.499885 g / cm^3
# Si number density = 25.055882 Si / 1000 Ang^3
#
#
#
# Elastic Constant Matrix: (Units=GPa)
#
#
# Indices 1 2 3 4 5 6 
#
# 1 61.5914 9.0394 35.5753 0.0000 0.0000 0.0000
# 2 9.0394 106.9473 32.0347 0.0000 0.0000 0.0000
# 3 35.5753 32.0347 121.6998 0.0000 0.0000 0.0000
# 4 0.0000 0.0000 0.0000 53.3593 0.0000 0.0000
# 5 0.0000 0.0000 0.0000 0.0000 37.2546 0.0000
# 6 0.0000 0.0000 0.0000 0.0000 0.0000 23.1316
#
#
#
# Elastic Compliance Matrix: (Units=1/GPa)
#
#
# Indices 1 2 3 4 5 6 
#
# 1 0.019535 0.000064 -0.005727 0.000000 0.000000 0.000000
# 2 0.000064 0.010151 -0.002691 0.000000 0.000000 0.000000
# 3 -0.005727 -0.002691 0.010599 0.000000 0.000000 0.000000
# 4 0.000000 0.000000 0.000000 0.018741 0.000000 0.000000
# 5 0.000000 0.000000 0.000000 0.000000 0.026842 0.000000
# 6 0.000000 0.000000 0.000000 0.000000 0.000000 0.043231
#
#
# Mechanical properties :
#
#
# Convention : Reuss Voigt Hill
#
# Bulk Modulus (GPa) = 42.41309 49.28192 45.84750
# Shear Modulus (GPa) = 32.53810 36.98836 34.76323
#
# Velocity S-wave (km/s) = 3.60755 3.84635 3.72886
# Velocity P-wave (km/s) = 5.85804 6.27992 6.07265
#
# Compressibility (1/GPa) = 0.02357763
#
# Stress axis : x y z
#
# Youngs Moduli (GPa) = 51.19093 98.51283 94.34435
#
# Poissons Ratio (x) = -0.00635 0.54034
# Poissons Ratio (y) = -0.00330 0.25387
# Poissons Ratio (z) = 0.29319 0.26508
#
# Static dielectric constant tensor:
#      x y z
#    x 1.966420 0.000000 0.000000 
#    y 0.000000 1.989730 0.000000 
#    z 0.000000 0.000000 2.036980 
# 
# From -- ./inp_files/15725.got.cif
#   From: 2010.05.17/outbox.cif.g08.bks.cpg/sg20_8_cif.got.tgz:15725.got - 2010.06.03 22:52:26.
