data_PCOD9319303
_publ_section_title
;
Structure prediction by ZEFSAII (Michael W. Deem and Ramdas Pophale) SiO2 
 PCOD9319303
Probable space group: C 2 2 21
;
_chemical_formula_sum "Si O2"
_cell_formula_units_Z 32
_cell_length_a 5.326101
_cell_length_b 28.446081
_cell_length_c 8.757370
_cell_angle_alpha 90.000000
_cell_angle_beta 90.000000
_cell_angle_gamma 90.000000
_cell_volume 1326.800233
_symmetry_space_group_name_H-M "C 2 2 21"
_symmetry_group_IT_number 20
_symmetry_cell_setting 'orthorhombic'
loop_
_space_group_symop_operation_xyz
x,y,z
-x,-y,1/2+z
x,-y,-z
-x,y,1/2-z
1/2+x,1/2+y,z
1/2-x,1/2-y,1/2+z
1/2+x,1/2-y,-z
1/2-x,1/2+y,1/2-z
loop_
_atom_site_type_symbol
_atom_site_label
_atom_site_fract_x
_atom_site_fract_y
_atom_site_fract_z
Si Si1 0.248749 0.992837 0.822442
Si Si2 0.404628 0.235877 0.584260
Si Si3 0.748812 0.612458 0.306888
Si Si4 0.255758 0.128214 0.652349
O O1 0.500000 0.012336 0.750000
O O2 0.000000 0.014161 0.750000
O O3 0.248123 0.937371 0.782588
O O4 0.247742 0.000000 0.000000
O O5 0.500000 0.252446 0.750000
O O6 0.158552 0.262242 0.518339
O O7 0.306303 0.182579 0.606727
O O8 0.500000 0.637951 0.250000
O O9 0.741824 0.603174 0.487444
O O10 0.000000 0.637409 0.250000
O O11 0.500000 0.114286 0.750000
O O12 0.000000 0.124634 0.750000
#
# Coordination Sequence:
#
# PCOD9319303 Si02
#       4
#     8   8   8   8
#     4  10  21  41  64  92 126 161 204 257 311 376
#     4  11  23  40  61  91 125 165 211 262 317 372
#     4  10  22  41  62  92 123 161 210 255 312 377
#     4  11  23  42  63  89 126 167 211 262 314 373
#
# _framework density 24.118176999999999
#
# number of rings (size 3 to 8) (size 9 to 14) (size 15 to 20)
#    0.000    1.500    0.000    6.000    0.000    3.000 
#    0.000   30.000    0.000    0.000    0.000    0.000 
#    0.000    0.000    0.000    0.000    0.000    0.000 
#
# Total GULP energy -89562.091057 kJ/mol
# GULP energy per Si atom -5597.630691 kJ/mol
# Density = 2.406328 g / cm^3
# Si number density = 24.118177 Si / 1000 Ang^3
#
#
#
# Elastic Constant Matrix: (Units=GPa)
#
#
# Indices 1 2 3 4 5 6 
#
# 1 287.3771 6.4216 118.8329 0.0000 0.0000 0.0000
# 2 6.4216 93.1809 30.9563 0.0000 0.0000 0.0000
# 3 118.8329 30.9563 250.7094 0.0000 0.0000 0.0000
# 4 0.0000 0.0000 0.0000 33.5116 0.0000 0.0000
# 5 0.0000 0.0000 0.0000 0.0000 63.7277 0.0000
# 6 0.0000 0.0000 0.0000 0.0000 0.0000 1.9915
#
#
#
# Elastic Compliance Matrix: (Units=1/GPa)
#
#
# Indices 1 2 3 4 5 6 
#
# 1 0.004342 0.000401 -0.002108 0.000000 0.000000 0.000000
# 2 0.000401 0.011228 -0.001576 0.000000 0.000000 0.000000
# 3 -0.002108 -0.001576 0.005182 0.000000 0.000000 0.000000
# 4 0.000000 0.000000 0.000000 0.029840 0.000000 0.000000
# 5 0.000000 0.000000 0.000000 0.000000 0.015692 0.000000
# 6 0.000000 0.000000 0.000000 0.000000 0.000000 0.502136
#
#
# Mechanical properties :
#
#
# Convention : Reuss Voigt Hill
#
# Bulk Modulus (GPa) = 70.49074 104.85433 87.67254
# Shear Modulus (GPa) = 8.62491 51.51660 30.07075
#
# Velocity S-wave (km/s) = 1.89311 4.62671 3.53485
# Velocity P-wave (km/s) = 5.83688 8.49185 7.28631
#
# Compressibility (1/GPa) = 0.01418626
#
# Stress axis : x y z
#
# Youngs Moduli (GPa) = 230.28996 89.06392 192.96219
#
# Poissons Ratio (x) = -0.03571 0.40671
# Poissons Ratio (y) = -0.09234 0.30419
# Poissons Ratio (z) = 0.48539 0.14040
#
# Static dielectric constant tensor:
#      x y z
#    x 1.974370 0.000000 0.000000 
#    y 0.000000 1.982350 0.000000 
#    z 0.000000 0.000000 1.868570 
# 
# From -- ./inp_files/5233.got.cif
#   From: 2010.05.17/outbox.cif.g08.bks.cpg/sg20_3_cif.got.tgz:5233.got - 2010.06.03 22:52:26.
