data_PCOD9319564
_publ_section_title
;
Structure prediction by ZEFSAII (Michael W. Deem and Ramdas Pophale) SiO2 
 PCOD9319564
Probable space group: C 2 2 21
;
_chemical_formula_sum "Si O2"
_cell_formula_units_Z 56
_cell_length_a 5.928637
_cell_length_b 13.360286
_cell_length_c 28.941680
_cell_angle_alpha 90.000000
_cell_angle_beta 90.000000
_cell_angle_gamma 90.000000
_cell_volume 2292.420864
_symmetry_space_group_name_H-M "C 2 2 21"
_symmetry_group_IT_number 20
_symmetry_cell_setting 'orthorhombic'
loop_
_space_group_symop_operation_xyz
x,y,z
-x,-y,1/2+z
x,-y,-z
-x,y,1/2-z
1/2+x,1/2+y,z
1/2-x,1/2-y,1/2+z
1/2+x,1/2-y,-z
1/2-x,1/2+y,1/2-z
loop_
_atom_site_type_symbol
_atom_site_label
_atom_site_fract_x
_atom_site_fract_y
_atom_site_fract_z
Si Si1 0.476392 0.468153 0.681830
Si Si2 0.506094 0.272536 0.391712
Si Si3 0.384684 0.881868 0.142393
Si Si4 0.410766 0.000000 0.500000
Si Si5 0.500000 0.379527 0.250000
Si Si6 0.108914 0.703242 0.487764
Si Si7 0.719024 0.256880 0.801525
Si Si8 0.766103 0.988917 0.095244
O O1 0.619422 0.536388 0.716563
O O2 0.376827 0.367689 0.702012
O O3 0.601548 0.447866 0.633482
O O4 0.291108 0.554765 0.672353
O O5 0.585810 0.199460 0.431845
O O6 0.579924 0.240686 0.340277
O O7 0.621507 0.378910 0.404189
O O8 0.245073 0.302488 0.389944
O O9 0.544418 0.816068 0.173675
O O10 0.518404 0.965324 0.114083
O O11 0.567445 0.905213 0.490585
O O12 0.253001 0.026178 0.456529
O O13 0.697221 0.294936 0.254820
O O14 0.866954 0.759583 0.501339
#
# Coordination Sequence:
#
# PCOD9319564 Si02
#       8
#     8   8   8   4   4   8   8   8
#     4  11  26  45  74 105 144 189 242 305 373 452
#     4  10  22  47  69 101 152 188 244 307 368 435
#     4  10  21  45  73  96 145 188 235 308 362 444
#     4  12  26  44  76 110 152 206 254 310 378 460
#     4  12  24  52  64 110 146 170 252 312 364 470
#     4  12  28  48  72 111 157 199 256 320 369 445
#     4  11  26  45  74 103 137 191 237 294 384 446
#     4  10  22  48  66 108 147 191 247 303 368 445
#
# _framework density 24.428322000000001
#
# number of rings (size 3 to 8) (size 9 to 14) (size 15 to 20)
#    0.000    1.143    5.714    0.857    6.000    3.429 
#    2.571    0.000    0.000    0.000    0.000    0.000 
#    0.000    0.000    0.000    0.000    0.000    0.000 
#
# Total GULP energy -156148.621733 kJ/mol
# GULP energy per Si atom -5576.736490 kJ/mol
# Density = 2.437272 g / cm^3
# Si number density = 24.428322 Si / 1000 Ang^3
#
#
#
# Elastic Constant Matrix: (Units=GPa)
#
#
# Indices 1 2 3 4 5 6 
#
# 1 31.2487 19.4303 -8.0948 0.0000 0.0000 0.0000
# 2 19.4303 121.9889 16.1790 0.0000 0.0000 0.0000
# 3 -8.0948 16.1790 71.8925 0.0000 0.0000 0.0000
# 4 0.0000 0.0000 0.0000 32.1281 0.0000 0.0000
# 5 0.0000 0.0000 0.0000 0.0000 23.5918 0.0000
# 6 0.0000 0.0000 0.0000 0.0000 0.0000 13.5695
#
#
#
# Elastic Compliance Matrix: (Units=1/GPa)
#
#
# Indices 1 2 3 4 5 6 
#
# 1 0.037706 -0.006771 0.005769 0.000000 0.000000 0.000000
# 2 -0.006771 0.009666 -0.002938 0.000000 0.000000 0.000000
# 3 0.005769 -0.002938 0.015220 0.000000 0.000000 0.000000
# 4 0.000000 0.000000 0.000000 0.031125 0.000000 0.000000
# 5 0.000000 0.000000 0.000000 0.000000 0.042388 0.000000
# 6 0.000000 0.000000 0.000000 0.000000 0.000000 0.073694
#
#
# Mechanical properties :
#
#
# Convention : Reuss Voigt Hill
#
# Bulk Modulus (GPa) = 18.27702 31.12878 24.70290
# Shear Modulus (GPa) = 21.19401 27.03225 24.11313
#
# Velocity S-wave (km/s) = 2.94870 3.33016 3.14522
# Velocity P-wave (km/s) = 4.36935 5.24950 4.82952
#
# Compressibility (1/GPa) = 0.05471352
#
# Stress axis : x y z
#
# Youngs Moduli (GPa) = 26.52094 103.46030 65.70158
#
# Poissons Ratio (x) = 0.70053 -0.37905
# Poissons Ratio (y) = 0.17957 0.19300
# Poissons Ratio (z) = -0.15301 0.30392
#
# Static dielectric constant tensor:
#      x y z
#    x 2.072560 0.000000 0.000000 
#    y 0.000000 1.905560 0.000000 
#    z 0.000000 0.000000 2.595740 
# 
# From -- ./inp_files/30787.got.cif
#   From: 2010.05.17/outbox.cif.g08.bks.cpg/sg20_16_cif.got.tgz:30787.got - 2010.06.03 22:52:26.
