data_PCOD9319343
_publ_section_title
;
Structure prediction by ZEFSAII (Michael W. Deem and Ramdas Pophale) SiO2 
 PCOD9319343
Probable space group: C 2 2 21
;
_chemical_formula_sum "Si O2"
_cell_formula_units_Z 44
_cell_length_a 10.198107
_cell_length_b 12.701448
_cell_length_c 13.884481
_cell_angle_alpha 90.000000
_cell_angle_beta 90.000000
_cell_angle_gamma 90.000000
_cell_volume 1798.466901
_symmetry_space_group_name_H-M "C 2 2 21"
_symmetry_group_IT_number 20
_symmetry_cell_setting 'orthorhombic'
loop_
_space_group_symop_operation_xyz
x,y,z
-x,-y,1/2+z
x,-y,-z
-x,y,1/2-z
1/2+x,1/2+y,z
1/2-x,1/2-y,1/2+z
1/2+x,1/2-y,-z
1/2-x,1/2+y,1/2-z
loop_
_atom_site_type_symbol
_atom_site_label
_atom_site_fract_x
_atom_site_fract_y
_atom_site_fract_z
Si Si1 0.353757 0.810959 0.228338
Si Si2 0.033694 0.258822 0.584157
Si Si3 0.500000 0.586507 0.750000
Si Si4 0.254199 0.978676 0.331097
Si Si5 0.256048 0.324411 0.934958
Si Si6 0.949343 0.484901 0.883671
O O1 0.500000 0.774480 0.250000
O O2 0.273383 0.726607 0.170601
O O3 0.281716 0.852950 0.323989
O O4 0.369285 0.916729 0.160735
O O5 0.001327 0.163873 0.657378
O O6 0.894089 0.297892 0.538718
O O7 0.094979 0.364651 0.631820
O O8 0.133350 0.223150 0.502303
O O9 0.368641 0.516475 0.757829
O O10 0.212219 0.053706 0.417201
O O11 0.407837 0.012313 0.332882
O O12 0.957348 0.500000 0.000000
#
# Coordination Sequence:
#
# PCOD9319343 Si02
#       6
#     8   8   4   8   8   8
#     4  10  21  41  69 100 133 184 239 286 344 430
#     4  11  26  44  72 102 141 186 237 291 360 422
#     4  12  26  44  64 102 144 184 224 302 364 424
#     4  10  25  41  66  94 145 180 227 288 362 414
#     4  11  24  47  69 105 137 191 236 294 352 425
#     4  10  21  41  69 100 133 186 232 289 339 427
#
# _framework density 24.465282999999999
#
# number of rings (size 3 to 8) (size 9 to 14) (size 15 to 20)
#    0.000    1.455    3.636    0.000   12.727    0.000 
#    3.273    1.818    0.000    0.000    0.000    0.000 
#    0.000    0.000    0.000    0.000    0.000    0.000 
#
# Total GULP energy -122612.141123 kJ/mol
# GULP energy per Si atom -5573.279142 kJ/mol
# Density = 2.440960 g / cm^3
# Si number density = 24.465283 Si / 1000 Ang^3
#
#
#
# Elastic Constant Matrix: (Units=GPa)
#
#
# Indices 1 2 3 4 5 6 
#
# 1 133.8823 15.4613 35.4356 0.0000 0.0000 0.0000
# 2 15.4613 102.4059 60.0128 0.0000 0.0000 0.0000
# 3 35.4356 60.0128 80.9149 0.0000 0.0000 0.0000
# 4 0.0000 0.0000 0.0000 59.9051 0.0000 0.0000
# 5 0.0000 0.0000 0.0000 0.0000 31.2632 0.0000
# 6 0.0000 0.0000 0.0000 0.0000 0.0000 19.0390
#
#
#
# Elastic Compliance Matrix: (Units=1/GPa)
#
#
# Indices 1 2 3 4 5 6 
#
# 1 0.008595 0.001606 -0.004956 0.000000 0.000000 0.000000
# 2 0.001606 0.017573 -0.013737 0.000000 0.000000 0.000000
# 3 -0.004956 -0.013737 0.024717 0.000000 0.000000 0.000000
# 4 0.000000 0.000000 0.000000 0.016693 0.000000 0.000000
# 5 0.000000 0.000000 0.000000 0.000000 0.031987 0.000000
# 6 0.000000 0.000000 0.000000 0.000000 0.000000 0.052524
#
#
# Mechanical properties :
#
#
# Convention : Reuss Voigt Hill
#
# Bulk Modulus (GPa) = 59.83298 59.89141 59.86219
# Shear Modulus (GPa) = 26.06448 35.79433 30.92941
#
# Velocity S-wave (km/s) = 3.26754 3.82915 3.55944
# Velocity P-wave (km/s) = 6.22456 6.63952 6.43538
#
# Compressibility (1/GPa) = 0.01671319
#
# Stress axis : x y z
#
# Youngs Moduli (GPa) = 116.34142 56.90649 40.45760
#
# Poissons Ratio (x) = -0.09142 0.20050
# Poissons Ratio (y) = -0.18690 0.55576
# Poissons Ratio (z) = 0.57655 0.78171
#
# Static dielectric constant tensor:
#      x y z
#    x 1.979960 0.000000 0.000000 
#    y 0.000000 2.024000 0.000000 
#    z 0.000000 0.000000 2.072380 
# 
# From -- ./inp_files/19840.got.cif
#   From: 2010.05.17/outbox.cif.g08.bks.cpg/sg20_10_cif.got.tgz:19840.got - 2010.06.03 22:52:26.
