data_PCOD9319152
_publ_section_title
;
Structure prediction by ZEFSAII (Michael W. Deem and Ramdas Pophale) SiO2 
 PCOD9319152
Probable space group: C 2 2 21
;
_chemical_formula_sum "Si O2"
_cell_formula_units_Z 40
_cell_length_a 21.829633
_cell_length_b 6.894040
_cell_length_c 11.179274
_cell_angle_alpha 90.000000
_cell_angle_beta 90.000000
_cell_angle_gamma 90.000000
_cell_volume 1682.417720
_symmetry_space_group_name_H-M "C 2 2 21"
_symmetry_group_IT_number 20
_symmetry_cell_setting 'orthorhombic'
loop_
_space_group_symop_operation_xyz
x,y,z
-x,-y,1/2+z
x,-y,-z
-x,y,1/2-z
1/2+x,1/2+y,z
1/2-x,1/2-y,1/2+z
1/2+x,1/2-y,-z
1/2-x,1/2+y,1/2-z
loop_
_atom_site_type_symbol
_atom_site_label
_atom_site_fract_x
_atom_site_fract_y
_atom_site_fract_z
Si Si1 0.339428 0.778196 0.779015
Si Si2 0.261858 0.112430 0.897226
Si Si3 0.512495 0.868785 0.387986
Si Si4 0.366143 0.364119 0.837203
Si Si5 0.122692 0.398399 0.115099
O O1 0.307390 0.938144 0.860712
O O2 0.285071 0.683542 0.701466
O O3 0.371171 0.594077 0.835766
O O4 0.382856 0.909330 0.697197
O O5 0.308757 0.290806 0.916080
O O6 0.224886 0.000000 0.000000
O O7 0.500000 0.938335 0.250000
O O8 0.567920 0.719227 0.372935
O O9 0.532873 0.000000 0.500000
O O10 0.442838 0.813298 0.425040
O O11 0.351146 0.264605 0.705749
O O12 0.155546 0.500000 0.000000
#
# Coordination Sequence:
#
# PCOD9319152 Si02
#       5
#     8   8   8   8   8
#     4  11  23  40  62  95 129 168 219 266 327 398
#     4  11  24  40  61  91 132 168 213 272 327 390
#     4   9  18  39  66  92 130 172 216 278 331 388
#     4  10  21  40  61  91 132 167 221 267 327 398
#     4   9  21  38  64  95 127 169 215 271 331 387
#
# _framework density 23.775310000000001
#
# number of rings (size 3 to 8) (size 9 to 14) (size 15 to 20)
#    0.000    2.000    2.000    0.600    2.800    0.800 
#    0.000   15.000    0.000   26.400    0.000    0.000 
#    0.000    0.000    0.000    0.000    0.000    0.000 
#
# Total GULP energy -111359.934928 kJ/mol
# GULP energy per Si atom -5567.996746 kJ/mol
# Density = 2.372120 g / cm^3
# Si number density = 23.775310 Si / 1000 Ang^3
#
#
#
# Elastic Constant Matrix: (Units=GPa)
#
#
# Indices 1 2 3 4 5 6 
#
# 1 88.4770 23.4206 -4.7313 0.0000 0.0000 0.0000
# 2 23.4206 133.2576 19.8175 0.0000 0.0000 0.0000
# 3 -4.7313 19.8175 51.8481 0.0000 0.0000 0.0000
# 4 0.0000 0.0000 0.0000 24.1914 0.0000 0.0000
# 5 0.0000 0.0000 0.0000 0.0000 20.8231 0.0000
# 6 0.0000 0.0000 0.0000 0.0000 0.0000 15.4496
#
#
#
# Elastic Compliance Matrix: (Units=1/GPa)
#
#
# Indices 1 2 3 4 5 6 
#
# 1 0.012051 -0.002419 0.002024 0.000000 0.000000 0.000000
# 2 -0.002419 0.008442 -0.003448 0.000000 0.000000 0.000000
# 3 0.002024 -0.003448 0.020790 0.000000 0.000000 0.000000
# 4 0.000000 0.000000 0.000000 0.041337 0.000000 0.000000
# 5 0.000000 0.000000 0.000000 0.000000 0.048024 0.000000
# 6 0.000000 0.000000 0.000000 0.000000 0.000000 0.064727
#
#
# Mechanical properties :
#
#
# Convention : Reuss Voigt Hill
#
# Bulk Modulus (GPa) = 29.76358 38.95515 34.35937
# Shear Modulus (GPa) = 23.33681 27.76455 25.55068
#
# Velocity S-wave (km/s) = 3.13638 3.42100 3.28178
# Velocity P-wave (km/s) = 5.06574 5.65903 5.37058
#
# Compressibility (1/GPa) = 0.03359811
#
# Stress axis : x y z
#
# Youngs Moduli (GPa) = 82.98090 118.45365 48.10108
#
# Poissons Ratio (x) = 0.28655 -0.09737
# Poissons Ratio (y) = 0.20074 0.16583
# Poissons Ratio (z) = -0.16798 0.40837
#
# Static dielectric constant tensor:
#      x y z
#    x 1.892840 0.000000 0.000000 
#    y 0.000000 1.877290 0.000000 
#    z 0.000000 0.000000 2.249430 
# 
# From -- ./inp_files/16855.got.cif
#   From: 2010.05.17/outbox.cif.g08.bks.cpg/sg20_9_cif.got.tgz:16855.got - 2010.06.03 22:52:26.
