data_PCOD9319126
_publ_section_title
;
Structure prediction by ZEFSAII (Michael W. Deem and Ramdas Pophale) SiO2 
 PCOD9319126
Probable space group: C 2 2 21
;
_chemical_formula_sum "Si O2"
_cell_formula_units_Z 36
_cell_length_a 25.671875
_cell_length_b 10.769134
_cell_length_c 5.787990
_cell_angle_alpha 90.000000
_cell_angle_beta 90.000000
_cell_angle_gamma 90.000000
_cell_volume 1600.170068
_symmetry_space_group_name_H-M "C 2 2 21"
_symmetry_group_IT_number 20
_symmetry_cell_setting 'orthorhombic'
loop_
_space_group_symop_operation_xyz
x,y,z
-x,-y,1/2+z
x,-y,-z
-x,y,1/2-z
1/2+x,1/2+y,z
1/2-x,1/2-y,1/2+z
1/2+x,1/2-y,-z
1/2-x,1/2+y,1/2-z
loop_
_atom_site_type_symbol
_atom_site_label
_atom_site_fract_x
_atom_site_fract_y
_atom_site_fract_z
Si Si1 0.528670 0.500000 0.000000
Si Si2 0.298116 0.372632 0.867439
Si Si3 0.409560 0.043314 0.755047
Si Si4 0.819704 0.644080 0.202063
Si Si5 0.112746 0.204379 0.057582
O O1 0.500000 0.508688 0.250000
O O2 0.565616 0.619523 0.984050
O O3 0.237505 0.376873 0.802888
O O4 0.339378 0.371671 0.661860
O O5 0.309409 0.500000 0.000000
O O6 0.307644 0.239747 0.992804
O O7 0.407220 0.191440 0.738225
O O8 0.429544 0.000000 0.500000
O O9 0.350568 0.987635 0.779806
O O10 0.434703 0.000000 0.000000
O O11 0.861036 0.722658 0.349223
#
# Coordination Sequence:
#
# PCOD9319126 Si02
#       5
#     4   8   8   8   8
#     4  12  32  54  80 108 146 200 276 342 390 440
#     4  12  23  36  63 103 153 202 251 287 373 470
#     4  10  21  39  68  99 142 192 233 286 371 438
#     4  11  23  39  63 105 155 197 244 294 369 470
#     4  11  24  46  70 101 145 201 245 325 380 446
#
# _framework density 22.497609000000001
#
# number of rings (size 3 to 8) (size 9 to 14) (size 15 to 20)
#    0.000    0.889    4.444    3.333    4.667    0.000 
#    2.000    0.000    0.000   16.000    0.000    0.000 
#    0.000    0.000    0.000    0.000    0.000    0.000 
#
# Total GULP energy -100319.013615 kJ/mol
# GULP energy per Si atom -5573.278534 kJ/mol
# Density = 2.244640 g / cm^3
# Si number density = 22.497609 Si / 1000 Ang^3
#
#
#
# Elastic Constant Matrix: (Units=GPa)
#
#
# Indices 1 2 3 4 5 6 
#
# 1 72.8737 17.5990 17.2798 0.0000 0.0000 0.0000
# 2 17.5990 88.5854 -3.6082 0.0000 0.0000 0.0000
# 3 17.2798 -3.6082 82.9715 0.0000 0.0000 0.0000
# 4 0.0000 0.0000 0.0000 -10.9515 0.0000 0.0000
# 5 0.0000 0.0000 0.0000 0.0000 670.8887 0.0000
# 6 0.0000 0.0000 0.0000 0.0000 0.0000 31.9247
#
#
#
# Elastic Compliance Matrix: (Units=1/GPa)
#
#
# Indices 1 2 3 4 5 6 
#
# 1 0.015275 -0.003170 -0.003319 0.000000 0.000000 0.000000
# 2 -0.003170 0.011966 0.001181 0.000000 0.000000 0.000000
# 3 -0.003319 0.001181 0.012795 0.000000 0.000000 0.000000
# 4 0.000000 0.000000 0.000000 -0.091312 0.000000 0.000000
# 5 0.000000 0.000000 0.000000 0.000000 0.001491 0.000000
# 6 0.000000 0.000000 0.000000 0.000000 0.000000 0.031324
#
#
# Mechanical properties :
#
#
# Convention : Reuss Voigt Hill
#
# Bulk Modulus (GPa) = 33.99099 34.10797 34.04948
# Shear Modulus (GPa) = 2548.78256 152.58304 1350.68280
#
# Velocity S-wave (km/s) = 33.69528 8.24434 24.52897
# Velocity P-wave (km/s) = 39.10206 10.28684 28.59012
#
# Compressibility (1/GPa) = 0.02941956
#
# Stress axis : x y z
#
# Youngs Moduli (GPa) = 65.46692 83.56759 78.15615
#
# Poissons Ratio (x) = 0.26489 0.25940
# Poissons Ratio (y) = 0.20752 -0.09227
# Poissons Ratio (z) = 0.21729 -0.09865
#
# Static dielectric constant tensor:
#      x y z
#    x 1.778200 0.000000 0.000000 
#    y 0.000000 1.519430 0.000000 
#    z 0.000000 0.000000 1.998100 
# 
# From -- ./inp_files/3552.got.cif
#   From: 2010.05.17/outbox.cif.g08.bks.cpg/sg20_2_cif.got.tgz:3552.got - 2010.06.03 22:52:26.
