data_PCOD9319332
_publ_section_title
;
Structure prediction by ZEFSAII (Michael W. Deem and Ramdas Pophale) SiO2 
 PCOD9319332
Probable space group: C 2 2 21
;
_chemical_formula_sum "Si O2"
_cell_formula_units_Z 48
_cell_length_a 14.233899
_cell_length_b 25.331979
_cell_length_c 5.671237
_cell_angle_alpha 90.000000
_cell_angle_beta 90.000000
_cell_angle_gamma 90.000000
_cell_volume 2044.893978
_symmetry_space_group_name_H-M "C 2 2 21"
_symmetry_group_IT_number 20
_symmetry_cell_setting 'orthorhombic'
loop_
_space_group_symop_operation_xyz
x,y,z
-x,-y,1/2+z
x,-y,-z
-x,y,1/2-z
1/2+x,1/2+y,z
1/2-x,1/2-y,1/2+z
1/2+x,1/2-y,-z
1/2-x,1/2+y,1/2-z
loop_
_atom_site_type_symbol
_atom_site_label
_atom_site_fract_x
_atom_site_fract_y
_atom_site_fract_z
Si Si1 0.166070 0.188182 0.794412
Si Si2 0.151114 0.712035 0.953803
Si Si3 0.447124 0.500000 0.000000
Si Si4 0.088029 0.550579 0.117135
Si Si5 0.500000 0.136787 0.750000
Si Si6 0.217183 0.633189 0.333477
Si Si7 0.588003 0.383399 0.570964
O O1 0.241548 0.219128 0.633052
O O2 0.090726 0.157592 0.641845
O O3 0.120654 0.228998 0.977807
O O4 0.238912 0.147163 0.915482
O O5 0.085779 0.679912 0.769729
O O6 0.157221 0.677933 0.196234
O O7 0.500000 0.505210 0.250000
O O8 0.401063 0.557051 0.976828
O O9 0.155535 0.580970 0.299436
O O10 0.000000 0.525552 0.250000
O O11 0.137796 0.500000 0.000000
O O12 0.040124 0.595251 0.947152
O O13 0.313414 0.627261 0.193235
O O14 0.500000 0.378694 0.750000
#
# Coordination Sequence:
#
# PCOD9319332 Si02
#       7
#     8   8   4   8   4   8   8
#     4  11  21  42  71  98 143 188 239 303 361 457
#     4  10  21  41  67  97 138 187 236 297 372 429
#     4  10  24  46  72  98 146 196 236 306 376 440
#     4  11  22  41  68 101 141 184 240 304 371 441
#     4  10  22  42  64 100 140 184 242 304 370 448
#     4  10  23  41  68  98 138 187 239 293 368 444
#     4  10  25  45  70 102 145 184 243 301 371 452
#
# _framework density 23.473099000000001
#
# number of rings (size 3 to 8) (size 9 to 14) (size 15 to 20)
#    0.000    1.667    2.500    1.000    5.833    0.000 
#    1.500    1.667    3.667    0.000    0.000    0.000 
#    0.000    0.000    0.000    0.000    0.000    0.000 
#
# Total GULP energy -133672.255597 kJ/mol
# GULP energy per Si atom -5569.677317 kJ/mol
# Density = 2.341967 g / cm^3
# Si number density = 23.473099 Si / 1000 Ang^3
#
#
#
# Elastic Constant Matrix: (Units=GPa)
#
#
# Indices 1 2 3 4 5 6 
#
# 1 92.6349 40.4500 20.4268 0.0000 0.0000 0.0000
# 2 40.4500 140.1597 27.8500 0.0000 0.0000 0.0000
# 3 20.4268 27.8500 58.8858 0.0000 0.0000 0.0000
# 4 0.0000 0.0000 0.0000 21.3432 0.0000 0.0000
# 5 0.0000 0.0000 0.0000 0.0000 29.2990 0.0000
# 6 0.0000 0.0000 0.0000 0.0000 0.0000 30.6045
#
#
#
# Elastic Compliance Matrix: (Units=1/GPa)
#
#
# Indices 1 2 3 4 5 6 
#
# 1 0.012807 -0.003105 -0.002974 0.000000 0.000000 0.000000
# 2 -0.003105 0.008628 -0.003003 0.000000 0.000000 0.000000
# 3 -0.002974 -0.003003 0.019434 0.000000 0.000000 0.000000
# 4 0.000000 0.000000 0.000000 0.046853 0.000000 0.000000
# 5 0.000000 0.000000 0.000000 0.000000 0.034131 0.000000
# 6 0.000000 0.000000 0.000000 0.000000 0.000000 0.032675
#
#
# Mechanical properties :
#
#
# Convention : Reuss Voigt Hill
#
# Bulk Modulus (GPa) = 44.04568 52.12600 48.08584
# Shear Modulus (GPa) = 27.73769 29.77957 28.75863
#
# Velocity S-wave (km/s) = 3.44129 3.56570 3.50405
# Velocity P-wave (km/s) = 5.88175 6.26157 6.07463
#
# Compressibility (1/GPa) = 0.02270370
#
# Stress axis : x y z
#
# Youngs Moduli (GPa) = 78.08405 115.90699 51.45603
#
# Poissons Ratio (x) = 0.35990 0.15303
# Poissons Ratio (y) = 0.24246 0.15454
# Poissons Ratio (z) = 0.23222 0.34810
#
# Static dielectric constant tensor:
#      x y z
#    x 1.863780 0.000000 0.000000 
#    y 0.000000 1.963530 0.000000 
#    z 0.000000 0.000000 2.298540 
# 
# From -- ./inp_files/2056.got.cif
#   From: 2010.05.17/outbox.cif.g08.bks.cpg/sg20_2_cif.got.tgz:2056.got - 2010.06.03 22:52:26.
