data_PCOD9319884
_publ_section_title
;
Structure prediction by ZEFSAII (Michael W. Deem and Ramdas Pophale) SiO2 
 PCOD9319884
Probable space group: C 2 2 21
;
_chemical_formula_sum "Si O2"
_cell_formula_units_Z 64
_cell_length_a 13.567130
_cell_length_b 7.139646
_cell_length_c 24.726497
_cell_angle_alpha 90.000000
_cell_angle_beta 90.000000
_cell_angle_gamma 90.000000
_cell_volume 2395.119903
_symmetry_space_group_name_H-M "C 2 2 21"
_symmetry_group_IT_number 20
_symmetry_cell_setting 'orthorhombic'
loop_
_space_group_symop_operation_xyz
x,y,z
-x,-y,1/2+z
x,-y,-z
-x,y,1/2-z
1/2+x,1/2+y,z
1/2-x,1/2-y,1/2+z
1/2+x,1/2-y,-z
1/2-x,1/2+y,1/2-z
loop_
_atom_site_type_symbol
_atom_site_label
_atom_site_fract_x
_atom_site_fract_y
_atom_site_fract_z
Si Si1 0.574469 0.332879 0.959047
Si Si2 0.641440 0.480528 0.271118
Si Si3 0.452557 0.487772 0.661144
Si Si4 0.839108 0.471622 0.126345
Si Si5 0.736884 0.148897 0.908089
Si Si6 0.145076 0.142129 0.451281
Si Si7 0.143123 0.462717 0.746908
Si Si8 0.442010 0.069206 0.354280
O O1 0.563477 0.386730 0.895491
O O2 0.673028 0.210952 0.961199
O O3 0.460879 0.279368 0.971020
O O4 0.592639 0.500000 0.000000
O O5 0.619607 0.558390 0.210868
O O6 0.558161 0.549870 0.311707
O O7 0.754666 0.523000 0.280031
O O8 0.627133 0.254693 0.269299
O O9 0.437339 0.707323 0.648985
O O10 0.773491 0.656038 0.117325
O O11 0.808861 0.317574 0.081497
O O12 0.837960 0.426852 0.190879
O O13 0.955101 0.516312 0.118121
O O14 0.651751 0.019353 0.882875
O O15 0.835921 0.024193 0.907991
O O16 0.175138 0.000000 0.500000
O O17 0.062509 0.507318 0.792771
#
# Coordination Sequence:
#
# PCOD9319884 Si02
#       8
#     8   8   8   8   8   8   8   8
#     4  11  26  50  77 110 150 200 266 326 390 469
#     4  10  22  40  68 106 154 203 253 309 393 477
#     4  10  22  44  70 105 157 205 252 326 387 468
#     4  12  25  49  75 109 156 199 253 324 386 458
#     4  12  28  48  80 111 146 202 262 315 396 467
#     4  11  29  52  75 111 152 197 260 330 389 459
#     4  11  23  39  69 112 150 203 250 308 385 474
#     4  11  24  45  73 112 156 200 253 311 393 471
#
# _framework density 26.720998000000002
#
# number of rings (size 3 to 8) (size 9 to 14) (size 15 to 20)
#    0.000    1.000    2.500    2.625    8.750    0.000 
#    0.000    1.250    0.000    1.500    0.000    0.000 
#    0.000    0.000    0.000    0.000    0.000    0.000 
#
# Total GULP energy -178675.462715 kJ/mol
# GULP energy per Si atom -5583.608210 kJ/mol
# Density = 2.666018 g / cm^3
# Si number density = 26.720998 Si / 1000 Ang^3
#
#
#
# Elastic Constant Matrix: (Units=GPa)
#
#
# Indices 1 2 3 4 5 6 
#
# 1 113.0215 24.5990 10.1456 0.0000 0.0000 0.0000
# 2 24.5990 99.1606 -4.1991 0.0000 0.0000 0.0000
# 3 10.1456 -4.1991 12.0072 0.0000 0.0000 0.0000
# 4 0.0000 0.0000 0.0000 4.4415 0.0000 0.0000
# 5 0.0000 0.0000 0.0000 0.0000 -33.7036 0.0000
# 6 0.0000 0.0000 0.0000 0.0000 0.0000 509.4513
#
#
#
# Elastic Compliance Matrix: (Units=1/GPa)
#
#
# Indices 1 2 3 4 5 6 
#
# 1 0.010380 -0.002991 -0.009817 0.000000 0.000000 0.000000
# 2 -0.002991 0.011098 0.006408 0.000000 0.000000 0.000000
# 3 -0.009817 0.006408 0.093819 0.000000 0.000000 0.000000
# 4 0.000000 0.000000 0.000000 0.225151 0.000000 0.000000
# 5 0.000000 0.000000 0.000000 0.000000 -0.029670 0.000000
# 6 0.000000 0.000000 0.000000 0.000000 0.000000 0.001963
#
#
# Mechanical properties :
#
#
# Convention : Reuss Voigt Hill
#
# Bulk Modulus (GPa) = 9.75623 31.69782 20.72703
# Shear Modulus (GPa) = 13.90028 108.94742 61.42385
#
# Velocity S-wave (km/s) = 2.28327 6.39224 4.79969
# Velocity P-wave (km/s) = 3.25732 8.14673 6.20401
#
# Compressibility (1/GPa) = 0.10249860
#
# Stress axis : x y z
#
# Youngs Moduli (GPa) = 96.33909 90.10696 10.65883
#
# Poissons Ratio (x) = 0.26948 0.10463
# Poissons Ratio (y) = 0.28812 -0.06830
# Poissons Ratio (z) = 0.94572 -0.57742
#
# Static dielectric constant tensor:
#      x y z
#    x 2.140290 0.000000 0.000000 
#    y 0.000000 2.117810 0.000000 
#    z 0.000000 0.000000 2.031260 
# 
# From -- ./inp_files/29377.got.cif
#   From: 2010.05.17/outbox.cif.g08.bks.cpg/sg20_15_cif.got.tgz:29377.got - 2010.06.03 22:52:26.
