data_PCOD9319450
_publ_section_title
;
Structure prediction by ZEFSAII (Michael W. Deem and Ramdas Pophale) SiO2 
 PCOD9319450
Probable space group: C 2 2 21
;
_chemical_formula_sum "Si O2"
_cell_formula_units_Z 40
_cell_length_a 6.915876
_cell_length_b 13.163434
_cell_length_c 18.379386
_cell_angle_alpha 90.000000
_cell_angle_beta 90.000000
_cell_angle_gamma 90.000000
_cell_volume 1673.198232
_symmetry_space_group_name_H-M "C 2 2 21"
_symmetry_group_IT_number 20
_symmetry_cell_setting 'orthorhombic'
loop_
_space_group_symop_operation_xyz
x,y,z
-x,-y,1/2+z
x,-y,-z
-x,y,1/2-z
1/2+x,1/2+y,z
1/2-x,1/2-y,1/2+z
1/2+x,1/2-y,-z
1/2-x,1/2+y,1/2-z
loop_
_atom_site_type_symbol
_atom_site_label
_atom_site_fract_x
_atom_site_fract_y
_atom_site_fract_z
Si Si1 0.276993 0.728459 0.909131
Si Si2 0.774350 0.554986 0.068222
Si Si3 0.403288 0.605917 0.676123
Si Si4 0.896791 0.214607 0.176695
Si Si5 0.162042 0.102494 0.460054
O O1 0.366981 0.841418 0.903652
O O2 0.422085 0.647858 0.873517
O O3 0.070052 0.731907 0.869423
O O4 0.259650 0.695655 0.992897
O O5 0.718230 0.477527 0.131762
O O6 0.571379 0.596481 0.035386
O O7 0.871059 0.500000 0.000000
O O8 0.500000 0.567442 0.750000
O O9 0.264272 0.701363 0.693377
O O10 0.812092 0.125650 0.125315
O O11 0.000000 0.177910 0.250000
O O12 0.227080 0.000000 0.500000
#
# Coordination Sequence:
#
# PCOD9319450 Si02
#       5
#     8   8   8   8   8
#     4  11  23  46  69 102 144 193 242 302 372 441
#     4  10  21  42  71 101 141 189 242 301 360 435
#     4  12  24  47  72 101 148 195 238 306 383 436
#     4  11  25  44  70 109 147 190 258 314 366 460
#     4  10  21  43  72 101 143 194 242 305 375 432
#
# _framework density 23.906313000000001
#
# number of rings (size 3 to 8) (size 9 to 14) (size 15 to 20)
#    0.000    1.200    6.000    1.200    2.800    3.200 
#    3.600    1.000    0.000    0.000    0.000    0.000 
#    0.000    0.000    0.000    0.000    0.000    0.000 
#
# Total GULP energy -111843.406057 kJ/mol
# GULP energy per Si atom -5592.170303 kJ/mol
# Density = 2.385190 g / cm^3
# Si number density = 23.906313 Si / 1000 Ang^3
#
#
#
# Elastic Constant Matrix: (Units=GPa)
#
#
# Indices 1 2 3 4 5 6 
#
# 1 88.0534 5.1581 17.3833 0.0000 0.0000 0.0000
# 2 5.1581 133.9761 56.4587 0.0000 0.0000 0.0000
# 3 17.3833 56.4587 170.2864 0.0000 0.0000 0.0000
# 4 0.0000 0.0000 0.0000 35.2645 0.0000 0.0000
# 5 0.0000 0.0000 0.0000 0.0000 14.2750 0.0000
# 6 0.0000 0.0000 0.0000 0.0000 0.0000 25.6212
#
#
#
# Elastic Compliance Matrix: (Units=1/GPa)
#
#
# Indices 1 2 3 4 5 6 
#
# 1 0.011591 0.000061 -0.001203 0.000000 0.000000 0.000000
# 2 0.000061 0.008677 -0.002883 0.000000 0.000000 0.000000
# 3 -0.001203 -0.002883 0.006951 0.000000 0.000000 0.000000
# 4 0.000000 0.000000 0.000000 0.028357 0.000000 0.000000
# 5 0.000000 0.000000 0.000000 0.000000 0.070053 0.000000
# 6 0.000000 0.000000 0.000000 0.000000 0.000000 0.039030
#
#
# Mechanical properties :
#
#
# Convention : Reuss Voigt Hill
#
# Bulk Modulus (GPa) = 52.17155 61.14623 56.65889
# Shear Modulus (GPa) = 27.91761 35.91986 31.91874
#
# Velocity S-wave (km/s) = 3.42101 3.88045 3.65795
# Velocity P-wave (km/s) = 6.12169 6.76093 6.44923
#
# Compressibility (1/GPa) = 0.01916754
#
# Stress axis : x y z
#
# Youngs Moduli (GPa) = 86.27572 115.25290 143.86108
#
# Poissons Ratio (x) = -0.00702 0.17312
# Poissons Ratio (y) = -0.00525 0.41474
# Poissons Ratio (z) = 0.10382 0.33227
#
# Static dielectric constant tensor:
#      x y z
#    x 1.934140 0.000000 0.000000 
#    y 0.000000 1.994680 0.000000 
#    z 0.000000 0.000000 1.928640 
# 
# From -- ./inp_files/23139.got.cif
#   From: 2010.05.17/outbox.cif.g08.bks.cpg/sg20_12_cif.got.tgz:23139.got - 2010.06.03 22:52:26.
