data_PCOD9319600
_publ_section_title
;
Structure prediction by ZEFSAII (Michael W. Deem and Ramdas Pophale) SiO2 
 PCOD9319600
Probable space group: C 2 2 21
;
_chemical_formula_sum "Si O2"
_cell_formula_units_Z 40
_cell_length_a 24.960275
_cell_length_b 10.480698
_cell_length_c 7.716949
_cell_angle_alpha 90.000000
_cell_angle_beta 90.000000
_cell_angle_gamma 90.000000
_cell_volume 2018.762380
_symmetry_space_group_name_H-M "C 2 2 21"
_symmetry_group_IT_number 20
_symmetry_cell_setting 'orthorhombic'
loop_
_space_group_symop_operation_xyz
x,y,z
-x,-y,1/2+z
x,-y,-z
-x,y,1/2-z
1/2+x,1/2+y,z
1/2-x,1/2-y,1/2+z
1/2+x,1/2-y,-z
1/2-x,1/2+y,1/2-z
loop_
_atom_site_type_symbol
_atom_site_label
_atom_site_fract_x
_atom_site_fract_y
_atom_site_fract_z
Si Si1 0.310678 0.771531 0.168807
Si Si2 0.633862 0.488741 0.688091
Si Si3 0.960530 0.874675 0.595279
Si Si4 0.386434 0.144226 0.519639
Si Si5 0.811021 0.744300 0.227210
O O1 0.321189 0.619160 0.170846
O O2 0.354823 0.831982 0.297741
O O3 0.250195 0.782424 0.234767
O O4 0.315305 0.811741 0.967469
O O5 0.607982 0.500000 0.500000
O O6 0.591490 0.438878 0.821340
O O7 0.657075 0.623554 0.736314
O O8 0.934388 0.749820 0.502290
O O9 0.000000 0.832367 0.750000
O O10 0.985280 0.000000 0.500000
O O11 0.340150 0.161116 0.373473
O O12 0.407048 0.000000 0.500000
#
# Coordination Sequence:
#
# PCOD9319600 Si02
#       5
#     8   8   8   8   8
#     4  10  22  34  61  94 131 179 217 256 303 382
#     4   9  20  37  59  91 126 156 220 267 307 373
#     4  11  22  43  72  95 116 161 214 279 330 380
#     4  11  25  43  62  95 137 173 214 263 323 392
#     4  11  20  37  60  94 132 177 214 258 312 371
#
# _framework density 19.814122000000001
#
# number of rings (size 3 to 8) (size 9 to 14) (size 15 to 20)
#    0.000    1.600    4.000    0.600    2.800    0.800 
#    0.000    1.000    0.000    0.000    0.000    0.000 
#    0.000    0.000    0.000    0.000    0.000    0.000 
#
# Total GULP energy -111464.797371 kJ/mol
# GULP energy per Si atom -5573.239869 kJ/mol
# Density = 1.976902 g / cm^3
# Si number density = 19.814122 Si / 1000 Ang^3
#
#
#
# Elastic Constant Matrix: (Units=GPa)
#
#
# Indices 1 2 3 4 5 6 
#
# 1 68.5606 18.3847 13.4479 0.0000 0.0000 0.0000
# 2 18.3847 101.5507 26.3220 0.0000 0.0000 0.0000
# 3 13.4479 26.3220 95.9160 0.0000 0.0000 0.0000
# 4 0.0000 0.0000 0.0000 21.0540 0.0000 0.0000
# 5 0.0000 0.0000 0.0000 0.0000 53.3596 0.0000
# 6 0.0000 0.0000 0.0000 0.0000 0.0000 -35.4257
#
#
#
# Elastic Compliance Matrix: (Units=1/GPa)
#
#
# Indices 1 2 3 4 5 6 
#
# 1 0.015531 -0.002419 -0.001514 0.000000 0.000000 0.000000
# 2 -0.002419 0.010978 -0.002674 0.000000 0.000000 0.000000
# 3 -0.001514 -0.002674 0.011372 0.000000 0.000000 0.000000
# 4 0.000000 0.000000 0.000000 0.047497 0.000000 0.000000
# 5 0.000000 0.000000 0.000000 0.000000 0.018741 0.000000
# 6 0.000000 0.000000 0.000000 0.000000 0.000000 -0.028228
#
#
# Mechanical properties :
#
#
# Convention : Reuss Voigt Hill
#
# Bulk Modulus (GPa) = 40.53815 42.48184 41.50999
# Shear Modulus (GPa) = 51.37330 21.65575 36.51452
#
# Velocity S-wave (km/s) = 5.09744 3.30956 4.29750
# Velocity P-wave (km/s) = 7.42623 6.00758 6.75425
#
# Compressibility (1/GPa) = 0.02466812
#
# Stress axis : x y z
#
# Youngs Moduli (GPa) = 64.38606 91.08885 87.93769
#
# Poissons Ratio (x) = 0.22039 0.13310
# Poissons Ratio (y) = 0.15578 0.23510
# Poissons Ratio (z) = 0.09745 0.24353
#
# Static dielectric constant tensor:
#      x y z
#    x 1.690660 0.000000 0.000000 
#    y 0.000000 1.704440 0.000000 
#    z 0.000000 0.000000 1.781700 
# 
# From -- ./inp_files/11348.got.cif
#   From: 2010.05.17/outbox.cif.g08.bks.cpg/sg20_6_cif.got.tgz:11348.got - 2010.06.03 22:52:26.
