data_PCOD9319823
_publ_section_title
;
Structure prediction by ZEFSAII (Michael W. Deem and Ramdas Pophale) SiO2 
 PCOD9319823
Probable space group: C 2 2 21
;
_chemical_formula_sum "Si O2"
_cell_formula_units_Z 60
_cell_length_a 8.560104
_cell_length_b 29.341171
_cell_length_c 11.973717
_cell_angle_alpha 90.000000
_cell_angle_beta 90.000000
_cell_angle_gamma 90.000000
_cell_volume 3007.360373
_symmetry_space_group_name_H-M "C 2 2 21"
_symmetry_group_IT_number 20
_symmetry_cell_setting 'orthorhombic'
loop_
_space_group_symop_operation_xyz
x,y,z
-x,-y,1/2+z
x,-y,-z
-x,y,1/2-z
1/2+x,1/2+y,z
1/2-x,1/2-y,1/2+z
1/2+x,1/2-y,-z
1/2-x,1/2+y,1/2-z
loop_
_atom_site_type_symbol
_atom_site_label
_atom_site_fract_x
_atom_site_fract_y
_atom_site_fract_z
Si Si1 0.036654 0.447677 0.986846
Si Si2 0.040013 0.727100 0.882886
Si Si3 0.500000 0.099532 0.250000
Si Si4 0.143405 0.195875 0.515465
Si Si5 0.163137 0.127172 0.310326
Si Si6 0.396853 0.552252 0.023027
Si Si7 0.448068 0.621033 0.634105
Si Si8 0.410168 0.131650 0.866485
O O1 0.015463 0.431057 0.860355
O O2 0.989990 0.500000 0.000000
O O3 0.942893 0.412677 0.061690
O O4 0.219086 0.443525 0.022872
O O5 0.000000 0.732050 0.750000
O O6 0.963336 0.767647 0.952038
O O7 0.970289 0.678325 0.920136
O O8 0.220157 0.721590 0.917612
O O9 0.330590 0.125729 0.245824
O O10 0.193371 0.159926 0.417766
O O11 0.050339 0.164880 0.603081
O O12 0.124222 0.075880 0.355681
O O13 0.000000 0.142119 0.250000
O O14 0.519921 0.584501 0.961731
O O15 0.440424 0.500000 0.000000
O O16 0.500000 0.599453 0.750000
O O17 0.272387 0.635999 0.648445
O O18 0.500000 0.127085 0.750000
#
# Coordination Sequence:
#
# PCOD9319823 Si02
#       8
#     8   8   4   8   8   8   8   8
#     4  10  22  40  63  92 130 167 221 270 322 393
#     4  11  23  44  67  95 128 168 213 268 329 399
#     4  10  22  40  64  96 130 182 218 266 344 392
#     4  11  24  44  66  97 130 164 216 270 333 392
#     4  10  22  42  65  94 135 174 219 275 330 403
#     4   9  20  39  59  89 128 170 215 275 320 380
#     4  11  22  39  64  91 123 169 213 263 323 387
#     4  11  23  40  65  90 128 169 212 264 321 387
#
# _framework density 19.951051
#
# number of rings (size 3 to 8) (size 9 to 14) (size 15 to 20)
#    0.000    1.600    0.000    6.000    4.667    1.067 
#    9.600    0.000    1.467    0.000    0.000    0.000 
#    0.000    0.000    0.000    0.000    0.000    0.000 
#
# Total GULP energy -167310.053940 kJ/mol
# GULP energy per Si atom -5577.001798 kJ/mol
# Density = 1.990564 g / cm^3
# Si number density = 19.951051 Si / 1000 Ang^3
#
#
#
# Elastic Constant Matrix: (Units=GPa)
#
#
# Indices 1 2 3 4 5 6 
#
# 1 118.0416 22.3592 35.6103 0.0000 0.0000 0.0000
# 2 22.3592 85.2198 9.5381 0.0000 0.0000 0.0000
# 3 35.6103 9.5381 51.4743 0.0000 0.0000 0.0000
# 4 0.0000 0.0000 0.0000 24.8619 0.0000 0.0000
# 5 0.0000 0.0000 0.0000 0.0000 33.7203 0.0000
# 6 0.0000 0.0000 0.0000 0.0000 0.0000 15.3464
#
#
#
# Elastic Compliance Matrix: (Units=1/GPa)
#
#
# Indices 1 2 3 4 5 6 
#
# 1 0.011058 -0.002088 -0.007263 0.000000 0.000000 0.000000
# 2 -0.002088 0.012377 -0.000849 0.000000 0.000000 0.000000
# 3 -0.007263 -0.000849 0.024609 0.000000 0.000000 0.000000
# 4 0.000000 0.000000 0.000000 0.040222 0.000000 0.000000
# 5 0.000000 0.000000 0.000000 0.000000 0.029656 0.000000
# 6 0.000000 0.000000 0.000000 0.000000 0.000000 0.065162
#
#
# Mechanical properties :
#
#
# Convention : Reuss Voigt Hill
#
# Bulk Modulus (GPa) = 36.17416 43.30568 39.73992
# Shear Modulus (GPa) = 23.50728 27.26758 25.38743
#
# Velocity S-wave (km/s) = 3.43629 3.70093 3.57106
# Velocity P-wave (km/s) = 5.82365 6.32579 6.07991
#
# Compressibility (1/GPa) = 0.02764404
#
# Stress axis : x y z
#
# Youngs Moduli (GPa) = 90.42952 80.79299 40.63519
#
# Poissons Ratio (x) = 0.16873 0.29514
# Poissons Ratio (y) = 0.18886 0.03449
# Poissons Ratio (z) = 0.65681 0.06857
#
# Static dielectric constant tensor:
#      x y z
#    x 1.689790 0.000000 0.000000 
#    y 0.000000 1.687050 0.000000 
#    z 0.000000 0.000000 1.794140 
# 
# From -- ./inp_files/13303.got.cif
#   From: 2010.05.17/outbox.cif.g08.bks.cpg/sg20_7_cif.got.tgz:13303.got - 2010.06.03 22:52:26.
