data_PCOD9319604
_publ_section_title
;
Structure prediction by ZEFSAII (Michael W. Deem and Ramdas Pophale) SiO2 
 PCOD9319604
Probable space group: C 2 2 21
;
_chemical_formula_sum "Si O2"
_cell_formula_units_Z 64
_cell_length_a 24.528863
_cell_length_b 15.702154
_cell_length_c 9.607758
_cell_angle_alpha 90.000000
_cell_angle_beta 90.000000
_cell_angle_gamma 90.000000
_cell_volume 3700.485489
_symmetry_space_group_name_H-M "C 2 2 21"
_symmetry_group_IT_number 20
_symmetry_cell_setting 'orthorhombic'
loop_
_space_group_symop_operation_xyz
x,y,z
-x,-y,1/2+z
x,-y,-z
-x,y,1/2-z
1/2+x,1/2+y,z
1/2-x,1/2-y,1/2+z
1/2+x,1/2-y,-z
1/2-x,1/2+y,1/2-z
loop_
_atom_site_type_symbol
_atom_site_label
_atom_site_fract_x
_atom_site_fract_y
_atom_site_fract_z
Si Si1 0.133118 0.383376 0.973779
Si Si2 0.936322 0.365816 0.784435
Si Si3 0.239417 0.519729 0.151959
Si Si4 0.218263 0.248722 0.057198
Si Si5 0.735464 0.089307 0.580060
Si Si6 0.434671 0.061453 0.742515
Si Si7 0.299675 0.319990 0.846344
Si Si8 0.122748 0.689815 0.554279
O O1 0.094547 0.345716 0.856870
O O2 0.180542 0.436826 0.888451
O O3 0.164509 0.304756 0.042243
O O4 0.095700 0.429030 0.092386
O O5 0.924290 0.467253 0.805669
O O6 0.000000 0.356363 0.750000
O O7 0.911447 0.313307 0.912112
O O8 0.233051 0.441593 0.258521
O O9 0.284297 0.586397 0.206657
O O10 0.261593 0.500000 0.000000
O O11 0.220363 0.158930 0.972690
O O12 0.265180 0.304116 0.985453
O O13 0.225718 0.234953 0.220575
O O14 0.678972 0.135845 0.537414
O O15 0.740460 0.000000 0.500000
O O16 0.500000 0.069570 0.750000
O O17 0.410792 0.136198 0.834845
O O18 0.358328 0.281197 0.884499
#
# Coordination Sequence:
#
# PCOD9319604 Si02
#       8
#     8   8   8   8   8   8   8   8
#     4  11  21  36  53  73 110 148 182 221 270 321
#     4  11  23  35  50  77 107 143 188 233 263 307
#     4  11  22  33  53  79 111 141 181 221 266 326
#     4  10  22  35  52  76 107 141 182 219 268 320
#     4  11  20  33  53  76 106 142 181 218 261 325
#     4  11  21  35  53  75 106 145 188 232 267 303
#     4  10  22  36  51  77 106 141 181 222 266 324
#     4  11  21  34  53  73 106 147 186 216 272 324
#
# _framework density 17.295027999999999
#
# number of rings (size 3 to 8) (size 9 to 14) (size 15 to 20)
#    0.000    1.250    2.500    5.250   10.500    2.000 
#    0.000    0.000    0.000    0.000    0.000    0.000 
#    0.000   15.000    0.000    0.000    0.000    0.000 
#
# Total GULP energy -178219.577343 kJ/mol
# GULP energy per Si atom -5569.361792 kJ/mol
# Density = 1.725566 g / cm^3
# Si number density = 17.295028 Si / 1000 Ang^3
#
#
#
# Elastic Constant Matrix: (Units=GPa)
#
#
# Indices 1 2 3 4 5 6 
#
# 1 65.2940 32.1806 16.8957 0.0000 0.0000 0.0000
# 2 32.1806 60.6129 8.3917 0.0000 0.0000 0.0000
# 3 16.8957 8.3917 90.0348 0.0000 0.0000 0.0000
# 4 0.0000 0.0000 0.0000 24.8285 0.0000 0.0000
# 5 0.0000 0.0000 0.0000 0.0000 20.9559 0.0000
# 6 0.0000 0.0000 0.0000 0.0000 0.0000 19.3049
#
#
#
# Elastic Compliance Matrix: (Units=1/GPa)
#
#
# Indices 1 2 3 4 5 6 
#
# 1 0.021521 -0.011009 -0.003012 0.000000 0.000000 0.000000
# 2 -0.011009 0.022345 -0.000017 0.000000 0.000000 0.000000
# 3 -0.003012 -0.000017 0.011674 0.000000 0.000000 0.000000
# 4 0.000000 0.000000 0.000000 0.040276 0.000000 0.000000
# 5 0.000000 0.000000 0.000000 0.000000 0.047719 0.000000
# 6 0.000000 0.000000 0.000000 0.000000 0.000000 0.051800
#
#
# Mechanical properties :
#
#
# Convention : Reuss Voigt Hill
#
# Bulk Modulus (GPa) = 36.41180 36.76419 36.58799
# Shear Modulus (GPa) = 21.49931 23.58277 22.54104
#
# Velocity S-wave (km/s) = 3.52958 3.69664 3.61408
# Velocity P-wave (km/s) = 6.14081 6.28677 6.21422
#
# Compressibility (1/GPa) = 0.02746363
#
# Stress axis : x y z
#
# Youngs Moduli (GPa) = 46.46730 44.75242 85.66272
#
# Poissons Ratio (x) = 0.49266 0.25805
# Poissons Ratio (y) = 0.51154 0.00144
# Poissons Ratio (z) = 0.13998 0.00075
#
# Static dielectric constant tensor:
#      x y z
#    x 1.639640 0.000000 0.000000 
#    y 0.000000 1.670600 0.000000 
#    z 0.000000 0.000000 1.661380 
# 
# From -- ./inp_files/9646.got.cif
#   From: 2010.05.17/outbox.cif.g08.bks.cpg/sg20_5_cif.got.tgz:9646.got - 2010.06.03 22:52:26.
