data_PCOD9319724
_publ_section_title
;
Structure prediction by ZEFSAII (Michael W. Deem and Ramdas Pophale) SiO2 
 PCOD9319724
Probable space group: C 2 2 21
;
_chemical_formula_sum "Si O2"
_cell_formula_units_Z 64
_cell_length_a 12.201455
_cell_length_b 13.767191
_cell_length_c 17.226826
_cell_angle_alpha 90.000000
_cell_angle_beta 90.000000
_cell_angle_gamma 90.000000
_cell_volume 2893.758122
_symmetry_space_group_name_H-M "C 2 2 21"
_symmetry_group_IT_number 20
_symmetry_cell_setting 'orthorhombic'
loop_
_space_group_symop_operation_xyz
x,y,z
-x,-y,1/2+z
x,-y,-z
-x,y,1/2-z
1/2+x,1/2+y,z
1/2-x,1/2-y,1/2+z
1/2+x,1/2-y,-z
1/2-x,1/2+y,1/2-z
loop_
_atom_site_type_symbol
_atom_site_label
_atom_site_fract_x
_atom_site_fract_y
_atom_site_fract_z
Si Si1 0.573100 0.915576 0.109661
Si Si2 0.909754 0.887104 0.817470
Si Si3 0.242211 0.274939 0.500046
Si Si4 0.349406 0.833513 0.159593
Si Si5 0.453343 0.603136 0.476036
Si Si6 0.102517 0.634394 0.064173
Si Si7 0.287498 0.412405 0.204170
Si Si8 0.439109 0.287268 0.112929
O O1 0.470721 0.879688 0.159628
O O2 0.689800 0.883151 0.144441
O O3 0.587467 0.031392 0.104064
O O4 0.552270 0.877813 0.022282
O O5 0.858633 0.778922 0.813412
O O6 0.974207 0.895985 0.899038
O O7 0.000000 0.896307 0.750000
O O8 0.825726 0.976744 0.808183
O O9 0.193208 0.334491 0.428504
O O10 0.355089 0.320827 0.529493
O O11 0.276495 0.172024 0.459506
O O12 0.157535 0.270474 0.569690
O O13 0.265359 0.892281 0.212739
O O14 0.405302 0.500000 0.500000
O O15 0.527791 0.632876 0.549021
O O16 0.042650 0.715719 0.115921
O O17 0.390150 0.342164 0.186382
#
# Coordination Sequence:
#
# PCOD9319724 Si02
#       8
#     8   8   8   8   8   8   8   8
#     4  11  22  42  66  98 130 170 220 275 332 399
#     4  12  27  46  67 100 139 180 229 278 350 406
#     4  11  22  41  69  98 133 172 223 277 343 389
#     4  12  26  45  66  99 140 178 223 281 341 412
#     4  11  24  42  69 100 133 177 228 288 326 412
#     4  10  22  38  68  99 128 163 222 283 321 396
#     4  12  27  42  69  96 135 182 222 277 345 412
#     4  11  22  42  67 100 129 174 227 272 335 403
#
# _framework density 22.116568999999998
#
# number of rings (size 3 to 8) (size 9 to 14) (size 15 to 20)
#    0.000    0.750    5.000    2.625    3.500    2.000 
#    0.000    1.250    0.000    0.000    0.000    0.000 
#    0.000    0.000    0.000    0.000    0.000    0.000 
#
# Total GULP energy -178903.550476 kJ/mol
# GULP energy per Si atom -5590.735952 kJ/mol
# Density = 2.206623 g / cm^3
# Si number density = 22.116569 Si / 1000 Ang^3
#
#
#
# Elastic Constant Matrix: (Units=GPa)
#
#
# Indices 1 2 3 4 5 6 
#
# 1 61.5055 0.8475 12.3311 0.0000 0.0000 0.0000
# 2 0.8475 77.6427 6.9187 0.0000 0.0000 0.0000
# 3 12.3311 6.9187 40.4294 0.0000 0.0000 0.0000
# 4 0.0000 0.0000 0.0000 20.9593 0.0000 0.0000
# 5 0.0000 0.0000 0.0000 0.0000 42.1159 0.0000
# 6 0.0000 0.0000 0.0000 0.0000 0.0000 36.7490
#
#
#
# Elastic Compliance Matrix: (Units=1/GPa)
#
#
# Indices 1 2 3 4 5 6 
#
# 1 0.017324 0.000286 -0.005333 0.000000 0.000000 0.000000
# 2 0.000286 0.013084 -0.002326 0.000000 0.000000 0.000000
# 3 -0.005333 -0.002326 0.026759 0.000000 0.000000 0.000000
# 4 0.000000 0.000000 0.000000 0.047712 0.000000 0.000000
# 5 0.000000 0.000000 0.000000 0.000000 0.023744 0.000000
# 6 0.000000 0.000000 0.000000 0.000000 0.000000 0.027212
#
#
# Mechanical properties :
#
#
# Convention : Reuss Voigt Hill
#
# Bulk Modulus (GPa) = 23.57339 24.41914 23.99626
# Shear Modulus (GPa) = 27.06799 30.59687 28.83243
#
# Velocity S-wave (km/s) = 3.50219 3.72349 3.61454
# Velocity P-wave (km/s) = 5.19958 5.43608 5.31914
#
# Compressibility (1/GPa) = 0.04242072
#
# Stress axis : x y z
#
# Youngs Moduli (GPa) = 57.72365 76.43109 37.37048
#
# Poissons Ratio (x) = -0.02187 0.19929
# Poissons Ratio (y) = -0.01651 0.08693
# Poissons Ratio (z) = 0.30783 0.17780
#
# Static dielectric constant tensor:
#      x y z
#    x 1.833410 0.000000 0.000000 
#    y 0.000000 1.842670 0.000000 
#    z 0.000000 0.000000 1.801450 
# 
# From -- ./inp_files/24438.got.cif
#   From: 2010.05.17/outbox.cif.g08.bks.cpg/sg20_13_cif.got.tgz:24438.got - 2010.06.03 22:52:26.
