data_PCOD9319497
_publ_section_title
;
Structure prediction by ZEFSAII (Michael W. Deem and Ramdas Pophale) SiO2 
 PCOD9319497
Probable space group: C 2 2 21
;
_chemical_formula_sum "Si O2"
_cell_formula_units_Z 32
_cell_length_a 11.435333
_cell_length_b 13.214681
_cell_length_c 7.049119
_cell_angle_alpha 90.000000
_cell_angle_beta 90.000000
_cell_angle_gamma 90.000000
_cell_volume 1065.222526
_symmetry_space_group_name_H-M "C 2 2 21"
_symmetry_group_IT_number 20
_symmetry_cell_setting 'orthorhombic'
loop_
_space_group_symop_operation_xyz
x,y,z
-x,-y,1/2+z
x,-y,-z
-x,y,1/2-z
1/2+x,1/2+y,z
1/2-x,1/2-y,1/2+z
1/2+x,1/2-y,-z
1/2-x,1/2+y,1/2-z
loop_
_atom_site_type_symbol
_atom_site_label
_atom_site_fract_x
_atom_site_fract_y
_atom_site_fract_z
Si Si1 0.125635 0.004555 0.228492
Si Si2 0.096222 0.795123 0.463750
Si Si3 0.124824 0.494735 0.726468
Si Si4 0.637710 0.776586 0.116175
O O1 0.250975 0.047685 0.292664
O O2 0.000000 0.053441 0.250000
O O3 0.892370 0.902273 0.145691
O O4 0.136359 0.000000 0.000000
O O5 0.225509 0.749121 0.413299
O O6 0.110436 0.777324 0.687305
O O7 0.957831 0.756841 0.455067
O O8 0.131798 0.500000 0.500000
O O9 0.119649 0.603956 0.832356
O O10 0.000000 0.442346 0.750000
#
# Coordination Sequence:
#
# PCOD9319497 Si02
#       4
#     8   8   8   8
#     4  10  24  46  72 105 149 198 251 317 393 471
#     4  10  22  41  73 109 152 194 253 323 380 462
#     4  10  21  43  70 103 147 195 246 308 384 464
#     4  10  22  42  70 111 152 196 258 315 388 453
#
# _framework density 30.040673999999999
#
# number of rings (size 3 to 8) (size 9 to 14) (size 15 to 20)
#    0.000    2.000    2.500    0.000    7.000    1.000 
#    4.500    6.250    0.000    0.000    0.000    0.000 
#    0.000    0.000    0.000    0.000    0.000    0.000 
#
# Total GULP energy -89271.417343 kJ/mol
# GULP energy per Si atom -5579.463584 kJ/mol
# Density = 2.997230 g / cm^3
# Si number density = 30.040674 Si / 1000 Ang^3
#
#
#
# Elastic Constant Matrix: (Units=GPa)
#
#
# Indices 1 2 3 4 5 6 
#
# 1 339.4429 20.7909 11.1192 0.0000 0.0000 0.0000
# 2 20.7909 149.3914 20.2394 0.0000 0.0000 0.0000
# 3 11.1192 20.2394 110.0789 0.0000 0.0000 0.0000
# 4 0.0000 0.0000 0.0000 43.1380 0.0000 0.0000
# 5 0.0000 0.0000 0.0000 0.0000 72.7775 0.0000
# 6 0.0000 0.0000 0.0000 0.0000 0.0000 92.6147
#
#
#
# Elastic Compliance Matrix: (Units=1/GPa)
#
#
# Indices 1 2 3 4 5 6 
#
# 1 0.002977 -0.000383 -0.000230 0.000000 0.000000 0.000000
# 2 -0.000383 0.006914 -0.001233 0.000000 0.000000 0.000000
# 3 -0.000230 -0.001233 0.009334 0.000000 0.000000 0.000000
# 4 0.000000 0.000000 0.000000 0.023181 0.000000 0.000000
# 5 0.000000 0.000000 0.000000 0.000000 0.013741 0.000000
# 6 0.000000 0.000000 0.000000 0.000000 0.000000 0.010797
#
#
# Mechanical properties :
#
#
# Convention : Reuss Voigt Hill
#
# Bulk Modulus (GPa) = 64.37682 78.13468 71.25575
# Shear Modulus (GPa) = 65.95047 78.15695 72.05371
#
# Velocity S-wave (km/s) = 4.69056 5.10622 4.90280
# Velocity P-wave (km/s) = 7.12822 7.79941 7.47136
#
# Compressibility (1/GPa) = 0.01553354
#
# Stress axis : x y z
#
# Youngs Moduli (GPa) = 335.90723 144.63137 107.13209
#
# Poissons Ratio (x) = 0.05541 0.02467
# Poissons Ratio (y) = 0.12869 0.13205
# Poissons Ratio (z) = 0.07735 0.17827
#
# Static dielectric constant tensor:
#      x y z
#    x 2.397110 0.000000 0.000000 
#    y 0.000000 2.405840 0.000000 
#    z 0.000000 0.000000 2.419060 
# 
# From -- ./inp_files/6999.got.cif
#   From: 2010.05.17/outbox.cif.g08.bks.cpg/sg20_4_cif.got.tgz:6999.got - 2010.06.03 22:52:26.
