data_PCOD9319161
_publ_section_title
;
Structure prediction by ZEFSAII (Michael W. Deem and Ramdas Pophale) SiO2 
 PCOD9319161
Probable space group: C 2 2 21
;
_chemical_formula_sum "Si O2"
_cell_formula_units_Z 40
_cell_length_a 30.453564
_cell_length_b 5.060452
_cell_length_c 10.774270
_cell_angle_alpha 90.000000
_cell_angle_beta 90.000000
_cell_angle_gamma 90.000000
_cell_volume 1660.409808
_symmetry_space_group_name_H-M "C 2 2 21"
_symmetry_group_IT_number 20
_symmetry_cell_setting 'orthorhombic'
loop_
_space_group_symop_operation_xyz
x,y,z
-x,-y,1/2+z
x,-y,-z
-x,y,1/2-z
1/2+x,1/2+y,z
1/2-x,1/2-y,1/2+z
1/2+x,1/2-y,-z
1/2-x,1/2+y,1/2-z
loop_
_atom_site_type_symbol
_atom_site_label
_atom_site_fract_x
_atom_site_fract_y
_atom_site_fract_z
Si Si1 0.869988 0.746211 0.588458
Si Si2 0.723931 0.749419 0.092287
Si Si3 0.913319 0.196861 0.881358
Si Si4 0.550390 0.796188 0.272949
Si Si5 0.682100 0.251342 0.408017
O O1 0.864113 0.500000 0.500000
O O2 0.823012 0.761339 0.661695
O O3 0.913535 0.686531 0.665208
O O4 0.875231 0.000000 0.500000
O O5 0.771010 0.737227 0.161784
O O6 0.723880 0.500000 0.000000
O O7 0.725082 0.000000 0.000000
O O8 0.931832 0.493013 0.873883
O O9 0.863116 0.221198 0.832655
O O10 0.945938 0.014238 0.803354
O O11 0.909311 0.000000 0.000000
O O12 0.500000 0.861603 0.250000
O O13 0.684632 0.500000 0.500000
O O14 0.676737 0.000000 0.500000
#
# Coordination Sequence:
#
# PCOD9319161 Si02
#       5
#     8   8   8   8   8
#     4  10  21  40  62  86 119 160 199 246 303 359
#     4   8  15  29  54  83 114 151 191 233 289 355
#     4  11  23  42  64  89 122 159 197 249 314 372
#     4  12  26  42  61  90 121 156 210 263 303 363
#     4   9  16  31  56  86 116 152 191 235 294 361
#
# _framework density 24.090439
#
# number of rings (size 3 to 8) (size 9 to 14) (size 15 to 20)
#    0.000    2.000    0.000    4.800    0.000    2.400 
#    0.000    2.000    0.000    0.000    0.000    0.000 
#    0.000    0.000    0.000    0.000    0.000    0.000 
#
# Total GULP energy -111528.649525 kJ/mol
# GULP energy per Si atom -5576.432476 kJ/mol
# Density = 2.403561 g / cm^3
# Si number density = 24.090439 Si / 1000 Ang^3
#
#
#
# Elastic Constant Matrix: (Units=GPa)
#
#
# Indices 1 2 3 4 5 6 
#
# 1 269.0968 24.4575 48.7182 0.0000 0.0000 0.0000
# 2 24.4575 183.2231 13.9406 0.0000 0.0000 0.0000
# 3 48.7182 13.9406 30.7573 0.0000 0.0000 0.0000
# 4 0.0000 0.0000 0.0000 20.5803 0.0000 0.0000
# 5 0.0000 0.0000 0.0000 0.0000 23.2951 0.0000
# 6 0.0000 0.0000 0.0000 0.0000 0.0000 34.2328
#
#
#
# Elastic Compliance Matrix: (Units=1/GPa)
#
#
# Indices 1 2 3 4 5 6 
#
# 1 0.005211 -0.000070 -0.008222 0.000000 0.000000 0.000000
# 2 -0.000070 0.005654 -0.002452 0.000000 0.000000 0.000000
# 3 -0.008222 -0.002452 0.046648 0.000000 0.000000 0.000000
# 4 0.000000 0.000000 0.000000 0.048590 0.000000 0.000000
# 5 0.000000 0.000000 0.000000 0.000000 0.042927 0.000000
# 6 0.000000 0.000000 0.000000 0.000000 0.000000 0.029212
#
#
# Mechanical properties :
#
#
# Convention : Reuss Voigt Hill
#
# Bulk Modulus (GPa) = 27.75889 73.03442 50.39665
# Shear Modulus (GPa) = 23.61404 42.01904 32.81654
#
# Velocity S-wave (km/s) = 3.13425 4.18092 3.69483
# Velocity P-wave (km/s) = 4.96446 7.32730 6.25840
#
# Compressibility (1/GPa) = 0.03602450
#
# Stress axis : x y z
#
# Youngs Moduli (GPa) = 191.89727 176.87515 21.43720
#
# Poissons Ratio (x) = 0.01238 0.17627
# Poissons Ratio (y) = 0.01343 0.05256
# Poissons Ratio (z) = 1.57787 0.43363
#
# Static dielectric constant tensor:
#      x y z
#    x 1.964110 0.000000 0.000000 
#    y 0.000000 1.869430 0.000000 
#    z 0.000000 0.000000 2.012250 
# 
# From -- ./inp_files/17143.got.cif
#   From: 2010.05.17/outbox.cif.g08.bks.cpg/sg20_9_cif.got.tgz:17143.got - 2010.06.03 22:52:26.
