data_PCOD9319696
_publ_section_title
;
Structure prediction by ZEFSAII (Michael W. Deem and Ramdas Pophale) SiO2 
 PCOD9319696
Probable space group: C 2 2 21
;
_chemical_formula_sum "Si O2"
_cell_formula_units_Z 60
_cell_length_a 7.045739
_cell_length_b 23.023620
_cell_length_c 18.452651
_cell_angle_alpha 90.000000
_cell_angle_beta 90.000000
_cell_angle_gamma 90.000000
_cell_volume 2993.359841
_symmetry_space_group_name_H-M "C 2 2 21"
_symmetry_group_IT_number 20
_symmetry_cell_setting 'orthorhombic'
loop_
_space_group_symop_operation_xyz
x,y,z
-x,-y,1/2+z
x,-y,-z
-x,y,1/2-z
1/2+x,1/2+y,z
1/2-x,1/2-y,1/2+z
1/2+x,1/2-y,-z
1/2-x,1/2+y,1/2-z
loop_
_atom_site_type_symbol
_atom_site_label
_atom_site_fract_x
_atom_site_fract_y
_atom_site_fract_z
Si Si1 0.500000 0.627519 0.250000
Si Si2 0.166543 0.988119 0.579477
Si Si3 0.084788 0.612377 0.074058
Si Si4 0.893711 0.429249 0.172952
Si Si5 0.778425 0.052914 0.374934
Si Si6 0.244866 0.614380 0.913215
Si Si7 0.922698 0.166761 0.669199
Si Si8 0.661974 0.794007 0.812644
O O1 0.377274 0.587665 0.307087
O O2 0.652021 0.670820 0.287330
O O3 0.295556 0.938830 0.614924
O O4 0.955933 0.964512 0.575562
O O5 0.252646 0.000000 0.500000
O O6 0.164827 0.052122 0.611087
O O7 0.087435 0.670784 0.118750
O O8 0.870009 0.589554 0.077377
O O9 0.194534 0.620280 0.998130
O O10 0.830089 0.494150 0.149879
O O11 0.709593 0.389227 0.167985
O O12 0.000000 0.432912 0.250000
O O13 0.041510 0.393593 0.123453
O O14 0.396909 0.660744 0.884578
O O15 0.809967 0.227432 0.663311
O O16 0.000000 0.167988 0.750000
O O17 0.500000 0.796466 0.750000
#
# Coordination Sequence:
#
# PCOD9319696 Si02
#       8
#     4   8   8   8   8   8   8   8
#     4  12  26  40  70 102 134 180 234 286 350 408
#     4  10  22  38  63  94 137 172 215 270 349 417
#     4  11  24  44  66  99 138 176 225 286 351 418
#     4  12  26  39  66 100 137 173 231 282 343 413
#     4  12  25  37  68 101 137 175 223 284 352 414
#     4  11  24  44  67  99 135 180 226 285 348 419
#     4  11  25  46  70  93 130 182 234 287 342 407
#     4  11  25  47  69  96 135 183 236 288 343 408
#
# _framework density 20.044364999999999
#
# number of rings (size 3 to 8) (size 9 to 14) (size 15 to 20)
#    0.000    0.800    6.667    0.000    7.467    0.000 
#    2.400    0.000    0.000    0.000    0.000    0.000 
#    0.000    0.000    0.000    0.000    0.000    0.000 
#
# Total GULP energy -167172.940582 kJ/mol
# GULP energy per Si atom -5572.431353 kJ/mol
# Density = 1.999874 g / cm^3
# Si number density = 20.044365 Si / 1000 Ang^3
#
#
#
# Elastic Constant Matrix: (Units=GPa)
#
#
# Indices 1 2 3 4 5 6 
#
# 1 87.5421 21.7608 16.4995 0.0000 0.0000 0.0000
# 2 21.7608 91.8880 34.1036 0.0000 0.0000 0.0000
# 3 16.4995 34.1036 55.2514 0.0000 0.0000 0.0000
# 4 0.0000 0.0000 0.0000 20.1384 0.0000 0.0000
# 5 0.0000 0.0000 0.0000 0.0000 33.4719 0.0000
# 6 0.0000 0.0000 0.0000 0.0000 0.0000 32.1474
#
#
#
# Elastic Compliance Matrix: (Units=1/GPa)
#
#
# Indices 1 2 3 4 5 6 
#
# 1 0.012388 -0.002025 -0.002450 0.000000 0.000000 0.000000
# 2 -0.002025 0.014448 -0.008313 0.000000 0.000000 0.000000
# 3 -0.002450 -0.008313 0.023962 0.000000 0.000000 0.000000
# 4 0.000000 0.000000 0.000000 0.049656 0.000000 0.000000
# 5 0.000000 0.000000 0.000000 0.000000 0.029876 0.000000
# 6 0.000000 0.000000 0.000000 0.000000 0.000000 0.031107
#
#
# Mechanical properties :
#
#
# Convention : Reuss Voigt Hill
#
# Bulk Modulus (GPa) = 39.64681 42.15660 40.90171
# Shear Modulus (GPa) = 25.58606 27.97270 26.77938
#
# Velocity S-wave (km/s) = 3.57665 3.73974 3.65911
# Velocity P-wave (km/s) = 6.07281 6.30277 6.18886
#
# Compressibility (1/GPa) = 0.02522271
#
# Stress axis : x y z
#
# Youngs Moduli (GPa) = 80.72306 69.21549 41.73294
#
# Poissons Ratio (x) = 0.14013 0.10224
# Poissons Ratio (y) = 0.16342 0.34693
# Poissons Ratio (z) = 0.19775 0.57540
#
# Static dielectric constant tensor:
#      x y z
#    x 1.766220 0.000000 0.000000 
#    y 0.000000 1.765770 0.000000 
#    z 0.000000 0.000000 1.655730 
# 
# From -- ./inp_files/26225.got.cif
#   From: 2010.05.17/outbox.cif.g08.bks.cpg/sg20_14_cif.got.tgz:26225.got - 2010.06.03 22:52:26.
