data_PCOD9319858
_publ_section_title
;
Structure prediction by ZEFSAII (Michael W. Deem and Ramdas Pophale) SiO2 
 PCOD9319858
Probable space group: C 2 2 21
;
_chemical_formula_sum "Si O2"
_cell_formula_units_Z 60
_cell_length_a 8.540136
_cell_length_b 21.612703
_cell_length_c 14.893013
_cell_angle_alpha 90.000000
_cell_angle_beta 90.000000
_cell_angle_gamma 90.000000
_cell_volume 2748.884173
_symmetry_space_group_name_H-M "C 2 2 21"
_symmetry_group_IT_number 20
_symmetry_cell_setting 'orthorhombic'
loop_
_space_group_symop_operation_xyz
x,y,z
-x,-y,1/2+z
x,-y,-z
-x,y,1/2-z
1/2+x,1/2+y,z
1/2-x,1/2-y,1/2+z
1/2+x,1/2-y,-z
1/2-x,1/2+y,1/2-z
loop_
_atom_site_type_symbol
_atom_site_label
_atom_site_fract_x
_atom_site_fract_y
_atom_site_fract_z
Si Si1 0.954615 0.968530 0.645851
Si Si2 0.700645 0.125266 0.430237
Si Si3 0.423109 0.701398 0.526360
Si Si4 0.562622 0.812610 0.841541
Si Si5 0.148655 0.106238 0.816800
Si Si6 0.000000 0.583722 0.750000
Si Si7 0.810056 0.879955 0.939004
Si Si8 0.460348 0.063492 0.551573
O O1 0.822200 0.923022 0.609015
O O2 0.000000 0.959387 0.750000
O O3 0.104142 0.943762 0.589540
O O4 0.887183 0.038124 0.640301
O O5 0.786835 0.189718 0.453409
O O6 0.566605 0.135259 0.358079
O O7 0.614759 0.099237 0.518302
O O8 0.441761 0.767519 0.571941
O O9 0.374426 0.657795 0.608636
O O10 0.573168 0.670701 0.480065
O O11 0.500000 0.781454 0.750000
O O12 0.727335 0.847864 0.852572
O O13 0.324197 0.112419 0.772987
O O14 0.000000 0.113553 0.750000
O O15 0.036875 0.550655 0.843255
O O16 0.684439 0.896286 0.015695
O O17 0.456792 0.000000 0.500000
#
# Coordination Sequence:
#
# PCOD9319858 Si02
#       8
#     8   8   8   8   8   4   8   8
#     4  10  22  40  65  98 137 180 219 278 351 419
#     4  10  22  41  63  91 132 171 226 277 341 415
#     4  11  22  42  66  90 133 175 226 286 348 412
#     4  11  23  42  66  95 128 175 231 287 345 418
#     4  11  24  40  68 104 137 176 228 280 344 417
#     4  12  24  44  66 102 142 186 234 276 350 422
#     4  10  24  40  67  96 134 178 230 287 352 418
#     4  11  24  40  64  98 137 180 224 279 347 419
#
# _framework density 21.827036
#
# number of rings (size 3 to 8) (size 9 to 14) (size 15 to 20)
#    0.000    1.333    1.333    3.600    5.600    1.067 
#    6.000    0.000    4.400    0.000    0.000    0.000 
#    0.000    0.000    0.000    0.000    0.000    0.000 
#
# Total GULP energy -167304.162855 kJ/mol
# GULP energy per Si atom -5576.805428 kJ/mol
# Density = 2.177736 g / cm^3
# Si number density = 21.827036 Si / 1000 Ang^3
#
#
#
# Elastic Constant Matrix: (Units=GPa)
#
#
# Indices 1 2 3 4 5 6 
#
# 1 134.5951 23.0470 21.6970 0.0000 0.0000 0.0000
# 2 23.0470 42.5443 2.9065 0.0000 0.0000 0.0000
# 3 21.6970 2.9065 82.7412 0.0000 0.0000 0.0000
# 4 0.0000 0.0000 0.0000 32.8387 0.0000 0.0000
# 5 0.0000 0.0000 0.0000 0.0000 25.0996 0.0000
# 6 0.0000 0.0000 0.0000 0.0000 0.0000 11.7083
#
#
#
# Elastic Compliance Matrix: (Units=1/GPa)
#
#
# Indices 1 2 3 4 5 6 
#
# 1 0.008532 -0.004480 -0.002080 0.000000 0.000000 0.000000
# 2 -0.004480 0.025914 0.000264 0.000000 0.000000 0.000000
# 3 -0.002080 0.000264 0.012622 0.000000 0.000000 0.000000
# 4 0.000000 0.000000 0.000000 0.030452 0.000000 0.000000
# 5 0.000000 0.000000 0.000000 0.000000 0.039841 0.000000
# 6 0.000000 0.000000 0.000000 0.000000 0.000000 0.085409
#
#
# Mechanical properties :
#
#
# Convention : Reuss Voigt Hill
#
# Bulk Modulus (GPa) = 29.00486 39.46461 34.23473
# Shear Modulus (GPa) = 22.04068 28.07800 25.05934
#
# Velocity S-wave (km/s) = 3.18116 3.59051 3.39202
# Velocity P-wave (km/s) = 5.17788 5.94213 5.57312
#
# Compressibility (1/GPa) = 0.03447698
#
# Stress axis : x y z
#
# Youngs Moduli (GPa) = 117.20462 38.58965 79.22662
#
# Poissons Ratio (x) = 0.17288 0.16479
# Poissons Ratio (y) = 0.52506 -0.02095
# Poissons Ratio (z) = 0.24378 -0.01021
#
# Static dielectric constant tensor:
#      x y z
#    x 1.973010 0.000000 0.000000 
#    y 0.000000 1.791510 0.000000 
#    z 0.000000 0.000000 1.859550 
# 
# From -- ./inp_files/19342.got.cif
#   From: 2010.05.17/outbox.cif.g08.bks.cpg/sg20_10_cif.got.tgz:19342.got - 2010.06.03 22:52:26.
