data_PCOD9319460
_publ_section_title
;
Structure prediction by ZEFSAII (Michael W. Deem and Ramdas Pophale) SiO2 
 PCOD9319460
Probable space group: C 2 2 21
;
_chemical_formula_sum "Si O2"
_cell_formula_units_Z 32
_cell_length_a 25.017523
_cell_length_b 9.875442
_cell_length_c 5.092475
_cell_angle_alpha 90.000000
_cell_angle_beta 90.000000
_cell_angle_gamma 90.000000
_cell_volume 1258.142277
_symmetry_space_group_name_H-M "C 2 2 21"
_symmetry_group_IT_number 20
_symmetry_cell_setting 'orthorhombic'
loop_
_space_group_symop_operation_xyz
x,y,z
-x,-y,1/2+z
x,-y,-z
-x,y,1/2-z
1/2+x,1/2+y,z
1/2-x,1/2-y,1/2+z
1/2+x,1/2-y,-z
1/2-x,1/2+y,1/2-z
loop_
_atom_site_type_symbol
_atom_site_label
_atom_site_fract_x
_atom_site_fract_y
_atom_site_fract_z
Si Si1 0.500000 0.096115 0.750000
Si Si2 0.718461 0.713275 0.115192
Si Si3 0.580273 0.590479 0.733985
Si Si4 0.315876 0.500000 0.000000
Si Si5 0.101015 0.661363 0.960522
O O1 0.555925 0.174430 0.736118
O O2 0.496834 0.000000 0.500000
O O3 0.753754 0.793472 0.332229
O O4 0.714894 0.572959 0.270486
O O5 0.658888 0.775402 0.097010
O O6 0.553074 0.500000 0.500000
O O7 0.641298 0.600120 0.632493
O O8 0.578560 0.500000 0.000000
O O9 0.570976 0.744926 0.820981
O O10 0.109904 0.500000 0.000000
#
# Coordination Sequence:
#
# PCOD9319460 Si02
#       5
#     4   8   8   4   8
#     4  10  26  48  82 116 158 204 262 346 402 452
#     4  12  28  46  72 111 153 208 260 324 391 476
#     4  10  21  42  75 103 149 203 237 319 395 462
#     4  10  24  48  68  96 162 198 252 316 398 452
#     4  11  25  52  81 119 156 207 273 327 396 481
#
# _framework density 25.434325000000001
#
# number of rings (size 3 to 8) (size 9 to 14) (size 15 to 20)
#    0.750    0.500    2.500    1.500    1.750   12.000 
#    4.500    0.000    2.750    1.500    0.000    0.000 
#    0.000    0.000    0.000    0.000    0.000    0.000 
#
# Total GULP energy -89238.212433 kJ/mol
# GULP energy per Si atom -5577.388277 kJ/mol
# Density = 2.537644 g / cm^3
# Si number density = 25.434325 Si / 1000 Ang^3
#
#
#
# Elastic Constant Matrix: (Units=GPa)
#
#
# Indices 1 2 3 4 5 6 
#
# 1 162.3928 17.2903 36.3653 0.0000 0.0000 0.0000
# 2 17.2903 161.3662 46.9021 0.0000 0.0000 0.0000
# 3 36.3653 46.9021 173.2137 0.0000 0.0000 0.0000
# 4 0.0000 0.0000 0.0000 53.5399 0.0000 0.0000
# 5 0.0000 0.0000 0.0000 0.0000 30.5615 0.0000
# 6 0.0000 0.0000 0.0000 0.0000 0.0000 -5.1819
#
#
#
# Elastic Compliance Matrix: (Units=1/GPa)
#
#
# Indices 1 2 3 4 5 6 
#
# 1 0.006477 -0.000324 -0.001272 0.000000 0.000000 0.000000
# 2 -0.000324 0.006743 -0.001758 0.000000 0.000000 0.000000
# 3 -0.001272 -0.001758 0.006516 0.000000 0.000000 0.000000
# 4 0.000000 0.000000 0.000000 0.018678 0.000000 0.000000
# 5 0.000000 0.000000 0.000000 0.000000 0.032721 0.000000
# 6 0.000000 0.000000 0.000000 0.000000 0.000000 -0.192979
#
#
# Mechanical properties :
#
#
# Convention : Reuss Voigt Hill
#
# Bulk Modulus (GPa) = 76.75697 77.56536 77.16116
# Shear Modulus (GPa) = -45.12910 42.21156 -1.45877
#
# Velocity S-wave (km/s) = -4.21686 4.07827 -0.75815
# Velocity P-wave (km/s) = 2.55633 7.26216 5.44398
#
# Compressibility (1/GPa) = 0.01302813
#
# Stress axis : x y z
#
# Youngs Moduli (GPa) = 154.38545 148.30819 153.46327
#
# Poissons Ratio (x) = 0.04810 0.19521
# Poissons Ratio (y) = 0.05007 0.26974
# Poissons Ratio (z) = 0.19639 0.26068
#
# Static dielectric constant tensor:
#      x y z
#    x 2.024020 0.000000 0.000000 
#    y 0.000000 2.200260 0.000000 
#    z 0.000000 0.000000 1.509430 
# 
# From -- ./inp_files/4539.got.cif
#   From: 2010.05.17/outbox.cif.g08.bks.cpg/sg20_3_cif.got.tgz:4539.got - 2010.06.03 22:52:26.
