data_PCOD9319965
_publ_section_title
;
Structure prediction by ZEFSAII (Michael W. Deem and Ramdas Pophale) SiO2 
 PCOD9319965
Probable space group: C 2 2 21
;
_chemical_formula_sum "Si O2"
_cell_formula_units_Z 64
_cell_length_a 15.548790
_cell_length_b 11.525625
_cell_length_c 17.881958
_cell_angle_alpha 90.000000
_cell_angle_beta 90.000000
_cell_angle_gamma 90.000000
_cell_volume 3204.617159
_symmetry_space_group_name_H-M "C 2 2 21"
_symmetry_group_IT_number 20
_symmetry_cell_setting 'orthorhombic'
loop_
_space_group_symop_operation_xyz
x,y,z
-x,-y,1/2+z
x,-y,-z
-x,y,1/2-z
1/2+x,1/2+y,z
1/2-x,1/2-y,1/2+z
1/2+x,1/2-y,-z
1/2-x,1/2+y,1/2-z
loop_
_atom_site_type_symbol
_atom_site_label
_atom_site_fract_x
_atom_site_fract_y
_atom_site_fract_z
Si Si1 0.606939 0.495345 0.672455
Si Si2 0.068091 0.615671 0.684662
Si Si3 0.867810 0.122282 0.670502
Si Si4 0.112726 0.421630 0.570387
Si Si5 0.791414 0.886354 0.617426
Si Si6 0.965520 0.172147 0.929418
Si Si7 0.722876 0.709674 0.281405
Si Si8 0.984148 0.821496 0.597696
O O1 0.605827 0.566864 0.749522
O O2 0.606639 0.589104 0.606427
O O3 0.685307 0.403962 0.676810
O O4 0.523665 0.413777 0.656778
O O5 0.102309 0.501683 0.643510
O O6 0.147673 0.692931 0.714632
O O7 0.000000 0.590519 0.750000
O O8 0.019094 0.697959 0.624911
O O9 0.807972 0.233435 0.684915
O O10 0.949348 0.149380 0.619411
O O11 0.813114 0.021301 0.630833
O O12 0.088234 0.500000 0.500000
O O13 0.211640 0.380860 0.562062
O O14 0.057836 0.306298 0.577076
O O15 0.764233 0.828701 0.695944
O O16 0.881588 0.828852 0.595221
O O17 0.980694 0.146503 0.016319
#
# Coordination Sequence:
#
# PCOD9319965 Si02
#       8
#     8   8   8   8   8   8   8   8
#     4  10  23  39  68  98 133 170 226 282 338 392
#     4  11  22  43  72  92 135 184 224 273 346 408
#     4  11  23  41  68 102 135 175 225 285 329 413
#     4  12  27  45  64 101 143 181 217 283 350 414
#     4  11  23  39  70  98 130 173 231 277 335 400
#     4  12  25  43  69  97 140 175 229 280 347 408
#     4  10  22  41  66 103 134 166 228 289 333 398
#     4  11  23  42  68 102 127 178 230 284 335 410
#
# _framework density 19.971184999999998
#
# number of rings (size 3 to 8) (size 9 to 14) (size 15 to 20)
#    0.000    1.000    5.000    1.500    3.500    2.000 
#    0.000    0.000    0.000    0.000    0.000    0.000 
#    0.000    0.000    0.000    0.000    0.000    0.000 
#
# Total GULP energy -178891.778112 kJ/mol
# GULP energy per Si atom -5590.368066 kJ/mol
# Density = 1.992573 g / cm^3
# Si number density = 19.971185 Si / 1000 Ang^3
#
#
#
# Elastic Constant Matrix: (Units=GPa)
#
#
# Indices 1 2 3 4 5 6 
#
# 1 68.2721 33.0550 25.0537 0.0000 0.0000 0.0000
# 2 33.0550 78.5772 21.0943 0.0000 0.0000 0.0000
# 3 25.0537 21.0943 72.3496 0.0000 0.0000 0.0000
# 4 0.0000 0.0000 0.0000 29.6116 0.0000 0.0000
# 5 0.0000 0.0000 0.0000 0.0000 18.2070 0.0000
# 6 0.0000 0.0000 0.0000 0.0000 0.0000 25.8638
#
#
#
# Elastic Compliance Matrix: (Units=1/GPa)
#
#
# Indices 1 2 3 4 5 6 
#
# 1 0.019825 -0.007048 -0.004810 0.000000 0.000000 0.000000
# 2 -0.007048 0.016313 -0.002315 0.000000 0.000000 0.000000
# 3 -0.004810 -0.002315 0.016163 0.000000 0.000000 0.000000
# 4 0.000000 0.000000 0.000000 0.033771 0.000000 0.000000
# 5 0.000000 0.000000 0.000000 0.000000 0.054924 0.000000
# 6 0.000000 0.000000 0.000000 0.000000 0.000000 0.038664
#
#
# Mechanical properties :
#
#
# Convention : Reuss Voigt Hill
#
# Bulk Modulus (GPa) = 41.74921 41.95612 41.85266
# Shear Modulus (GPa) = 23.14908 24.06954 23.60931
#
# Velocity S-wave (km/s) = 3.40828 3.47538 3.44200
# Velocity P-wave (km/s) = 6.03644 6.09576 6.06618
#
# Compressibility (1/GPa) = 0.02395255
#
# Stress axis : x y z
#
# Youngs Moduli (GPa) = 50.44122 61.30077 61.87147
#
# Poissons Ratio (x) = 0.43208 0.29761
# Poissons Ratio (y) = 0.35553 0.14326
# Poissons Ratio (z) = 0.24263 0.14194
#
# Static dielectric constant tensor:
#      x y z
#    x 1.707850 0.000000 0.000000 
#    y 0.000000 1.693450 0.000000 
#    z 0.000000 0.000000 1.699240 
# 
# From -- ./inp_files/25002.got.cif
#   From: 2010.05.17/outbox.cif.g08.bks.cpg/sg20_13_cif.got.tgz:25002.got - 2010.06.03 22:52:26.
