data_PCOD9319557
_publ_section_title
;
Structure prediction by ZEFSAII (Michael W. Deem and Ramdas Pophale) SiO2 
 PCOD9319557
Probable space group: C 2 2 21
;
_chemical_formula_sum "Si O2"
_cell_formula_units_Z 28
_cell_length_a 7.873204
_cell_length_b 22.516133
_cell_length_c 7.106928
_cell_angle_alpha 90.000000
_cell_angle_beta 90.000000
_cell_angle_gamma 90.000000
_cell_volume 1259.874325
_symmetry_space_group_name_H-M "C 2 2 21"
_symmetry_group_IT_number 20
_symmetry_cell_setting 'orthorhombic'
loop_
_space_group_symop_operation_xyz
x,y,z
-x,-y,1/2+z
x,-y,-z
-x,y,1/2-z
1/2+x,1/2+y,z
1/2-x,1/2-y,1/2+z
1/2+x,1/2-y,-z
1/2-x,1/2+y,1/2-z
loop_
_atom_site_type_symbol
_atom_site_label
_atom_site_fract_x
_atom_site_fract_y
_atom_site_fract_z
Si Si1 0.000000 0.410249 0.750000
Si Si2 0.000000 0.740822 0.750000
Si Si3 0.712098 0.000000 0.000000
Si Si4 0.256233 0.328980 0.519158
Si Si5 0.532772 0.562129 0.022576
O O1 0.139012 0.366726 0.661083
O O2 0.905790 0.455502 0.612013
O O3 0.877928 0.781424 0.620510
O O4 0.128544 0.701621 0.625970
O O5 0.855366 0.045730 0.920630
O O6 0.380082 0.380045 0.443641
O O7 0.500000 0.570785 0.250000
O O8 0.635896 0.500000 0.000000
#
# Coordination Sequence:
#
# PCOD9319557 Si02
#       5
#     4   4   4   8   8
#     4  12  24  43  70 108 151 186 246 294 368 446
#     4  12  28  49  78 104 145 202 254 300 366 424
#     4  10  24  40  68 106 146 188 228 302 372 442
#     4  12  25  50  72 106 146 195 247 311 353 448
#     4  10  21  45  71 100 143 181 227 299 367 430
#
# _framework density 22.224439
#
# number of rings (size 3 to 8) (size 9 to 14) (size 15 to 20)
#    0.857    0.000    4.286    1.714    2.000    3.429 
#    5.143    0.000    0.000    0.000    0.000    0.000 
#    0.000    0.000    0.000    0.000    0.000    0.000 
#
# Total GULP energy -78097.162634 kJ/mol
# GULP energy per Si atom -5578.368760 kJ/mol
# Density = 2.217386 g / cm^3
# Si number density = 22.224439 Si / 1000 Ang^3
#
#
#
# Elastic Constant Matrix: (Units=GPa)
#
#
# Indices 1 2 3 4 5 6 
#
# 1 138.8912 97.2236 45.1389 0.0000 0.0000 0.0000
# 2 97.2236 203.1387 81.0837 0.0000 0.0000 0.0000
# 3 45.1389 81.0837 79.3763 0.0000 0.0000 0.0000
# 4 0.0000 0.0000 0.0000 54.3495 0.0000 0.0000
# 5 0.0000 0.0000 0.0000 0.0000 25.5635 0.0000
# 6 0.0000 0.0000 0.0000 0.0000 0.0000-3257.4461
#
#
#
# Elastic Compliance Matrix: (Units=1/GPa)
#
#
# Indices 1 2 3 4 5 6 
#
# 1 0.010928 -0.004643 -0.001472 0.000000 0.000000 0.000000
# 2 -0.004643 0.010284 -0.007865 0.000000 0.000000 0.000000
# 3 -0.001472 -0.007865 0.021470 0.000000 0.000000 0.000000
# 4 0.000000 0.000000 0.000000 0.018399 0.000000 0.000000
# 5 0.000000 0.000000 0.000000 0.000000 0.039118 0.000000
# 6 0.000000 0.000000 0.000000 0.000000 0.000000 -0.000307
#
#
# Mechanical properties :
#
#
# Convention : Reuss Voigt Hill
#
# Bulk Modulus (GPa) = 67.92427 96.47763 82.20095
# Shear Modulus (GPa) = 37.66188 -622.30929 -292.32371
#
# Velocity S-wave (km/s) = 4.12104 -16.75169 -11.48121
# Velocity P-wave (km/s) = 7.29885 18.18389 11.77669
#
# Compressibility (1/GPa) = 0.01472228
#
# Stress axis : x y z
#
# Youngs Moduli (GPa) = 91.50651 97.23558 46.57725
#
# Poissons Ratio (x) = 0.45145 0.06855
# Poissons Ratio (y) = 0.42485 0.36634
# Poissons Ratio (z) = 0.13468 0.76479
#
# Static dielectric constant tensor:
#      x y z
#    x 1.912480 0.000000 0.000000 
#    y 0.000000 1.828870 0.000000 
#    z 0.000000 0.000000 14.265550 
# 
# From -- ./inp_files/5723.got.cif
#   From: 2010.05.17/outbox.cif.g08.bks.cpg/sg20_3_cif.got.tgz:5723.got - 2010.06.03 22:52:26.
