data_PCOD9319207
_publ_section_title
;
Structure prediction by ZEFSAII (Michael W. Deem and Ramdas Pophale) SiO2 
 PCOD9319207
Probable space group: C 2 2 21
;
_chemical_formula_sum "Si O2"
_cell_formula_units_Z 64
_cell_length_a 9.892270
_cell_length_b 23.043615
_cell_length_c 14.466036
_cell_angle_alpha 90.000000
_cell_angle_beta 90.000000
_cell_angle_gamma 90.000000
_cell_volume 3297.585872
_symmetry_space_group_name_H-M "C 2 2 21"
_symmetry_group_IT_number 20
_symmetry_cell_setting 'orthorhombic'
loop_
_space_group_symop_operation_xyz
x,y,z
-x,-y,1/2+z
x,-y,-z
-x,y,1/2-z
1/2+x,1/2+y,z
1/2-x,1/2-y,1/2+z
1/2+x,1/2-y,-z
1/2-x,1/2+y,1/2-z
loop_
_atom_site_type_symbol
_atom_site_label
_atom_site_fract_x
_atom_site_fract_y
_atom_site_fract_z
Si Si1 0.536873 0.878508 0.483749
Si Si2 0.263332 0.035303 0.904025
Si Si3 0.117458 0.856352 0.821506
Si Si4 0.743004 0.661024 0.559281
Si Si5 0.627044 0.926147 0.683744
Si Si6 0.943733 0.125141 0.532724
Si Si7 0.147933 0.725470 0.772002
Si Si8 0.735711 0.224487 0.565728
O O1 0.609375 0.921485 0.411675
O O2 0.378310 0.873086 0.468299
O O3 0.572909 0.903935 0.584261
O O4 0.613504 0.816980 0.470125
O O5 0.132148 0.076412 0.906519
O O6 0.293780 0.987032 0.828031
O O7 0.255640 0.000000 0.000000
O O8 0.260778 0.879614 0.786399
O O9 0.123065 0.786348 0.824931
O O10 0.000000 0.871882 0.750000
O O11 0.089471 0.882170 0.923319
O O12 0.602727 0.627664 0.548384
O O13 0.765654 0.684077 0.663185
O O14 0.737312 0.717255 0.492982
O O15 0.500000 0.931078 0.750000
O O16 0.871394 0.186397 0.555734
O O17 0.213451 0.737847 0.673239
O O18 0.000000 0.699673 0.750000
#
# Coordination Sequence:
#
# PCOD9319207 Si02
#       8
#     8   8   8   8   8   8   8   8
#     4  10  21  40  65  91 126 174 211 253 319 391
#     4   9  19  45  67  79 120 172 199 259 342 377
#     4  11  22  40  63  97 129 167 211 268 327 379
#     4  12  22  37  62 101 126 167 224 257 303 399
#     4  11  23  42  70  99 120 161 221 278 327 384
#     4  11  22  40  65  89 131 176 208 258 338 389
#     4  11  22  38  62  91 132 175 210 258 311 382
#     4  11  21  40  62  88 137 181 201 250 335 384
#
# _framework density 19.408137
#
# number of rings (size 3 to 8) (size 9 to 14) (size 15 to 20)
#    0.000    1.250    6.250    2.250    3.500    0.500 
#    4.500    3.125    0.000    0.000    0.000    0.000 
#    0.000    0.000    0.000    0.000    0.000    0.000 
#
# Total GULP energy -178720.185528 kJ/mol
# GULP energy per Si atom -5585.005798 kJ/mol
# Density = 1.936396 g / cm^3
# Si number density = 19.408137 Si / 1000 Ang^3
#
#
#
# Elastic Constant Matrix: (Units=GPa)
#
#
# Indices 1 2 3 4 5 6 
#
# 1 153.6106 43.8497 14.2415 0.0000 0.0000 0.0000
# 2 43.8497 61.5041 12.8949 0.0000 0.0000 0.0000
# 3 14.2415 12.8949 68.0306 0.0000 0.0000 0.0000
# 4 0.0000 0.0000 0.0000 15.5398 0.0000 0.0000
# 5 0.0000 0.0000 0.0000 0.0000 29.0656 0.0000
# 6 0.0000 0.0000 0.0000 0.0000 0.0000 16.1836
#
#
#
# Elastic Compliance Matrix: (Units=1/GPa)
#
#
# Indices 1 2 3 4 5 6 
#
# 1 0.008200 -0.005713 -0.000634 0.000000 0.000000 0.000000
# 2 -0.005713 0.020913 -0.002768 0.000000 0.000000 0.000000
# 3 -0.000634 -0.002768 0.015357 0.000000 0.000000 0.000000
# 4 0.000000 0.000000 0.000000 0.064351 0.000000 0.000000
# 5 0.000000 0.000000 0.000000 0.000000 0.034405 0.000000
# 6 0.000000 0.000000 0.000000 0.000000 0.000000 0.061791
#
#
# Mechanical properties :
#
#
# Convention : Reuss Voigt Hill
#
# Bulk Modulus (GPa) = 38.11053 47.23529 42.67291
# Shear Modulus (GPa) = 21.55255 26.30175 23.92715
#
# Velocity S-wave (km/s) = 3.33602 3.68529 3.51499
# Velocity P-wave (km/s) = 5.87517 6.51914 6.20552
#
# Compressibility (1/GPa) = 0.02623947
#
# Stress axis : x y z
#
# Youngs Moduli (GPa) = 121.95763 47.81814 65.11880
#
# Poissons Ratio (x) = 0.27319 0.04126
# Poissons Ratio (y) = 0.69675 0.18024
# Poissons Ratio (z) = 0.07727 0.13236
#
# Static dielectric constant tensor:
#      x y z
#    x 1.666570 0.000000 0.000000 
#    y 0.000000 1.692350 0.000000 
#    z 0.000000 0.000000 1.697680 
# 
# From -- ./inp_files/19366.got.cif
#   From: 2010.05.17/outbox.cif.g08.bks.cpg/sg20_10_cif.got.tgz:19366.got - 2010.06.03 22:52:26.
