data_PCOD9319018
_publ_section_title
;
Structure prediction by ZEFSAII (Michael W. Deem and Ramdas Pophale) SiO2 
 PCOD9319018
Probable space group: C 2 2 21
;
_chemical_formula_sum "Si O2"
_cell_formula_units_Z 40
_cell_length_a 8.828503
_cell_length_b 22.880851
_cell_length_c 8.913353
_cell_angle_alpha 90.000000
_cell_angle_beta 90.000000
_cell_angle_gamma 90.000000
_cell_volume 1800.529944
_symmetry_space_group_name_H-M "C 2 2 21"
_symmetry_group_IT_number 20
_symmetry_cell_setting 'orthorhombic'
loop_
_space_group_symop_operation_xyz
x,y,z
-x,-y,1/2+z
x,-y,-z
-x,y,1/2-z
1/2+x,1/2+y,z
1/2-x,1/2-y,1/2+z
1/2+x,1/2-y,-z
1/2-x,1/2+y,1/2-z
loop_
_atom_site_type_symbol
_atom_site_label
_atom_site_fract_x
_atom_site_fract_y
_atom_site_fract_z
Si Si1 0.260624 0.224525 0.133618
Si Si2 0.491832 0.805518 0.092454
Si Si3 0.500000 0.319487 0.250000
Si Si4 0.645340 0.118181 0.164190
Si Si5 0.000000 0.985945 0.750000
Si Si6 0.936408 0.920383 0.017244
O O1 0.363542 0.275059 0.210197
O O2 0.279203 0.165329 0.224992
O O3 0.093777 0.248527 0.117014
O O4 0.331445 0.213401 0.970337
O O5 0.500000 0.838174 0.250000
O O6 0.567350 0.843738 0.965229
O O7 0.502546 0.363342 0.394733
O O8 0.500000 0.088959 0.250000
O O9 0.783271 0.086524 0.080262
O O10 0.094816 0.032465 0.649704
O O11 0.052765 0.944788 0.889037
#
# Coordination Sequence:
#
# PCOD9319018 Si02
#       6
#     8   8   4   8   4   8
#     4  11  22  37  55  91 142 186 224 257 313 413
#     4  11  22  35  54  83 134 189 223 263 301 380
#     4  11  20  34  62  92 140 184 216 261 332 406
#     4  10  21  39  58  91 138 178 210 261 327 414
#     4   9  22  44  66  96 116 154 224 313 332 388
#     4  10  21  41  67  92 125 167 224 283 349 381
#
# _framework density 22.215682999999999
#
# number of rings (size 3 to 8) (size 9 to 14) (size 15 to 20)
#    0.000    1.600    5.000    1.200    0.000    1.600 
#    3.600    0.000    0.000    9.600    0.000    0.000 
#    0.000    0.000    0.000    0.000    0.000    0.000 
#
# Total GULP energy -111447.416200 kJ/mol
# GULP energy per Si atom -5572.370810 kJ/mol
# Density = 2.216512 g / cm^3
# Si number density = 22.215683 Si / 1000 Ang^3
#
#
#
# Elastic Constant Matrix: (Units=GPa)
#
#
# Indices 1 2 3 4 5 6 
#
# 1 42.5319 17.6605 52.7568 0.0000 0.0000 0.0000
# 2 17.6605 84.4846 37.3533 0.0000 0.0000 0.0000
# 3 52.7568 37.3533 155.0567 0.0000 0.0000 0.0000
# 4 0.0000 0.0000 0.0000 8.3463 0.0000 0.0000
# 5 0.0000 0.0000 0.0000 0.0000 49.5008 0.0000
# 6 0.0000 0.0000 0.0000 0.0000 0.0000 19.3482
#
#
#
# Elastic Compliance Matrix: (Units=1/GPa)
#
#
# Indices 1 2 3 4 5 6 
#
# 1 0.041225 -0.002704 -0.013375 0.000000 0.000000 0.000000
# 2 -0.002704 0.013425 -0.002314 0.000000 0.000000 0.000000
# 3 -0.013375 -0.002314 0.011557 0.000000 0.000000 0.000000
# 4 0.000000 0.000000 0.000000 0.119813 0.000000 0.000000
# 5 0.000000 0.000000 0.000000 0.000000 0.020202 0.000000
# 6 0.000000 0.000000 0.000000 0.000000 0.000000 0.051684
#
#
# Mechanical properties :
#
#
# Convention : Reuss Voigt Hill
#
# Bulk Modulus (GPa) = 33.98924 55.29048 44.63986
# Shear Modulus (GPa) = 16.42034 27.05923 21.73978
#
# Velocity S-wave (km/s) = 2.72165 3.49381 3.13162
# Velocity P-wave (km/s) = 5.02089 6.42010 5.76312
#
# Compressibility (1/GPa) = 0.02942107
#
# Stress axis : x y z
#
# Youngs Moduli (GPa) = 24.25701 74.48880 86.52406
#
# Poissons Ratio (x) = 0.20142 1.15727
# Poissons Ratio (y) = 0.06559 0.20022
# Poissons Ratio (z) = 0.32444 0.17237
#
# Static dielectric constant tensor:
#      x y z
#    x 1.915000 0.000000 0.000000 
#    y 0.000000 1.853320 0.000000 
#    z 0.000000 0.000000 1.875740 
# 
# From -- ./inp_files/6146.got.cif
#   From: 2010.05.17/outbox.cif.g08.bks.cpg/sg20_4_cif.got.tgz:6146.got - 2010.06.03 22:52:26.
