data_PCOD9319352
_publ_section_title
;
Structure prediction by ZEFSAII (Michael W. Deem and Ramdas Pophale) SiO2 
 PCOD9319352
Probable space group: C 2 2 21
;
_chemical_formula_sum "Si O2"
_cell_formula_units_Z 56
_cell_length_a 7.752371
_cell_length_b 16.732925
_cell_length_c 15.623846
_cell_angle_alpha 90.000000
_cell_angle_beta 90.000000
_cell_angle_gamma 90.000000
_cell_volume 2026.722843
_symmetry_space_group_name_H-M "C 2 2 21"
_symmetry_group_IT_number 20
_symmetry_cell_setting 'orthorhombic'
loop_
_space_group_symop_operation_xyz
x,y,z
-x,-y,1/2+z
x,-y,-z
-x,y,1/2-z
1/2+x,1/2+y,z
1/2-x,1/2-y,1/2+z
1/2+x,1/2-y,-z
1/2-x,1/2+y,1/2-z
loop_
_atom_site_type_symbol
_atom_site_label
_atom_site_fract_x
_atom_site_fract_y
_atom_site_fract_z
Si Si1 0.653623 0.853248 0.320039
Si Si2 0.120160 0.855534 0.952818
Si Si3 0.728352 0.989809 0.776495
Si Si4 0.837819 0.179357 0.187786
Si Si5 0.461507 0.943301 0.916966
Si Si6 0.416576 0.440507 0.078414
Si Si7 0.616944 0.172520 0.965330
O O1 0.500000 0.850060 0.250000
O O2 0.751397 0.767149 0.313487
O O3 0.554747 0.843968 0.410200
O O4 0.735932 0.938593 0.293131
O O5 0.266419 0.910747 0.910285
O O6 0.170642 0.764076 0.965441
O O7 0.939707 0.846275 0.900026
O O8 0.084172 0.895443 0.045139
O O9 0.739536 0.893976 0.767573
O O10 0.557417 0.988724 0.839386
O O11 0.893497 0.010482 0.836186
O O12 0.000000 0.191125 0.250000
O O13 0.575785 0.865648 0.942402
O O14 0.469504 0.000000 0.000000
O O15 0.268307 0.374740 0.081028
O O16 0.377393 0.500000 0.000000
#
# Coordination Sequence:
#
# PCOD9319352 Si02
#       7
#     8   8   8   8   8   8   8
#     4  10  21  41  69  99 137 191 239 292 357 439
#     4  11  25  40  68 104 143 177 240 303 348 435
#     4  12  23  44  76  98 148 198 237 299 368 432
#     4  10  24  44  68 100 136 191 241 291 369 421
#     4  12  23  41  69 109 137 183 242 286 359 436
#     4  12  20  42  69  99 135 185 228 289 365 417
#     4  11  21  42  67 100 140 188 233 292 368 425
#
# _framework density 27.630811000000001
#
# number of rings (size 3 to 8) (size 9 to 14) (size 15 to 20)
#    0.000    0.857    5.714    1.286    0.000    3.429 
#    0.000    0.000    0.000    0.000    0.000    0.000 
#    0.000    0.000    0.000    0.000    0.000    0.000 
#
# Total GULP energy -156605.976345 kJ/mol
# GULP energy per Si atom -5593.070584 kJ/mol
# Density = 2.756792 g / cm^3
# Si number density = 27.630811 Si / 1000 Ang^3
#
#
#
# Elastic Constant Matrix: (Units=GPa)
#
#
# Indices 1 2 3 4 5 6 
#
# 1 99.8752 50.3006 5.4013 0.0000 0.0000 0.0000
# 2 50.3006 272.3522 53.5869 0.0000 0.0000 0.0000
# 3 5.4013 53.5869 116.3503 0.0000 0.0000 0.0000
# 4 0.0000 0.0000 0.0000 6.1545 0.0000 0.0000
# 5 0.0000 0.0000 0.0000 0.0000 28.8923 0.0000
# 6 0.0000 0.0000 0.0000 0.0000 0.0000 59.1357
#
#
#
# Elastic Compliance Matrix: (Units=1/GPa)
#
#
# Indices 1 2 3 4 5 6 
#
# 1 0.011063 -0.002136 0.000470 0.000000 0.000000 0.000000
# 2 -0.002136 0.004450 -0.001950 0.000000 0.000000 0.000000
# 3 0.000470 -0.001950 0.009471 0.000000 0.000000 0.000000
# 4 0.000000 0.000000 0.000000 0.162481 0.000000 0.000000
# 5 0.000000 0.000000 0.000000 0.000000 0.034611 0.000000
# 6 0.000000 0.000000 0.000000 0.000000 0.000000 0.016910
#
#
# Mechanical properties :
#
#
# Convention : Reuss Voigt Hill
#
# Bulk Modulus (GPa) = 56.33208 78.57282 67.45245
# Shear Modulus (GPa) = 19.83058 44.12244 31.97651
#
# Velocity S-wave (km/s) = 2.68190 4.00040 3.40557
# Velocity P-wave (km/s) = 5.47921 7.05946 6.31893
#
# Compressibility (1/GPa) = 0.01775188
#
# Stress axis : x y z
#
# Youngs Moduli (GPa) = 90.39417 224.72486 105.58366
#
# Poissons Ratio (x) = 0.47993 -0.04963
# Poissons Ratio (y) = 0.19305 0.20592
# Poissons Ratio (z) = -0.04249 0.43829
#
# Static dielectric constant tensor:
#      x y z
#    x 2.307830 0.000000 0.000000 
#    y 0.000000 2.152490 0.000000 
#    z 0.000000 0.000000 2.433320 
# 
# From -- ./inp_files/26706.got.cif
#   From: 2010.05.17/outbox.cif.g08.bks.cpg/sg20_14_cif.got.tgz:26706.got - 2010.06.03 22:52:26.
