data_PCOD9319181
_publ_section_title
;
Structure prediction by ZEFSAII (Michael W. Deem and Ramdas Pophale) SiO2 
 PCOD9319181
Probable space group: C 2 2 21
;
_chemical_formula_sum "Si O2"
_cell_formula_units_Z 52
_cell_length_a 19.566567
_cell_length_b 14.990124
_cell_length_c 8.528982
_cell_angle_alpha 90.000000
_cell_angle_beta 90.000000
_cell_angle_gamma 90.000000
_cell_volume 2501.595331
_symmetry_space_group_name_H-M "C 2 2 21"
_symmetry_group_IT_number 20
_symmetry_cell_setting 'orthorhombic'
loop_
_space_group_symop_operation_xyz
x,y,z
-x,-y,1/2+z
x,-y,-z
-x,y,1/2-z
1/2+x,1/2+y,z
1/2-x,1/2-y,1/2+z
1/2+x,1/2-y,-z
1/2-x,1/2+y,1/2-z
loop_
_atom_site_type_symbol
_atom_site_label
_atom_site_fract_x
_atom_site_fract_y
_atom_site_fract_z
Si Si1 0.000000 0.568917 0.750000
Si Si2 0.095275 0.248907 0.995268
Si Si3 0.759401 0.942930 0.721422
Si Si4 0.831602 0.774960 0.824796
Si Si5 0.895174 0.419319 0.691027
Si Si6 0.286798 0.633217 0.629068
Si Si7 0.446189 0.800647 0.979858
O O1 0.943875 0.503571 0.676056
O O2 0.964349 0.629919 0.880649
O O3 0.110615 0.351837 0.953672
O O4 0.142528 0.186788 0.886895
O O5 0.119713 0.229820 0.171774
O O6 0.014275 0.240733 0.967802
O O7 0.796115 0.871004 0.831182
O O8 0.679748 0.949558 0.759353
O O9 0.766859 0.900212 0.546943
O O10 0.790514 0.041645 0.724788
O O11 0.772003 0.700647 0.813406
O O12 0.879420 0.753436 0.971118
O O13 0.928307 0.358124 0.827846
#
# Coordination Sequence:
#
# PCOD9319181 Si02
#       7
#     4   8   8   8   8   8   8
#     4  12  24  36  60  98 128 164 210 250 326 394
#     4  11  23  40  60  90 127 172 203 258 322 381
#     4  10  22  38  65  94 121 170 214 259 316 379
#     4  11  21  40  66  92 127 165 211 268 315 377
#     4  12  23  37  61  90 132 163 202 259 320 388
#     4  10  21  40  63  91 127 168 217 258 315 382
#     4  12  23  40  62  93 131 166 204 261 323 380
#
# _framework density 20.786735
#
# number of rings (size 3 to 8) (size 9 to 14) (size 15 to 20)
#    0.000    0.923    6.154    1.385    2.154    0.000 
#    0.000    0.000    0.000   14.769    0.000    0.000 
#    0.000    0.000    0.000    0.000    0.000    0.000 
#
# Total GULP energy -145468.230041 kJ/mol
# GULP energy per Si atom -5594.931925 kJ/mol
# Density = 2.073942 g / cm^3
# Si number density = 20.786735 Si / 1000 Ang^3
#
#
#
# Elastic Constant Matrix: (Units=GPa)
#
#
# Indices 1 2 3 4 5 6 
#
# 1 127.4610 75.5429 16.4635 0.0000 0.0000 0.0000
# 2 75.5429 133.2828 9.0842 0.0000 0.0000 0.0000
# 3 16.4635 9.0842 32.3397 0.0000 0.0000 0.0000
# 4 0.0000 0.0000 0.0000 24.3538 0.0000 0.0000
# 5 0.0000 0.0000 0.0000 0.0000 21.2515 0.0000
# 6 0.0000 0.0000 0.0000 0.0000 0.0000 32.7780
#
#
#
# Elastic Compliance Matrix: (Units=1/GPa)
#
#
# Indices 1 2 3 4 5 6 
#
# 1 0.012406 -0.006730 -0.004425 0.000000 0.000000 0.000000
# 2 -0.006730 0.011300 0.000252 0.000000 0.000000 0.000000
# 3 -0.004425 0.000252 0.033104 0.000000 0.000000 0.000000
# 4 0.000000 0.000000 0.000000 0.041061 0.000000 0.000000
# 5 0.000000 0.000000 0.000000 0.000000 0.047056 0.000000
# 6 0.000000 0.000000 0.000000 0.000000 0.000000 0.030508
#
#
# Mechanical properties :
#
#
# Convention : Reuss Voigt Hill
#
# Bulk Modulus (GPa) = 28.56871 55.02940 41.79906
# Shear Modulus (GPa) = 23.93393 28.47618 26.20506
#
# Velocity S-wave (km/s) = 3.39692 3.70526 3.55443
# Velocity P-wave (km/s) = 5.39990 6.69597 6.08256
#
# Compressibility (1/GPa) = 0.03500333
#
# Stress axis : x y z
#
# Youngs Moduli (GPa) = 80.60838 88.49541 30.20811
#
# Poissons Ratio (x) = 0.59555 0.13367
# Poissons Ratio (y) = 0.54248 -0.00761
# Poissons Ratio (z) = 0.35670 -0.02228
#
# Static dielectric constant tensor:
#      x y z
#    x 1.732230 0.000000 0.000000 
#    y 0.000000 1.714470 0.000000 
#    z 0.000000 0.000000 1.814730 
# 
# From -- ./inp_files/10112.got.cif
#   From: 2010.05.17/outbox.cif.g08.bks.cpg/sg20_6_cif.got.tgz:10112.got - 2010.06.03 22:52:26.
