data_PCOD9319772
_publ_section_title
;
Structure prediction by ZEFSAII (Michael W. Deem and Ramdas Pophale) SiO2 
 PCOD9319772
Probable space group: C 2 2 21
;
_chemical_formula_sum "Si O2"
_cell_formula_units_Z 36
_cell_length_a 16.376755
_cell_length_b 19.546810
_cell_length_c 5.267735
_cell_angle_alpha 90.000000
_cell_angle_beta 90.000000
_cell_angle_gamma 90.000000
_cell_volume 1686.272131
_symmetry_space_group_name_H-M "C 2 2 21"
_symmetry_group_IT_number 20
_symmetry_cell_setting 'orthorhombic'
loop_
_space_group_symop_operation_xyz
x,y,z
-x,-y,1/2+z
x,-y,-z
-x,y,1/2-z
1/2+x,1/2+y,z
1/2-x,1/2-y,1/2+z
1/2+x,1/2-y,-z
1/2-x,1/2+y,1/2-z
loop_
_atom_site_type_symbol
_atom_site_label
_atom_site_fract_x
_atom_site_fract_y
_atom_site_fract_z
Si Si1 0.768253 0.500000 0.000000
Si Si2 0.000000 0.959345 0.750000
Si Si3 0.199483 0.243555 0.100856
Si Si4 0.672531 0.111236 0.851269
Si Si5 0.668348 0.600799 0.328166
Si Si6 0.445421 0.000000 0.500000
O O1 0.820746 0.563056 0.893951
O O2 0.710048 0.465893 0.793534
O O3 0.925105 0.917426 0.872750
O O4 0.968321 0.000000 0.500000
O O5 0.272189 0.248480 0.310566
O O6 0.145417 0.310218 0.170866
O O7 0.166725 0.167611 0.148379
O O8 0.613483 0.066194 0.027128
O O9 0.766193 0.116275 0.950978
O O10 0.500000 0.008125 0.750000
#
# Coordination Sequence:
#
# PCOD9319772 Si02
#       6
#     4   4   8   8   8   4
#     4  12  17  38  69  94 120 176 216 267 306 393
#     4  12  26  40  64 102 136 162 216 272 320 380
#     4  10  22  39  66  97 126 168 221 262 314 395
#     4  11  23  41  68  94 129 174 219 264 330 390
#     4  11  23  40  67  96 133 173 216 266 326 389
#     4  12  27  42  65  98 130 164 222 283 324 379
#
# _framework density 21.348869000000001
#
# number of rings (size 3 to 8) (size 9 to 14) (size 15 to 20)
#    0.000    0.889    5.556    2.000    0.000    0.000 
#    2.000    0.000    2.444    0.000    0.000    0.000 
#    0.000    0.000    0.000    0.000    0.000    0.000 
#
# Total GULP energy -100331.334813 kJ/mol
# GULP energy per Si atom -5573.963045 kJ/mol
# Density = 2.130028 g / cm^3
# Si number density = 21.348869 Si / 1000 Ang^3
#
#
#
# Elastic Constant Matrix: (Units=GPa)
#
#
# Indices 1 2 3 4 5 6 
#
# 1 92.8341 12.2771 19.8104 0.0000 0.0000 0.0000
# 2 12.2771 120.3572 4.1894 0.0000 0.0000 0.0000
# 3 19.8104 4.1894 70.9195 0.0000 0.0000 0.0000
# 4 0.0000 0.0000 0.0000 40.7745 0.0000 0.0000
# 5 0.0000 0.0000 0.0000 0.0000 20.1965 0.0000
# 6 0.0000 0.0000 0.0000 0.0000 0.0000 11.4128
#
#
#
# Elastic Compliance Matrix: (Units=1/GPa)
#
#
# Indices 1 2 3 4 5 6 
#
# 1 0.011591 -0.001072 -0.003175 0.000000 0.000000 0.000000
# 2 -0.001072 0.008425 -0.000198 0.000000 0.000000 0.000000
# 3 -0.003175 -0.000198 0.014999 0.000000 0.000000 0.000000
# 4 0.000000 0.000000 0.000000 0.024525 0.000000 0.000000
# 5 0.000000 0.000000 0.000000 0.000000 0.049514 0.000000
# 6 0.000000 0.000000 0.000000 0.000000 0.000000 0.087621
#
#
# Mechanical properties :
#
#
# Convention : Reuss Voigt Hill
#
# Bulk Modulus (GPa) = 38.27659 39.62941 38.95300
# Shear Modulus (GPa) = 23.33475 30.99900 27.16688
#
# Velocity S-wave (km/s) = 3.30967 3.81467 3.57111
# Velocity P-wave (km/s) = 5.70730 6.16485 5.94048
#
# Compressibility (1/GPa) = 0.02612563
#
# Stress axis : x y z
#
# Youngs Moduli (GPa) = 86.27324 118.69661 66.67125
#
# Poissons Ratio (x) = 0.12723 0.21165
# Poissons Ratio (y) = 0.09247 0.01322
# Poissons Ratio (z) = 0.27387 0.02353
#
# Static dielectric constant tensor:
#      x y z
#    x 1.786540 0.000000 0.000000 
#    y 0.000000 1.839190 0.000000 
#    z 0.000000 0.000000 1.844520 
# 
# From -- ./inp_files/1773.got.cif
#   From: 2010.05.17/outbox.cif.g08.bks.cpg/sg20_1_cif.got.tgz:1773.got - 2010.06.03 22:52:26.
