data_PCOD9319333
_publ_section_title
;
Structure prediction by ZEFSAII (Michael W. Deem and Ramdas Pophale) SiO2 
 PCOD9319333
Probable space group: C 2 2 21
;
_chemical_formula_sum "Si O2"
_cell_formula_units_Z 40
_cell_length_a 10.773075
_cell_length_b 10.812438
_cell_length_c 14.772998
_cell_angle_alpha 90.000000
_cell_angle_beta 90.000000
_cell_angle_gamma 90.000000
_cell_volume 1720.806162
_symmetry_space_group_name_H-M "C 2 2 21"
_symmetry_group_IT_number 20
_symmetry_cell_setting 'orthorhombic'
loop_
_space_group_symop_operation_xyz
x,y,z
-x,-y,1/2+z
x,-y,-z
-x,y,1/2-z
1/2+x,1/2+y,z
1/2-x,1/2-y,1/2+z
1/2+x,1/2-y,-z
1/2-x,1/2+y,1/2-z
loop_
_atom_site_type_symbol
_atom_site_label
_atom_site_fract_x
_atom_site_fract_y
_atom_site_fract_z
Si Si1 0.644452 0.303999 0.550166
Si Si2 0.456934 0.538700 0.352113
Si Si3 0.914507 0.577361 0.836661
Si Si4 0.188981 0.669067 0.371084
Si Si5 0.166707 0.206335 0.818259
O O1 0.565353 0.420317 0.580823
O O2 0.565119 0.189580 0.594256
O O3 0.671779 0.271389 0.447432
O O4 0.775046 0.293420 0.604556
O O5 0.500000 0.570567 0.250000
O O6 0.329749 0.614293 0.372390
O O7 0.433843 0.390845 0.353921
O O8 0.899508 0.448639 0.887805
O O9 0.779383 0.611740 0.795975
O O10 0.000000 0.572455 0.750000
O O11 0.149082 0.717922 0.272679
#
# Coordination Sequence:
#
# PCOD9319333 Si02
#       5
#     8   8   8   8   8
#     4  10  21  41  67  98 137 183 237 294 360 419
#     4  11  21  43  71  92 144 198 224 302 375 405
#     4   9  19  38  68  88 131 183 229 288 364 413
#     4  11  21  41  67 103 136 180 254 292 347 451
#     4   9  22  39  66  96 135 186 236 281 362 433
#
# _framework density 23.244917999999998
#
# number of rings (size 3 to 8) (size 9 to 14) (size 15 to 20)
#    1.200    0.800    2.000    2.400    0.000    0.800 
#   10.800    0.000    0.000    0.000    0.000    0.000 
#    0.000    0.000    0.000    0.000    0.000    0.000 
#
# Total GULP energy -111661.495466 kJ/mol
# GULP energy per Si atom -5583.074773 kJ/mol
# Density = 2.319201 g / cm^3
# Si number density = 23.244918 Si / 1000 Ang^3
#
#
#
# Elastic Constant Matrix: (Units=GPa)
#
#
# Indices 1 2 3 4 5 6 
#
# 1 65.7363 27.5315 28.3349 0.0000 0.0000 0.0000
# 2 27.5315 82.1159 32.0532 0.0000 0.0000 0.0000
# 3 28.3349 32.0532 107.1055 0.0000 0.0000 0.0000
# 4 0.0000 0.0000 0.0000 30.5734 0.0000 0.0000
# 5 0.0000 0.0000 0.0000 0.0000 24.3006 0.0000
# 6 0.0000 0.0000 0.0000 0.0000 0.0000 19.0624
#
#
#
# Elastic Compliance Matrix: (Units=1/GPa)
#
#
# Indices 1 2 3 4 5 6 
#
# 1 0.018784 -0.004935 -0.003493 0.000000 0.000000 0.000000
# 2 -0.004935 0.015085 -0.003209 0.000000 0.000000 0.000000
# 3 -0.003493 -0.003209 0.011221 0.000000 0.000000 0.000000
# 4 0.000000 0.000000 0.000000 0.032708 0.000000 0.000000
# 5 0.000000 0.000000 0.000000 0.000000 0.041151 0.000000
# 6 0.000000 0.000000 0.000000 0.000000 0.000000 0.052459
#
#
# Mechanical properties :
#
#
# Convention : Reuss Voigt Hill
#
# Bulk Modulus (GPa) = 45.83417 47.86631 46.85024
# Shear Modulus (GPa) = 24.75807 25.92316 25.34062
#
# Velocity S-wave (km/s) = 3.26712 3.34311 3.30533
# Velocity P-wave (km/s) = 5.83034 5.96144 5.89625
#
# Compressibility (1/GPa) = 0.02181778
#
# Stress axis : x y z
#
# Youngs Moduli (GPa) = 53.23540 66.29114 89.11925
#
# Poissons Ratio (x) = 0.32712 0.31127
# Poissons Ratio (y) = 0.26270 0.28598
# Poissons Ratio (z) = 0.18593 0.21273
#
# Static dielectric constant tensor:
#      x y z
#    x 1.942380 0.000000 0.000000 
#    y 0.000000 1.895290 0.000000 
#    z 0.000000 0.000000 1.827170 
# 
# From -- ./inp_files/19670.got.cif
#   From: 2010.05.17/outbox.cif.g08.bks.cpg/sg20_10_cif.got.tgz:19670.got - 2010.06.03 22:52:26.
