data_PCOD9319470
_publ_section_title
;
Structure prediction by ZEFSAII (Michael W. Deem and Ramdas Pophale) SiO2 
 PCOD9319470
Probable space group: C 2 2 21
;
_chemical_formula_sum "Si O2"
_cell_formula_units_Z 32
_cell_length_a 12.231462
_cell_length_b 9.870934
_cell_length_c 12.375372
_cell_angle_alpha 90.000000
_cell_angle_beta 90.000000
_cell_angle_gamma 90.000000
_cell_volume 1494.152346
_symmetry_space_group_name_H-M "C 2 2 21"
_symmetry_group_IT_number 20
_symmetry_cell_setting 'orthorhombic'
loop_
_space_group_symop_operation_xyz
x,y,z
-x,-y,1/2+z
x,-y,-z
-x,y,1/2-z
1/2+x,1/2+y,z
1/2-x,1/2-y,1/2+z
1/2+x,1/2-y,-z
1/2-x,1/2+y,1/2-z
loop_
_atom_site_type_symbol
_atom_site_label
_atom_site_fract_x
_atom_site_fract_y
_atom_site_fract_z
Si Si1 0.000000 0.039371 0.750000
Si Si2 0.136858 0.393725 0.915677
Si Si3 0.500000 0.064679 0.750000
Si Si4 0.354271 0.688699 0.180569
Si Si5 0.009048 0.145912 0.978383
O O1 0.023020 0.131726 0.646882
O O2 0.899866 0.931886 0.743076
O O3 0.043782 0.471137 0.847198
O O4 0.226381 0.328840 0.836680
O O5 0.086392 0.273645 0.986459
O O6 0.187836 0.500000 0.000000
O O7 0.599179 0.167262 0.719329
O O8 0.412328 0.661715 0.064327
O O9 0.062981 0.000000 0.000000
#
# Coordination Sequence:
#
# PCOD9319470 Si02
#       5
#     4   8   4   8   8
#     4   9  19  38  66  94 126 184 234 268 334 418
#     4  12  24  44  71 104 139 185 230 290 349 404
#     4  11  25  48  66 110 140 174 242 290 328 430
#     4  10  23  44  68  97 146 179 226 292 345 402
#     4  10  21  43  64  99 134 179 232 282 334 419
#
# _framework density 21.416826
#
# number of rings (size 3 to 8) (size 9 to 14) (size 15 to 20)
#    0.000    1.500    2.500    3.000    3.500    0.000 
#    9.000    0.000    0.000    0.000    0.000    0.000 
#    0.000    0.000    0.000    0.000    0.000    0.000 
#
# Total GULP energy -89303.230927 kJ/mol
# GULP energy per Si atom -5581.451933 kJ/mol
# Density = 2.136808 g / cm^3
# Si number density = 21.416826 Si / 1000 Ang^3
#
#
#
# Elastic Constant Matrix: (Units=GPa)
#
#
# Indices 1 2 3 4 5 6 
#
# 1 47.7867 23.9198 -13.3398 0.0000 0.0000 0.0000
# 2 23.9198 120.6382 10.5995 0.0000 0.0000 0.0000
# 3 -13.3398 10.5995 75.0361 0.0000 0.0000 0.0000
# 4 0.0000 0.0000 0.0000 33.3053 0.0000 0.0000
# 5 0.0000 0.0000 0.0000 0.0000 32.3148 0.0000
# 6 0.0000 0.0000 0.0000 0.0000 0.0000 14.7956
#
#
#
# Elastic Compliance Matrix: (Units=1/GPa)
#
#
# Indices 1 2 3 4 5 6 
#
# 1 0.025109 -0.005438 0.005232 0.000000 0.000000 0.000000
# 2 -0.005438 0.009571 -0.002319 0.000000 0.000000 0.000000
# 3 0.005232 -0.002319 0.014585 0.000000 0.000000 0.000000
# 4 0.000000 0.000000 0.000000 0.030025 0.000000 0.000000
# 5 0.000000 0.000000 0.000000 0.000000 0.030946 0.000000
# 6 0.000000 0.000000 0.000000 0.000000 0.000000 0.067588
#
#
# Mechanical properties :
#
#
# Convention : Reuss Voigt Hill
#
# Bulk Modulus (GPa) = 22.61688 31.75777 27.18733
# Shear Modulus (GPa) = 25.30217 30.90191 28.10204
#
# Velocity S-wave (km/s) = 3.44090 3.80265 3.62629
# Velocity P-wave (km/s) = 5.13514 5.84301 5.50047
#
# Compressibility (1/GPa) = 0.04421476
#
# Stress axis : x y z
#
# Youngs Moduli (GPa) = 39.82645 104.47949 68.56546
#
# Poissons Ratio (x) = 0.56818 -0.35873
# Poissons Ratio (y) = 0.21658 0.15899
# Poissons Ratio (z) = -0.20837 0.24227
#
# Static dielectric constant tensor:
#      x y z
#    x 1.779000 0.000000 0.000000 
#    y 0.000000 1.778330 0.000000 
#    z 0.000000 0.000000 1.848910 
# 
# From -- ./inp_files/12506.got.cif
#   From: 2010.05.17/outbox.cif.g08.bks.cpg/sg20_7_cif.got.tgz:12506.got - 2010.06.03 22:52:26.
