data_PCOD9319872
_publ_section_title
;
Structure prediction by ZEFSAII (Michael W. Deem and Ramdas Pophale) SiO2 
 PCOD9319872
Probable space group: C 2 2 21
;
_chemical_formula_sum "Si O2"
_cell_formula_units_Z 60
_cell_length_a 26.675201
_cell_length_b 5.723590
_cell_length_c 17.558975
_cell_angle_alpha 90.000000
_cell_angle_beta 90.000000
_cell_angle_gamma 90.000000
_cell_volume 2680.867670
_symmetry_space_group_name_H-M "C 2 2 21"
_symmetry_group_IT_number 20
_symmetry_cell_setting 'orthorhombic'
loop_
_space_group_symop_operation_xyz
x,y,z
-x,-y,1/2+z
x,-y,-z
-x,y,1/2-z
1/2+x,1/2+y,z
1/2-x,1/2-y,1/2+z
1/2+x,1/2-y,-z
1/2-x,1/2+y,1/2-z
loop_
_atom_site_type_symbol
_atom_site_label
_atom_site_fract_x
_atom_site_fract_y
_atom_site_fract_z
Si Si1 0.031083 0.777171 0.183117
Si Si2 0.123113 0.103565 0.217766
Si Si3 0.267093 0.568756 0.715550
Si Si4 0.587216 0.904334 0.079034
Si Si5 0.329884 0.500000 0.000000
Si Si6 0.387480 0.162441 0.882174
Si Si7 0.485617 0.638213 0.073278
Si Si8 0.297475 0.887972 0.918117
O O1 0.059605 0.608750 0.125588
O O2 0.000000 0.652152 0.250000
O O3 0.074218 0.942559 0.216632
O O4 0.993284 0.948457 0.139194
O O5 0.173137 0.949988 0.214779
O O6 0.120257 0.267226 0.141902
O O7 0.121751 0.244930 0.296969
O O8 0.250744 0.831425 0.739032
O O9 0.241263 0.510387 0.635931
O O10 0.540537 0.739171 0.055619
O O11 0.610564 0.000000 0.000000
O O12 0.363560 0.327750 0.948306
O O13 0.294618 0.616691 0.935947
O O14 0.446321 0.164362 0.900810
O O15 0.354559 0.929683 0.889631
O O16 0.466943 0.500000 0.000000
O O17 0.291513 0.000000 0.000000
#
# Coordination Sequence:
#
# PCOD9319872 Si02
#       8
#     8   8   8   8   4   8   8   8
#     4  11  24  42  68 100 141 185 234 300 354 442
#     4  11  26  44  71 101 139 190 246 294 373 438
#     4  12  27  51  79 108 148 196 250 320 379 449
#     4  11  26  44  64  98 142 190 241 297 352 441
#     4  10  22  40  66  98 146 178 228 304 372 438
#     4  11  21  40  65 105 136 182 237 297 367 445
#     4  11  22  41  65  96 139 187 233 287 366 438
#     4  10  24  44  69 104 145 187 239 306 373 451
#
# _framework density 22.380811999999999
#
# number of rings (size 3 to 8) (size 9 to 14) (size 15 to 20)
#    0.000    1.067    4.667    0.800    5.600    3.733 
#    3.600    0.000    0.000    0.000    0.000    0.000 
#    0.000    0.000    0.000    0.000    0.000    0.000 
#
# Total GULP energy -167521.086971 kJ/mol
# GULP energy per Si atom -5584.036232 kJ/mol
# Density = 2.232987 g / cm^3
# Si number density = 22.380812 Si / 1000 Ang^3
#
#
#
# Elastic Constant Matrix: (Units=GPa)
#
#
# Indices 1 2 3 4 5 6 
#
# 1 47.1635 -12.7636 30.9132 0.0000 0.0000 0.0000
# 2 -12.7636 43.1658 20.6944 0.0000 0.0000 0.0000
# 3 30.9132 20.6944 114.8664 0.0000 0.0000 0.0000
# 4 0.0000 0.0000 0.0000 31.5659 0.0000 0.0000
# 5 0.0000 0.0000 0.0000 0.0000 23.7747 0.0000
# 6 0.0000 0.0000 0.0000 0.0000 0.0000 -54.1089
#
#
#
# Elastic Compliance Matrix: (Units=1/GPa)
#
#
# Indices 1 2 3 4 5 6 
#
# 1 0.032980 0.015331 -0.011638 0.000000 0.000000 0.000000
# 2 0.015331 0.032483 -0.009978 0.000000 0.000000 0.000000
# 3 -0.011638 -0.009978 0.013635 0.000000 0.000000 0.000000
# 4 0.000000 0.000000 0.000000 0.031680 0.000000 0.000000
# 5 0.000000 0.000000 0.000000 0.000000 0.042062 0.000000
# 6 0.000000 0.000000 0.000000 0.000000 0.000000 -0.018481
#
#
# Mechanical properties :
#
#
# Convention : Reuss Voigt Hill
#
# Bulk Modulus (GPa) = 15.03111 31.43151 23.23131
# Shear Modulus (GPa) = 29.56758 11.33645 20.45201
#
# Velocity S-wave (km/s) = 3.63866 2.25305 3.02622
# Velocity P-wave (km/s) = 4.93799 4.56539 4.75534
#
# Compressibility (1/GPa) = 0.06652870
#
# Stress axis : x y z
#
# Youngs Moduli (GPa) = 30.32182 30.78500 73.33867
#
# Poissons Ratio (x) = -0.47196 0.85348
# Poissons Ratio (y) = -0.46486 0.73178
# Poissons Ratio (z) = 0.35287 0.30718
#
# Static dielectric constant tensor:
#      x y z
#    x 1.810980 0.000000 0.000000 
#    y 0.000000 1.986190 0.000000 
#    z 0.000000 0.000000 1.841870 
# 
# From -- ./inp_files/25701.got.cif
#   From: 2010.05.17/outbox.cif.g08.bks.cpg/sg20_13_cif.got.tgz:25701.got - 2010.06.03 22:52:26.
