data_PCOD9319176
_publ_section_title
;
Structure prediction by ZEFSAII (Michael W. Deem and Ramdas Pophale) SiO2 
 PCOD9319176
Probable space group: C 2 2 21
;
_chemical_formula_sum "Si O2"
_cell_formula_units_Z 40
_cell_length_a 26.221926
_cell_length_b 8.969611
_cell_length_c 7.737734
_cell_angle_alpha 90.000000
_cell_angle_beta 90.000000
_cell_angle_gamma 90.000000
_cell_volume 1819.918719
_symmetry_space_group_name_H-M "C 2 2 21"
_symmetry_group_IT_number 20
_symmetry_cell_setting 'orthorhombic'
loop_
_space_group_symop_operation_xyz
x,y,z
-x,-y,1/2+z
x,-y,-z
-x,y,1/2-z
1/2+x,1/2+y,z
1/2-x,1/2-y,1/2+z
1/2+x,1/2-y,-z
1/2-x,1/2+y,1/2-z
loop_
_atom_site_type_symbol
_atom_site_label
_atom_site_fract_x
_atom_site_fract_y
_atom_site_fract_z
Si Si1 0.635670 0.614862 0.155561
Si Si2 0.214646 0.314283 0.328716
Si Si3 0.552965 0.124232 0.842928
Si Si4 0.856521 0.456051 0.703279
Si Si5 0.675152 0.340690 0.321189
O O1 0.684420 0.723230 0.178390
O O2 0.585582 0.720956 0.133725
O O3 0.644827 0.496147 0.312194
O O4 0.638128 0.500000 0.000000
O O5 0.191063 0.478292 0.305726
O O6 0.273956 0.336439 0.296847
O O7 0.197301 0.224741 0.498734
O O8 0.500000 0.153625 0.750000
O O9 0.593371 0.035756 0.725461
O O10 0.545295 0.000000 0.000000
O O11 0.851279 0.500000 0.500000
O O12 0.860882 0.283413 0.736974
#
# Coordination Sequence:
#
# PCOD9319176 Si02
#       5
#     8   8   8   8   8
#     4  11  23  42  64  94 134 173 220 276 330 383
#     4  11  23  37  60  94 133 182 222 258 318 388
#     4  10  23  45  70  93 120 161 214 272 342 410
#     4  10  21  40  63  89 123 169 216 264 321 390
#     4  12  22  38  61  94 135 175 218 272 318 381
#
# _framework density 21.979005999999998
#
# number of rings (size 3 to 8) (size 9 to 14) (size 15 to 20)
#    0.000    1.200    0.000    8.400    0.000    3.200 
#    0.000   10.000    0.000    0.000    0.000    0.000 
#    0.000    0.000    0.000    0.000    0.000    0.000 
#
# Total GULP energy -111366.131926 kJ/mol
# GULP energy per Si atom -5568.306596 kJ/mol
# Density = 2.192898 g / cm^3
# Si number density = 21.979006 Si / 1000 Ang^3
#
#
#
# Elastic Constant Matrix: (Units=GPa)
#
#
# Indices 1 2 3 4 5 6 
#
# 1 107.3572 44.8320 38.9990 0.0000 0.0000 0.0000
# 2 44.8320 162.4336 31.8029 0.0000 0.0000 0.0000
# 3 38.9990 31.8029 108.5654 0.0000 0.0000 0.0000
# 4 0.0000 0.0000 0.0000 41.7133 0.0000 0.0000
# 5 0.0000 0.0000 0.0000 0.0000 13.9846 0.0000
# 6 0.0000 0.0000 0.0000 0.0000 0.0000 37.1675
#
#
#
# Elastic Compliance Matrix: (Units=1/GPa)
#
#
# Indices 1 2 3 4 5 6 
#
# 1 0.011620 -0.002535 -0.003431 0.000000 0.000000 0.000000
# 2 -0.002535 0.007084 -0.001164 0.000000 0.000000 0.000000
# 3 -0.003431 -0.001164 0.010785 0.000000 0.000000 0.000000
# 4 0.000000 0.000000 0.000000 0.023973 0.000000 0.000000
# 5 0.000000 0.000000 0.000000 0.000000 0.071507 0.000000
# 6 0.000000 0.000000 0.000000 0.000000 0.000000 0.026905
#
#
# Mechanical properties :
#
#
# Convention : Reuss Voigt Hill
#
# Bulk Modulus (GPa) = 65.67524 67.73599 66.70561
# Shear Modulus (GPa) = 29.20349 36.08791 32.64570
#
# Velocity S-wave (km/s) = 3.64909 4.05646 3.85816
# Velocity P-wave (km/s) = 6.90653 7.26810 7.08962
#
# Compressibility (1/GPa) = 0.01522644
#
# Stress axis : x y z
#
# Youngs Moduli (GPa) = 86.05893 141.16132 92.72301
#
# Poissons Ratio (x) = 0.35788 0.31817
# Poissons Ratio (y) = 0.21818 0.10797
# Poissons Ratio (z) = 0.29531 0.16438
#
# Static dielectric constant tensor:
#      x y z
#    x 1.770580 0.000000 0.000000 
#    y 0.000000 1.918560 0.000000 
#    z 0.000000 0.000000 1.968040 
# 
# From -- ./inp_files/10961.got.cif
#   From: 2010.05.17/outbox.cif.g08.bks.cpg/sg20_6_cif.got.tgz:10961.got - 2010.06.03 22:52:26.
