data_PCOD9319952
_publ_section_title
;
Structure prediction by ZEFSAII (Michael W. Deem and Ramdas Pophale) SiO2 
 PCOD9319952
Probable space group: C 2 2 21
;
_chemical_formula_sum "Si O2"
_cell_formula_units_Z 48
_cell_length_a 29.752480
_cell_length_b 8.177007
_cell_length_c 9.985857
_cell_angle_alpha 90.000000
_cell_angle_beta 90.000000
_cell_angle_gamma 90.000000
_cell_volume 2429.421575
_symmetry_space_group_name_H-M "C 2 2 21"
_symmetry_group_IT_number 20
_symmetry_cell_setting 'orthorhombic'
loop_
_space_group_symop_operation_xyz
x,y,z
-x,-y,1/2+z
x,-y,-z
-x,y,1/2-z
1/2+x,1/2+y,z
1/2-x,1/2-y,1/2+z
1/2+x,1/2-y,-z
1/2-x,1/2+y,1/2-z
loop_
_atom_site_type_symbol
_atom_site_label
_atom_site_fract_x
_atom_site_fract_y
_atom_site_fract_z
Si Si1 0.500000 0.380587 0.250000
Si Si2 0.288693 0.787678 0.137247
Si Si3 0.550897 0.500000 0.000000
Si Si4 0.142525 0.500000 0.500000
Si Si5 0.286012 0.187388 0.551115
Si Si6 0.612839 0.187251 0.032231
Si Si7 0.904417 0.765023 0.167558
Si Si8 0.152503 0.000000 0.500000
O O1 0.479272 0.485117 0.369048
O O2 0.457626 0.281328 0.190634
O O3 0.323675 0.935170 0.114178
O O4 0.275351 0.783041 0.292738
O O5 0.244683 0.797723 0.044729
O O6 0.315954 0.633334 0.073818
O O7 0.580007 0.665709 0.010284
O O8 0.110399 0.361442 0.555409
O O9 0.338810 0.217270 0.532762
O O10 0.278960 0.000000 0.500000
O O11 0.616128 0.207121 0.192021
O O12 0.598497 0.000000 0.000000
O O13 0.880045 0.928283 0.115239
#
# Coordination Sequence:
#
# PCOD9319952 Si02
#       8
#     4   8   4   4   8   8   8   4
#     4  10  22  44  68 100 128 166 222 276 334 402
#     4  11  25  39  68  94 136 178 222 277 323 391
#     4  10  23  45  70 100 132 178 216 279 345 404
#     4  10  22  41  64  98 130 178 216 265 346 392
#     4  11  25  41  62  98 137 174 229 272 323 393
#     4  10  23  43  67  95 137 177 226 274 334 399
#     4  10  22  44  68  94 135 167 220 277 335 415
#     4  10  23  42  68  98 132 176 220 268 343 394
#
# _framework density 19.757788000000001
#
# number of rings (size 3 to 8) (size 9 to 14) (size 15 to 20)
#    0.000    1.667    0.833    2.500   11.667    0.667 
#    9.000    0.833    0.000    0.000    0.000    0.000 
#    0.000    0.000    0.000    0.000    0.000    0.000 
#
# Total GULP energy -133946.456254 kJ/mol
# GULP energy per Si atom -5581.102344 kJ/mol
# Density = 1.971282 g / cm^3
# Si number density = 19.757788 Si / 1000 Ang^3
#
#
#
# Elastic Constant Matrix: (Units=GPa)
#
#
# Indices 1 2 3 4 5 6 
#
# 1 92.2349 39.7519 59.0506 0.0000 0.0000 0.0000
# 2 39.7519 73.8179 31.1642 0.0000 0.0000 0.0000
# 3 59.0506 31.1642 136.9951 0.0000 0.0000 0.0000
# 4 0.0000 0.0000 0.0000 26.2444 0.0000 0.0000
# 5 0.0000 0.0000 0.0000 0.0000 39.3516 0.0000
# 6 0.0000 0.0000 0.0000 0.0000 0.0000 15.2991
#
#
#
# Elastic Compliance Matrix: (Units=1/GPa)
#
#
# Indices 1 2 3 4 5 6 
#
# 1 0.017730 -0.006993 -0.006052 0.000000 0.000000 0.000000
# 2 -0.006993 0.017744 -0.001022 0.000000 0.000000 0.000000
# 3 -0.006052 -0.001022 0.010141 0.000000 0.000000 0.000000
# 4 0.000000 0.000000 0.000000 0.038103 0.000000 0.000000
# 5 0.000000 0.000000 0.000000 0.000000 0.025412 0.000000
# 6 0.000000 0.000000 0.000000 0.000000 0.000000 0.065363
#
#
# Mechanical properties :
#
#
# Convention : Reuss Voigt Hill
#
# Bulk Modulus (GPa) = 57.20446 62.55347 59.87897
# Shear Modulus (GPa) = 23.98606 27.71778 25.85192
#
# Velocity S-wave (km/s) = 3.48804 3.74957 3.62116
# Velocity P-wave (km/s) = 6.72589 7.10454 6.91781
#
# Compressibility (1/GPa) = 0.01748115
#
# Stress axis : x y z
#
# Youngs Moduli (GPa) = 56.40101 56.35614 98.61370
#
# Poissons Ratio (x) = 0.39410 0.59677
# Poissons Ratio (y) = 0.39442 0.10081
# Poissons Ratio (z) = 0.34132 0.05761
#
# Static dielectric constant tensor:
#      x y z
#    x 1.678370 0.000000 0.000000 
#    y 0.000000 1.740050 0.000000 
#    z 0.000000 0.000000 1.629030 
# 
# From -- ./inp_files/11530.got.cif
#   From: 2010.05.17/outbox.cif.g08.bks.cpg/sg20_6_cif.got.tgz:11530.got - 2010.06.03 22:52:26.
