data_PCOD9319522
_publ_section_title
;
Structure prediction by ZEFSAII (Michael W. Deem and Ramdas Pophale) SiO2 
 PCOD9319522
Probable space group: C 2 2 21
;
_chemical_formula_sum "Si O2"
_cell_formula_units_Z 52
_cell_length_a 19.008674
_cell_length_b 13.743073
_cell_length_c 9.862489
_cell_angle_alpha 90.000000
_cell_angle_beta 90.000000
_cell_angle_gamma 90.000000
_cell_volume 2576.452901
_symmetry_space_group_name_H-M "C 2 2 21"
_symmetry_group_IT_number 20
_symmetry_cell_setting 'orthorhombic'
loop_
_space_group_symop_operation_xyz
x,y,z
-x,-y,1/2+z
x,-y,-z
-x,y,1/2-z
1/2+x,1/2+y,z
1/2-x,1/2-y,1/2+z
1/2+x,1/2-y,-z
1/2-x,1/2+y,1/2-z
loop_
_atom_site_type_symbol
_atom_site_label
_atom_site_fract_x
_atom_site_fract_y
_atom_site_fract_z
Si Si1 0.754250 0.400705 0.210615
Si Si2 0.372239 0.115067 0.999004
Si Si3 0.651906 0.220355 0.222172
Si Si4 0.496491 0.235862 0.598432
Si Si5 0.639965 0.895110 0.041848
Si Si6 0.458280 0.635249 0.625828
Si Si7 0.161463 0.000000 0.000000
O O1 0.701817 0.312877 0.246391
O O2 0.802756 0.418274 0.341759
O O3 0.806309 0.360926 0.095560
O O4 0.713071 0.489987 0.132875
O O5 0.356044 0.153352 0.148165
O O6 0.441566 0.161734 0.935780
O O7 0.380522 0.000000 0.000000
O O8 0.576564 0.269529 0.192892
O O9 0.672766 0.158290 0.089755
O O10 0.500000 0.273945 0.750000
O O11 0.422312 0.177946 0.586799
O O12 0.506348 0.323846 0.493209
O O13 0.609202 0.000000 0.000000
O O14 0.500000 0.583973 0.750000
O O15 0.394489 0.583113 0.544607
#
# Coordination Sequence:
#
# PCOD9319522 Si02
#       7
#     8   8   8   8   8   8   4
#     4  11  22  42  62  96 130 175 218 270 346 397
#     4  12  22  39  66  96 132 176 226 273 343 420
#     4  10  23  39  65  90 130 174 216 277 337 411
#     4  11  23  40  61  96 131 173 218 275 341 408
#     4  11  23  40  59  92 131 165 219 271 324 406
#     4  10  21  44  69  93 129 174 229 277 344 392
#     4  10  24  42  72  94 132 172 230 282 326 418
#
# _framework density 20.182787000000001
#
# number of rings (size 3 to 8) (size 9 to 14) (size 15 to 20)
#    0.000    1.231    3.846    2.308    0.000    0.615 
#    0.000    0.000    6.769    0.000    0.000    0.000 
#    0.000    0.000    0.000    0.000    0.000    0.000 
#
# Total GULP energy -144866.813249 kJ/mol
# GULP energy per Si atom -5571.800510 kJ/mol
# Density = 2.013685 g / cm^3
# Si number density = 20.182787 Si / 1000 Ang^3
#
#
#
# Elastic Constant Matrix: (Units=GPa)
#
#
# Indices 1 2 3 4 5 6 
#
# 1 64.2295 13.1992 33.1487 0.0000 0.0000 0.0000
# 2 13.1992 44.6144 35.2487 0.0000 0.0000 0.0000
# 3 33.1487 35.2487 150.9559 0.0000 0.0000 0.0000
# 4 0.0000 0.0000 0.0000 31.1172 0.0000 0.0000
# 5 0.0000 0.0000 0.0000 0.0000 32.0450 0.0000
# 6 0.0000 0.0000 0.0000 0.0000 0.0000 32.4315
#
#
#
# Elastic Compliance Matrix: (Units=1/GPa)
#
#
# Indices 1 2 3 4 5 6 
#
# 1 0.017815 -0.002673 -0.003288 0.000000 0.000000 0.000000
# 2 -0.002673 0.027886 -0.005924 0.000000 0.000000 0.000000
# 3 -0.003288 -0.005924 0.008730 0.000000 0.000000 0.000000
# 4 0.000000 0.000000 0.000000 0.032137 0.000000 0.000000
# 5 0.000000 0.000000 0.000000 0.000000 0.031206 0.000000
# 6 0.000000 0.000000 0.000000 0.000000 0.000000 0.030834
#
#
# Mechanical properties :
#
#
# Convention : Reuss Voigt Hill
#
# Bulk Modulus (GPa) = 32.61547 46.99923 39.80735
# Shear Modulus (GPa) = 27.38242 30.99894 29.19068
#
# Velocity S-wave (km/s) = 3.68737 3.92332 3.80717
# Velocity P-wave (km/s) = 5.85867 6.62273 6.25238
#
# Compressibility (1/GPa) = 0.03066029
#
# Stress axis : x y z
#
# Youngs Moduli (GPa) = 56.13133 35.86047 114.54952
#
# Poissons Ratio (x) = 0.09585 0.37664
# Poissons Ratio (y) = 0.15003 0.67865
# Poissons Ratio (z) = 0.18456 0.21245
#
# Static dielectric constant tensor:
#      x y z
#    x 1.756950 0.000000 0.000000 
#    y 0.000000 1.700950 0.000000 
#    z 0.000000 0.000000 1.747070 
# 
# From -- ./inp_files/10124.got.cif
#   From: 2010.05.17/outbox.cif.g08.bks.cpg/sg20_6_cif.got.tgz:10124.got - 2010.06.03 22:52:26.
