data_PCOD9319995
_publ_section_title
;
Structure prediction by ZEFSAII (Michael W. Deem and Ramdas Pophale) SiO2 
 PCOD9319995
Probable space group: C 2 2 21
;
_chemical_formula_sum "Si O2"
_cell_formula_units_Z 56
_cell_length_a 4.994227
_cell_length_b 14.813553
_cell_length_c 30.487454
_cell_angle_alpha 90.000000
_cell_angle_beta 90.000000
_cell_angle_gamma 90.000000
_cell_volume 2255.530333
_symmetry_space_group_name_H-M "C 2 2 21"
_symmetry_group_IT_number 20
_symmetry_cell_setting 'orthorhombic'
loop_
_space_group_symop_operation_xyz
x,y,z
-x,-y,1/2+z
x,-y,-z
-x,y,1/2-z
1/2+x,1/2+y,z
1/2-x,1/2-y,1/2+z
1/2+x,1/2-y,-z
1/2-x,1/2+y,1/2-z
loop_
_atom_site_type_symbol
_atom_site_label
_atom_site_fract_x
_atom_site_fract_y
_atom_site_fract_z
Si Si1 0.102951 0.707287 0.977071
Si Si2 0.671854 0.589038 0.161358
Si Si3 0.691817 0.444974 0.428967
Si Si4 0.256574 0.307555 0.400452
Si Si5 0.645905 0.890754 0.892628
Si Si6 0.752611 0.265180 0.281121
Si Si7 0.008946 0.584164 0.665579
O O1 0.177018 0.602549 0.970866
O O2 0.009983 0.720856 0.926782
O O3 0.349440 0.765590 0.993979
O O4 0.357820 0.595900 0.148535
O O5 0.757681 0.681635 0.184740
O O6 0.807406 0.498780 0.183230
O O7 0.842995 0.579368 0.116839
O O8 0.415829 0.390028 0.422711
O O9 0.711783 0.552417 0.430732
O O10 0.845931 0.432776 0.380883
O O11 0.400225 0.213372 0.401504
O O12 0.209951 0.337944 0.351017
O O13 0.500000 0.268190 0.250000
O O14 0.000000 0.242221 0.250000
O O15 0.812673 0.363537 0.302057
#
# Coordination Sequence:
#
# PCOD9319995 Si02
#       7
#     8   8   8   8   8   8   8
#     4  11  23  41  66  92 138 179 211 268 336 397
#     4  11  23  43  65  96 132 167 216 286 332 389
#     4  10  22  41  70 101 129 174 229 279 329 399
#     4  11  21  40  73  98 125 176 227 271 331 394
#     4  11  23  38  70 102 127 161 229 285 323 387
#     4  12  27  44  67  97 140 179 220 280 344 418
#     4  10  23  41  70  98 126 175 228 275 331 401
#
# _framework density 24.827862
#
# number of rings (size 3 to 8) (size 9 to 14) (size 15 to 20)
#    0.000    1.143    4.286    1.714    4.000    0.571 
#    0.000    2.143    6.286    0.000    0.000    0.000 
#    0.000    0.000    0.000    0.000    0.000    0.000 
#
# Total GULP energy -156019.404343 kJ/mol
# GULP energy per Si atom -5572.121584 kJ/mol
# Density = 2.477135 g / cm^3
# Si number density = 24.827862 Si / 1000 Ang^3
#
#
#
# Elastic Constant Matrix: (Units=GPa)
#
#
# Indices 1 2 3 4 5 6 
#
# 1 128.8120 11.6987 23.8034 0.0000 0.0000 0.0000
# 2 11.6987 81.1481 11.3272 0.0000 0.0000 0.0000
# 3 23.8034 11.3272 55.8644 0.0000 0.0000 0.0000
# 4 0.0000 0.0000 0.0000 42.6350 0.0000 0.0000
# 5 0.0000 0.0000 0.0000 0.0000 46.5540 0.0000
# 6 0.0000 0.0000 0.0000 0.0000 0.0000 30.4079
#
#
#
# Elastic Compliance Matrix: (Units=1/GPa)
#
#
# Indices 1 2 3 4 5 6 
#
# 1 0.008470 -0.000738 -0.003459 0.000000 0.000000 0.000000
# 2 -0.000738 0.012746 -0.002270 0.000000 0.000000 0.000000
# 3 -0.003459 -0.002270 0.019835 0.000000 0.000000 0.000000
# 4 0.000000 0.000000 0.000000 0.023455 0.000000 0.000000
# 5 0.000000 0.000000 0.000000 0.000000 0.021480 0.000000
# 6 0.000000 0.000000 0.000000 0.000000 0.000000 0.032886
#
#
# Mechanical properties :
#
#
# Convention : Reuss Voigt Hill
#
# Bulk Modulus (GPa) = 35.56684 39.94257 37.75470
# Shear Modulus (GPa) = 35.41610 38.51904 36.96757
#
# Velocity S-wave (km/s) = 3.78096 3.94311 3.86288
# Velocity P-wave (km/s) = 5.78077 6.07071 5.92751
#
# Compressibility (1/GPa) = 0.02811608
#
# Stress axis : x y z
#
# Youngs Moduli (GPa) = 118.07064 78.45342 50.41682
#
# Poissons Ratio (x) = 0.05791 0.17440
# Poissons Ratio (y) = 0.08715 0.11444
# Poissons Ratio (z) = 0.40842 0.17809
#
# Static dielectric constant tensor:
#      x y z
#    x 2.036030 0.000000 0.000000 
#    y 0.000000 2.285520 0.000000 
#    z 0.000000 0.000000 2.027150 
# 
# From -- ./inp_files/30744.got.cif
#   From: 2010.05.17/outbox.cif.g08.bks.cpg/sg20_16_cif.got.tgz:30744.got - 2010.06.03 22:52:26.
