data_PCOD9319105
_publ_section_title
;
Structure prediction by ZEFSAII (Michael W. Deem and Ramdas Pophale) SiO2 
 PCOD9319105
Probable space group: C 2 2 21
;
_chemical_formula_sum "Si O2"
_cell_formula_units_Z 40
_cell_length_a 13.327450
_cell_length_b 7.616746
_cell_length_c 15.867298
_cell_angle_alpha 90.000000
_cell_angle_beta 90.000000
_cell_angle_gamma 90.000000
_cell_volume 1610.718005
_symmetry_space_group_name_H-M "C 2 2 21"
_symmetry_group_IT_number 20
_symmetry_cell_setting 'orthorhombic'
loop_
_space_group_symop_operation_xyz
x,y,z
-x,-y,1/2+z
x,-y,-z
-x,y,1/2-z
1/2+x,1/2+y,z
1/2-x,1/2-y,1/2+z
1/2+x,1/2-y,-z
1/2-x,1/2+y,1/2-z
loop_
_atom_site_type_symbol
_atom_site_label
_atom_site_fract_x
_atom_site_fract_y
_atom_site_fract_z
Si Si1 0.318176 0.525632 0.233367
Si Si2 0.834657 0.380769 0.577836
Si Si3 0.132302 0.381751 0.308160
Si Si4 0.143516 0.705185 0.516283
Si Si5 0.461578 0.253168 0.150175
O O1 0.236746 0.540471 0.154176
O O2 0.247426 0.450064 0.307010
O O3 0.361614 0.718675 0.256259
O O4 0.407640 0.395469 0.209406
O O5 0.877563 0.500000 0.500000
O O6 0.756813 0.264734 0.525414
O O7 0.923885 0.278780 0.623856
O O8 0.097512 0.275845 0.391231
O O9 0.072794 0.563009 0.312520
O O10 0.138684 0.500000 0.500000
O O11 0.090232 0.795488 0.439410
#
# Coordination Sequence:
#
# PCOD9319105 Si02
#       5
#     8   8   8   8   8
#     4  11  22  41  67  91 134 175 217 271 338 384
#     4  11  22  40  66  99 127 176 224 265 333 399
#     4  10  21  39  66  91 126 179 210 274 331 385
#     4   9  20  41  62  89 130 167 218 272 327 385
#     4  11  22  43  66  93 134 170 217 278 322 394
#
# _framework density 24.833645000000001
#
# number of rings (size 3 to 8) (size 9 to 14) (size 15 to 20)
#    0.000    1.600    4.000    1.800    0.000    0.800 
#   10.800    0.000    8.800    0.000    0.000    0.000 
#    0.000    0.000    0.000    0.000    0.000    0.000 
#
# Total GULP energy -111473.565584 kJ/mol
# GULP energy per Si atom -5573.678279 kJ/mol
# Density = 2.477712 g / cm^3
# Si number density = 24.833645 Si / 1000 Ang^3
#
#
#
# Elastic Constant Matrix: (Units=GPa)
#
#
# Indices 1 2 3 4 5 6 
#
# 1 172.7028 21.7087 40.2178 0.0000 0.0000 0.0000
# 2 21.7087 74.5399 -8.7380 0.0000 0.0000 0.0000
# 3 40.2178 -8.7380 84.9859 0.0000 0.0000 0.0000
# 4 0.0000 0.0000 0.0000 29.4263 0.0000 0.0000
# 5 0.0000 0.0000 0.0000 0.0000 43.6806 0.0000
# 6 0.0000 0.0000 0.0000 0.0000 0.0000 -5.9642
#
#
#
# Elastic Compliance Matrix: (Units=1/GPa)
#
#
# Indices 1 2 3 4 5 6 
#
# 1 0.006916 -0.002427 -0.003522 0.000000 0.000000 0.000000
# 2 -0.002427 0.014431 0.002632 0.000000 0.000000 0.000000
# 3 -0.003522 0.002632 0.013704 0.000000 0.000000 0.000000
# 4 0.000000 0.000000 0.000000 0.033983 0.000000 0.000000
# 5 0.000000 0.000000 0.000000 0.000000 0.022893 0.000000
# 6 0.000000 0.000000 0.000000 0.000000 0.000000 -0.167667
#
#
# Mechanical properties :
#
#
# Convention : Reuss Voigt Hill
#
# Bulk Modulus (GPa) = 35.19030 48.73396 41.96213
# Shear Modulus (GPa) = -83.84506 32.03120 -25.90693
#
# Velocity S-wave (km/s) = -5.81687 3.59532 -3.23339
# Velocity P-wave (km/s) = 5.55999 6.07469 1.73037
#
# Compressibility (1/GPa) = 0.02841692
#
# Stress axis : x y z
#
# Youngs Moduli (GPa) = 144.60100 69.29519 72.97092
#
# Poissons Ratio (x) = 0.16818 0.25702
# Poissons Ratio (y) = 0.35094 -0.19208
# Poissons Ratio (z) = 0.50931 -0.18240
#
# Static dielectric constant tensor:
#      x y z
#    x 1.969460 0.000000 0.000000 
#    y 0.000000 2.006850 0.000000 
#    z 0.000000 0.000000 2.176960 
# 
# From -- ./inp_files/23125.got.cif
#   From: 2010.05.17/outbox.cif.g08.bks.cpg/sg20_12_cif.got.tgz:23125.got - 2010.06.03 22:52:26.
