data_PCOD9319005
_publ_section_title
;
Structure prediction by ZEFSAII (Michael W. Deem and Ramdas Pophale) SiO2 
 PCOD9319005
Probable space group: C 2 2 21
;
_chemical_formula_sum "Si O2"
_cell_formula_units_Z 48
_cell_length_a 11.157178
_cell_length_b 11.528412
_cell_length_c 17.234975
_cell_angle_alpha 90.000000
_cell_angle_beta 90.000000
_cell_angle_gamma 90.000000
_cell_volume 2216.840813
_symmetry_space_group_name_H-M "C 2 2 21"
_symmetry_group_IT_number 20
_symmetry_cell_setting 'orthorhombic'
loop_
_space_group_symop_operation_xyz
x,y,z
-x,-y,1/2+z
x,-y,-z
-x,y,1/2-z
1/2+x,1/2+y,z
1/2-x,1/2-y,1/2+z
1/2+x,1/2-y,-z
1/2-x,1/2+y,1/2-z
loop_
_atom_site_type_symbol
_atom_site_label
_atom_site_fract_x
_atom_site_fract_y
_atom_site_fract_z
Si Si1 0.546470 0.364769 0.330891
Si Si2 0.500000 0.893237 0.250000
Si Si3 0.509665 0.422169 0.928174
Si Si4 0.597178 0.255182 0.041034
Si Si5 0.219440 0.496696 0.171661
Si Si6 0.647620 0.000000 0.000000
Si Si7 0.318977 0.730866 0.154192
O O1 0.500000 0.316039 0.250000
O O2 0.480191 0.486837 0.356971
O O3 0.517210 0.284349 0.404290
O O4 0.682731 0.398866 0.311602
O O5 0.584411 0.969889 0.195281
O O6 0.400331 0.817571 0.204158
O O7 0.414404 0.327783 0.903029
O O8 0.467429 0.500000 0.000000
O O9 0.612093 0.345349 0.969627
O O10 0.708626 0.272439 0.100659
O O11 0.584374 0.125269 0.007929
O O12 0.221737 0.499212 0.078721
O O13 0.264712 0.621318 0.202020
#
# Coordination Sequence:
#
# PCOD9319005 Si02
#       7
#     8   4   8   8   8   4   8
#     4  10  21  39  70 104 135 178 230 296 354 421
#     4  12  24  48  68 106 140 192 234 298 362 432
#     4   9  20  38  68  94 129 179 227 284 346 420
#     4  10  21  38  69  98 135 183 242 279 353 434
#     4  10  24  42  73  93 145 178 235 288 357 415
#     4  10  22  44  62  94 134 188 222 286 346 416
#     4  10  23  40  69  99 137 184 235 289 361 426
#
# _framework density 21.652434
#
# number of rings (size 3 to 8) (size 9 to 14) (size 15 to 20)
#    0.000    2.000    0.000    2.000   22.167    0.000 
#   12.000    0.000   44.000    0.000    0.000    0.000 
#    0.000    0.000    0.000    0.000    0.000    0.000 
#
# Total GULP energy -133622.588775 kJ/mol
# GULP energy per Si atom -5567.607866 kJ/mol
# Density = 2.160315 g / cm^3
# Si number density = 21.652434 Si / 1000 Ang^3
#
#
#
# Elastic Constant Matrix: (Units=GPa)
#
#
# Indices 1 2 3 4 5 6 
#
# 1 62.9679 24.6093 -3.3475 0.0000 0.0000 0.0000
# 2 24.6093 61.5413 9.7288 0.0000 0.0000 0.0000
# 3 -3.3475 9.7288 42.2867 0.0000 0.0000 0.0000
# 4 0.0000 0.0000 0.0000 16.7304 0.0000 0.0000
# 5 0.0000 0.0000 0.0000 0.0000 29.6244 0.0000
# 6 0.0000 0.0000 0.0000 0.0000 0.0000 -192.8903
#
#
#
# Elastic Compliance Matrix: (Units=1/GPa)
#
#
# Indices 1 2 3 4 5 6 
#
# 1 0.019290 -0.008255 0.003426 0.000000 0.000000 0.000000
# 2 -0.008255 0.020395 -0.005346 0.000000 0.000000 0.000000
# 3 0.003426 -0.005346 0.025149 0.000000 0.000000 0.000000
# 4 0.000000 0.000000 0.000000 0.059771 0.000000 0.000000
# 5 0.000000 0.000000 0.000000 0.000000 0.033756 0.000000
# 6 0.000000 0.000000 0.000000 0.000000 0.000000 -0.005184
#
#
# Mechanical properties :
#
#
# Convention : Reuss Voigt Hill
#
# Bulk Modulus (GPa) = 22.47964 25.41969 23.94967
# Shear Modulus (GPa) = 26.54556 -20.25343 3.14607
#
# Velocity S-wave (km/s) = 3.50521 -3.06173 1.20671
# Velocity P-wave (km/s) = 5.17557 0.85648 3.60922
#
# Compressibility (1/GPa) = 0.04448470
#
# Stress axis : x y z
#
# Youngs Moduli (GPa) = 51.84143 49.03043 39.76258
#
# Poissons Ratio (x) = 0.40476 -0.13624
# Poissons Ratio (y) = 0.42796 0.21257
# Poissons Ratio (z) = -0.17762 0.26211
#
# Static dielectric constant tensor:
#      x y z
#    x 1.829650 0.000000 0.000000 
#    y 0.000000 1.895360 0.000000 
#    z 0.000000 0.000000 1.829990 
# 
# From -- ./inp_files/24271.got.cif
#   From: 2010.05.17/outbox.cif.g08.bks.cpg/sg20_13_cif.got.tgz:24271.got - 2010.06.03 22:52:26.
