data_PCOD9319173
_publ_section_title
;
Structure prediction by ZEFSAII (Michael W. Deem and Ramdas Pophale) SiO2 
 PCOD9319173
Probable space group: C 2 2 21
;
_chemical_formula_sum "Si O2"
_cell_formula_units_Z 40
_cell_length_a 7.564006
_cell_length_b 24.870744
_cell_length_c 9.430372
_cell_angle_alpha 90.000000
_cell_angle_beta 90.000000
_cell_angle_gamma 90.000000
_cell_volume 1774.064750
_symmetry_space_group_name_H-M "C 2 2 21"
_symmetry_group_IT_number 20
_symmetry_cell_setting 'orthorhombic'
loop_
_space_group_symop_operation_xyz
x,y,z
-x,-y,1/2+z
x,-y,-z
-x,y,1/2-z
1/2+x,1/2+y,z
1/2-x,1/2-y,1/2+z
1/2+x,1/2-y,-z
1/2-x,1/2+y,1/2-z
loop_
_atom_site_type_symbol
_atom_site_label
_atom_site_fract_x
_atom_site_fract_y
_atom_site_fract_z
Si Si1 0.145743 0.180188 0.572083
Si Si2 0.705352 0.380975 0.973831
Si Si3 0.503131 0.799899 0.593392
Si Si4 0.208929 0.921571 0.259868
Si Si5 0.190816 0.000000 0.500000
Si Si6 0.000000 0.934984 0.750000
O O1 0.312176 0.192508 0.473779
O O2 0.062687 0.238003 0.603876
O O3 0.217983 0.141371 0.696395
O O4 0.986867 0.144894 0.507967
O O5 0.847404 0.333911 0.984110
O O6 0.668231 0.404048 0.817426
O O7 0.762796 0.423815 0.095101
O O8 0.500000 0.822791 0.750000
O O9 0.283791 0.958419 0.387894
O O10 0.000000 0.934618 0.250000
O O11 0.074302 0.965542 0.610964
#
# Coordination Sequence:
#
# PCOD9319173 Si02
#       6
#     8   8   8   8   4   4
#     4  11  23  43  64  99 137 180 222 273 326 397
#     4  11  23  43  66 100 140 175 224 275 330 401
#     4  12  25  41  67  99 140 181 225 268 332 404
#     4  10  21  40  63 100 136 169 230 279 328 398
#     4  12  20  36  72 102 128 176 230 282 340 400
#     4  12  20  38  66 106 132 172 232 276 338 400
#
# _framework density 22.547090000000001
#
# number of rings (size 3 to 8) (size 9 to 14) (size 15 to 20)
#    0.000    0.800    7.000    3.000    0.000    0.800 
#    0.000    0.000    0.000    6.000    0.000    0.000 
#    0.000    0.000    0.000    0.000    0.000    0.000 
#
# Total GULP energy -111473.841526 kJ/mol
# GULP energy per Si atom -5573.692076 kJ/mol
# Density = 2.249577 g / cm^3
# Si number density = 22.547090 Si / 1000 Ang^3
#
#
#
# Elastic Constant Matrix: (Units=GPa)
#
#
# Indices 1 2 3 4 5 6 
#
# 1 93.6077 22.5328 42.8366 0.0000 0.0000 0.0000
# 2 22.5328 93.4471 54.8683 0.0000 0.0000 0.0000
# 3 42.8366 54.8683 145.1149 0.0000 0.0000 0.0000
# 4 0.0000 0.0000 0.0000 119.3426 0.0000 0.0000
# 5 0.0000 0.0000 0.0000 0.0000 10.0299 0.0000
# 6 0.0000 0.0000 0.0000 0.0000 0.0000 9.5055
#
#
#
# Elastic Compliance Matrix: (Units=1/GPa)
#
#
# Indices 1 2 3 4 5 6 
#
# 1 0.012436 -0.001084 -0.003261 0.000000 0.000000 0.000000
# 2 -0.001084 0.013849 -0.004917 0.000000 0.000000 0.000000
# 3 -0.003261 -0.004917 0.009713 0.000000 0.000000 0.000000
# 4 0.000000 0.000000 0.000000 0.008379 0.000000 0.000000
# 5 0.000000 0.000000 0.000000 0.000000 0.099702 0.000000
# 6 0.000000 0.000000 0.000000 0.000000 0.000000 0.105202
#
#
# Mechanical properties :
#
#
# Convention : Reuss Voigt Hill
#
# Bulk Modulus (GPa) = 57.22453 63.62723 60.42588
# Shear Modulus (GPa) = 18.27283 41.90440 30.08861
#
# Velocity S-wave (km/s) = 2.84989 4.31574 3.65701
# Velocity P-wave (km/s) = 6.02198 7.28801 6.68504
#
# Compressibility (1/GPa) = 0.01747502
#
# Stress axis : x y z
#
# Youngs Moduli (GPa) = 80.41055 72.20539 102.95766
#
# Poissons Ratio (x) = 0.07826 0.33577
# Poissons Ratio (y) = 0.08715 0.50620
# Poissons Ratio (z) = 0.26224 0.35500
#
# Static dielectric constant tensor:
#      x y z
#    x 1.673330 0.000000 0.000000 
#    y 0.000000 1.906860 0.000000 
#    z 0.000000 0.000000 2.057190 
# 
# From -- ./inp_files/6148.got.cif
#   From: 2010.05.17/outbox.cif.g08.bks.cpg/sg20_4_cif.got.tgz:6148.got - 2010.06.03 22:52:26.
