data_PCOD9319100
_publ_section_title
;
Structure prediction by ZEFSAII (Michael W. Deem and Ramdas Pophale) SiO2 
 PCOD9319100
Probable space group: C 2 2 21
;
_chemical_formula_sum "Si O2"
_cell_formula_units_Z 56
_cell_length_a 14.215799
_cell_length_b 23.475433
_cell_length_c 7.737752
_cell_angle_alpha 90.000000
_cell_angle_beta 90.000000
_cell_angle_gamma 90.000000
_cell_volume 2582.258359
_symmetry_space_group_name_H-M "C 2 2 21"
_symmetry_group_IT_number 20
_symmetry_cell_setting 'orthorhombic'
loop_
_space_group_symop_operation_xyz
x,y,z
-x,-y,1/2+z
x,-y,-z
-x,y,1/2-z
1/2+x,1/2+y,z
1/2-x,1/2-y,1/2+z
1/2+x,1/2-y,-z
1/2-x,1/2+y,1/2-z
loop_
_atom_site_type_symbol
_atom_site_label
_atom_site_fract_x
_atom_site_fract_y
_atom_site_fract_z
Si Si1 0.860599 0.245508 0.426240
Si Si2 0.829561 0.791713 0.934915
Si Si3 0.358652 0.500000 0.000000
Si Si4 0.036527 0.642821 0.943057
Si Si5 0.012919 0.141708 0.040319
Si Si6 0.584623 0.949900 0.630405
Si Si7 0.500000 0.452904 0.250000
Si Si8 0.280019 0.903482 0.594073
O O1 0.869612 0.246757 0.218502
O O2 0.750740 0.257871 0.462110
O O3 0.929176 0.294428 0.501413
O O4 0.899144 0.184252 0.481306
O O5 0.769433 0.844433 0.858075
O O6 0.919560 0.822640 0.018776
O O7 0.419332 0.507126 0.826982
O O8 0.295778 0.444268 0.988782
O O9 0.000000 0.644485 0.750000
O O10 0.133877 0.607915 0.963484
O O11 0.959238 0.608225 0.051615
O O12 0.000000 0.131027 0.250000
O O13 0.023339 0.087649 0.914970
O O14 0.500000 0.973106 0.750000
O O15 0.673727 0.933418 0.742681
O O16 0.607138 0.000000 0.500000
#
# Coordination Sequence:
#
# PCOD9319100 Si02
#       8
#     8   8   4   8   8   8   4   8
#     4  10  23  39  68  99 141 181 225 293 340 431
#     4  10  21  42  64  99 136 174 229 284 351 410
#     4  12  28  50  70 102 128 182 244 294 358 422
#     4  10  21  39  66 101 137 184 221 273 352 425
#     4  10  23  46  68  99 142 180 233 290 349 424
#     4  10  22  39  62  96 135 184 220 279 348 413
#     4  12  28  48  78  96 134 188 232 296 370 414
#     4  10  24  43  63  96 140 168 230 297 325 422
#
# _framework density 21.686444000000002
#
# number of rings (size 3 to 8) (size 9 to 14) (size 15 to 20)
#    0.000    1.714    1.429    1.714    9.000    2.286 
#   10.286    0.000    0.000    0.000    0.000    0.000 
#    0.000    0.000    0.000    0.000    0.000    0.000 
#
# Total GULP energy -156328.135226 kJ/mol
# GULP energy per Si atom -5583.147687 kJ/mol
# Density = 2.163708 g / cm^3
# Si number density = 21.686444 Si / 1000 Ang^3
#
#
#
# Elastic Constant Matrix: (Units=GPa)
#
#
# Indices 1 2 3 4 5 6 
#
# 1 68.3370 4.4083 17.6782 0.0000 0.0000 0.0000
# 2 4.4083 58.1632 18.0411 0.0000 0.0000 0.0000
# 3 17.6782 18.0411 47.7732 0.0000 0.0000 0.0000
# 4 0.0000 0.0000 0.0000 39.3945 0.0000 0.0000
# 5 0.0000 0.0000 0.0000 0.0000 21.3786 0.0000
# 6 0.0000 0.0000 0.0000 0.0000 0.0000 -464.7549
#
#
#
# Elastic Compliance Matrix: (Units=1/GPa)
#
#
# Indices 1 2 3 4 5 6 
#
# 1 0.016209 0.000716 -0.006268 0.000000 0.000000 0.000000
# 2 0.000716 0.019506 -0.007631 0.000000 0.000000 0.000000
# 3 -0.006268 -0.007631 0.026134 0.000000 0.000000 0.000000
# 4 0.000000 0.000000 0.000000 0.025384 0.000000 0.000000
# 5 0.000000 0.000000 0.000000 0.000000 0.046776 0.000000
# 6 0.000000 0.000000 0.000000 0.000000 0.000000 -0.002152
#
#
# Mechanical properties :
#
#
# Convention : Reuss Voigt Hill
#
# Bulk Modulus (GPa) = 28.18407 28.28096 28.23252
# Shear Modulus (GPa) = 29.40302 -71.85332 -21.22515
#
# Velocity S-wave (km/s) = 3.68615 -5.76236 -3.13186
# Velocity P-wave (km/s) = 5.58044 5.58604 0.17685
#
# Compressibility (1/GPa) = 0.03548103
#
# Stress axis : x y z
#
# Youngs Moduli (GPa) = 61.69512 51.26691 38.26495
#
# Poissons Ratio (x) = -0.03670 0.23985
# Poissons Ratio (y) = -0.04416 0.29200
# Poissons Ratio (z) = 0.38672 0.39122
#
# Static dielectric constant tensor:
#      x y z
#    x 1.787340 0.000000 0.000000 
#    y 0.000000 1.823350 0.000000 
#    z 0.000000 0.000000 2.096330 
# 
# From -- ./inp_files/8784.got.cif
#   From: 2010.05.17/outbox.cif.g08.bks.cpg/sg20_5_cif.got.tgz:8784.got - 2010.06.03 22:52:26.
