data_PCOD9319782
_publ_section_title
;
Structure prediction by ZEFSAII (Michael W. Deem and Ramdas Pophale) SiO2 
 PCOD9319782
Probable space group: C 2 2 21
;
_chemical_formula_sum "Si O2"
_cell_formula_units_Z 40
_cell_length_a 8.757122
_cell_length_b 22.815890
_cell_length_c 9.772979
_cell_angle_alpha 90.000000
_cell_angle_beta 90.000000
_cell_angle_gamma 90.000000
_cell_volume 1952.656179
_symmetry_space_group_name_H-M "C 2 2 21"
_symmetry_group_IT_number 20
_symmetry_cell_setting 'orthorhombic'
loop_
_space_group_symop_operation_xyz
x,y,z
-x,-y,1/2+z
x,-y,-z
-x,y,1/2-z
1/2+x,1/2+y,z
1/2-x,1/2-y,1/2+z
1/2+x,1/2-y,-z
1/2-x,1/2+y,1/2-z
loop_
_atom_site_type_symbol
_atom_site_label
_atom_site_fract_x
_atom_site_fract_y
_atom_site_fract_z
Si Si1 0.000000 0.596539 0.750000
Si Si2 0.845607 0.240367 0.666786
Si Si3 0.217374 0.022180 0.850934
Si Si4 0.500000 0.425595 0.750000
Si Si5 0.010757 0.125224 0.953412
Si Si6 0.191387 0.318847 0.095654
O O1 0.144474 0.556407 0.717605
O O2 0.047656 0.640067 0.873204
O O3 0.882573 0.179773 0.587140
O O4 0.811545 0.287384 0.550236
O O5 0.716337 0.227298 0.779965
O O6 0.000000 0.256020 0.750000
O O7 0.081479 0.067324 0.887005
O O8 0.146366 0.968686 0.765017
O O9 0.270707 0.000000 0.000000
O O10 0.502333 0.387003 0.614087
O O11 0.844102 0.141766 0.898806
#
# Coordination Sequence:
#
# PCOD9319782 Si02
#       6
#     4   8   8   4   8   8
#     4  12  24  39  66  94 136 171 206 282 346 374
#     4  10  24  42  66  98 133 169 217 265 319 400
#     4  10  22  41  63  94 128 168 221 273 324 395
#     4  10  22  39  72  90 118 175 226 270 318 394
#     4  10  22  43  65  93 129 169 225 266 320 397
#     4  11  25  41  68  95 132 177 212 269 330 393
#
# _framework density 20.484915999999998
#
# number of rings (size 3 to 8) (size 9 to 14) (size 15 to 20)
#    0.000    1.600    2.000    1.200    9.800    1.600 
#    3.600    0.000    0.000    0.000    0.000    0.000 
#    0.000    0.000    0.000    0.000    0.000    0.000 
#
# Total GULP energy -111773.050968 kJ/mol
# GULP energy per Si atom -5588.652548 kJ/mol
# Density = 2.043829 g / cm^3
# Si number density = 20.484916 Si / 1000 Ang^3
#
#
#
# Elastic Constant Matrix: (Units=GPa)
#
#
# Indices 1 2 3 4 5 6 
#
# 1 44.2900 19.7260 34.5668 0.0000 0.0000 0.0000
# 2 19.7260 56.7315 47.1453 0.0000 0.0000 0.0000
# 3 34.5668 47.1453 147.1262 0.0000 0.0000 0.0000
# 4 0.0000 0.0000 0.0000 42.3376 0.0000 0.0000
# 5 0.0000 0.0000 0.0000 0.0000 17.8729 0.0000
# 6 0.0000 0.0000 0.0000 0.0000 0.0000 13.1339
#
#
#
# Elastic Compliance Matrix: (Units=1/GPa)
#
#
# Indices 1 2 3 4 5 6 
#
# 1 0.029094 -0.006046 -0.004898 0.000000 0.000000 0.000000
# 2 -0.006046 0.025281 -0.006681 0.000000 0.000000 0.000000
# 3 -0.004898 -0.006681 0.010088 0.000000 0.000000 0.000000
# 4 0.000000 0.000000 0.000000 0.023620 0.000000 0.000000
# 5 0.000000 0.000000 0.000000 0.000000 0.055951 0.000000
# 6 0.000000 0.000000 0.000000 0.000000 0.000000 0.076139
#
#
# Mechanical properties :
#
#
# Convention : Reuss Voigt Hill
#
# Bulk Modulus (GPa) = 34.22989 50.11378 42.17183
# Shear Modulus (GPa) = 18.85658 24.44953 21.65306
#
# Velocity S-wave (km/s) = 3.03728 3.45851 3.25472
# Velocity P-wave (km/s) = 5.38945 6.36123 5.89540
#
# Compressibility (1/GPa) = 0.02921424
#
# Stress axis : x y z
#
# Youngs Moduli (GPa) = 34.37134 39.55581 99.12317
#
# Poissons Ratio (x) = 0.23914 0.48553
# Poissons Ratio (y) = 0.20780 0.66220
# Poissons Ratio (z) = 0.16836 0.26426
#
# Static dielectric constant tensor:
#      x y z
#    x 1.723110 0.000000 0.000000 
#    y 0.000000 1.732320 0.000000 
#    z 0.000000 0.000000 1.750350 
# 
# From -- ./inp_files/6141.got.cif
#   From: 2010.05.17/outbox.cif.g08.bks.cpg/sg20_4_cif.got.tgz:6141.got - 2010.06.03 22:52:26.
