data_PCOD9319943
_publ_section_title
;
Structure prediction by ZEFSAII (Michael W. Deem and Ramdas Pophale) SiO2 
 PCOD9319943
Probable space group: C 2 2 21
;
_chemical_formula_sum "Si O2"
_cell_formula_units_Z 48
_cell_length_a 9.980986
_cell_length_b 10.418618
_cell_length_c 22.215656
_cell_angle_alpha 90.000000
_cell_angle_beta 90.000000
_cell_angle_gamma 90.000000
_cell_volume 2310.163422
_symmetry_space_group_name_H-M "C 2 2 21"
_symmetry_group_IT_number 20
_symmetry_cell_setting 'orthorhombic'
loop_
_space_group_symop_operation_xyz
x,y,z
-x,-y,1/2+z
x,-y,-z
-x,y,1/2-z
1/2+x,1/2+y,z
1/2-x,1/2-y,1/2+z
1/2+x,1/2-y,-z
1/2-x,1/2+y,1/2-z
loop_
_atom_site_type_symbol
_atom_site_label
_atom_site_fract_x
_atom_site_fract_y
_atom_site_fract_z
Si Si1 0.354181 0.500000 0.000000
Si Si2 0.062791 0.353285 0.144084
Si Si3 0.994081 0.151072 0.602094
Si Si4 0.139702 0.402878 0.919009
Si Si5 0.500000 0.962428 0.750000
Si Si6 0.190800 0.247065 0.699333
Si Si7 0.240988 0.288736 0.336564
O O1 0.443909 0.439949 0.052398
O O2 0.253005 0.602197 0.030234
O O3 0.093789 0.450701 0.089551
O O4 0.176054 0.247669 0.158062
O O5 0.068047 0.446297 0.201799
O O6 0.911612 0.304588 0.144602
O O7 0.089790 0.159545 0.660367
O O8 0.976442 0.296321 0.574909
O O9 0.844359 0.121810 0.626161
O O10 0.211402 0.351873 0.858179
O O11 0.605888 0.874989 0.713717
O O12 0.230364 0.198679 0.765944
#
# Coordination Sequence:
#
# PCOD9319943 Si02
#       7
#     4   8   8   8   4   8   8
#     4  12  24  48  66  90 132 182 224 278 334 386
#     4  12  22  39  67  97 134 177 208 270 344 392
#     4  10  23  43  66  96 129 170 224 275 322 407
#     4  10  24  44  65  91 132 172 222 278 326 396
#     4  12  20  38  64  96 140 164 212 262 336 398
#     4  12  19  38  72  97 133 172 213 271 341 395
#     4  10  22  41  64 105 130 159 229 271 330 417
#
# _framework density 20.777750000000001
#
# number of rings (size 3 to 8) (size 9 to 14) (size 15 to 20)
#    1.000    0.000    8.333    0.000    0.000    1.333 
#    6.000    1.667    0.000    0.000    0.000    0.000 
#    0.000    0.000    0.000    0.000    0.000    0.000 
#
# Total GULP energy -133678.075715 kJ/mol
# GULP energy per Si atom -5569.919821 kJ/mol
# Density = 2.073046 g / cm^3
# Si number density = 20.777750 Si / 1000 Ang^3
#
#
#
# Elastic Constant Matrix: (Units=GPa)
#
#
# Indices 1 2 3 4 5 6 
#
# 1 131.3155 15.8762 17.1965 0.0000 0.0000 0.0000
# 2 15.8762 32.5739 3.8035 0.0000 0.0000 0.0000
# 3 17.1965 3.8035 41.7641 0.0000 0.0000 0.0000
# 4 0.0000 0.0000 0.0000 18.5259 0.0000 0.0000
# 5 0.0000 0.0000 0.0000 0.0000 28.8758 0.0000
# 6 0.0000 0.0000 0.0000 0.0000 0.0000 46.0948
#
#
#
# Elastic Compliance Matrix: (Units=1/GPa)
#
#
# Indices 1 2 3 4 5 6 
#
# 1 0.008483 -0.003767 -0.003150 0.000000 0.000000 0.000000
# 2 -0.003767 0.032702 -0.001427 0.000000 0.000000 0.000000
# 3 -0.003150 -0.001427 0.025371 0.000000 0.000000 0.000000
# 4 0.000000 0.000000 0.000000 0.053979 0.000000 0.000000
# 5 0.000000 0.000000 0.000000 0.000000 0.034631 0.000000
# 6 0.000000 0.000000 0.000000 0.000000 0.000000 0.021694
#
#
# Mechanical properties :
#
#
# Convention : Reuss Voigt Hill
#
# Bulk Modulus (GPa) = 20.05286 31.04511 25.54898
# Shear Modulus (GPa) = 23.79017 29.95111 26.87064
#
# Velocity S-wave (km/s) = 3.38743 3.80083 3.60007
# Velocity P-wave (km/s) = 4.99716 5.85113 5.44092
#
# Compressibility (1/GPa) = 0.04986821
#
# Stress axis : x y z
#
# Youngs Moduli (GPa) = 117.88057 30.57917 39.41510
#
# Poissons Ratio (x) = 0.11519 0.12415
# Poissons Ratio (y) = 0.44403 0.05625
# Poissons Ratio (z) = 0.37132 0.04364
#
# Static dielectric constant tensor:
#      x y z
#    x 1.803500 0.000000 0.000000 
#    y 0.000000 1.780000 0.000000 
#    z 0.000000 0.000000 1.362230 
# 
# From -- ./inp_files/28743.got.cif
#   From: 2010.05.17/outbox.cif.g08.bks.cpg/sg20_15_cif.got.tgz:28743.got - 2010.06.03 22:52:26.
