data_PCOD9319978
_publ_section_title
;
Structure prediction by ZEFSAII (Michael W. Deem and Ramdas Pophale) SiO2 
 PCOD9319978
Probable space group: C 2 2 21
;
_chemical_formula_sum "Si O2"
_cell_formula_units_Z 36
_cell_length_a 13.213296
_cell_length_b 21.983361
_cell_length_c 5.550559
_cell_angle_alpha 90.000000
_cell_angle_beta 90.000000
_cell_angle_gamma 90.000000
_cell_volume 1612.285615
_symmetry_space_group_name_H-M "C 2 2 21"
_symmetry_group_IT_number 20
_symmetry_cell_setting 'orthorhombic'
loop_
_space_group_symop_operation_xyz
x,y,z
-x,-y,1/2+z
x,-y,-z
-x,y,1/2-z
1/2+x,1/2+y,z
1/2-x,1/2-y,1/2+z
1/2+x,1/2-y,-z
1/2-x,1/2+y,1/2-z
loop_
_atom_site_type_symbol
_atom_site_label
_atom_site_fract_x
_atom_site_fract_y
_atom_site_fract_z
Si Si1 0.602395 0.152360 0.378312
Si Si2 0.886286 0.545686 0.796271
Si Si3 0.440185 0.500000 0.000000
Si Si4 0.198260 0.230871 0.659659
Si Si5 0.725436 0.399624 0.538032
O O1 0.500000 0.131676 0.250000
O O2 0.601356 0.115513 0.621771
O O3 0.603758 0.224895 0.390689
O O4 0.706113 0.129695 0.250493
O O5 0.806389 0.556610 0.589931
O O6 0.000000 0.522648 0.750000
O O7 0.844733 0.500000 0.000000
O O8 0.500000 0.515638 0.750000
O O9 0.370625 0.557580 0.079821
O O10 0.269779 0.254512 0.436185
O O11 0.190857 0.158985 0.618687
#
# Coordination Sequence:
#
# PCOD9319978 Si02
#       5
#     8   8   4   8   8
#     4  11  22  41  68 108 144 183 229 295 363 441
#     4  12  24  38  65 107 146 183 227 286 365 443
#     4  12  32  52  72 100 136 196 258 304 342 416
#     4  10  22  41  68 102 139 188 235 277 348 418
#     4  11  25  47  72  98 146 194 231 302 359 423
#
# _framework density 22.328551999999998
#
# number of rings (size 3 to 8) (size 9 to 14) (size 15 to 20)
#    0.000    0.889    4.444    2.000    6.222    0.889 
#    0.000    5.556    0.000    0.000    0.000    0.000 
#    0.000    0.000    0.000    0.000    0.000    0.000 
#
# Total GULP energy -100277.334971 kJ/mol
# GULP energy per Si atom -5570.963054 kJ/mol
# Density = 2.227773 g / cm^3
# Si number density = 22.328552 Si / 1000 Ang^3
#
#
#
# Elastic Constant Matrix: (Units=GPa)
#
#
# Indices 1 2 3 4 5 6 
#
# 1 69.4125 34.0574 12.7420 0.0000 0.0000 0.0000
# 2 34.0574 143.5086 16.2547 0.0000 0.0000 0.0000
# 3 12.7420 16.2547 61.6313 0.0000 0.0000 0.0000
# 4 0.0000 0.0000 0.0000 45.2767 0.0000 0.0000
# 5 0.0000 0.0000 0.0000 0.0000 28.1260 0.0000
# 6 0.0000 0.0000 0.0000 0.0000 0.0000 42.2427
#
#
#
# Elastic Compliance Matrix: (Units=1/GPa)
#
#
# Indices 1 2 3 4 5 6 
#
# 1 0.016664 -0.003674 -0.002476 0.000000 0.000000 0.000000
# 2 -0.003674 0.007993 -0.001348 0.000000 0.000000 0.000000
# 3 -0.002476 -0.001348 0.017093 0.000000 0.000000 0.000000
# 4 0.000000 0.000000 0.000000 0.022086 0.000000 0.000000
# 5 0.000000 0.000000 0.000000 0.000000 0.035554 0.000000
# 6 0.000000 0.000000 0.000000 0.000000 0.000000 0.023673
#
#
# Mechanical properties :
#
#
# Convention : Reuss Voigt Hill
#
# Bulk Modulus (GPa) = 37.37990 44.51784 40.94887
# Shear Modulus (GPa) = 34.01860 37.22897 35.62378
#
# Velocity S-wave (km/s) = 3.90750 4.08772 3.99862
# Velocity P-wave (km/s) = 6.09387 6.50078 6.30061
#
# Compressibility (1/GPa) = 0.02675234
#
# Stress axis : x y z
#
# Youngs Moduli (GPa) = 60.00980 125.11069 58.50316
#
# Poissons Ratio (x) = 0.45968 0.14486
# Poissons Ratio (y) = 0.22049 0.07889
# Poissons Ratio (z) = 0.14859 0.16870
#
# Static dielectric constant tensor:
#      x y z
#    x 1.880460 0.000000 0.000000 
#    y 0.000000 1.858100 0.000000 
#    z 0.000000 0.000000 1.910240 
# 
# From -- ./inp_files/1202.got.cif
#   From: 2010.05.17/outbox.cif.g08.bks.cpg/sg20_1_cif.got.tgz:1202.got - 2010.06.03 22:52:26.
