data_PCOD9319026
_publ_section_title
;
Structure prediction by ZEFSAII (Michael W. Deem and Ramdas Pophale) SiO2 
 PCOD9319026
Probable space group: C 2 2 21
;
_chemical_formula_sum "Si O2"
_cell_formula_units_Z 48
_cell_length_a 5.146545
_cell_length_b 13.675048
_cell_length_c 25.435911
_cell_angle_alpha 90.000000
_cell_angle_beta 90.000000
_cell_angle_gamma 90.000000
_cell_volume 1790.160337
_symmetry_space_group_name_H-M "C 2 2 21"
_symmetry_group_IT_number 20
_symmetry_cell_setting 'orthorhombic'
loop_
_space_group_symop_operation_xyz
x,y,z
-x,-y,1/2+z
x,-y,-z
-x,y,1/2-z
1/2+x,1/2+y,z
1/2-x,1/2-y,1/2+z
1/2+x,1/2-y,-z
1/2-x,1/2+y,1/2-z
loop_
_atom_site_type_symbol
_atom_site_label
_atom_site_fract_x
_atom_site_fract_y
_atom_site_fract_z
Si Si1 0.961183 0.620423 0.191964
Si Si2 0.434214 0.204911 0.026103
Si Si3 0.671809 0.032669 0.080926
Si Si4 0.461188 0.649898 0.807670
Si Si5 0.079385 0.158002 0.113736
Si Si6 0.562460 0.140304 0.628899
O O1 0.093966 0.567714 0.141492
O O2 0.000000 0.577066 0.250000
O O3 0.663341 0.626703 0.171674
O O4 0.037319 0.734904 0.196204
O O5 0.546545 0.095962 0.034516
O O6 0.319875 0.213039 0.085332
O O7 0.672536 0.272719 0.007291
O O8 0.563988 0.923801 0.082799
O O9 0.971552 0.066650 0.081056
O O10 0.500000 0.606976 0.750000
O O11 0.165689 0.643216 0.827249
O O12 0.668268 0.602607 0.847431
O O13 0.885723 0.248343 0.112521
#
# Coordination Sequence:
#
# PCOD9319026 Si02
#       6
#     8   8   8   8   8   8
#     4   9  20  37  62  95 134 179 227 266 324 394
#     4  11  23  43  74  93 126 168 214 275 344 409
#     4  11  23  41  69  97 130 174 223 274 333 403
#     4  10  21  39  60  90 133 183 222 271 325 383
#     4  10  22  43  67  97 133 180 218 277 343 401
#     4  11  24  39  65  95 134 172 222 278 330 393
#
# _framework density 26.813241000000001
#
# number of rings (size 3 to 8) (size 9 to 14) (size 15 to 20)
#    0.000    1.667    3.333    0.500    4.667    2.000 
#    0.000    0.833    7.333    0.000    0.000    0.000 
#    0.000    0.000    0.000    0.000    0.000    0.000 
#
# Total GULP energy -133915.889279 kJ/mol
# GULP energy per Si atom -5579.828720 kJ/mol
# Density = 2.675221 g / cm^3
# Si number density = 26.813241 Si / 1000 Ang^3
#
#
#
# Elastic Constant Matrix: (Units=GPa)
#
#
# Indices 1 2 3 4 5 6 
#
# 1 122.3473 0.7886 13.6476 0.0000 0.0000 0.0000
# 2 0.7886 79.3197 -10.6849 0.0000 0.0000 0.0000
# 3 13.6476 -10.6849 111.5691 0.0000 0.0000 0.0000
# 4 0.0000 0.0000 0.0000 29.7764 0.0000 0.0000
# 5 0.0000 0.0000 0.0000 0.0000 31.9157 0.0000
# 6 0.0000 0.0000 0.0000 0.0000 0.0000 21.1517
#
#
#
# Elastic Compliance Matrix: (Units=1/GPa)
#
#
# Indices 1 2 3 4 5 6 
#
# 1 0.008290 -0.000222 -0.001035 0.000000 0.000000 0.000000
# 2 -0.000222 0.012778 0.001251 0.000000 0.000000 0.000000
# 3 -0.001035 0.001251 0.009209 0.000000 0.000000 0.000000
# 4 0.000000 0.000000 0.000000 0.033584 0.000000 0.000000
# 5 0.000000 0.000000 0.000000 0.000000 0.031333 0.000000
# 6 0.000000 0.000000 0.000000 0.000000 0.000000 0.047278
#
#
# Mechanical properties :
#
#
# Convention : Reuss Voigt Hill
#
# Bulk Modulus (GPa) = 33.04144 35.63764 34.33954
# Shear Modulus (GPa) = 32.77128 37.20109 34.98618
#
# Velocity S-wave (km/s) = 3.49980 3.72884 3.61613
# Velocity P-wave (km/s) = 5.35546 5.64437 5.50182
#
# Compressibility (1/GPa) = 0.03026502
#
# Stress axis : x y z
#
# Youngs Moduli (GPa) = 120.62183 78.26004 108.58354
#
# Poissons Ratio (x) = 0.01737 0.11242
# Poissons Ratio (y) = 0.02676 -0.13582
# Poissons Ratio (z) = 0.12489 -0.09789
#
# Static dielectric constant tensor:
#      x y z
#    x 2.264740 0.000000 0.000000 
#    y 0.000000 2.175190 0.000000 
#    z 0.000000 0.000000 2.155130 
# 
# From -- ./inp_files/29821.got.cif
#   From: 2010.05.17/outbox.cif.g08.bks.cpg/sg20_15_cif.got.tgz:29821.got - 2010.06.03 22:52:26.
