data_PCOD9319699
_publ_section_title
;
Structure prediction by ZEFSAII (Michael W. Deem and Ramdas Pophale) SiO2 
 PCOD9319699
Probable space group: C 2 2 21
;
_chemical_formula_sum "Si O2"
_cell_formula_units_Z 32
_cell_length_a 9.791991
_cell_length_b 26.806620
_cell_length_c 5.203642
_cell_angle_alpha 90.000000
_cell_angle_beta 90.000000
_cell_angle_gamma 90.000000
_cell_volume 1365.904935
_symmetry_space_group_name_H-M "C 2 2 21"
_symmetry_group_IT_number 20
_symmetry_cell_setting 'orthorhombic'
loop_
_space_group_symop_operation_xyz
x,y,z
-x,-y,1/2+z
x,-y,-z
-x,y,1/2-z
1/2+x,1/2+y,z
1/2-x,1/2-y,1/2+z
1/2+x,1/2-y,-z
1/2-x,1/2+y,1/2-z
loop_
_atom_site_type_symbol
_atom_site_label
_atom_site_fract_x
_atom_site_fract_y
_atom_site_fract_z
Si Si1 0.851100 0.053656 0.731133
Si Si2 0.500000 0.910973 0.750000
Si Si3 0.840296 0.765097 0.752952
Si Si4 0.796718 0.119303 0.239021
Si Si5 0.630764 0.000000 0.000000
O O1 0.848706 0.086134 0.474589
O O2 0.000000 0.030138 0.750000
O O3 0.734638 0.012243 0.769462
O O4 0.826921 0.091282 0.971543
O O5 0.366320 0.878924 0.786635
O O6 0.540116 0.951195 0.966760
O O7 0.750946 0.751059 0.500092
O O8 0.849934 0.825006 0.762550
O O9 0.000000 0.746063 0.750000
#
# Coordination Sequence:
#
# PCOD9319699 Si02
#       5
#     8   4   8   8   4
#     4  11  23  41  66  96 137 185 235 285 352 420
#     4  10  22  40  66  94 138 178 236 276 354 408
#     4  12  27  48  77 109 148 188 248 312 383 452
#     4  11  25  44  70  95 138 185 235 291 357 437
#     4  10  22  38  64 102 136 184 230 298 334 414
#
# _framework density 23.427693999999999
#
# number of rings (size 3 to 8) (size 9 to 14) (size 15 to 20)
#    0.000    1.000    0.000    6.000    3.500   10.000 
#    0.000    0.000    0.000    0.000    0.000    0.000 
#    0.000    0.000    0.000    0.000    0.000    0.000 
#
# Total GULP energy -89485.795126 kJ/mol
# GULP energy per Si atom -5592.862195 kJ/mol
# Density = 2.337437 g / cm^3
# Si number density = 23.427694 Si / 1000 Ang^3
#
#
#
# Elastic Constant Matrix: (Units=GPa)
#
#
# Indices 1 2 3 4 5 6 
#
# 1 201.2366 9.6760 25.2135 0.0000 0.0000 0.0000
# 2 9.6760 90.7940 43.7386 0.0000 0.0000 0.0000
# 3 25.2135 43.7386 175.7100 0.0000 0.0000 0.0000
# 4 0.0000 0.0000 0.0000 36.4590 0.0000 0.0000
# 5 0.0000 0.0000 0.0000 0.0000 9.2276 0.0000
# 6 0.0000 0.0000 0.0000 0.0000 0.0000 33.7702
#
#
#
# Elastic Compliance Matrix: (Units=1/GPa)
#
#
# Indices 1 2 3 4 5 6 
#
# 1 0.005064 -0.000215 -0.000673 0.000000 0.000000 0.000000
# 2 -0.000215 0.012524 -0.003087 0.000000 0.000000 0.000000
# 3 -0.000673 -0.003087 0.006556 0.000000 0.000000 0.000000
# 4 0.000000 0.000000 0.000000 0.027428 0.000000 0.000000
# 5 0.000000 0.000000 0.000000 0.000000 0.108370 0.000000
# 6 0.000000 0.000000 0.000000 0.000000 0.000000 0.029612
#
#
# Mechanical properties :
#
#
# Convention : Reuss Voigt Hill
#
# Bulk Modulus (GPa) = 61.75215 69.44412 65.59814
# Shear Modulus (GPa) = 24.64242 41.83219 33.23730
#
# Velocity S-wave (km/s) = 3.24674 4.23021 3.77067
# Velocity P-wave (km/s) = 6.36168 7.31886 6.85699
#
# Compressibility (1/GPa) = 0.01619377
#
# Stress axis : x y z
#
# Youngs Moduli (GPa) = 197.47398 79.84786 152.52979
#
# Poissons Ratio (x) = 0.01720 0.10266
# Poissons Ratio (y) = 0.04255 0.47079
# Poissons Ratio (z) = 0.13290 0.24646
#
# Static dielectric constant tensor:
#      x y z
#    x 1.972980 0.000000 0.000000 
#    y 0.000000 1.828670 0.000000 
#    z 0.000000 0.000000 1.978220 
# 
# From -- ./inp_files/601.got.cif
#   From: 2010.05.17/outbox.cif.g08.bks.cpg/sg20_1_cif.got.tgz:601.got - 2010.06.03 22:52:26.
