data_PCOD9319869
_publ_section_title
;
Structure prediction by ZEFSAII (Michael W. Deem and Ramdas Pophale) SiO2 
 PCOD9319869
Probable space group: C 2 2 21
;
_chemical_formula_sum "Si O2"
_cell_formula_units_Z 48
_cell_length_a 8.331218
_cell_length_b 13.229160
_cell_length_c 20.360210
_cell_angle_alpha 90.000000
_cell_angle_beta 90.000000
_cell_angle_gamma 90.000000
_cell_volume 2244.000869
_symmetry_space_group_name_H-M "C 2 2 21"
_symmetry_group_IT_number 20
_symmetry_cell_setting 'orthorhombic'
loop_
_space_group_symop_operation_xyz
x,y,z
-x,-y,1/2+z
x,-y,-z
-x,y,1/2-z
1/2+x,1/2+y,z
1/2-x,1/2-y,1/2+z
1/2+x,1/2-y,-z
1/2-x,1/2+y,1/2-z
loop_
_atom_site_type_symbol
_atom_site_label
_atom_site_fract_x
_atom_site_fract_y
_atom_site_fract_z
Si Si1 0.361823 0.522631 0.070958
Si Si2 0.726388 0.219280 0.300457
Si Si3 0.107756 0.977198 0.810671
Si Si4 0.131630 0.201559 0.827191
Si Si5 0.859955 0.672341 0.581434
Si Si6 0.295220 0.755527 0.043626
O O1 0.491131 0.513770 0.127495
O O2 0.220114 0.439163 0.079262
O O3 0.308262 0.638762 0.067343
O O4 0.437273 0.500000 0.000000
O O5 0.752535 0.103345 0.319994
O O6 0.551376 0.262489 0.319039
O O7 0.736237 0.228644 0.221524
O O8 0.848258 0.283807 0.345040
O O9 0.000000 0.941334 0.750000
O O10 0.162413 0.090748 0.797572
O O11 0.171941 0.199163 0.903834
O O12 0.758860 0.744900 0.531711
O O13 0.039721 0.683966 0.554174
#
# Coordination Sequence:
#
# PCOD9319869 Si02
#       6
#     8   8   8   8   8   8
#     4  10  22  40  66  96 131 173 223 278 335 401
#     4  11  23  40  67  95 133 179 225 278 342 399
#     4  12  22  41  69  97 132 183 227 280 341 408
#     4  11  24  43  63 101 137 174 226 292 332 403
#     4  11  22  41  66 100 133 178 226 278 337 410
#     4  11  24  41  68  97 138 179 221 285 341 401
#
# _framework density 21.390364999999999
#
# number of rings (size 3 to 8) (size 9 to 14) (size 15 to 20)
#    0.000    1.000    5.000    2.000    2.333    1.333 
#    0.000    3.333    0.000    0.000    0.000    0.000 
#    0.000    0.000    0.000    0.000    0.000    0.000 
#
# Total GULP energy -134007.729872 kJ/mol
# GULP energy per Si atom -5583.655411 kJ/mol
# Density = 2.134168 g / cm^3
# Si number density = 21.390365 Si / 1000 Ang^3
#
#
#
# Elastic Constant Matrix: (Units=GPa)
#
#
# Indices 1 2 3 4 5 6 
#
# 1 32.3754 24.9965 2.3907 0.0000 0.0000 0.0000
# 2 24.9965 103.1684 -2.4888 0.0000 0.0000 0.0000
# 3 2.3907 -2.4888 70.2320 0.0000 0.0000 0.0000
# 4 0.0000 0.0000 0.0000 27.6567 0.0000 0.0000
# 5 0.0000 0.0000 0.0000 0.0000 38.6295 0.0000
# 6 0.0000 0.0000 0.0000 0.0000 0.0000 181.7441
#
#
#
# Elastic Compliance Matrix: (Units=1/GPa)
#
#
# Indices 1 2 3 4 5 6 
#
# 1 0.038181 -0.009290 -0.001629 0.000000 0.000000 0.000000
# 2 -0.009290 0.011962 0.000740 0.000000 0.000000 0.000000
# 3 -0.001629 0.000740 0.014320 0.000000 0.000000 0.000000
# 4 0.000000 0.000000 0.000000 0.036158 0.000000 0.000000
# 5 0.000000 0.000000 0.000000 0.000000 0.025887 0.000000
# 6 0.000000 0.000000 0.000000 0.000000 0.000000 0.005502
#
#
# Mechanical properties :
#
#
# Convention : Reuss Voigt Hill
#
# Bulk Modulus (GPa) = 22.67325 28.39696 25.53510
# Shear Modulus (GPa) = 29.92788 61.66454 45.79621
#
# Velocity S-wave (km/s) = 3.74455 5.37501 4.63209
# Velocity P-wave (km/s) = 5.41464 7.19899 6.36961
#
# Compressibility (1/GPa) = 0.04410484
#
# Stress axis : x y z
#
# Youngs Moduli (GPa) = 26.19134 83.60079 69.83148
#
# Poissons Ratio (x) = 0.77665 0.11375
# Poissons Ratio (y) = 0.24332 -0.05168
# Poissons Ratio (z) = 0.04266 -0.06187
#
# Static dielectric constant tensor:
#      x y z
#    x 1.770270 0.000000 0.000000 
#    y 0.000000 1.818500 0.000000 
#    z 0.000000 0.000000 1.773240 
# 
# From -- ./inp_files/26585.got.cif
#   From: 2010.05.17/outbox.cif.g08.bks.cpg/sg20_14_cif.got.tgz:26585.got - 2010.06.03 22:52:26.
