data_PCOD9319337
_publ_section_title
;
Structure prediction by ZEFSAII (Michael W. Deem and Ramdas Pophale) SiO2 
 PCOD9319337
Probable space group: C 2 2 21
;
_chemical_formula_sum "Si O2"
_cell_formula_units_Z 56
_cell_length_a 5.604570
_cell_length_b 13.527632
_cell_length_c 29.918602
_cell_angle_alpha 90.000000
_cell_angle_beta 90.000000
_cell_angle_gamma 90.000000
_cell_volume 2268.325498
_symmetry_space_group_name_H-M "C 2 2 21"
_symmetry_group_IT_number 20
_symmetry_cell_setting 'orthorhombic'
loop_
_space_group_symop_operation_xyz
x,y,z
-x,-y,1/2+z
x,-y,-z
-x,y,1/2-z
1/2+x,1/2+y,z
1/2-x,1/2-y,1/2+z
1/2+x,1/2-y,-z
1/2-x,1/2+y,1/2-z
loop_
_atom_site_type_symbol
_atom_site_label
_atom_site_fract_x
_atom_site_fract_y
_atom_site_fract_z
Si Si1 0.851974 0.500000 0.500000
Si Si2 0.395000 0.206492 0.018674
Si Si3 0.687814 0.493958 0.594258
Si Si4 0.439406 0.132319 0.857116
Si Si5 0.433639 0.525533 0.682177
Si Si6 0.421356 0.786651 0.612343
Si Si7 0.500000 0.646518 0.250000
Si Si8 0.819579 0.233436 0.802808
O O1 0.022676 0.405919 0.508573
O O2 0.678479 0.515607 0.542218
O O3 0.387343 0.222886 0.072484
O O4 0.134256 0.234073 0.998775
O O5 0.478179 0.507772 0.629530
O O6 0.770509 0.381650 0.599646
O O7 0.889660 0.567898 0.612627
O O8 0.239859 0.189078 0.885323
O O9 0.577805 0.217277 0.830917
O O10 0.338363 0.060107 0.818380
O O11 0.504305 0.429088 0.708718
O O12 0.574300 0.622683 0.699418
O O13 0.523120 0.795778 0.662465
O O14 0.267412 0.714612 0.257784
#
# Coordination Sequence:
#
# PCOD9319337 Si02
#       8
#     4   8   8   8   8   8   4   8
#     4  10  24  44  68 108 144 190 244 298 358 448
#     4  11  26  44  71 108 148 199 248 306 360 432
#     4  10  21  43  63  97 134 180 228 284 352 418
#     4  10  21  41  68  91 134 179 224 286 347 425
#     4  10  24  42  66  99 135 179 229 287 356 428
#     4  10  22  41  65  97 134 183 234 282 354 424
#     4  12  24  44  70 100 134 178 226 296 358 430
#     4  10  24  42  67  96 132 177 226 287 355 430
#
# _framework density 24.687812000000001
#
# number of rings (size 3 to 8) (size 9 to 14) (size 15 to 20)
#    0.000    1.714    0.000    2.571   10.000    0.571 
#    7.714    5.714    0.000    0.000    0.000    0.000 
#    0.000    0.000    0.000    0.000    0.000    0.000 
#
# Total GULP energy -156586.180046 kJ/mol
# GULP energy per Si atom -5592.363573 kJ/mol
# Density = 2.463162 g / cm^3
# Si number density = 24.687812 Si / 1000 Ang^3
#
#
#
# Elastic Constant Matrix: (Units=GPa)
#
#
# Indices 1 2 3 4 5 6 
#
# 1 33.9174 -2.7625 10.8263 0.0000 0.0000 0.0000
# 2 -2.7625 99.5526 11.5250 0.0000 0.0000 0.0000
# 3 10.8263 11.5250 103.3641 0.0000 0.0000 0.0000
# 4 0.0000 0.0000 0.0000 34.1022 0.0000 0.0000
# 5 0.0000 0.0000 0.0000 0.0000 30.9988 0.0000
# 6 0.0000 0.0000 0.0000 0.0000 0.0000 0.8584
#
#
#
# Elastic Compliance Matrix: (Units=1/GPa)
#
#
# Indices 1 2 3 4 5 6 
#
# 1 0.030653 0.001238 -0.003349 0.000000 0.000000 0.000000
# 2 0.001238 0.010226 -0.001270 0.000000 0.000000 0.000000
# 3 -0.003349 -0.001270 0.010167 0.000000 0.000000 0.000000
# 4 0.000000 0.000000 0.000000 0.029324 0.000000 0.000000
# 5 0.000000 0.000000 0.000000 0.000000 0.032259 0.000000
# 6 0.000000 0.000000 0.000000 0.000000 0.000000 1.165004
#
#
# Mechanical properties :
#
#
# Convention : Reuss Voigt Hill
#
# Bulk Modulus (GPa) = 22.58064 30.66797 26.62431
# Shear Modulus (GPa) = 3.84865 27.67488 15.76177
#
# Velocity S-wave (km/s) = 1.24993 3.35176 2.52948
# Velocity P-wave (km/s) = 3.35401 5.23720 4.39760
#
# Compressibility (1/GPa) = 0.04428572
#
# Stress axis : x y z
#
# Youngs Moduli (GPa) = 32.62305 97.78694 98.35866
#
# Poissons Ratio (x) = -0.12109 0.32937
# Poissons Ratio (y) = -0.04040 0.12491
# Poissons Ratio (z) = 0.10924 0.12418
#
# Static dielectric constant tensor:
#      x y z
#    x 2.027790 0.000000 0.000000 
#    y 0.000000 1.939240 0.000000 
#    z 0.000000 0.000000 2.034490 
# 
# From -- ./inp_files/30757.got.cif
#   From: 2010.05.17/outbox.cif.g08.bks.cpg/sg20_16_cif.got.tgz:30757.got - 2010.06.03 22:52:26.
