data_PCOD9319291
_publ_section_title
;
Structure prediction by ZEFSAII (Michael W. Deem and Ramdas Pophale) SiO2 
 PCOD9319291
Probable space group: C 2 2 21
;
_chemical_formula_sum "Si O2"
_cell_formula_units_Z 48
_cell_length_a 8.778920
_cell_length_b 11.888896
_cell_length_c 21.687851
_cell_angle_alpha 90.000000
_cell_angle_beta 90.000000
_cell_angle_gamma 90.000000
_cell_volume 2263.597160
_symmetry_space_group_name_H-M "C 2 2 21"
_symmetry_group_IT_number 20
_symmetry_cell_setting 'orthorhombic'
loop_
_space_group_symop_operation_xyz
x,y,z
-x,-y,1/2+z
x,-y,-z
-x,y,1/2-z
1/2+x,1/2+y,z
1/2-x,1/2-y,1/2+z
1/2+x,1/2-y,-z
1/2-x,1/2+y,1/2-z
loop_
_atom_site_type_symbol
_atom_site_label
_atom_site_fract_x
_atom_site_fract_y
_atom_site_fract_z
Si Si1 0.419220 0.808419 0.316559
Si Si2 0.623816 0.133200 0.508748
Si Si3 0.559285 0.965364 0.678859
Si Si4 0.560064 0.716076 0.680818
Si Si5 0.587713 0.679787 0.064058
Si Si6 0.850503 0.047929 0.609913
O O1 0.500000 0.794085 0.250000
O O2 0.238870 0.803560 0.312128
O O3 0.458421 0.715829 0.366857
O O4 0.467491 0.927945 0.345740
O O5 0.498480 0.228552 0.522131
O O6 0.733059 0.179458 0.454095
O O7 0.740563 0.120782 0.566160
O O8 0.574597 0.000000 0.500000
O O9 0.500000 0.963412 0.750000
O O10 0.526068 0.841129 0.655401
O O11 0.735550 0.993131 0.661575
O O12 0.500000 0.711224 0.750000
O O13 0.475067 0.623854 0.641559
O O14 0.566778 0.545552 0.067639
#
# Coordination Sequence:
#
# PCOD9319291 Si02
#       6
#     8   8   8   8   8   8
#     4  11  23  43  66  97 136 173 218 274 342 402
#     4  10  25  46  68  94 134 175 224 287 334 397
#     4  10  21  41  63  94 137 177 218 269 334 402
#     4  11  24  40  66  99 137 179 222 269 335 410
#     4  11  24  46  71  96 133 177 226 279 342 399
#     4  11  23  44  67  97 136 174 223 284 333 395
#
# _framework density 21.205186999999999
#
# number of rings (size 3 to 8) (size 9 to 14) (size 15 to 20)
#    0.000    1.333    3.333    2.000    2.333    2.000 
#    9.000    0.000    0.000    0.000    0.000    0.000 
#    0.000    0.000    0.000    0.000    0.000    0.000 
#
# Total GULP energy -133722.551266 kJ/mol
# GULP energy per Si atom -5571.772969 kJ/mol
# Density = 2.115692 g / cm^3
# Si number density = 21.205187 Si / 1000 Ang^3
#
#
#
# Elastic Constant Matrix: (Units=GPa)
#
#
# Indices 1 2 3 4 5 6 
#
# 1 35.4944 42.9040 18.5205 0.0000 0.0000 0.0000
# 2 42.9040 127.2337 27.0894 0.0000 0.0000 0.0000
# 3 18.5205 27.0894 81.7376 0.0000 0.0000 0.0000
# 4 0.0000 0.0000 0.0000 35.4979 0.0000 0.0000
# 5 0.0000 0.0000 0.0000 0.0000 39.1538 0.0000
# 6 0.0000 0.0000 0.0000 0.0000 0.0000 32.6791
#
#
#
# Elastic Compliance Matrix: (Units=1/GPa)
#
#
# Indices 1 2 3 4 5 6 
#
# 1 0.050334 -0.015649 -0.006219 0.000000 0.000000 0.000000
# 2 -0.015649 0.013322 -0.000869 0.000000 0.000000 0.000000
# 3 -0.006219 -0.000869 0.013931 0.000000 0.000000 0.000000
# 4 0.000000 0.000000 0.000000 0.028171 0.000000 0.000000
# 5 0.000000 0.000000 0.000000 0.000000 0.025540 0.000000
# 6 0.000000 0.000000 0.000000 0.000000 0.000000 0.030601
#
#
# Mechanical properties :
#
#
# Convention : Reuss Voigt Hill
#
# Bulk Modulus (GPa) = 31.13962 46.83262 38.98612
# Shear Modulus (GPa) = 22.92781 31.86297 27.39539
#
# Velocity S-wave (km/s) = 3.29178 3.88055 3.59823
# Velocity P-wave (km/s) = 5.40042 6.49705 5.97395
#
# Compressibility (1/GPa) = 0.03211343
#
# Stress axis : x y z
#
# Youngs Moduli (GPa) = 19.86739 75.06661 71.78051
#
# Poissons Ratio (x) = 1.17471 0.44637
# Poissons Ratio (y) = 0.31090 0.06239
# Poissons Ratio (z) = 0.12355 0.06525
#
# Static dielectric constant tensor:
#      x y z
#    x 2.014330 0.000000 0.000000 
#    y 0.000000 1.787490 0.000000 
#    z 0.000000 0.000000 1.871780 
# 
# From -- ./inp_files/28710.got.cif
#   From: 2010.05.17/outbox.cif.g08.bks.cpg/sg20_15_cif.got.tgz:28710.got - 2010.06.03 22:52:26.
