data_PCOD9319516
_publ_section_title
;
Structure prediction by ZEFSAII (Michael W. Deem and Ramdas Pophale) SiO2 
 PCOD9319516
Probable space group: C 2 2 21
;
_chemical_formula_sum "Si O2"
_cell_formula_units_Z 32
_cell_length_a 4.928976
_cell_length_b 19.079309
_cell_length_c 14.266971
_cell_angle_alpha 90.000000
_cell_angle_beta 90.000000
_cell_angle_gamma 90.000000
_cell_volume 1341.686728
_symmetry_space_group_name_H-M "C 2 2 21"
_symmetry_group_IT_number 20
_symmetry_cell_setting 'orthorhombic'
loop_
_space_group_symop_operation_xyz
x,y,z
-x,-y,1/2+z
x,-y,-z
-x,y,1/2-z
1/2+x,1/2+y,z
1/2-x,1/2-y,1/2+z
1/2+x,1/2-y,-z
1/2-x,1/2+y,1/2-z
loop_
_atom_site_type_symbol
_atom_site_label
_atom_site_fract_x
_atom_site_fract_y
_atom_site_fract_z
Si Si1 0.500000 0.428361 0.750000
Si Si2 0.510497 0.324349 0.923841
Si Si3 0.667548 0.978184 0.128451
Si Si4 0.810502 0.000000 0.500000
Si Si5 0.509741 0.166655 0.939802
O O1 0.542707 0.377187 0.838503
O O2 0.738018 0.480581 0.719263
O O3 0.455827 0.528483 0.928486
O O4 0.536613 0.243220 0.893914
O O5 0.224047 0.333928 0.974879
O O6 0.556784 0.898834 0.128013
O O7 0.429292 0.021427 0.074799
O O8 0.775491 0.161434 0.506766
#
# Coordination Sequence:
#
# PCOD9319516 Si02
#       5
#     4   8   8   4   8
#     4  12  26  40  66 106 134 160 218 296 334 360
#     4  10  23  42  68  96 127 171 221 268 320 388
#     4  11  22  39  65  96 131 169 214 268 329 389
#     4  10  22  40  64  90 126 172 212 252 320 408
#     4  10  21  44  68  89 128 183 220 249 322 416
#
# _framework density 23.850576
#
# number of rings (size 3 to 8) (size 9 to 14) (size 15 to 20)
#    0.000    1.500    0.000    6.000    0.000    4.000 
#    0.000   10.000    0.000    3.000    0.000    0.000 
#    0.000    0.000    0.000    0.000    0.000    0.000 
#
# Total GULP energy -89192.104415 kJ/mol
# GULP energy per Si atom -5574.506526 kJ/mol
# Density = 2.379629 g / cm^3
# Si number density = 23.850576 Si / 1000 Ang^3
#
#
#
# Elastic Constant Matrix: (Units=GPa)
#
#
# Indices 1 2 3 4 5 6 
#
# 1 161.1112 27.5051 5.3848 0.0000 0.0000 0.0000
# 2 27.5051 208.6272 58.8996 0.0000 0.0000 0.0000
# 3 5.3848 58.8996 66.7146 0.0000 0.0000 0.0000
# 4 0.0000 0.0000 0.0000 51.3226 0.0000 0.0000
# 5 0.0000 0.0000 0.0000 0.0000 35.8838 0.0000
# 6 0.0000 0.0000 0.0000 0.0000 0.0000 -117.5990
#
#
#
# Elastic Compliance Matrix: (Units=1/GPa)
#
#
# Indices 1 2 3 4 5 6 
#
# 1 0.006354 -0.000923 0.000302 0.000000 0.000000 0.000000
# 2 -0.000923 0.006519 -0.005681 0.000000 0.000000 0.000000
# 3 0.000302 -0.005681 0.019980 0.000000 0.000000 0.000000
# 4 0.000000 0.000000 0.000000 0.019485 0.000000 0.000000
# 5 0.000000 0.000000 0.000000 0.000000 0.027868 0.000000
# 6 0.000000 0.000000 0.000000 0.000000 0.000000 -0.008503
#
#
# Mechanical properties :
#
#
# Convention : Reuss Voigt Hill
#
# Bulk Modulus (GPa) = 49.38303 68.89244 59.13774
# Shear Modulus (GPa) = 54.91189 16.89905 35.90547
#
# Velocity S-wave (km/s) = 4.80347 2.66473 3.88420
# Velocity P-wave (km/s) = 7.17736 6.19802 6.70559
#
# Compressibility (1/GPa) = 0.02024987
#
# Stress axis : x y z
#
# Youngs Moduli (GPa) = 157.37183 153.40578 50.05015
#
# Poissons Ratio (x) = 0.14160 -0.01512
# Poissons Ratio (y) = 0.14526 0.28431
# Poissons Ratio (z) = -0.04753 0.87143
#
# Static dielectric constant tensor:
#      x y z
#    x 1.872310 0.000000 0.000000 
#    y 0.000000 2.106960 0.000000 
#    z 0.000000 0.000000 1.950740 
# 
# From -- ./inp_files/23243.got.cif
#   From: 2010.05.17/outbox.cif.g08.bks.cpg/sg20_12_cif.got.tgz:23243.got - 2010.06.03 22:52:26.
