data_PCOD9319578
_publ_section_title
;
Structure prediction by ZEFSAII (Michael W. Deem and Ramdas Pophale) SiO2 
 PCOD9319578
Probable space group: C 2 2 21
;
_chemical_formula_sum "Si O2"
_cell_formula_units_Z 56
_cell_length_a 19.360404
_cell_length_b 14.761265
_cell_length_c 8.651638
_cell_angle_alpha 90.000000
_cell_angle_beta 90.000000
_cell_angle_gamma 90.000000
_cell_volume 2472.500181
_symmetry_space_group_name_H-M "C 2 2 21"
_symmetry_group_IT_number 20
_symmetry_cell_setting 'orthorhombic'
loop_
_space_group_symop_operation_xyz
x,y,z
-x,-y,1/2+z
x,-y,-z
-x,y,1/2-z
1/2+x,1/2+y,z
1/2-x,1/2-y,1/2+z
1/2+x,1/2-y,-z
1/2-x,1/2+y,1/2-z
loop_
_atom_site_type_symbol
_atom_site_label
_atom_site_fract_x
_atom_site_fract_y
_atom_site_fract_z
Si Si1 0.070264 0.681778 0.607050
Si Si2 0.887076 0.500000 0.000000
Si Si3 0.983178 0.000000 0.500000
Si Si4 0.108929 0.134840 0.541003
Si Si5 0.588653 0.241542 0.919167
Si Si6 0.309723 0.712805 0.687051
Si Si7 0.766309 0.623869 0.096769
Si Si8 0.129571 0.064074 0.214122
O O1 0.066336 0.576149 0.574816
O O2 0.107134 0.758257 0.502895
O O3 0.111131 0.683560 0.770636
O O4 0.991995 0.717589 0.584106
O O5 0.835437 0.564981 0.095288
O O6 0.930885 0.998225 0.646373
O O7 0.033341 0.913763 0.465458
O O8 0.153349 0.139741 0.698103
O O9 0.139772 0.080197 0.395427
O O10 0.599413 0.341851 0.853595
O O11 0.630884 0.240850 0.077744
O O12 0.257072 0.665109 0.568286
O O13 0.273006 0.791648 0.785758
O O14 0.704766 0.556893 0.144645
#
# Coordination Sequence:
#
# PCOD9319578 Si02
#       8
#     8   4   4   8   8   8   8   8
#     4  10  21  47  68 105 142 186 235 303 367 434
#     4  12  25  44  74 102 145 190 248 288 356 432
#     4  12  23  38  72 112 147 182 240 304 380 452
#     4  11  23  42  71 105 148 186 240 304 378 435
#     4   9  21  43  74  99 139 186 233 299 371 423
#     4  11  24  45  74 103 140 197 243 303 367 440
#     4  11  25  44  70 101 143 196 246 295 359 444
#     4  10  22  42  69 103 145 189 235 300 369 441
#
# _framework density 22.649139999999999
#
# number of rings (size 3 to 8) (size 9 to 14) (size 15 to 20)
#    0.000    1.429    2.857    1.714    4.000    6.286 
#    5.143    0.000    0.000    0.000    0.000    0.000 
#    0.000    0.000    0.000    0.000    0.000    0.000 
#
# Total GULP energy -156002.254077 kJ/mol
# GULP energy per Si atom -5571.509074 kJ/mol
# Density = 2.259759 g / cm^3
# Si number density = 22.649140 Si / 1000 Ang^3
#
#
#
# Elastic Constant Matrix: (Units=GPa)
#
#
# Indices 1 2 3 4 5 6 
#
# 1 70.3420 -0.0643 39.0791 0.0000 0.0000 0.0000
# 2 -0.0643 87.7305 43.9038 0.0000 0.0000 0.0000
# 3 39.0791 43.9038 131.9041 0.0000 0.0000 0.0000
# 4 0.0000 0.0000 0.0000 28.1594 0.0000 0.0000
# 5 0.0000 0.0000 0.0000 0.0000 23.5005 0.0000
# 6 0.0000 0.0000 0.0000 0.0000 0.0000 25.9531
#
#
#
# Elastic Compliance Matrix: (Units=1/GPa)
#
#
# Indices 1 2 3 4 5 6 
#
# 1 0.017722 0.003168 -0.006305 0.000000 0.000000 0.000000
# 2 0.003168 0.014243 -0.005679 0.000000 0.000000 0.000000
# 3 -0.006305 -0.005679 0.011340 0.000000 0.000000 0.000000
# 4 0.000000 0.000000 0.000000 0.035512 0.000000 0.000000
# 5 0.000000 0.000000 0.000000 0.000000 0.042552 0.000000
# 6 0.000000 0.000000 0.000000 0.000000 0.000000 0.038531
#
#
# Mechanical properties :
#
#
# Convention : Reuss Voigt Hill
#
# Bulk Modulus (GPa) = 38.95246 50.64598 44.79922
# Shear Modulus (GPa) = 26.86874 29.32646 28.09760
#
# Velocity S-wave (km/s) = 3.44801 3.60226 3.52598
# Velocity P-wave (km/s) = 5.75215 6.30169 6.03318
#
# Compressibility (1/GPa) = 0.02567232
#
# Stress axis : x y z
#
# Youngs Moduli (GPa) = 56.42715 70.20961 88.18637
#
# Poissons Ratio (x) = -0.22244 0.55602
# Poissons Ratio (y) = -0.17878 0.50085
# Poissons Ratio (z) = 0.35577 0.39875
#
# Static dielectric constant tensor:
#      x y z
#    x 1.896830 0.000000 0.000000 
#    y 0.000000 1.911600 0.000000 
#    z 0.000000 0.000000 2.019240 
# 
# From -- ./inp_files/10245.got.cif
#   From: 2010.05.17/outbox.cif.g08.bks.cpg/sg20_6_cif.got.tgz:10245.got - 2010.06.03 22:52:26.
