data_PCOD9319569
_publ_section_title
;
Structure prediction by ZEFSAII (Michael W. Deem and Ramdas Pophale) SiO2 
 PCOD9319569
Probable space group: C 2 2 21
;
_chemical_formula_sum "Si O2"
_cell_formula_units_Z 32
_cell_length_a 11.257005
_cell_length_b 9.350865
_cell_length_c 14.211832
_cell_angle_alpha 90.000000
_cell_angle_beta 90.000000
_cell_angle_gamma 90.000000
_cell_volume 1495.976292
_symmetry_space_group_name_H-M "C 2 2 21"
_symmetry_group_IT_number 20
_symmetry_cell_setting 'orthorhombic'
loop_
_space_group_symop_operation_xyz
x,y,z
-x,-y,1/2+z
x,-y,-z
-x,y,1/2-z
1/2+x,1/2+y,z
1/2-x,1/2-y,1/2+z
1/2+x,1/2-y,-z
1/2-x,1/2+y,1/2-z
loop_
_atom_site_type_symbol
_atom_site_label
_atom_site_fract_x
_atom_site_fract_y
_atom_site_fract_z
Si Si1 0.561624 0.006424 0.112631
Si Si2 0.000000 0.747445 0.250000
Si Si3 0.062688 0.000000 0.500000
Si Si4 0.785406 0.138407 0.842204
Si Si5 0.053968 0.804496 0.847144
O O1 0.502908 0.144091 0.158733
O O2 0.691392 0.992101 0.161996
O O3 0.499505 0.855903 0.138309
O O4 0.574752 0.000000 0.000000
O O5 0.880736 0.839277 0.239399
O O6 0.983865 0.092474 0.429794
O O7 0.143315 0.105586 0.562474
O O8 0.694526 0.271822 0.846410
O O9 0.000000 0.857870 0.750000
#
# Coordination Sequence:
#
# PCOD9319569 Si02
#       5
#     8   4   4   8   8
#     4  10  21  46  64  94 140 167 220 282 324 393
#     4  12  24  42  70 102 124 184 226 260 346 404
#     4  12  24  46  66 100 140 174 230 274 338 402
#     4  10  25  41  68  99 130 181 218 278 328 400
#     4  10  24  46  65 100 138 177 215 288 333 386
#
# _framework density 21.390713000000002
#
# number of rings (size 3 to 8) (size 9 to 14) (size 15 to 20)
#    1.500    0.000    2.500    1.500    5.250    0.000 
#    6.750    0.000    0.000    0.000    0.000    0.000 
#    0.000    0.000    0.000    0.000    0.000    0.000 
#
# Total GULP energy -89201.884763 kJ/mol
# GULP energy per Si atom -5575.117798 kJ/mol
# Density = 2.134203 g / cm^3
# Si number density = 21.390713 Si / 1000 Ang^3
#
#
#
# Elastic Constant Matrix: (Units=GPa)
#
#
# Indices 1 2 3 4 5 6 
#
# 1 97.6303 35.7143 23.1409 0.0000 0.0000 0.0000
# 2 35.7143 72.7020 44.6242 0.0000 0.0000 0.0000
# 3 23.1409 44.6242 80.5551 0.0000 0.0000 0.0000
# 4 0.0000 0.0000 0.0000 38.7299 0.0000 0.0000
# 5 0.0000 0.0000 0.0000 0.0000 29.9969 0.0000
# 6 0.0000 0.0000 0.0000 0.0000 0.0000 -65.4289
#
#
#
# Elastic Compliance Matrix: (Units=1/GPa)
#
#
# Indices 1 2 3 4 5 6 
#
# 1 0.012491 -0.005960 -0.000287 0.000000 0.000000 0.000000
# 2 -0.005960 0.023685 -0.011408 0.000000 0.000000 0.000000
# 3 -0.000287 -0.011408 0.018816 0.000000 0.000000 0.000000
# 4 0.000000 0.000000 0.000000 0.025820 0.000000 0.000000
# 5 0.000000 0.000000 0.000000 0.000000 0.033337 0.000000
# 6 0.000000 0.000000 0.000000 0.000000 0.000000 -0.015284
#
#
# Mechanical properties :
#
#
# Convention : Reuss Voigt Hill
#
# Bulk Modulus (GPa) = 50.80852 50.87178 50.84015
# Shear Modulus (GPa) = 35.52759 10.48679 23.00719
#
# Velocity S-wave (km/s) = 4.07982 2.21656 3.28314
# Velocity P-wave (km/s) = 6.78214 5.51223 6.17989
#
# Compressibility (1/GPa) = 0.01968174
#
# Stress axis : x y z
#
# Youngs Moduli (GPa) = 80.05793 42.22061 53.14636
#
# Poissons Ratio (x) = 0.25164 0.01523
# Poissons Ratio (y) = 0.47716 0.60631
# Poissons Ratio (z) = 0.02294 0.48167
#
# Static dielectric constant tensor:
#      x y z
#    x 1.783260 0.000000 0.000000 
#    y 0.000000 1.787780 0.000000 
#    z 0.000000 0.000000 1.843470 
# 
# From -- ./inp_files/18295.got.cif
#   From: 2010.05.17/outbox.cif.g08.bks.cpg/sg20_10_cif.got.tgz:18295.got - 2010.06.03 22:52:26.
