data_PCOD9319640
_publ_section_title
;
Structure prediction by ZEFSAII (Michael W. Deem and Ramdas Pophale) SiO2 
 PCOD9319640
Probable space group: C 2 2 21
;
_chemical_formula_sum "Si O2"
_cell_formula_units_Z 52
_cell_length_a 17.856155
_cell_length_b 15.010332
_cell_length_c 7.129176
_cell_angle_alpha 90.000000
_cell_angle_beta 90.000000
_cell_angle_gamma 90.000000
_cell_volume 1910.810335
_symmetry_space_group_name_H-M "C 2 2 21"
_symmetry_group_IT_number 20
_symmetry_cell_setting 'orthorhombic'
loop_
_space_group_symop_operation_xyz
x,y,z
-x,-y,1/2+z
x,-y,-z
-x,y,1/2-z
1/2+x,1/2+y,z
1/2-x,1/2-y,1/2+z
1/2+x,1/2-y,-z
1/2-x,1/2+y,1/2-z
loop_
_atom_site_type_symbol
_atom_site_label
_atom_site_fract_x
_atom_site_fract_y
_atom_site_fract_z
Si Si1 0.437460 0.904263 0.100723
Si Si2 0.482593 0.395175 0.968235
Si Si3 0.819206 0.157946 0.095092
Si Si4 0.863856 0.818021 0.460338
Si Si5 0.661650 0.886476 0.841380
Si Si6 0.500000 0.883247 0.750000
Si Si7 0.287042 0.137331 0.929392
O O1 0.500000 0.891095 0.250000
O O2 0.357377 0.889631 0.196210
O O3 0.459531 0.838282 0.928615
O O4 0.443660 0.000000 0.000000
O O5 0.500000 0.374508 0.750000
O O6 0.396304 0.370132 0.001037
O O7 0.552406 0.350191 0.072722
O O8 0.489954 0.500000 0.000000
O O9 0.840058 0.168898 0.318881
O O10 0.743629 0.100157 0.063637
O O11 0.796307 0.257440 0.036282
O O12 0.855871 0.716738 0.392597
O O13 0.797174 0.876410 0.366277
O O14 0.576615 0.925797 0.846244
O O15 0.688382 0.905275 0.626561
#
# Coordination Sequence:
#
# PCOD9319640 Si02
#       7
#     8   8   8   8   8   4   8
#     4  11  23  39  59  85 121 159 204 255 308 367
#     4  10  22  37  57  83 117 159 200 248 303 366
#     4   9  19  37  57  85 116 150 198 249 303 364
#     4   9  19  36  59  85 119 151 195 249 304 365
#     4   9  19  35  57  86 118 147 192 249 304 358
#     4  10  22  38  60  90 118 156 202 250 306 366
#     4   9  20  36  59  87 116 154 196 249 306 368
#
# _framework density 27.213587
#
# number of rings (size 3 to 8) (size 9 to 14) (size 15 to 20)
#    0.000    2.462    0.769    0.000    6.462    2.462 
#    0.000    0.769    3.385    0.000    0.000    0.000 
#    0.000    0.000    0.000    0.000    0.000    0.000 
#
# Total GULP energy -145052.532308 kJ/mol
# GULP energy per Si atom -5578.943550 kJ/mol
# Density = 2.715165 g / cm^3
# Si number density = 27.213587 Si / 1000 Ang^3
#
#
#
# Elastic Constant Matrix: (Units=GPa)
#
#
# Indices 1 2 3 4 5 6 
#
# 1 347.8308 60.3545 62.4783 0.0000 0.0000 0.0000
# 2 60.3545 64.1147 4.4279 0.0000 0.0000 0.0000
# 3 62.4783 4.4279 90.9628 0.0000 0.0000 0.0000
# 4 0.0000 0.0000 0.0000 24.4027 0.0000 0.0000
# 5 0.0000 0.0000 0.0000 0.0000 48.6638 0.0000
# 6 0.0000 0.0000 0.0000 0.0000 0.0000 5.8188
#
#
#
# Elastic Compliance Matrix: (Units=1/GPa)
#
#
# Indices 1 2 3 4 5 6 
#
# 1 0.003945 -0.003538 -0.002537 0.000000 0.000000 0.000000
# 2 -0.003538 0.018823 0.001514 0.000000 0.000000 0.000000
# 3 -0.002537 0.001514 0.012662 0.000000 0.000000 0.000000
# 4 0.000000 0.000000 0.000000 0.040979 0.000000 0.000000
# 5 0.000000 0.000000 0.000000 0.000000 0.020549 0.000000
# 6 0.000000 0.000000 0.000000 0.000000 0.000000 0.171857
#
#
# Mechanical properties :
#
#
# Convention : Reuss Voigt Hill
#
# Bulk Modulus (GPa) = 38.01205 84.15884 61.08545
# Shear Modulus (GPa) = 17.43939 40.82022 29.12981
#
# Velocity S-wave (km/s) = 2.53422 3.87718 3.27527
# Velocity P-wave (km/s) = 4.74988 7.14393 6.06618
#
# Compressibility (1/GPa) = 0.02630745
#
# Stress axis : x y z
#
# Youngs Moduli (GPa) = 253.51118 53.12644 78.97352
#
# Poissons Ratio (x) = 0.18796 0.20037
# Poissons Ratio (y) = 0.89693 -0.11955
# Poissons Ratio (z) = 0.64320 -0.08043
#
# Static dielectric constant tensor:
#      x y z
#    x 2.212430 0.000000 0.000000 
#    y 0.000000 2.143860 0.000000 
#    z 0.000000 0.000000 2.338750 
# 
# From -- ./inp_files/8664.got.cif
#   From: 2010.05.17/outbox.cif.g08.bks.cpg/sg20_5_cif.got.tgz:8664.got - 2010.06.03 22:52:26.
