data_PCOD9319215
_publ_section_title
;
Structure prediction by ZEFSAII (Michael W. Deem and Ramdas Pophale) SiO2 
 PCOD9319215
Probable space group: C 2 2 21
;
_chemical_formula_sum "Si O2"
_cell_formula_units_Z 64
_cell_length_a 25.310177
_cell_length_b 5.345546
_cell_length_c 20.478703
_cell_angle_alpha 90.000000
_cell_angle_beta 90.000000
_cell_angle_gamma 90.000000
_cell_volume 2770.701252
_symmetry_space_group_name_H-M "C 2 2 21"
_symmetry_group_IT_number 20
_symmetry_cell_setting 'orthorhombic'
loop_
_space_group_symop_operation_xyz
x,y,z
-x,-y,1/2+z
x,-y,-z
-x,y,1/2-z
1/2+x,1/2+y,z
1/2-x,1/2-y,1/2+z
1/2+x,1/2-y,-z
1/2-x,1/2+y,1/2-z
loop_
_atom_site_type_symbol
_atom_site_label
_atom_site_fract_x
_atom_site_fract_y
_atom_site_fract_z
Si Si1 0.437926 0.069778 0.754217
Si Si2 0.257014 0.722780 0.636763
Si Si3 0.613868 0.596422 0.699691
Si Si4 0.796254 0.113195 0.269850
Si Si5 0.959871 0.746086 0.957125
Si Si6 0.641634 0.022450 0.849777
Si Si7 0.846603 0.877974 0.929114
Si Si8 0.923863 0.752560 0.544223
O O1 0.500000 0.088576 0.750000
O O2 0.417269 0.341959 0.779536
O O3 0.414303 0.962204 0.684878
O O4 0.420844 0.843033 0.801250
O O5 0.265605 0.444548 0.663833
O O6 0.208800 0.745188 0.587262
O O7 0.236827 0.847088 0.704999
O O8 0.314105 0.840092 0.619433
O O9 0.661219 0.601639 0.752987
O O10 0.642412 0.568145 0.630146
O O11 0.830354 0.351491 0.287592
O O12 0.901705 0.724596 0.926107
O O13 0.017330 0.767126 0.922727
O O14 0.965108 0.500000 0.000000
O O15 0.957170 0.000000 0.000000
O O16 0.622823 0.222960 0.903663
O O17 0.842285 0.000000 0.000000
O O18 0.921621 0.500000 0.500000
O O19 0.918116 0.000000 0.500000
#
# Coordination Sequence:
#
# PCOD9319215 Si02
#       8
#     8   8   8   8   8   8   8   8
#     4  11  24  43  67 106 135 175 229 284 347 408
#     4  11  21  42  68  92 134 179 231 281 344 410
#     4  10  23  42  69  96 141 175 219 289 343 406
#     4  10  21  40  65  95 125 179 229 270 344 408
#     4   9  20  44  67  92 132 177 226 272 335 411
#     4  11  24  41  69  95 138 176 231 284 343 416
#     4  10  24  44  66 103 135 180 236 287 345 413
#     4  10  24  44  68  99 134 181 224 277 347 417
#
# _framework density 23.098842999999999
#
# number of rings (size 3 to 8) (size 9 to 14) (size 15 to 20)
#    0.000    1.750    2.500    0.375    3.500    2.500 
#   11.250    0.000    0.000    0.000    0.000    0.000 
#    0.000    0.000    0.000    0.000    0.000    0.000 
#
# Total GULP energy -178288.435198 kJ/mol
# GULP energy per Si atom -5571.513600 kJ/mol
# Density = 2.304627 g / cm^3
# Si number density = 23.098843 Si / 1000 Ang^3
#
#
#
# Elastic Constant Matrix: (Units=GPa)
#
#
# Indices 1 2 3 4 5 6 
#
# 1 115.2352 22.7223 13.8413 0.0000 0.0000 0.0000
# 2 22.7223 101.6616 3.5983 0.0000 0.0000 0.0000
# 3 13.8413 3.5983 39.3047 0.0000 0.0000 0.0000
# 4 0.0000 0.0000 0.0000 18.0162 0.0000 0.0000
# 5 0.0000 0.0000 0.0000 0.0000 28.0328 0.0000
# 6 0.0000 0.0000 0.0000 0.0000 0.0000 29.0929
#
#
#
# Elastic Compliance Matrix: (Units=1/GPa)
#
#
# Indices 1 2 3 4 5 6 
#
# 1 0.009450 -0.002001 -0.003145 0.000000 0.000000 0.000000
# 2 -0.002001 0.010292 -0.000238 0.000000 0.000000 0.000000
# 3 -0.003145 -0.000238 0.026571 0.000000 0.000000 0.000000
# 4 0.000000 0.000000 0.000000 0.055506 0.000000 0.000000
# 5 0.000000 0.000000 0.000000 0.000000 0.035672 0.000000
# 6 0.000000 0.000000 0.000000 0.000000 0.000000 0.034373
#
#
# Mechanical properties :
#
#
# Convention : Reuss Voigt Hill
#
# Bulk Modulus (GPa) = 28.13153 37.39170 32.76161
# Shear Modulus (GPa) = 25.70957 29.43103 27.57030
#
# Velocity S-wave (km/s) = 3.33982 3.57337 3.45857
# Velocity P-wave (km/s) = 5.20363 5.76612 5.49208
#
# Compressibility (1/GPa) = 0.03554730
#
# Stress axis : x y z
#
# Youngs Moduli (GPa) = 105.81823 97.16114 37.63442
#
# Poissons Ratio (x) = 0.19441 0.11835
# Poissons Ratio (y) = 0.21173 0.00894
# Poissons Ratio (z) = 0.33277 0.02309
#
# Static dielectric constant tensor:
#      x y z
#    x 1.981650 0.000000 0.000000 
#    y 0.000000 1.912490 0.000000 
#    z 0.000000 0.000000 1.922470 
# 
# From -- ./inp_files/28097.got.cif
#   From: 2010.05.17/outbox.cif.g08.bks.cpg/sg20_15_cif.got.tgz:28097.got - 2010.06.03 22:52:26.
