data_PCOD9319817
_publ_section_title
;
Structure prediction by ZEFSAII (Michael W. Deem and Ramdas Pophale) SiO2 
 PCOD9319817
Probable space group: C 2 2 21
;
_chemical_formula_sum "Si O2"
_cell_formula_units_Z 60
_cell_length_a 20.506934
_cell_length_b 9.867060
_cell_length_c 11.814915
_cell_angle_alpha 90.000000
_cell_angle_beta 90.000000
_cell_angle_gamma 90.000000
_cell_volume 2390.667097
_symmetry_space_group_name_H-M "C 2 2 21"
_symmetry_group_IT_number 20
_symmetry_cell_setting 'orthorhombic'
loop_
_space_group_symop_operation_xyz
x,y,z
-x,-y,1/2+z
x,-y,-z
-x,y,1/2-z
1/2+x,1/2+y,z
1/2-x,1/2-y,1/2+z
1/2+x,1/2-y,-z
1/2-x,1/2+y,1/2-z
loop_
_atom_site_type_symbol
_atom_site_label
_atom_site_fract_x
_atom_site_fract_y
_atom_site_fract_z
Si Si1 0.627579 0.336441 0.099845
Si Si2 0.404919 0.331812 0.059144
Si Si3 0.251771 0.935998 0.238210
Si Si4 0.575792 0.028549 0.121850
Si Si5 0.112193 0.462372 0.632767
Si Si6 0.021356 0.000000 0.000000
Si Si7 0.839879 0.730599 0.634649
Si Si8 0.848440 0.102266 0.157946
O O1 0.689601 0.387361 0.168068
O O2 0.598417 0.185918 0.123160
O O3 0.569099 0.446330 0.098485
O O4 0.654330 0.324916 0.971919
O O5 0.401421 0.198035 0.129713
O O6 0.472515 0.370453 0.994993
O O7 0.387584 0.463437 0.133450
O O8 0.352485 0.319201 0.959268
O O9 0.269815 0.811358 0.319401
O O10 0.315432 0.985037 0.169200
O O11 0.224643 0.058265 0.313603
O O12 0.566668 0.996193 0.258982
O O13 0.630595 0.914144 0.102845
O O14 0.536865 0.000000 0.000000
O O15 0.103019 0.500000 0.500000
O O16 0.873497 0.805055 0.740753
#
# Coordination Sequence:
#
# PCOD9319817 Si02
#       8
#     8   8   8   8   8   4   8   8
#     4  11  23  42  68 102 144 194 261 319 397 467
#     4  10  24  48  71  95 144 209 266 326 389 473
#     4  11  25  37  62 103 150 188 240 321 400 487
#     4   9  21  43  66  99 153 199 255 310 386 486
#     4  11  24  44  70 109 154 202 260 323 408 489
#     4  10  24  48  74 104 142 196 280 324 372 462
#     4  10  23  40  62 100 149 193 241 309 394 484
#     4  10  22  40  62  98 139 190 255 305 391 460
#
# _framework density 25.097597
#
# number of rings (size 3 to 8) (size 9 to 14) (size 15 to 20)
#    0.000    1.867    0.000    3.200    8.400    2.133 
#    9.600   18.667    0.000   11.200    0.000    0.000 
#    0.000    0.000    0.000    0.000    0.000    0.000 
#
# Total GULP energy -167121.516613 kJ/mol
# GULP energy per Si atom -5570.717220 kJ/mol
# Density = 2.504047 g / cm^3
# Si number density = 25.097597 Si / 1000 Ang^3
#
#
#
# Elastic Constant Matrix: (Units=GPa)
#
#
# Indices 1 2 3 4 5 6 
#
# 1 118.5642 27.6309 43.3325 0.0000 0.0000 0.0000
# 2 27.6309 75.0224 27.8551 0.0000 0.0000 0.0000
# 3 43.3325 27.8551 196.2227 0.0000 0.0000 0.0000
# 4 0.0000 0.0000 0.0000 48.1197 0.0000 0.0000
# 5 0.0000 0.0000 0.0000 0.0000 -135.1004 0.0000
# 6 0.0000 0.0000 0.0000 0.0000 0.0000 -127.4273
#
#
#
# Elastic Compliance Matrix: (Units=1/GPa)
#
#
# Indices 1 2 3 4 5 6 
#
# 1 0.009756 -0.002949 -0.001736 0.000000 0.000000 0.000000
# 2 -0.002949 0.014962 -0.001473 0.000000 0.000000 0.000000
# 3 -0.001736 -0.001473 0.005689 0.000000 0.000000 0.000000
# 4 0.000000 0.000000 0.000000 0.020782 0.000000 0.000000
# 5 0.000000 0.000000 0.000000 0.000000 -0.007402 0.000000
# 6 0.000000 0.000000 0.000000 0.000000 0.000000 -0.007848
#
#
# Mechanical properties :
#
#
# Convention : Reuss Voigt Hill
#
# Bulk Modulus (GPa) = 55.27264 65.27182 60.27223
# Shear Modulus (GPa) = 92.10834 -23.48223 34.31306
#
# Velocity S-wave (km/s) = 6.06463 -3.06214 3.70156
# Velocity P-wave (km/s) = 8.43271 3.68258 6.50661
#
# Compressibility (1/GPa) = 0.01809214
#
# Stress axis : x y z
#
# Youngs Moduli (GPa) = 102.50299 66.83517 175.78836
#
# Poissons Ratio (x) = 0.19707 0.30514
# Poissons Ratio (y) = 0.30224 0.25891
# Poissons Ratio (z) = 0.17793 0.09844
#
# Static dielectric constant tensor:
#      x y z
#    x 2.012960 0.000000 0.000000 
#    y 0.000000 2.002010 0.000000 
#    z 0.000000 0.000000 2.132430 
# 
# From -- ./inp_files/16370.got.cif
#   From: 2010.05.17/outbox.cif.g08.bks.cpg/sg20_9_cif.got.tgz:16370.got - 2010.06.03 22:52:26.
