data_PCOD9319519
_publ_section_title
;
Structure prediction by ZEFSAII (Michael W. Deem and Ramdas Pophale) SiO2 
 PCOD9319519
Probable space group: C 2 2 21
;
_chemical_formula_sum "Si O2"
_cell_formula_units_Z 56
_cell_length_a 14.272917
_cell_length_b 11.529911
_cell_length_c 13.554614
_cell_angle_alpha 90.000000
_cell_angle_beta 90.000000
_cell_angle_gamma 90.000000
_cell_volume 2230.621325
_symmetry_space_group_name_H-M "C 2 2 21"
_symmetry_group_IT_number 20
_symmetry_cell_setting 'orthorhombic'
loop_
_space_group_symop_operation_xyz
x,y,z
-x,-y,1/2+z
x,-y,-z
-x,y,1/2-z
1/2+x,1/2+y,z
1/2-x,1/2-y,1/2+z
1/2+x,1/2-y,-z
1/2-x,1/2+y,1/2-z
loop_
_atom_site_type_symbol
_atom_site_label
_atom_site_fract_x
_atom_site_fract_y
_atom_site_fract_z
Si Si1 0.901399 0.873268 0.543200
Si Si2 0.402948 0.498389 0.735835
Si Si3 0.998210 0.342301 0.538208
Si Si4 0.893070 0.481802 0.361480
Si Si5 0.765422 0.664943 0.773186
Si Si6 0.801010 0.729790 0.072483
Si Si7 0.298399 0.615321 0.094149
O O1 0.919696 0.892240 0.659935
O O2 0.967153 0.788852 0.480650
O O3 0.796452 0.824167 0.537130
O O4 0.909468 0.000000 0.500000
O O5 0.500000 0.565781 0.750000
O O6 0.313735 0.571263 0.697964
O O7 0.374738 0.449457 0.841924
O O8 0.946488 0.401993 0.442893
O O9 0.960021 0.405833 0.636268
O O10 0.109832 0.347772 0.546094
O O11 0.856595 0.402776 0.271032
O O12 0.796832 0.543551 0.395054
O O13 0.716509 0.740052 0.686270
O O14 0.790049 0.757433 0.855739
O O15 0.816573 0.852681 0.018020
#
# Coordination Sequence:
#
# PCOD9319519 Si02
#       7
#     8   8   8   8   8   8   8
#     4  12  25  45  68 102 148 180 233 311 355 424
#     4  11  25  42  68 103 138 175 236 295 355 420
#     4  11  23  43  69 105 135 192 241 288 356 437
#     4  10  21  44  68  94 142 183 233 293 345 432
#     4  11  24  45  71 100 142 187 235 294 362 420
#     4  12  24  43  74  99 140 188 245 288 367 436
#     4  11  22  45  74  98 136 193 229 299 362 419
#
# _framework density 25.105111999999998
#
# number of rings (size 3 to 8) (size 9 to 14) (size 15 to 20)
#    0.000    0.857    4.286    2.571    4.000    1.714 
#    0.000    1.429    0.000    0.000    0.000    0.000 
#    0.000    0.000    0.000    0.000    0.000    0.000 
#
# Total GULP energy -156630.367715 kJ/mol
# GULP energy per Si atom -5593.941704 kJ/mol
# Density = 2.504797 g / cm^3
# Si number density = 25.105112 Si / 1000 Ang^3
#
#
#
# Elastic Constant Matrix: (Units=GPa)
#
#
# Indices 1 2 3 4 5 6 
#
# 1 100.0968 -4.6943 2.6730 0.0000 0.0000 0.0000
# 2 -4.6943 84.6103 13.9929 0.0000 0.0000 0.0000
# 3 2.6730 13.9929 80.4760 0.0000 0.0000 0.0000
# 4 0.0000 0.0000 0.0000 45.5162 0.0000 0.0000
# 5 0.0000 0.0000 0.0000 0.0000 20.8107 0.0000
# 6 0.0000 0.0000 0.0000 0.0000 0.0000 16.4829
#
#
#
# Elastic Compliance Matrix: (Units=1/GPa)
#
#
# Indices 1 2 3 4 5 6 
#
# 1 0.010032 0.000630 -0.000443 0.000000 0.000000 0.000000
# 2 0.000630 0.012208 -0.002144 0.000000 0.000000 0.000000
# 3 -0.000443 -0.002144 0.012814 0.000000 0.000000 0.000000
# 4 0.000000 0.000000 0.000000 0.021970 0.000000 0.000000
# 5 0.000000 0.000000 0.000000 0.000000 0.048052 0.000000
# 6 0.000000 0.000000 0.000000 0.000000 0.000000 0.060669
#
#
# Mechanical properties :
#
#
# Convention : Reuss Voigt Hill
#
# Bulk Modulus (GPa) = 32.11267 32.12516 32.11891
# Shear Modulus (GPa) = 27.77190 33.44273 30.60732
#
# Velocity S-wave (km/s) = 3.32960 3.65377 3.49544
# Velocity P-wave (km/s) = 5.25364 5.53390 5.39559
#
# Compressibility (1/GPa) = 0.03114036
#
# Stress axis : x y z
#
# Youngs Moduli (GPa) = 99.68417 81.91115 78.04262
#
# Poissons Ratio (x) = -0.05159 0.03455
# Poissons Ratio (y) = -0.06278 0.16730
# Poissons Ratio (z) = 0.04413 0.17559
#
# Static dielectric constant tensor:
#      x y z
#    x 1.971910 0.000000 0.000000 
#    y 0.000000 2.037410 0.000000 
#    z 0.000000 0.000000 2.043880 
# 
# From -- ./inp_files/20750.got.cif
#   From: 2010.05.17/outbox.cif.g08.bks.cpg/sg20_11_cif.got.tgz:20750.got - 2010.06.03 22:52:26.
