data_PCOD9319427
_publ_section_title
;
Structure prediction by ZEFSAII (Michael W. Deem and Ramdas Pophale) SiO2 
 PCOD9319427
Probable space group: C 2 2 21
;
_chemical_formula_sum "Si O2"
_cell_formula_units_Z 64
_cell_length_a 29.465070
_cell_length_b 11.816514
_cell_length_c 7.798711
_cell_angle_alpha 90.000000
_cell_angle_beta 90.000000
_cell_angle_gamma 90.000000
_cell_volume 2715.311618
_symmetry_space_group_name_H-M "C 2 2 21"
_symmetry_group_IT_number 20
_symmetry_cell_setting 'orthorhombic'
loop_
_space_group_symop_operation_xyz
x,y,z
-x,-y,1/2+z
x,-y,-z
-x,y,1/2-z
1/2+x,1/2+y,z
1/2-x,1/2-y,1/2+z
1/2+x,1/2-y,-z
1/2-x,1/2+y,1/2-z
loop_
_atom_site_type_symbol
_atom_site_label
_atom_site_fract_x
_atom_site_fract_y
_atom_site_fract_z
Si Si1 0.201246 0.855158 0.393588
Si Si2 0.549652 0.082593 0.169127
Si Si3 0.050760 0.150220 0.831377
Si Si4 0.359450 0.007683 0.707955
Si Si5 0.554245 0.406874 0.768926
Si Si6 0.629656 0.258265 0.653477
Si Si7 0.272025 0.146854 0.298135
Si Si8 0.815713 0.936049 0.664671
O O1 0.159905 0.793353 0.490811
O O2 0.244976 0.863782 0.521110
O O3 0.214482 0.775658 0.234819
O O4 0.186037 0.974768 0.319631
O O5 0.500000 0.074136 0.250000
O O6 0.562452 0.216201 0.161008
O O7 0.592636 0.038553 0.275888
O O8 0.547151 0.000000 0.000000
O O9 0.000000 0.151252 0.750000
O O10 0.071309 0.036931 0.737052
O O11 0.057856 0.119712 0.029999
O O12 0.359259 0.132038 0.788172
O O13 0.362534 0.000000 0.500000
O O14 0.314663 0.933784 0.736010
O O15 0.500000 0.404865 0.750000
O O16 0.578679 0.309584 0.654236
O O17 0.651026 0.334778 0.802159
O O18 0.234764 0.112711 0.157145
O O19 0.830507 0.000000 0.500000
#
# Coordination Sequence:
#
# PCOD9319427 Si02
#       8
#     8   8   8   8   8   8   8   8
#     4  11  26  49  71 109 138 195 233 307 373 443
#     4  10  22  44  66  97 139 183 238 289 360 426
#     4   9  20  40  66 100 132 179 246 298 363 441
#     4  11  25  41  70 102 138 192 235 296 361 431
#     4  10  21  42  68 100 141 186 234 305 372 431
#     4  11  26  45  66 102 148 183 247 293 369 448
#     4  11  25  44  73  98 145 174 244 289 362 443
#     4  11  26  45  73 100 134 185 229 299 372 439
#
# _framework density 23.570039999999999
#
# number of rings (size 3 to 8) (size 9 to 14) (size 15 to 20)
#    0.000    1.500    0.000    4.500   12.250    3.000 
#   15.750    0.000    0.000    0.000    0.000    0.000 
#    0.000    0.000    0.000    0.000    0.000    0.000 
#
# Total GULP energy -178522.535832 kJ/mol
# GULP energy per Si atom -5578.829245 kJ/mol
# Density = 2.351639 g / cm^3
# Si number density = 23.570040 Si / 1000 Ang^3
#
#
#
# Elastic Constant Matrix: (Units=GPa)
#
#
# Indices 1 2 3 4 5 6 
#
# 1 123.1274 44.8052 15.6242 0.0000 0.0000 0.0000
# 2 44.8052 157.2453 14.3895 0.0000 0.0000 0.0000
# 3 15.6242 14.3895 47.3216 0.0000 0.0000 0.0000
# 4 0.0000 0.0000 0.0000 33.4605 0.0000 0.0000
# 5 0.0000 0.0000 0.0000 0.0000 -22.8219 0.0000
# 6 0.0000 0.0000 0.0000 0.0000 0.0000 38.5229
#
#
#
# Elastic Compliance Matrix: (Units=1/GPa)
#
#
# Indices 1 2 3 4 5 6 
#
# 1 0.009305 -0.002438 -0.002331 0.000000 0.000000 0.000000
# 2 -0.002438 0.007180 -0.001378 0.000000 0.000000 0.000000
# 3 -0.002331 -0.001378 0.022321 0.000000 0.000000 0.000000
# 4 0.000000 0.000000 0.000000 0.029886 0.000000 0.000000
# 5 0.000000 0.000000 0.000000 0.000000 -0.043818 0.000000
# 6 0.000000 0.000000 0.000000 0.000000 0.000000 0.025959
#
#
# Mechanical properties :
#
#
# Convention : Reuss Voigt Hill
#
# Bulk Modulus (GPa) = 37.71979 53.03691 45.37835
# Shear Modulus (GPa) = 69.47913 26.69065 48.08489
#
# Velocity S-wave (km/s) = 5.43523 3.36876 4.52163
# Velocity P-wave (km/s) = 7.44493 6.13857 6.82309
#
# Compressibility (1/GPa) = 0.02651129
#
# Stress axis : x y z
#
# Youngs Moduli (GPa) = 107.47397 139.27009 44.80142
#
# Poissons Ratio (x) = 0.33953 0.10442
# Poissons Ratio (y) = 0.26202 0.06176
# Poissons Ratio (z) = 0.25050 0.19198
#
# Static dielectric constant tensor:
#      x y z
#    x 2.015780 0.000000 0.000000 
#    y 0.000000 1.968950 0.000000 
#    z 0.000000 0.000000 1.920800 
# 
# From -- ./inp_files/11599.got.cif
#   From: 2010.05.17/outbox.cif.g08.bks.cpg/sg20_6_cif.got.tgz:11599.got - 2010.06.03 22:52:26.
