data_PCOD9319485
_publ_section_title
;
Structure prediction by ZEFSAII (Michael W. Deem and Ramdas Pophale) SiO2 
 PCOD9319485
Probable space group: C 2 2 21
;
_chemical_formula_sum "Si O2"
_cell_formula_units_Z 60
_cell_length_a 8.092333
_cell_length_b 15.702161
_cell_length_c 21.746967
_cell_angle_alpha 90.000000
_cell_angle_beta 90.000000
_cell_angle_gamma 90.000000
_cell_volume 2763.324370
_symmetry_space_group_name_H-M "C 2 2 21"
_symmetry_group_IT_number 20
_symmetry_cell_setting 'orthorhombic'
loop_
_space_group_symop_operation_xyz
x,y,z
-x,-y,1/2+z
x,-y,-z
-x,y,1/2-z
1/2+x,1/2+y,z
1/2-x,1/2-y,1/2+z
1/2+x,1/2-y,-z
1/2-x,1/2+y,1/2-z
loop_
_atom_site_type_symbol
_atom_site_label
_atom_site_fract_x
_atom_site_fract_y
_atom_site_fract_z
Si Si1 0.125527 0.899369 0.491299
Si Si2 0.634613 0.859814 0.917997
Si Si3 0.592364 0.332407 0.196359
Si Si4 0.843749 0.236782 0.900263
Si Si5 0.237322 0.153680 0.288632
Si Si6 0.627028 0.618691 0.157690
Si Si7 0.964260 0.500000 0.000000
Si Si8 0.686500 0.442524 0.087448
O O1 0.180616 0.851488 0.553657
O O2 0.220657 0.842070 0.440532
O O3 0.944677 0.902967 0.460658
O O4 0.154800 0.000000 0.500000
O O5 0.503354 0.784780 0.929960
O O6 0.648025 0.878322 0.845295
O O7 0.563039 0.936290 0.957267
O O8 0.500000 0.384438 0.250000
O O9 0.431580 0.299624 0.159892
O O10 0.699861 0.251416 0.217907
O O11 0.697108 0.384410 0.147476
O O12 0.708954 0.306293 0.882282
O O13 0.235976 0.110963 0.221158
O O14 0.052817 0.143440 0.316062
O O15 0.628809 0.534060 0.115314
O O16 0.849708 0.549133 0.951779
#
# Coordination Sequence:
#
# PCOD9319485 Si02
#       8
#     8   8   8   8   8   8   4   8
#     4  11  23  42  64  96 137 172 222 277 331 410
#     4  11  24  41  65  98 131 179 219 281 346 398
#     4  10  21  43  67  93 131 165 217 276 334 394
#     4  10  23  41  69  95 127 180 215 271 339 394
#     4  10  24  41  68  95 132 171 228 274 338 411
#     4  11  22  44  68  99 130 175 228 280 331 417
#     4  12  24  42  64  94 142 168 226 278 338 412
#     4  11  25  41  67  96 129 181 221 278 342 402
#
# _framework density 21.712978
#
# number of rings (size 3 to 8) (size 9 to 14) (size 15 to 20)
#    0.000    1.333    4.000    0.800    1.867    6.400 
#    0.000    0.000    2.933    0.000    0.000    0.000 
#    0.000    0.000    0.000    0.000    0.000    0.000 
#
# Total GULP energy -167105.196776 kJ/mol
# GULP energy per Si atom -5570.173226 kJ/mol
# Density = 2.166356 g / cm^3
# Si number density = 21.712978 Si / 1000 Ang^3
#
#
#
# Elastic Constant Matrix: (Units=GPa)
#
#
# Indices 1 2 3 4 5 6 
#
# 1 45.9359 16.2978 41.3039 0.0000 0.0000 0.0000
# 2 16.2978 54.7809 41.8144 0.0000 0.0000 0.0000
# 3 41.3039 41.8144 92.7790 0.0000 0.0000 0.0000
# 4 0.0000 0.0000 0.0000 39.0184 0.0000 0.0000
# 5 0.0000 0.0000 0.0000 0.0000 30.9836 0.0000
# 6 0.0000 0.0000 0.0000 0.0000 0.0000 5.2143
#
#
#
# Elastic Compliance Matrix: (Units=1/GPa)
#
#
# Indices 1 2 3 4 5 6 
#
# 1 0.036498 0.002354 -0.017309 0.000000 0.000000 0.000000
# 2 0.002354 0.027979 -0.013658 0.000000 0.000000 0.000000
# 3 -0.017309 -0.013658 0.024640 0.000000 0.000000 0.000000
# 4 0.000000 0.000000 0.000000 0.025629 0.000000 0.000000
# 5 0.000000 0.000000 0.000000 0.000000 0.032275 0.000000
# 6 0.000000 0.000000 0.000000 0.000000 0.000000 0.191779
#
#
# Mechanical properties :
#
#
# Convention : Reuss Voigt Hill
#
# Bulk Modulus (GPa) = 31.35746 43.59200 37.47473
# Shear Modulus (GPa) = 12.29537 21.31526 16.80532
#
# Velocity S-wave (km/s) = 2.38222 3.13658 2.78506
# Velocity P-wave (km/s) = 4.69466 5.76520 5.25725
#
# Compressibility (1/GPa) = 0.03189034
#
# Stress axis : x y z
#
# Youngs Moduli (GPa) = 27.39860 35.74072 40.58524
#
# Poissons Ratio (x) = -0.08412 0.70250
# Poissons Ratio (y) = -0.06449 0.55430
# Poissons Ratio (z) = 0.47425 0.48814
#
# Static dielectric constant tensor:
#      x y z
#    x 1.888410 0.000000 0.000000 
#    y 0.000000 1.848280 0.000000 
#    z 0.000000 0.000000 1.865610 
# 
# From -- ./inp_files/23762.got.cif
#   From: 2010.05.17/outbox.cif.g08.bks.cpg/sg20_12_cif.got.tgz:23762.got - 2010.06.03 22:52:26.
