data_PCOD9319191
_publ_section_title
;
Structure prediction by ZEFSAII (Michael W. Deem and Ramdas Pophale) SiO2 
 PCOD9319191
Probable space group: C 2 2 21
;
_chemical_formula_sum "Si O2"
_cell_formula_units_Z 48
_cell_length_a 13.374263
_cell_length_b 19.156787
_cell_length_c 9.253712
_cell_angle_alpha 90.000000
_cell_angle_beta 90.000000
_cell_angle_gamma 90.000000
_cell_volume 2370.874189
_symmetry_space_group_name_H-M "C 2 2 21"
_symmetry_group_IT_number 20
_symmetry_cell_setting 'orthorhombic'
loop_
_space_group_symop_operation_xyz
x,y,z
-x,-y,1/2+z
x,-y,-z
-x,y,1/2-z
1/2+x,1/2+y,z
1/2-x,1/2-y,1/2+z
1/2+x,1/2-y,-z
1/2-x,1/2+y,1/2-z
loop_
_atom_site_type_symbol
_atom_site_label
_atom_site_fract_x
_atom_site_fract_y
_atom_site_fract_z
Si Si1 0.251923 0.420285 0.512081
Si Si2 0.653585 0.278190 0.500186
Si Si3 0.986574 0.572699 0.076188
Si Si4 0.440259 0.773103 0.499782
Si Si5 0.284761 0.697559 0.306541
Si Si6 0.890633 0.849971 0.276944
O O1 0.281739 0.500000 0.500000
O O2 0.130949 0.420379 0.529745
O O3 0.304359 0.381619 0.648036
O O4 0.303896 0.383130 0.374496
O O5 0.544550 0.259163 0.555474
O O6 0.721286 0.292581 0.637427
O O7 0.687517 0.214070 0.401090
O O8 0.650626 0.339029 0.383566
O O9 0.000000 0.566265 0.250000
O O10 0.043427 0.644892 0.031197
O O11 0.021932 0.500000 0.000000
O O12 0.360254 0.753086 0.377878
O O13 0.416771 0.723487 0.639495
O O14 0.000000 0.884243 0.250000
#
# Coordination Sequence:
#
# PCOD9319191 Si02
#       6
#     8   8   8   8   8   8
#     4  10  22  43  65  91 133 175 210 264 333 391
#     4  11  21  36  59  94 122 150 214 262 322 378
#     4  11  24  42  63  91 138 180 219 267 327 397
#     4  10  21  40  64  90 126 162 216 270 322 385
#     4  11  22  36  63  92 120 165 206 273 314 381
#     4   9  20  41  68  93 123 165 212 273 329 381
#
# _framework density 20.245695999999999
#
# number of rings (size 3 to 8) (size 9 to 14) (size 15 to 20)
#    0.000    1.667    1.667    4.000    2.333    1.333 
#    3.000    5.833    0.000    0.000    0.000    0.000 
#    0.000    0.000    0.000    0.000    0.000    0.000 
#
# Total GULP energy -133651.626475 kJ/mol
# GULP energy per Si atom -5568.817770 kJ/mol
# Density = 2.019962 g / cm^3
# Si number density = 20.245696 Si / 1000 Ang^3
#
#
#
# Elastic Constant Matrix: (Units=GPa)
#
#
# Indices 1 2 3 4 5 6 
#
# 1 71.1930 18.7795 15.1988 0.0000 0.0000 0.0000
# 2 18.7795 127.9477 33.5624 0.0000 0.0000 0.0000
# 3 15.1988 33.5624 118.0970 0.0000 0.0000 0.0000
# 4 0.0000 0.0000 0.0000 -0.1028 0.0000 0.0000
# 5 0.0000 0.0000 0.0000 0.0000 29.1063 0.0000
# 6 0.0000 0.0000 0.0000 0.0000 0.0000 17.6295
#
#
#
# Elastic Compliance Matrix: (Units=1/GPa)
#
#
# Indices 1 2 3 4 5 6 
#
# 1 0.014821 -0.001810 -0.001393 0.000000 0.000000 0.000000
# 2 -0.001810 0.008666 -0.002230 0.000000 0.000000 0.000000
# 3 -0.001393 -0.002230 0.009281 0.000000 0.000000 0.000000
# 4 0.000000 0.000000 0.000000 -9.727624 0.000000 0.000000
# 5 0.000000 0.000000 0.000000 0.000000 0.034357 0.000000
# 6 0.000000 0.000000 0.000000 0.000000 0.000000 0.056723
#
#
# Mechanical properties :
#
#
# Convention : Reuss Voigt Hill
#
# Bulk Modulus (GPa) = 45.65770 50.25770 47.95770
# Shear Modulus (GPa) = -0.52162 25.97308 12.72573
#
# Velocity S-wave (km/s) = -0.50814 3.58564 2.50984
# Velocity P-wave (km/s) = 4.71768 6.48230 5.66907
#
# Compressibility (1/GPa) = 0.02190211
#
# Stress axis : x y z
#
# Youngs Moduli (GPa) = 67.47105 115.38952 107.75119
#
# Poissons Ratio (x) = 0.20885 0.15011
# Poissons Ratio (y) = 0.12212 0.24028
# Poissons Ratio (z) = 0.09399 0.25731
#
# Static dielectric constant tensor:
#      x y z
#    x 1.831310 0.000000 0.000000 
#    y 0.000000 1.787270 0.000000 
#    z 0.000000 0.000000 1.726260 
# 
# From -- ./inp_files/8433.got.cif
#   From: 2010.05.17/outbox.cif.g08.bks.cpg/sg20_5_cif.got.tgz:8433.got - 2010.06.03 22:52:26.
