data_PCOD9319209
_publ_section_title
;
Structure prediction by ZEFSAII (Michael W. Deem and Ramdas Pophale) SiO2 
 PCOD9319209
Probable space group: C 2 2 21
;
_chemical_formula_sum "Si O2"
_cell_formula_units_Z 52
_cell_length_a 13.086454
_cell_length_b 5.587906
_cell_length_c 28.191772
_cell_angle_alpha 90.000000
_cell_angle_beta 90.000000
_cell_angle_gamma 90.000000
_cell_volume 2061.547990
_symmetry_space_group_name_H-M "C 2 2 21"
_symmetry_group_IT_number 20
_symmetry_cell_setting 'orthorhombic'
loop_
_space_group_symop_operation_xyz
x,y,z
-x,-y,1/2+z
x,-y,-z
-x,y,1/2-z
1/2+x,1/2+y,z
1/2-x,1/2-y,1/2+z
1/2+x,1/2-y,-z
1/2-x,1/2+y,1/2-z
loop_
_atom_site_type_symbol
_atom_site_label
_atom_site_fract_x
_atom_site_fract_y
_atom_site_fract_z
Si Si1 0.661578 0.025107 0.273706
Si Si2 0.890437 0.527745 0.334698
Si Si3 0.665058 0.521084 0.125816
Si Si4 0.001761 0.753371 0.416398
Si Si5 0.624267 0.000000 0.000000
Si Si6 0.206812 0.658414 0.455968
Si Si7 0.113615 0.028158 0.272693
O O1 0.603540 0.017601 0.222242
O O2 0.830890 0.777788 0.343822
O O3 0.782935 0.032945 0.260405
O O4 0.625260 0.781822 0.298440
O O5 0.983567 0.575913 0.371369
O O6 0.836834 0.280898 0.350357
O O7 0.128774 0.773251 0.297723
O O8 0.556166 0.491703 0.099730
O O9 0.751353 0.498638 0.086612
O O10 0.941662 0.636755 0.460620
O O11 0.114494 0.804065 0.433691
O O12 0.699257 0.182571 0.973255
O O13 0.171206 0.500000 0.500000
O O14 0.000000 0.022664 0.250000
#
# Coordination Sequence:
#
# PCOD9319209 Si02
#       7
#     8   8   8   8   4   8   8
#     4  10  21  40  65  92 129 163 204 248 307 360
#     4  10  21  44  61  87 131 162 194 264 305 363
#     4  10  22  42  58  86 127 150 207 253 305 364
#     4  10  24  39  60  86 123 157 203 264 307 363
#     4  12  22  40  58  88 118 158 212 262 306 368
#     4  12  22  38  63  86 112 166 204 256 318 365
#     4  10  21  40  65  97 126 163 206 251 295 367
#
# _framework density 25.223765
#
# number of rings (size 3 to 8) (size 9 to 14) (size 15 to 20)
#    0.923    0.615    3.846    1.385    0.000    2.462 
#    5.538    0.000    0.000    0.000    0.000    0.000 
#    0.000    0.000    0.000    0.000    0.000    0.000 
#
# Total GULP energy -145212.771517 kJ/mol
# GULP energy per Si atom -5585.106597 kJ/mol
# Density = 2.516635 g / cm^3
# Si number density = 25.223765 Si / 1000 Ang^3
#
#
#
# Elastic Constant Matrix: (Units=GPa)
#
#
# Indices 1 2 3 4 5 6 
#
# 1 119.0102 37.2149 31.5464 0.0000 0.0000 0.0000
# 2 37.2149 171.1689 33.2671 0.0000 0.0000 0.0000
# 3 31.5464 33.2671 111.5007 0.0000 0.0000 0.0000
# 4 0.0000 0.0000 0.0000 17.5870 0.0000 0.0000
# 5 0.0000 0.0000 0.0000 0.0000 -55.1949 0.0000
# 6 0.0000 0.0000 0.0000 0.0000 0.0000 31.1094
#
#
#
# Elastic Compliance Matrix: (Units=1/GPa)
#
#
# Indices 1 2 3 4 5 6 
#
# 1 0.009497 -0.001638 -0.002198 0.000000 0.000000 0.000000
# 2 -0.001638 0.006484 -0.001471 0.000000 0.000000 0.000000
# 3 -0.002198 -0.001471 0.010030 0.000000 0.000000 0.000000
# 4 0.000000 0.000000 0.000000 0.056860 0.000000 0.000000
# 5 0.000000 0.000000 0.000000 0.000000 -0.018118 0.000000
# 6 0.000000 0.000000 0.000000 0.000000 0.000000 0.032145
#
#
# Mechanical properties :
#
#
# Convention : Reuss Voigt Hill
#
# Bulk Modulus (GPa) = 64.95018 67.30407 66.12713
# Shear Modulus (GPa) = 44.38706 18.67704 31.53205
#
# Velocity S-wave (km/s) = 4.19947 2.72408 3.53950
# Velocity P-wave (km/s) = 7.02279 6.05268 6.55570
#
# Compressibility (1/GPa) = 0.01539642
#
# Stress axis : x y z
#
# Youngs Moduli (GPa) = 105.29097 154.22158 99.70565
#
# Poissons Ratio (x) = 0.25256 0.21920
# Poissons Ratio (y) = 0.17243 0.14669
# Poissons Ratio (z) = 0.23148 0.22690
#
# Static dielectric constant tensor:
#      x y z
#    x 2.002080 0.000000 0.000000 
#    y 0.000000 2.009370 0.000000 
#    z 0.000000 0.000000 1.960420 
# 
# From -- ./inp_files/30293.got.cif
#   From: 2010.05.17/outbox.cif.g08.bks.cpg/sg20_16_cif.got.tgz:30293.got - 2010.06.03 22:52:26.
