data_PCOD9319499
_publ_section_title
;
Structure prediction by ZEFSAII (Michael W. Deem and Ramdas Pophale) SiO2 
 PCOD9319499
Probable space group: C 2 2 21
;
_chemical_formula_sum "Si O2"
_cell_formula_units_Z 48
_cell_length_a 11.255749
_cell_length_b 10.231682
_cell_length_c 17.231508
_cell_angle_alpha 90.000000
_cell_angle_beta 90.000000
_cell_angle_gamma 90.000000
_cell_volume 1984.470831
_symmetry_space_group_name_H-M "C 2 2 21"
_symmetry_group_IT_number 20
_symmetry_cell_setting 'orthorhombic'
loop_
_space_group_symop_operation_xyz
x,y,z
-x,-y,1/2+z
x,-y,-z
-x,y,1/2-z
1/2+x,1/2+y,z
1/2-x,1/2-y,1/2+z
1/2+x,1/2-y,-z
1/2-x,1/2+y,1/2-z
loop_
_atom_site_type_symbol
_atom_site_label
_atom_site_fract_x
_atom_site_fract_y
_atom_site_fract_z
Si Si1 0.106684 0.780816 0.965582
Si Si2 0.592927 0.500000 0.500000
Si Si3 0.503846 0.102084 0.090594
Si Si4 0.801949 0.500000 0.000000
Si Si5 0.835328 0.269261 0.284313
Si Si6 0.885110 0.863464 0.142612
Si Si7 0.000000 0.516445 0.750000
Si Si8 0.500000 0.457626 0.750000
O O1 0.123241 0.737739 0.875646
O O2 0.089350 0.654346 0.021683
O O3 0.217816 0.873111 0.991424
O O4 0.993804 0.880047 0.973825
O O5 0.667692 0.549257 0.573440
O O6 0.400176 0.998996 0.068366
O O7 0.431751 0.233386 0.105637
O O8 0.547334 0.061638 0.175722
O O9 0.700412 0.312800 0.290405
O O10 0.895829 0.380980 0.233457
O O11 0.883266 0.132835 0.251393
O O12 0.991380 0.949332 0.176421
#
# Coordination Sequence:
#
# PCOD9319499 Si02
#       8
#     8   4   8   4   8   8   4   4
#     4  10  21  43  70  98 133 178 227 288 334 395
#     4   9  20  40  67 100 128 165 230 278 325 398
#     4  11  24  44  68 104 137 177 234 279 347 416
#     4  11  22  44  73  98 136 181 232 288 347 404
#     4  11  24  45  69  98 136 186 224 276 353 400
#     4  11  23  41  72  97 132 181 226 274 344 407
#     4  11  27  46  60 102 151 177 224 292 340 423
#     4  11  25  46  68  96 147 175 220 292 334 407
#
# _framework density 24.187809000000001
#
# number of rings (size 3 to 8) (size 9 to 14) (size 15 to 20)
#    0.000    1.333    3.333    1.500    2.333    1.333 
#    3.000    0.000    0.000    0.000    0.000    0.000 
#    0.000    0.000    0.000    0.000    0.000    0.000 
#
# Total GULP energy -133803.280978 kJ/mol
# GULP energy per Si atom -5575.136707 kJ/mol
# Density = 2.413276 g / cm^3
# Si number density = 24.187809 Si / 1000 Ang^3
#
#
#
# Elastic Constant Matrix: (Units=GPa)
#
#
# Indices 1 2 3 4 5 6 
#
# 1 47.4232 22.8055 -2.1580 0.0000 0.0000 0.0000
# 2 22.8055 66.4993 29.6929 0.0000 0.0000 0.0000
# 3 -2.1580 29.6929 80.6805 0.0000 0.0000 0.0000
# 4 0.0000 0.0000 0.0000 138.7994 0.0000 0.0000
# 5 0.0000 0.0000 0.0000 0.0000 35.8429 0.0000
# 6 0.0000 0.0000 0.0000 0.0000 0.0000 17.8133
#
#
#
# Elastic Compliance Matrix: (Units=1/GPa)
#
#
# Indices 1 2 3 4 5 6 
#
# 1 0.026779 -0.011372 0.004902 0.000000 0.000000 0.000000
# 2 -0.011372 0.022824 -0.008704 0.000000 0.000000 0.000000
# 3 0.004902 -0.008704 0.015729 0.000000 0.000000 0.000000
# 4 0.000000 0.000000 0.000000 0.007205 0.000000 0.000000
# 5 0.000000 0.000000 0.000000 0.000000 0.027900 0.000000
# 6 0.000000 0.000000 0.000000 0.000000 0.000000 0.056138
#
#
# Mechanical properties :
#
#
# Convention : Reuss Voigt Hill
#
# Bulk Modulus (GPa) = 28.58582 32.80930 30.69756
# Shear Modulus (GPa) = 25.17820 48.10862 36.64341
#
# Velocity S-wave (km/s) = 3.22987 4.46462 3.89646
# Velocity P-wave (km/s) = 5.07478 6.33805 5.74126
#
# Compressibility (1/GPa) = 0.03498238
#
# Stress axis : x y z
#
# Youngs Moduli (GPa) = 37.34327 43.81295 63.57642
#
# Poissons Ratio (x) = 0.49825 -0.31162
# Poissons Ratio (y) = 0.42467 0.55338
# Poissons Ratio (z) = -0.18304 0.38136
#
# Static dielectric constant tensor:
#      x y z
#    x 0.486520 0.000000 0.000000 
#    y 0.000000 1.929000 0.000000 
#    z 0.000000 0.000000 2.040350 
# 
# From -- ./inp_files/24293.got.cif
#   From: 2010.05.17/outbox.cif.g08.bks.cpg/sg20_13_cif.got.tgz:24293.got - 2010.06.03 22:52:26.
