data_PCOD9319875
_publ_section_title
;
Structure prediction by ZEFSAII (Michael W. Deem and Ramdas Pophale) SiO2 
 PCOD9319875
Probable space group: C 2 2 21
;
_chemical_formula_sum "Si O2"
_cell_formula_units_Z 40
_cell_length_a 8.529315
_cell_length_b 27.010519
_cell_length_c 7.819517
_cell_angle_alpha 90.000000
_cell_angle_beta 90.000000
_cell_angle_gamma 90.000000
_cell_volume 1801.469904
_symmetry_space_group_name_H-M "C 2 2 21"
_symmetry_group_IT_number 20
_symmetry_cell_setting 'orthorhombic'
loop_
_space_group_symop_operation_xyz
x,y,z
-x,-y,1/2+z
x,-y,-z
-x,y,1/2-z
1/2+x,1/2+y,z
1/2-x,1/2-y,1/2+z
1/2+x,1/2-y,-z
1/2-x,1/2+y,1/2-z
loop_
_atom_site_type_symbol
_atom_site_label
_atom_site_fract_x
_atom_site_fract_y
_atom_site_fract_z
Si Si1 0.910427 0.196899 0.498041
Si Si2 0.758738 0.219197 0.151738
Si Si3 0.885816 0.644447 0.615769
Si Si4 0.929478 0.555330 0.058985
Si Si5 0.864071 0.907213 0.362692
O O1 0.787464 0.200081 0.342012
O O2 0.832032 0.228909 0.647623
O O3 0.938929 0.139914 0.540887
O O4 0.070499 0.221430 0.435100
O O5 0.665080 0.180568 0.034620
O O6 0.747488 0.619218 0.723144
O O7 0.000000 0.671608 0.750000
O O8 0.982346 0.598503 0.541590
O O9 0.000000 0.559733 0.250000
O O10 0.969754 0.500000 0.000000
O O11 0.746791 0.564077 0.999174
O O12 0.000000 0.933841 0.250000
#
# Coordination Sequence:
#
# PCOD9319875 Si02
#       5
#     8   8   8   8   8
#     4  11  25  39  62  91 136 178 233 281 343 410
#     4  11  24  40  61  95 131 184 231 283 341 413
#     4  10  22  40  67  92 130 172 224 276 343 412
#     4  11  24  46  74 103 134 177 233 287 351 425
#     4  11  22  43  67  98 138 178 222 289 349 412
#
# _framework density 22.204090000000001
#
# number of rings (size 3 to 8) (size 9 to 14) (size 15 to 20)
#    0.000    1.200    2.000    4.200    8.400    0.000 
#    0.000    3.000    0.000    0.000    0.000    0.000 
#    0.000    0.000    0.000    0.000    0.000    0.000 
#
# Total GULP energy -111772.072685 kJ/mol
# GULP energy per Si atom -5588.603634 kJ/mol
# Density = 2.215355 g / cm^3
# Si number density = 22.204090 Si / 1000 Ang^3
#
#
#
# Elastic Constant Matrix: (Units=GPa)
#
#
# Indices 1 2 3 4 5 6 
#
# 1 91.3100 21.8635 41.4523 0.0000 0.0000 0.0000
# 2 21.8635 87.9030 25.6637 0.0000 0.0000 0.0000
# 3 41.4523 25.6637 113.2217 0.0000 0.0000 0.0000
# 4 0.0000 0.0000 0.0000 33.5882 0.0000 0.0000
# 5 0.0000 0.0000 0.0000 0.0000 44.9913 0.0000
# 6 0.0000 0.0000 0.0000 0.0000 0.0000 20.6595
#
#
#
# Elastic Compliance Matrix: (Units=1/GPa)
#
#
# Indices 1 2 3 4 5 6 
#
# 1 0.013470 -0.002046 -0.004468 0.000000 0.000000 0.000000
# 2 -0.002046 0.012493 -0.002083 0.000000 0.000000 0.000000
# 3 -0.004468 -0.002083 0.010940 0.000000 0.000000 0.000000
# 4 0.000000 0.000000 0.000000 0.029772 0.000000 0.000000
# 5 0.000000 0.000000 0.000000 0.000000 0.022227 0.000000
# 6 0.000000 0.000000 0.000000 0.000000 0.000000 0.048404
#
#
# Mechanical properties :
#
#
# Convention : Reuss Voigt Hill
#
# Bulk Modulus (GPa) = 50.73528 52.26598 51.50063
# Shear Modulus (GPa) = 31.04266 33.41149 32.22708
#
# Velocity S-wave (km/s) = 3.74312 3.88331 3.81386
# Velocity P-wave (km/s) = 6.44829 6.61036 6.52982
#
# Compressibility (1/GPa) = 0.01971015
#
# Stress axis : x y z
#
# Youngs Moduli (GPa) = 74.24004 80.04422 91.40718
#
# Poissons Ratio (x) = 0.16376 0.40839
# Poissons Ratio (y) = 0.15188 0.19038
# Poissons Ratio (z) = 0.33169 0.16671
#
# Static dielectric constant tensor:
#      x y z
#    x 1.880190 0.000000 0.000000 
#    y 0.000000 1.776440 0.000000 
#    z 0.000000 0.000000 1.900360 
# 
# From -- ./inp_files/6284.got.cif
#   From: 2010.05.17/outbox.cif.g08.bks.cpg/sg20_4_cif.got.tgz:6284.got - 2010.06.03 22:52:26.
