data_PCOD9319792
_publ_section_title
;
Structure prediction by ZEFSAII (Michael W. Deem and Ramdas Pophale) SiO2 
 PCOD9319792
Probable space group: C 2 2 21
;
_chemical_formula_sum "Si O2"
_cell_formula_units_Z 32
_cell_length_a 14.020515
_cell_length_b 12.768150
_cell_length_c 6.578490
_cell_angle_alpha 90.000000
_cell_angle_beta 90.000000
_cell_angle_gamma 90.000000
_cell_volume 1177.655220
_symmetry_space_group_name_H-M "C 2 2 21"
_symmetry_group_IT_number 20
_symmetry_cell_setting 'orthorhombic'
loop_
_space_group_symop_operation_xyz
x,y,z
-x,-y,1/2+z
x,-y,-z
-x,y,1/2-z
1/2+x,1/2+y,z
1/2-x,1/2-y,1/2+z
1/2+x,1/2-y,-z
1/2-x,1/2+y,1/2-z
loop_
_atom_site_type_symbol
_atom_site_label
_atom_site_fract_x
_atom_site_fract_y
_atom_site_fract_z
Si Si1 0.829445 0.500000 0.000000
Si Si2 0.840455 0.000000 0.000000
Si Si3 0.238980 0.823822 0.756944
Si Si4 0.000000 0.447341 0.750000
Si Si5 0.000000 0.088992 0.750000
Si Si6 0.413414 0.236182 0.483889
O O1 0.765448 0.400340 0.944885
O O2 0.903303 0.505750 0.811281
O O3 0.908499 0.022540 0.808829
O O4 0.780209 0.899937 0.933872
O O5 0.334207 0.763085 0.696817
O O6 0.147556 0.755116 0.814337
O O7 0.027975 0.368927 0.936222
O O8 0.979539 0.164531 0.559541
#
# Coordination Sequence:
#
# PCOD9319792 Si02
#       6
#     4   4   8   4   4   8
#     4  10  22  40  64  94 126 162 204 248 302 360
#     4  12  24  40  64  90 122 160 204 256 306 362
#     4  11  23  41  63  90 123 162 203 251 304 362
#     4   9  22  40  62  91 126 160 204 247 298 362
#     4  11  22  40  60  91 122 158 206 251 304 364
#     4  10  22  40  60  88 123 160 204 250 301 361
#
# _framework density 27.172637999999999
#
# number of rings (size 3 to 8) (size 9 to 14) (size 15 to 20)
#    0.000    1.500    0.000    4.500    0.000    6.000 
#    0.000    2.500    0.000    0.000    0.000    0.000 
#    0.000    0.000    0.000    0.000    0.000    0.000 
#
# Total GULP energy -89628.355862 kJ/mol
# GULP energy per Si atom -5601.772241 kJ/mol
# Density = 2.711079 g / cm^3
# Si number density = 27.172638 Si / 1000 Ang^3
#
#
#
# Elastic Constant Matrix: (Units=GPa)
#
#
# Indices 1 2 3 4 5 6 
#
# 1 88.9435 27.5068 18.7544 0.0000 0.0000 0.0000
# 2 27.5068 64.8948 34.0435 0.0000 0.0000 0.0000
# 3 18.7544 34.0435 62.4519 0.0000 0.0000 0.0000
# 4 0.0000 0.0000 0.0000 49.6502 0.0000 0.0000
# 5 0.0000 0.0000 0.0000 0.0000 76.8089 0.0000
# 6 0.0000 0.0000 0.0000 0.0000 0.0000 39.8245
#
#
#
# Elastic Compliance Matrix: (Units=1/GPa)
#
#
# Indices 1 2 3 4 5 6 
#
# 1 0.013010 -0.004853 -0.001262 0.000000 0.000000 0.000000
# 2 -0.004853 0.023391 -0.011294 0.000000 0.000000 0.000000
# 3 -0.001262 -0.011294 0.022547 0.000000 0.000000 0.000000
# 4 0.000000 0.000000 0.000000 0.020141 0.000000 0.000000
# 5 0.000000 0.000000 0.000000 0.000000 0.013019 0.000000
# 6 0.000000 0.000000 0.000000 0.000000 0.000000 0.025110
#
#
# Mechanical properties :
#
#
# Convention : Reuss Voigt Hill
#
# Bulk Modulus (GPa) = 41.43753 41.87774 41.65763
# Shear Modulus (GPa) = 31.23469 42.32241 36.77855
#
# Velocity S-wave (km/s) = 3.39409 3.95085 3.68300
# Velocity P-wave (km/s) = 5.53558 6.02142 5.78360
#
# Compressibility (1/GPa) = 0.02413271
#
# Stress axis : x y z
#
# Youngs Moduli (GPa) = 76.86493 42.75162 44.35086
#
# Poissons Ratio (x) = 0.20746 0.05596
# Poissons Ratio (y) = 0.37299 0.50088
# Poissons Ratio (z) = 0.09698 0.48282
#
# Static dielectric constant tensor:
#      x y z
#    x 1.954220 0.000000 0.000000 
#    y 0.000000 2.076170 0.000000 
#    z 0.000000 0.000000 2.151390 
# 
# From -- ./inp_files/1637.got.cif
#   From: 2010.05.17/outbox.cif.g08.bks.cpg/sg20_1_cif.got.tgz:1637.got - 2010.06.03 22:52:26.
