data_PCOD9319677
_publ_section_title
;
Structure prediction by ZEFSAII (Michael W. Deem and Ramdas Pophale) SiO2 
 PCOD9319677
Probable space group: C 2 2 21
;
_chemical_formula_sum "Si O2"
_cell_formula_units_Z 44
_cell_length_a 12.113596
_cell_length_b 16.308701
_cell_length_c 11.552189
_cell_angle_alpha 90.000000
_cell_angle_beta 90.000000
_cell_angle_gamma 90.000000
_cell_volume 2282.215978
_symmetry_space_group_name_H-M "C 2 2 21"
_symmetry_group_IT_number 20
_symmetry_cell_setting 'orthorhombic'
loop_
_space_group_symop_operation_xyz
x,y,z
-x,-y,1/2+z
x,-y,-z
-x,y,1/2-z
1/2+x,1/2+y,z
1/2-x,1/2-y,1/2+z
1/2+x,1/2-y,-z
1/2-x,1/2+y,1/2-z
loop_
_atom_site_type_symbol
_atom_site_label
_atom_site_fract_x
_atom_site_fract_y
_atom_site_fract_z
Si Si1 0.413887 0.761424 0.658798
Si Si2 0.932359 0.018570 0.365756
Si Si3 0.000000 0.578690 0.250000
Si Si4 0.335740 0.219806 0.802993
Si Si5 0.043769 0.792305 0.904509
Si Si6 0.179335 0.531552 0.629013
O O1 0.500000 0.723038 0.750000
O O2 0.454148 0.856302 0.654801
O O3 0.288765 0.752341 0.700083
O O4 0.424496 0.719239 0.536140
O O5 0.926378 0.117157 0.363225
O O6 0.000000 0.992899 0.250000
O O7 0.971629 0.000000 0.500000
O O8 0.809383 0.983429 0.353363
O O9 0.100676 0.522741 0.290284
O O10 0.414709 0.274681 0.884147
O O11 0.389917 0.228935 0.676476
O O12 0.340819 0.127428 0.849610
O O13 0.154379 0.500000 0.500000
#
# Coordination Sequence:
#
# PCOD9319677 Si02
#       6
#     8   8   4   8   8   8
#     4  10  24  38  65  94 129 166 217 272 322 377
#     4  11  24  44  69  96 136 173 218 266 333 389
#     4  10  22  38  60  94 126 158 226 260 322 376
#     4  11  23  41  67  94 124 173 221 257 325 386
#     4  11  23  43  68  93 131 171 220 266 321 393
#     4  11  23  41  65  90 134 176 209 266 336 386
#
# _framework density 19.279509000000001
#
# number of rings (size 3 to 8) (size 9 to 14) (size 15 to 20)
#    0.545    0.727    1.818    5.455    2.545    2.909 
#    0.000    0.909    0.000    0.000    0.000    0.000 
#    0.000    0.000    0.000    0.000    0.000    0.000 
#
# Total GULP energy -122736.474165 kJ/mol
# GULP energy per Si atom -5578.930644 kJ/mol
# Density = 1.923563 g / cm^3
# Si number density = 19.279509 Si / 1000 Ang^3
#
#
#
# Elastic Constant Matrix: (Units=GPa)
#
#
# Indices 1 2 3 4 5 6 
#
# 1 96.9056 -3.7882 37.1514 0.0000 0.0000 0.0000
# 2 -3.7882 71.4709 2.1013 0.0000 0.0000 0.0000
# 3 37.1514 2.1013 109.5660 0.0000 0.0000 0.0000
# 4 0.0000 0.0000 0.0000 29.3307 0.0000 0.0000
# 5 0.0000 0.0000 0.0000 0.0000 22.7059 0.0000
# 6 0.0000 0.0000 0.0000 0.0000 0.0000 26.3888
#
#
#
# Elastic Compliance Matrix: (Units=1/GPa)
#
#
# Indices 1 2 3 4 5 6 
#
# 1 0.011901 0.000750 -0.004050 0.000000 0.000000 0.000000
# 2 0.000750 0.014047 -0.000524 0.000000 0.000000 0.000000
# 3 -0.004050 -0.000524 0.010510 0.000000 0.000000 0.000000
# 4 0.000000 0.000000 0.000000 0.034094 0.000000 0.000000
# 5 0.000000 0.000000 0.000000 0.000000 0.044041 0.000000
# 6 0.000000 0.000000 0.000000 0.000000 0.000000 0.037895
#
#
# Mechanical properties :
#
#
# Convention : Reuss Voigt Hill
#
# Bulk Modulus (GPa) = 34.70892 38.76349 36.73620
# Shear Modulus (GPa) = 29.45694 31.85030 30.65362
#
# Velocity S-wave (km/s) = 3.91306 4.06893 3.99175
# Velocity P-wave (km/s) = 6.20146 6.49804 6.35149
#
# Compressibility (1/GPa) = 0.02881104
#
# Stress axis : x y z
#
# Youngs Moduli (GPa) = 84.02485 71.19032 95.14596
#
# Poissons Ratio (x) = -0.05338 0.38532
# Poissons Ratio (y) = -0.06301 0.04982
# Poissons Ratio (z) = 0.34029 0.03728
#
# Static dielectric constant tensor:
#      x y z
#    x 1.658030 0.000000 0.000000 
#    y 0.000000 1.665040 0.000000 
#    z 0.000000 0.000000 1.693900 
# 
# From -- ./inp_files/14060.got.cif
#   From: 2010.05.17/outbox.cif.g08.bks.cpg/sg20_8_cif.got.tgz:14060.got - 2010.06.03 22:52:26.
