data_PCOD9319851
_publ_section_title
;
Structure prediction by ZEFSAII (Michael W. Deem and Ramdas Pophale) SiO2 
 PCOD9319851
Probable space group: C 2 2 21
;
_chemical_formula_sum "Si O2"
_cell_formula_units_Z 64
_cell_length_a 8.623361
_cell_length_b 31.876527
_cell_length_c 10.548850
_cell_angle_alpha 90.000000
_cell_angle_beta 90.000000
_cell_angle_gamma 90.000000
_cell_volume 2899.697422
_symmetry_space_group_name_H-M "C 2 2 21"
_symmetry_group_IT_number 20
_symmetry_cell_setting 'orthorhombic'
loop_
_space_group_symop_operation_xyz
x,y,z
-x,-y,1/2+z
x,-y,-z
-x,y,1/2-z
1/2+x,1/2+y,z
1/2-x,1/2-y,1/2+z
1/2+x,1/2-y,-z
1/2-x,1/2+y,1/2-z
loop_
_atom_site_type_symbol
_atom_site_label
_atom_site_fract_x
_atom_site_fract_y
_atom_site_fract_z
Si Si1 0.807754 0.540648 0.589186
Si Si2 0.415427 0.885833 0.545813
Si Si3 0.788480 0.503564 0.866258
Si Si4 0.033238 0.926125 0.107242
Si Si5 0.836810 0.710170 0.413692
Si Si6 0.202622 0.728066 0.381047
Si Si7 0.723345 0.361460 0.940278
Si Si8 0.821130 0.921284 0.754047
O O1 0.815793 0.500000 0.500000
O O2 0.910963 0.582472 0.572971
O O3 0.834485 0.523336 0.731237
O O4 0.634319 0.558811 0.562087
O O5 0.336914 0.839851 0.555623
O O6 0.596409 0.875756 0.565197
O O7 0.313080 0.914076 0.642036
O O8 0.640693 0.532867 0.895885
O O9 0.754350 0.455642 0.836066
O O10 0.878230 0.500000 0.000000
O O11 0.000000 0.912383 0.250000
O O12 0.120162 0.888731 0.035614
O O13 0.769990 0.723184 0.272627
O O14 0.761539 0.732778 0.536007
O O15 0.017868 0.723141 0.401226
O O16 0.280659 0.688011 0.450335
O O17 0.661701 0.375453 0.804675
O O18 0.000000 0.937182 0.750000
#
# Coordination Sequence:
#
# PCOD9319851 Si02
#       8
#     8   8   8   8   8   8   8   8
#     4  11  22  40  65  98 132 175 236 291 325 395
#     4  11  24  44  68 100 142 181 224 286 359 419
#     4  11  22  39  62  91 132 181 231 285 342 383
#     4  10  22  40  65  93 132 181 236 285 337 403
#     4  10  23  47  72 101 139 180 226 284 354 422
#     4  10  23  46  73 102 138 178 224 287 349 428
#     4  11  23  44  68 101 140 180 220 287 363 419
#     4  12  22  38  70  97 128 183 241 281 331 410
#
# _framework density 22.071269000000001
#
# number of rings (size 3 to 8) (size 9 to 14) (size 15 to 20)
#    0.000    1.250    3.750    2.625    0.000    2.500 
#    9.000    2.500    0.000    0.000    0.000    0.000 
#    0.000    0.000    0.000    0.000    0.000    0.000 
#
# Total GULP energy -178158.090661 kJ/mol
# GULP energy per Si atom -5567.440333 kJ/mol
# Density = 2.202103 g / cm^3
# Si number density = 22.071269 Si / 1000 Ang^3
#
#
#
# Elastic Constant Matrix: (Units=GPa)
#
#
# Indices 1 2 3 4 5 6 
#
# 1 77.0887 38.0816 32.5745 0.0000 0.0000 0.0000
# 2 38.0816 142.3041 63.1166 0.0000 0.0000 0.0000
# 3 32.5745 63.1166 127.8833 0.0000 0.0000 0.0000
# 4 0.0000 0.0000 0.0000 36.8775 0.0000 0.0000
# 5 0.0000 0.0000 0.0000 0.0000 -167.1487 0.0000
# 6 0.0000 0.0000 0.0000 0.0000 0.0000 25.7100
#
#
#
# Elastic Compliance Matrix: (Units=1/GPa)
#
#
# Indices 1 2 3 4 5 6 
#
# 1 0.015519 -0.003072 -0.002437 0.000000 0.000000 0.000000
# 2 -0.003072 0.009605 -0.003958 0.000000 0.000000 0.000000
# 3 -0.002437 -0.003958 0.010394 0.000000 0.000000 0.000000
# 4 0.000000 0.000000 0.000000 0.027117 0.000000 0.000000
# 5 0.000000 0.000000 0.000000 0.000000 -0.005983 0.000000
# 6 0.000000 0.000000 0.000000 0.000000 0.000000 0.038895
#
#
# Mechanical properties :
#
#
# Convention : Reuss Voigt Hill
#
# Bulk Modulus (GPa) = 60.29880 68.31349 64.30614
# Shear Modulus (GPa) = 41.66339 -6.67868 17.49236
#
# Velocity S-wave (km/s) = 4.34945 -1.74142 2.81826
# Velocity P-wave (km/s) = 7.25279 5.19376 6.30786
#
# Compressibility (1/GPa) = 0.01658408
#
# Stress axis : x y z
#
# Youngs Moduli (GPa) = 64.43517 104.11434 96.21198
#
# Poissons Ratio (x) = 0.31987 0.23445
# Poissons Ratio (y) = 0.19797 0.38079
# Poissons Ratio (z) = 0.15701 0.41207
#
# Static dielectric constant tensor:
#      x y z
#    x 1.905270 0.000000 0.000000 
#    y 0.000000 1.855950 0.000000 
#    z 0.000000 0.000000 1.985010 
# 
# From -- ./inp_files/13382.got.cif
#   From: 2010.05.17/outbox.cif.g08.bks.cpg/sg20_7_cif.got.tgz:13382.got - 2010.06.03 22:52:26.
