data_PCOD9319765
_publ_section_title
;
Structure prediction by ZEFSAII (Michael W. Deem and Ramdas Pophale) SiO2 
 PCOD9319765
Probable space group: C 2 2 21
;
_chemical_formula_sum "Si O2"
_cell_formula_units_Z 44
_cell_length_a 15.217648
_cell_length_b 16.681821
_cell_length_c 7.971321
_cell_angle_alpha 90.000000
_cell_angle_beta 90.000000
_cell_angle_gamma 90.000000
_cell_volume 2023.584244
_symmetry_space_group_name_H-M "C 2 2 21"
_symmetry_group_IT_number 20
_symmetry_cell_setting 'orthorhombic'
loop_
_space_group_symop_operation_xyz
x,y,z
-x,-y,1/2+z
x,-y,-z
-x,y,1/2-z
1/2+x,1/2+y,z
1/2-x,1/2-y,1/2+z
1/2+x,1/2-y,-z
1/2-x,1/2+y,1/2-z
loop_
_atom_site_type_symbol
_atom_site_label
_atom_site_fract_x
_atom_site_fract_y
_atom_site_fract_z
Si Si1 0.793447 0.235220 0.799995
Si Si2 0.738118 0.944526 0.144869
Si Si3 0.476184 0.243873 0.069061
Si Si4 0.800824 0.000000 0.500000
Si Si5 0.035187 0.417146 0.067742
Si Si6 0.135639 0.821283 0.946086
O O1 0.778271 0.143337 0.849565
O O2 0.828090 0.227344 0.609842
O O3 0.871117 0.265014 0.923717
O O4 0.705398 0.288569 0.809918
O O5 0.746610 0.984066 0.328845
O O6 0.637852 0.930176 0.093835
O O7 0.779064 0.000000 0.000000
O O8 0.500000 0.281289 0.250000
O O9 0.533681 0.294863 0.936946
O O10 0.514256 0.154801 0.055184
O O11 0.853755 0.916720 0.529110
O O12 0.000000 0.395016 0.250000
O O13 0.995626 0.500000 0.000000
#
# Coordination Sequence:
#
# PCOD9319765 Si02
#       6
#     8   8   8   4   8   8
#     4  10  22  39  65  89 125 170 212 271 327 388
#     4  10  23  43  64  94 128 168 217 265 328 396
#     4  10  22  41  64  89 127 169 217 268 325 392
#     4  10  24  40  68  94 128 170 212 272 324 386
#     4  11  24  38  59  91 130 161 214 268 331 399
#     4  10  22  41  63  94 126 167 218 265 330 394
#
# _framework density 21.743596
#
# number of rings (size 3 to 8) (size 9 to 14) (size 15 to 20)
#    0.000    1.818    1.818    0.545    8.909    1.455 
#    1.636    0.000    0.000    0.000    0.000    0.000 
#    0.000    0.000    0.000    0.000    0.000    0.000 
#
# Total GULP energy -122738.749454 kJ/mol
# GULP energy per Si atom -5579.034066 kJ/mol
# Density = 2.169411 g / cm^3
# Si number density = 21.743596 Si / 1000 Ang^3
#
#
#
# Elastic Constant Matrix: (Units=GPa)
#
#
# Indices 1 2 3 4 5 6 
#
# 1 40.4022 5.1991 15.1722 0.0000 0.0000 0.0000
# 2 5.1991 110.3375 24.3229 0.0000 0.0000 0.0000
# 3 15.1722 24.3229 85.4986 0.0000 0.0000 0.0000
# 4 0.0000 0.0000 0.0000 51.0940 0.0000 0.0000
# 5 0.0000 0.0000 0.0000 0.0000 18.0130 0.0000
# 6 0.0000 0.0000 0.0000 0.0000 0.0000 13.3156
#
#
#
# Elastic Compliance Matrix: (Units=1/GPa)
#
#
# Indices 1 2 3 4 5 6 
#
# 1 0.026524 -0.000226 -0.004642 0.000000 0.000000 0.000000
# 2 -0.000226 0.009671 -0.002711 0.000000 0.000000 0.000000
# 3 -0.004642 -0.002711 0.013291 0.000000 0.000000 0.000000
# 4 0.000000 0.000000 0.000000 0.019572 0.000000 0.000000
# 5 0.000000 0.000000 0.000000 0.000000 0.055516 0.000000
# 6 0.000000 0.000000 0.000000 0.000000 0.000000 0.075100
#
#
# Mechanical properties :
#
#
# Convention : Reuss Voigt Hill
#
# Bulk Modulus (GPa) = 29.13216 36.18076 32.65646
# Shear Modulus (GPa) = 22.09697 29.25412 25.67555
#
# Velocity S-wave (km/s) = 3.19133 3.67197 3.44005
# Velocity P-wave (km/s) = 5.19678 5.88673 5.55249
#
# Compressibility (1/GPa) = 0.03432632
#
# Stress axis : x y z
#
# Youngs Moduli (GPa) = 37.70224 103.39732 75.23781
#
# Poissons Ratio (x) = 0.02341 0.34928
# Poissons Ratio (y) = 0.00854 0.20398
# Poissons Ratio (z) = 0.17503 0.28033
#
# Static dielectric constant tensor:
#      x y z
#    x 1.831400 0.000000 0.000000 
#    y 0.000000 1.795410 0.000000 
#    z 0.000000 0.000000 1.865260 
# 
# From -- ./inp_files/8318.got.cif
#   From: 2010.05.17/outbox.cif.g08.bks.cpg/sg20_5_cif.got.tgz:8318.got - 2010.06.03 22:52:26.
