data_PCOD9319349
_publ_section_title
;
Structure prediction by ZEFSAII (Michael W. Deem and Ramdas Pophale) SiO2 
 PCOD9319349
Probable space group: C 2 2 21
;
_chemical_formula_sum "Si O2"
_cell_formula_units_Z 40
_cell_length_a 24.126675
_cell_length_b 8.358313
_cell_length_c 8.217886
_cell_angle_alpha 90.000000
_cell_angle_beta 90.000000
_cell_angle_gamma 90.000000
_cell_volume 1657.204931
_symmetry_space_group_name_H-M "C 2 2 21"
_symmetry_group_IT_number 20
_symmetry_cell_setting 'orthorhombic'
loop_
_space_group_symop_operation_xyz
x,y,z
-x,-y,1/2+z
x,-y,-z
-x,y,1/2-z
1/2+x,1/2+y,z
1/2-x,1/2-y,1/2+z
1/2+x,1/2-y,-z
1/2-x,1/2+y,1/2-z
loop_
_atom_site_type_symbol
_atom_site_label
_atom_site_fract_x
_atom_site_fract_y
_atom_site_fract_z
Si Si1 0.332934 0.313720 0.764730
Si Si2 0.966323 0.666612 0.077804
Si Si3 0.422710 0.816851 0.436454
Si Si4 0.866766 0.180658 0.745996
Si Si5 0.273987 0.176921 0.072533
O O1 0.388721 0.214281 0.727339
O O2 0.346049 0.500758 0.757380
O O3 0.286194 0.270092 0.631360
O O4 0.303520 0.280029 0.934637
O O5 0.915727 0.779014 0.126246
O O6 0.000000 0.637540 0.250000
O O7 0.946527 0.500000 0.000000
O O8 0.012713 0.728365 0.951484
O O9 0.392200 0.709146 0.569721
O O10 0.419122 0.000000 0.500000
O O11 0.816473 0.303412 0.777802
O O12 0.270198 0.000000 0.000000
#
# Coordination Sequence:
#
# PCOD9319349 Si02
#       5
#     8   8   8   8   8
#     4  12  25  43  67  98 132 174 226 287 347 400
#     4   9  20  40  68 100 137 180 226 274 333 409
#     4  10  21  41  69  97 132 179 224 273 339 411
#     4  11  23  42  65  98 136 174 227 285 340 400
#     4  12  25  42  65  91 129 177 223 277 341 414
#
# _framework density 24.137028000000001
#
# number of rings (size 3 to 8) (size 9 to 14) (size 15 to 20)
#    0.000    1.200    0.000    6.600    0.000    4.800 
#    0.000   12.000    0.000    0.000    0.000    0.000 
#    0.000    0.000    0.000    0.000    0.000    0.000 
#
# Total GULP energy -112021.035411 kJ/mol
# GULP energy per Si atom -5601.051771 kJ/mol
# Density = 2.408209 g / cm^3
# Si number density = 24.137028 Si / 1000 Ang^3
#
#
#
# Elastic Constant Matrix: (Units=GPa)
#
#
# Indices 1 2 3 4 5 6 
#
# 1 156.1665 14.8365 44.2922 0.0000 0.0000 0.0000
# 2 14.8365 30.9618 14.9630 0.0000 0.0000 0.0000
# 3 44.2922 14.9630 82.6496 0.0000 0.0000 0.0000
# 4 0.0000 0.0000 0.0000 39.9148 0.0000 0.0000
# 5 0.0000 0.0000 0.0000 0.0000 46.6022 0.0000
# 6 0.0000 0.0000 0.0000 0.0000 0.0000 34.5962
#
#
#
# Elastic Compliance Matrix: (Units=1/GPa)
#
#
# Indices 1 2 3 4 5 6 
#
# 1 0.007646 -0.001845 -0.003764 0.000000 0.000000 0.000000
# 2 -0.001845 0.035840 -0.005500 0.000000 0.000000 0.000000
# 3 -0.003764 -0.005500 0.015112 0.000000 0.000000 0.000000
# 4 0.000000 0.000000 0.000000 0.025053 0.000000 0.000000
# 5 0.000000 0.000000 0.000000 0.000000 0.021458 0.000000
# 6 0.000000 0.000000 0.000000 0.000000 0.000000 0.028905
#
#
# Mechanical properties :
#
#
# Convention : Reuss Voigt Hill
#
# Bulk Modulus (GPa) = 27.48679 46.44014 36.96347
# Shear Modulus (GPa) = 29.69862 37.26838 33.48350
#
# Velocity S-wave (km/s) = 3.51154 3.93368 3.72859
# Velocity P-wave (km/s) = 5.27766 6.31774 5.82097
#
# Compressibility (1/GPa) = 0.03638111
#
# Stress axis : x y z
#
# Youngs Moduli (GPa) = 130.78490 27.90194 66.17329
#
# Poissons Ratio (x) = 0.05148 0.24905
# Poissons Ratio (y) = 0.24131 0.36393
# Poissons Ratio (z) = 0.49222 0.15345
#
# Static dielectric constant tensor:
#      x y z
#    x 1.917330 0.000000 0.000000 
#    y 0.000000 1.846720 0.000000 
#    z 0.000000 0.000000 2.017180 
# 
# From -- ./inp_files/10485.got.cif
#   From: 2010.05.17/outbox.cif.g08.bks.cpg/sg20_6_cif.got.tgz:10485.got - 2010.06.03 22:52:26.
