data_PCOD9319279
_publ_section_title
;
Structure prediction by ZEFSAII (Michael W. Deem and Ramdas Pophale) SiO2 
 PCOD9319279
Probable space group: C 2 2 21
;
_chemical_formula_sum "Si O2"
_cell_formula_units_Z 64
_cell_length_a 9.648700
_cell_length_b 19.921695
_cell_length_c 18.046114
_cell_angle_alpha 90.000000
_cell_angle_beta 90.000000
_cell_angle_gamma 90.000000
_cell_volume 3468.796216
_symmetry_space_group_name_H-M "C 2 2 21"
_symmetry_group_IT_number 20
_symmetry_cell_setting 'orthorhombic'
loop_
_space_group_symop_operation_xyz
x,y,z
-x,-y,1/2+z
x,-y,-z
-x,y,1/2-z
1/2+x,1/2+y,z
1/2-x,1/2-y,1/2+z
1/2+x,1/2-y,-z
1/2-x,1/2+y,1/2-z
loop_
_atom_site_type_symbol
_atom_site_label
_atom_site_fract_x
_atom_site_fract_y
_atom_site_fract_z
Si Si1 0.721581 0.966398 0.419656
Si Si2 0.715322 0.673437 0.578084
Si Si3 0.127944 0.428786 0.703541
Si Si4 0.383270 0.414049 0.810993
Si Si5 0.462946 0.836374 0.068169
Si Si6 0.966296 0.300613 0.892019
Si Si7 0.788157 0.790866 0.904091
Si Si8 0.453683 0.535798 0.919832
O O1 0.615007 0.905314 0.415040
O O2 0.883273 0.946197 0.413213
O O3 0.705449 0.000000 0.500000
O O4 0.685759 0.020614 0.357502
O O5 0.878474 0.666953 0.595931
O O6 0.631377 0.734973 0.615632
O O7 0.713617 0.691297 0.490945
O O8 0.637328 0.602751 0.588071
O O9 0.242951 0.417163 0.765045
O O10 0.083020 0.360534 0.661415
O O11 0.000000 0.457349 0.750000
O O12 0.500000 0.404364 0.750000
O O13 0.368600 0.350983 0.864746
O O14 0.413539 0.480731 0.858383
O O15 0.373084 0.777211 0.104004
O O16 0.459497 0.824877 0.978405
O O17 0.128647 0.285158 0.878130
O O18 0.432621 0.500000 0.000000
#
# Coordination Sequence:
#
# PCOD9319279 Si02
#       8
#     8   8   8   8   8   8   8   8
#     4  11  23  41  65  95 128 170 216 266 315 383
#     4  10  22  37  66  96 123 159 215 267 310 369
#     4  12  25  42  65  94 129 174 213 260 328 386
#     4  12  25  42  63  94 131 171 213 261 324 387
#     4  10  22  37  66  96 124 159 214 269 309 367
#     4  10  21  41  62  93 126 165 209 260 319 377
#     4  10  21  41  62  92 127 165 207 262 316 381
#     4  11  23  41  65  94 128 173 215 264 320 377
#
# _framework density 18.450203999999999
#
# number of rings (size 3 to 8) (size 9 to 14) (size 15 to 20)
#    0.000    1.250    5.000    0.750    3.500    1.500 
#    0.000    2.500    0.000    0.000    0.000    0.000 
#    0.000    0.000    0.000    0.000    0.000    0.000 
#
# Total GULP energy -178709.270684 kJ/mol
# GULP energy per Si atom -5584.664709 kJ/mol
# Density = 1.840821 g / cm^3
# Si number density = 18.450204 Si / 1000 Ang^3
#
#
#
# Elastic Constant Matrix: (Units=GPa)
#
#
# Indices 1 2 3 4 5 6 
#
# 1 130.6548 64.4489 13.7240 0.0000 0.0000 0.0000
# 2 64.4489 120.7035 10.7048 0.0000 0.0000 0.0000
# 3 13.7240 10.7048 27.5724 0.0000 0.0000 0.0000
# 4 0.0000 0.0000 0.0000 24.3564 0.0000 0.0000
# 5 0.0000 0.0000 0.0000 0.0000 27.6482 0.0000
# 6 0.0000 0.0000 0.0000 0.0000 0.0000 37.1051
#
#
#
# Elastic Compliance Matrix: (Units=1/GPa)
#
#
# Indices 1 2 3 4 5 6 
#
# 1 0.010657 -0.005406 -0.003206 0.000000 0.000000 0.000000
# 2 -0.005406 0.011322 -0.001705 0.000000 0.000000 0.000000
# 3 -0.003206 -0.001705 0.038526 0.000000 0.000000 0.000000
# 4 0.000000 0.000000 0.000000 0.041057 0.000000 0.000000
# 5 0.000000 0.000000 0.000000 0.000000 0.036169 0.000000
# 6 0.000000 0.000000 0.000000 0.000000 0.000000 0.026950
#
#
# Mechanical properties :
#
#
# Convention : Reuss Voigt Hill
#
# Bulk Modulus (GPa) = 25.08038 50.74291 37.91164
# Shear Modulus (GPa) = 25.17551 30.49214 27.83383
#
# Velocity S-wave (km/s) = 3.69794 4.06972 3.88827
# Velocity P-wave (km/s) = 5.64412 7.04598 6.38364
#
# Compressibility (1/GPa) = 0.03987181
#
# Stress axis : x y z
#
# Youngs Moduli (GPa) = 93.83377 88.31979 25.95670
#
# Poissons Ratio (x) = 0.47746 0.08321
# Poissons Ratio (y) = 0.50727 0.04426
# Poissons Ratio (z) = 0.30080 0.15059
#
# Static dielectric constant tensor:
#      x y z
#    x 1.610200 0.000000 0.000000 
#    y 0.000000 1.609790 0.000000 
#    z 0.000000 0.000000 1.616390 
# 
# From -- ./inp_files/23927.got.cif
#   From: 2010.05.17/outbox.cif.g08.bks.cpg/sg20_12_cif.got.tgz:23927.got - 2010.06.03 22:52:26.
