data_PCOD9319131
_publ_section_title
;
Structure prediction by ZEFSAII (Michael W. Deem and Ramdas Pophale) SiO2 
 PCOD9319131
Probable space group: C 2 2 21
;
_chemical_formula_sum "Si O2"
_cell_formula_units_Z 40
_cell_length_a 21.579587
_cell_length_b 16.119704
_cell_length_c 4.795976
_cell_angle_alpha 90.000000
_cell_angle_beta 90.000000
_cell_angle_gamma 90.000000
_cell_volume 1668.311689
_symmetry_space_group_name_H-M "C 2 2 21"
_symmetry_group_IT_number 20
_symmetry_cell_setting 'orthorhombic'
loop_
_space_group_symop_operation_xyz
x,y,z
-x,-y,1/2+z
x,-y,-z
-x,y,1/2-z
1/2+x,1/2+y,z
1/2-x,1/2-y,1/2+z
1/2+x,1/2-y,-z
1/2-x,1/2+y,1/2-z
loop_
_atom_site_type_symbol
_atom_site_label
_atom_site_fract_x
_atom_site_fract_y
_atom_site_fract_z
Si Si1 0.595516 0.944057 0.259507
Si Si2 0.500000 0.804941 0.250000
Si Si3 0.696690 0.167843 0.471525
Si Si4 0.671426 0.725554 0.028517
Si Si5 0.065200 0.830958 0.360704
Si Si6 0.453029 0.500000 0.000000
O O1 0.552359 0.869393 0.145766
O O2 0.654487 0.905362 0.418332
O O3 0.562664 0.000000 0.500000
O O4 0.613028 0.000000 0.000000
O O5 0.539036 0.746296 0.458703
O O6 0.686491 0.191151 0.149939
O O7 0.770110 0.165418 0.523316
O O8 0.672590 0.248471 0.649025
O O9 0.608120 0.694857 0.896304
O O10 0.089977 0.916920 0.488351
O O11 0.000000 0.864352 0.250000
O O12 0.500000 0.522619 0.250000
#
# Coordination Sequence:
#
# PCOD9319131 Si02
#       6
#     8   4   8   8   8   4
#     4  12  26  42  63  95 139 172 224 278 321 386
#     4  12  24  40  68  94 126 184 220 264 340 398
#     4  10  21  42  65  92 127 169 222 273 319 374
#     4  10  21  39  69  95 120 169 224 264 318 406
#     4  11  23  39  68  93 132 164 217 268 335 405
#     4  10  22  40  58  92 124 156 190 268 324 378
#
# _framework density 23.976334999999999
#
# number of rings (size 3 to 8) (size 9 to 14) (size 15 to 20)
#    0.000    1.200    3.000    3.000    2.800    0.000 
#    1.800    0.000    8.800    0.000    0.000    0.000 
#    0.000    0.000    0.000    0.000    0.000    0.000 
#
# Total GULP energy -111654.849868 kJ/mol
# GULP energy per Si atom -5582.742493 kJ/mol
# Density = 2.392176 g / cm^3
# Si number density = 23.976335 Si / 1000 Ang^3
#
#
#
# Elastic Constant Matrix: (Units=GPa)
#
#
# Indices 1 2 3 4 5 6 
#
# 1 95.5628 5.3487 -12.4556 0.0000 0.0000 0.0000
# 2 5.3487 115.7029 2.4058 0.0000 0.0000 0.0000
# 3 -12.4556 2.4058 76.2641 0.0000 0.0000 0.0000
# 4 0.0000 0.0000 0.0000 33.9211 0.0000 0.0000
# 5 0.0000 0.0000 0.0000 0.0000 28.1397 0.0000
# 6 0.0000 0.0000 0.0000 0.0000 0.0000 22.3541
#
#
#
# Elastic Compliance Matrix: (Units=1/GPa)
#
#
# Indices 1 2 3 4 5 6 
#
# 1 0.010725 -0.000533 0.001768 0.000000 0.000000 0.000000
# 2 -0.000533 0.008675 -0.000361 0.000000 0.000000 0.000000
# 3 0.001768 -0.000361 0.013413 0.000000 0.000000 0.000000
# 4 0.000000 0.000000 0.000000 0.029480 0.000000 0.000000
# 5 0.000000 0.000000 0.000000 0.000000 0.035537 0.000000
# 6 0.000000 0.000000 0.000000 0.000000 0.000000 0.044735
#
#
# Mechanical properties :
#
#
# Convention : Reuss Voigt Hill
#
# Bulk Modulus (GPa) = 28.93313 30.90307 29.91810
# Shear Modulus (GPa) = 32.82256 36.36504 34.59380
#
# Velocity S-wave (km/s) = 3.70396 3.89872 3.80258
# Velocity P-wave (km/s) = 5.51234 5.76052 5.63780
#
# Compressibility (1/GPa) = 0.03456246
#
# Stress axis : x y z
#
# Youngs Moduli (GPa) = 93.24345 115.27457 74.55717
#
# Poissons Ratio (x) = 0.06139 -0.13184
# Poissons Ratio (y) = 0.04966 0.02689
# Poissons Ratio (z) = -0.16489 0.04157
#
# Static dielectric constant tensor:
#      x y z
#    x 1.970120 0.000000 0.000000 
#    y 0.000000 2.025410 0.000000 
#    z 0.000000 0.000000 2.035850 
# 
# From -- ./inp_files/3649.got.cif
#   From: 2010.05.17/outbox.cif.g08.bks.cpg/sg20_2_cif.got.tgz:3649.got - 2010.06.03 22:52:26.
