data_PCOD9319897
_publ_section_title
;
Structure prediction by ZEFSAII (Michael W. Deem and Ramdas Pophale) SiO2 
 PCOD9319897
Probable space group: C 2 2 21
;
_chemical_formula_sum "Si O2"
_cell_formula_units_Z 56
_cell_length_a 8.686862
_cell_length_b 12.308063
_cell_length_c 21.965575
_cell_angle_alpha 90.000000
_cell_angle_beta 90.000000
_cell_angle_gamma 90.000000
_cell_volume 2348.525117
_symmetry_space_group_name_H-M "C 2 2 21"
_symmetry_group_IT_number 20
_symmetry_cell_setting 'orthorhombic'
loop_
_space_group_symop_operation_xyz
x,y,z
-x,-y,1/2+z
x,-y,-z
-x,y,1/2-z
1/2+x,1/2+y,z
1/2-x,1/2-y,1/2+z
1/2+x,1/2-y,-z
1/2-x,1/2+y,1/2-z
loop_
_atom_site_type_symbol
_atom_site_label
_atom_site_fract_x
_atom_site_fract_y
_atom_site_fract_z
Si Si1 0.608062 0.476771 0.430255
Si Si2 0.946268 0.432121 0.588055
Si Si3 0.648529 0.146323 0.621828
Si Si4 0.909877 0.770025 0.692155
Si Si5 0.149782 0.745305 0.384800
Si Si6 0.405306 0.519330 0.690445
Si Si7 0.296845 0.122421 0.007254
O O1 0.568275 0.500000 0.500000
O O2 0.615779 0.346402 0.426736
O O3 0.501959 0.497499 0.371676
O O4 0.771044 0.535498 0.417101
O O5 0.042419 0.539469 0.607794
O O6 0.004863 0.331717 0.630291
O O7 0.019987 0.388700 0.524228
O O8 0.538959 0.243578 0.641844
O O9 0.726456 0.177294 0.557272
O O10 0.771535 0.102424 0.670671
O O11 0.751712 0.715271 0.671133
O O12 0.860248 0.894304 0.704871
O O13 0.000000 0.725065 0.750000
O O14 0.258863 0.672280 0.429408
O O15 0.500000 0.556542 0.750000
O O16 0.242884 0.000000 0.000000
#
# Coordination Sequence:
#
# PCOD9319897 Si02
#       7
#     8   8   8   8   8   8   8
#     4  12  26  44  70 109 144 182 241 306 370 436
#     4   9  20  40  69 101 139 174 225 293 360 428
#     4  11  20  41  71  95 132 191 234 281 361 428
#     4  11  24  42  71  99 136 194 243 285 367 438
#     4  10  22  40  70 104 141 175 234 298 354 443
#     4  11  28  47  64 100 153 185 247 304 353 438
#     4   8  17  36  65  98 135 173 222 286 360 418
#
# _framework density 23.844753999999998
#
# number of rings (size 3 to 8) (size 9 to 14) (size 15 to 20)
#    0.857    0.857    2.857    1.286    4.000    4.000 
#    0.000    0.000    0.000    0.000    0.000    0.000 
#    0.000    0.000    0.000    0.000    0.000    0.000 
#
# Total GULP energy -156051.863192 kJ/mol
# GULP energy per Si atom -5573.280828 kJ/mol
# Density = 2.379048 g / cm^3
# Si number density = 23.844754 Si / 1000 Ang^3
#
#
#
# Elastic Constant Matrix: (Units=GPa)
#
#
# Indices 1 2 3 4 5 6 
#
# 1 103.0223 18.4104 13.7162 0.0000 0.0000 0.0000
# 2 18.4104 68.3743 -3.0981 0.0000 0.0000 0.0000
# 3 13.7162 -3.0981 62.1429 0.0000 0.0000 0.0000
# 4 0.0000 0.0000 0.0000 20.2915 0.0000 0.0000
# 5 0.0000 0.0000 0.0000 0.0000 18.1740 0.0000
# 6 0.0000 0.0000 0.0000 0.0000 0.0000 22.4666
#
#
#
# Elastic Compliance Matrix: (Units=1/GPa)
#
#
# Indices 1 2 3 4 5 6 
#
# 1 0.010565 -0.002957 -0.002479 0.000000 0.000000 0.000000
# 2 -0.002957 0.015486 0.001425 0.000000 0.000000 0.000000
# 3 -0.002479 0.001425 0.016710 0.000000 0.000000 0.000000
# 4 0.000000 0.000000 0.000000 0.049282 0.000000 0.000000
# 5 0.000000 0.000000 0.000000 0.000000 0.055024 0.000000
# 6 0.000000 0.000000 0.000000 0.000000 0.000000 0.044510
#
#
# Mechanical properties :
#
#
# Convention : Reuss Voigt Hill
#
# Bulk Modulus (GPa) = 28.78686 32.39963 30.59324
# Shear Modulus (GPa) = 23.67646 25.82049 24.74848
#
# Velocity S-wave (km/s) = 3.15452 3.29425 3.22514
# Velocity P-wave (km/s) = 5.03655 5.29969 5.16979
#
# Compressibility (1/GPa) = 0.03473807
#
# Stress axis : x y z
#
# Youngs Moduli (GPa) = 94.65054 64.57374 59.84365
#
# Poissons Ratio (x) = 0.19095 0.14838
# Poissons Ratio (y) = 0.27989 -0.08526
# Poissons Ratio (z) = 0.23467 -0.09200
#
# Static dielectric constant tensor:
#      x y z
#    x 1.959110 0.000000 0.000000 
#    y 0.000000 1.974330 0.000000 
#    z 0.000000 0.000000 2.115660 
# 
# From -- ./inp_files/26748.got.cif
#   From: 2010.05.17/outbox.cif.g08.bks.cpg/sg20_14_cif.got.tgz:26748.got - 2010.06.03 22:52:26.
