data_PCOD9319115
_publ_section_title
;
Structure prediction by ZEFSAII (Michael W. Deem and Ramdas Pophale) SiO2 
 PCOD9319115
Probable space group: C 2 2 21
;
_chemical_formula_sum "Si O2"
_cell_formula_units_Z 64
_cell_length_a 18.782340
_cell_length_b 11.713657
_cell_length_c 15.241998
_cell_angle_alpha 90.000000
_cell_angle_beta 90.000000
_cell_angle_gamma 90.000000
_cell_volume 3353.390279
_symmetry_space_group_name_H-M "C 2 2 21"
_symmetry_group_IT_number 20
_symmetry_cell_setting 'orthorhombic'
loop_
_space_group_symop_operation_xyz
x,y,z
-x,-y,1/2+z
x,-y,-z
-x,y,1/2-z
1/2+x,1/2+y,z
1/2-x,1/2-y,1/2+z
1/2+x,1/2-y,-z
1/2-x,1/2+y,1/2-z
loop_
_atom_site_type_symbol
_atom_site_label
_atom_site_fract_x
_atom_site_fract_y
_atom_site_fract_z
Si Si1 0.011201 0.311131 0.383528
Si Si2 0.257329 0.575092 0.428240
Si Si3 0.433482 0.579455 0.205117
Si Si4 0.175346 0.945317 0.408560
Si Si5 0.932088 0.454153 0.795614
Si Si6 0.856418 0.237343 0.331201
Si Si7 0.118016 0.695078 0.455856
Si Si8 0.290816 0.048742 0.747235
O O1 0.037330 0.197726 0.334362
O O2 0.040091 0.425192 0.336067
O O3 0.053397 0.306830 0.475291
O O4 0.925035 0.299689 0.375687
O O5 0.298573 0.500000 0.500000
O O6 0.299406 0.688399 0.399229
O O7 0.187305 0.620026 0.480519
O O8 0.238247 0.500313 0.340534
O O9 0.500000 0.516313 0.250000
O O10 0.392210 0.512411 0.130936
O O11 0.382315 0.623352 0.281871
O O12 0.147691 0.819105 0.431271
O O13 0.234634 0.956785 0.332175
O O14 0.200340 0.000000 0.500000
O O15 0.908380 0.369512 0.870398
O O16 0.863880 0.477601 0.734732
O O17 0.000000 0.402004 0.750000
O O18 0.819040 0.320613 0.260183
#
# Coordination Sequence:
#
# PCOD9319115 Si02
#       8
#     8   8   8   8   8   8   8   8
#     4  11  20  41  68  91 121 169 220 267 317 406
#     4  11  24  42  66  99 135 172 221 279 340 399
#     4  10  21  39  67  91 121 174 223 266 320 399
#     4  12  24  42  64  93 136 174 223 275 333 399
#     4  11  21  41  65  90 126 163 212 267 335 390
#     4  11  21  41  67  96 125 170 225 265 335 397
#     4  11  24  39  64  94 126 171 217 270 331 391
#     4  11  22  42  66  93 132 167 216 277 326 406
#
# _framework density 19.085163000000001
#
# number of rings (size 3 to 8) (size 9 to 14) (size 15 to 20)
#    0.000    1.000    6.250    2.250    0.000    0.500 
#    6.750    1.250    0.000    0.000    0.000    0.000 
#    0.000    0.000    0.000    0.000    0.000    0.000 
#
# Total GULP energy -178308.857350 kJ/mol
# GULP energy per Si atom -5572.151792 kJ/mol
# Density = 1.904172 g / cm^3
# Si number density = 19.085163 Si / 1000 Ang^3
#
#
#
# Elastic Constant Matrix: (Units=GPa)
#
#
# Indices 1 2 3 4 5 6 
#
# 1 82.1379 31.0734 37.2746 0.0000 0.0000 0.0000
# 2 31.0734 79.2637 28.4840 0.0000 0.0000 0.0000
# 3 37.2746 28.4840 79.9697 0.0000 0.0000 0.0000
# 4 0.0000 0.0000 0.0000 -6.9280 0.0000 0.0000
# 5 0.0000 0.0000 0.0000 0.0000 39.2310 0.0000
# 6 0.0000 0.0000 0.0000 0.0000 0.0000 16.9998
#
#
#
# Elastic Compliance Matrix: (Units=1/GPa)
#
#
# Indices 1 2 3 4 5 6 
#
# 1 0.016616 -0.004278 -0.006221 0.000000 0.000000 0.000000
# 2 -0.004278 0.015570 -0.003551 0.000000 0.000000 0.000000
# 3 -0.006221 -0.003551 0.016669 0.000000 0.000000 0.000000
# 4 0.000000 0.000000 0.000000 -0.144343 0.000000 0.000000
# 5 0.000000 0.000000 0.000000 0.000000 0.025490 0.000000
# 6 0.000000 0.000000 0.000000 0.000000 0.000000 0.058824
#
#
# Mechanical properties :
#
#
# Convention : Reuss Voigt Hill
#
# Bulk Modulus (GPa) = 48.18485 48.33724 48.26104
# Shear Modulus (GPa) = 209.67203 19.49654 114.58428
#
# Velocity S-wave (km/s) = 10.49284 3.19964 7.75685
# Velocity P-wave (km/s) = 13.11876 6.24759 10.27458
#
# Compressibility (1/GPa) = 0.02075341
#
# Stress axis : x y z
#
# Youngs Moduli (GPa) = 60.18154 64.22770 59.99005
#
# Poissons Ratio (x) = 0.27479 0.37321
# Poissons Ratio (y) = 0.25748 0.21305
# Poissons Ratio (z) = 0.37440 0.22810
#
# Static dielectric constant tensor:
#      x y z
#    x 1.740030 0.000000 0.000000 
#    y 0.000000 1.659820 0.000000 
#    z 0.000000 0.000000 1.914980 
# 
# From -- ./inp_files/21511.got.cif
#   From: 2010.05.17/outbox.cif.g08.bks.cpg/sg20_11_cif.got.tgz:21511.got - 2010.06.03 22:52:26.
