data_PCOD9319492
_publ_section_title
;
Structure prediction by ZEFSAII (Michael W. Deem and Ramdas Pophale) SiO2 
 PCOD9319492
Probable space group: C 2 2 21
;
_chemical_formula_sum "Si O2"
_cell_formula_units_Z 60
_cell_length_a 11.923875
_cell_length_b 19.961235
_cell_length_c 12.421124
_cell_angle_alpha 90.000000
_cell_angle_beta 90.000000
_cell_angle_gamma 90.000000
_cell_volume 2956.417195
_symmetry_space_group_name_H-M "C 2 2 21"
_symmetry_group_IT_number 20
_symmetry_cell_setting 'orthorhombic'
loop_
_space_group_symop_operation_xyz
x,y,z
-x,-y,1/2+z
x,-y,-z
-x,y,1/2-z
1/2+x,1/2+y,z
1/2-x,1/2-y,1/2+z
1/2+x,1/2-y,-z
1/2-x,1/2+y,1/2-z
loop_
_atom_site_type_symbol
_atom_site_label
_atom_site_fract_x
_atom_site_fract_y
_atom_site_fract_z
Si Si1 0.568705 0.812943 0.950043
Si Si2 0.744933 0.127850 0.605015
Si Si3 0.090712 0.434646 0.573709
Si Si4 0.871464 0.472109 0.264461
Si Si5 0.771970 0.500000 0.500000
Si Si6 0.821247 0.143377 0.029761
Si Si7 0.516300 0.324467 0.131695
Si Si8 0.923155 0.743890 0.852570
O O1 0.512303 0.883367 0.919172
O O2 0.549983 0.753989 0.864588
O O3 0.697429 0.825129 0.978697
O O4 0.501099 0.783060 0.050981
O O5 0.685892 0.102667 0.495593
O O6 0.713645 0.076180 0.700621
O O7 0.875310 0.138825 0.583443
O O8 0.685408 0.196350 0.642858
O O9 0.064841 0.500000 0.500000
O O10 0.125996 0.460493 0.691433
O O11 0.839575 0.481158 0.389555
O O12 0.000000 0.445224 0.250000
O O13 0.697812 0.435666 0.531513
O O14 0.902106 0.163701 0.932109
O O15 0.881736 0.180353 0.129090
O O16 0.500000 0.351469 0.250000
O O17 0.000000 0.736822 0.750000
#
# Coordination Sequence:
#
# PCOD9319492 Si02
#       8
#     8   8   8   8   4   8   8   8
#     4  10  22  39  68  98 132 169 217 287 334 396
#     4  10  21  43  69 103 131 177 222 277 342 407
#     4   9  21  42  69 102 137 167 225 282 345 395
#     4  11  24  40  71 103 133 178 219 292 342 400
#     4  12  28  44  64  98 146 180 234 270 342 424
#     4  11  25  44  63  96 133 176 220 277 331 405
#     4  11  24  43  65  95 135 178 225 271 335 407
#     4  10  22  41  68 100 126 169 224 278 342 400
#
# _framework density 20.294834999999999
#
# number of rings (size 3 to 8) (size 9 to 14) (size 15 to 20)
#    0.000    1.600    1.333    2.000   13.067    1.600 
#    8.400    0.667    0.000    0.000    0.000    0.000 
#    0.000    0.000    0.000    0.000    0.000    0.000 
#
# Total GULP energy -167505.764025 kJ/mol
# GULP energy per Si atom -5583.525467 kJ/mol
# Density = 2.024864 g / cm^3
# Si number density = 20.294835 Si / 1000 Ang^3
#
#
#
# Elastic Constant Matrix: (Units=GPa)
#
#
# Indices 1 2 3 4 5 6 
#
# 1 104.8961 34.3693 14.8480 0.0000 0.0000 0.0000
# 2 34.3693 104.9665 16.0275 0.0000 0.0000 0.0000
# 3 14.8480 16.0275 86.6434 0.0000 0.0000 0.0000
# 4 0.0000 0.0000 0.0000 14.0481 0.0000 0.0000
# 5 0.0000 0.0000 0.0000 0.0000 13.2156 0.0000
# 6 0.0000 0.0000 0.0000 0.0000 0.0000 24.9364
#
#
#
# Elastic Compliance Matrix: (Units=1/GPa)
#
#
# Indices 1 2 3 4 5 6 
#
# 1 0.010805 -0.003350 -0.001232 0.000000 0.000000 0.000000
# 2 -0.003350 0.010842 -0.001432 0.000000 0.000000 0.000000
# 3 -0.001232 -0.001432 0.012017 0.000000 0.000000 0.000000
# 4 0.000000 0.000000 0.000000 0.071184 0.000000 0.000000
# 5 0.000000 0.000000 0.000000 0.000000 0.075668 0.000000
# 6 0.000000 0.000000 0.000000 0.000000 0.000000 0.040102
#
#
# Mechanical properties :
#
#
# Convention : Reuss Voigt Hill
#
# Bulk Modulus (GPa) = 46.21472 47.44396 46.82934
# Shear Modulus (GPa) = 20.84559 25.85742 23.35150
#
# Velocity S-wave (km/s) = 3.20838 3.57331 3.39575
# Velocity P-wave (km/s) = 6.04533 6.36025 6.20479
#
# Compressibility (1/GPa) = 0.02163813
#
# Stress axis : x y z
#
# Youngs Moduli (GPa) = 92.54794 92.23148 83.21199
#
# Poissons Ratio (x) = 0.30896 0.10252
# Poissons Ratio (y) = 0.31002 0.11912
# Poissons Ratio (z) = 0.11402 0.13204
#
# Static dielectric constant tensor:
#      x y z
#    x 1.705240 0.000000 0.000000 
#    y 0.000000 1.759260 0.000000 
#    z 0.000000 0.000000 1.724210 
# 
# From -- ./inp_files/14366.got.cif
#   From: 2010.05.17/outbox.cif.g08.bks.cpg/sg20_8_cif.got.tgz:14366.got - 2010.06.03 22:52:26.
