data_PCOD9319836
_publ_section_title
;
Structure prediction by ZEFSAII (Michael W. Deem and Ramdas Pophale) SiO2 
 PCOD9319836
Probable space group: C 2 2 21
;
_chemical_formula_sum "Si O2"
_cell_formula_units_Z 64
_cell_length_a 8.756080
_cell_length_b 22.776685
_cell_length_c 14.883958
_cell_angle_alpha 90.000000
_cell_angle_beta 90.000000
_cell_angle_gamma 90.000000
_cell_volume 2968.374364
_symmetry_space_group_name_H-M "C 2 2 21"
_symmetry_group_IT_number 20
_symmetry_cell_setting 'orthorhombic'
loop_
_space_group_symop_operation_xyz
x,y,z
-x,-y,1/2+z
x,-y,-z
-x,y,1/2-z
1/2+x,1/2+y,z
1/2-x,1/2-y,1/2+z
1/2+x,1/2-y,-z
1/2-x,1/2+y,1/2-z
loop_
_atom_site_type_symbol
_atom_site_label
_atom_site_fract_x
_atom_site_fract_y
_atom_site_fract_z
Si Si1 0.572668 0.054147 0.152058
Si Si2 0.653342 0.848547 0.569536
Si Si3 0.416131 0.815686 0.113315
Si Si4 0.856239 0.058276 0.529737
Si Si5 0.650875 0.399988 0.557465
Si Si6 0.161598 0.881005 0.212579
Si Si7 0.143957 0.421696 0.117492
Si Si8 0.452668 0.692838 0.346449
O O1 0.500000 0.045977 0.250000
O O2 0.470117 0.106575 0.109517
O O3 0.745967 0.077536 0.139860
O O4 0.584166 0.988511 0.110446
O O5 0.590711 0.804427 0.494335
O O6 0.760199 0.888305 0.507189
O O7 0.773798 0.819372 0.636778
O O8 0.259192 0.828280 0.167121
O O9 0.504679 0.876867 0.125494
O O10 0.509893 0.761371 0.150979
O O11 0.873605 0.070878 0.634687
O O12 0.011620 0.058538 0.472100
O O13 0.770570 0.000000 0.500000
O O14 0.760567 0.401974 0.470354
O O15 0.565241 0.339737 0.582724
O O16 0.254274 0.911556 0.293540
O O17 0.000000 0.859290 0.250000
O O18 0.500000 0.668297 0.250000
#
# Coordination Sequence:
#
# PCOD9319836 Si02
#       8
#     8   8   8   8   8   8   8   8
#     4  12  25  42  68 102 140 185 233 289 358 430
#     4  10  25  41  68 100 133 184 234 286 354 427
#     4  11  25  45  72 101 136 189 235 303 359 415
#     4  10  22  40  64  94 141 185 225 280 346 425
#     4  11  24  43  67  97 139 185 229 291 362 416
#     4  11  23  42  66 106 141 181 243 288 356 428
#     4  12  24  43  68 105 144 183 233 299 363 431
#     4  11  25  50  69  98 141 186 243 297 358 428
#
# _framework density 21.560624000000001
#
# number of rings (size 3 to 8) (size 9 to 14) (size 15 to 20)
#    0.000    1.000    2.500    3.750    7.000    0.000 
#    0.000    3.125    0.000    0.000    0.000    0.000 
#    0.000    0.000    0.000    0.000    0.000    0.000 
#
# Total GULP energy -178566.516936 kJ/mol
# GULP energy per Si atom -5580.203654 kJ/mol
# Density = 2.151155 g / cm^3
# Si number density = 21.560624 Si / 1000 Ang^3
#
#
#
# Elastic Constant Matrix: (Units=GPa)
#
#
# Indices 1 2 3 4 5 6 
#
# 1 91.4173 24.3067 18.1038 0.0000 0.0000 0.0000
# 2 24.3067 84.5238 0.4285 0.0000 0.0000 0.0000
# 3 18.1038 0.4285 74.4375 0.0000 0.0000 0.0000
# 4 0.0000 0.0000 0.0000 21.8010 0.0000 0.0000
# 5 0.0000 0.0000 0.0000 0.0000 45.1488 0.0000
# 6 0.0000 0.0000 0.0000 0.0000 0.0000 -21.6317
#
#
#
# Elastic Compliance Matrix: (Units=1/GPa)
#
#
# Indices 1 2 3 4 5 6 
#
# 1 0.012487 -0.003576 -0.003016 0.000000 0.000000 0.000000
# 2 -0.003576 0.012855 0.000796 0.000000 0.000000 0.000000
# 3 -0.003016 0.000796 0.014163 0.000000 0.000000 0.000000
# 4 0.000000 0.000000 0.000000 0.045869 0.000000 0.000000
# 5 0.000000 0.000000 0.000000 0.000000 0.022149 0.000000
# 6 0.000000 0.000000 0.000000 0.000000 0.000000 -0.046228
#
#
# Mechanical properties :
#
#
# Convention : Reuss Voigt Hill
#
# Bulk Modulus (GPa) = 35.82616 37.33963 36.58290
# Shear Modulus (GPa) = 60.83318 22.89960 41.86639
#
# Velocity S-wave (km/s) = 5.31754 3.26253 4.41136
# Velocity P-wave (km/s) = 7.37253 5.61677 6.55371
#
# Compressibility (1/GPa) = 0.02791256
#
# Stress axis : x y z
#
# Youngs Moduli (GPa) = 80.08392 77.78957 70.60601
#
# Poissons Ratio (x) = 0.27814 0.21297
# Poissons Ratio (y) = 0.28635 -0.05618
# Poissons Ratio (z) = 0.24156 -0.06189
#
# Static dielectric constant tensor:
#      x y z
#    x 1.841480 0.000000 0.000000 
#    y 0.000000 1.828740 0.000000 
#    z 0.000000 0.000000 1.876860 
# 
# From -- ./inp_files/19378.got.cif
#   From: 2010.05.17/outbox.cif.g08.bks.cpg/sg20_10_cif.got.tgz:19378.got - 2010.06.03 22:52:26.
