data_PCOD9319296
_publ_section_title
;
Structure prediction by ZEFSAII (Michael W. Deem and Ramdas Pophale) SiO2 
 PCOD9319296
Probable space group: C 2 2 21
;
_chemical_formula_sum "Si O2"
_cell_formula_units_Z 52
_cell_length_a 7.525721
_cell_length_b 11.642025
_cell_length_c 22.842376
_cell_angle_alpha 90.000000
_cell_angle_beta 90.000000
_cell_angle_gamma 90.000000
_cell_volume 2001.326368
_symmetry_space_group_name_H-M "C 2 2 21"
_symmetry_group_IT_number 20
_symmetry_cell_setting 'orthorhombic'
loop_
_space_group_symop_operation_xyz
x,y,z
-x,-y,1/2+z
x,-y,-z
-x,y,1/2-z
1/2+x,1/2+y,z
1/2-x,1/2-y,1/2+z
1/2+x,1/2-y,-z
1/2-x,1/2+y,1/2-z
loop_
_atom_site_type_symbol
_atom_site_label
_atom_site_fract_x
_atom_site_fract_y
_atom_site_fract_z
Si Si1 0.253602 0.976526 0.293112
Si Si2 0.118164 0.143343 0.522812
Si Si3 0.876826 0.678645 0.127954
Si Si4 0.600829 0.025319 0.911119
Si Si5 0.852782 0.039821 0.667675
Si Si6 0.764143 0.663604 0.944379
Si Si7 0.500000 0.819337 0.750000
O O1 0.371958 0.924050 0.345278
O O2 0.233442 0.920981 0.229243
O O3 0.346451 0.096930 0.275374
O O4 0.057196 0.989085 0.319506
O O5 0.162523 0.235766 0.575426
O O6 0.219885 0.037238 0.552373
O O7 0.184520 0.210763 0.466131
O O8 0.907480 0.126088 0.518173
O O9 0.735366 0.578193 0.143462
O O10 0.922710 0.736806 0.190819
O O11 0.037455 0.602320 0.102273
O O12 0.445573 0.090382 0.946307
O O13 0.810060 0.137187 0.620315
#
# Coordination Sequence:
#
# PCOD9319296 Si02
#       7
#     8   8   8   8   8   8   4
#     4   9  16  34  65  89 123 162 201 260 334 390
#     4  12  23  43  62  90 132 169 216 277 315 382
#     4   9  21  39  66  91 128 165 214 260 327 389
#     4  10  21  41  64  89 126 167 209 264 331 388
#     4   9  18  35  64  93 118 164 211 257 330 402
#     4  11  23  40  62  87 127 169 215 271 326 373
#     4   8  16  36  58  90 130 158 200 270 312 388
#
# _framework density 25.982768
#
# number of rings (size 3 to 8) (size 9 to 14) (size 15 to 20)
#    0.000    2.154    3.077    0.923    0.000    2.462 
#    8.308    0.000    6.769    0.000    0.000    0.000 
#    0.000    0.000    0.000    0.000    0.000    0.000 
#
# Total GULP energy -145372.938510 kJ/mol
# GULP energy per Si atom -5591.266866 kJ/mol
# Density = 2.592363 g / cm^3
# Si number density = 25.982768 Si / 1000 Ang^3
#
#
#
# Elastic Constant Matrix: (Units=GPa)
#
#
# Indices 1 2 3 4 5 6 
#
# 1 112.2091 7.2097 17.4326 0.0000 0.0000 0.0000
# 2 7.2097 87.9327 44.4159 0.0000 0.0000 0.0000
# 3 17.4326 44.4159 124.0562 0.0000 0.0000 0.0000
# 4 0.0000 0.0000 0.0000 55.8666 0.0000 0.0000
# 5 0.0000 0.0000 0.0000 0.0000 49.8758 0.0000
# 6 0.0000 0.0000 0.0000 0.0000 0.0000 23.7380
#
#
#
# Elastic Compliance Matrix: (Units=1/GPa)
#
#
# Indices 1 2 3 4 5 6 
#
# 1 0.009112 -0.000122 -0.001237 0.000000 0.000000 0.000000
# 2 -0.000122 0.013885 -0.004954 0.000000 0.000000 0.000000
# 3 -0.001237 -0.004954 0.010008 0.000000 0.000000 0.000000
# 4 0.000000 0.000000 0.000000 0.017900 0.000000 0.000000
# 5 0.000000 0.000000 0.000000 0.000000 0.020050 0.000000
# 6 0.000000 0.000000 0.000000 0.000000 0.000000 0.042127
#
#
# Mechanical properties :
#
#
# Convention : Reuss Voigt Hill
#
# Bulk Modulus (GPa) = 49.07034 51.36825 50.21929
# Shear Modulus (GPa) = 37.73587 42.90540 40.32063
#
# Velocity S-wave (km/s) = 3.81509 4.06803 3.94359
# Velocity P-wave (km/s) = 6.19139 6.47134 6.33291
#
# Compressibility (1/GPa) = 0.02037891
#
# Stress axis : x y z
#
# Youngs Moduli (GPa) = 109.74639 72.02193 99.91724
#
# Poissons Ratio (x) = 0.00882 0.12355
# Poissons Ratio (y) = 0.01344 0.49498
# Poissons Ratio (z) = 0.13571 0.35679
#
# Static dielectric constant tensor:
#      x y z
#    x 2.083410 0.000000 0.000000 
#    y 0.000000 2.136400 0.000000 
#    z 0.000000 0.000000 2.058210 
# 
# From -- ./inp_files/30119.got.cif
#   From: 2010.05.17/outbox.cif.g08.bks.cpg/sg20_16_cif.got.tgz:30119.got - 2010.06.03 22:52:26.
