data_PCOD9319949
_publ_section_title
;
Structure prediction by ZEFSAII (Michael W. Deem and Ramdas Pophale) SiO2 
 PCOD9319949
Probable space group: C 2 2 21
;
_chemical_formula_sum "Si O2"
_cell_formula_units_Z 56
_cell_length_a 19.457681
_cell_length_b 11.783775
_cell_length_c 12.557947
_cell_angle_alpha 90.000000
_cell_angle_beta 90.000000
_cell_angle_gamma 90.000000
_cell_volume 2879.348061
_symmetry_space_group_name_H-M "C 2 2 21"
_symmetry_group_IT_number 20
_symmetry_cell_setting 'orthorhombic'
loop_
_space_group_symop_operation_xyz
x,y,z
-x,-y,1/2+z
x,-y,-z
-x,y,1/2-z
1/2+x,1/2+y,z
1/2-x,1/2-y,1/2+z
1/2+x,1/2-y,-z
1/2-x,1/2+y,1/2-z
loop_
_atom_site_type_symbol
_atom_site_label
_atom_site_fract_x
_atom_site_fract_y
_atom_site_fract_z
Si Si1 0.000000 0.066955 0.250000
Si Si2 0.838015 0.228762 0.678017
Si Si3 0.871627 0.159392 0.133942
Si Si4 0.304153 0.885637 0.196018
Si Si5 0.543877 0.401611 0.088113
Si Si6 0.381623 0.000000 0.000000
Si Si7 0.264302 0.038767 0.379777
Si Si8 0.908539 0.254915 0.911498
O O1 0.050231 0.133557 0.330236
O O2 0.050717 0.980990 0.191185
O O3 0.775739 0.140586 0.679820
O O4 0.892860 0.183320 0.593126
O O5 0.802791 0.343186 0.638262
O O6 0.870947 0.248666 0.796366
O O7 0.845217 0.267682 0.199668
O O8 0.816077 0.059944 0.150181
O O9 0.867688 0.195986 0.009559
O O10 0.304806 0.952099 0.305519
O O11 0.335615 0.955932 0.098192
O O12 0.477032 0.321667 0.094716
O O13 0.539422 0.500000 0.000000
O O14 0.419174 0.886232 0.952213
O O15 0.266527 0.000000 0.500000
#
# Coordination Sequence:
#
# PCOD9319949 Si02
#       8
#     4   8   8   8   8   4   8   8
#     4  12  22  40  62  98 126 164 220 272 316 400
#     4  11  23  41  64  99 131 167 219 277 330 400
#     4  10  24  39  65  95 128 176 217 271 327 400
#     4  10  22  41  64  96 127 172 216 274 328 395
#     4  12  25  39  64  95 130 167 215 271 333 389
#     4  10  22  42  68  90 124 174 230 268 322 406
#     4  11  23  41  66  93 133 175 219 272 339 398
#     4  11  21  44  66  92 127 177 224 258 339 401
#
# _framework density 19.448847000000001
#
# number of rings (size 3 to 8) (size 9 to 14) (size 15 to 20)
#    0.000    1.143    4.286    1.714    3.000    1.143 
#    1.286    1.429    0.000    0.000    0.000    0.000 
#    0.000    0.000    0.000    0.000    0.000    0.000 
#
# Total GULP energy -156071.521606 kJ/mol
# GULP energy per Si atom -5573.982914 kJ/mol
# Density = 1.940458 g / cm^3
# Si number density = 19.448847 Si / 1000 Ang^3
#
#
#
# Elastic Constant Matrix: (Units=GPa)
#
#
# Indices 1 2 3 4 5 6 
#
# 1 87.7461 37.8112 29.2836 0.0000 0.0000 0.0000
# 2 37.8112 82.3179 56.3814 0.0000 0.0000 0.0000
# 3 29.2836 56.3814 88.4873 0.0000 0.0000 0.0000
# 4 0.0000 0.0000 0.0000 36.6768 0.0000 0.0000
# 5 0.0000 0.0000 0.0000 0.0000 26.5773 0.0000
# 6 0.0000 0.0000 0.0000 0.0000 0.0000 32.3305
#
#
#
# Elastic Compliance Matrix: (Units=1/GPa)
#
#
# Indices 1 2 3 4 5 6 
#
# 1 0.014256 -0.005885 -0.000968 0.000000 0.000000 0.000000
# 2 -0.005885 0.023984 -0.013335 0.000000 0.000000 0.000000
# 3 -0.000968 -0.013335 0.020118 0.000000 0.000000 0.000000
# 4 0.000000 0.000000 0.000000 0.027265 0.000000 0.000000
# 5 0.000000 0.000000 0.000000 0.000000 0.037626 0.000000
# 6 0.000000 0.000000 0.000000 0.000000 0.000000 0.030931
#
#
# Mechanical properties :
#
#
# Convention : Reuss Voigt Hill
#
# Bulk Modulus (GPa) = 55.60921 56.16709 55.88815
# Shear Modulus (GPa) = 24.93163 28.12194 26.52678
#
# Velocity S-wave (km/s) = 3.58426 3.80668 3.69714
# Velocity P-wave (km/s) = 6.76637 6.94717 6.85737
#
# Compressibility (1/GPa) = 0.01798263
#
# Stress axis : x y z
#
# Youngs Moduli (GPa) = 70.14832 41.69383 49.70749
#
# Poissons Ratio (x) = 0.24537 0.04811
# Poissons Ratio (y) = 0.41283 0.66283
# Poissons Ratio (z) = 0.06789 0.55597
#
# Static dielectric constant tensor:
#      x y z
#    x 1.662780 0.000000 0.000000 
#    y 0.000000 1.673330 0.000000 
#    z 0.000000 0.000000 1.677440 
# 
# From -- ./inp_files/16357.got.cif
#   From: 2010.05.17/outbox.cif.g08.bks.cpg/sg20_9_cif.got.tgz:16357.got - 2010.06.03 22:52:26.
