data_PCOD9319443
_publ_section_title
;
Structure prediction by ZEFSAII (Michael W. Deem and Ramdas Pophale) SiO2 
 PCOD9319443
Probable space group: C 2 2 21
;
_chemical_formula_sum "Si O2"
_cell_formula_units_Z 32
_cell_length_a 8.973039
_cell_length_b 15.634446
_cell_length_c 9.572885
_cell_angle_alpha 90.000000
_cell_angle_beta 90.000000
_cell_angle_gamma 90.000000
_cell_volume 1342.965617
_symmetry_space_group_name_H-M "C 2 2 21"
_symmetry_group_IT_number 20
_symmetry_cell_setting 'orthorhombic'
loop_
_space_group_symop_operation_xyz
x,y,z
-x,-y,1/2+z
x,-y,-z
-x,y,1/2-z
1/2+x,1/2+y,z
1/2-x,1/2-y,1/2+z
1/2+x,1/2-y,-z
1/2-x,1/2+y,1/2-z
loop_
_atom_site_type_symbol
_atom_site_label
_atom_site_fract_x
_atom_site_fract_y
_atom_site_fract_z
Si Si1 0.569411 0.230170 0.076674
Si Si2 0.512575 0.578241 0.915406
Si Si3 0.644265 0.905997 0.470011
Si Si4 0.840732 0.269924 0.268013
O O1 0.479623 0.320245 0.079765
O O2 0.696771 0.230241 0.194373
O O3 0.449303 0.155407 0.069736
O O4 0.660983 0.219831 0.932743
O O5 0.500000 0.556694 0.750000
O O6 0.677849 0.585699 0.985297
O O7 0.436565 0.500000 0.000000
O O8 0.638302 0.859062 0.318555
O O9 0.583134 0.000000 0.500000
O O10 0.000000 0.221438 0.250000
#
# Coordination Sequence:
#
# PCOD9319443 Si02
#       4
#     8   8   8   8
#     4  10  21  42  70 101 141 183 232 292 352 419
#     4  10  23  44  69  99 139 188 237 292 355 425
#     4   9  20  41  67  99 138 180 235 289 344 416
#     4   9  20  39  66  99 136 179 228 283 349 418
#
# _framework density 23.827863000000001
#
# number of rings (size 3 to 8) (size 9 to 14) (size 15 to 20)
#    0.000    2.500    0.000    0.000    0.000   15.000 
#    0.000   33.750    0.000   39.000    0.000    0.000 
#    0.000    0.000    0.000    0.000    0.000    0.000 
#
# Total GULP energy -89079.817336 kJ/mol
# GULP energy per Si atom -5567.488584 kJ/mol
# Density = 2.377363 g / cm^3
# Si number density = 23.827863 Si / 1000 Ang^3
#
#
#
# Elastic Constant Matrix: (Units=GPa)
#
#
# Indices 1 2 3 4 5 6 
#
# 1 108.1058 44.8547 44.5610 0.0000 0.0000 0.0000
# 2 44.8547 192.6193 70.8602 0.0000 0.0000 0.0000
# 3 44.5610 70.8602 180.3411 0.0000 0.0000 0.0000
# 4 0.0000 0.0000 0.0000 23.7360 0.0000 0.0000
# 5 0.0000 0.0000 0.0000 0.0000 37.7391 0.0000
# 6 0.0000 0.0000 0.0000 0.0000 0.0000 17.3782
#
#
#
# Elastic Compliance Matrix: (Units=1/GPa)
#
#
# Indices 1 2 3 4 5 6 
#
# 1 0.010804 -0.001793 -0.001965 0.000000 0.000000 0.000000
# 2 -0.001793 0.006366 -0.002058 0.000000 0.000000 0.000000
# 3 -0.001965 -0.002058 0.006839 0.000000 0.000000 0.000000
# 4 0.000000 0.000000 0.000000 0.042130 0.000000 0.000000
# 5 0.000000 0.000000 0.000000 0.000000 0.026498 0.000000
# 6 0.000000 0.000000 0.000000 0.000000 0.000000 0.057543
#
#
# Mechanical properties :
#
#
# Convention : Reuss Voigt Hill
#
# Bulk Modulus (GPa) = 80.79632 89.06867 84.93249
# Shear Modulus (GPa) = 30.13136 37.15666 33.64401
#
# Velocity S-wave (km/s) = 3.55990 3.95318 3.76168
# Velocity P-wave (km/s) = 7.13296 7.63532 7.38841
#
# Compressibility (1/GPa) = 0.01237680
#
# Stress axis : x y z
#
# Youngs Moduli (GPa) = 92.55689 157.07503 146.21105
#
# Poissons Ratio (x) = 0.28164 0.28732
# Poissons Ratio (y) = 0.16596 0.30097
# Poissons Ratio (z) = 0.18188 0.32333
#
# Static dielectric constant tensor:
#      x y z
#    x 2.020170 0.000000 0.000000 
#    y 0.000000 1.987710 0.000000 
#    z 0.000000 0.000000 1.959060 
# 
# From -- ./inp_files/12453.got.cif
#   From: 2010.05.17/outbox.cif.g08.bks.cpg/sg20_7_cif.got.tgz:12453.got - 2010.06.03 22:52:26.
