data_PCOD9319975
_publ_section_title
;
Structure prediction by ZEFSAII (Michael W. Deem and Ramdas Pophale) SiO2 
 PCOD9319975
Probable space group: C 2 2 21
;
_chemical_formula_sum "Si O2"
_cell_formula_units_Z 48
_cell_length_a 5.061926
_cell_length_b 26.771974
_cell_length_c 14.918337
_cell_angle_alpha 90.000000
_cell_angle_beta 90.000000
_cell_angle_gamma 90.000000
_cell_volume 2021.699483
_symmetry_space_group_name_H-M "C 2 2 21"
_symmetry_group_IT_number 20
_symmetry_cell_setting 'orthorhombic'
loop_
_space_group_symop_operation_xyz
x,y,z
-x,-y,1/2+z
x,-y,-z
-x,y,1/2-z
1/2+x,1/2+y,z
1/2-x,1/2-y,1/2+z
1/2+x,1/2-y,-z
1/2-x,1/2+y,1/2-z
loop_
_atom_site_type_symbol
_atom_site_label
_atom_site_fract_x
_atom_site_fract_y
_atom_site_fract_z
Si Si1 0.960005 0.768759 0.545844
Si Si2 0.096267 0.090750 0.848709
Si Si3 0.593791 0.441613 0.654669
Si Si4 0.435819 0.998246 0.104802
Si Si5 0.580088 0.820915 0.351353
Si Si6 0.702452 0.372005 0.499869
O O1 0.154325 0.743750 0.471074
O O2 0.058450 0.738032 0.632342
O O3 0.017195 0.826957 0.536616
O O4 0.142451 0.150728 0.855571
O O5 0.000000 0.079431 0.750000
O O6 0.915808 0.085060 0.935301
O O7 0.349552 0.057117 0.866339
O O8 0.500000 0.420623 0.750000
O O9 0.326420 0.466912 0.615824
O O10 0.746958 0.402247 0.591394
O O11 0.816168 0.484143 0.663441
O O12 0.506628 0.000000 0.000000
O O13 0.500000 0.833476 0.250000
O O14 0.417172 0.845619 0.434515
#
# Coordination Sequence:
#
# PCOD9319975 Si02
#       6
#     8   8   8   8   8   8
#     4  10  22  41  67  97 138 182 228 284 352 423
#     4  12  24  42  70 104 141 185 240 303 370 432
#     4  12  28  48  70 102 144 191 245 300 356 440
#     4  12  26  47  73 100 138 187 242 304 368 427
#     4  11  23  40  69 106 145 180 239 305 362 428
#     4  11  24  45  71 102 145 198 239 295 368 433
#
# _framework density 23.742402999999999
#
# number of rings (size 3 to 8) (size 9 to 14) (size 15 to 20)
#    0.000    0.667    5.000    2.500    2.333    2.000 
#    0.000    0.000    0.000    0.000    0.000    0.000 
#    0.000    0.000    0.000    0.000    0.000    0.000 
#
# Total GULP energy -133940.076767 kJ/mol
# GULP energy per Si atom -5580.836532 kJ/mol
# Density = 2.368836 g / cm^3
# Si number density = 23.742403 Si / 1000 Ang^3
#
#
#
# Elastic Constant Matrix: (Units=GPa)
#
#
# Indices 1 2 3 4 5 6 
#
# 1 82.6645 13.8509 26.1041 0.0000 0.0000 0.0000
# 2 13.8509 88.4732 38.6171 0.0000 0.0000 0.0000
# 3 26.1041 38.6171 135.1332 0.0000 0.0000 0.0000
# 4 0.0000 0.0000 0.0000 41.4996 0.0000 0.0000
# 5 0.0000 0.0000 0.0000 0.0000 29.8200 0.0000
# 6 0.0000 0.0000 0.0000 0.0000 0.0000 32.9824
#
#
#
# Elastic Compliance Matrix: (Units=1/GPa)
#
#
# Indices 1 2 3 4 5 6 
#
# 1 0.012971 -0.001071 -0.002200 0.000000 0.000000 0.000000
# 2 -0.001071 0.013002 -0.003509 0.000000 0.000000 0.000000
# 3 -0.002200 -0.003509 0.008828 0.000000 0.000000 0.000000
# 4 0.000000 0.000000 0.000000 0.024097 0.000000 0.000000
# 5 0.000000 0.000000 0.000000 0.000000 0.033535 0.000000
# 6 0.000000 0.000000 0.000000 0.000000 0.000000 0.030319
#
#
# Mechanical properties :
#
#
# Convention : Reuss Voigt Hill
#
# Bulk Modulus (GPa) = 47.07498 51.49058 49.28278
# Shear Modulus (GPa) = 34.86985 36.04029 35.45507
#
# Velocity S-wave (km/s) = 3.83649 3.90034 3.86855
# Velocity P-wave (km/s) = 6.28453 6.48212 6.38409
#
# Compressibility (1/GPa) = 0.02124271
#
# Stress axis : x y z
#
# Youngs Moduli (GPa) = 77.09444 76.91131 113.27917
#
# Poissons Ratio (x) = 0.08234 0.24919
# Poissons Ratio (y) = 0.08253 0.39747
# Poissons Ratio (z) = 0.16959 0.26987
#
# Static dielectric constant tensor:
#      x y z
#    x 1.975690 0.000000 0.000000 
#    y 0.000000 1.944270 0.000000 
#    z 0.000000 0.000000 1.963760 
# 
# From -- ./inp_files/17784.got.cif
#   From: 2010.05.17/outbox.cif.g08.bks.cpg/sg20_9_cif.got.tgz:17784.got - 2010.06.03 22:52:26.
