data_PCOD9319498
_publ_section_title
;
Structure prediction by ZEFSAII (Michael W. Deem and Ramdas Pophale) SiO2 
 PCOD9319498
Probable space group: C 2 2 21
;
_chemical_formula_sum "Si O2"
_cell_formula_units_Z 48
_cell_length_a 8.998516
_cell_length_b 27.643157
_cell_length_c 9.769814
_cell_angle_alpha 90.000000
_cell_angle_beta 90.000000
_cell_angle_gamma 90.000000
_cell_volume 2430.215739
_symmetry_space_group_name_H-M "C 2 2 21"
_symmetry_group_IT_number 20
_symmetry_cell_setting 'orthorhombic'
loop_
_space_group_symop_operation_xyz
x,y,z
-x,-y,1/2+z
x,-y,-z
-x,y,1/2-z
1/2+x,1/2+y,z
1/2-x,1/2-y,1/2+z
1/2+x,1/2-y,-z
1/2-x,1/2+y,1/2-z
loop_
_atom_site_type_symbol
_atom_site_label
_atom_site_fract_x
_atom_site_fract_y
_atom_site_fract_z
Si Si1 0.170528 0.185681 0.495367
Si Si2 0.344945 0.128362 0.960604
Si Si3 0.385392 0.055003 0.501456
Si Si4 0.844590 0.097428 0.799971
Si Si5 0.016713 0.272808 0.088381
Si Si6 0.825293 0.374865 0.735948
O O1 0.130172 0.142884 0.599047
O O2 0.038954 0.223597 0.479365
O O3 0.315935 0.213208 0.551483
O O4 0.227060 0.161862 0.352987
O O5 0.484742 0.091783 0.954940
O O6 0.243420 0.116923 0.831738
O O7 0.411548 0.182272 0.953983
O O8 0.270755 0.120286 0.108920
O O9 0.255053 0.060998 0.611931
O O10 0.333365 0.075949 0.353930
O O11 0.436719 0.000000 0.500000
O O12 0.000000 0.076569 0.750000
O O13 0.000000 0.267468 0.250000
O O14 0.000000 0.358871 0.750000
#
# Coordination Sequence:
#
# PCOD9319498 Si02
#       6
#     8   8   8   8   8   8
#     4  11  25  39  60  88 129 173 217 262 316 377
#     4  11  21  41  66  90 128 163 217 270 315 381
#     4  10  21  43  70  96 124 161 211 267 326 393
#     4  11  24  43  63  94 132 172 208 265 325 380
#     4  12  24  39  60  94 126 170 224 268 311 381
#     4   9  19  38  61  89 123 158 207 267 316 380
#
# _framework density 19.751331
#
# number of rings (size 3 to 8) (size 9 to 14) (size 15 to 20)
#    0.000    1.333    6.667    0.500    4.667    4.000 
#    0.000    5.000    0.000    0.000    0.000    0.000 
#    0.000    0.000    0.000    0.000    0.000    0.000 
#
# Total GULP energy -134114.600612 kJ/mol
# GULP energy per Si atom -5588.108359 kJ/mol
# Density = 1.970638 g / cm^3
# Si number density = 19.751331 Si / 1000 Ang^3
#
#
#
# Elastic Constant Matrix: (Units=GPa)
#
#
# Indices 1 2 3 4 5 6 
#
# 1 28.2661 -8.9677 9.3365 0.0000 0.0000 0.0000
# 2 -8.9677 56.8070 -6.3386 0.0000 0.0000 0.0000
# 3 9.3365 -6.3386 105.2922 0.0000 0.0000 0.0000
# 4 0.0000 0.0000 0.0000 7.1588 0.0000 0.0000
# 5 0.0000 0.0000 0.0000 0.0000 16.1350 0.0000
# 6 0.0000 0.0000 0.0000 0.0000 0.0000 44.8431
#
#
#
# Elastic Compliance Matrix: (Units=1/GPa)
#
#
# Indices 1 2 3 4 5 6 
#
# 1 0.038188 0.005689 -0.003044 0.000000 0.000000 0.000000
# 2 0.005689 0.018570 0.000613 0.000000 0.000000 0.000000
# 3 -0.003044 0.000613 0.009804 0.000000 0.000000 0.000000
# 4 0.000000 0.000000 0.000000 0.139688 0.000000 0.000000
# 5 0.000000 0.000000 0.000000 0.000000 0.061977 0.000000
# 6 0.000000 0.000000 0.000000 0.000000 0.000000 0.022300
#
#
# Mechanical properties :
#
#
# Convention : Reuss Voigt Hill
#
# Bulk Modulus (GPa) = 13.68367 19.82505 16.75436
# Shear Modulus (GPa) = 16.21426 26.71638 21.46532
#
# Velocity S-wave (km/s) = 2.86828 3.68181 3.30021
# Velocity P-wave (km/s) = 4.23230 5.30410 4.79822
#
# Compressibility (1/GPa) = 0.07307982
#
# Stress axis : x y z
#
# Youngs Moduli (GPa) = 26.18597 53.85030 101.99698
#
# Poissons Ratio (x) = -0.30635 0.31046
# Poissons Ratio (y) = -0.14897 -0.06257
# Poissons Ratio (z) = 0.07970 -0.03304
#
# Static dielectric constant tensor:
#      x y z
#    x 1.727130 0.000000 0.000000 
#    y 0.000000 1.669120 0.000000 
#    z 0.000000 0.000000 1.694230 
# 
# From -- ./inp_files/6469.got.cif
#   From: 2010.05.17/outbox.cif.g08.bks.cpg/sg20_4_cif.got.tgz:6469.got - 2010.06.03 22:52:26.
