data_PCOD9319071
_publ_section_title
;
Structure prediction by ZEFSAII (Michael W. Deem and Ramdas Pophale) SiO2 
 PCOD9319071
Probable space group: C 2 2 21
;
_chemical_formula_sum "Si O2"
_cell_formula_units_Z 60
_cell_length_a 15.383166
_cell_length_b 11.488164
_cell_length_c 17.859632
_cell_angle_alpha 90.000000
_cell_angle_beta 90.000000
_cell_angle_gamma 90.000000
_cell_volume 3156.231568
_symmetry_space_group_name_H-M "C 2 2 21"
_symmetry_group_IT_number 20
_symmetry_cell_setting 'orthorhombic'
loop_
_space_group_symop_operation_xyz
x,y,z
-x,-y,1/2+z
x,-y,-z
-x,y,1/2-z
1/2+x,1/2+y,z
1/2-x,1/2-y,1/2+z
1/2+x,1/2-y,-z
1/2-x,1/2+y,1/2-z
loop_
_atom_site_type_symbol
_atom_site_label
_atom_site_fract_x
_atom_site_fract_y
_atom_site_fract_z
Si Si1 0.333136 0.944236 0.572866
Si Si2 0.089885 0.792646 0.428943
Si Si3 0.706321 0.396370 0.180685
Si Si4 0.555673 0.798668 0.825207
Si Si5 0.995586 0.000000 0.500000
Si Si6 0.274201 0.210339 0.963925
Si Si7 0.239463 0.343677 0.155110
Si Si8 0.346387 0.623642 0.406054
O O1 0.390152 0.907648 0.644182
O O2 0.280491 0.829937 0.546870
O O3 0.379330 0.000000 0.500000
O O4 0.270681 0.044785 0.602459
O O5 0.131741 0.739073 0.503551
O O6 0.168012 0.789541 0.369028
O O7 0.009114 0.727701 0.393386
O O8 0.055486 0.920823 0.447739
O O9 0.622593 0.309835 0.182466
O O10 0.769443 0.352137 0.115086
O O11 0.753250 0.384424 0.259863
O O12 0.676392 0.523960 0.154227
O O13 0.500000 0.814378 0.750000
O O14 0.934105 0.916629 0.551167
O O15 0.222856 0.135020 0.025936
O O16 0.165258 0.248539 0.135184
#
# Coordination Sequence:
#
# PCOD9319071 Si02
#       8
#     8   8   8   8   4   8   8   8
#     4  11  21  41  65  90 126 171 203 254 316 375
#     4  11  21  37  63  96 121 159 210 260 302 379
#     4  11  22  40  65  92 126 168 208 263 320 365
#     4  11  23  40  62  95 128 163 201 257 327 374
#     4  12  20  38  66  92 128 158 204 266 316 364
#     4  10  21  39  64  94 120 160 219 257 299 375
#     4  11  25  39  65  93 129 164 219 255 306 386
#     4  11  21  39  65  93 120 166 212 257 308 378
#
# _framework density 19.010012
#
# number of rings (size 3 to 8) (size 9 to 14) (size 15 to 20)
#    0.000    1.067    6.667    1.600    3.733    0.000 
#    0.000    4.000    0.000    0.000    0.000    0.000 
#    0.000    0.000    0.000    0.000    0.000    0.000 
#
# Total GULP energy -167306.355150 kJ/mol
# GULP energy per Si atom -5576.878505 kJ/mol
# Density = 1.896674 g / cm^3
# Si number density = 19.010012 Si / 1000 Ang^3
#
#
#
# Elastic Constant Matrix: (Units=GPa)
#
#
# Indices 1 2 3 4 5 6 
#
# 1 51.7532 2.5565 13.2455 0.0000 0.0000 0.0000
# 2 2.5565 51.2839 11.4700 0.0000 0.0000 0.0000
# 3 13.2455 11.4700 108.2697 0.0000 0.0000 0.0000
# 4 0.0000 0.0000 0.0000 25.2640 0.0000 0.0000
# 5 0.0000 0.0000 0.0000 0.0000 38.9438 0.0000
# 6 0.0000 0.0000 0.0000 0.0000 0.0000 28.0843
#
#
#
# Elastic Compliance Matrix: (Units=1/GPa)
#
#
# Indices 1 2 3 4 5 6 
#
# 1 0.019958 -0.000460 -0.002393 0.000000 0.000000 0.000000
# 2 -0.000460 0.019983 -0.002061 0.000000 0.000000 0.000000
# 3 -0.002393 -0.002061 0.009747 0.000000 0.000000 0.000000
# 4 0.000000 0.000000 0.000000 0.039582 0.000000 0.000000
# 5 0.000000 0.000000 0.000000 0.000000 0.025678 0.000000
# 6 0.000000 0.000000 0.000000 0.000000 0.000000 0.035607
#
#
# Mechanical properties :
#
#
# Convention : Reuss Voigt Hill
#
# Bulk Modulus (GPa) = 25.08699 29.53900 27.31299
# Shear Modulus (GPa) = 28.79044 30.72742 29.75893
#
# Velocity S-wave (km/s) = 3.89586 4.02479 3.96085
# Velocity P-wave (km/s) = 5.78467 6.09680 5.94278
#
# Compressibility (1/GPa) = 0.03986130
#
# Stress axis : x y z
#
# Youngs Moduli (GPa) = 50.10617 50.04226 102.59304
#
# Poissons Ratio (x) = 0.02300 0.24549
# Poissons Ratio (y) = 0.02303 0.21142
# Poissons Ratio (z) = 0.11990 0.10313
#
# Static dielectric constant tensor:
#      x y z
#    x 1.639160 0.000000 0.000000 
#    y 0.000000 1.725490 0.000000 
#    z 0.000000 0.000000 1.666420 
# 
# From -- ./inp_files/24948.got.cif
#   From: 2010.05.17/outbox.cif.g08.bks.cpg/sg20_13_cif.got.tgz:24948.got - 2010.06.03 22:52:26.
