data_PCOD9319509
_publ_section_title
;
Structure prediction by ZEFSAII (Michael W. Deem and Ramdas Pophale) SiO2 
 PCOD9319509
Probable space group: C 2 2 21
;
_chemical_formula_sum "Si O2"
_cell_formula_units_Z 64
_cell_length_a 9.489144
_cell_length_b 10.919247
_cell_length_c 25.994726
_cell_angle_alpha 90.000000
_cell_angle_beta 90.000000
_cell_angle_gamma 90.000000
_cell_volume 2693.425524
_symmetry_space_group_name_H-M "C 2 2 21"
_symmetry_group_IT_number 20
_symmetry_cell_setting 'orthorhombic'
loop_
_space_group_symop_operation_xyz
x,y,z
-x,-y,1/2+z
x,-y,-z
-x,y,1/2-z
1/2+x,1/2+y,z
1/2-x,1/2-y,1/2+z
1/2+x,1/2-y,-z
1/2-x,1/2+y,1/2-z
loop_
_atom_site_type_symbol
_atom_site_label
_atom_site_fract_x
_atom_site_fract_y
_atom_site_fract_z
Si Si1 0.062991 0.847234 0.951629
Si Si2 0.499350 0.567271 0.617704
Si Si3 0.660207 0.034190 0.768883
Si Si4 0.686192 0.860743 0.121344
Si Si5 0.222850 0.628334 0.661998
Si Si6 0.950310 0.516541 0.083805
Si Si7 0.405193 0.634223 0.199492
Si Si8 0.353374 0.816825 0.000330
O O1 0.048324 0.982204 0.929437
O O2 0.115225 0.755681 0.905891
O O3 0.917359 0.807024 0.977598
O O4 0.188003 0.826034 0.992050
O O5 0.648755 0.630939 0.609977
O O6 0.369607 0.651859 0.633915
O O7 0.524926 0.471921 0.665091
O O8 0.500000 0.012318 0.750000
O O9 0.750510 0.915600 0.784301
O O10 0.663400 0.125455 0.817599
O O11 0.742180 0.092908 0.721135
O O12 0.608731 0.981253 0.098288
O O13 0.145217 0.514741 0.633391
O O14 0.124600 0.747014 0.664757
O O15 0.899540 0.414991 0.042904
O O16 0.924525 0.640788 0.053395
O O17 0.500000 0.659123 0.250000
#
# Coordination Sequence:
#
# PCOD9319509 Si02
#       8
#     8   8   8   8   8   8   8   8
#     4  11  24  46  70 103 135 183 228 297 354 418
#     4  11  25  46  68 101 140 178 234 288 341 416
#     4  11  23  43  67 104 138 186 238 288 348 429
#     4  10  24  43  68 100 138 182 230 288 350 414
#     4  12  23  43  71  98 140 187 230 285 348 416
#     4  10  21  44  65  95 134 178 229 287 345 419
#     4  11  24  43  67  99 141 184 232 289 347 408
#     4  10  23  41  69  96 134 175 231 286 356 416
#
# _framework density 23.761562999999999
#
# number of rings (size 3 to 8) (size 9 to 14) (size 15 to 20)
#    0.000    1.250    3.750    1.875    3.500    1.000 
#   11.250    0.000    0.000    0.000    0.000    0.000 
#    0.000    0.000    0.000    0.000    0.000    0.000 
#
# Total GULP energy -179098.306986 kJ/mol
# GULP energy per Si atom -5596.822093 kJ/mol
# Density = 2.370748 g / cm^3
# Si number density = 23.761563 Si / 1000 Ang^3
#
#
#
# Elastic Constant Matrix: (Units=GPa)
#
#
# Indices 1 2 3 4 5 6 
#
# 1 148.8608 19.8837 40.6250 0.0000 0.0000 0.0000
# 2 19.8837 51.4329 39.6349 0.0000 0.0000 0.0000
# 3 40.6250 39.6349 114.7488 0.0000 0.0000 0.0000
# 4 0.0000 0.0000 0.0000 32.6965 0.0000 0.0000
# 5 0.0000 0.0000 0.0000 0.0000 45.9305 0.0000
# 6 0.0000 0.0000 0.0000 0.0000 0.0000 32.0029
#
#
#
# Elastic Compliance Matrix: (Units=1/GPa)
#
#
# Indices 1 2 3 4 5 6 
#
# 1 0.007487 -0.001161 -0.002250 0.000000 0.000000 0.000000
# 2 -0.001161 0.026675 -0.008803 0.000000 0.000000 0.000000
# 3 -0.002250 -0.008803 0.012552 0.000000 0.000000 0.000000
# 4 0.000000 0.000000 0.000000 0.030584 0.000000 0.000000
# 5 0.000000 0.000000 0.000000 0.000000 0.021772 0.000000
# 6 0.000000 0.000000 0.000000 0.000000 0.000000 0.031247
#
#
# Mechanical properties :
#
#
# Convention : Reuss Voigt Hill
#
# Bulk Modulus (GPa) = 44.86886 57.25884 51.06385
# Shear Modulus (GPa) = 30.83140 36.45256 33.64198
#
# Velocity S-wave (km/s) = 3.60604 3.92101 3.76681
# Velocity P-wave (km/s) = 6.02179 6.68196 6.36045
#
# Compressibility (1/GPa) = 0.02228717
#
# Stress axis : x y z
#
# Youngs Moduli (GPa) = 133.57093 37.48814 79.67075
#
# Poissons Ratio (x) = 0.04351 0.17923
# Poissons Ratio (y) = 0.15504 0.70132
# Poissons Ratio (z) = 0.30048 0.33000
#
# Static dielectric constant tensor:
#      x y z
#    x 1.916700 0.000000 0.000000 
#    y 0.000000 1.930680 0.000000 
#    z 0.000000 0.000000 1.930520 
# 
# From -- ./inp_files/28903.got.cif
#   From: 2010.05.17/outbox.cif.g08.bks.cpg/sg20_15_cif.got.tgz:28903.got - 2010.06.03 22:52:26.
