data_PCOD9319576
_publ_section_title
;
Structure prediction by ZEFSAII (Michael W. Deem and Ramdas Pophale) SiO2 
 PCOD9319576
Probable space group: C 2 2 21
;
_chemical_formula_sum "Si O2"
_cell_formula_units_Z 40
_cell_length_a 26.640283
_cell_length_b 5.519235
_cell_length_c 10.439809
_cell_angle_alpha 90.000000
_cell_angle_beta 90.000000
_cell_angle_gamma 90.000000
_cell_volume 1535.006692
_symmetry_space_group_name_H-M "C 2 2 21"
_symmetry_group_IT_number 20
_symmetry_cell_setting 'orthorhombic'
loop_
_space_group_symop_operation_xyz
x,y,z
-x,-y,1/2+z
x,-y,-z
-x,y,1/2-z
1/2+x,1/2+y,z
1/2-x,1/2-y,1/2+z
1/2+x,1/2-y,-z
1/2-x,1/2+y,1/2-z
loop_
_atom_site_type_symbol
_atom_site_label
_atom_site_fract_x
_atom_site_fract_y
_atom_site_fract_z
Si Si1 0.757092 0.772190 0.177283
Si Si2 0.820222 0.500000 0.500000
Si Si3 0.067605 0.500000 0.500000
Si Si4 0.872936 0.860604 0.131557
Si Si5 0.586545 0.228119 0.127278
Si Si6 0.477369 0.770973 0.374458
O O1 0.756980 0.495832 0.227021
O O2 0.716443 0.804906 0.064661
O O3 0.813474 0.843569 0.140189
O O4 0.858290 0.382652 0.601713
O O5 0.104365 0.405371 0.608529
O O6 0.028214 0.299589 0.455754
O O7 0.900606 0.931315 0.264978
O O8 0.883978 0.000000 0.000000
O O9 0.545954 0.027807 0.173497
O O10 0.563848 0.280832 0.985424
O O11 0.500000 0.635735 0.250000
#
# Coordination Sequence:
#
# PCOD9319576 Si02
#       6
#     8   4   4   8   8   8
#     4  12  28  48  75 110 160 212 276 337 420 498
#     4  10  21  46  72 106 152 212 265 352 404 506
#     4  10  23  40  72 102 154 188 267 314 412 488
#     4  12  25  42  70 108 155 212 264 342 410 503
#     4   9  20  39  69 108 154 201 274 330 423 494
#     4   9  17  38  80 105 142 215 250 340 414 498
#
# _framework density 26.058520000000001
#
# number of rings (size 3 to 8) (size 9 to 14) (size 15 to 20)
#    0.000    2.000    5.000    0.000    2.800    0.800 
#    0.000    0.000    8.800    0.000    0.000    0.000 
#    0.000    0.000    0.000    0.000    0.000    0.000 
#
# Total GULP energy -111457.939511 kJ/mol
# GULP energy per Si atom -5572.896976 kJ/mol
# Density = 2.599921 g / cm^3
# Si number density = 26.058520 Si / 1000 Ang^3
#
#
#
# Elastic Constant Matrix: (Units=GPa)
#
#
# Indices 1 2 3 4 5 6 
#
# 1 207.2638 10.9271 71.3013 0.0000 0.0000 0.0000
# 2 10.9271 41.8498 18.6248 0.0000 0.0000 0.0000
# 3 71.3013 18.6248 135.4650 0.0000 0.0000 0.0000
# 4 0.0000 0.0000 0.0000 41.3020 0.0000 0.0000
# 5 0.0000 0.0000 0.0000 0.0000 58.4560 0.0000
# 6 0.0000 0.0000 0.0000 0.0000 0.0000 -32.9619
#
#
#
# Elastic Compliance Matrix: (Units=1/GPa)
#
#
# Indices 1 2 3 4 5 6 
#
# 1 0.005893 -0.000169 -0.003078 0.000000 0.000000 0.000000
# 2 -0.000169 0.025457 -0.003411 0.000000 0.000000 0.000000
# 3 -0.003078 -0.003411 0.009471 0.000000 0.000000 0.000000
# 4 0.000000 0.000000 0.000000 0.024212 0.000000 0.000000
# 5 0.000000 0.000000 0.000000 0.000000 0.017107 0.000000
# 6 0.000000 0.000000 0.000000 0.000000 0.000000 -0.030338
#
#
# Mechanical properties :
#
#
# Convention : Reuss Voigt Hill
#
# Bulk Modulus (GPa) = 36.35764 65.14278 50.75021
# Shear Modulus (GPa) = 67.30686 32.27425 49.79056
#
# Velocity S-wave (km/s) = 5.08775 3.52309 4.37592
# Velocity P-wave (km/s) = 6.96392 6.45000 6.71188
#
# Compressibility (1/GPa) = 0.02750453
#
# Stress axis : x y z
#
# Youngs Moduli (GPa) = 169.70262 39.28164 105.58225
#
# Poissons Ratio (x) = 0.00662 0.32502
# Poissons Ratio (y) = 0.02861 0.36017
# Poissons Ratio (z) = 0.52241 0.13400
#
# Static dielectric constant tensor:
#      x y z
#    x 1.958140 0.000000 0.000000 
#    y 0.000000 2.404940 0.000000 
#    z 0.000000 0.000000 2.244900 
# 
# From -- ./inp_files/16880.got.cif
#   From: 2010.05.17/outbox.cif.g08.bks.cpg/sg20_9_cif.got.tgz:16880.got - 2010.06.03 22:52:26.
