data_PCOD9319278
_publ_section_title
;
Structure prediction by ZEFSAII (Michael W. Deem and Ramdas Pophale) SiO2 
 PCOD9319278
Probable space group: C 2 2 21
;
_chemical_formula_sum "Si O2"
_cell_formula_units_Z 40
_cell_length_a 22.239881
_cell_length_b 14.444222
_cell_length_c 6.343935
_cell_angle_alpha 90.000000
_cell_angle_beta 90.000000
_cell_angle_gamma 90.000000
_cell_volume 2037.911586
_symmetry_space_group_name_H-M "C 2 2 21"
_symmetry_group_IT_number 20
_symmetry_cell_setting 'orthorhombic'
loop_
_space_group_symop_operation_xyz
x,y,z
-x,-y,1/2+z
x,-y,-z
-x,y,1/2-z
1/2+x,1/2+y,z
1/2-x,1/2-y,1/2+z
1/2+x,1/2-y,-z
1/2-x,1/2+y,1/2-z
loop_
_atom_site_type_symbol
_atom_site_label
_atom_site_fract_x
_atom_site_fract_y
_atom_site_fract_z
Si Si1 0.619412 0.662108 0.281190
Si Si2 0.555451 0.898949 0.908472
Si Si3 0.175551 0.696922 0.055408
Si Si4 0.710826 0.366169 0.341999
Si Si5 0.841376 0.000000 0.500000
Si Si6 0.000000 0.739338 0.750000
O O1 0.658464 0.636032 0.483789
O O2 0.619065 0.574729 0.124556
O O3 0.553422 0.697572 0.340190
O O4 0.651291 0.742856 0.143146
O O5 0.500000 0.910119 0.750000
O O6 0.618707 0.853918 0.837521
O O7 0.529728 0.827624 0.079605
O O8 0.568962 0.000000 0.000000
O O9 0.206011 0.768719 0.216749
O O10 0.226053 0.629212 0.962829
O O11 0.698754 0.445651 0.171240
#
# Coordination Sequence:
#
# PCOD9319278 Si02
#       6
#     8   8   8   8   4   4
#     4  10  21  41  62  89 124 163 211 258 320 382
#     4  11  22  40  61  93 131 162 212 264 312 383
#     4  10  22  37  65  92 122 172 210 254 323 385
#     4  11  20  42  63  91 129 164 214 265 320 387
#     4  10  24  38  60  94 128 160 210 274 320 380
#     4  10  22  42  66  90 120 174 206 252 332 380
#
# _framework density 19.627938
#
# number of rings (size 3 to 8) (size 9 to 14) (size 15 to 20)
#    0.000    1.600    3.000    1.800    0.000    1.600 
#    3.600    0.000    2.200    0.000    0.000    0.000 
#    0.000    0.000    0.000    0.000    0.000    0.000 
#
# Total GULP energy -111666.548107 kJ/mol
# GULP energy per Si atom -5583.327405 kJ/mol
# Density = 1.958326 g / cm^3
# Si number density = 19.627938 Si / 1000 Ang^3
#
#
#
# Elastic Constant Matrix: (Units=GPa)
#
#
# Indices 1 2 3 4 5 6 
#
# 1 103.7400 32.5537 8.4364 0.0000 0.0000 0.0000
# 2 32.5537 87.9460 11.6087 0.0000 0.0000 0.0000
# 3 8.4364 11.6087 50.0950 0.0000 0.0000 0.0000
# 4 0.0000 0.0000 0.0000 25.2245 0.0000 0.0000
# 5 0.0000 0.0000 0.0000 0.0000 16.7868 0.0000
# 6 0.0000 0.0000 0.0000 0.0000 0.0000 16.6320
#
#
#
# Elastic Compliance Matrix: (Units=1/GPa)
#
#
# Indices 1 2 3 4 5 6 
#
# 1 0.010948 -0.003929 -0.000933 0.000000 0.000000 0.000000
# 2 -0.003929 0.013140 -0.002383 0.000000 0.000000 0.000000
# 3 -0.000933 -0.002383 0.020672 0.000000 0.000000 0.000000
# 4 0.000000 0.000000 0.000000 0.039644 0.000000 0.000000
# 5 0.000000 0.000000 0.000000 0.000000 0.059571 0.000000
# 6 0.000000 0.000000 0.000000 0.000000 0.000000 0.060125
#
#
# Mechanical properties :
#
#
# Convention : Reuss Voigt Hill
#
# Bulk Modulus (GPa) = 33.03819 38.55316 35.79567
# Shear Modulus (GPa) = 21.86459 24.34080 23.10270
#
# Velocity S-wave (km/s) = 3.34121 3.52534 3.43451
# Velocity P-wave (km/s) = 5.63504 6.02124 5.83134
#
# Compressibility (1/GPa) = 0.03026800
#
# Stress axis : x y z
#
# Youngs Moduli (GPa) = 91.33720 76.10527 48.37577
#
# Poissons Ratio (x) = 0.29905 0.04515
# Poissons Ratio (y) = 0.35890 0.11529
# Poissons Ratio (z) = 0.08524 0.18137
#
# Static dielectric constant tensor:
#      x y z
#    x 1.678640 0.000000 0.000000 
#    y 0.000000 1.690310 0.000000 
#    z 0.000000 0.000000 1.668850 
# 
# From -- ./inp_files/3671.got.cif
#   From: 2010.05.17/outbox.cif.g08.bks.cpg/sg20_2_cif.got.tgz:3671.got - 2010.06.03 22:52:26.
