data_PCOD9319016
_publ_section_title
;
Structure prediction by ZEFSAII (Michael W. Deem and Ramdas Pophale) SiO2 
 PCOD9319016
Probable space group: C 2 2 21
;
_chemical_formula_sum "Si O2"
_cell_formula_units_Z 64
_cell_length_a 25.173587
_cell_length_b 13.980870
_cell_length_c 9.448161
_cell_angle_alpha 90.000000
_cell_angle_beta 90.000000
_cell_angle_gamma 90.000000
_cell_volume 3325.267483
_symmetry_space_group_name_H-M "C 2 2 21"
_symmetry_group_IT_number 20
_symmetry_cell_setting 'orthorhombic'
loop_
_space_group_symop_operation_xyz
x,y,z
-x,-y,1/2+z
x,-y,-z
-x,y,1/2-z
1/2+x,1/2+y,z
1/2-x,1/2-y,1/2+z
1/2+x,1/2-y,-z
1/2-x,1/2+y,1/2-z
loop_
_atom_site_type_symbol
_atom_site_label
_atom_site_fract_x
_atom_site_fract_y
_atom_site_fract_z
Si Si1 0.442709 0.783762 0.319838
Si Si2 0.854853 0.060630 0.138078
Si Si3 0.141176 0.615578 0.000474
Si Si4 0.361402 0.226278 0.920124
Si Si5 0.732442 0.814830 0.217408
Si Si6 0.768101 0.008271 0.339167
Si Si7 0.680048 0.152642 0.310748
Si Si8 0.552210 0.553326 0.153415
O O1 0.500000 0.802621 0.250000
O O2 0.415459 0.842924 0.447090
O O3 0.402795 0.810669 0.193110
O O4 0.441131 0.669702 0.359783
O O5 0.873174 0.161471 0.075671
O O6 0.899170 0.020270 0.245609
O O7 0.804512 0.073769 0.240144
O O8 0.842104 0.000000 0.000000
O O9 0.154834 0.650896 0.157121
O O10 0.141877 0.500000 0.000000
O O11 0.189586 0.656170 0.902584
O O12 0.303006 0.212370 0.853372
O O13 0.362390 0.176218 0.069699
O O14 0.766264 0.906755 0.262981
O O15 0.773655 0.732611 0.176980
O O16 0.787670 0.000000 0.500000
O O17 0.709446 0.052624 0.340203
O O18 0.500000 0.537129 0.250000
O O19 0.550701 0.500000 0.000000
#
# Coordination Sequence:
#
# PCOD9319016 Si02
#       8
#     8   8   8   8   8   8   8   8
#     4   9  22  45  68  88 123 165 210 270 332 380
#     4  11  23  37  56  88 124 162 210 256 308 373
#     4  11  24  41  66  91 124 170 219 268 328 389
#     4  10  21  39  58  84 119 162 201 252 312 378
#     4  11  22  38  57  83 126 166 203 251 314 382
#     4  12  24  35  56  85 123 166 211 253 309 382
#     4  12  23  37  59  91 125 163 212 255 313 386
#     4  10  21  41  68  95 126 164 207 262 329 393
#
# _framework density 19.246573000000001
#
# number of rings (size 3 to 8) (size 9 to 14) (size 15 to 20)
#    0.000    1.250    3.750    2.250    1.750    2.000 
#    0.000    1.875    0.000    0.000    0.000    0.000 
#    0.000    0.000    0.000    0.000    0.000    0.000 
#
# Total GULP energy -178526.857106 kJ/mol
# GULP energy per Si atom -5578.964285 kJ/mol
# Density = 1.920277 g / cm^3
# Si number density = 19.246573 Si / 1000 Ang^3
#
#
#
# Elastic Constant Matrix: (Units=GPa)
#
#
# Indices 1 2 3 4 5 6 
#
# 1 69.2931 13.2036 41.5639 0.0000 0.0000 0.0000
# 2 13.2036 48.8192 34.6830 0.0000 0.0000 0.0000
# 3 41.5639 34.6830 164.7942 0.0000 0.0000 0.0000
# 4 0.0000 0.0000 0.0000 21.7956 0.0000 0.0000
# 5 0.0000 0.0000 0.0000 0.0000 25.8479 0.0000
# 6 0.0000 0.0000 0.0000 0.0000 0.0000 11.8436
#
#
#
# Elastic Compliance Matrix: (Units=1/GPa)
#
#
# Indices 1 2 3 4 5 6 
#
# 1 0.017143 -0.001840 -0.003937 0.000000 0.000000 0.000000
# 2 -0.001840 0.024282 -0.004646 0.000000 0.000000 0.000000
# 3 -0.003937 -0.004646 0.008039 0.000000 0.000000 0.000000
# 4 0.000000 0.000000 0.000000 0.045881 0.000000 0.000000
# 5 0.000000 0.000000 0.000000 0.000000 0.038688 0.000000
# 6 0.000000 0.000000 0.000000 0.000000 0.000000 0.084434
#
#
# Mechanical properties :
#
#
# Convention : Reuss Voigt Hill
#
# Bulk Modulus (GPa) = 34.94210 51.31193 43.12701
# Shear Modulus (GPa) = 20.09218 24.79447 22.44332
#
# Velocity S-wave (km/s) = 3.23450 3.59312 3.41852
# Velocity P-wave (km/s) = 5.66954 6.62813 6.16749
#
# Compressibility (1/GPa) = 0.02861878
#
# Stress axis : x y z
#
# Youngs Moduli (GPa) = 58.33173 41.18214 124.39404
#
# Poissons Ratio (x) = 0.07577 0.48969
# Poissons Ratio (y) = 0.10732 0.57800
# Poissons Ratio (z) = 0.22963 0.19135
#
# Static dielectric constant tensor:
#      x y z
#    x 1.689240 0.000000 0.000000 
#    y 0.000000 1.730880 0.000000 
#    z 0.000000 0.000000 1.676100 
# 
# From -- ./inp_files/10828.got.cif
#   From: 2010.05.17/outbox.cif.g08.bks.cpg/sg20_6_cif.got.tgz:10828.got - 2010.06.03 22:52:26.
