data_PCOD9319430
_publ_section_title
;
Structure prediction by ZEFSAII (Michael W. Deem and Ramdas Pophale) SiO2 
 PCOD9319430
Probable space group: C 2 2 21
;
_chemical_formula_sum "Si O2"
_cell_formula_units_Z 48
_cell_length_a 31.526358
_cell_length_b 8.244589
_cell_length_c 8.829171
_cell_angle_alpha 90.000000
_cell_angle_beta 90.000000
_cell_angle_gamma 90.000000
_cell_volume 2294.894587
_symmetry_space_group_name_H-M "C 2 2 21"
_symmetry_group_IT_number 20
_symmetry_cell_setting 'orthorhombic'
loop_
_space_group_symop_operation_xyz
x,y,z
-x,-y,1/2+z
x,-y,-z
-x,y,1/2-z
1/2+x,1/2+y,z
1/2-x,1/2-y,1/2+z
1/2+x,1/2-y,-z
1/2-x,1/2+y,1/2-z
loop_
_atom_site_type_symbol
_atom_site_label
_atom_site_fract_x
_atom_site_fract_y
_atom_site_fract_z
Si Si1 0.280294 0.339630 0.821537
Si Si2 0.894491 0.824887 0.213608
Si Si3 0.500000 0.352129 0.750000
Si Si4 0.300238 0.274524 0.155191
Si Si5 0.355740 0.629372 0.367956
Si Si6 0.934950 0.690091 0.510794
Si Si7 0.557776 0.500000 0.500000
O O1 0.290855 0.531648 0.831576
O O2 0.233069 0.312951 0.763419
O O3 0.314393 0.285793 0.696635
O O4 0.290207 0.248031 0.978023
O O5 0.848817 0.737985 0.200876
O O6 0.927443 0.762686 0.340642
O O7 0.880567 0.009881 0.253529
O O8 0.915290 0.843178 0.049624
O O9 0.470947 0.258676 0.624829
O O10 0.529819 0.459684 0.644774
O O11 0.344133 0.500000 0.500000
O O12 0.389677 0.759635 0.420070
O O13 0.941037 0.500000 0.500000
#
# Coordination Sequence:
#
# PCOD9319430 Si02
#       7
#     8   8   4   8   8   8   4
#     4  10  22  38  59  90 130 167 219 266 312 375
#     4  10  21  42  68  94 125 170 224 266 318 384
#     4  12  26  40  70 102 122 168 214 274 334 392
#     4  10  23  38  61  94 126 173 214 269 317 368
#     4   9  19  39  66  87 123 173 221 263 313 373
#     4  11  25  43  65  96 135 168 207 266 341 394
#     4  12  22  42  74  96 126 158 234 272 316 394
#
# _framework density 20.915994000000001
#
# number of rings (size 3 to 8) (size 9 to 14) (size 15 to 20)
#    0.000    1.667    1.667    3.000    8.167    2.667 
#    0.000    0.000    0.000    0.000    0.000    0.000 
#    0.000    0.000    0.000    0.000    0.000    0.000 
#
# Total GULP energy -133817.383678 kJ/mol
# GULP energy per Si atom -5575.724320 kJ/mol
# Density = 2.086839 g / cm^3
# Si number density = 20.915994 Si / 1000 Ang^3
#
#
#
# Elastic Constant Matrix: (Units=GPa)
#
#
# Indices 1 2 3 4 5 6 
#
# 1 108.3038 24.6687 76.1663 0.0000 0.0000 0.0000
# 2 24.6687 35.5300 15.1289 0.0000 0.0000 0.0000
# 3 76.1663 15.1289 111.8769 0.0000 0.0000 0.0000
# 4 0.0000 0.0000 0.0000 8.0113 0.0000 0.0000
# 5 0.0000 0.0000 0.0000 0.0000 40.4010 0.0000
# 6 0.0000 0.0000 0.0000 0.0000 0.0000 16.0608
#
#
#
# Elastic Compliance Matrix: (Units=1/GPa)
#
#
# Indices 1 2 3 4 5 6 
#
# 1 0.019887 -0.008534 -0.012385 0.000000 0.000000 0.000000
# 2 -0.008534 0.033527 0.001276 0.000000 0.000000 0.000000
# 3 -0.012385 0.001276 0.017198 0.000000 0.000000 0.000000
# 4 0.000000 0.000000 0.000000 0.124823 0.000000 0.000000
# 5 0.000000 0.000000 0.000000 0.000000 0.024752 0.000000
# 6 0.000000 0.000000 0.000000 0.000000 0.000000 0.062263
#
#
# Mechanical properties :
#
#
# Convention : Reuss Voigt Hill
#
# Bulk Modulus (GPa) = 31.92252 54.18208 43.05230
# Shear Modulus (GPa) = 15.05213 22.21108 18.63160
#
# Velocity S-wave (km/s) = 2.68553 3.26224 2.98784
# Velocity P-wave (km/s) = 4.99114 6.33644 5.70360
#
# Compressibility (1/GPa) = 0.03132585
#
# Stress axis : x y z
#
# Youngs Moduli (GPa) = 50.28340 29.82659 58.14705
#
# Poissons Ratio (x) = 0.25454 0.72017
# Poissons Ratio (y) = 0.42913 -0.07421
# Poissons Ratio (z) = 0.62277 -0.03807
#
# Static dielectric constant tensor:
#      x y z
#    x 1.786750 0.000000 0.000000 
#    y 0.000000 1.746010 0.000000 
#    z 0.000000 0.000000 1.874330 
# 
# From -- ./inp_files/11506.got.cif
#   From: 2010.05.17/outbox.cif.g08.bks.cpg/sg20_6_cif.got.tgz:11506.got - 2010.06.03 22:52:26.
