data_PCOD9319310
_publ_section_title
;
Structure prediction by ZEFSAII (Michael W. Deem and Ramdas Pophale) SiO2 
 PCOD9319310
Probable space group: C 2 2 21
;
_chemical_formula_sum "Si O2"
_cell_formula_units_Z 60
_cell_length_a 11.370765
_cell_length_b 24.282108
_cell_length_c 11.556857
_cell_angle_alpha 90.000000
_cell_angle_beta 90.000000
_cell_angle_gamma 90.000000
_cell_volume 3190.919220
_symmetry_space_group_name_H-M "C 2 2 21"
_symmetry_group_IT_number 20
_symmetry_cell_setting 'orthorhombic'
loop_
_space_group_symop_operation_xyz
x,y,z
-x,-y,1/2+z
x,-y,-z
-x,y,1/2-z
1/2+x,1/2+y,z
1/2-x,1/2-y,1/2+z
1/2+x,1/2-y,-z
1/2-x,1/2+y,1/2-z
loop_
_atom_site_type_symbol
_atom_site_label
_atom_site_fract_x
_atom_site_fract_y
_atom_site_fract_z
Si Si1 0.004298 0.500000 0.500000
Si Si2 0.104311 0.871702 0.159005
Si Si3 0.694224 0.164487 0.077701
Si Si4 0.932733 0.290327 0.363283
Si Si5 0.185249 0.239706 0.734959
Si Si6 0.227303 0.527552 0.609954
Si Si7 0.874787 0.556958 0.296833
Si Si8 0.443384 0.298947 0.016377
O O1 0.099248 0.543284 0.554126
O O2 0.920915 0.518134 0.398254
O O3 0.176900 0.819512 0.204356
O O4 0.193184 0.922235 0.148847
O O5 0.000000 0.884656 0.250000
O O6 0.037327 0.846462 0.047396
O O7 0.669122 0.212886 0.170581
O O8 0.691988 0.107586 0.146697
O O9 0.605752 0.168718 0.967554
O O10 0.822398 0.174442 0.024670
O O11 0.813554 0.259448 0.322770
O O12 0.000000 0.313358 0.250000
O O13 0.012780 0.243747 0.421678
O O14 0.088046 0.235290 0.633496
O O15 0.291012 0.500000 0.500000
O O16 0.194477 0.480675 0.704325
O O17 0.000000 0.579721 0.250000
#
# Coordination Sequence:
#
# PCOD9319310 Si02
#       8
#     4   8   8   8   8   8   8   8
#     4   8  20  42  60  90 126 150 208 268 314 372
#     4  10  21  41  65  87 125 169 207 265 315 382
#     4  11  23  39  63  97 129 171 212 258 323 390
#     4  11  22  38  56  91 135 166 210 255 312 383
#     4  10  22  38  62  91 126 168 210 250 322 393
#     4   9  21  43  63  91 121 161 220 259 321 379
#     4  10  22  41  66  93 121 165 212 265 320 377
#     4  10  22  40  58  91 131 169 208 263 311 385
#
# _framework density 18.803360000000001
#
# number of rings (size 3 to 8) (size 9 to 14) (size 15 to 20)
#    0.400    1.600    2.667    0.000    1.867    5.333 
#    2.400    1.333    0.000    0.000    0.000    0.000 
#    0.000    0.000    0.000    0.000    0.000    0.000 
#
# Total GULP energy -167118.270590 kJ/mol
# GULP energy per Si atom -5570.609020 kJ/mol
# Density = 1.876056 g / cm^3
# Si number density = 18.803360 Si / 1000 Ang^3
#
#
#
# Elastic Constant Matrix: (Units=GPa)
#
#
# Indices 1 2 3 4 5 6 
#
# 1 60.4954 33.9558 36.6084 0.0000 0.0000 0.0000
# 2 33.9558 54.0594 37.1050 0.0000 0.0000 0.0000
# 3 36.6084 37.1050 99.5318 0.0000 0.0000 0.0000
# 4 0.0000 0.0000 0.0000 2.5708 0.0000 0.0000
# 5 0.0000 0.0000 0.0000 0.0000 18.7803 0.0000
# 6 0.0000 0.0000 0.0000 0.0000 0.0000 13.9214
#
#
#
# Elastic Compliance Matrix: (Units=1/GPa)
#
#
# Indices 1 2 3 4 5 6 
#
# 1 0.027190 -0.013727 -0.004883 0.000000 0.000000 0.000000
# 2 -0.013727 0.031789 -0.006802 0.000000 0.000000 0.000000
# 3 -0.004883 -0.006802 0.014379 0.000000 0.000000 0.000000
# 4 0.000000 0.000000 0.000000 0.388991 0.000000 0.000000
# 5 0.000000 0.000000 0.000000 0.000000 0.053247 0.000000
# 6 0.000000 0.000000 0.000000 0.000000 0.000000 0.071832
#
#
# Mechanical properties :
#
#
# Convention : Reuss Voigt Hill
#
# Bulk Modulus (GPa) = 44.37813 47.71391 46.04602
# Shear Modulus (GPa) = 7.74277 14.14899 10.94588
#
# Velocity S-wave (km/s) = 2.03143 2.74610 2.41534
# Velocity P-wave (km/s) = 5.39951 5.95693 5.68505
#
# Compressibility (1/GPa) = 0.02253362
#
# Stress axis : x y z
#
# Youngs Moduli (GPa) = 36.77802 31.45741 69.54617
#
# Poissons Ratio (x) = 0.43181 0.33962
# Poissons Ratio (y) = 0.50485 0.47305
# Poissons Ratio (z) = 0.17960 0.21397
#
# Static dielectric constant tensor:
#      x y z
#    x 1.663730 0.000000 0.000000 
#    y 0.000000 1.640630 0.000000 
#    z 0.000000 0.000000 1.723020 
# 
# From -- ./inp_files/14381.got.cif
#   From: 2010.05.17/outbox.cif.g08.bks.cpg/sg20_8_cif.got.tgz:14381.got - 2010.06.03 22:52:26.
