data_PCOD9319274
_publ_section_title
;
Structure prediction by ZEFSAII (Michael W. Deem and Ramdas Pophale) SiO2 
 PCOD9319274
Probable space group: C 2 2 21
;
_chemical_formula_sum "Si O2"
_cell_formula_units_Z 56
_cell_length_a 9.642178
_cell_length_b 11.352651
_cell_length_c 21.242540
_cell_angle_alpha 90.000000
_cell_angle_beta 90.000000
_cell_angle_gamma 90.000000
_cell_volume 2325.299383
_symmetry_space_group_name_H-M "C 2 2 21"
_symmetry_group_IT_number 20
_symmetry_cell_setting 'orthorhombic'
loop_
_space_group_symop_operation_xyz
x,y,z
-x,-y,1/2+z
x,-y,-z
-x,y,1/2-z
1/2+x,1/2+y,z
1/2-x,1/2-y,1/2+z
1/2+x,1/2-y,-z
1/2-x,1/2+y,1/2-z
loop_
_atom_site_type_symbol
_atom_site_label
_atom_site_fract_x
_atom_site_fract_y
_atom_site_fract_z
Si Si1 0.850636 0.760468 0.058293
Si Si2 0.755002 0.602936 0.956686
Si Si3 0.644636 0.759597 0.776659
Si Si4 0.500000 0.088023 0.750000
Si Si5 0.269218 0.500000 0.000000
Si Si6 0.140270 0.233856 0.164466
Si Si7 0.767793 0.982346 0.322019
Si Si8 0.881531 0.666690 0.404667
O O1 0.704063 0.758294 0.095799
O O2 0.957771 0.698328 0.106284
O O3 0.866734 0.669943 0.999750
O O4 0.857902 0.893492 0.031508
O O5 0.795898 0.544643 0.890993
O O6 0.658944 0.713504 0.941083
O O7 0.694238 0.500000 0.000000
O O8 0.500000 0.797770 0.750000
O O9 0.746831 0.747912 0.719032
O O10 0.637826 0.628507 0.804803
O O11 0.690413 0.837020 0.836516
O O12 0.475060 0.176067 0.689856
O O13 0.360821 0.017616 0.772068
O O14 0.171682 0.439642 0.947060
O O15 0.129230 0.093023 0.170370
#
# Coordination Sequence:
#
# PCOD9319274 Si02
#       8
#     8   8   8   4   4   8   8   8
#     4  11  23  41  67  97 127 176 224 268 344 405
#     4  10  21  41  61  95 130 165 224 273 336 400
#     4  10  21  41  61  95 130 165 224 273 336 400
#     4  10  26  44  64 102 134 170 230 276 330 406
#     4  10  26  44  64 102 134 170 230 276 330 406
#     4  11  23  41  67  97 127 176 224 268 344 405
#     4  10  23  41  65  94 132 176 215 280 334 395
#     4  10  23  41  65  94 132 176 215 280 334 395
#
# _framework density 24.082920999999999
#
# number of rings (size 3 to 8) (size 9 to 14) (size 15 to 20)
#    0.000    1.714    2.857    0.000    4.000    5.714 
#    0.000    2.857    0.000    0.000    0.000    0.000 
#    0.000    0.000    0.000    0.000    0.000    0.000 
#
# Total GULP energy -156074.720297 kJ/mol
# GULP energy per Si atom -5574.097153 kJ/mol
# Density = 2.402811 g / cm^3
# Si number density = 24.082921 Si / 1000 Ang^3
#
#
#
# Elastic Constant Matrix: (Units=GPa)
#
#
# Indices 1 2 3 4 5 6 
#
# 1 32.2729 5.3688 -4.4670 0.0000 0.0000 0.0000
# 2 5.3688 112.3742 34.0149 0.0000 0.0000 0.0000
# 3 -4.4670 34.0149 104.8523 0.0000 0.0000 0.0000
# 4 0.0000 0.0000 0.0000 39.2615 0.0000 0.0000
# 5 0.0000 0.0000 0.0000 0.0000 26.3442 0.0000
# 6 0.0000 0.0000 0.0000 0.0000 0.0000 15.8914
#
#
#
# Elastic Compliance Matrix: (Units=1/GPa)
#
#
# Indices 1 2 3 4 5 6 
#
# 1 0.031622 -0.002127 0.002037 0.000000 0.000000 0.000000
# 2 -0.002127 0.010011 -0.003338 0.000000 0.000000 0.000000
# 3 0.002037 -0.003338 0.010707 0.000000 0.000000 0.000000
# 4 0.000000 0.000000 0.000000 0.025470 0.000000 0.000000
# 5 0.000000 0.000000 0.000000 0.000000 0.037959 0.000000
# 6 0.000000 0.000000 0.000000 0.000000 0.000000 0.062927
#
#
# Mechanical properties :
#
#
# Convention : Reuss Voigt Hill
#
# Bulk Modulus (GPa) = 21.98635 35.48144 28.73389
# Shear Modulus (GPa) = 24.91109 30.60491 27.75800
#
# Velocity S-wave (km/s) = 3.21968 3.56872 3.39868
# Velocity P-wave (km/s) = 4.79281 5.63436 5.23054
#
# Compressibility (1/GPa) = 0.04548278
#
# Stress axis : x y z
#
# Youngs Moduli (GPa) = 31.62393 99.89059 93.39698
#
# Poissons Ratio (x) = 0.21251 -0.19028
# Poissons Ratio (y) = 0.06728 0.31178
# Poissons Ratio (z) = -0.06443 0.33346
#
# Static dielectric constant tensor:
#      x y z
#    x 2.083980 0.000000 0.000000 
#    y 0.000000 1.997550 0.000000 
#    z 0.000000 0.000000 2.000920 
# 
# From -- ./inp_files/27240.got.cif
#   From: 2010.05.17/outbox.cif.g08.bks.cpg/sg20_14_cif.got.tgz:27240.got - 2010.06.03 22:52:26.
