data_PCOD9319283
_publ_section_title
;
Structure prediction by ZEFSAII (Michael W. Deem and Ramdas Pophale) SiO2 
 PCOD9319283
Probable space group: C 2 2 21
;
_chemical_formula_sum "Si O2"
_cell_formula_units_Z 48
_cell_length_a 9.404844
_cell_length_b 29.520738
_cell_length_c 9.016089
_cell_angle_alpha 90.000000
_cell_angle_beta 90.000000
_cell_angle_gamma 90.000000
_cell_volume 2503.208338
_symmetry_space_group_name_H-M "C 2 2 21"
_symmetry_group_IT_number 20
_symmetry_cell_setting 'orthorhombic'
loop_
_space_group_symop_operation_xyz
x,y,z
-x,-y,1/2+z
x,-y,-z
-x,y,1/2-z
1/2+x,1/2+y,z
1/2-x,1/2-y,1/2+z
1/2+x,1/2-y,-z
1/2-x,1/2+y,1/2-z
loop_
_atom_site_type_symbol
_atom_site_label
_atom_site_fract_x
_atom_site_fract_y
_atom_site_fract_z
Si Si1 0.365512 0.215020 0.352607
Si Si2 0.855250 0.873935 0.567517
Si Si3 0.816192 0.875026 0.908440
Si Si4 0.133463 0.773307 0.860608
Si Si5 0.847874 0.546726 0.571402
Si Si6 0.319925 0.953218 0.076850
O O1 0.500000 0.202681 0.250000
O O2 0.272212 0.171638 0.401865
O O3 0.260192 0.243905 0.245609
O O4 0.405663 0.241542 0.502135
O O5 0.831035 0.890038 0.736980
O O6 0.811562 0.821091 0.571865
O O7 0.770717 0.909324 0.468084
O O8 0.022910 0.871293 0.533692
O O9 0.734306 0.911247 0.004633
O O10 0.000000 0.781913 0.750000
O O11 0.797740 0.500000 0.500000
O O12 0.824673 0.542702 0.746389
O O13 0.014667 0.552645 0.532237
O O14 0.268595 0.000000 0.000000
#
# Coordination Sequence:
#
# PCOD9319283 Si02
#       6
#     8   8   8   8   8   8
#     4  11  24  39  67  95 123 174 211 263 322 375
#     4  10  21  41  63  84 125 166 205 254 310 374
#     4  10  22  40  60  90 122 163 209 251 311 373
#     4  11  22  45  62  93 131 165 214 264 316 382
#     4  10  22  40  62  94 126 157 208 260 304 370
#     4  10  22  40  63  93 123 164 206 253 312 370
#
# _framework density 19.175391999999999
#
# number of rings (size 3 to 8) (size 9 to 14) (size 15 to 20)
#    0.000    1.667    3.333    2.000    4.667    4.000 
#    3.000    0.000    0.000    0.000    0.000    0.000 
#    0.000    0.000    0.000    0.000    0.000    0.000 
#
# Total GULP energy -133898.261403 kJ/mol
# GULP energy per Si atom -5579.094225 kJ/mol
# Density = 1.913175 g / cm^3
# Si number density = 19.175392 Si / 1000 Ang^3
#
#
#
# Elastic Constant Matrix: (Units=GPa)
#
#
# Indices 1 2 3 4 5 6 
#
# 1 67.2348 35.5700 33.8531 0.0000 0.0000 0.0000
# 2 35.5700 90.4872 54.4072 0.0000 0.0000 0.0000
# 3 33.8531 54.4072 61.1924 0.0000 0.0000 0.0000
# 4 0.0000 0.0000 0.0000 41.1857 0.0000 0.0000
# 5 0.0000 0.0000 0.0000 0.0000 36.6159 0.0000
# 6 0.0000 0.0000 0.0000 0.0000 0.0000 27.4776
#
#
#
# Elastic Compliance Matrix: (Units=1/GPa)
#
#
# Indices 1 2 3 4 5 6 
#
# 1 0.020922 -0.002718 -0.009158 0.000000 0.000000 0.000000
# 2 -0.002718 0.024099 -0.019923 0.000000 0.000000 0.000000
# 3 -0.009158 -0.019923 0.039122 0.000000 0.000000 0.000000
# 4 0.000000 0.000000 0.000000 0.024280 0.000000 0.000000
# 5 0.000000 0.000000 0.000000 0.000000 0.027311 0.000000
# 6 0.000000 0.000000 0.000000 0.000000 0.000000 0.036393
#
#
# Mechanical properties :
#
#
# Convention : Reuss Voigt Hill
#
# Bulk Modulus (GPa) = 48.67317 51.84166 50.25742
# Shear Modulus (GPa) = 20.61224 27.39476 24.00350
#
# Velocity S-wave (km/s) = 3.28217 3.78384 3.54190
# Velocity P-wave (km/s) = 6.30887 6.79589 6.55690
#
# Compressibility (1/GPa) = 0.02054520
#
# Stress axis : x y z
#
# Youngs Moduli (GPa) = 47.79581 41.49587 25.56084
#
# Poissons Ratio (x) = 0.11278 0.23409
# Poissons Ratio (y) = 0.12990 0.50925
# Poissons Ratio (z) = 0.43772 0.82672
#
# Static dielectric constant tensor:
#      x y z
#    x 1.688630 0.000000 0.000000 
#    y 0.000000 1.653370 0.000000 
#    z 0.000000 0.000000 1.657550 
# 
# From -- ./inp_files/6544.got.cif
#   From: 2010.05.17/outbox.cif.g08.bks.cpg/sg20_4_cif.got.tgz:6544.got - 2010.06.03 22:52:26.
