data_PCOD9319849
_publ_section_title
;
Structure prediction by ZEFSAII (Michael W. Deem and Ramdas Pophale) SiO2 
 PCOD9319849
Probable space group: C 2 2 21
;
_chemical_formula_sum "Si O2"
_cell_formula_units_Z 44
_cell_length_a 9.509592
_cell_length_b 16.208025
_cell_length_c 14.366608
_cell_angle_alpha 90.000000
_cell_angle_beta 90.000000
_cell_angle_gamma 90.000000
_cell_volume 2214.349784
_symmetry_space_group_name_H-M "C 2 2 21"
_symmetry_group_IT_number 20
_symmetry_cell_setting 'orthorhombic'
loop_
_space_group_symop_operation_xyz
x,y,z
-x,-y,1/2+z
x,-y,-z
-x,y,1/2-z
1/2+x,1/2+y,z
1/2-x,1/2-y,1/2+z
1/2+x,1/2-y,-z
1/2-x,1/2+y,1/2-z
loop_
_atom_site_type_symbol
_atom_site_label
_atom_site_fract_x
_atom_site_fract_y
_atom_site_fract_z
Si Si1 0.910496 0.702242 0.657114
Si Si2 0.797092 0.966374 0.896576
Si Si3 0.000524 0.481832 0.138902
Si Si4 0.389468 0.361808 0.169920
Si Si5 0.979339 0.854494 0.532781
Si Si6 0.253572 0.500000 0.500000
O O1 0.749701 0.690469 0.686101
O O2 0.924197 0.771644 0.579443
O O3 0.000000 0.719047 0.750000
O O4 0.956654 0.612801 0.617001
O O5 0.901551 0.889569 0.895712
O O6 0.629046 0.958165 0.890220
O O7 0.845318 0.041028 0.830106
O O8 0.823920 0.000000 0.000000
O O9 0.000000 0.487130 0.250000
O O10 0.853044 0.496533 0.087964
O O11 0.500000 0.346897 0.250000
O O12 0.450537 0.341348 0.068084
O O13 0.856388 0.921889 0.515446
#
# Coordination Sequence:
#
# PCOD9319849 Si02
#       6
#     8   8   8   8   8   4
#     4  10  25  42  64  94 127 170 214 267 322 376
#     4   9  18  40  61  90 121 164 208 256 311 369
#     4  10  23  41  66  92 128 171 209 265 321 379
#     4  10  22  40  65  90 127 171 212 252 324 385
#     4  11  24  41  66  97 126 169 211 268 316 383
#     4  12  24  40  66 100 126 166 222 258 320 380
#
# _framework density 19.870393
#
# number of rings (size 3 to 8) (size 9 to 14) (size 15 to 20)
#    0.000    1.818    3.636    0.000   10.182    2.182 
#    0.000    2.727    0.000    0.000    0.000    0.000 
#    0.000    0.000    0.000    0.000    0.000    0.000 
#
# Total GULP energy -122762.694081 kJ/mol
# GULP energy per Si atom -5580.122458 kJ/mol
# Density = 1.982517 g / cm^3
# Si number density = 19.870393 Si / 1000 Ang^3
#
#
#
# Elastic Constant Matrix: (Units=GPa)
#
#
# Indices 1 2 3 4 5 6 
#
# 1 173.5349 56.3335 69.0081 0.0000 0.0000 0.0000
# 2 56.3335 40.1603 44.0277 0.0000 0.0000 0.0000
# 3 69.0081 44.0277 91.1921 0.0000 0.0000 0.0000
# 4 0.0000 0.0000 0.0000 22.6584 0.0000 0.0000
# 5 0.0000 0.0000 0.0000 0.0000 32.9585 0.0000
# 6 0.0000 0.0000 0.0000 0.0000 0.0000 6.6915
#
#
#
# Elastic Compliance Matrix: (Units=1/GPa)
#
#
# Indices 1 2 3 4 5 6 
#
# 1 0.010719 -0.013051 -0.001810 0.000000 0.000000 0.000000
# 2 -0.013051 0.068790 -0.023336 0.000000 0.000000 0.000000
# 3 -0.001810 -0.023336 0.023602 0.000000 0.000000 0.000000
# 4 0.000000 0.000000 0.000000 0.044134 0.000000 0.000000
# 5 0.000000 0.000000 0.000000 0.000000 0.030341 0.000000
# 6 0.000000 0.000000 0.000000 0.000000 0.000000 0.149443
#
#
# Mechanical properties :
#
#
# Convention : Reuss Voigt Hill
#
# Bulk Modulus (GPa) = 37.42926 71.51398 54.47162
# Shear Modulus (GPa) = 12.12621 21.49622 16.81122
#
# Velocity S-wave (km/s) = 2.47303 3.29267 2.91184
# Velocity P-wave (km/s) = 5.19924 7.10802 6.22720
#
# Compressibility (1/GPa) = 0.02671707
#
# Stress axis : x y z
#
# Youngs Moduli (GPa) = 93.29052 14.53696 42.36860
#
# Poissons Ratio (x) = 0.18972 0.07671
# Poissons Ratio (y) = 1.21755 0.98870
# Poissons Ratio (z) = 0.16890 0.33923
#
# Static dielectric constant tensor:
#      x y z
#    x 1.776130 0.000000 0.000000 
#    y 0.000000 1.714680 0.000000 
#    z 0.000000 0.000000 1.695080 
# 
# From -- ./inp_files/18798.got.cif
#   From: 2010.05.17/outbox.cif.g08.bks.cpg/sg20_10_cif.got.tgz:18798.got - 2010.06.03 22:52:26.
