data_PCOD9319922
_publ_section_title
;
Structure prediction by ZEFSAII (Michael W. Deem and Ramdas Pophale) SiO2 
 PCOD9319922
Probable space group: C 2 2 21
;
_chemical_formula_sum "Si O2"
_cell_formula_units_Z 28
_cell_length_a 17.074861
_cell_length_b 14.116394
_cell_length_c 5.091169
_cell_angle_alpha 90.000000
_cell_angle_beta 90.000000
_cell_angle_gamma 90.000000
_cell_volume 1227.152289
_symmetry_space_group_name_H-M "C 2 2 21"
_symmetry_group_IT_number 20
_symmetry_cell_setting 'orthorhombic'
loop_
_space_group_symop_operation_xyz
x,y,z
-x,-y,1/2+z
x,-y,-z
-x,y,1/2-z
1/2+x,1/2+y,z
1/2-x,1/2-y,1/2+z
1/2+x,1/2-y,-z
1/2-x,1/2+y,1/2-z
loop_
_atom_site_type_symbol
_atom_site_label
_atom_site_fract_x
_atom_site_fract_y
_atom_site_fract_z
Si Si1 0.169833 0.662306 0.313302
Si Si2 0.259391 0.624789 0.814778
Si Si3 0.622312 0.500000 0.000000
Si Si4 0.500000 0.221917 0.250000
Si Si5 0.000000 0.856704 0.750000
O O1 0.188849 0.625600 0.603176
O O2 0.200348 0.771148 0.308609
O O3 0.079693 0.662393 0.228368
O O4 0.223860 0.609561 0.101157
O O5 0.324904 0.555762 0.706229
O O6 0.569915 0.574824 0.160077
O O7 0.514338 0.289177 0.501516
#
# Coordination Sequence:
#
# PCOD9319922 Si02
#       5
#     8   8   4   4   4
#     4  10  22  41  61  91 126 173 219 258 310 379
#     4  10  23  39  62  89 133 171 212 257 315 394
#     4  12  26  42  64 100 144 166 210 262 344 400
#     4  12  23  44  68  96 133 168 220 276 317 390
#     4  12  27  38  64 102 137 172 194 272 351 400
#
# _framework density 22.817055
#
# number of rings (size 3 to 8) (size 9 to 14) (size 15 to 20)
#    0.000    1.143    2.857    2.571    8.000    3.429 
#    0.000    0.000    0.000    3.429    0.000    0.000 
#    0.000    0.000    0.000    0.000    0.000    0.000 
#
# Total GULP energy -78463.555906 kJ/mol
# GULP energy per Si atom -5604.539708 kJ/mol
# Density = 2.276512 g / cm^3
# Si number density = 22.817055 Si / 1000 Ang^3
#
#
#
# Elastic Constant Matrix: (Units=GPa)
#
#
# Indices 1 2 3 4 5 6 
#
# 1 126.1734 14.6537 12.9474 0.0000 0.0000 0.0000
# 2 14.6537 37.4899 13.4156 0.0000 0.0000 0.0000
# 3 12.9474 13.4156 117.4599 0.0000 0.0000 0.0000
# 4 0.0000 0.0000 0.0000 27.5354 0.0000 0.0000
# 5 0.0000 0.0000 0.0000 0.0000 30.5343 0.0000
# 6 0.0000 0.0000 0.0000 0.0000 0.0000 18.1154
#
#
#
# Elastic Compliance Matrix: (Units=1/GPa)
#
#
# Indices 1 2 3 4 5 6 
#
# 1 0.008339 -0.003055 -0.000570 0.000000 0.000000 0.000000
# 2 -0.003055 0.028930 -0.002967 0.000000 0.000000 0.000000
# 3 -0.000570 -0.002967 0.008915 0.000000 0.000000 0.000000
# 4 0.000000 0.000000 0.000000 0.036317 0.000000 0.000000
# 5 0.000000 0.000000 0.000000 0.000000 0.032750 0.000000
# 6 0.000000 0.000000 0.000000 0.000000 0.000000 0.055202
#
#
# Mechanical properties :
#
#
# Convention : Reuss Voigt Hill
#
# Bulk Modulus (GPa) = 30.30468 40.35072 35.32770
# Shear Modulus (GPa) = 25.68864 31.24411 28.46637
#
# Velocity S-wave (km/s) = 3.35901 3.70446 3.53596
# Velocity P-wave (km/s) = 5.32488 6.00169 5.67339
#
# Compressibility (1/GPa) = 0.03299820
#
# Stress axis : x y z
#
# Youngs Moduli (GPa) = 119.91895 34.56619 112.16651
#
# Poissons Ratio (x) = 0.10561 0.06396
# Poissons Ratio (y) = 0.36640 0.33285
# Poissons Ratio (z) = 0.06838 0.10257
#
# Static dielectric constant tensor:
#      x y z
#    x 1.821830 0.000000 0.000000 
#    y 0.000000 1.846450 0.000000 
#    z 0.000000 0.000000 1.833130 
# 
# From -- ./inp_files/2384.got.cif
#   From: 2010.05.17/outbox.cif.g08.bks.cpg/sg20_2_cif.got.tgz:2384.got - 2010.06.03 22:52:26.
