data_PCOD9319853
_publ_section_title
;
Structure prediction by ZEFSAII (Michael W. Deem and Ramdas Pophale) SiO2 
 PCOD9319853
Probable space group: C 2 2 21
;
_chemical_formula_sum "Si O2"
_cell_formula_units_Z 40
_cell_length_a 10.384878
_cell_length_b 7.524403
_cell_length_c 22.536614
_cell_angle_alpha 90.000000
_cell_angle_beta 90.000000
_cell_angle_gamma 90.000000
_cell_volume 1761.011180
_symmetry_space_group_name_H-M "C 2 2 21"
_symmetry_group_IT_number 20
_symmetry_cell_setting 'orthorhombic'
loop_
_space_group_symop_operation_xyz
x,y,z
-x,-y,1/2+z
x,-y,-z
-x,y,1/2-z
1/2+x,1/2+y,z
1/2-x,1/2-y,1/2+z
1/2+x,1/2-y,-z
1/2-x,1/2+y,1/2-z
loop_
_atom_site_type_symbol
_atom_site_label
_atom_site_fract_x
_atom_site_fract_y
_atom_site_fract_z
Si Si1 0.131048 0.436733 0.784188
Si Si2 0.380145 0.515206 0.707254
Si Si3 0.223045 0.559288 0.908198
Si Si4 0.986613 0.061721 0.414418
Si Si5 0.117147 0.255206 0.992370
O O1 0.248913 0.458303 0.738629
O O2 0.122735 0.228768 0.802432
O O3 0.161083 0.549803 0.843116
O O4 0.000000 0.485736 0.750000
O O5 0.500000 0.478366 0.750000
O O6 0.410764 0.417018 0.646258
O O7 0.370622 0.503604 0.900390
O O8 0.224037 0.724733 0.954882
O O9 0.143832 0.414797 0.947344
O O10 0.906617 0.911032 0.449595
O O11 0.999230 0.228456 0.459635
#
# Coordination Sequence:
#
# PCOD9319853 Si02
#       5
#     8   8   8   8   8
#     4  11  26  44  67 103 134 176 231 282 338 398
#     4  11  24  45  70  94 136 180 223 279 339 403
#     4  11  23  46  66  96 140 170 222 288 329 400
#     4  11  23  44  68  95 131 180 224 269 345 403
#     4  10  22  40  65  96 127 172 218 269 333 391
#
# _framework density 22.714221999999999
#
# number of rings (size 3 to 8) (size 9 to 14) (size 15 to 20)
#    0.000    1.200    4.000    2.400    2.800    2.400 
#    7.200    8.000    0.000    0.000    0.000    0.000 
#    0.000    0.000    0.000    0.000    0.000    0.000 
#
# Total GULP energy -111429.262684 kJ/mol
# GULP energy per Si atom -5571.463134 kJ/mol
# Density = 2.266252 g / cm^3
# Si number density = 22.714222 Si / 1000 Ang^3
#
#
#
# Elastic Constant Matrix: (Units=GPa)
#
#
# Indices 1 2 3 4 5 6 
#
# 1 142.4589 38.5926 83.2606 0.0000 0.0000 0.0000
# 2 38.5926 86.2880 49.2958 0.0000 0.0000 0.0000
# 3 83.2606 49.2958 210.1466 0.0000 0.0000 0.0000
# 4 0.0000 0.0000 0.0000 22.3921 0.0000 0.0000
# 5 0.0000 0.0000 0.0000 0.0000 24.6381 0.0000
# 6 0.0000 0.0000 0.0000 0.0000 0.0000 -0.9461
#
#
#
# Elastic Compliance Matrix: (Units=1/GPa)
#
#
# Indices 1 2 3 4 5 6 
#
# 1 0.009559 -0.002439 -0.003215 0.000000 0.000000 0.000000
# 2 -0.002439 0.014005 -0.002319 0.000000 0.000000 0.000000
# 3 -0.003215 -0.002319 0.006577 0.000000 0.000000 0.000000
# 4 0.000000 0.000000 0.000000 0.044659 0.000000 0.000000
# 5 0.000000 0.000000 0.000000 0.000000 0.040588 0.000000
# 6 0.000000 0.000000 0.000000 0.000000 0.000000 -1.057024
#
#
# Mechanical properties :
#
#
# Convention : Reuss Voigt Hill
#
# Bulk Modulus (GPa) = 70.44943 86.79905 78.62424
# Shear Modulus (GPa) = -5.42912 27.06647 10.81868
#
# Velocity S-wave (km/s) = -1.54770 3.45571 2.18479
# Velocity P-wave (km/s) = 5.28101 7.36336 6.40735
#
# Compressibility (1/GPa) = 0.01419458
#
# Stress axis : x y z
#
# Youngs Moduli (GPa) = 104.60843 71.40525 152.05546
#
# Poissons Ratio (x) = 0.17412 0.48893
# Poissons Ratio (y) = 0.25509 0.35262
# Poissons Ratio (z) = 0.33636 0.16559
#
# Static dielectric constant tensor:
#      x y z
#    x 1.848860 0.000000 0.000000 
#    y 0.000000 2.029240 0.000000 
#    z 0.000000 0.000000 1.873950 
# 
# From -- ./inp_files/28591.got.cif
#   From: 2010.05.17/outbox.cif.g08.bks.cpg/sg20_15_cif.got.tgz:28591.got - 2010.06.03 22:52:26.
