data_PCOD9319749
_publ_section_title
;
Structure prediction by ZEFSAII (Michael W. Deem and Ramdas Pophale) SiO2 
 PCOD9319749
Probable space group: C 2 2 21
;
_chemical_formula_sum "Si O2"
_cell_formula_units_Z 36
_cell_length_a 6.237447
_cell_length_b 22.557032
_cell_length_c 13.143850
_cell_angle_alpha 90.000000
_cell_angle_beta 90.000000
_cell_angle_gamma 90.000000
_cell_volume 1849.317240
_symmetry_space_group_name_H-M "C 2 2 21"
_symmetry_group_IT_number 20
_symmetry_cell_setting 'orthorhombic'
loop_
_space_group_symop_operation_xyz
x,y,z
-x,-y,1/2+z
x,-y,-z
-x,y,1/2-z
1/2+x,1/2+y,z
1/2-x,1/2-y,1/2+z
1/2+x,1/2-y,-z
1/2-x,1/2+y,1/2-z
loop_
_atom_site_type_symbol
_atom_site_label
_atom_site_fract_x
_atom_site_fract_y
_atom_site_fract_z
Si Si1 0.779572 0.686655 0.048559
Si Si2 0.149010 0.500000 0.500000
Si Si3 0.157365 0.603383 0.983013
Si Si4 0.555524 0.691050 0.631821
Si Si5 0.464465 0.577727 0.366882
O O1 0.814867 0.750217 0.098674
O O2 0.639132 0.642970 0.118594
O O3 0.653142 0.690592 0.941480
O O4 0.006042 0.654568 0.029546
O O5 0.299950 0.532399 0.418899
O O6 0.999251 0.449546 0.450817
O O7 0.304077 0.633548 0.897536
O O8 0.316071 0.578623 0.069451
O O9 0.500000 0.692564 0.750000
O O10 0.500000 0.564139 0.250000
#
# Coordination Sequence:
#
# PCOD9319749 Si02
#       5
#     8   4   8   8   8
#     4  10  22  39  61  95 135 165 213 267 315 389
#     4  10  22  44  68  90 130 172 212 272 320 370
#     4  10  22  44  62  92 135 163 212 270 308 393
#     4  11  23  39  65  98 134 175 210 263 332 383
#     4  10  23  41  67  98 121 170 222 267 321 379
#
# _framework density 19.466645
#
# number of rings (size 3 to 8) (size 9 to 14) (size 15 to 20)
#    0.000    1.778    2.222    0.667    3.111    3.556 
#    0.000   26.667    0.000    0.000    0.000    0.000 
#    0.000    0.000    0.000    0.000    0.000    0.000 
#
# Total GULP energy -100575.698638 kJ/mol
# GULP energy per Si atom -5587.538813 kJ/mol
# Density = 1.942234 g / cm^3
# Si number density = 19.466645 Si / 1000 Ang^3
#
#
#
# Elastic Constant Matrix: (Units=GPa)
#
#
# Indices 1 2 3 4 5 6 
#
# 1 121.0458 56.3686 73.8496 0.0000 0.0000 0.0000
# 2 56.3686 118.1050 74.3603 0.0000 0.0000 0.0000
# 3 73.8496 74.3603 152.5163 0.0000 0.0000 0.0000
# 4 0.0000 0.0000 0.0000 11.1533 0.0000 0.0000
# 5 0.0000 0.0000 0.0000 0.0000 5.5870 0.0000
# 6 0.0000 0.0000 0.0000 0.0000 0.0000 39.1714
#
#
#
# Elastic Compliance Matrix: (Units=1/GPa)
#
#
# Indices 1 2 3 4 5 6 
#
# 1 0.012466 -0.003101 -0.004524 0.000000 0.000000 0.000000
# 2 -0.003101 0.012989 -0.004831 0.000000 0.000000 0.000000
# 3 -0.004524 -0.004831 0.011103 0.000000 0.000000 0.000000
# 4 0.000000 0.000000 0.000000 0.089660 0.000000 0.000000
# 5 0.000000 0.000000 0.000000 0.000000 0.178986 0.000000
# 6 0.000000 0.000000 0.000000 0.000000 0.000000 0.025529
#
#
# Mechanical properties :
#
#
# Convention : Reuss Voigt Hill
#
# Bulk Modulus (GPa) = 85.87725 88.98045 87.42885
# Shear Modulus (GPa) = 13.90722 23.65492 18.78107
#
# Velocity S-wave (km/s) = 2.67575 3.48968 3.10946
# Velocity P-wave (km/s) = 7.33192 7.87690 7.60929
#
# Compressibility (1/GPa) = 0.01164453
#
# Stress axis : x y z
#
# Youngs Moduli (GPa) = 80.22136 76.98852 90.06837
#
# Poissons Ratio (x) = 0.23875 0.40746
# Poissons Ratio (y) = 0.24878 0.43514
# Poissons Ratio (z) = 0.36291 0.37195
#
# Static dielectric constant tensor:
#      x y z
#    x 1.696090 0.000000 0.000000 
#    y 0.000000 1.691390 0.000000 
#    z 0.000000 0.000000 1.617550 
# 
# From -- ./inp_files/12036.got.cif
#   From: 2010.05.17/outbox.cif.g08.bks.cpg/sg20_7_cif.got.tgz:12036.got - 2010.06.03 22:52:26.
