data_PCOD9319720
_publ_section_title
;
Structure prediction by ZEFSAII (Michael W. Deem and Ramdas Pophale) SiO2 
 PCOD9319720
Probable space group: C 2 2 21
;
_chemical_formula_sum "Si O2"
_cell_formula_units_Z 44
_cell_length_a 9.739204
_cell_length_b 14.779804
_cell_length_c 13.993984
_cell_angle_alpha 90.000000
_cell_angle_beta 90.000000
_cell_angle_gamma 90.000000
_cell_volume 2014.343403
_symmetry_space_group_name_H-M "C 2 2 21"
_symmetry_group_IT_number 20
_symmetry_cell_setting 'orthorhombic'
loop_
_space_group_symop_operation_xyz
x,y,z
-x,-y,1/2+z
x,-y,-z
-x,y,1/2-z
1/2+x,1/2+y,z
1/2-x,1/2-y,1/2+z
1/2+x,1/2-y,-z
1/2-x,1/2+y,1/2-z
loop_
_atom_site_type_symbol
_atom_site_label
_atom_site_fract_x
_atom_site_fract_y
_atom_site_fract_z
Si Si1 0.061678 0.975787 0.604882
Si Si2 0.230557 0.238045 0.105340
Si Si3 0.000000 0.114983 0.750000
Si Si4 0.770011 0.531158 0.106276
Si Si5 0.077534 0.216686 0.438654
Si Si6 0.281194 0.150028 0.797059
O O1 0.105308 0.873709 0.623671
O O2 0.895942 0.976918 0.603322
O O3 0.112712 0.000000 0.500000
O O4 0.092101 0.050401 0.683015
O O5 0.291545 0.137498 0.127298
O O6 0.192664 0.298997 0.197055
O O7 0.086315 0.223175 0.050360
O O8 0.341478 0.286363 0.037991
O O9 0.115830 0.165509 0.809549
O O10 0.815814 0.455689 0.183057
O O11 0.818519 0.500000 0.000000
O O12 0.136934 0.299264 0.379534
#
# Coordination Sequence:
#
# PCOD9319720 Si02
#       6
#     8   8   4   8   8   8
#     4   9  19  35  62  94 124 160 228 271 317 386
#     4  11  24  42  71  99 139 180 233 286 354 412
#     4  10  22  38  68  96 128 176 228 286 330 412
#     4   9  18  39  64  95 127 182 219 277 341 416
#     4  11  24  40  68 101 134 174 226 289 342 417
#     4  11  23  38  69  96 136 171 234 277 345 406
#
# _framework density 21.843347000000001
#
# number of rings (size 3 to 8) (size 9 to 14) (size 15 to 20)
#    0.000    1.818    1.818    1.636   12.727    0.000 
#    0.000    0.000   20.000    0.000    0.000    0.000 
#    0.000    0.000    0.000    0.000    0.000    0.000 
#
# Total GULP energy -122669.031993 kJ/mol
# GULP energy per Si atom -5575.865091 kJ/mol
# Density = 2.179363 g / cm^3
# Si number density = 21.843347 Si / 1000 Ang^3
#
#
#
# Elastic Constant Matrix: (Units=GPa)
#
#
# Indices 1 2 3 4 5 6 
#
# 1 38.4719 25.0658 4.5935 0.0000 0.0000 0.0000
# 2 25.0658 115.5175 35.1830 0.0000 0.0000 0.0000
# 3 4.5935 35.1830 103.7372 0.0000 0.0000 0.0000
# 4 0.0000 0.0000 0.0000 31.0856 0.0000 0.0000
# 5 0.0000 0.0000 0.0000 0.0000 30.9776 0.0000
# 6 0.0000 0.0000 0.0000 0.0000 0.0000 23.5230
#
#
#
# Elastic Compliance Matrix: (Units=1/GPa)
#
#
# Indices 1 2 3 4 5 6 
#
# 1 0.030364 -0.006891 0.000993 0.000000 0.000000 0.000000
# 2 -0.006891 0.011218 -0.003499 0.000000 0.000000 0.000000
# 3 0.000993 -0.003499 0.010783 0.000000 0.000000 0.000000
# 4 0.000000 0.000000 0.000000 0.032169 0.000000 0.000000
# 5 0.000000 0.000000 0.000000 0.000000 0.032281 0.000000
# 6 0.000000 0.000000 0.000000 0.000000 0.000000 0.042512
#
#
# Mechanical properties :
#
#
# Convention : Reuss Voigt Hill
#
# Bulk Modulus (GPa) = 29.78940 43.04568 36.41754
# Shear Modulus (GPa) = 26.41141 29.97618 28.19380
#
# Velocity S-wave (km/s) = 3.48102 3.70851 3.59657
# Velocity P-wave (km/s) = 5.46114 6.17144 5.82713
#
# Compressibility (1/GPa) = 0.03356899
#
# Stress axis : x y z
#
# Youngs Moduli (GPa) = 32.93356 89.14436 92.74159
#
# Poissons Ratio (x) = 0.61429 -0.09205
# Poissons Ratio (y) = 0.22694 0.32454
# Poissons Ratio (z) = -0.03269 0.31195
#
# Static dielectric constant tensor:
#      x y z
#    x 1.783240 0.000000 0.000000 
#    y 0.000000 1.861180 0.000000 
#    z 0.000000 0.000000 1.862040 
# 
# From -- ./inp_files/19862.got.cif
#   From: 2010.05.17/outbox.cif.g08.bks.cpg/sg20_10_cif.got.tgz:19862.got - 2010.06.03 22:52:26.
