data_PCOD9319041
_publ_section_title
;
Structure prediction by ZEFSAII (Michael W. Deem and Ramdas Pophale) SiO2 
 PCOD9319041
Probable space group: C 2 2 21
;
_chemical_formula_sum "Si O2"
_cell_formula_units_Z 32
_cell_length_a 26.885219
_cell_length_b 5.063900
_cell_length_c 9.615624
_cell_angle_alpha 90.000000
_cell_angle_beta 90.000000
_cell_angle_gamma 90.000000
_cell_volume 1309.110096
_symmetry_space_group_name_H-M "C 2 2 21"
_symmetry_group_IT_number 20
_symmetry_cell_setting 'orthorhombic'
loop_
_space_group_symop_operation_xyz
x,y,z
-x,-y,1/2+z
x,-y,-z
-x,y,1/2-z
1/2+x,1/2+y,z
1/2-x,1/2-y,1/2+z
1/2+x,1/2-y,-z
1/2-x,1/2+y,1/2-z
loop_
_atom_site_type_symbol
_atom_site_label
_atom_site_fract_x
_atom_site_fract_y
_atom_site_fract_z
Si Si1 0.636025 0.393225 0.652462
Si Si2 0.255698 0.299536 0.822566
Si Si3 0.352851 0.742955 0.586875
Si Si4 0.027896 0.744145 0.601409
O O1 0.641884 0.500000 0.500000
O O2 0.686272 0.221776 0.670451
O O3 0.633037 0.641634 0.758990
O O4 0.585519 0.229667 0.650365
O O5 0.258774 0.614785 0.808364
O O6 0.207851 0.243203 0.916264
O O7 0.372824 0.500000 0.500000
O O8 0.368854 0.000000 0.500000
O O9 0.014923 0.500000 0.500000
O O10 0.000000 0.758718 0.750000
O O11 0.022278 0.000000 0.500000
#
# Coordination Sequence:
#
# PCOD9319041 Si02
#       4
#     8   8   8   8
#     4  10  24  43  69 100 135 181 234 285 343 412
#     4  10  21  39  61  92 136 182 228 277 330 399
#     4  11  23  40  62  96 141 185 228 276 337 407
#     4  11  26  50  77 106 139 180 233 296 363 426
#
# _framework density 24.444088000000001
#
# number of rings (size 3 to 8) (size 9 to 14) (size 15 to 20)
#    0.000    1.500    0.000    4.500    0.000   18.000 
#    0.000    5.000    0.000    0.000    0.000    0.000 
#    0.000    0.000    0.000    0.000    0.000    0.000 
#
# Total GULP energy -89104.747205 kJ/mol
# GULP energy per Si atom -5569.046700 kJ/mol
# Density = 2.438845 g / cm^3
# Si number density = 24.444088 Si / 1000 Ang^3
#
#
#
# Elastic Constant Matrix: (Units=GPa)
#
#
# Indices 1 2 3 4 5 6 
#
# 1 72.4176 -12.5667 23.0417 0.0000 0.0000 0.0000
# 2 -12.5667 128.1159 62.6585 0.0000 0.0000 0.0000
# 3 23.0417 62.6585 175.3145 0.0000 0.0000 0.0000
# 4 0.0000 0.0000 0.0000 25.6375 0.0000 0.0000
# 5 0.0000 0.0000 0.0000 0.0000 -3.2434 0.0000
# 6 0.0000 0.0000 0.0000 0.0000 0.0000 32.4108
#
#
#
# Elastic Compliance Matrix: (Units=1/GPa)
#
#
# Indices 1 2 3 4 5 6 
#
# 1 0.015315 0.003013 -0.003090 0.000000 0.000000 0.000000
# 2 0.003013 0.010052 -0.003989 0.000000 0.000000 0.000000
# 3 -0.003090 -0.003989 0.007536 0.000000 0.000000 0.000000
# 4 0.000000 0.000000 0.000000 0.039005 0.000000 0.000000
# 5 0.000000 0.000000 0.000000 0.000000 -0.308320 0.000000
# 6 0.000000 0.000000 0.000000 0.000000 0.000000 0.030854
#
#
# Mechanical properties :
#
#
# Convention : Reuss Voigt Hill
#
# Bulk Modulus (GPa) = 40.36792 58.01278 49.19035
# Shear Modulus (GPa) = -26.43118 31.14194 2.35538
#
# Velocity S-wave (km/s) = -3.29187 3.57320 0.98269
# Velocity P-wave (km/s) = 1.44973 6.38811 4.63194
#
# Compressibility (1/GPa) = 0.02477215
#
# Stress axis : x y z
#
# Youngs Moduli (GPa) = 65.29613 99.48514 132.70183
#
# Poissons Ratio (x) = -0.29979 0.41003
# Poissons Ratio (y) = -0.19676 0.52930
# Poissons Ratio (z) = 0.20176 0.39681
#
# Static dielectric constant tensor:
#      x y z
#    x 2.146820 0.000000 0.000000 
#    y 0.000000 2.000740 0.000000 
#    z 0.000000 0.000000 1.663690 
# 
# From -- ./inp_files/11292.got.cif
#   From: 2010.05.17/outbox.cif.g08.bks.cpg/sg20_6_cif.got.tgz:11292.got - 2010.06.03 22:52:26.
