data_PCOD9319240
_publ_section_title
;
Structure prediction by ZEFSAII (Michael W. Deem and Ramdas Pophale) SiO2 
 PCOD9319240
Probable space group: C 2 2 21
;
_chemical_formula_sum "Si O2"
_cell_formula_units_Z 36
_cell_length_a 5.033723
_cell_length_b 25.333742
_cell_length_c 10.804997
_cell_angle_alpha 90.000000
_cell_angle_beta 90.000000
_cell_angle_gamma 90.000000
_cell_volume 1377.886062
_symmetry_space_group_name_H-M "C 2 2 21"
_symmetry_group_IT_number 20
_symmetry_cell_setting 'orthorhombic'
loop_
_space_group_symop_operation_xyz
x,y,z
-x,-y,1/2+z
x,-y,-z
-x,y,1/2-z
1/2+x,1/2+y,z
1/2-x,1/2-y,1/2+z
1/2+x,1/2-y,-z
1/2-x,1/2+y,1/2-z
loop_
_atom_site_type_symbol
_atom_site_label
_atom_site_fract_x
_atom_site_fract_y
_atom_site_fract_z
Si Si1 0.000000 0.061880 0.250000
Si Si2 0.173488 0.643300 0.395585
Si Si3 0.667940 0.018653 0.873556
Si Si4 0.300502 0.245702 0.585251
Si Si5 0.672564 0.634804 0.564521
O O1 0.229882 0.098934 0.197439
O O2 0.096976 0.023619 0.358601
O O3 0.233248 0.701387 0.341007
O O4 0.375168 0.637673 0.512477
O O5 0.879032 0.638496 0.449049
O O6 0.500000 0.012410 0.750000
O O7 0.769017 0.078593 0.875964
O O8 0.526707 0.000000 0.000000
O O9 0.597200 0.249532 0.531901
O O10 0.240805 0.188124 0.640352
#
# Coordination Sequence:
#
# PCOD9319240 Si02
#       5
#     4   8   8   8   8
#     4  12  26  40  68 100 142 188 244 294 360 432
#     4  10  21  40  68 100 138 182 239 293 359 431
#     4  12  27  46  71 104 147 194 244 298 360 435
#     4   8  16  34  64  95 131 179 228 291 355 424
#     4  10  21  42  68  98 139 184 236 295 361 424
#
# _framework density 26.126975000000002
#
# number of rings (size 3 to 8) (size 9 to 14) (size 15 to 20)
#    0.000    1.778    2.222    1.333    3.111    0.889 
#    2.000    0.000    0.000    0.000    0.000    0.000 
#    0.000    0.000    0.000    0.000    0.000    0.000 
#
# Total GULP energy -100849.679662 kJ/mol
# GULP energy per Si atom -5602.759981 kJ/mol
# Density = 2.606751 g / cm^3
# Si number density = 26.126975 Si / 1000 Ang^3
#
#
#
# Elastic Constant Matrix: (Units=GPa)
#
#
# Indices 1 2 3 4 5 6 
#
# 1 100.7764 12.5727 30.6378 0.0000 0.0000 0.0000
# 2 12.5727 260.2556 43.6724 0.0000 0.0000 0.0000
# 3 30.6378 43.6724 86.7637 0.0000 0.0000 0.0000
# 4 0.0000 0.0000 0.0000 20.8283 0.0000 0.0000
# 5 0.0000 0.0000 0.0000 0.0000 36.3660 0.0000
# 6 0.0000 0.0000 0.0000 0.0000 0.0000 10.4207
#
#
#
# Elastic Compliance Matrix: (Units=1/GPa)
#
#
# Indices 1 2 3 4 5 6 
#
# 1 0.011121 0.000133 -0.003994 0.000000 0.000000 0.000000
# 2 0.000133 0.004198 -0.002160 0.000000 0.000000 0.000000
# 3 -0.003994 -0.002160 0.014023 0.000000 0.000000 0.000000
# 4 0.000000 0.000000 0.000000 0.048012 0.000000 0.000000
# 5 0.000000 0.000000 0.000000 0.000000 0.027498 0.000000
# 6 0.000000 0.000000 0.000000 0.000000 0.000000 0.095963
#
#
# Mechanical properties :
#
#
# Convention : Reuss Voigt Hill
#
# Bulk Modulus (GPa) = 57.80326 69.06238 63.43282
# Shear Modulus (GPa) = 22.87030 37.58384 30.22707
#
# Velocity S-wave (km/s) = 2.96184 3.79688 3.40506
# Velocity P-wave (km/s) = 5.81968 6.76110 6.30798
#
# Compressibility (1/GPa) = 0.01730006
#
# Stress axis : x y z
#
# Youngs Moduli (GPa) = 89.92359 238.18300 71.31047
#
# Poissons Ratio (x) = -0.03167 0.28480
# Poissons Ratio (y) = -0.01196 0.15405
# Poissons Ratio (z) = 0.35914 0.51453
#
# Static dielectric constant tensor:
#      x y z
#    x 2.012470 0.000000 0.000000 
#    y 0.000000 2.074850 0.000000 
#    z 0.000000 0.000000 2.110250 
# 
# From -- ./inp_files/12066.got.cif
#   From: 2010.05.17/outbox.cif.g08.bks.cpg/sg20_7_cif.got.tgz:12066.got - 2010.06.03 22:52:26.
