data_PCOD9319575
_publ_section_title
;
Structure prediction by ZEFSAII (Michael W. Deem and Ramdas Pophale) SiO2 
 PCOD9319575
Probable space group: C 2 2 21
;
_chemical_formula_sum "Si O2"
_cell_formula_units_Z 40
_cell_length_a 7.866419
_cell_length_b 17.190904
_cell_length_c 12.343503
_cell_angle_alpha 90.000000
_cell_angle_beta 90.000000
_cell_angle_gamma 90.000000
_cell_volume 1669.222450
_symmetry_space_group_name_H-M "C 2 2 21"
_symmetry_group_IT_number 20
_symmetry_cell_setting 'orthorhombic'
loop_
_space_group_symop_operation_xyz
x,y,z
-x,-y,1/2+z
x,-y,-z
-x,y,1/2-z
1/2+x,1/2+y,z
1/2-x,1/2-y,1/2+z
1/2+x,1/2-y,-z
1/2-x,1/2+y,1/2-z
loop_
_atom_site_type_symbol
_atom_site_label
_atom_site_fract_x
_atom_site_fract_y
_atom_site_fract_z
Si Si1 0.360447 0.435942 0.156532
Si Si2 0.690987 0.179338 0.272322
Si Si3 0.824878 0.668768 0.785459
Si Si4 0.771824 0.102766 0.062986
Si Si5 0.863430 0.592376 0.015092
O O1 0.500000 0.430507 0.250000
O O2 0.189952 0.410151 0.216900
O O3 0.334051 0.521978 0.113340
O O4 0.376750 0.385081 0.047226
O O5 0.500000 0.151519 0.250000
O O6 0.691148 0.272582 0.269155
O O7 0.792551 0.161204 0.162051
O O8 0.731303 0.132578 0.381997
O O9 0.000000 0.706664 0.750000
O O10 0.815851 0.643537 0.909548
O O11 0.570260 0.098121 0.030973
O O12 0.822055 0.500000 0.000000
#
# Coordination Sequence:
#
# PCOD9319575 Si02
#       5
#     8   8   8   8   8
#     4  11  23  43  71 101 141 187 235 302 365 427
#     4  10  25  42  68 103 143 187 239 299 367 432
#     4  12  24  42  69 104 147 189 243 294 369 442
#     4  10  21  46  70  99 144 182 236 300 359 438
#     4  11  21  43  75 102 138 194 248 296 359 448
#
# _framework density 23.963252000000001
#
# number of rings (size 3 to 8) (size 9 to 14) (size 15 to 20)
#    0.000    1.200    4.000    1.800    2.800    2.400 
#   14.400    0.000    0.000    0.000    0.000    0.000 
#    0.000    0.000    0.000    0.000    0.000    0.000 
#
# Total GULP energy -111563.396392 kJ/mol
# GULP energy per Si atom -5578.169820 kJ/mol
# Density = 2.390871 g / cm^3
# Si number density = 23.963252 Si / 1000 Ang^3
#
#
#
# Elastic Constant Matrix: (Units=GPa)
#
#
# Indices 1 2 3 4 5 6 
#
# 1 52.7694 13.2136 39.1617 0.0000 0.0000 0.0000
# 2 13.2136 94.4775 84.1509 0.0000 0.0000 0.0000
# 3 39.1617 84.1509 228.1422 0.0000 0.0000 0.0000
# 4 0.0000 0.0000 0.0000 50.2175 0.0000 0.0000
# 5 0.0000 0.0000 0.0000 0.0000 27.8085 0.0000
# 6 0.0000 0.0000 0.0000 0.0000 0.0000 -394.8297
#
#
#
# Elastic Compliance Matrix: (Units=1/GPa)
#
#
# Indices 1 2 3 4 5 6 
#
# 1 0.021728 0.000422 -0.003885 0.000000 0.000000 0.000000
# 2 0.000422 0.015772 -0.005890 0.000000 0.000000 0.000000
# 3 -0.003885 -0.005890 0.007223 0.000000 0.000000 0.000000
# 4 0.000000 0.000000 0.000000 0.019913 0.000000 0.000000
# 5 0.000000 0.000000 0.000000 0.000000 0.035960 0.000000
# 6 0.000000 0.000000 0.000000 0.000000 0.000000 -0.002533
#
#
# Mechanical properties :
#
#
# Convention : Reuss Voigt Hill
#
# Bulk Modulus (GPa) = 38.43834 72.04905 55.24369
# Shear Modulus (GPa) = 39.85911 -47.43654 -3.78871
#
# Velocity S-wave (km/s) = 4.08283 -4.45404 -1.25876
# Velocity P-wave (km/s) = 6.18881 1.91844 4.58158
#
# Compressibility (1/GPa) = 0.02601569
#
# Stress axis : x y z
#
# Youngs Moduli (GPa) = 46.02316 63.40523 138.45377
#
# Poissons Ratio (x) = -0.02674 0.53794
# Poissons Ratio (y) = -0.01941 0.81546
# Poissons Ratio (z) = 0.17881 0.37344
#
# Static dielectric constant tensor:
#      x y z
#    x 2.103730 0.000000 0.000000 
#    y 0.000000 1.882550 0.000000 
#    z 0.000000 0.000000 2.482940 
# 
# From -- ./inp_files/12669.got.cif
#   From: 2010.05.17/outbox.cif.g08.bks.cpg/sg20_7_cif.got.tgz:12669.got - 2010.06.03 22:52:26.
