data_PCOD9319290
_publ_section_title
;
Structure prediction by ZEFSAII (Michael W. Deem and Ramdas Pophale) SiO2 
 PCOD9319290
Probable space group: C 2 2 21
;
_chemical_formula_sum "Si O2"
_cell_formula_units_Z 64
_cell_length_a 23.625492
_cell_length_b 14.721542
_cell_length_c 9.364119
_cell_angle_alpha 90.000000
_cell_angle_beta 90.000000
_cell_angle_gamma 90.000000
_cell_volume 3256.874980
_symmetry_space_group_name_H-M "C 2 2 21"
_symmetry_group_IT_number 20
_symmetry_cell_setting 'orthorhombic'
loop_
_space_group_symop_operation_xyz
x,y,z
-x,-y,1/2+z
x,-y,-z
-x,y,1/2-z
1/2+x,1/2+y,z
1/2-x,1/2-y,1/2+z
1/2+x,1/2-y,-z
1/2-x,1/2+y,1/2-z
loop_
_atom_site_type_symbol
_atom_site_label
_atom_site_fract_x
_atom_site_fract_y
_atom_site_fract_z
Si Si1 0.601184 0.710306 0.009468
Si Si2 0.055298 0.467282 0.837182
Si Si3 0.432443 0.165122 0.764415
Si Si4 0.780199 0.908750 0.906177
Si Si5 0.853773 0.966603 0.645473
Si Si6 0.160464 0.330816 0.815029
Si Si7 0.938950 0.121281 0.747862
Si Si8 0.129697 0.764148 0.471025
O O1 0.653954 0.740001 0.911522
O O2 0.555836 0.691894 0.884959
O O3 0.591944 0.788151 0.123179
O O4 0.608203 0.618466 0.097887
O O5 0.075183 0.556969 0.750291
O O6 0.105708 0.394567 0.842109
O O7 0.000000 0.433113 0.750000
O O8 0.041251 0.500000 0.000000
O O9 0.500000 0.181523 0.750000
O O10 0.402117 0.209662 0.902031
O O11 0.809565 0.934508 0.758905
O O12 0.717199 0.877231 0.869127
O O13 0.820387 0.830498 0.973375
O O14 0.779635 0.000000 0.000000
O O15 0.825492 0.000000 0.500000
O O16 0.892368 0.046606 0.707769
O O17 0.156521 0.301363 0.649870
O O18 0.000000 0.075709 0.750000
O O19 0.916437 0.174050 0.886292
#
# Coordination Sequence:
#
# PCOD9319290 Si02
#       8
#     8   8   8   8   8   8   8   8
#     4  10  21  41  63  94 132 168 227 270 334 399
#     4  11  25  45  70 102 139 178 222 287 348 412
#     4  11  23  39  67 101 136 172 218 277 338 400
#     4  12  25  47  69  96 136 178 232 289 339 411
#     4  10  22  43  63  96 133 174 216 279 336 399
#     4  11  27  45  71  95 132 183 229 281 354 407
#     4  10  21  41  66  97 138 183 219 267 345 413
#     4  11  25  44  68 104 135 178 233 284 336 409
#
# _framework density 19.650736999999999
#
# number of rings (size 3 to 8) (size 9 to 14) (size 15 to 20)
#    0.000    1.250    3.750    1.125    5.250    2.500 
#    9.000    0.000    0.000    0.000    0.000    0.000 
#    0.000    0.000    0.000    0.000    0.000    0.000 
#
# Total GULP energy -178528.026444 kJ/mol
# GULP energy per Si atom -5579.000826 kJ/mol
# Density = 1.960601 g / cm^3
# Si number density = 19.650737 Si / 1000 Ang^3
#
#
#
# Elastic Constant Matrix: (Units=GPa)
#
#
# Indices 1 2 3 4 5 6 
#
# 1 82.2725 32.2073 43.8813 0.0000 0.0000 0.0000
# 2 32.2073 80.0218 41.2906 0.0000 0.0000 0.0000
# 3 43.8813 41.2906 123.7948 0.0000 0.0000 0.0000
# 4 0.0000 0.0000 0.0000 44.4490 0.0000 0.0000
# 5 0.0000 0.0000 0.0000 0.0000 -0.5668 0.0000
# 6 0.0000 0.0000 0.0000 0.0000 0.0000 31.2743
#
#
#
# Elastic Compliance Matrix: (Units=1/GPa)
#
#
# Indices 1 2 3 4 5 6 
#
# 1 0.016114 -0.004274 -0.004286 0.000000 0.000000 0.000000
# 2 -0.004274 0.016228 -0.003898 0.000000 0.000000 0.000000
# 3 -0.004286 -0.003898 0.010897 0.000000 0.000000 0.000000
# 4 0.000000 0.000000 0.000000 0.022498 0.000000 0.000000
# 5 0.000000 0.000000 0.000000 0.000000 -1.764424 0.000000
# 6 0.000000 0.000000 0.000000 0.000000 0.000000 0.031975
#
#
# Mechanical properties :
#
#
# Convention : Reuss Voigt Hill
#
# Bulk Modulus (GPa) = 54.57525 57.87194 56.22360
# Shear Modulus (GPa) = -3.05682 26.27863 11.61091
#
# Velocity S-wave (km/s) = -1.24858 3.66086 2.43341
# Velocity P-wave (km/s) = 5.07487 6.88356 6.04722
#
# Compressibility (1/GPa) = 0.01832332
#
# Stress axis : x y z
#
# Youngs Moduli (GPa) = 62.05764 61.62214 91.76558
#
# Poissons Ratio (x) = 0.26336 0.39335
# Poissons Ratio (y) = 0.26523 0.35768
# Poissons Ratio (z) = 0.26601 0.24019
#
# Static dielectric constant tensor:
#      x y z
#    x 1.711170 0.000000 0.000000 
#    y 0.000000 1.720480 0.000000 
#    z 0.000000 0.000000 1.702320 
# 
# From -- ./inp_files/10799.got.cif
#   From: 2010.05.17/outbox.cif.g08.bks.cpg/sg20_6_cif.got.tgz:10799.got - 2010.06.03 22:52:26.
