data_PCOD9319378
_publ_section_title
;
Structure prediction by ZEFSAII (Michael W. Deem and Ramdas Pophale) SiO2 
 PCOD9319378
Probable space group: C 2 2 21
;
_chemical_formula_sum "Si O2"
_cell_formula_units_Z 64
_cell_length_a 7.775706
_cell_length_b 16.285246
_cell_length_c 22.385626
_cell_angle_alpha 90.000000
_cell_angle_beta 90.000000
_cell_angle_gamma 90.000000
_cell_volume 2834.675815
_symmetry_space_group_name_H-M "C 2 2 21"
_symmetry_group_IT_number 20
_symmetry_cell_setting 'orthorhombic'
loop_
_space_group_symop_operation_xyz
x,y,z
-x,-y,1/2+z
x,-y,-z
-x,y,1/2-z
1/2+x,1/2+y,z
1/2-x,1/2-y,1/2+z
1/2+x,1/2-y,-z
1/2-x,1/2+y,1/2-z
loop_
_atom_site_type_symbol
_atom_site_label
_atom_site_fract_x
_atom_site_fract_y
_atom_site_fract_z
Si Si1 0.690100 0.993101 0.392180
Si Si2 0.129764 0.334453 0.575314
Si Si3 0.236227 0.678058 0.122251
Si Si4 0.709124 0.000855 0.135039
Si Si5 0.866294 0.330025 0.060083
Si Si6 0.205632 0.678233 0.867156
Si Si7 0.201179 0.036728 0.234079
Si Si8 0.294367 0.221883 0.245770
O O1 0.741446 0.083131 0.415778
O O2 0.750841 0.985714 0.324113
O O3 0.480407 0.998394 0.394188
O O4 0.743434 0.912419 0.428279
O O5 0.066821 0.334656 0.507153
O O6 0.223602 0.250425 0.591138
O O7 0.968640 0.334510 0.620091
O O8 0.305008 0.584871 0.115732
O O9 0.277272 0.743126 0.071444
O O10 0.279074 0.716518 0.186858
O O11 0.790930 0.911493 0.124765
O O12 0.694355 0.011474 0.206728
O O13 0.011907 0.331829 0.110689
O O14 0.223273 0.709987 0.799330
O O15 0.247634 0.131607 0.220745
O O16 0.000000 0.029761 0.250000
O O17 0.500000 0.232353 0.250000
#
# Coordination Sequence:
#
# PCOD9319378 Si02
#       8
#     8   8   8   8   8   8   8   8
#     4  10  21  42  63  89 124 173 213 256 320 392
#     4  11  21  43  66  88 126 171 217 267 322 387
#     4  10  22  40  63  90 128 166 206 267 330 377
#     4   9  22  39  61  90 129 167 210 253 320 392
#     4  11  25  39  63  96 125 166 221 270 315 381
#     4  11  23  39  66  95 122 169 220 263 315 387
#     4  11  22  36  61  97 131 162 204 267 327 386
#     4  11  21  40  64  91 127 169 206 261 329 391
#
# _framework density 22.577539000000002
#
# number of rings (size 3 to 8) (size 9 to 14) (size 15 to 20)
#    0.000    1.500    2.500    3.000    5.250    1.500 
#    0.000    1.875    0.000    0.000    0.000    0.000 
#    0.000    0.000    0.000    0.000    0.000    0.000 
#
# Total GULP energy -178603.128594 kJ/mol
# GULP energy per Si atom -5581.347769 kJ/mol
# Density = 2.252615 g / cm^3
# Si number density = 22.577539 Si / 1000 Ang^3
#
#
#
# Elastic Constant Matrix: (Units=GPa)
#
#
# Indices 1 2 3 4 5 6 
#
# 1 20.3344 11.9439 -4.9439 0.0000 0.0000 0.0000
# 2 11.9439 171.6081 43.9274 0.0000 0.0000 0.0000
# 3 -4.9439 43.9274 82.4995 0.0000 0.0000 0.0000
# 4 0.0000 0.0000 0.0000 19.7110 0.0000 0.0000
# 5 0.0000 0.0000 0.0000 0.0000 20.8497 0.0000
# 6 0.0000 0.0000 0.0000 0.0000 0.0000 17.3301
#
#
#
# Elastic Compliance Matrix: (Units=1/GPa)
#
#
# Indices 1 2 3 4 5 6 
#
# 1 0.053750 -0.005286 0.006036 0.000000 0.000000 0.000000
# 2 -0.005286 0.007267 -0.004186 0.000000 0.000000 0.000000
# 3 0.006036 -0.004186 0.014712 0.000000 0.000000 0.000000
# 4 0.000000 0.000000 0.000000 0.050733 0.000000 0.000000
# 5 0.000000 0.000000 0.000000 0.000000 0.047962 0.000000
# 6 0.000000 0.000000 0.000000 0.000000 0.000000 0.057703
#
#
# Mechanical properties :
#
#
# Convention : Reuss Voigt Hill
#
# Bulk Modulus (GPa) = 14.52311 41.81076 28.16693
# Shear Modulus (GPa) = 19.08749 26.47912 22.78330
#
# Velocity S-wave (km/s) = 2.91076 3.42834 3.18010
# Velocity P-wave (km/s) = 4.21227 5.85067 5.09772
#
# Compressibility (1/GPa) = 0.06885578
#
# Stress axis : x y z
#
# Youngs Moduli (GPa) = 18.60465 137.61557 67.97270
#
# Poissons Ratio (x) = 0.72743 -0.41025
# Poissons Ratio (y) = 0.09834 0.28453
# Poissons Ratio (z) = -0.11229 0.57605
#
# Static dielectric constant tensor:
#      x y z
#    x 1.855770 0.000000 0.000000 
#    y 0.000000 1.976610 0.000000 
#    z 0.000000 0.000000 1.821940 
# 
# From -- ./inp_files/28913.got.cif
#   From: 2010.05.17/outbox.cif.g08.bks.cpg/sg20_15_cif.got.tgz:28913.got - 2010.06.03 22:52:26.
