data_PCOD9319806
_publ_section_title
;
Structure prediction by ZEFSAII (Michael W. Deem and Ramdas Pophale) SiO2 
 PCOD9319806
Probable space group: C 2 2 21
;
_chemical_formula_sum "Si O2"
_cell_formula_units_Z 56
_cell_length_a 13.641805
_cell_length_b 14.519599
_cell_length_c 12.581816
_cell_angle_alpha 90.000000
_cell_angle_beta 90.000000
_cell_angle_gamma 90.000000
_cell_volume 2492.124813
_symmetry_space_group_name_H-M "C 2 2 21"
_symmetry_group_IT_number 20
_symmetry_cell_setting 'orthorhombic'
loop_
_space_group_symop_operation_xyz
x,y,z
-x,-y,1/2+z
x,-y,-z
-x,y,1/2-z
1/2+x,1/2+y,z
1/2-x,1/2-y,1/2+z
1/2+x,1/2-y,-z
1/2-x,1/2+y,1/2-z
loop_
_atom_site_type_symbol
_atom_site_label
_atom_site_fract_x
_atom_site_fract_y
_atom_site_fract_z
Si Si1 0.891554 0.107291 0.012426
Si Si2 0.323435 0.343636 0.759699
Si Si3 0.555107 0.642279 0.852767
Si Si4 0.399438 0.972070 0.267597
Si Si5 0.112333 0.658371 0.126423
Si Si6 0.703980 0.826088 0.101635
Si Si7 0.226498 0.015630 0.875925
O O1 0.815434 0.169368 0.942599
O O2 0.997271 0.111844 0.957646
O O3 0.889781 0.142912 0.134378
O O4 0.858083 0.000000 0.000000
O O5 0.215050 0.338139 0.810832
O O6 0.326864 0.257502 0.678862
O O7 0.328157 0.435510 0.689237
O O8 0.500000 0.602929 0.750000
O O9 0.551095 0.751960 0.847979
O O10 0.667385 0.609449 0.853127
O O11 0.500000 0.917449 0.250000
O O12 0.430351 0.061621 0.335226
O O13 0.339463 0.988932 0.160206
O O14 0.318531 0.918575 0.334737
O O15 0.137147 0.666816 0.002714
O O16 0.220141 0.000000 0.000000
#
# Coordination Sequence:
#
# PCOD9319806 Si02
#       7
#     8   8   8   8   8   8   8
#     4  11  23  42  69  99 138 183 227 285 356 424
#     4  10  22  41  65  95 132 175 221 274 339 412
#     4  12  23  40  68  98 131 172 223 279 344 416
#     4  11  24  42  64  89 124 169 219 273 332 400
#     4  10  22  40  62  90 125 166 216 270 329 398
#     4  11  22  41  65  91 127 171 218 271 330 403
#     4  11  24  42  64  94 131 168 216 280 342 407
#
# _framework density 22.470783999999998
#
# number of rings (size 3 to 8) (size 9 to 14) (size 15 to 20)
#    0.000    1.143    0.000    8.143    0.000    4.571 
#    0.000    3.571    0.000    0.000    0.000    0.000 
#    0.000    0.000    0.000    0.000    0.000    0.000 
#
# Total GULP energy -156438.988135 kJ/mol
# GULP energy per Si atom -5587.106719 kJ/mol
# Density = 2.241964 g / cm^3
# Si number density = 22.470784 Si / 1000 Ang^3
#
#
#
# Elastic Constant Matrix: (Units=GPa)
#
#
# Indices 1 2 3 4 5 6 
#
# 1 65.0684 -6.7469 26.5979 0.0000 0.0000 0.0000
# 2 -6.7469 43.2391 20.5165 0.0000 0.0000 0.0000
# 3 26.5979 20.5165 152.4603 0.0000 0.0000 0.0000
# 4 0.0000 0.0000 0.0000 32.6316 0.0000 0.0000
# 5 0.0000 0.0000 0.0000 0.0000 16.6882 0.0000
# 6 0.0000 0.0000 0.0000 0.0000 0.0000 16.3081
#
#
#
# Elastic Compliance Matrix: (Units=1/GPa)
#
#
# Indices 1 2 3 4 5 6 
#
# 1 0.017303 0.004414 -0.003613 0.000000 0.000000 0.000000
# 2 0.004414 0.025831 -0.004246 0.000000 0.000000 0.000000
# 3 -0.003613 -0.004246 0.007761 0.000000 0.000000 0.000000
# 4 0.000000 0.000000 0.000000 0.030645 0.000000 0.000000
# 5 0.000000 0.000000 0.000000 0.000000 0.059922 0.000000
# 6 0.000000 0.000000 0.000000 0.000000 0.000000 0.061319
#
#
# Mechanical properties :
#
#
# Convention : Reuss Voigt Hill
#
# Bulk Modulus (GPa) = 22.72473 37.94476 30.33474
# Shear Modulus (GPa) = 22.28773 27.81895 25.05334
#
# Velocity S-wave (km/s) = 3.15279 3.52235 3.34268
# Velocity P-wave (km/s) = 4.83615 5.78494 5.33169
#
# Compressibility (1/GPa) = 0.04400492
#
# Stress axis : x y z
#
# Youngs Moduli (GPa) = 57.79393 38.71368 128.85399
#
# Poissons Ratio (x) = -0.17088 0.46550
# Poissons Ratio (y) = -0.25510 0.54712
# Poissons Ratio (z) = 0.20879 0.16438
#
# Static dielectric constant tensor:
#      x y z
#    x 1.826030 0.000000 0.000000 
#    y 0.000000 1.884160 0.000000 
#    z 0.000000 0.000000 2.044910 
# 
# From -- ./inp_files/15129.got.cif
#   From: 2010.05.17/outbox.cif.g08.bks.cpg/sg20_8_cif.got.tgz:15129.got - 2010.06.03 22:52:26.
