data_PCOD9319043
_publ_section_title
;
Structure prediction by ZEFSAII (Michael W. Deem and Ramdas Pophale) SiO2 
 PCOD9319043
Probable space group: C 2 2 21
;
_chemical_formula_sum "Si O2"
_cell_formula_units_Z 40
_cell_length_a 9.706352
_cell_length_b 4.907020
_cell_length_c 30.489918
_cell_angle_alpha 90.000000
_cell_angle_beta 90.000000
_cell_angle_gamma 90.000000
_cell_volume 1452.212335
_symmetry_space_group_name_H-M "C 2 2 21"
_symmetry_group_IT_number 20
_symmetry_cell_setting 'orthorhombic'
loop_
_space_group_symop_operation_xyz
x,y,z
-x,-y,1/2+z
x,-y,-z
-x,y,1/2-z
1/2+x,1/2+y,z
1/2-x,1/2-y,1/2+z
1/2+x,1/2-y,-z
1/2-x,1/2+y,1/2-z
loop_
_atom_site_type_symbol
_atom_site_label
_atom_site_fract_x
_atom_site_fract_y
_atom_site_fract_z
Si Si1 0.549282 0.750112 0.032028
Si Si2 0.571109 0.749311 0.644773
Si Si3 0.234938 0.831756 0.278138
Si Si4 0.614286 0.248456 0.611652
Si Si5 0.342872 0.750286 0.372076
O O1 0.404779 0.751311 0.059639
O O2 0.658821 0.749212 0.071148
O O3 0.557934 0.500000 0.000000
O O4 0.559396 0.000000 0.000000
O O5 0.590734 0.735595 0.696837
O O6 0.703376 0.513072 0.629570
O O7 0.703435 0.984751 0.629988
O O8 0.482336 0.011870 0.626270
O O9 0.258054 0.642941 0.236323
O O10 0.345276 0.761192 0.315300
O O11 0.481805 0.484954 0.626588
#
# Coordination Sequence:
#
# PCOD9319043 Si02
#       5
#     8   8   8   8   8
#     4  10  21  39  62  87 120 157 204 254 304 361
#     4  10  21  39  63  88 119 166 193 253 293 374
#     4  10  21  39  62  91 123 160 201 253 301 355
#     4  10  21  39  62  85 122 157 201 241 321 338
#     4   8  24  38  66  82 134 152 201 259 305 347
#
# _framework density 27.544180999999998
#
# number of rings (size 3 to 8) (size 9 to 14) (size 15 to 20)
#    2.400    0.000    0.000    2.400    0.000    6.400 
#    0.000   12.000    0.000    0.000    0.000    0.000 
#    0.000    0.000    0.000    0.000    0.000    0.000 
#
# Total GULP energy -111435.052156 kJ/mol
# GULP energy per Si atom -5571.752608 kJ/mol
# Density = 2.748149 g / cm^3
# Si number density = 27.544181 Si / 1000 Ang^3
#
#
#
# Elastic Constant Matrix: (Units=GPa)
#
#
# Indices 1 2 3 4 5 6 
#
# 1 208.4631 34.1855 29.3552 0.0000 0.0000 0.0000
# 2 34.1855 321.1394 60.3944 0.0000 0.0000 0.0000
# 3 29.3552 60.3944 168.6331 0.0000 0.0000 0.0000
# 4 0.0000 0.0000 0.0000 42.6616 0.0000 0.0000
# 5 0.0000 0.0000 0.0000 0.0000 66.0471 0.0000
# 6 0.0000 0.0000 0.0000 0.0000 0.0000 -0.0458
#
#
#
# Elastic Compliance Matrix: (Units=1/GPa)
#
#
# Indices 1 2 3 4 5 6 
#
# 1 0.004963 -0.000392 -0.000723 0.000000 0.000000 0.000000
# 2 -0.000392 0.003370 -0.001139 0.000000 0.000000 0.000000
# 3 -0.000723 -0.001139 0.006464 0.000000 0.000000 0.000000
# 4 0.000000 0.000000 0.000000 0.023440 0.000000 0.000000
# 5 0.000000 0.000000 0.000000 0.000000 0.015141 0.000000
# 6 0.000000 0.000000 0.000000 0.000000 0.000000-21.820271
#
#
# Mechanical properties :
#
#
# Convention : Reuss Voigt Hill
#
# Bulk Modulus (GPa) = 97.19991 105.12285 101.16138
# Shear Modulus (GPa) = -0.22979 60.01928 29.89475
#
# Velocity S-wave (km/s) = -0.28915 4.67306 3.29802
# Velocity P-wave (km/s) = 5.93750 8.20760 7.16305
#
# Compressibility (1/GPa) = 0.01028808
#
# Stress axis : x y z
#
# Youngs Moduli (GPa) = 201.48202 296.75401 154.70896
#
# Poissons Ratio (x) = 0.11641 0.11193
# Poissons Ratio (y) = 0.07904 0.17615
# Poissons Ratio (z) = 0.14577 0.33788
#
# Static dielectric constant tensor:
#      x y z
#    x 2.427910 0.000000 0.000000 
#    y 0.000000 2.032000 0.000000 
#    z 0.000000 0.000000 1.887300 
# 
# From -- ./inp_files/30219.got.cif
#   From: 2010.05.17/outbox.cif.g08.bks.cpg/sg20_16_cif.got.tgz:30219.got - 2010.06.03 22:52:26.
