data_PCOD9319376
_publ_section_title
;
Structure prediction by ZEFSAII (Michael W. Deem and Ramdas Pophale) SiO2 
 PCOD9319376
Probable space group: C 2 2 21
;
_chemical_formula_sum "Si O2"
_cell_formula_units_Z 48
_cell_length_a 5.426310
_cell_length_b 24.524323
_cell_length_c 17.417766
_cell_angle_alpha 90.000000
_cell_angle_beta 90.000000
_cell_angle_gamma 90.000000
_cell_volume 2317.896716
_symmetry_space_group_name_H-M "C 2 2 21"
_symmetry_group_IT_number 20
_symmetry_cell_setting 'orthorhombic'
loop_
_space_group_symop_operation_xyz
x,y,z
-x,-y,1/2+z
x,-y,-z
-x,y,1/2-z
1/2+x,1/2+y,z
1/2-x,1/2-y,1/2+z
1/2+x,1/2-y,-z
1/2-x,1/2+y,1/2-z
loop_
_atom_site_type_symbol
_atom_site_label
_atom_site_fract_x
_atom_site_fract_y
_atom_site_fract_z
Si Si1 0.043548 0.794581 0.420816
Si Si2 0.639634 0.986320 0.146563
Si Si3 0.455332 0.175960 0.999915
Si Si4 0.500000 0.890667 0.250000
Si Si5 0.548487 0.500000 0.500000
Si Si6 0.500000 0.321712 0.250000
Si Si7 0.263875 0.920427 0.899791
Si Si8 0.500000 0.556919 0.250000
O O1 0.289421 0.825157 0.452001
O O2 0.044221 0.734407 0.457432
O O3 0.791214 0.823630 0.447883
O O4 0.038587 0.789809 0.329166
O O5 0.438186 0.030484 0.125206
O O6 0.794958 0.977035 0.070323
O O7 0.804117 0.016013 0.211164
O O8 0.529548 0.930888 0.177927
O O9 0.416097 0.128605 0.062707
O O10 0.750843 0.857041 0.257966
O O11 0.401807 0.550891 0.464575
O O12 0.109825 0.908509 0.821546
#
# Coordination Sequence:
#
# PCOD9319376 Si02
#       8
#     8   8   8   4   4   4   8   4
#     4  10  24  49  67 103 133 169 230 288 337 409
#     4  11  23  43  59  97 140 177 226 275 331 409
#     4  10  24  46  75  94 138 177 219 287 351 390
#     4  12  26  42  68  94 143 185 212 284 344 394
#     4  10  26  36  64  96 136 172 236 270 318 422
#     4  12  27  42  71 102 131 180 234 273 344 410
#     4  11  23  41  66  99 128 189 220 281 336 414
#     4  10  21  42  61  90 144 169 230 273 332 400
#
# _framework density 20.708427
#
# number of rings (size 3 to 8) (size 9 to 14) (size 15 to 20)
#    0.000    1.333    1.667    2.000    9.333    2.667 
#    3.000    0.833    0.000    0.000    0.000    0.000 
#    0.000    0.000    0.000    0.000    0.000    0.000 
#
# Total GULP energy -134144.470457 kJ/mol
# GULP energy per Si atom -5589.352936 kJ/mol
# Density = 2.066129 g / cm^3
# Si number density = 20.708427 Si / 1000 Ang^3
#
#
#
# Elastic Constant Matrix: (Units=GPa)
#
#
# Indices 1 2 3 4 5 6 
#
# 1 123.4567 18.7380 51.5120 0.0000 0.0000 0.0000
# 2 18.7380 28.4102 26.4770 0.0000 0.0000 0.0000
# 3 51.5120 26.4770 144.9507 0.0000 0.0000 0.0000
# 4 0.0000 0.0000 0.0000 1.8712 0.0000 0.0000
# 5 0.0000 0.0000 0.0000 0.0000 26.2973 0.0000
# 6 0.0000 0.0000 0.0000 0.0000 0.0000 19.0701
#
#
#
# Elastic Compliance Matrix: (Units=1/GPa)
#
#
# Indices 1 2 3 4 5 6 
#
# 1 0.009856 -0.003900 -0.002790 0.000000 0.000000 0.000000
# 2 -0.003900 0.043963 -0.006644 0.000000 0.000000 0.000000
# 3 -0.002790 -0.006644 0.009104 0.000000 0.000000 0.000000
# 4 0.000000 0.000000 0.000000 0.534413 0.000000 0.000000
# 5 0.000000 0.000000 0.000000 0.000000 0.038027 0.000000
# 6 0.000000 0.000000 0.000000 0.000000 0.000000 0.052438
#
#
# Mechanical properties :
#
#
# Convention : Reuss Voigt Hill
#
# Bulk Modulus (GPa) = 27.58326 54.47460 41.02893
# Shear Modulus (GPa) = 6.88178 22.78709 14.83443
#
# Velocity S-wave (km/s) = 1.82494 3.32079 2.67937
# Velocity P-wave (km/s) = 4.21773 6.40829 5.42473
#
# Compressibility (1/GPa) = 0.03625388
#
# Stress axis : x y z
#
# Youngs Moduli (GPa) = 101.45900 22.74625 109.84003
#
# Poissons Ratio (x) = 0.08872 0.30648
# Poissons Ratio (y) = 0.39572 0.72982
# Poissons Ratio (z) = 0.28309 0.15113
#
# Static dielectric constant tensor:
#      x y z
#    x 2.016920 0.000000 0.000000 
#    y 0.000000 1.741940 0.000000 
#    z 0.000000 0.000000 1.693610 
# 
# From -- ./inp_files/17859.got.cif
#   From: 2010.05.17/outbox.cif.g08.bks.cpg/sg20_9_cif.got.tgz:17859.got - 2010.06.03 22:52:26.
