data_PCOD9319269
_publ_section_title
;
Structure prediction by ZEFSAII (Michael W. Deem and Ramdas Pophale) SiO2 
 PCOD9319269
Probable space group: C 2 2 21
;
_chemical_formula_sum "Si O2"
_cell_formula_units_Z 48
_cell_length_a 8.163392
_cell_length_b 8.036585
_cell_length_c 26.945886
_cell_angle_alpha 90.000000
_cell_angle_beta 90.000000
_cell_angle_gamma 90.000000
_cell_volume 1767.806238
_symmetry_space_group_name_H-M "C 2 2 21"
_symmetry_group_IT_number 20
_symmetry_cell_setting 'orthorhombic'
loop_
_space_group_symop_operation_xyz
x,y,z
-x,-y,1/2+z
x,-y,-z
-x,y,1/2-z
1/2+x,1/2+y,z
1/2-x,1/2-y,1/2+z
1/2+x,1/2-y,-z
1/2-x,1/2+y,1/2-z
loop_
_atom_site_type_symbol
_atom_site_label
_atom_site_fract_x
_atom_site_fract_y
_atom_site_fract_z
Si Si1 0.897236 0.261504 0.026603
Si Si2 0.960233 0.101101 0.560549
Si Si3 0.901331 0.762869 0.145215
Si Si4 0.558512 0.907437 0.112907
Si Si5 0.684735 0.935333 0.737776
Si Si6 0.383439 0.743454 0.201103
O O1 0.718758 0.336969 0.040708
O O2 0.017972 0.384925 0.055264
O O3 0.964412 0.080490 0.047198
O O4 0.922237 0.233071 0.968358
O O5 0.959970 0.120766 0.620041
O O6 0.744716 0.853513 0.120698
O O7 0.979281 0.582919 0.129501
O O8 0.834914 0.717904 0.200160
O O9 0.467226 0.775850 0.149607
O O10 0.500000 0.976848 0.750000
O O11 0.768413 0.912210 0.790666
O O12 0.739054 0.101297 0.710513
O O13 0.500000 0.712219 0.250000
#
# Coordination Sequence:
#
# PCOD9319269 Si02
#       6
#     8   8   8   8   8   8
#     4  11  25  45  70 106 141 184 234 296 354 434
#     4  11  25  45  71 103 143 183 236 290 364 422
#     4  11  23  42  67  99 137 187 233 297 354 431
#     4  11  23  41  68  98 139 183 238 290 363 421
#     4  10  23  39  62  91 131 176 230 287 356 414
#     4  10  21  41  60  91 131 174 227 288 347 421
#
# _framework density 27.1523
#
# number of rings (size 3 to 8) (size 9 to 14) (size 15 to 20)
#    0.000    1.333    1.667    3.000    2.333    5.333 
#    0.000    0.000    0.000    0.000    0.000    0.000 
#    0.000    0.000    0.000    0.000    0.000    0.000 
#
# Total GULP energy -133684.163925 kJ/mol
# GULP energy per Si atom -5570.173497 kJ/mol
# Density = 2.709050 g / cm^3
# Si number density = 27.152300 Si / 1000 Ang^3
#
#
#
# Elastic Constant Matrix: (Units=GPa)
#
#
# Indices 1 2 3 4 5 6 
#
# 1 116.2563 32.5934 19.2908 0.0000 0.0000 0.0000
# 2 32.5934 138.9818 33.6297 0.0000 0.0000 0.0000
# 3 19.2908 33.6297 115.6420 0.0000 0.0000 0.0000
# 4 0.0000 0.0000 0.0000 64.5610 0.0000 0.0000
# 5 0.0000 0.0000 0.0000 0.0000 48.2949 0.0000
# 6 0.0000 0.0000 0.0000 0.0000 0.0000 28.5707
#
#
#
# Elastic Compliance Matrix: (Units=1/GPa)
#
#
# Indices 1 2 3 4 5 6 
#
# 1 0.009311 -0.001945 -0.000988 0.000000 0.000000 0.000000
# 2 -0.001945 0.008146 -0.002045 0.000000 0.000000 0.000000
# 3 -0.000988 -0.002045 0.009407 0.000000 0.000000 0.000000
# 4 0.000000 0.000000 0.000000 0.015489 0.000000 0.000000
# 5 0.000000 0.000000 0.000000 0.000000 0.020706 0.000000
# 6 0.000000 0.000000 0.000000 0.000000 0.000000 0.035001
#
#
# Mechanical properties :
#
#
# Convention : Reuss Voigt Hill
#
# Bulk Modulus (GPa) = 59.13695 60.21197 59.67446
# Shear Modulus (GPa) = 43.99482 47.30973 45.65227
#
# Velocity S-wave (km/s) = 4.02966 4.17872 4.10486
# Velocity P-wave (km/s) = 6.59378 6.74581 6.67023
#
# Compressibility (1/GPa) = 0.01690990
#
# Stress axis : x y z
#
# Youngs Moduli (GPa) = 107.40294 122.76081 106.30712
#
# Poissons Ratio (x) = 0.23871 0.10500
# Poissons Ratio (y) = 0.20885 0.21735
# Poissons Ratio (z) = 0.10608 0.25099
#
# Static dielectric constant tensor:
#      x y z
#    x 2.205200 0.000000 0.000000 
#    y 0.000000 2.296450 0.000000 
#    z 0.000000 0.000000 1.973510 
# 
# From -- ./inp_files/30951.got.cif
#   From: 2010.05.17/outbox.cif.g08.bks.cpg/sg20_16_cif.got.tgz:30951.got - 2010.06.03 22:52:26.
