data_PCOD9319860
_publ_section_title
;
Structure prediction by ZEFSAII (Michael W. Deem and Ramdas Pophale) SiO2 
 PCOD9319860
Probable space group: C 2 2 21
;
_chemical_formula_sum "Si O2"
_cell_formula_units_Z 40
_cell_length_a 12.071566
_cell_length_b 8.162857
_cell_length_c 20.351757
_cell_angle_alpha 90.000000
_cell_angle_beta 90.000000
_cell_angle_gamma 90.000000
_cell_volume 2005.430936
_symmetry_space_group_name_H-M "C 2 2 21"
_symmetry_group_IT_number 20
_symmetry_cell_setting 'orthorhombic'
loop_
_space_group_symop_operation_xyz
x,y,z
-x,-y,1/2+z
x,-y,-z
-x,y,1/2-z
1/2+x,1/2+y,z
1/2-x,1/2-y,1/2+z
1/2+x,1/2-y,-z
1/2-x,1/2+y,1/2-z
loop_
_atom_site_type_symbol
_atom_site_label
_atom_site_fract_x
_atom_site_fract_y
_atom_site_fract_z
Si Si1 0.319207 0.678500 0.479976
Si Si2 0.566918 0.120360 0.091494
Si Si3 0.394552 0.000000 0.000000
Si Si4 0.559934 0.643823 0.684726
Si Si5 0.500000 0.676700 0.250000
Si Si6 0.181493 0.664075 0.838667
O O1 0.366747 0.500000 0.500000
O O2 0.368594 0.812285 0.528374
O O3 0.188268 0.653413 0.494480
O O4 0.334066 0.725102 0.404245
O O5 0.505823 0.271744 0.125980
O O6 0.470757 0.001136 0.064070
O O7 0.646788 0.018266 0.138746
O O8 0.500000 0.713497 0.750000
O O9 0.542451 0.448985 0.693603
O O10 0.690346 0.676903 0.681510
O O11 0.400516 0.779264 0.281086
#
# Coordination Sequence:
#
# PCOD9319860 Si02
#       6
#     8   8   4   8   4   8
#     4  10  22  43  65  97 133 162 213 278 326 398
#     4  12  23  44  67 100 129 175 216 275 339 388
#     4  10  22  40  66 100 132 158 218 264 332 396
#     4  10  26  44  65  94 133 180 221 267 329 394
#     4  10  28  42  62 100 124 176 226 268 322 392
#     4  12  24  44  67  97 131 174 225 271 330 395
#
# _framework density 19.945837000000001
#
# number of rings (size 3 to 8) (size 9 to 14) (size 15 to 20)
#    1.200    0.000    4.000    1.200    4.200    1.600 
#    3.600    0.000    0.000    0.000    0.000    0.000 
#    0.000    0.000    0.000    0.000    0.000    0.000 
#
# Total GULP energy -111493.727741 kJ/mol
# GULP energy per Si atom -5574.686387 kJ/mol
# Density = 1.990044 g / cm^3
# Si number density = 19.945837 Si / 1000 Ang^3
#
#
#
# Elastic Constant Matrix: (Units=GPa)
#
#
# Indices 1 2 3 4 5 6 
#
# 1 141.5633 39.0034 66.3266 0.0000 0.0000 0.0000
# 2 39.0034 74.0738 27.8902 0.0000 0.0000 0.0000
# 3 66.3266 27.8902 78.8802 0.0000 0.0000 0.0000
# 4 0.0000 0.0000 0.0000 37.2389 0.0000 0.0000
# 5 0.0000 0.0000 0.0000 0.0000 40.5625 0.0000
# 6 0.0000 0.0000 0.0000 0.0000 0.0000 22.8361
#
#
#
# Elastic Compliance Matrix: (Units=1/GPa)
#
#
# Indices 1 2 3 4 5 6 
#
# 1 0.012191 -0.002953 -0.009207 0.000000 0.000000 0.000000
# 2 -0.002953 0.016288 -0.003276 0.000000 0.000000 0.000000
# 3 -0.009207 -0.003276 0.021578 0.000000 0.000000 0.000000
# 4 0.000000 0.000000 0.000000 0.026854 0.000000 0.000000
# 5 0.000000 0.000000 0.000000 0.000000 0.024653 0.000000
# 6 0.000000 0.000000 0.000000 0.000000 0.000000 0.043790
#
#
# Mechanical properties :
#
#
# Convention : Reuss Voigt Hill
#
# Bulk Modulus (GPa) = 52.12396 62.32865 57.22631
# Shear Modulus (GPa) = 27.37896 30.88066 29.12981
#
# Velocity S-wave (km/s) = 3.70897 3.93902 3.82572
# Velocity P-wave (km/s) = 6.67319 7.21142 6.94752
#
# Compressibility (1/GPa) = 0.01918503
#
# Stress axis : x y z
#
# Youngs Moduli (GPa) = 82.02589 61.39333 46.34407
#
# Poissons Ratio (x) = 0.18127 0.42669
# Poissons Ratio (y) = 0.24219 0.15185
# Poissons Ratio (z) = 0.75522 0.20115
#
# Static dielectric constant tensor:
#      x y z
#    x 1.699070 0.000000 0.000000 
#    y 0.000000 1.714960 0.000000 
#    z 0.000000 0.000000 1.702460 
# 
# From -- ./inp_files/24097.got.cif
#   From: 2010.05.17/outbox.cif.g08.bks.cpg/sg20_13_cif.got.tgz:24097.got - 2010.06.03 22:52:26.
