data_PCOD9319217
_publ_section_title
;
Structure prediction by ZEFSAII (Michael W. Deem and Ramdas Pophale) SiO2 
 PCOD9319217
Probable space group: C 2 2 21
;
_chemical_formula_sum "Si O2"
_cell_formula_units_Z 56
_cell_length_a 11.832374
_cell_length_b 15.246436
_cell_length_c 11.718208
_cell_angle_alpha 90.000000
_cell_angle_beta 90.000000
_cell_angle_gamma 90.000000
_cell_volume 2113.982686
_symmetry_space_group_name_H-M "C 2 2 21"
_symmetry_group_IT_number 20
_symmetry_cell_setting 'orthorhombic'
loop_
_space_group_symop_operation_xyz
x,y,z
-x,-y,1/2+z
x,-y,-z
-x,y,1/2-z
1/2+x,1/2+y,z
1/2-x,1/2-y,1/2+z
1/2+x,1/2-y,-z
1/2-x,1/2+y,1/2-z
loop_
_atom_site_type_symbol
_atom_site_label
_atom_site_fract_x
_atom_site_fract_y
_atom_site_fract_z
Si Si1 0.151762 0.640547 0.636474
Si Si2 0.562377 0.763618 0.632376
Si Si3 0.655175 0.389118 0.950380
Si Si4 0.320867 0.205749 0.619509
Si Si5 0.626899 0.047696 0.335720
Si Si6 0.210517 0.583156 0.083814
Si Si7 0.543833 0.333814 0.584172
O O1 0.268853 0.638576 0.561260
O O2 0.167143 0.644298 0.772843
O O3 0.087507 0.547666 0.624216
O O4 0.083281 0.729853 0.614998
O O5 0.500000 0.753533 0.750000
O O6 0.694991 0.742419 0.633676
O O7 0.565715 0.868278 0.609465
O O8 0.517174 0.689938 0.549341
O O9 0.611284 0.298314 0.880579
O O10 0.745477 0.445530 0.882642
O O11 0.533168 0.425611 0.919791
O O12 0.339195 0.158866 0.499586
O O13 0.641189 0.062947 0.199747
O O14 0.333446 0.622490 0.115174
O O15 0.219628 0.500000 0.000000
#
# Coordination Sequence:
#
# PCOD9319217 Si02
#       7
#     8   8   8   8   8   8   8
#     4  12  22  44  69  97 139 179 233 276 357 410
#     4  10  21  40  65  96 130 174 228 275 342 403
#     4  11  24  42  69  99 133 179 228 281 349 402
#     4  10  22  40  67  93 126 184 218 282 337 413
#     4  11  24  41  71  96 141 180 221 292 345 411
#     4  11  22  43  63  98 132 175 230 279 342 402
#     4  11  24  41  70 100 136 178 233 286 340 426
#
# _framework density 26.490282000000001
#
# number of rings (size 3 to 8) (size 9 to 14) (size 15 to 20)
#    0.000    1.143    5.714    3.000    2.000    3.429 
#    2.571    0.000    0.000    0.000    0.000    0.000 
#    0.000    0.000    0.000    0.000    0.000    0.000 
#
# Total GULP energy -155909.886028 kJ/mol
# GULP energy per Si atom -5568.210215 kJ/mol
# Density = 2.642999 g / cm^3
# Si number density = 26.490282 Si / 1000 Ang^3
#
#
#
# Elastic Constant Matrix: (Units=GPa)
#
#
# Indices 1 2 3 4 5 6 
#
# 1 99.1080 -1.1800 -8.6259 0.0000 0.0000 0.0000
# 2 -1.1800 87.1622 0.1051 0.0000 0.0000 0.0000
# 3 -8.6259 0.1051 77.8117 0.0000 0.0000 0.0000
# 4 0.0000 0.0000 0.0000 39.9071 0.0000 0.0000
# 5 0.0000 0.0000 0.0000 0.0000 17.6119 0.0000
# 6 0.0000 0.0000 0.0000 0.0000 0.0000 0.4138
#
#
#
# Elastic Compliance Matrix: (Units=1/GPa)
#
#
# Indices 1 2 3 4 5 6 
#
# 1 0.010190 0.000137 0.001129 0.000000 0.000000 0.000000
# 2 0.000137 0.011475 0.000000 0.000000 0.000000 0.000000
# 3 0.001129 0.000000 0.012977 0.000000 0.000000 0.000000
# 4 0.000000 0.000000 0.000000 0.025058 0.000000 0.000000
# 5 0.000000 0.000000 0.000000 0.000000 0.056780 0.000000
# 6 0.000000 0.000000 0.000000 0.000000 0.000000 2.416597
#
#
# Mechanical properties :
#
#
# Convention : Reuss Voigt Hill
#
# Bulk Modulus (GPa) = 26.90146 27.18671 27.04408
# Shear Modulus (GPa) = 1.96623 29.83874 15.90249
#
# Velocity S-wave (km/s) = 0.86247 3.35983 2.45279
# Velocity P-wave (km/s) = 3.34202 5.03354 4.27233
#
# Compressibility (1/GPa) = 0.03717270
#
# Stress axis : x y z
#
# Youngs Moduli (GPa) = 98.13614 87.14815 77.06094
#
# Poissons Ratio (x) = -0.01190 -0.08703
# Poissons Ratio (y) = -0.01340 0.00003
# Poissons Ratio (z) = -0.11084 0.00003
#
# Static dielectric constant tensor:
#      x y z
#    x 2.496640 0.000000 0.000000 
#    y 0.000000 2.369220 0.000000 
#    z 0.000000 0.000000 2.312290 
# 
# From -- ./inp_files/15158.got.cif
#   From: 2010.05.17/outbox.cif.g08.bks.cpg/sg20_8_cif.got.tgz:15158.got - 2010.06.03 22:52:26.
