data_PCOD9319789
_publ_section_title
;
Structure prediction by ZEFSAII (Michael W. Deem and Ramdas Pophale) SiO2 
 PCOD9319789
Probable space group: C 2 2 21
;
_chemical_formula_sum "Si O2"
_cell_formula_units_Z 64
_cell_length_a 15.714757
_cell_length_b 8.487502
_cell_length_c 23.139170
_cell_angle_alpha 90.000000
_cell_angle_beta 90.000000
_cell_angle_gamma 90.000000
_cell_volume 3086.280084
_symmetry_space_group_name_H-M "C 2 2 21"
_symmetry_group_IT_number 20
_symmetry_cell_setting 'orthorhombic'
loop_
_space_group_symop_operation_xyz
x,y,z
-x,-y,1/2+z
x,-y,-z
-x,y,1/2-z
1/2+x,1/2+y,z
1/2-x,1/2-y,1/2+z
1/2+x,1/2-y,-z
1/2-x,1/2+y,1/2-z
loop_
_atom_site_type_symbol
_atom_site_label
_atom_site_fract_x
_atom_site_fract_y
_atom_site_fract_z
Si Si1 0.729944 0.688040 0.509766
Si Si2 0.187313 0.166165 0.384503
Si Si3 0.500400 0.324256 0.585486
Si Si4 0.001671 0.471921 0.858209
Si Si5 0.681111 0.969040 0.185006
Si Si6 0.048891 0.675132 0.471958
Si Si7 0.822420 0.157908 0.384802
Si Si8 0.318157 0.024499 0.816618
O O1 0.738276 0.500000 0.500000
O O2 0.724402 0.745564 0.443138
O O3 0.639680 0.741834 0.536231
O O4 0.798102 0.758273 0.554209
O O5 0.252090 0.039358 0.360318
O O6 0.176073 0.293594 0.334440
O O7 0.092926 0.104772 0.400584
O O8 0.499524 0.282251 0.517819
O O9 0.416373 0.413213 0.606030
O O10 0.498734 0.151055 0.616135
O O11 0.088146 0.453963 0.823031
O O12 0.999330 0.356355 0.912853
O O13 0.912633 0.453915 0.824998
O O14 0.709965 0.990538 0.250592
O O15 0.671368 0.788855 0.165576
O O16 0.063189 0.500000 0.500000
O O17 0.747699 0.047974 0.362151
#
# Coordination Sequence:
#
# PCOD9319789 Si02
#       8
#     8   8   8   8   8   8   8   8
#     4  11  21  35  59  89 122 151 190 249 306 357
#     4  10  22  40  60  87 120 156 193 249 303 350
#     4   8  19  34  58  85 118 151 194 236 293 356
#     4   9  18  34  59  87 111 151 197 240 284 348
#     4  11  22  38  60  87 118 157 201 247 292 351
#     4   9  17  34  59  87 118 151 187 239 297 356
#     4  11  22  37  62  90 114 157 202 242 296 354
#     4  11  22  40  59  85 120 156 202 245 294 353
#
# _framework density 20.736937999999999
#
# number of rings (size 3 to 8) (size 9 to 14) (size 15 to 20)
#    0.000    2.000    2.500    1.875    1.750    0.500 
#    0.000    5.625    0.000    0.000    0.000    0.000 
#    0.000    0.000    0.000    0.000    0.000    0.000 
#
# Total GULP energy -178540.258547 kJ/mol
# GULP energy per Si atom -5579.383080 kJ/mol
# Density = 2.068974 g / cm^3
# Si number density = 20.736938 Si / 1000 Ang^3
#
#
#
# Elastic Constant Matrix: (Units=GPa)
#
#
# Indices 1 2 3 4 5 6 
#
# 1 93.9703 13.4889 20.9126 0.0000 0.0000 0.0000
# 2 13.4889 16.4854 3.0131 0.0000 0.0000 0.0000
# 3 20.9126 3.0131 90.1283 0.0000 0.0000 0.0000
# 4 0.0000 0.0000 0.0000 23.5671 0.0000 0.0000
# 5 0.0000 0.0000 0.0000 0.0000 22.6217 0.0000
# 6 0.0000 0.0000 0.0000 0.0000 0.0000 20.1716
#
#
#
# Elastic Compliance Matrix: (Units=1/GPa)
#
#
# Indices 1 2 3 4 5 6 
#
# 1 0.012637 -0.009864 -0.002602 0.000000 0.000000 0.000000
# 2 -0.009864 0.068732 -0.000009 0.000000 0.000000 0.000000
# 3 -0.002602 -0.000009 0.011699 0.000000 0.000000 0.000000
# 4 0.000000 0.000000 0.000000 0.042432 0.000000 0.000000
# 5 0.000000 0.000000 0.000000 0.000000 0.044205 0.000000
# 6 0.000000 0.000000 0.000000 0.000000 0.000000 0.049575
#
#
# Mechanical properties :
#
#
# Convention : Reuss Voigt Hill
#
# Bulk Modulus (GPa) = 14.68050 30.60149 22.64099
# Shear Modulus (GPa) = 18.05461 24.15004 21.10233
#
# Velocity S-wave (km/s) = 2.95388 3.41631 3.19348
# Velocity P-wave (km/s) = 4.32766 5.50914 4.95375
#
# Compressibility (1/GPa) = 0.06811759
#
# Stress axis : x y z
#
# Youngs Moduli (GPa) = 79.13432 14.54916 85.47434
#
# Poissons Ratio (x) = 0.14352 0.22243
# Poissons Ratio (y) = 0.78059 0.00077
# Poissons Ratio (z) = 0.20594 0.00013
#
# Static dielectric constant tensor:
#      x y z
#    x 1.758970 0.000000 0.000000 
#    y 0.000000 1.751730 0.000000 
#    z 0.000000 0.000000 1.728890 
# 
# From -- ./inp_files/29332.got.cif
#   From: 2010.05.17/outbox.cif.g08.bks.cpg/sg20_15_cif.got.tgz:29332.got - 2010.06.03 22:52:26.
