data_PCOD9319371
_publ_section_title
;
Structure prediction by ZEFSAII (Michael W. Deem and Ramdas Pophale) SiO2 
 PCOD9319371
Probable space group: C 2 2 21
;
_chemical_formula_sum "Si O2"
_cell_formula_units_Z 32
_cell_length_a 7.396319
_cell_length_b 30.705159
_cell_length_c 7.254700
_cell_angle_alpha 90.000000
_cell_angle_beta 90.000000
_cell_angle_gamma 90.000000
_cell_volume 1647.579738
_symmetry_space_group_name_H-M "C 2 2 21"
_symmetry_group_IT_number 20
_symmetry_cell_setting 'orthorhombic'
loop_
_space_group_symop_operation_xyz
x,y,z
-x,-y,1/2+z
x,-y,-z
-x,y,1/2-z
1/2+x,1/2+y,z
1/2-x,1/2-y,1/2+z
1/2+x,1/2-y,-z
1/2-x,1/2+y,1/2-z
loop_
_atom_site_type_symbol
_atom_site_label
_atom_site_fract_x
_atom_site_fract_y
_atom_site_fract_z
Si Si1 0.500000 0.054167 0.750000
Si Si2 0.336665 0.899882 0.609814
Si Si3 0.831005 0.301860 0.606469
Si Si4 0.000000 0.742709 0.750000
Si Si5 0.296508 0.489931 0.788660
O O1 0.415467 0.082967 0.585857
O O2 0.657345 0.021018 0.682011
O O3 0.500000 0.894593 0.750000
O O4 0.259349 0.851566 0.589253
O O5 0.222101 0.937842 0.710635
O O6 0.664070 0.271922 0.669948
O O7 0.000000 0.299230 0.750000
O O8 0.913201 0.285987 0.412711
O O9 0.500000 0.503315 0.750000
O O10 0.251706 0.500000 0.000000
#
# Coordination Sequence:
#
# PCOD9319371 Si02
#       5
#     4   8   8   4   8
#     4  10  21  42  56  88 122 166 204 250 309 354
#     4  10  22  39  63  87 123 163 203 257 307 369
#     4  11  24  42  66  98 126 168 213 267 325 391
#     4  12  23  44  70  94 132 168 212 266 333 382
#     4  10  22  35  59  86 119 163 203 249 305 363
#
# _framework density 19.422429000000001
#
# number of rings (size 3 to 8) (size 9 to 14) (size 15 to 20)
#    0.000    1.500    3.750    0.750    5.250    0.000 
#    0.000    0.000   11.000    0.000    0.000    0.000 
#    0.000    0.000    0.000    0.000    0.000    0.000 
#
# Total GULP energy -89167.052514 kJ/mol
# GULP energy per Si atom -5572.940782 kJ/mol
# Density = 1.937822 g / cm^3
# Si number density = 19.422429 Si / 1000 Ang^3
#
#
#
# Elastic Constant Matrix: (Units=GPa)
#
#
# Indices 1 2 3 4 5 6 
#
# 1 67.9687 10.7656 -12.2355 0.0000 0.0000 0.0000
# 2 10.7656 111.1231 12.7797 0.0000 0.0000 0.0000
# 3 -12.2355 12.7797 76.7173 0.0000 0.0000 0.0000
# 4 0.0000 0.0000 0.0000 23.4442 0.0000 0.0000
# 5 0.0000 0.0000 0.0000 0.0000 29.2712 0.0000
# 6 0.0000 0.0000 0.0000 0.0000 0.0000 7.1203
#
#
#
# Elastic Compliance Matrix: (Units=1/GPa)
#
#
# Indices 1 2 3 4 5 6 
#
# 1 0.015501 -0.001821 0.002776 0.000000 0.000000 0.000000
# 2 -0.001821 0.009389 -0.001854 0.000000 0.000000 0.000000
# 3 0.002776 -0.001854 0.013786 0.000000 0.000000 0.000000
# 4 0.000000 0.000000 0.000000 0.042654 0.000000 0.000000
# 5 0.000000 0.000000 0.000000 0.000000 0.034163 0.000000
# 6 0.000000 0.000000 0.000000 0.000000 0.000000 0.140443
#
#
# Mechanical properties :
#
#
# Convention : Reuss Voigt Hill
#
# Bulk Modulus (GPa) = 27.11773 30.93654 29.02713
# Shear Modulus (GPa) = 18.51661 28.26711 23.39186
#
# Velocity S-wave (km/s) = 3.09101 3.81909 3.47417
# Velocity P-wave (km/s) = 5.17025 5.95064 5.57412
#
# Compressibility (1/GPa) = 0.03687624
#
# Stress axis : x y z
#
# Youngs Moduli (GPa) = 64.51323 106.51098 72.53506
#
# Poissons Ratio (x) = 0.19395 -0.20132
# Poissons Ratio (y) = 0.11747 0.13451
# Poissons Ratio (z) = -0.17906 0.19751
#
# Static dielectric constant tensor:
#      x y z
#    x 1.603550 0.000000 0.000000 
#    y 0.000000 1.757320 0.000000 
#    z 0.000000 0.000000 1.690620 
# 
# From -- ./inp_files/5149.got.cif
#   From: 2010.05.17/outbox.cif.g08.bks.cpg/sg20_3_cif.got.tgz:5149.got - 2010.06.03 22:52:26.
