data_PCOD9319268
_publ_section_title
;
Structure prediction by ZEFSAII (Michael W. Deem and Ramdas Pophale) SiO2 
 PCOD9319268
Probable space group: C 2 2 21
;
_chemical_formula_sum "Si O2"
_cell_formula_units_Z 40
_cell_length_a 23.518622
_cell_length_b 7.527953
_cell_length_c 9.593617
_cell_angle_alpha 90.000000
_cell_angle_beta 90.000000
_cell_angle_gamma 90.000000
_cell_volume 1698.521886
_symmetry_space_group_name_H-M "C 2 2 21"
_symmetry_group_IT_number 20
_symmetry_cell_setting 'orthorhombic'
loop_
_space_group_symop_operation_xyz
x,y,z
-x,-y,1/2+z
x,-y,-z
-x,y,1/2-z
1/2+x,1/2+y,z
1/2-x,1/2-y,1/2+z
1/2+x,1/2-y,-z
1/2-x,1/2+y,1/2-z
loop_
_atom_site_type_symbol
_atom_site_label
_atom_site_fract_x
_atom_site_fract_y
_atom_site_fract_z
Si Si1 0.151173 0.748945 0.397541
Si Si2 0.373098 0.344777 0.803461
Si Si3 0.540254 0.458097 0.139538
Si Si4 0.215623 0.803451 0.939170
Si Si5 0.875277 0.355485 0.609143
O O1 0.125770 0.737094 0.552687
O O2 0.218753 0.725718 0.409150
O O3 0.126457 0.622403 0.275844
O O4 0.141518 0.951384 0.346194
O O5 0.431486 0.374474 0.718274
O O6 0.324320 0.280241 0.696711
O O7 0.500000 0.364537 0.250000
O O8 0.589362 0.325612 0.089167
O O9 0.506054 0.500000 0.000000
O O10 0.189226 0.679805 0.059157
O O11 0.208913 0.000000 0.000000
O O12 0.898116 0.500000 0.500000
#
# Coordination Sequence:
#
# PCOD9319268 Si02
#       5
#     8   8   8   8   8
#     4  10  23  34  62  94 132 186 214 264 323 406
#     4  10  21  41  59  97 136 163 236 277 321 403
#     4  11  23  45  74  96 123 175 225 291 344 393
#     4  12  21  39  60  92 138 181 229 258 327 398
#     4  11  24  42  63  94 139 171 216 283 337 399
#
# _framework density 23.549889
#
# number of rings (size 3 to 8) (size 9 to 14) (size 15 to 20)
#    0.000    1.200    6.000    1.200   11.200    0.000 
#    0.000    1.000    0.000    4.800    0.000    0.000 
#    0.000    0.000    0.000    0.000    0.000    0.000 
#
# Total GULP energy -111757.038811 kJ/mol
# GULP energy per Si atom -5587.851941 kJ/mol
# Density = 2.349629 g / cm^3
# Si number density = 23.549889 Si / 1000 Ang^3
#
#
#
# Elastic Constant Matrix: (Units=GPa)
#
#
# Indices 1 2 3 4 5 6 
#
# 1 51.0237 -1.8206 27.7854 0.0000 0.0000 0.0000
# 2 -1.8206 50.1873 47.5279 0.0000 0.0000 0.0000
# 3 27.7854 47.5279 227.9569 0.0000 0.0000 0.0000
# 4 0.0000 0.0000 0.0000 47.6852 0.0000 0.0000
# 5 0.0000 0.0000 0.0000 0.0000 27.8980 0.0000
# 6 0.0000 0.0000 0.0000 0.0000 0.0000 8.0396
#
#
#
# Elastic Compliance Matrix: (Units=1/GPa)
#
#
# Indices 1 2 3 4 5 6 
#
# 1 0.021646 0.004092 -0.003492 0.000000 0.000000 0.000000
# 2 0.004092 0.025601 -0.005836 0.000000 0.000000 0.000000
# 3 -0.003492 -0.005836 0.006029 0.000000 0.000000 0.000000
# 4 0.000000 0.000000 0.000000 0.020971 0.000000 0.000000
# 5 0.000000 0.000000 0.000000 0.000000 0.035845 0.000000
# 6 0.000000 0.000000 0.000000 0.000000 0.000000 0.124385
#
#
# Mechanical properties :
#
#
# Convention : Reuss Voigt Hill
#
# Bulk Modulus (GPa) = 23.36237 52.90591 38.13414
# Shear Modulus (GPa) = 19.28887 33.76957 26.52922
#
# Velocity S-wave (km/s) = 2.86503 3.79087 3.36000
# Velocity P-wave (km/s) = 4.57017 6.45563 5.59293
#
# Compressibility (1/GPa) = 0.04280388
#
# Stress axis : x y z
#
# Youngs Moduli (GPa) = 46.19776 39.06109 165.85860
#
# Poissons Ratio (x) = -0.15983 0.57910
# Poissons Ratio (y) = -0.18903 0.96802
# Poissons Ratio (z) = 0.16130 0.22798
#
# Static dielectric constant tensor:
#      x y z
#    x 1.856240 0.000000 0.000000 
#    y 0.000000 1.939300 0.000000 
#    z 0.000000 0.000000 1.951400 
# 
# From -- ./inp_files/6247.got.cif
#   From: 2010.05.17/outbox.cif.g08.bks.cpg/sg20_4_cif.got.tgz:6247.got - 2010.06.03 22:52:26.
