data_PCOD9319428
_publ_section_title
;
Structure prediction by ZEFSAII (Michael W. Deem and Ramdas Pophale) SiO2 
 PCOD9319428
Probable space group: C 2 2 21
;
_chemical_formula_sum "Si O2"
_cell_formula_units_Z 56
_cell_length_a 22.306191
_cell_length_b 7.826231
_cell_length_c 15.265524
_cell_angle_alpha 90.000000
_cell_angle_beta 90.000000
_cell_angle_gamma 90.000000
_cell_volume 2664.954481
_symmetry_space_group_name_H-M "C 2 2 21"
_symmetry_group_IT_number 20
_symmetry_cell_setting 'orthorhombic'
loop_
_space_group_symop_operation_xyz
x,y,z
-x,-y,1/2+z
x,-y,-z
-x,y,1/2-z
1/2+x,1/2+y,z
1/2-x,1/2-y,1/2+z
1/2+x,1/2-y,-z
1/2-x,1/2+y,1/2-z
loop_
_atom_site_type_symbol
_atom_site_label
_atom_site_fract_x
_atom_site_fract_y
_atom_site_fract_z
Si Si1 0.532735 0.877024 0.654983
Si Si2 0.450219 0.000000 0.500000
Si Si3 0.068368 0.974506 0.271577
Si Si4 0.349076 0.148034 0.615839
Si Si5 0.140721 0.032487 0.903118
Si Si6 0.875570 0.659860 0.809261
Si Si7 0.251413 0.500000 0.000000
Si Si8 0.269364 0.845461 0.066220
O O1 0.500000 0.899551 0.750000
O O2 0.488102 0.897466 0.572746
O O3 0.564108 0.691130 0.665622
O O4 0.578897 0.032942 0.643126
O O5 0.404996 0.874713 0.449003
O O6 0.000000 0.026345 0.250000
O O7 0.098373 0.921725 0.178021
O O8 0.101823 0.143238 0.307538
O O9 0.332202 0.346878 0.621198
O O10 0.371855 0.094665 0.710030
O O11 0.292760 0.045693 0.580068
O O12 0.197909 0.155106 0.914837
O O13 0.113191 0.000000 0.000000
O O14 0.809854 0.640641 0.849064
O O15 0.287382 0.331601 0.978616
O O16 0.279961 0.000000 0.000000
#
# Coordination Sequence:
#
# PCOD9319428 Si02
#       8
#     8   4   8   8   8   8   4   8
#     4  11  24  45  71 101 142 180 233 289 358 430
#     4  11  24  42  72 104 136 188 225 294 360 426
#     4  10  25  43  67 107 136 176 232 291 351 426
#     4  10  22  40  72  99 126 177 235 280 345 415
#     4  10  21  42  68 101 134 176 233 289 344 411
#     4  11  25  45  66  98 141 181 227 288 350 418
#     4  11  22  42  68  96 130 174 231 284 344 402
#     4  11  25  45  67  97 138 181 235 290 346 418
#
# _framework density 21.013493
#
# number of rings (size 3 to 8) (size 9 to 14) (size 15 to 20)
#    0.000    1.429    4.286    0.429    9.000    3.429 
#    0.000    0.000    0.000    0.000    0.000    0.000 
#    0.000    0.000    0.000    0.000    0.000    0.000 
#
# Total GULP energy -156319.208850 kJ/mol
# GULP energy per Si atom -5582.828888 kJ/mol
# Density = 2.096567 g / cm^3
# Si number density = 21.013493 Si / 1000 Ang^3
#
#
#
# Elastic Constant Matrix: (Units=GPa)
#
#
# Indices 1 2 3 4 5 6 
#
# 1 37.4040 -5.4637 38.7675 0.0000 0.0000 0.0000
# 2 -5.4637 70.3449 14.1650 0.0000 0.0000 0.0000
# 3 38.7675 14.1650 90.1375 0.0000 0.0000 0.0000
# 4 0.0000 0.0000 0.0000 20.7265 0.0000 0.0000
# 5 0.0000 0.0000 0.0000 0.0000 -92.4759 0.0000
# 6 0.0000 0.0000 0.0000 0.0000 0.0000 40.4881
#
#
#
# Elastic Compliance Matrix: (Units=1/GPa)
#
#
# Indices 1 2 3 4 5 6 
#
# 1 0.053277 0.009038 -0.024334 0.000000 0.000000 0.000000
# 2 0.009038 0.016213 -0.006435 0.000000 0.000000 0.000000
# 3 -0.024334 -0.006435 0.022571 0.000000 0.000000 0.000000
# 4 0.000000 0.000000 0.000000 0.048247 0.000000 0.000000
# 5 0.000000 0.000000 0.000000 0.000000 -0.010814 0.000000
# 6 0.000000 0.000000 0.000000 0.000000 0.000000 0.024699
#
#
# Mechanical properties :
#
#
# Convention : Reuss Voigt Hill
#
# Bulk Modulus (GPa) = 20.57660 32.53600 26.55630
# Shear Modulus (GPa) = 23.38023 3.77557 13.57790
#
# Velocity S-wave (km/s) = 3.33923 1.34188 2.54471
# Velocity P-wave (km/s) = 4.96796 4.23295 4.61511
#
# Compressibility (1/GPa) = 0.04859889
#
# Stress axis : x y z
#
# Youngs Moduli (GPa) = 18.76999 61.67712 44.30391
#
# Poissons Ratio (x) = -0.55744 1.07810
# Poissons Ratio (y) = -0.16964 0.28510
# Poissons Ratio (z) = 0.45675 0.39690
#
# Static dielectric constant tensor:
#      x y z
#    x 1.744710 0.000000 0.000000 
#    y 0.000000 1.811620 0.000000 
#    z 0.000000 0.000000 1.806240 
# 
# From -- ./inp_files/21813.got.cif
#   From: 2010.05.17/outbox.cif.g08.bks.cpg/sg20_11_cif.got.tgz:21813.got - 2010.06.03 22:52:26.
