data_PCOD9319541
_publ_section_title
;
Structure prediction by ZEFSAII (Michael W. Deem and Ramdas Pophale) SiO2 
 PCOD9319541
Probable space group: C 2 2 21
;
_chemical_formula_sum "Si O2"
_cell_formula_units_Z 40
_cell_length_a 9.020890
_cell_length_b 13.496330
_cell_length_c 12.452005
_cell_angle_alpha 90.000000
_cell_angle_beta 90.000000
_cell_angle_gamma 90.000000
_cell_volume 1516.018015
_symmetry_space_group_name_H-M "C 2 2 21"
_symmetry_group_IT_number 20
_symmetry_cell_setting 'orthorhombic'
loop_
_space_group_symop_operation_xyz
x,y,z
-x,-y,1/2+z
x,-y,-z
-x,y,1/2-z
1/2+x,1/2+y,z
1/2-x,1/2-y,1/2+z
1/2+x,1/2-y,-z
1/2-x,1/2+y,1/2-z
loop_
_atom_site_type_symbol
_atom_site_label
_atom_site_fract_x
_atom_site_fract_y
_atom_site_fract_z
Si Si1 0.199500 0.173815 0.526325
Si Si2 0.890596 0.367279 0.673499
Si Si3 0.889980 0.547710 0.893285
Si Si4 0.048037 0.756685 0.873488
Si Si5 0.831045 0.027391 0.781685
O O1 0.320125 0.179705 0.430673
O O2 0.045697 0.182547 0.461804
O O3 0.274455 0.256198 0.605001
O O4 0.189583 0.077576 0.602328
O O5 0.748178 0.421088 0.723454
O O6 0.000000 0.304869 0.750000
O O7 0.998486 0.459020 0.640491
O O8 0.991917 0.644286 0.899093
O O9 0.765521 0.581337 0.809195
O O10 0.820491 0.500000 0.000000
O O11 0.000000 0.775272 0.750000
O O12 0.000000 0.023972 0.750000
#
# Coordination Sequence:
#
# PCOD9319541 Si02
#       5
#     8   8   8   8   8
#     4  12  26  44  72 102 148 192 238 302 369 439
#     4  10  21  44  74  99 133 189 246 290 356 443
#     4  11  20  45  78  95 131 198 246 288 362 441
#     4  12  26  47  70 103 148 192 246 301 367 438
#     4  11  24  42  68 105 144 182 238 304 362 427
#
# _framework density 26.384910000000001
#
# number of rings (size 3 to 8) (size 9 to 14) (size 15 to 20)
#    0.000    0.800    6.000    1.200    2.800    4.000 
#    0.000    0.000    0.000    0.000    0.000    0.000 
#    0.000    0.000    0.000    0.000    0.000    0.000 
#
# Total GULP energy -111769.680985 kJ/mol
# GULP energy per Si atom -5588.484049 kJ/mol
# Density = 2.632486 g / cm^3
# Si number density = 26.384910 Si / 1000 Ang^3
#
#
#
# Elastic Constant Matrix: (Units=GPa)
#
#
# Indices 1 2 3 4 5 6 
#
# 1 133.6484 9.3863 39.5187 0.0000 0.0000 0.0000
# 2 9.3863 39.9416 29.0368 0.0000 0.0000 0.0000
# 3 39.5187 29.0368 127.8996 0.0000 0.0000 0.0000
# 4 0.0000 0.0000 0.0000 37.8403 0.0000 0.0000
# 5 0.0000 0.0000 0.0000 0.0000 58.4027 0.0000
# 6 0.0000 0.0000 0.0000 0.0000 0.0000 28.9490
#
#
#
# Elastic Compliance Matrix: (Units=1/GPa)
#
#
# Indices 1 2 3 4 5 6 
#
# 1 0.008235 -0.000102 -0.002521 0.000000 0.000000 0.000000
# 2 -0.000102 0.029987 -0.006776 0.000000 0.000000 0.000000
# 3 -0.002521 -0.006776 0.010136 0.000000 0.000000 0.000000
# 4 0.000000 0.000000 0.000000 0.026427 0.000000 0.000000
# 5 0.000000 0.000000 0.000000 0.000000 0.017123 0.000000
# 6 0.000000 0.000000 0.000000 0.000000 0.000000 0.034543
#
#
# Mechanical properties :
#
#
# Convention : Reuss Voigt Hill
#
# Bulk Modulus (GPa) = 33.83150 50.81924 42.32537
# Shear Modulus (GPa) = 32.23664 39.94159 36.08912
#
# Velocity S-wave (km/s) = 3.49919 3.89498 3.70238
# Velocity P-wave (km/s) = 5.40148 6.28732 5.86116
#
# Compressibility (1/GPa) = 0.02955826
#
# Stress axis : x y z
#
# Youngs Moduli (GPa) = 121.43273 33.34801 98.65791
#
# Poissons Ratio (x) = 0.00341 0.24874
# Poissons Ratio (y) = 0.01243 0.66853
# Poissons Ratio (z) = 0.30616 0.22597
#
# Static dielectric constant tensor:
#      x y z
#    x 2.102950 0.000000 0.000000 
#    y 0.000000 2.111510 0.000000 
#    z 0.000000 0.000000 2.265930 
# 
# From -- ./inp_files/12698.got.cif
#   From: 2010.05.17/outbox.cif.g08.bks.cpg/sg20_7_cif.got.tgz:12698.got - 2010.06.03 22:52:26.
