data_PCOD9319990
_publ_section_title
;
Structure prediction by ZEFSAII (Michael W. Deem and Ramdas Pophale) SiO2 
 PCOD9319990
Probable space group: C 2 2 21
;
_chemical_formula_sum "Si O2"
_cell_formula_units_Z 36
_cell_length_a 20.915374
_cell_length_b 7.459026
_cell_length_c 9.554915
_cell_angle_alpha 90.000000
_cell_angle_beta 90.000000
_cell_angle_gamma 90.000000
_cell_volume 1490.646222
_symmetry_space_group_name_H-M "C 2 2 21"
_symmetry_group_IT_number 20
_symmetry_cell_setting 'orthorhombic'
loop_
_space_group_symop_operation_xyz
x,y,z
-x,-y,1/2+z
x,-y,-z
-x,y,1/2-z
1/2+x,1/2+y,z
1/2-x,1/2-y,1/2+z
1/2+x,1/2-y,-z
1/2-x,1/2+y,1/2-z
loop_
_atom_site_type_symbol
_atom_site_label
_atom_site_fract_x
_atom_site_fract_y
_atom_site_fract_z
Si Si1 0.823149 0.287677 0.029901
Si Si2 0.284885 0.187872 0.660778
Si Si3 0.427773 0.500000 0.000000
Si Si4 0.113191 0.500000 0.000000
Si Si5 0.037721 0.202917 0.861149
Si Si6 0.642618 0.500000 0.000000
O O1 0.784326 0.278828 0.175155
O O2 0.833679 0.500000 0.000000
O O3 0.785339 0.183780 0.905694
O O4 0.886562 0.169789 0.047896
O O5 0.336254 0.030176 0.627148
O O6 0.313951 0.350291 0.570227
O O7 0.476508 0.577241 0.886525
O O8 0.065619 0.664395 0.021472
O O9 0.000000 0.328946 0.750000
O O10 0.098667 0.070631 0.871462
#
# Coordination Sequence:
#
# PCOD9319990 Si02
#       6
#     8   8   4   4   8   4
#     4  12  29  45  76 105 151 191 244 311 366 452
#     4  11  25  46  69 108 141 190 249 294 378 428
#     4  11  27  44  68 106 139 187 242 290 366 439
#     4  10  25  40  74 102 143 190 240 312 360 436
#     4  10  22  41  69  97 138 186 237 292 362 429
#     4   9  20  44  68  98 138 189 240 306 348 439
#
# _framework density 24.150600000000001
#
# number of rings (size 3 to 8) (size 9 to 14) (size 15 to 20)
#    0.000    1.333    1.111    2.000   10.889    1.778 
#    0.000    2.222    0.000    0.000    0.000    0.000 
#    0.000    0.000    0.000    0.000    0.000    0.000 
#
# Total GULP energy -100284.107787 kJ/mol
# GULP energy per Si atom -5571.339321 kJ/mol
# Density = 2.409563 g / cm^3
# Si number density = 24.150600 Si / 1000 Ang^3
#
#
#
# Elastic Constant Matrix: (Units=GPa)
#
#
# Indices 1 2 3 4 5 6 
#
# 1 96.3289 45.2674 21.8036 0.0000 0.0000 0.0000
# 2 45.2674 91.2034 11.2929 0.0000 0.0000 0.0000
# 3 21.8036 11.2929 85.3245 0.0000 0.0000 0.0000
# 4 0.0000 0.0000 0.0000 18.0384 0.0000 0.0000
# 5 0.0000 0.0000 0.0000 0.0000 42.7866 0.0000
# 6 0.0000 0.0000 0.0000 0.0000 0.0000 461.9896
#
#
#
# Elastic Compliance Matrix: (Units=1/GPa)
#
#
# Indices 1 2 3 4 5 6 
#
# 1 0.014137 -0.006679 -0.002729 0.000000 0.000000 0.000000
# 2 -0.006679 0.014303 -0.000186 0.000000 0.000000 0.000000
# 3 -0.002729 -0.000186 0.012442 0.000000 0.000000 0.000000
# 4 0.000000 0.000000 0.000000 0.055437 0.000000 0.000000
# 5 0.000000 0.000000 0.000000 0.000000 0.023372 0.000000
# 6 0.000000 0.000000 0.000000 0.000000 0.000000 0.002165
#
#
# Mechanical properties :
#
#
# Convention : Reuss Voigt Hill
#
# Bulk Modulus (GPa) = 46.09560 47.73164 46.91362
# Shear Modulus (GPa) = 33.72126 117.52912 75.62519
#
# Velocity S-wave (km/s) = 3.74075 6.98361 5.60196
# Velocity P-wave (km/s) = 6.14702 9.21058 7.83009
#
# Compressibility (1/GPa) = 0.02169404
#
# Stress axis : x y z
#
# Youngs Moduli (GPa) = 70.73467 69.91749 80.37366
#
# Poissons Ratio (x) = 0.46698 0.21931
# Poissons Ratio (y) = 0.47244 0.01497
# Poissons Ratio (z) = 0.19301 0.01302
#
# Static dielectric constant tensor:
#      x y z
#    x 1.919300 0.000000 0.000000 
#    y 0.000000 1.816400 0.000000 
#    z 0.000000 0.000000 -1.607560 
# 
# From -- ./inp_files/5949.got.cif
#   From: 2010.05.17/outbox.cif.g08.bks.cpg/sg20_3_cif.got.tgz:5949.got - 2010.06.03 22:52:26.
