data_PCOD9319481
_publ_section_title
;
Structure prediction by ZEFSAII (Michael W. Deem and Ramdas Pophale) SiO2 
 PCOD9319481
Probable space group: C 2 2 21
;
_chemical_formula_sum "Si O2"
_cell_formula_units_Z 48
_cell_length_a 9.698598
_cell_length_b 24.200043
_cell_length_c 7.754651
_cell_angle_alpha 90.000000
_cell_angle_beta 90.000000
_cell_angle_gamma 90.000000
_cell_volume 1820.066907
_symmetry_space_group_name_H-M "C 2 2 21"
_symmetry_group_IT_number 20
_symmetry_cell_setting 'orthorhombic'
loop_
_space_group_symop_operation_xyz
x,y,z
-x,-y,1/2+z
x,-y,-z
-x,y,1/2-z
1/2+x,1/2+y,z
1/2-x,1/2-y,1/2+z
1/2+x,1/2-y,-z
1/2-x,1/2+y,1/2-z
loop_
_atom_site_type_symbol
_atom_site_label
_atom_site_fract_x
_atom_site_fract_y
_atom_site_fract_z
Si Si1 0.576898 0.500000 0.500000
Si Si2 0.784753 0.635988 0.675355
Si Si3 0.302693 0.929791 0.659197
Si Si4 0.080774 0.417075 0.472135
Si Si5 0.000000 0.907552 0.250000
Si Si6 0.381138 0.260990 0.623936
Si Si7 0.074629 0.697483 0.413530
O O1 0.682119 0.473774 0.637638
O O2 0.498737 0.449465 0.412433
O O3 0.766236 0.620840 0.471231
O O4 0.633163 0.630371 0.752977
O O5 0.829793 0.700191 0.687997
O O6 0.856140 0.581753 0.778058
O O7 0.448699 0.945334 0.564640
O O8 0.316366 0.920484 0.864171
O O9 0.048339 0.351855 0.453994
O O10 0.500000 0.284253 0.750000
O O11 0.236446 0.291680 0.601444
O O12 0.475509 0.248390 0.457926
O O13 0.000000 0.671710 0.250000
#
# Coordination Sequence:
#
# PCOD9319481 Si02
#       7
#     4   8   8   8   4   8   8
#     4  10  24  46  64 100 138 172 224 294 346 434
#     4  11  22  44  68  97 138 181 230 280 352 419
#     4  10  21  43  66  95 132 168 223 286 343 416
#     4  11  21  42  71  96 129 181 222 284 348 406
#     4  10  26  42  70 100 136 184 220 286 360 430
#     4  12  24  42  67  99 142 184 240 296 347 421
#     4  12  24  41  66 100 140 184 238 294 347 413
#
# _framework density 26.372655000000002
#
# number of rings (size 3 to 8) (size 9 to 14) (size 15 to 20)
#    0.000    1.000    5.000    1.500    3.500    0.000 
#   12.000    1.667    0.000    0.000    0.000    0.000 
#    0.000    0.000    0.000    0.000    0.000    0.000 
#
# Total GULP energy -133622.847714 kJ/mol
# GULP energy per Si atom -5567.618655 kJ/mol
# Density = 2.631263 g / cm^3
# Si number density = 26.372655 Si / 1000 Ang^3
#
#
#
# Elastic Constant Matrix: (Units=GPa)
#
#
# Indices 1 2 3 4 5 6 
#
# 1 147.8500 14.1161 -10.3494 0.0000 0.0000 0.0000
# 2 14.1161 48.5695 -1.7282 0.0000 0.0000 0.0000
# 3 -10.3494 -1.7282 99.3357 0.0000 0.0000 0.0000
# 4 0.0000 0.0000 0.0000 26.2514 0.0000 0.0000
# 5 0.0000 0.0000 0.0000 0.0000 32.3047 0.0000
# 6 0.0000 0.0000 0.0000 0.0000 0.0000 14.2985
#
#
#
# Elastic Compliance Matrix: (Units=1/GPa)
#
#
# Indices 1 2 3 4 5 6 
#
# 1 0.007004 -0.002011 0.000695 0.000000 0.000000 0.000000
# 2 -0.002011 0.021179 0.000159 0.000000 0.000000 0.000000
# 3 0.000695 0.000159 0.010142 0.000000 0.000000 0.000000
# 4 0.000000 0.000000 0.000000 0.038093 0.000000 0.000000
# 5 0.000000 0.000000 0.000000 0.000000 0.030955 0.000000
# 6 0.000000 0.000000 0.000000 0.000000 0.000000 0.069937
#
#
# Mechanical properties :
#
#
# Convention : Reuss Voigt Hill
#
# Bulk Modulus (GPa) = 27.76935 33.31468 30.54202
# Shear Modulus (GPa) = 26.09205 34.15205 30.12205
#
# Velocity S-wave (km/s) = 3.14882 3.60249 3.38327
# Velocity P-wave (km/s) = 4.87571 5.47390 5.18344
#
# Compressibility (1/GPa) = 0.03601093
#
# Stress axis : x y z
#
# Youngs Moduli (GPa) = 142.77064 47.21623 98.59969
#
# Poissons Ratio (x) = 0.09495 -0.06850
# Poissons Ratio (y) = 0.28711 -0.01567
# Poissons Ratio (z) = -0.09919 -0.00751
#
# Static dielectric constant tensor:
#      x y z
#    x 1.992850 0.000000 0.000000 
#    y 0.000000 2.125370 0.000000 
#    z 0.000000 0.000000 2.192310 
# 
# From -- ./inp_files/6564.got.cif
#   From: 2010.05.17/outbox.cif.g08.bks.cpg/sg20_4_cif.got.tgz:6564.got - 2010.06.03 22:52:26.
