data_PCOD9319539
_publ_section_title
;
Structure prediction by ZEFSAII (Michael W. Deem and Ramdas Pophale) SiO2 
 PCOD9319539
Probable space group: C 2 2 21
;
_chemical_formula_sum "Si O2"
_cell_formula_units_Z 64
_cell_length_a 9.547658
_cell_length_b 17.913281
_cell_length_c 18.032937
_cell_angle_alpha 90.000000
_cell_angle_beta 90.000000
_cell_angle_gamma 90.000000
_cell_volume 3084.171063
_symmetry_space_group_name_H-M "C 2 2 21"
_symmetry_group_IT_number 20
_symmetry_cell_setting 'orthorhombic'
loop_
_space_group_symop_operation_xyz
x,y,z
-x,-y,1/2+z
x,-y,-z
-x,y,1/2-z
1/2+x,1/2+y,z
1/2-x,1/2-y,1/2+z
1/2+x,1/2-y,-z
1/2-x,1/2+y,1/2-z
loop_
_atom_site_type_symbol
_atom_site_label
_atom_site_fract_x
_atom_site_fract_y
_atom_site_fract_z
Si Si1 0.302246 0.923350 0.953037
Si Si2 0.158830 0.918824 0.275161
Si Si3 0.859705 0.687079 0.789585
Si Si4 0.011752 0.673198 0.553796
Si Si5 0.231035 0.928097 0.444234
Si Si6 0.650898 0.041416 0.283563
Si Si7 0.995609 0.851351 0.957850
Si Si8 0.129552 0.135804 0.298979
O O1 0.347893 0.934736 0.868453
O O2 0.142581 0.894509 0.957771
O O3 0.401331 0.859772 0.986214
O O4 0.317849 0.000000 0.000000
O O5 0.226087 0.838904 0.256939
O O6 0.188460 0.945657 0.359076
O O7 0.000000 0.921898 0.250000
O O8 0.252194 0.969317 0.221580
O O9 0.885370 0.665170 0.874977
O O10 0.861803 0.776110 0.786888
O O11 0.000000 0.658331 0.750000
O O12 0.980377 0.761671 0.545009
O O13 0.871962 0.622462 0.559916
O O14 0.103829 0.877900 0.475788
O O15 0.248125 0.000000 0.500000
O O16 0.500000 0.026496 0.250000
O O17 0.729301 0.100179 0.230666
O O18 0.910562 0.874595 0.884045
O O19 0.000000 0.105662 0.250000
#
# Coordination Sequence:
#
# PCOD9319539 Si02
#       8
#     8   8   8   8   8   8   8   8
#     4  12  27  44  72 102 140 184 232 286 350 417
#     4  12  28  45  71 101 136 180 238 293 345 411
#     4  10  21  44  72  98 134 182 227 277 340 408
#     4  11  25  46  71 103 143 185 229 282 349 418
#     4  12  27  44  72 102 140 184 232 286 350 417
#     4  12  28  45  71 101 136 180 238 293 345 411
#     4  11  25  46  71 103 143 185 229 282 349 418
#     4  10  21  44  72  98 134 182 227 277 340 408
#
# _framework density 20.75112
#
# number of rings (size 3 to 8) (size 9 to 14) (size 15 to 20)
#    0.000    0.750    2.500    3.750   10.500    1.500 
#    0.000    0.000    0.000    0.000    0.000    0.000 
#    0.000    0.000    0.000    0.000    0.000    0.000 
#
# Total GULP energy -178892.944630 kJ/mol
# GULP energy per Si atom -5590.404520 kJ/mol
# Density = 2.070389 g / cm^3
# Si number density = 20.751120 Si / 1000 Ang^3
#
#
#
# Elastic Constant Matrix: (Units=GPa)
#
#
# Indices 1 2 3 4 5 6 
#
# 1 121.3820 26.5569 13.5812 0.0000 0.0000 0.0000
# 2 26.5569 60.2893 10.1841 0.0000 0.0000 0.0000
# 3 13.5812 10.1841 55.0716 0.0000 0.0000 0.0000
# 4 0.0000 0.0000 0.0000 27.2067 0.0000 0.0000
# 5 0.0000 0.0000 0.0000 0.0000 28.7382 0.0000
# 6 0.0000 0.0000 0.0000 0.0000 0.0000 21.6404
#
#
#
# Elastic Compliance Matrix: (Units=1/GPa)
#
#
# Indices 1 2 3 4 5 6 
#
# 1 0.009248 -0.003807 -0.001577 0.000000 0.000000 0.000000
# 2 -0.003807 0.018689 -0.002517 0.000000 0.000000 0.000000
# 3 -0.001577 -0.002517 0.019012 0.000000 0.000000 0.000000
# 4 0.000000 0.000000 0.000000 0.036756 0.000000 0.000000
# 5 0.000000 0.000000 0.000000 0.000000 0.034797 0.000000
# 6 0.000000 0.000000 0.000000 0.000000 0.000000 0.046210
#
#
# Mechanical properties :
#
#
# Convention : Reuss Voigt Hill
#
# Bulk Modulus (GPa) = 32.10549 37.48748 34.79649
# Shear Modulus (GPa) = 26.19229 27.94513 27.06871
#
# Velocity S-wave (km/s) = 3.55661 3.67370 3.61563
# Velocity P-wave (km/s) = 5.68958 6.00826 5.85109
#
# Compressibility (1/GPa) = 0.03114732
#
# Stress axis : x y z
#
# Youngs Moduli (GPa) = 108.13347 53.50751 52.59715
#
# Poissons Ratio (x) = 0.20372 0.08292
# Poissons Ratio (y) = 0.41169 0.13239
# Poissons Ratio (z) = 0.17048 0.13469
#
# Static dielectric constant tensor:
#      x y z
#    x 1.771110 0.000000 0.000000 
#    y 0.000000 1.806100 0.000000 
#    z 0.000000 0.000000 1.961730 
# 
# From -- ./inp_files/23907.got.cif
#   From: 2010.05.17/outbox.cif.g08.bks.cpg/sg20_12_cif.got.tgz:23907.got - 2010.06.03 22:52:26.
