data_PCOD9319613
_publ_section_title
;
Structure prediction by ZEFSAII (Michael W. Deem and Ramdas Pophale) SiO2 
 PCOD9319613
Probable space group: C 2 2 21
;
_chemical_formula_sum "Si O2"
_cell_formula_units_Z 60
_cell_length_a 8.727475
_cell_length_b 11.194362
_cell_length_c 28.278201
_cell_angle_alpha 90.000000
_cell_angle_beta 90.000000
_cell_angle_gamma 90.000000
_cell_volume 2762.738230
_symmetry_space_group_name_H-M "C 2 2 21"
_symmetry_group_IT_number 20
_symmetry_cell_setting 'orthorhombic'
loop_
_space_group_symop_operation_xyz
x,y,z
-x,-y,1/2+z
x,-y,-z
-x,y,1/2-z
1/2+x,1/2+y,z
1/2-x,1/2-y,1/2+z
1/2+x,1/2-y,-z
1/2-x,1/2+y,1/2-z
loop_
_atom_site_type_symbol
_atom_site_label
_atom_site_fract_x
_atom_site_fract_y
_atom_site_fract_z
Si Si1 0.967339 0.110877 0.035820
Si Si2 0.685051 0.964968 0.828417
Si Si3 0.356318 0.548442 0.606739
Si Si4 0.023715 0.948096 0.805034
Si Si5 0.363583 0.766115 0.535094
Si Si6 0.932854 0.609270 0.098128
Si Si7 0.000000 0.325953 0.750000
Si Si8 0.264878 0.260120 0.174993
O O1 0.802392 0.173701 0.037369
O O2 0.032997 0.051758 0.083277
O O3 0.094261 0.199705 0.013538
O O4 0.952767 0.000000 0.000000
O O5 0.584550 0.922936 0.872366
O O6 0.600532 0.912417 0.782821
O O7 0.857636 0.918448 0.826022
O O8 0.699256 0.107871 0.828638
O O9 0.401118 0.550881 0.661901
O O10 0.373280 0.668689 0.577295
O O11 0.184612 0.500247 0.599712
O O12 0.135698 0.835698 0.811009
O O13 0.000000 0.977690 0.750000
O O14 0.503947 0.854970 0.547106
O O15 0.843386 0.714090 0.126465
O O16 0.891568 0.249308 0.783914
#
# Coordination Sequence:
#
# PCOD9319613 Si02
#       8
#     8   8   8   8   8   8   4   8
#     4  10  23  41  66  99 128 163 213 258 319 395
#     4  11  23  38  59  84 120 162 211 265 317 371
#     4  10  23  42  63  93 135 166 211 267 316 379
#     4  11  22  41  63  92 125 173 222 261 313 380
#     4  11  22  42  69  96 128 170 202 264 330 383
#     4  10  23  40  60  94 126 161 214 258 317 387
#     4  10  22  36  54  84 112 152 218 260 308 374
#     4  10  23  40  59  86 123 168 209 270 316 370
#
# _framework density 21.717583999999999
#
# number of rings (size 3 to 8) (size 9 to 14) (size 15 to 20)
#    0.000    1.600    1.333    2.400    1.867    5.333 
#    0.000    2.667    0.000    0.000    0.000    0.000 
#    0.000    0.000    0.000    0.000    0.000    0.000 
#
# Total GULP energy -167792.567610 kJ/mol
# GULP energy per Si atom -5593.085587 kJ/mol
# Density = 2.166815 g / cm^3
# Si number density = 21.717584 Si / 1000 Ang^3
#
#
#
# Elastic Constant Matrix: (Units=GPa)
#
#
# Indices 1 2 3 4 5 6 
#
# 1 104.2028 6.3032 13.7116 0.0000 0.0000 0.0000
# 2 6.3032 44.0727 6.5129 0.0000 0.0000 0.0000
# 3 13.7116 6.5129 59.5353 0.0000 0.0000 0.0000
# 4 0.0000 0.0000 0.0000 11.5733 0.0000 0.0000
# 5 0.0000 0.0000 0.0000 0.0000 26.2423 0.0000
# 6 0.0000 0.0000 0.0000 0.0000 0.0000 34.7268
#
#
#
# Elastic Compliance Matrix: (Units=1/GPa)
#
#
# Indices 1 2 3 4 5 6 
#
# 1 0.009949 -0.001102 -0.002171 0.000000 0.000000 0.000000
# 2 -0.001102 0.023185 -0.002282 0.000000 0.000000 0.000000
# 3 -0.002171 -0.002282 0.017546 0.000000 0.000000 0.000000
# 4 0.000000 0.000000 0.000000 0.086406 0.000000 0.000000
# 5 0.000000 0.000000 0.000000 0.000000 0.038106 0.000000
# 6 0.000000 0.000000 0.000000 0.000000 0.000000 0.028796
#
#
# Mechanical properties :
#
#
# Convention : Reuss Voigt Hill
#
# Bulk Modulus (GPa) = 25.27210 28.98515 27.12862
# Shear Modulus (GPa) = 21.90204 26.59401 24.24802
#
# Velocity S-wave (km/s) = 3.17912 3.50314 3.34506
# Velocity P-wave (km/s) = 5.01375 5.45325 5.23812
#
# Compressibility (1/GPa) = 0.03956933
#
# Stress axis : x y z
#
# Youngs Moduli (GPa) = 100.51283 43.13187 56.99177
#
# Poissons Ratio (x) = 0.04754 0.12372
# Poissons Ratio (y) = 0.11077 0.13008
# Poissons Ratio (z) = 0.21819 0.09845
#
# Static dielectric constant tensor:
#      x y z
#    x 1.771210 0.000000 0.000000 
#    y 0.000000 1.792930 0.000000 
#    z 0.000000 0.000000 1.812850 
# 
# From -- ./inp_files/31049.got.cif
#   From: 2010.05.17/outbox.cif.g08.bks.cpg/sg20_16_cif.got.tgz:31049.got - 2010.06.03 22:52:26.
