data_PCOD9319623
_publ_section_title
;
Structure prediction by ZEFSAII (Michael W. Deem and Ramdas Pophale) SiO2 
 PCOD9319623
Probable space group: C 2 2 21
;
_chemical_formula_sum "Si O2"
_cell_formula_units_Z 44
_cell_length_a 14.757082
_cell_length_b 9.419668
_cell_length_c 15.921520
_cell_angle_alpha 90.000000
_cell_angle_beta 90.000000
_cell_angle_gamma 90.000000
_cell_volume 2213.199755
_symmetry_space_group_name_H-M "C 2 2 21"
_symmetry_group_IT_number 20
_symmetry_cell_setting 'orthorhombic'
loop_
_space_group_symop_operation_xyz
x,y,z
-x,-y,1/2+z
x,-y,-z
-x,y,1/2-z
1/2+x,1/2+y,z
1/2-x,1/2-y,1/2+z
1/2+x,1/2-y,-z
1/2-x,1/2+y,1/2-z
loop_
_atom_site_type_symbol
_atom_site_label
_atom_site_fract_x
_atom_site_fract_y
_atom_site_fract_z
Si Si1 0.447526 0.378068 0.900488
Si Si2 0.183406 0.864128 0.761945
Si Si3 0.440448 0.135656 0.666810
Si Si4 0.165806 0.380090 0.868584
Si Si5 0.374341 0.560168 0.589518
Si Si6 0.198278 0.000000 0.500000
O O1 0.389859 0.388310 0.813703
O O2 0.506981 0.235939 0.898085
O O3 0.521037 0.505640 0.902967
O O4 0.375221 0.378542 0.976214
O O5 0.151204 0.719786 0.807579
O O6 0.280833 0.855833 0.718620
O O7 0.175170 0.986442 0.831523
O O8 0.500000 0.133140 0.750000
O O9 0.421593 0.977105 0.639975
O O10 0.142591 0.227855 0.907307
O O11 0.233370 0.478430 0.923524
O O12 0.341739 0.500000 0.500000
#
# Coordination Sequence:
#
# PCOD9319623 Si02
#       6
#     8   8   8   8   8   4
#     4   9  19  40  62  80 118 170 200 237 316 384
#     4   9  20  40  62  84 122 167 201 243 321 377
#     4   9  19  37  64  85 115 158 203 254 296 368
#     4  11  23  36  61  94 120 156 211 258 307 358
#     4  11  22  37  64  90 122 162 207 257 311 367
#     4  10  22  36  60  84 122 158 196 252 310 366
#
# _framework density 19.880718000000002
#
# number of rings (size 3 to 8) (size 9 to 14) (size 15 to 20)
#    0.000    2.182    0.909    2.727    5.091    1.455 
#    0.000    0.000   12.000    0.000    0.000    0.000 
#    0.000    0.000    0.000    0.000    0.000    0.000 
#
# Total GULP energy -122494.344782 kJ/mol
# GULP energy per Si atom -5567.924763 kJ/mol
# Density = 1.983547 g / cm^3
# Si number density = 19.880718 Si / 1000 Ang^3
#
#
#
# Elastic Constant Matrix: (Units=GPa)
#
#
# Indices 1 2 3 4 5 6 
#
# 1 49.9522 40.4026 7.7357 0.0000 0.0000 0.0000
# 2 40.4026 128.3584 67.5943 0.0000 0.0000 0.0000
# 3 7.7357 67.5943 49.3943 0.0000 0.0000 0.0000
# 4 0.0000 0.0000 0.0000 16.5687 0.0000 0.0000
# 5 0.0000 0.0000 0.0000 0.0000 22.4219 0.0000
# 6 0.0000 0.0000 0.0000 0.0000 0.0000 4.5794
#
#
#
# Elastic Compliance Matrix: (Units=1/GPa)
#
#
# Indices 1 2 3 4 5 6 
#
# 1 0.041758 -0.034722 0.040976 0.000000 0.000000 0.000000
# 2 -0.034722 0.056760 -0.072235 0.000000 0.000000 0.000000
# 3 0.040976 -0.072235 0.112680 0.000000 0.000000 0.000000
# 4 0.000000 0.000000 0.000000 0.060355 0.000000 0.000000
# 5 0.000000 0.000000 0.000000 0.000000 0.044599 0.000000
# 6 0.000000 0.000000 0.000000 0.000000 0.000000 0.218371
#
#
# Mechanical properties :
#
#
# Convention : Reuss Voigt Hill
#
# Bulk Modulus (GPa) = 12.62088 51.01889 31.81988
# Shear Modulus (GPa) = 7.21610 16.17882 11.69746
#
# Velocity S-wave (km/s) = 1.90724 2.85580 2.42829
# Velocity P-wave (km/s) = 3.34846 6.04916 4.88899
#
# Compressibility (1/GPa) = 0.07923380
#
# Stress axis : x y z
#
# Youngs Moduli (GPa) = 23.94778 17.61818 8.87473
#
# Poissons Ratio (x) = 0.61174 -0.36365
# Poissons Ratio (y) = 0.83152 0.64107
# Poissons Ratio (z) = -0.98129 1.27266
#
# Static dielectric constant tensor:
#      x y z
#    x 1.725700 0.000000 0.000000 
#    y 0.000000 1.686890 0.000000 
#    z 0.000000 0.000000 1.745550 
# 
# From -- ./inp_files/24741.got.cif
#   From: 2010.05.17/outbox.cif.g08.bks.cpg/sg20_13_cif.got.tgz:24741.got - 2010.06.03 22:52:26.
