data_PCOD9319545
_publ_section_title
;
Structure prediction by ZEFSAII (Michael W. Deem and Ramdas Pophale) SiO2 
 PCOD9319545
Probable space group: C 2 2 21
;
_chemical_formula_sum "Si O2"
_cell_formula_units_Z 60
_cell_length_a 14.406784
_cell_length_b 12.281117
_cell_length_c 12.938917
_cell_angle_alpha 90.000000
_cell_angle_beta 90.000000
_cell_angle_gamma 90.000000
_cell_volume 2289.300698
_symmetry_space_group_name_H-M "C 2 2 21"
_symmetry_group_IT_number 20
_symmetry_cell_setting 'orthorhombic'
loop_
_space_group_symop_operation_xyz
x,y,z
-x,-y,1/2+z
x,-y,-z
-x,y,1/2-z
1/2+x,1/2+y,z
1/2-x,1/2-y,1/2+z
1/2+x,1/2-y,-z
1/2-x,1/2+y,1/2-z
loop_
_atom_site_type_symbol
_atom_site_label
_atom_site_fract_x
_atom_site_fract_y
_atom_site_fract_z
Si Si1 0.170216 0.368704 0.742360
Si Si2 0.427456 0.341861 0.016465
Si Si3 0.866610 0.089215 0.198139
Si Si4 0.672905 0.877944 0.505419
Si Si5 0.370722 0.372485 0.464449
Si Si6 0.500000 0.033661 0.750000
Si Si7 0.113349 0.709862 0.844184
Si Si8 0.815169 0.133407 0.787454
O O1 0.255240 0.394139 0.818318
O O2 0.208677 0.368551 0.624361
O O3 0.086663 0.452531 0.739368
O O4 0.142047 0.243650 0.758974
O O5 0.400778 0.216923 0.991635
O O6 0.346645 0.376605 0.093510
O O7 0.422285 0.404979 0.908326
O O8 0.524138 0.356959 0.074515
O O9 0.900373 0.188472 0.267245
O O10 0.861980 0.974586 0.258593
O O11 0.761790 0.864102 0.429930
O O12 0.635209 0.000000 0.500000
O O13 0.370749 0.500000 0.500000
O O14 0.374089 0.270372 0.547072
O O15 0.533235 0.118975 0.837869
O O16 0.205209 0.650421 0.797994
#
# Coordination Sequence:
#
# PCOD9319545 Si02
#       8
#     8   8   8   8   8   4   8   8
#     4  10  23  43  64  98 135 176 216 287 337 409
#     4  11  23  40  66  97 132 173 227 281 342 396
#     4  11  21  41  69  95 129 180 220 279 346 396
#     4  10  23  43  66  90 134 177 224 273 337 412
#     4  11  22  43  66  95 132 173 229 283 335 404
#     4  12  24  42  70 100 140 172 234 280 348 420
#     4  11  23  41  67 103 133 172 231 284 333 414
#     4  10  21  45  63  93 141 173 227 276 338 409
#
# _framework density 26.208877000000001
#
# number of rings (size 3 to 8) (size 9 to 14) (size 15 to 20)
#    0.000    1.333    5.333    2.000    3.733    0.000 
#    4.800    2.000    0.000    0.000    0.000    0.000 
#    0.000    0.000    0.000    0.000    0.000    0.000 
#
# Total GULP energy -167556.191021 kJ/mol
# GULP energy per Si atom -5585.206367 kJ/mol
# Density = 2.614922 g / cm^3
# Si number density = 26.208877 Si / 1000 Ang^3
#
#
#
# Elastic Constant Matrix: (Units=GPa)
#
#
# Indices 1 2 3 4 5 6 
#
# 1 136.8849 61.6207 16.8119 0.0000 0.0000 0.0000
# 2 61.6207 208.7300 -9.9412 0.0000 0.0000 0.0000
# 3 16.8119 -9.9412 38.5785 0.0000 0.0000 0.0000
# 4 0.0000 0.0000 0.0000 27.3980 0.0000 0.0000
# 5 0.0000 0.0000 0.0000 0.0000 32.0752 0.0000
# 6 0.0000 0.0000 0.0000 0.0000 0.0000 45.8302
#
#
#
# Elastic Compliance Matrix: (Units=1/GPa)
#
#
# Indices 1 2 3 4 5 6 
#
# 1 0.009220 -0.002949 -0.004778 0.000000 0.000000 0.000000
# 2 -0.002949 0.005794 0.002778 0.000000 0.000000 0.000000
# 3 -0.004778 0.002778 0.028719 0.000000 0.000000 0.000000
# 4 0.000000 0.000000 0.000000 0.036499 0.000000 0.000000
# 5 0.000000 0.000000 0.000000 0.000000 0.031177 0.000000
# 6 0.000000 0.000000 0.000000 0.000000 0.000000 0.021820
#
#
# Mechanical properties :
#
#
# Convention : Reuss Voigt Hill
#
# Bulk Modulus (GPa) = 29.55516 57.90847 43.73182
# Shear Modulus (GPa) = 32.38237 42.10748 37.24493
#
# Velocity S-wave (km/s) = 3.51885 4.01260 3.77381
# Velocity P-wave (km/s) = 5.27362 6.60386 5.97587
#
# Compressibility (1/GPa) = 0.03383504
#
# Stress axis : x y z
#
# Youngs Moduli (GPa) = 108.46037 172.59440 34.81985
#
# Poissons Ratio (x) = 0.50906 0.16637
# Poissons Ratio (y) = 0.31990 -0.09674
# Poissons Ratio (z) = 0.51822 -0.47953
#
# Static dielectric constant tensor:
#      x y z
#    x 2.031670 0.000000 0.000000 
#    y 0.000000 2.090800 0.000000 
#    z 0.000000 0.000000 2.358100 
# 
# From -- ./inp_files/24946.got.cif
#   From: 2010.05.17/outbox.cif.g08.bks.cpg/sg20_13_cif.got.tgz:24946.got - 2010.06.03 22:52:26.
