data_PCOD9319466
_publ_section_title
;
Structure prediction by ZEFSAII (Michael W. Deem and Ramdas Pophale) SiO2 
 PCOD9319466
Probable space group: C 2 2 21
;
_chemical_formula_sum "Si O2"
_cell_formula_units_Z 56
_cell_length_a 13.557556
_cell_length_b 23.895886
_cell_length_c 8.578768
_cell_angle_alpha 90.000000
_cell_angle_beta 90.000000
_cell_angle_gamma 90.000000
_cell_volume 2779.261861
_symmetry_space_group_name_H-M "C 2 2 21"
_symmetry_group_IT_number 20
_symmetry_cell_setting 'orthorhombic'
loop_
_space_group_symop_operation_xyz
x,y,z
-x,-y,1/2+z
x,-y,-z
-x,y,1/2-z
1/2+x,1/2+y,z
1/2-x,1/2-y,1/2+z
1/2+x,1/2-y,-z
1/2-x,1/2+y,1/2-z
loop_
_atom_site_type_symbol
_atom_site_label
_atom_site_fract_x
_atom_site_fract_y
_atom_site_fract_z
Si Si1 0.840980 0.263347 0.385157
Si Si2 0.837616 0.801628 0.928651
Si Si3 0.386655 0.500000 0.000000
Si Si4 0.949171 0.619339 0.584375
Si Si5 0.040521 0.181415 0.906179
Si Si6 0.580287 0.952052 0.625757
Si Si7 0.500000 0.425697 0.250000
Si Si8 0.272001 0.914751 0.618955
O O1 0.849776 0.243156 0.208176
O O2 0.728779 0.278520 0.429518
O O3 0.911710 0.316750 0.413391
O O4 0.877393 0.214697 0.501390
O O5 0.773365 0.853226 0.865292
O O6 0.943960 0.822704 0.984885
O O7 0.448806 0.464542 0.123710
O O8 0.315942 0.543512 0.085497
O O9 0.851250 0.585859 0.524975
O O10 0.000000 0.606985 0.750000
O O11 0.030202 0.601422 0.457364
O O12 0.068815 0.119713 0.841740
O O13 0.000000 0.211935 0.750000
O O14 0.500000 0.974193 0.750000
O O15 0.672432 0.933141 0.726114
O O16 0.600332 0.000000 0.500000
#
# Coordination Sequence:
#
# PCOD9319466 Si02
#       8
#     8   8   4   8   8   8   4   8
#     4  11  24  39  69  96 136 180 215 282 329 413
#     4  11  22  42  63 100 130 170 226 268 340 396
#     4  12  24  50  68  96 126 176 228 284 344 388
#     4  10  22  39  63 100 134 179 214 258 333 405
#     4  10  21  43  63  92 129 171 214 276 336 390
#     4  10  22  39  61  95 131 176 210 264 329 391
#     4  10  26  46  72  92 128 174 224 284 338 406
#     4  10  24  41  65  94 135 166 220 282 317 401
#
# _framework density 20.149235000000001
#
# number of rings (size 3 to 8) (size 9 to 14) (size 15 to 20)
#    0.429    1.143    1.429    2.571    6.000    6.286 
#    3.857    0.000    0.000    0.000    0.000    0.000 
#    0.000    0.000    0.000    0.000    0.000    0.000 
#
# Total GULP energy -156289.202922 kJ/mol
# GULP energy per Si atom -5581.757247 kJ/mol
# Density = 2.010337 g / cm^3
# Si number density = 20.149235 Si / 1000 Ang^3
#
#
#
# Elastic Constant Matrix: (Units=GPa)
#
#
# Indices 1 2 3 4 5 6 
#
# 1 26.7325 11.5838 -5.0056 0.0000 0.0000 0.0000
# 2 11.5838 78.3074 28.4445 0.0000 0.0000 0.0000
# 3 -5.0056 28.4445 71.3762 0.0000 0.0000 0.0000
# 4 0.0000 0.0000 0.0000 37.8876 0.0000 0.0000
# 5 0.0000 0.0000 0.0000 0.0000 33.1019 0.0000
# 6 0.0000 0.0000 0.0000 0.0000 0.0000 133.7919
#
#
#
# Elastic Compliance Matrix: (Units=1/GPa)
#
#
# Indices 1 2 3 4 5 6 
#
# 1 0.042322 -0.008581 0.006388 0.000000 0.000000 0.000000
# 2 -0.008581 0.016671 -0.007246 0.000000 0.000000 0.000000
# 3 0.006388 -0.007246 0.017346 0.000000 0.000000 0.000000
# 4 0.000000 0.000000 0.000000 0.026394 0.000000 0.000000
# 5 0.000000 0.000000 0.000000 0.000000 0.030210 0.000000
# 6 0.000000 0.000000 0.000000 0.000000 0.000000 0.007474
#
#
# Mechanical properties :
#
#
# Convention : Reuss Voigt Hill
#
# Bulk Modulus (GPa) = 17.40292 27.38462 22.39377
# Shear Modulus (GPa) = 28.01926 50.38249 39.20087
#
# Velocity S-wave (km/s) = 3.73310 5.00589 4.41560
# Velocity P-wave (km/s) = 5.21892 6.85801 6.09383
#
# Compressibility (1/GPa) = 0.05746162
#
# Stress axis : x y z
#
# Youngs Moduli (GPa) = 23.62833 59.98281 57.65109
#
# Poissons Ratio (x) = 0.51470 -0.36826
# Poissons Ratio (y) = 0.20275 0.41772
# Poissons Ratio (z) = -0.15093 0.43461
#
# Static dielectric constant tensor:
#      x y z
#    x 1.700410 0.000000 0.000000 
#    y 0.000000 1.733190 0.000000 
#    z 0.000000 0.000000 1.686980 
# 
# From -- ./inp_files/8785.got.cif
#   From: 2010.05.17/outbox.cif.g08.bks.cpg/sg20_5_cif.got.tgz:8785.got - 2010.06.03 22:52:26.
