data_PCOD9319620
_publ_section_title
;
Structure prediction by ZEFSAII (Michael W. Deem and Ramdas Pophale) SiO2 
 PCOD9319620
Probable space group: C 2 2 21
;
_chemical_formula_sum "Si O2"
_cell_formula_units_Z 40
_cell_length_a 10.568970
_cell_length_b 8.303045
_cell_length_c 21.694270
_cell_angle_alpha 90.000000
_cell_angle_beta 90.000000
_cell_angle_gamma 90.000000
_cell_volume 1903.772713
_symmetry_space_group_name_H-M "C 2 2 21"
_symmetry_group_IT_number 20
_symmetry_cell_setting 'orthorhombic'
loop_
_space_group_symop_operation_xyz
x,y,z
-x,-y,1/2+z
x,-y,-z
-x,y,1/2-z
1/2+x,1/2+y,z
1/2-x,1/2-y,1/2+z
1/2+x,1/2-y,-z
1/2-x,1/2+y,1/2-z
loop_
_atom_site_type_symbol
_atom_site_label
_atom_site_fract_x
_atom_site_fract_y
_atom_site_fract_z
Si Si1 0.347177 0.330898 0.383108
Si Si2 0.152924 0.840806 0.831356
Si Si3 0.575244 0.907820 0.633305
Si Si4 0.423294 0.234942 0.920132
Si Si5 0.535032 0.500000 0.000000
Si Si6 0.500000 0.125071 0.750000
O O1 0.348616 0.464863 0.329201
O O2 0.460602 0.210632 0.374670
O O3 0.214880 0.238471 0.390560
O O4 0.377105 0.432016 0.445359
O O5 0.292798 0.813394 0.858593
O O6 0.115340 0.741349 0.771040
O O7 0.040121 0.785557 0.876584
O O8 0.576086 0.040181 0.578382
O O9 0.548460 0.011853 0.694953
O O10 0.447918 0.349917 0.978144
#
# Coordination Sequence:
#
# PCOD9319620 Si02
#       6
#     8   8   8   8   4   4
#     4  10  22  39  60  85 116 154 195 239 290 345
#     4   9  21  40  58  83 119 149 187 239 287 343
#     4  10  22  38  60  86 116 151 196 240 285 346
#     4   9  21  39  58  85 116 151 192 239 286 343
#     4  10  22  36  58  86 118 154 192 238 296 342
#     4  10  22  36  58  88 116 150 192 238 292 342
#
# _framework density 21.010911
#
# number of rings (size 3 to 8) (size 9 to 14) (size 15 to 20)
#    0.000    2.400    0.000    0.000    0.000   20.800 
#    0.000    0.000    0.000    1.200    0.000    0.000 
#    0.000    0.000    0.000    0.000    0.000    0.000 
#
# Total GULP energy -111462.341930 kJ/mol
# GULP energy per Si atom -5573.117097 kJ/mol
# Density = 2.096309 g / cm^3
# Si number density = 21.010911 Si / 1000 Ang^3
#
#
#
# Elastic Constant Matrix: (Units=GPa)
#
#
# Indices 1 2 3 4 5 6 
#
# 1 185.7136 54.0573 19.7432 0.0000 0.0000 0.0000
# 2 54.0573 54.1087 37.8214 0.0000 0.0000 0.0000
# 3 19.7432 37.8214 62.6875 0.0000 0.0000 0.0000
# 4 0.0000 0.0000 0.0000 51.5973 0.0000 0.0000
# 5 0.0000 0.0000 0.0000 0.0000 25.1297 0.0000
# 6 0.0000 0.0000 0.0000 0.0000 0.0000 41.4401
#
#
#
# Elastic Compliance Matrix: (Units=1/GPa)
#
#
# Indices 1 2 3 4 5 6 
#
# 1 0.008148 -0.010975 0.004055 0.000000 0.000000 0.000000
# 2 -0.010975 0.046742 -0.024745 0.000000 0.000000 0.000000
# 3 0.004055 -0.024745 0.029604 0.000000 0.000000 0.000000
# 4 0.000000 0.000000 0.000000 0.019381 0.000000 0.000000
# 5 0.000000 0.000000 0.000000 0.000000 0.039794 0.000000
# 6 0.000000 0.000000 0.000000 0.000000 0.000000 0.024131
#
#
# Mechanical properties :
#
#
# Convention : Reuss Voigt Hill
#
# Bulk Modulus (GPa) = 47.24562 58.41709 52.83135
# Shear Modulus (GPa) = 20.99220 36.35927 28.67573
#
# Velocity S-wave (km/s) = 3.16430 4.16443 3.69833
# Velocity P-wave (km/s) = 5.99044 7.14051 6.59061
#
# Compressibility (1/GPa) = 0.02116598
#
# Stress axis : x y z
#
# Youngs Moduli (GPa) = 122.72774 21.39396 33.77913
#
# Poissons Ratio (x) = 0.23480 -0.13699
# Poissons Ratio (y) = 1.34695 0.83585
# Poissons Ratio (z) = -0.49771 0.52938
#
# Static dielectric constant tensor:
#      x y z
#    x 1.747930 0.000000 0.000000 
#    y 0.000000 1.771520 0.000000 
#    z 0.000000 0.000000 1.850880 
# 
# From -- ./inp_files/28610.got.cif
#   From: 2010.05.17/outbox.cif.g08.bks.cpg/sg20_15_cif.got.tgz:28610.got - 2010.06.03 22:52:26.
