data_PCOD9319615
_publ_section_title
;
Structure prediction by ZEFSAII (Michael W. Deem and Ramdas Pophale) SiO2 
 PCOD9319615
Probable space group: C 2 2 21
;
_chemical_formula_sum "Si O2"
_cell_formula_units_Z 60
_cell_length_a 5.610738
_cell_length_b 23.277950
_cell_length_c 20.961618
_cell_angle_alpha 90.000000
_cell_angle_beta 90.000000
_cell_angle_gamma 90.000000
_cell_volume 2737.723113
_symmetry_space_group_name_H-M "C 2 2 21"
_symmetry_group_IT_number 20
_symmetry_cell_setting 'orthorhombic'
loop_
_space_group_symop_operation_xyz
x,y,z
-x,-y,1/2+z
x,-y,-z
-x,y,1/2-z
1/2+x,1/2+y,z
1/2-x,1/2-y,1/2+z
1/2+x,1/2-y,-z
1/2-x,1/2+y,1/2-z
loop_
_atom_site_type_symbol
_atom_site_label
_atom_site_fract_x
_atom_site_fract_y
_atom_site_fract_z
Si Si1 0.988397 0.942963 0.175334
Si Si2 0.966812 0.708684 0.881270
Si Si3 0.490081 0.011760 0.176140
Si Si4 0.517600 0.315901 0.971479
Si Si5 0.067350 0.000000 0.000000
Si Si6 0.113255 0.606939 0.528150
Si Si7 0.462388 0.315762 0.124791
Si Si8 0.761470 0.577906 0.429600
O O1 0.725556 0.971676 0.168197
O O2 0.986814 0.883138 0.138100
O O3 0.000000 0.927114 0.250000
O O4 0.233417 0.980755 0.166250
O O5 0.996247 0.755473 0.937185
O O6 0.703932 0.715574 0.852418
O O7 0.218433 0.708449 0.845602
O O8 0.948228 0.644586 0.911110
O O9 0.500000 0.031983 0.250000
O O10 0.548537 0.061340 0.124263
O O11 0.774537 0.346668 0.978443
O O12 0.363338 0.360264 0.928941
O O13 0.448683 0.310147 0.046736
O O14 0.210988 0.053396 0.971114
O O15 0.928914 0.027939 0.059284
O O16 0.881073 0.579399 0.498933
#
# Coordination Sequence:
#
# PCOD9319615 Si02
#       8
#     8   8   8   8   4   8   8   8
#     4  10  23  42  63  90 120 159 209 258 308 372
#     4  11  23  38  59  90 126 165 209 236 309 374
#     4  10  24  42  62  86 120 165 208 251 306 373
#     4  10  23  37  56  91 125 163 207 247 303 377
#     4  10  24  36  50  94 132 152 198 250 332 366
#     4  10  22  36  56  85 127 168 194 255 305 376
#     4  11  21  36  62  88 118 166 194 253 305 364
#     4  11  23  36  60  86 127 163 205 257 305 380
#
# _framework density 21.916022999999999
#
# number of rings (size 3 to 8) (size 9 to 14) (size 15 to 20)
#    0.000    1.600    1.333    2.800   11.200    3.200 
#    0.000    0.000    0.000    0.800    3.467    0.000 
#    0.000    0.000    0.000    0.000    0.000    0.000 
#
# Total GULP energy -167258.167945 kJ/mol
# GULP energy per Si atom -5575.272265 kJ/mol
# Density = 2.186614 g / cm^3
# Si number density = 21.916023 Si / 1000 Ang^3
#
#
#
# Elastic Constant Matrix: (Units=GPa)
#
#
# Indices 1 2 3 4 5 6 
#
# 1 154.3993 28.3783 7.7422 0.0000 0.0000 0.0000
# 2 28.3783 78.8646 12.3556 0.0000 0.0000 0.0000
# 3 7.7422 12.3556 37.5390 0.0000 0.0000 0.0000
# 4 0.0000 0.0000 0.0000 16.9811 0.0000 0.0000
# 5 0.0000 0.0000 0.0000 0.0000 16.8826 0.0000
# 6 0.0000 0.0000 0.0000 0.0000 0.0000 3.7476
#
#
#
# Elastic Compliance Matrix: (Units=1/GPa)
#
#
# Indices 1 2 3 4 5 6 
#
# 1 0.006950 -0.002400 -0.000643 0.000000 0.000000 0.000000
# 2 -0.002400 0.014198 -0.004178 0.000000 0.000000 0.000000
# 3 -0.000643 -0.004178 0.028147 0.000000 0.000000 0.000000
# 4 0.000000 0.000000 0.000000 0.058889 0.000000 0.000000
# 5 0.000000 0.000000 0.000000 0.000000 0.059233 0.000000
# 6 0.000000 0.000000 0.000000 0.000000 0.000000 0.266837
#
#
# Mechanical properties :
#
#
# Convention : Reuss Voigt Hill
#
# Bulk Modulus (GPa) = 28.69300 40.86167 34.77734
# Shear Modulus (GPa) = 10.86214 22.34405 16.60310
#
# Velocity S-wave (km/s) = 2.22868 3.19647 2.75540
# Velocity P-wave (km/s) = 4.44335 5.68405 5.10156
#
# Compressibility (1/GPa) = 0.03485170
#
# Stress axis : x y z
#
# Youngs Moduli (GPa) = 143.88266 70.43151 35.52796
#
# Poissons Ratio (x) = 0.16904 0.02286
# Poissons Ratio (y) = 0.34533 0.14844
# Poissons Ratio (z) = 0.09258 0.29428
#
# Static dielectric constant tensor:
#      x y z
#    x 1.954930 0.000000 0.000000 
#    y 0.000000 1.844340 0.000000 
#    z 0.000000 0.000000 1.826000 
# 
# From -- ./inp_files/26243.got.cif
#   From: 2010.05.17/outbox.cif.g08.bks.cpg/sg20_14_cif.got.tgz:26243.got - 2010.06.03 22:52:26.
