data_PCOD9319045
_publ_section_title
;
Structure prediction by ZEFSAII (Michael W. Deem and Ramdas Pophale) SiO2 
 PCOD9319045
Probable space group: C 2 2 21
;
_chemical_formula_sum "Si O2"
_cell_formula_units_Z 64
_cell_length_a 28.326545
_cell_length_b 12.068014
_cell_length_c 8.053953
_cell_angle_alpha 90.000000
_cell_angle_beta 90.000000
_cell_angle_gamma 90.000000
_cell_volume 2753.204704
_symmetry_space_group_name_H-M "C 2 2 21"
_symmetry_group_IT_number 20
_symmetry_cell_setting 'orthorhombic'
loop_
_space_group_symop_operation_xyz
x,y,z
-x,-y,1/2+z
x,-y,-z
-x,y,1/2-z
1/2+x,1/2+y,z
1/2-x,1/2-y,1/2+z
1/2+x,1/2-y,-z
1/2-x,1/2+y,1/2-z
loop_
_atom_site_type_symbol
_atom_site_label
_atom_site_fract_x
_atom_site_fract_y
_atom_site_fract_z
Si Si1 0.568326 0.322770 0.117926
Si Si2 0.454491 0.107278 0.191797
Si Si3 0.422010 0.557802 0.277079
Si Si4 0.413980 0.765196 0.089642
Si Si5 0.318234 0.501335 0.806833
Si Si6 0.875823 0.449108 0.316868
Si Si7 0.840238 0.760396 0.212113
Si Si8 0.217043 0.463086 0.691390
O O1 0.543816 0.211340 0.179638
O O2 0.560828 0.431078 0.235590
O O3 0.622239 0.281105 0.141370
O O4 0.560509 0.377964 0.940583
O O5 0.500000 0.038705 0.250000
O O6 0.406702 0.036625 0.209253
O O7 0.451285 0.159554 0.009353
O O8 0.432846 0.643909 0.132641
O O9 0.364616 0.543802 0.285991
O O10 0.395857 0.831117 0.252760
O O11 0.371469 0.746631 0.957047
O O12 0.309138 0.630632 0.774968
O O13 0.268847 0.446594 0.765750
O O14 0.330843 0.500000 0.000000
O O15 0.883202 0.500000 0.500000
O O16 0.820001 0.452725 0.278125
O O17 0.809798 0.651964 0.216166
O O18 0.220845 0.500000 0.500000
#
# Coordination Sequence:
#
# PCOD9319045 Si02
#       8
#     8   8   8   8   8   8   8   8
#     4   9  20  40  66  95 129 172 216 268 340 394
#     4  11  24  44  69  99 133 168 222 280 339 406
#     4  10  21  40  66  95 130 176 220 269 331 405
#     4  11  21  41  71  94 131 178 219 271 339 403
#     4  11  24  39  58  96 128 172 232 271 326 387
#     4  12  24  42  67  97 134 178 222 272 344 402
#     4  10  21  39  62  86 125 173 221 272 329 390
#     4  12  24  41  60  91 135 174 222 281 331 391
#
# _framework density 23.245639000000001
#
# number of rings (size 3 to 8) (size 9 to 14) (size 15 to 20)
#    0.000    1.250    5.000    1.500    3.500    3.000 
#    0.000    4.375    0.000    0.000    0.000    0.000 
#    0.000    0.000    0.000    0.000    0.000    0.000 
#
# Total GULP energy -178599.195204 kJ/mol
# GULP energy per Si atom -5581.224850 kJ/mol
# Density = 2.319273 g / cm^3
# Si number density = 23.245639 Si / 1000 Ang^3
#
#
#
# Elastic Constant Matrix: (Units=GPa)
#
#
# Indices 1 2 3 4 5 6 
#
# 1 63.5376 -3.9884 -1.3671 0.0000 0.0000 0.0000
# 2 -3.9884 60.6202 3.4278 0.0000 0.0000 0.0000
# 3 -1.3671 3.4278 74.6920 0.0000 0.0000 0.0000
# 4 0.0000 0.0000 0.0000 38.2663 0.0000 0.0000
# 5 0.0000 0.0000 0.0000 0.0000 22.7231 0.0000
# 6 0.0000 0.0000 0.0000 0.0000 0.0000 3.8704
#
#
#
# Elastic Compliance Matrix: (Units=1/GPa)
#
#
# Indices 1 2 3 4 5 6 
#
# 1 0.015808 0.001026 0.000242 0.000000 0.000000 0.000000
# 2 0.001026 0.016606 -0.000743 0.000000 0.000000 0.000000
# 3 0.000242 -0.000743 0.013427 0.000000 0.000000 0.000000
# 4 0.000000 0.000000 0.000000 0.026133 0.000000 0.000000
# 5 0.000000 0.000000 0.000000 0.000000 0.044008 0.000000
# 6 0.000000 0.000000 0.000000 0.000000 0.000000 0.258373
#
#
# Mechanical properties :
#
#
# Convention : Reuss Voigt Hill
#
# Bulk Modulus (GPa) = 21.32580 21.66606 21.49593
# Shear Modulus (GPa) = 12.85563 26.35711 19.60637
#
# Velocity S-wave (km/s) = 2.35422 3.37092 2.90736
# Velocity P-wave (km/s) = 4.07232 4.94889 4.53185
#
# Compressibility (1/GPa) = 0.04689157
#
# Stress axis : x y z
#
# Youngs Moduli (GPa) = 63.25766 60.22023 74.47753
#
# Poissons Ratio (x) = -0.06181 -0.01804
# Poissons Ratio (y) = -0.06493 0.05536
# Poissons Ratio (z) = -0.01532 0.04476
#
# Static dielectric constant tensor:
#      x y z
#    x 1.870240 0.000000 0.000000 
#    y 0.000000 1.897990 0.000000 
#    z 0.000000 0.000000 1.922550 
# 
# From -- ./inp_files/11607.got.cif
#   From: 2010.05.17/outbox.cif.g08.bks.cpg/sg20_6_cif.got.tgz:11607.got - 2010.06.03 22:52:26.
