data_PCOD9319462
_publ_section_title
;
Structure prediction by ZEFSAII (Michael W. Deem and Ramdas Pophale) SiO2 
 PCOD9319462
Probable space group: C 2 2 21
;
_chemical_formula_sum "Si O2"
_cell_formula_units_Z 52
_cell_length_a 20.430680
_cell_length_b 14.585363
_cell_length_c 8.747038
_cell_angle_alpha 90.000000
_cell_angle_beta 90.000000
_cell_angle_gamma 90.000000
_cell_volume 2606.520093
_symmetry_space_group_name_H-M "C 2 2 21"
_symmetry_group_IT_number 20
_symmetry_cell_setting 'orthorhombic'
loop_
_space_group_symop_operation_xyz
x,y,z
-x,-y,1/2+z
x,-y,-z
-x,y,1/2-z
1/2+x,1/2+y,z
1/2-x,1/2-y,1/2+z
1/2+x,1/2-y,-z
1/2-x,1/2+y,1/2-z
loop_
_atom_site_type_symbol
_atom_site_label
_atom_site_fract_x
_atom_site_fract_y
_atom_site_fract_z
Si Si1 0.630435 0.096168 0.066390
Si Si2 0.500000 0.885168 0.750000
Si Si3 0.849007 0.730725 0.708490
Si Si4 0.697766 0.742438 0.765827
Si Si5 0.998637 0.906898 0.066848
Si Si6 0.586029 0.761374 0.522746
Si Si7 0.350696 0.397092 0.520127
O O1 0.562013 0.073304 0.155361
O O2 0.680690 0.154068 0.174172
O O3 0.620547 0.168936 0.927334
O O4 0.656089 0.000000 0.000000
O O5 0.540044 0.827744 0.622675
O O6 0.770775 0.720008 0.714225
O O7 0.853182 0.840510 0.678008
O O8 0.883410 0.702738 0.866081
O O9 0.645888 0.729374 0.630166
O O10 0.683311 0.672272 0.902732
O O11 0.073924 0.902528 0.023945
O O12 0.000000 0.901476 0.250000
O O13 0.959931 0.824482 0.992193
O O14 0.969916 0.000000 0.000000
O O15 0.323346 0.500000 0.500000
#
# Coordination Sequence:
#
# PCOD9319462 Si02
#       7
#     8   4   8   8   8   8   8
#     4  10  23  43  64  91 123 160 205 260 314 361
#     4  10  22  40  62  86 122 160 200 264 314 354
#     4  11  24  38  63  90 117 162 214 246 292 378
#     4  10  21  43  61  87 126 161 202 252 302 356
#     4  11  22  36  57  88 125 158 195 249 303 364
#     4  11  20  37  61  85 120 163 200 248 312 356
#     4  10  22  39  59  87 124 157 199 249 300 358
#
# _framework density 19.94997
#
# number of rings (size 3 to 8) (size 9 to 14) (size 15 to 20)
#    0.000    1.538    2.308    3.692    4.308    4.308 
#    0.000    3.846    0.000    0.000    0.000    0.000 
#    0.000    0.000    0.000    0.000    0.000    0.000 
#
# Total GULP energy -144856.957452 kJ/mol
# GULP energy per Si atom -5571.421440 kJ/mol
# Density = 1.990456 g / cm^3
# Si number density = 19.949970 Si / 1000 Ang^3
#
#
#
# Elastic Constant Matrix: (Units=GPa)
#
#
# Indices 1 2 3 4 5 6 
#
# 1 62.1088 -2.0102 3.1945 0.0000 0.0000 0.0000
# 2 -2.0102 77.8442 -13.0589 0.0000 0.0000 0.0000
# 3 3.1945 -13.0589 38.9855 0.0000 0.0000 0.0000
# 4 0.0000 0.0000 0.0000 -50.5970 0.0000 0.0000
# 5 0.0000 0.0000 0.0000 0.0000 57.5617 0.0000
# 6 0.0000 0.0000 0.0000 0.0000 0.0000 6.6063
#
#
#
# Elastic Compliance Matrix: (Units=1/GPa)
#
#
# Indices 1 2 3 4 5 6 
#
# 1 0.016172 0.000207 -0.001256 0.000000 0.000000 0.000000
# 2 0.000207 0.013614 0.004543 0.000000 0.000000 0.000000
# 3 -0.001256 0.004543 0.027275 0.000000 0.000000 0.000000
# 4 0.000000 0.000000 0.000000 -0.019764 0.000000 0.000000
# 5 0.000000 0.000000 0.000000 0.000000 0.017373 0.000000
# 6 0.000000 0.000000 0.000000 0.000000 0.000000 0.151371
#
#
# Mechanical properties :
#
#
# Convention : Reuss Voigt Hill
#
# Bulk Modulus (GPa) = 15.61290 17.24327 16.42809
# Shear Modulus (GPa) = 22.68586 15.43506 19.06046
#
# Velocity S-wave (km/s) = 3.37581 2.78454 3.09433
# Velocity P-wave (km/s) = 4.79977 4.35893 4.58465
#
# Compressibility (1/GPa) = 0.06404958
#
# Stress axis : x y z
#
# Youngs Moduli (GPa) = 61.83504 73.45560 36.66324
#
# Poissons Ratio (x) = -0.01520 0.04604
# Poissons Ratio (y) = -0.01280 -0.16657
# Poissons Ratio (z) = 0.07765 -0.33372
#
# Static dielectric constant tensor:
#      x y z
#    x 1.750910 0.000000 0.000000 
#    y 0.000000 1.690050 0.000000 
#    z 0.000000 0.000000 1.760320 
# 
# From -- ./inp_files/10142.got.cif
#   From: 2010.05.17/outbox.cif.g08.bks.cpg/sg20_6_cif.got.tgz:10142.got - 2010.06.03 22:52:26.
