data_PCOD9319760
_publ_section_title
;
Structure prediction by ZEFSAII (Michael W. Deem and Ramdas Pophale) SiO2 
 PCOD9319760
Probable space group: C 2 2 21
;
_chemical_formula_sum "Si O2"
_cell_formula_units_Z 40
_cell_length_a 18.201788
_cell_length_b 19.639582
_cell_length_c 5.445152
_cell_angle_alpha 90.000000
_cell_angle_beta 90.000000
_cell_angle_gamma 90.000000
_cell_volume 1946.508477
_symmetry_space_group_name_H-M "C 2 2 21"
_symmetry_group_IT_number 20
_symmetry_cell_setting 'orthorhombic'
loop_
_space_group_symop_operation_xyz
x,y,z
-x,-y,1/2+z
x,-y,-z
-x,y,1/2-z
1/2+x,1/2+y,z
1/2-x,1/2-y,1/2+z
1/2+x,1/2-y,-z
1/2-x,1/2+y,1/2-z
loop_
_atom_site_type_symbol
_atom_site_label
_atom_site_fract_x
_atom_site_fract_y
_atom_site_fract_z
Si Si1 0.177165 0.095409 0.367378
Si Si2 0.031412 0.579788 0.004675
Si Si3 0.266368 0.000000 0.000000
Si Si4 0.321206 0.112678 0.679281
Si Si5 0.295133 0.258059 0.692861
Si Si6 0.452397 0.500000 0.000000
O O1 0.213886 0.037280 0.196623
O O2 0.238586 0.109808 0.574389
O O3 0.170090 0.167412 0.226191
O O4 0.101971 0.064884 0.470123
O O5 0.119068 0.585726 0.009446
O O6 0.000000 0.608772 0.750000
O O7 0.011063 0.500000 0.000000
O O8 0.000000 0.611986 0.250000
O O9 0.318082 0.940400 0.101142
O O10 0.342011 0.190010 0.739024
O O11 0.264654 0.249722 0.414697
O O12 0.500000 0.494798 0.250000
#
# Coordination Sequence:
#
# PCOD9319760 Si02
#       6
#     8   8   4   8   8   4
#     4  11  23  41  66  98 133 173 224 283 343 401
#     4  10  23  38  57  91 130 167 205 261 317 380
#     4  12  19  36  70 103 126 166 228 282 323 396
#     4  11  23  38  68  98 131 171 227 274 332 407
#     4  10  22  39  63  99 135 166 214 283 342 395
#     4  12  27  44  68 103 134 176 230 292 347 406
#
# _framework density 20.549616
#
# number of rings (size 3 to 8) (size 9 to 14) (size 15 to 20)
#    0.000    1.200    4.000    1.800    7.000    0.000 
#    0.000    1.000    0.000    4.800    0.000    0.000 
#    0.000    0.000    0.000    0.000    0.000    0.000 
#
# Total GULP energy -111571.412731 kJ/mol
# GULP energy per Si atom -5578.570637 kJ/mol
# Density = 2.050284 g / cm^3
# Si number density = 20.549616 Si / 1000 Ang^3
#
#
#
# Elastic Constant Matrix: (Units=GPa)
#
#
# Indices 1 2 3 4 5 6 
#
# 1 90.6308 2.8355 42.7627 0.0000 0.0000 0.0000
# 2 2.8355 85.7408 31.2299 0.0000 0.0000 0.0000
# 3 42.7627 31.2299 77.6445 0.0000 0.0000 0.0000
# 4 0.0000 0.0000 0.0000 27.1972 0.0000 0.0000
# 5 0.0000 0.0000 0.0000 0.0000 35.1275 0.0000
# 6 0.0000 0.0000 0.0000 0.0000 0.0000 -64.9833
#
#
#
# Elastic Compliance Matrix: (Units=1/GPa)
#
#
# Indices 1 2 3 4 5 6 
#
# 1 0.015562 0.003055 -0.009799 0.000000 0.000000 0.000000
# 2 0.003055 0.014265 -0.007420 0.000000 0.000000 0.000000
# 3 -0.009799 -0.007420 0.021261 0.000000 0.000000 0.000000
# 4 0.000000 0.000000 0.000000 0.036768 0.000000 0.000000
# 5 0.000000 0.000000 0.000000 0.000000 0.028468 0.000000
# 6 0.000000 0.000000 0.000000 0.000000 0.000000 -0.015389
#
#
# Mechanical properties :
#
#
# Convention : Reuss Voigt Hill
#
# Bulk Modulus (GPa) = 43.94054 45.29696 44.61875
# Shear Modulus (GPa) = 36.53645 11.28081 23.90863
#
# Velocity S-wave (km/s) = 4.22116 2.34552 3.41465
# Velocity P-wave (km/s) = 6.72211 5.42456 6.10789
#
# Compressibility (1/GPa) = 0.02275803
#
# Stress axis : x y z
#
# Youngs Moduli (GPa) = 64.25968 70.10356 47.03547
#
# Poissons Ratio (x) = -0.21414 0.46092
# Poissons Ratio (y) = -0.19629 0.34899
# Poissons Ratio (z) = 0.62970 0.52015
#
# Static dielectric constant tensor:
#      x y z
#    x 1.740020 0.000000 0.000000 
#    y 0.000000 1.779490 0.000000 
#    z 0.000000 0.000000 1.866680 
# 
# From -- ./inp_files/2513.got.cif
#   From: 2010.05.17/outbox.cif.g08.bks.cpg/sg20_2_cif.got.tgz:2513.got - 2010.06.03 22:52:26.
