data_PCOD9319598
_publ_section_title
;
Structure prediction by ZEFSAII (Michael W. Deem and Ramdas Pophale) SiO2 
 PCOD9319598
Probable space group: C 2 2 21
;
_chemical_formula_sum "Si O2"
_cell_formula_units_Z 48
_cell_length_a 14.935357
_cell_length_b 11.846545
_cell_length_c 11.188940
_cell_angle_alpha 90.000000
_cell_angle_beta 90.000000
_cell_angle_gamma 90.000000
_cell_volume 1979.685770
_symmetry_space_group_name_H-M "C 2 2 21"
_symmetry_group_IT_number 20
_symmetry_cell_setting 'orthorhombic'
loop_
_space_group_symop_operation_xyz
x,y,z
-x,-y,1/2+z
x,-y,-z
-x,y,1/2-z
1/2+x,1/2+y,z
1/2-x,1/2-y,1/2+z
1/2+x,1/2-y,-z
1/2-x,1/2+y,1/2-z
loop_
_atom_site_type_symbol
_atom_site_label
_atom_site_fract_x
_atom_site_fract_y
_atom_site_fract_z
Si Si1 0.000000 0.891635 0.250000
Si Si2 0.417261 0.038063 0.321687
Si Si3 0.266420 0.812230 0.789063
Si Si4 0.425290 0.388359 0.659208
Si Si5 0.776035 0.500000 0.500000
Si Si6 0.300545 0.263237 0.945648
Si Si7 0.010890 0.740269 0.464690
O O1 0.954836 0.810582 0.152244
O O2 0.944673 0.978015 0.332945
O O3 0.500000 0.984658 0.250000
O O4 0.352372 0.109974 0.235298
O O5 0.345609 0.964600 0.394943
O O6 0.463059 0.129067 0.412592
O O7 0.171660 0.874822 0.786643
O O8 0.266786 0.773403 0.924915
O O9 0.254730 0.729488 0.673483
O O10 0.500000 0.341614 0.750000
O O11 0.442950 0.319311 0.538701
O O12 0.715251 0.601679 0.455226
O O13 0.403050 0.222587 0.950993
#
# Coordination Sequence:
#
# PCOD9319598 Si02
#       7
#     4   8   8   8   4   8   8
#     4  10  22  34  64 100 132 170 214 274 344 396
#     4  11  23  46  67  94 136 182 232 272 344 412
#     4  11  22  43  67 101 135 181 225 283 338 407
#     4  10  22  34  60 100 136 165 220 279 333 401
#     4  10  26  42  70  98 134 180 236 280 340 418
#     4  11  23  41  73  98 133 177 233 279 344 405
#     4  12  21  42  67  98 134 178 219 279 349 401
#
# _framework density 24.246272999999999
#
# number of rings (size 3 to 8) (size 9 to 14) (size 15 to 20)
#    0.500    0.667    4.167    2.500    7.000    0.000 
#    3.000    0.000    3.667    0.000    0.000    0.000 
#    0.000    0.000    0.000    0.000    0.000    0.000 
#
# Total GULP energy -133820.733940 kJ/mol
# GULP energy per Si atom -5575.863914 kJ/mol
# Density = 2.419109 g / cm^3
# Si number density = 24.246273 Si / 1000 Ang^3
#
#
#
# Elastic Constant Matrix: (Units=GPa)
#
#
# Indices 1 2 3 4 5 6 
#
# 1 102.9217 5.8997 3.2337 0.0000 0.0000 0.0000
# 2 5.8997 23.8040 1.0664 0.0000 0.0000 0.0000
# 3 3.2337 1.0664 105.8716 0.0000 0.0000 0.0000
# 4 0.0000 0.0000 0.0000 18.2431 0.0000 0.0000
# 5 0.0000 0.0000 0.0000 0.0000 53.3325 0.0000
# 6 0.0000 0.0000 0.0000 0.0000 0.0000 -16.0483
#
#
#
# Elastic Compliance Matrix: (Units=1/GPa)
#
#
# Indices 1 2 3 4 5 6 
#
# 1 0.009864 -0.002432 -0.000277 0.000000 0.000000 0.000000
# 2 -0.002432 0.042629 -0.000355 0.000000 0.000000 0.000000
# 3 -0.000277 -0.000355 0.009457 0.000000 0.000000 0.000000
# 4 0.000000 0.000000 0.000000 0.054815 0.000000 0.000000
# 5 0.000000 0.000000 0.000000 0.000000 0.018750 0.000000
# 6 0.000000 0.000000 0.000000 0.000000 0.000000 -0.062312
#
#
# Mechanical properties :
#
#
# Convention : Reuss Voigt Hill
#
# Bulk Modulus (GPa) = 17.91419 28.11077 23.01248
# Shear Modulus (GPa) = 51.05190 25.93195 38.49193
#
# Velocity S-wave (km/s) = 4.59361 3.27390 3.98872
# Velocity P-wave (km/s) = 5.96150 5.09021 5.54300
#
# Compressibility (1/GPa) = 0.05582167
#
# Stress axis : x y z
#
# Youngs Moduli (GPa) = 101.37615 23.45847 105.73694
#
# Poissons Ratio (x) = 0.05706 0.02927
# Poissons Ratio (y) = 0.24659 0.03754
# Poissons Ratio (z) = 0.02806 0.00833
#
# Static dielectric constant tensor:
#      x y z
#    x 1.936800 0.000000 0.000000 
#    y 0.000000 1.904880 0.000000 
#    z 0.000000 0.000000 2.156750 
# 
# From -- ./inp_files/15098.got.cif
#   From: 2010.05.17/outbox.cif.g08.bks.cpg/sg20_8_cif.got.tgz:15098.got - 2010.06.03 22:52:26.
