data_PCOD9319542
_publ_section_title
;
Structure prediction by ZEFSAII (Michael W. Deem and Ramdas Pophale) SiO2 
 PCOD9319542
Probable space group: C 2 2 21
;
_chemical_formula_sum "Si O2"
_cell_formula_units_Z 56
_cell_length_a 18.241036
_cell_length_b 24.053036
_cell_length_c 5.084522
_cell_angle_alpha 90.000000
_cell_angle_beta 90.000000
_cell_angle_gamma 90.000000
_cell_volume 2230.845699
_symmetry_space_group_name_H-M "C 2 2 21"
_symmetry_group_IT_number 20
_symmetry_cell_setting 'orthorhombic'
loop_
_space_group_symop_operation_xyz
x,y,z
-x,-y,1/2+z
x,-y,-z
-x,y,1/2-z
1/2+x,1/2+y,z
1/2-x,1/2-y,1/2+z
1/2+x,1/2-y,-z
1/2-x,1/2+y,1/2-z
loop_
_atom_site_type_symbol
_atom_site_label
_atom_site_fract_x
_atom_site_fract_y
_atom_site_fract_z
Si Si1 0.139243 0.247223 0.496324
Si Si2 0.000000 0.794250 0.250000
Si Si3 0.416717 0.040205 0.249129
Si Si4 0.233749 0.404980 0.770214
Si Si5 0.251637 0.830176 0.215141
Si Si6 0.915750 0.151704 0.332236
Si Si7 0.184222 0.000000 0.000000
Si Si8 0.577530 0.439486 0.382954
O O1 0.056581 0.247786 0.605798
O O2 0.199081 0.220929 0.698191
O O3 0.171720 0.302431 0.369288
O O4 0.132473 0.202009 0.267123
O O5 0.933715 0.836166 0.360297
O O6 0.500000 0.062376 0.250000
O O7 0.353231 0.085771 0.240957
O O8 0.406671 0.000000 0.500000
O O9 0.408846 0.000000 0.000000
O O10 0.267862 0.466008 0.712828
O O11 0.245220 0.373872 0.045379
O O12 0.402595 0.400508 0.865402
O O13 0.232178 0.866635 0.959678
O O14 0.000000 0.165421 0.250000
O O15 0.136162 0.953809 0.155465
O O16 0.565451 0.500000 0.500000
O O17 0.500000 0.427341 0.250000
#
# Coordination Sequence:
#
# PCOD9319542 Si02
#       8
#     8   4   8   8   8   8   4   8
#     4  11  27  52  79 116 153 215 268 342 405 500
#     4  10  26  50  86 114 156 214 278 340 408 514
#     4  10  21  44  78 108 150 201 249 306 391 485
#     4  12  28  49  77 122 156 209 259 338 403 493
#     4  12  29  49  85 111 162 203 272 332 417 479
#     4  10  25  45  77 109 152 208 268 324 405 485
#     4  12  30  46  78 112 172 218 274 344 404 494
#     4  12  27  46  72 114 164 220 277 340 399 473
#
# _framework density 25.102589999999999
#
# number of rings (size 3 to 8) (size 9 to 14) (size 15 to 20)
#    0.000    0.857    1.429    3.000   14.000    1.143 
#    1.286    0.000    0.000    0.000    0.000    0.000 
#    0.000    0.000    0.000    0.000    0.000    0.000 
#
# Total GULP energy -156315.191837 kJ/mol
# GULP energy per Si atom -5582.685423 kJ/mol
# Density = 2.504546 g / cm^3
# Si number density = 25.102590 Si / 1000 Ang^3
#
#
#
# Elastic Constant Matrix: (Units=GPa)
#
#
# Indices 1 2 3 4 5 6 
#
# 1 115.2134 48.2741 48.3577 0.0000 0.0000 0.0000
# 2 48.2741 108.9737 58.4130 0.0000 0.0000 0.0000
# 3 48.3577 58.4130 167.6145 0.0000 0.0000 0.0000
# 4 0.0000 0.0000 0.0000 38.9268 0.0000 0.0000
# 5 0.0000 0.0000 0.0000 0.0000 49.4948 0.0000
# 6 0.0000 0.0000 0.0000 0.0000 0.0000 73.1150
#
#
#
# Elastic Compliance Matrix: (Units=1/GPa)
#
#
# Indices 1 2 3 4 5 6 
#
# 1 0.011096 -0.003934 -0.001830 0.000000 0.000000 0.000000
# 2 -0.003934 0.012680 -0.003284 0.000000 0.000000 0.000000
# 3 -0.001830 -0.003284 0.007638 0.000000 0.000000 0.000000
# 4 0.000000 0.000000 0.000000 0.025689 0.000000 0.000000
# 5 0.000000 0.000000 0.000000 0.000000 0.020204 0.000000
# 6 0.000000 0.000000 0.000000 0.000000 0.000000 0.013677
#
#
# Mechanical properties :
#
#
# Convention : Reuss Voigt Hill
#
# Bulk Modulus (GPa) = 75.08848 77.98790 76.53819
# Shear Modulus (GPa) = 44.04485 48.09110 46.06797
#
# Velocity S-wave (km/s) = 4.19333 4.38171 4.28856
# Velocity P-wave (km/s) = 7.30910 7.53222 7.42150
#
# Compressibility (1/GPa) = 0.01331762
#
# Stress axis : x y z
#
# Youngs Moduli (GPa) = 90.12050 78.86679 130.91688
#
# Poissons Ratio (x) = 0.31030 0.23960
# Poissons Ratio (y) = 0.35458 0.42989
# Poissons Ratio (z) = 0.16494 0.25897
#
# Static dielectric constant tensor:
#      x y z
#    x 1.890370 0.000000 0.000000 
#    y 0.000000 1.980570 0.000000 
#    z 0.000000 0.000000 0.854960 
# 
# From -- ./inp_files/2287.got.cif
#   From: 2010.05.17/outbox.cif.g08.bks.cpg/sg20_2_cif.got.tgz:2287.got - 2010.06.03 22:52:26.
