data_PCOD9319761
_publ_section_title
;
Structure prediction by ZEFSAII (Michael W. Deem and Ramdas Pophale) SiO2 
 PCOD9319761
Probable space group: C 2 2 21
;
_chemical_formula_sum "Si O2"
_cell_formula_units_Z 60
_cell_length_a 23.039551
_cell_length_b 14.260427
_cell_length_c 9.422183
_cell_angle_alpha 90.000000
_cell_angle_beta 90.000000
_cell_angle_gamma 90.000000
_cell_volume 3095.694360
_symmetry_space_group_name_H-M "C 2 2 21"
_symmetry_group_IT_number 20
_symmetry_cell_setting 'orthorhombic'
loop_
_space_group_symop_operation_xyz
x,y,z
-x,-y,1/2+z
x,-y,-z
-x,y,1/2-z
1/2+x,1/2+y,z
1/2-x,1/2-y,1/2+z
1/2+x,1/2-y,-z
1/2-x,1/2+y,1/2-z
loop_
_atom_site_type_symbol
_atom_site_label
_atom_site_fract_x
_atom_site_fract_y
_atom_site_fract_z
Si Si1 0.499429 0.200638 0.419847
Si Si2 0.879737 0.728006 0.562400
Si Si3 0.201312 0.748891 0.197926
Si Si4 0.679530 0.636459 0.279046
Si Si5 0.627813 0.250301 0.481699
Si Si6 0.262284 0.535562 0.661883
Si Si7 0.134738 0.578900 0.696173
Si Si8 0.459123 0.000000 0.000000
O O1 0.500000 0.202469 0.250000
O O2 0.441067 0.242213 0.485760
O O3 0.558427 0.250235 0.471345
O O4 0.504689 0.093285 0.473462
O O5 0.830787 0.714125 0.443273
O O6 0.861221 0.815835 0.660113
O O7 0.881836 0.637929 0.665493
O O8 0.258936 0.690430 0.230363
O O9 0.157635 0.743291 0.329755
O O10 0.219983 0.856395 0.173534
O O11 0.652311 0.662347 0.430219
O O12 0.694038 0.529262 0.249892
O O13 0.644077 0.157649 0.573216
O O14 0.264098 0.500000 0.500000
O O15 0.195668 0.526567 0.714018
O O16 0.083344 0.514922 0.635501
#
# Coordination Sequence:
#
# PCOD9319761 Si02
#       8
#     8   8   8   8   8   8   8   4
#     4  11  24  42  65  90 127 181 214 270 329 382
#     4  11  23  42  65  93 127 175 224 261 321 403
#     4  12  22  42  65  95 140 164 222 277 329 393
#     4  11  24  39  65  97 128 174 214 266 335 394
#     4  10  22  42  63  91 133 172 212 270 326 390
#     4  12  22  38  68  97 133 176 214 267 342 396
#     4  10  22  39  64  95 135 179 209 261 329 403
#     4  10  24  38  60  94 140 164 220 264 322 392
#
# _framework density 19.381758999999999
#
# number of rings (size 3 to 8) (size 9 to 14) (size 15 to 20)
#    0.000    1.067    6.000    1.600    3.733    4.800 
#    0.000    0.000    0.000    4.800    0.000    0.000 
#    0.000    0.000    0.000    0.000    0.000    0.000 
#
# Total GULP energy -167775.767024 kJ/mol
# GULP energy per Si atom -5592.525567 kJ/mol
# Density = 1.933765 g / cm^3
# Si number density = 19.381759 Si / 1000 Ang^3
#
#
#
# Elastic Constant Matrix: (Units=GPa)
#
#
# Indices 1 2 3 4 5 6 
#
# 1 90.8473 24.6876 17.4149 0.0000 0.0000 0.0000
# 2 24.6876 44.7258 8.1494 0.0000 0.0000 0.0000
# 3 17.4149 8.1494 85.1749 0.0000 0.0000 0.0000
# 4 0.0000 0.0000 0.0000 23.4645 0.0000 0.0000
# 5 0.0000 0.0000 0.0000 0.0000 44.6430 0.0000
# 6 0.0000 0.0000 0.0000 0.0000 0.0000 22.7445
#
#
#
# Elastic Compliance Matrix: (Units=1/GPa)
#
#
# Indices 1 2 3 4 5 6 
#
# 1 0.013293 -0.006964 -0.002052 0.000000 0.000000 0.000000
# 2 -0.006964 0.026403 -0.001102 0.000000 0.000000 0.000000
# 3 -0.002052 -0.001102 0.012266 0.000000 0.000000 0.000000
# 4 0.000000 0.000000 0.000000 0.042618 0.000000 0.000000
# 5 0.000000 0.000000 0.000000 0.000000 0.022400 0.000000
# 6 0.000000 0.000000 0.000000 0.000000 0.000000 0.043967
#
#
# Mechanical properties :
#
#
# Convention : Reuss Voigt Hill
#
# Bulk Modulus (GPa) = 31.51960 35.69464 33.60712
# Shear Modulus (GPa) = 26.07470 29.53682 27.80576
#
# Velocity S-wave (km/s) = 3.67184 3.90801 3.79177
# Velocity P-wave (km/s) = 5.85443 6.23057 6.04543
#
# Compressibility (1/GPa) = 0.03172629
#
# Stress axis : x y z
#
# Youngs Moduli (GPa) = 75.22685 37.87439 81.52943
#
# Poissons Ratio (x) = 0.26374 0.16727
# Poissons Ratio (y) = 0.52385 0.08988
# Poissons Ratio (z) = 0.15434 0.04175
#
# Static dielectric constant tensor:
#      x y z
#    x 1.664700 0.000000 0.000000 
#    y 0.000000 1.666580 0.000000 
#    z 0.000000 0.000000 1.679050 
# 
# From -- ./inp_files/10760.got.cif
#   From: 2010.05.17/outbox.cif.g08.bks.cpg/sg20_6_cif.got.tgz:10760.got - 2010.06.03 22:52:26.
