data_PCOD9319400
_publ_section_title
;
Structure prediction by ZEFSAII (Michael W. Deem and Ramdas Pophale) SiO2 
 PCOD9319400
Probable space group: C 2 2 21
;
_chemical_formula_sum "Si O2"
_cell_formula_units_Z 48
_cell_length_a 12.161477
_cell_length_b 17.488071
_cell_length_c 10.430993
_cell_angle_alpha 90.000000
_cell_angle_beta 90.000000
_cell_angle_gamma 90.000000
_cell_volume 2218.471657
_symmetry_space_group_name_H-M "C 2 2 21"
_symmetry_group_IT_number 20
_symmetry_cell_setting 'orthorhombic'
loop_
_space_group_symop_operation_xyz
x,y,z
-x,-y,1/2+z
x,-y,-z
-x,y,1/2-z
1/2+x,1/2+y,z
1/2-x,1/2-y,1/2+z
1/2+x,1/2-y,-z
1/2-x,1/2+y,1/2-z
loop_
_atom_site_type_symbol
_atom_site_label
_atom_site_fract_x
_atom_site_fract_y
_atom_site_fract_z
Si Si1 0.125879 0.800796 0.207981
Si Si2 0.955121 0.838406 0.892201
Si Si3 0.960268 0.311334 0.501061
Si Si4 0.842351 0.911550 0.477054
Si Si5 0.664931 0.150571 0.329224
Si Si6 0.280335 0.085638 0.445287
O O1 0.114585 0.747704 0.082267
O O2 0.183734 0.741266 0.301271
O O3 0.000000 0.813344 0.250000
O O4 0.179827 0.879463 0.165567
O O5 0.834128 0.867818 0.928674
O O6 0.000000 0.857369 0.750000
O O7 0.035830 0.883950 0.986999
O O8 0.972502 0.746878 0.910643
O O9 0.871503 0.374574 0.461994
O O10 0.048450 0.349498 0.597643
O O11 0.758052 0.874694 0.574859
O O12 0.834352 0.000000 0.500000
O O13 0.671193 0.098713 0.200495
O O14 0.262083 0.000000 0.500000
#
# Coordination Sequence:
#
# PCOD9319400 Si02
#       6
#     8   8   8   8   8   8
#     4   8  18  40  62  86 115 176 222 256 330 417
#     4  11  23  41  68  98 137 175 229 288 342 425
#     4   9  22  41  70  94 128 179 233 283 341 415
#     4  11  23  38  59  96 137 166 215 285 352 399
#     4  10  21  42  65  94 133 177 229 285 344 422
#     4  11  23  43  69  97 136 186 226 283 360 426
#
# _framework density 21.636516
#
# number of rings (size 3 to 8) (size 9 to 14) (size 15 to 20)
#    0.000    2.000    1.667    2.000    7.000    1.333 
#    9.000    3.333    0.000    0.000    0.000    0.000 
#    0.000    0.000    0.000    0.000    0.000    0.000 
#
# Total GULP energy -133714.315071 kJ/mol
# GULP energy per Si atom -5571.429795 kJ/mol
# Density = 2.158727 g / cm^3
# Si number density = 21.636516 Si / 1000 Ang^3
#
#
#
# Elastic Constant Matrix: (Units=GPa)
#
#
# Indices 1 2 3 4 5 6 
#
# 1 123.8422 80.8601 29.4170 0.0000 0.0000 0.0000
# 2 80.8601 143.9941 57.7272 0.0000 0.0000 0.0000
# 3 29.4170 57.7272 52.7341 0.0000 0.0000 0.0000
# 4 0.0000 0.0000 0.0000 27.7040 0.0000 0.0000
# 5 0.0000 0.0000 0.0000 0.0000 18.4167 0.0000
# 6 0.0000 0.0000 0.0000 0.0000 0.0000 -4.4569
#
#
#
# Elastic Compliance Matrix: (Units=1/GPa)
#
#
# Indices 1 2 3 4 5 6 
#
# 1 0.012799 -0.007707 0.001297 0.000000 0.000000 0.000000
# 2 -0.007707 0.017017 -0.014329 0.000000 0.000000 0.000000
# 3 0.001297 -0.014329 0.033925 0.000000 0.000000 0.000000
# 4 0.000000 0.000000 0.000000 0.036096 0.000000 0.000000
# 5 0.000000 0.000000 0.000000 0.000000 0.054299 0.000000
# 6 0.000000 0.000000 0.000000 0.000000 0.000000 -0.224371
#
#
# Mechanical properties :
#
#
# Convention : Reuss Voigt Hill
#
# Bulk Modulus (GPa) = 44.91698 72.95322 58.93510
# Shear Modulus (GPa) = -234.35115 18.50383 -107.92366
#
# Velocity S-wave (km/s) = -10.41863 2.92758 -7.07026
# Velocity P-wave (km/s) = 11.13219 6.72447 6.27325
#
# Compressibility (1/GPa) = 0.02226330
#
# Stress axis : x y z
#
# Youngs Moduli (GPa) = 78.13105 58.76318 29.47658
#
# Poissons Ratio (x) = 0.45292 -0.03825
# Poissons Ratio (y) = 0.60219 0.42238
# Poissons Ratio (z) = -0.10137 0.84203
#
# Static dielectric constant tensor:
#      x y z
#    x 1.908490 0.000000 0.000000 
#    y 0.000000 1.857290 0.000000 
#    z 0.000000 0.000000 1.946550 
# 
# From -- ./inp_files/14148.got.cif
#   From: 2010.05.17/outbox.cif.g08.bks.cpg/sg20_8_cif.got.tgz:14148.got - 2010.06.03 22:52:26.
