data_PCOD9319607
_publ_section_title
;
Structure prediction by ZEFSAII (Michael W. Deem and Ramdas Pophale) SiO2 
 PCOD9319607
Probable space group: C 2 2 21
;
_chemical_formula_sum "Si O2"
_cell_formula_units_Z 56
_cell_length_a 14.670730
_cell_length_b 30.798934
_cell_length_c 6.162995
_cell_angle_alpha 90.000000
_cell_angle_beta 90.000000
_cell_angle_gamma 90.000000
_cell_volume 2784.705195
_symmetry_space_group_name_H-M "C 2 2 21"
_symmetry_group_IT_number 20
_symmetry_cell_setting 'orthorhombic'
loop_
_space_group_symop_operation_xyz
x,y,z
-x,-y,1/2+z
x,-y,-z
-x,y,1/2-z
1/2+x,1/2+y,z
1/2-x,1/2-y,1/2+z
1/2+x,1/2-y,-z
1/2-x,1/2+y,1/2-z
loop_
_atom_site_type_symbol
_atom_site_label
_atom_site_fract_x
_atom_site_fract_y
_atom_site_fract_z
Si Si1 0.000000 0.681367 0.250000
Si Si2 0.685694 0.047540 0.527951
Si Si3 0.386913 0.747199 0.888026
Si Si4 0.205961 0.798025 0.017164
Si Si5 0.500000 0.938352 0.250000
Si Si6 0.779906 0.881088 0.195211
Si Si7 0.907095 0.159273 0.133940
Si Si8 0.615152 0.897144 0.877081
O O1 0.040717 0.714644 0.423160
O O2 0.083117 0.649475 0.205233
O O3 0.594890 0.039528 0.678287
O O4 0.759447 0.080610 0.632078
O O5 0.645198 0.069822 0.311005
O O6 0.726934 0.000000 0.500000
O O7 0.369117 0.731568 0.639740
O O8 0.289472 0.766623 0.959559
O O9 0.420076 0.704632 0.009751
O O10 0.235154 0.834915 0.188704
O O11 0.166150 0.826016 0.817125
O O12 0.466804 0.912597 0.464292
O O13 0.869688 0.874500 0.046450
O O14 0.701354 0.889810 0.024594
O O15 0.000000 0.145104 0.250000
#
# Coordination Sequence:
#
# PCOD9319607 Si02
#       8
#     4   8   8   8   4   8   8   8
#     4  12  22  35  58  84 126 170 224 256 299 370
#     4  11  23  40  64  93 134 172 221 270 324 404
#     4  11  23  35  56  86 120 176 219 272 319 375
#     4  11  22  41  58  86 126 167 218 274 331 382
#     4  10  22  35  56  88 128 182 218 258 319 370
#     4  10  24  40  64  87 127 172 211 274 341 391
#     4  11  23  41  62  88 130 167 231 277 335 392
#     4  11  23  41  57  93 132 177 216 269 318 384
#
# _framework density 20.109850000000002
#
# number of rings (size 3 to 8) (size 9 to 14) (size 15 to 20)
#    0.000    1.143    2.857    3.429    6.000    4.571 
#    0.000    0.000    0.000    0.000    0.000    0.000 
#   60.000    0.000    0.000    0.000    0.000    0.000 
#
# Total GULP energy -156069.489391 kJ/mol
# GULP energy per Si atom -5573.910335 kJ/mol
# Density = 2.006408 g / cm^3
# Si number density = 20.109850 Si / 1000 Ang^3
#
#
#
# Elastic Constant Matrix: (Units=GPa)
#
#
# Indices 1 2 3 4 5 6 
#
# 1 70.2934 39.7283 28.9102 0.0000 0.0000 0.0000
# 2 39.7283 118.7996 44.5502 0.0000 0.0000 0.0000
# 3 28.9102 44.5502 84.6460 0.0000 0.0000 0.0000
# 4 0.0000 0.0000 0.0000 -1.9933 0.0000 0.0000
# 5 0.0000 0.0000 0.0000 0.0000 31.4625 0.0000
# 6 0.0000 0.0000 0.0000 0.0000 0.0000 23.0801
#
#
#
# Elastic Compliance Matrix: (Units=1/GPa)
#
#
# Indices 1 2 3 4 5 6 
#
# 1 0.018478 -0.004750 -0.003811 0.000000 0.000000 0.000000
# 2 -0.004750 0.011709 -0.004540 0.000000 0.000000 0.000000
# 3 -0.003811 -0.004540 0.015505 0.000000 0.000000 0.000000
# 4 0.000000 0.000000 0.000000 -0.501683 0.000000 0.000000
# 5 0.000000 0.000000 0.000000 0.000000 0.031784 0.000000
# 6 0.000000 0.000000 0.000000 0.000000 0.000000 0.043327
#
#
# Mechanical properties :
#
#
# Convention : Reuss Voigt Hill
#
# Bulk Modulus (GPa) = 51.31001 55.56847 53.43924
# Shear Modulus (GPa) = -14.36034 21.21321 3.42644
#
# Velocity S-wave (km/s) = -2.67515 3.25139 1.30674
# Velocity P-wave (km/s) = 4.00354 6.46435 5.37663
#
# Compressibility (1/GPa) = 0.01948938
#
# Stress axis : x y z
#
# Youngs Moduli (GPa) = 54.11786 85.40737 64.49555
#
# Poissons Ratio (x) = 0.40571 0.24579
# Poissons Ratio (y) = 0.25707 0.29281
# Poissons Ratio (z) = 0.20624 0.38775
#
# Static dielectric constant tensor:
#      x y z
#    x 1.751480 0.000000 0.000000 
#    y 0.000000 1.715280 0.000000 
#    z 0.000000 0.000000 1.801990 
# 
# From -- ./inp_files/2252.got.cif
#   From: 2010.05.17/outbox.cif.g08.bks.cpg/sg20_2_cif.got.tgz:2252.got - 2010.06.03 22:52:26.
