data_PCOD9319138
_publ_section_title
;
Structure prediction by ZEFSAII (Michael W. Deem and Ramdas Pophale) SiO2 
 PCOD9319138
Probable space group: C 2 2 21
;
_chemical_formula_sum "Si O2"
_cell_formula_units_Z 36
_cell_length_a 16.823354
_cell_length_b 14.665171
_cell_length_c 5.539706
_cell_angle_alpha 90.000000
_cell_angle_beta 90.000000
_cell_angle_gamma 90.000000
_cell_volume 1366.741657
_symmetry_space_group_name_H-M "C 2 2 21"
_symmetry_group_IT_number 20
_symmetry_cell_setting 'orthorhombic'
loop_
_space_group_symop_operation_xyz
x,y,z
-x,-y,1/2+z
x,-y,-z
-x,y,1/2-z
1/2+x,1/2+y,z
1/2-x,1/2-y,1/2+z
1/2+x,1/2-y,-z
1/2-x,1/2+y,1/2-z
loop_
_atom_site_type_symbol
_atom_site_label
_atom_site_fract_x
_atom_site_fract_y
_atom_site_fract_z
Si Si1 0.741516 0.302823 0.289363
Si Si2 0.084871 0.598562 0.120371
Si Si3 0.000000 0.057176 0.250000
Si Si4 0.424247 0.693623 0.574291
Si Si5 0.238510 0.503190 0.747986
O O1 0.739598 0.260091 0.556581
O O2 0.651889 0.332774 0.229980
O O3 0.794643 0.393949 0.270094
O O4 0.088483 0.700011 0.005319
O O5 0.167837 0.572424 0.261622
O O6 0.000000 0.607624 0.250000
O O7 0.074634 0.500000 0.000000
O O8 0.932998 0.128538 0.343566
O O9 0.015546 0.000000 0.500000
O O10 0.500000 0.686363 0.750000
O O11 0.284207 0.500000 0.500000
O O12 0.283609 0.500000 0.000000
#
# Coordination Sequence:
#
# PCOD9319138 Si02
#       5
#     8   8   4   8   8
#     4  12  27  48  78 114 163 218 272 336 406 494
#     4  10  21  39  71 115 155 206 251 327 409 496
#     4  12  28  56  84 116 160 212 284 360 416 484
#     4  11  27  51  81 121 167 218 283 347 418 502
#     4  11  23  45  67 104 152 199 257 319 397 479
#
# _framework density 26.340018000000001
#
# number of rings (size 3 to 8) (size 9 to 14) (size 15 to 20)
#    0.000    0.889    1.111    6.000    4.667    2.667 
#    8.000    0.000    0.000    0.000    0.000    0.000 
#    0.000    0.000    0.000    0.000    0.000    0.000 
#
# Total GULP energy -100300.652794 kJ/mol
# GULP energy per Si atom -5572.258489 kJ/mol
# Density = 2.628007 g / cm^3
# Si number density = 26.340018 Si / 1000 Ang^3
#
#
#
# Elastic Constant Matrix: (Units=GPa)
#
#
# Indices 1 2 3 4 5 6 
#
# 1 95.3309 30.1093 22.2847 0.0000 0.0000 0.0000
# 2 30.1093 234.1707 81.8133 0.0000 0.0000 0.0000
# 3 22.2847 81.8133 196.9333 0.0000 0.0000 0.0000
# 4 0.0000 0.0000 0.0000 46.9261 0.0000 0.0000
# 5 0.0000 0.0000 0.0000 0.0000 31.8246 0.0000
# 6 0.0000 0.0000 0.0000 0.0000 0.0000 40.7378
#
#
#
# Elastic Compliance Matrix: (Units=1/GPa)
#
#
# Indices 1 2 3 4 5 6 
#
# 1 0.011033 -0.001149 -0.000771 0.000000 0.000000 0.000000
# 2 -0.001149 0.005115 -0.001995 0.000000 0.000000 0.000000
# 3 -0.000771 -0.001995 0.005994 0.000000 0.000000 0.000000
# 4 0.000000 0.000000 0.000000 0.021310 0.000000 0.000000
# 5 0.000000 0.000000 0.000000 0.000000 0.031422 0.000000
# 6 0.000000 0.000000 0.000000 0.000000 0.000000 0.024547
#
#
# Mechanical properties :
#
#
# Convention : Reuss Voigt Hill
#
# Bulk Modulus (GPa) = 69.87367 88.31662 79.09514
# Shear Modulus (GPa) = 44.63386 50.04621 47.34004
#
# Velocity S-wave (km/s) = 4.12093 4.36364 4.24402
# Velocity P-wave (km/s) = 7.01626 7.68054 7.35590
#
# Compressibility (1/GPa) = 0.01431154
#
# Stress axis : x y z
#
# Youngs Moduli (GPa) = 90.63731 195.49777 166.83639
#
# Poissons Ratio (x) = 0.22467 0.12864
# Poissons Ratio (y) = 0.10416 0.33283
# Poissons Ratio (z) = 0.06989 0.39001
#
# Static dielectric constant tensor:
#      x y z
#    x 2.273660 0.000000 0.000000 
#    y 0.000000 2.163630 0.000000 
#    z 0.000000 0.000000 2.184820 
# 
# From -- ./inp_files/3067.got.cif
#   From: 2010.05.17/outbox.cif.g08.bks.cpg/sg20_2_cif.got.tgz:3067.got - 2010.06.03 22:52:26.
