data_PCOD9319228
_publ_section_title
;
Structure prediction by ZEFSAII (Michael W. Deem and Ramdas Pophale) SiO2 
 PCOD9319228
Probable space group: C 2 2 21
;
_chemical_formula_sum "Si O2"
_cell_formula_units_Z 64
_cell_length_a 14.377084
_cell_length_b 11.675140
_cell_length_c 19.209797
_cell_angle_alpha 90.000000
_cell_angle_beta 90.000000
_cell_angle_gamma 90.000000
_cell_volume 3224.450265
_symmetry_space_group_name_H-M "C 2 2 21"
_symmetry_group_IT_number 20
_symmetry_cell_setting 'orthorhombic'
loop_
_space_group_symop_operation_xyz
x,y,z
-x,-y,1/2+z
x,-y,-z
-x,y,1/2-z
1/2+x,1/2+y,z
1/2-x,1/2-y,1/2+z
1/2+x,1/2-y,-z
1/2-x,1/2+y,1/2-z
loop_
_atom_site_type_symbol
_atom_site_label
_atom_site_fract_x
_atom_site_fract_y
_atom_site_fract_z
Si Si1 0.574947 0.452322 0.649927
Si Si2 0.127131 0.081584 0.189013
Si Si3 0.318315 0.730571 0.063101
Si Si4 0.272242 0.283746 0.179528
Si Si5 0.297932 0.113714 0.548362
Si Si6 0.990765 0.635566 0.985433
Si Si7 0.329307 0.667543 0.667252
Si Si8 0.469793 0.283607 0.125501
O O1 0.475225 0.391509 0.660230
O O2 0.616406 0.450395 0.728568
O O3 0.637746 0.383030 0.596772
O O4 0.553174 0.579981 0.622300
O O5 0.197365 0.183400 0.176503
O O6 0.160035 0.966332 0.151223
O O7 0.402545 0.820365 0.058194
O O8 0.234506 0.771610 0.111244
O O9 0.271429 0.702896 0.989199
O O10 0.238392 0.384728 0.127515
O O11 0.280944 0.322697 0.258503
O O12 0.374768 0.238257 0.159097
O O13 0.406217 0.149446 0.546912
O O14 0.292787 0.000000 0.500000
O O15 0.980177 0.500000 0.000000
O O16 0.988002 0.715304 0.054485
O O17 0.433587 0.719788 0.668159
#
# Coordination Sequence:
#
# PCOD9319228 Si02
#       8
#     8   8   8   8   8   8   8   8
#     4  10  21  40  66  96 128 166 217 282 330 385
#     4  10  22  39  63  96 133 165 214 282 334 391
#     4  12  23  41  67  96 127 172 223 271 330 404
#     4  12  22  41  69  96 131 175 222 277 345 398
#     4  11  25  43  67  94 132 176 226 273 333 409
#     4  11  26  45  62  94 142 177 216 272 335 408
#     4  11  24  41  66  98 132 170 226 278 337 408
#     4  11  22  43  66  93 133 175 219 274 338 397
#
# _framework density 19.848344999999998
#
# number of rings (size 3 to 8) (size 9 to 14) (size 15 to 20)
#    0.000    1.000    5.000    1.875    1.750    0.000 
#    0.000    0.000    0.000    0.000    0.000    0.000 
#    0.000    0.000    0.000    0.000    0.000    0.000 
#
# Total GULP energy -178652.232492 kJ/mol
# GULP energy per Si atom -5582.882265 kJ/mol
# Density = 1.980317 g / cm^3
# Si number density = 19.848345 Si / 1000 Ang^3
#
#
#
# Elastic Constant Matrix: (Units=GPa)
#
#
# Indices 1 2 3 4 5 6 
#
# 1 121.6146 53.8761 1.5065 0.0000 0.0000 0.0000
# 2 53.8761 72.9370 23.1814 0.0000 0.0000 0.0000
# 3 1.5065 23.1814 40.1492 0.0000 0.0000 0.0000
# 4 0.0000 0.0000 0.0000 27.5125 0.0000 0.0000
# 5 0.0000 0.0000 0.0000 0.0000 30.9250 0.0000
# 6 0.0000 0.0000 0.0000 0.0000 0.0000 42.3910
#
#
#
# Elastic Compliance Matrix: (Units=1/GPa)
#
#
# Indices 1 2 3 4 5 6 
#
# 1 0.013445 -0.011967 0.006405 0.000000 0.000000 0.000000
# 2 -0.011967 0.027443 -0.015396 0.000000 0.000000 0.000000
# 3 0.006405 -0.015396 0.033556 0.000000 0.000000 0.000000
# 4 0.000000 0.000000 0.000000 0.036347 0.000000 0.000000
# 5 0.000000 0.000000 0.000000 0.000000 0.032336 0.000000
# 6 0.000000 0.000000 0.000000 0.000000 0.000000 0.023590
#
#
# Mechanical properties :
#
#
# Convention : Reuss Voigt Hill
#
# Bulk Modulus (GPa) = 30.74265 43.53655 37.13960
# Shear Modulus (GPa) = 22.78142 30.57480 26.67811
#
# Velocity S-wave (km/s) = 3.39156 3.92908 3.67017
# Velocity P-wave (km/s) = 5.55511 6.52424 6.05909
#
# Compressibility (1/GPa) = 0.03252810
#
# Stress axis : x y z
#
# Youngs Moduli (GPa) = 74.37835 36.43864 29.80061
#
# Poissons Ratio (x) = 0.43606 -0.19087
# Poissons Ratio (y) = 0.89008 0.45882
# Poissons Ratio (z) = -0.47639 0.56102
#
# Static dielectric constant tensor:
#      x y z
#    x 1.703380 0.000000 0.000000 
#    y 0.000000 1.694560 0.000000 
#    z 0.000000 0.000000 1.694740 
# 
# From -- ./inp_files/24992.got.cif
#   From: 2010.05.17/outbox.cif.g08.bks.cpg/sg20_13_cif.got.tgz:24992.got - 2010.06.03 22:52:26.
