data_PCOD9319265
_publ_section_title
;
Structure prediction by ZEFSAII (Michael W. Deem and Ramdas Pophale) SiO2 
 PCOD9319265
Probable space group: C 2 2 21
;
_chemical_formula_sum "Si O2"
_cell_formula_units_Z 48
_cell_length_a 24.340199
_cell_length_b 8.992851
_cell_length_c 10.807074
_cell_angle_alpha 90.000000
_cell_angle_beta 90.000000
_cell_angle_gamma 90.000000
_cell_volume 2365.536468
_symmetry_space_group_name_H-M "C 2 2 21"
_symmetry_group_IT_number 20
_symmetry_cell_setting 'orthorhombic'
loop_
_space_group_symop_operation_xyz
x,y,z
-x,-y,1/2+z
x,-y,-z
-x,y,1/2-z
1/2+x,1/2+y,z
1/2-x,1/2-y,1/2+z
1/2+x,1/2-y,-z
1/2-x,1/2+y,1/2-z
loop_
_atom_site_type_symbol
_atom_site_label
_atom_site_fract_x
_atom_site_fract_y
_atom_site_fract_z
Si Si1 0.778531 0.790418 0.712179
Si Si2 0.585661 0.000000 0.500000
Si Si3 0.617868 0.527158 0.232157
Si Si4 0.037096 0.000000 0.000000
Si Si5 0.156731 0.281609 0.663328
Si Si6 0.963529 0.232451 0.127977
Si Si7 0.200500 0.534884 0.141220
O O1 0.722050 0.790460 0.632661
O O2 0.794979 0.618624 0.717441
O O3 0.755758 0.868132 0.837052
O O4 0.829547 0.890159 0.671487
O O5 0.622350 0.877212 0.568645
O O6 0.549676 0.899331 0.409925
O O7 0.637119 0.383874 0.309256
O O8 0.590247 0.641258 0.328944
O O9 0.575105 0.486713 0.122573
O O10 0.997178 0.859171 0.975814
O O11 0.154057 0.365682 0.795971
O O12 0.000000 0.233029 0.250000
O O13 0.191245 0.500000 0.000000
#
# Coordination Sequence:
#
# PCOD9319265 Si02
#       7
#     8   4   8   4   8   8   8
#     4  10  21  41  58 102 132 176 215 254 323 403
#     4  12  24  43  72  90 138 173 208 286 342 396
#     4  11  22  42  69  93 131 174 222 264 344 388
#     4  10  24  43  68  92 122 169 220 294 322 390
#     4  10  23  40  59 108 126 177 214 254 331 408
#     4  10  24  44  64  96 123 168 231 280 332 394
#     4  10  22  40  61  91 146 169 220 264 311 385
#
# _framework density 20.29138
#
# number of rings (size 3 to 8) (size 9 to 14) (size 15 to 20)
#    1.000    0.667    1.667    2.000    2.333    4.667 
#    1.500    0.000    0.000    0.000    0.000    0.000 
#    0.000    0.000    0.000    0.000    0.000    0.000 
#
# Total GULP energy -133787.287412 kJ/mol
# GULP energy per Si atom -5574.470309 kJ/mol
# Density = 2.024520 g / cm^3
# Si number density = 20.291380 Si / 1000 Ang^3
#
#
#
# Elastic Constant Matrix: (Units=GPa)
#
#
# Indices 1 2 3 4 5 6 
#
# 1 68.0980 35.9691 7.5085 0.0000 0.0000 0.0000
# 2 35.9691 148.4531 22.7010 0.0000 0.0000 0.0000
# 3 7.5085 22.7010 42.6043 0.0000 0.0000 0.0000
# 4 0.0000 0.0000 0.0000 27.4420 0.0000 0.0000
# 5 0.0000 0.0000 0.0000 0.0000 3.1414 0.0000
# 6 0.0000 0.0000 0.0000 0.0000 0.0000 6.4721
#
#
#
# Elastic Compliance Matrix: (Units=1/GPa)
#
#
# Indices 1 2 3 4 5 6 
#
# 1 0.016869 -0.003955 -0.000866 0.000000 0.000000 0.000000
# 2 -0.003955 0.008261 -0.003705 0.000000 0.000000 0.000000
# 3 -0.000866 -0.003705 0.025598 0.000000 0.000000 0.000000
# 4 0.000000 0.000000 0.000000 0.036441 0.000000 0.000000
# 5 0.000000 0.000000 0.000000 0.000000 0.318332 0.000000
# 6 0.000000 0.000000 0.000000 0.000000 0.000000 0.154509
#
#
# Mechanical properties :
#
#
# Convention : Reuss Voigt Hill
#
# Bulk Modulus (GPa) = 29.69312 43.50140 36.59726
# Shear Modulus (GPa) = 8.49926 20.27622 14.38774
#
# Velocity S-wave (km/s) = 2.04883 3.16453 2.66570
# Velocity P-wave (km/s) = 4.50134 5.90230 5.24877
#
# Compressibility (1/GPa) = 0.03367784
#
# Stress axis : x y z
#
# Youngs Moduli (GPa) = 59.27994 121.05251 39.06501
#
# Poissons Ratio (x) = 0.47875 0.03382
# Poissons Ratio (y) = 0.23444 0.14472
# Poissons Ratio (z) = 0.05132 0.44846
#
# Static dielectric constant tensor:
#      x y z
#    x 1.772230 0.000000 0.000000 
#    y 0.000000 1.683350 0.000000 
#    z 0.000000 0.000000 1.722610 
# 
# From -- ./inp_files/16695.got.cif
#   From: 2010.05.17/outbox.cif.g08.bks.cpg/sg20_9_cif.got.tgz:16695.got - 2010.06.03 22:52:26.
