data_PCOD9319544
_publ_section_title
;
Structure prediction by ZEFSAII (Michael W. Deem and Ramdas Pophale) SiO2 
 PCOD9319544
Probable space group: C 2 2 21
;
_chemical_formula_sum "Si O2"
_cell_formula_units_Z 56
_cell_length_a 27.769012
_cell_length_b 5.161924
_cell_length_c 17.640107
_cell_angle_alpha 90.000000
_cell_angle_beta 90.000000
_cell_angle_gamma 90.000000
_cell_volume 2528.559918
_symmetry_space_group_name_H-M "C 2 2 21"
_symmetry_group_IT_number 20
_symmetry_cell_setting 'orthorhombic'
loop_
_space_group_symop_operation_xyz
x,y,z
-x,-y,1/2+z
x,-y,-z
-x,y,1/2-z
1/2+x,1/2+y,z
1/2-x,1/2-y,1/2+z
1/2+x,1/2-y,-z
1/2-x,1/2+y,1/2-z
loop_
_atom_site_type_symbol
_atom_site_label
_atom_site_fract_x
_atom_site_fract_y
_atom_site_fract_z
Si Si1 0.174231 0.256166 0.050860
Si Si2 0.453525 0.264210 0.452439
Si Si3 0.712740 0.257571 0.448905
Si Si4 0.051528 0.401337 0.580064
Si Si5 0.359727 0.796471 0.811586
Si Si6 0.028796 0.475363 0.179386
Si Si7 0.622579 0.295040 0.788371
O O1 0.230778 0.299578 0.068805
O O2 0.144944 0.220208 0.127919
O O3 0.157760 0.500000 0.000000
O O4 0.172063 0.000000 0.000000
O O5 0.432955 0.500000 0.500000
O O6 0.510679 0.309485 0.439281
O O7 0.438752 0.182279 0.367585
O O8 0.448761 0.000000 0.500000
O O9 0.695745 0.500000 0.500000
O O10 0.683443 0.232470 0.371337
O O11 0.707744 0.000000 0.500000
O O12 0.071268 0.500000 0.500000
O O13 0.092524 0.315349 0.636341
O O14 0.014948 0.601794 0.622878
O O15 0.364101 0.554901 0.755511
O O16 0.357684 0.057030 0.762278
O O17 0.065050 0.253712 0.204314
O O18 0.000000 0.590745 0.250000
#
# Coordination Sequence:
#
# PCOD9319544 Si02
#       7
#     8   8   8   8   8   8   8
#     4  10  23  46  74 102 139 179 228 285 343 421
#     4   9  20  37  58  83 111 159 219 273 324 380
#     4  10  22  43  72 106 140 181 222 280 350 419
#     4   9  21  42  65  93 127 180 231 285 339 402
#     4  12  25  42  67 103 140 179 226 287 354 420
#     4  10  21  45  63  91 135 181 229 284 347 396
#     4  12  26  44  68 100 138 185 229 288 353 407
#
# _framework density 22.146996000000001
#
# number of rings (size 3 to 8) (size 9 to 14) (size 15 to 20)
#    0.857    0.857    1.429    2.143    0.000    7.429 
#    2.571    1.429    0.000    0.000    0.000    0.000 
#    0.000    0.000    0.000    0.000    0.000    0.000 
#
# Total GULP energy -156380.168054 kJ/mol
# GULP energy per Si atom -5585.006002 kJ/mol
# Density = 2.209659 g / cm^3
# Si number density = 22.146996 Si / 1000 Ang^3
#
#
#
# Elastic Constant Matrix: (Units=GPa)
#
#
# Indices 1 2 3 4 5 6 
#
# 1 106.4063 8.8250 57.5437 0.0000 0.0000 0.0000
# 2 8.8250 122.8162 56.9456 0.0000 0.0000 0.0000
# 3 57.5437 56.9456 171.8935 0.0000 0.0000 0.0000
# 4 0.0000 0.0000 0.0000 42.1541 0.0000 0.0000
# 5 0.0000 0.0000 0.0000 0.0000 42.6135 0.0000
# 6 0.0000 0.0000 0.0000 0.0000 0.0000 12.7338
#
#
#
# Elastic Compliance Matrix: (Units=1/GPa)
#
#
# Indices 1 2 3 4 5 6 
#
# 1 0.011610 0.001143 -0.004265 0.000000 0.000000 0.000000
# 2 0.001143 0.009733 -0.003607 0.000000 0.000000 0.000000
# 3 -0.004265 -0.003607 0.008440 0.000000 0.000000 0.000000
# 4 0.000000 0.000000 0.000000 0.023722 0.000000 0.000000
# 5 0.000000 0.000000 0.000000 0.000000 0.023467 0.000000
# 6 0.000000 0.000000 0.000000 0.000000 0.000000 0.078531
#
#
# Mechanical properties :
#
#
# Convention : Reuss Voigt Hill
#
# Bulk Modulus (GPa) = 61.25613 71.97160 66.61387
# Shear Modulus (GPa) = 28.66931 38.02039 33.34485
#
# Velocity S-wave (km/s) = 3.60182 4.14784 3.88444
# Velocity P-wave (km/s) = 6.70943 7.45031 7.08956
#
# Compressibility (1/GPa) = 0.01632490
#
# Stress axis : x y z
#
# Youngs Moduli (GPa) = 86.13435 102.74814 118.47794
#
# Poissons Ratio (x) = -0.11749 0.50535
# Poissons Ratio (y) = -0.09849 0.42735
# Poissons Ratio (z) = 0.36739 0.37062
#
# Static dielectric constant tensor:
#      x y z
#    x 1.824750 0.000000 0.000000 
#    y 0.000000 1.839290 0.000000 
#    z 0.000000 0.000000 1.850470 
# 
# From -- ./inp_files/22310.got.cif
#   From: 2010.05.17/outbox.cif.g08.bks.cpg/sg20_12_cif.got.tgz:22310.got - 2010.06.03 22:52:26.
