data_PCOD9319685
_publ_section_title
;
Structure prediction by ZEFSAII (Michael W. Deem and Ramdas Pophale) SiO2 
 PCOD9319685
Probable space group: C 2 2 21
;
_chemical_formula_sum "Si O2"
_cell_formula_units_Z 60
_cell_length_a 19.740163
_cell_length_b 25.447596
_cell_length_c 5.744825
_cell_angle_alpha 90.000000
_cell_angle_beta 90.000000
_cell_angle_gamma 90.000000
_cell_volume 2885.853627
_symmetry_space_group_name_H-M "C 2 2 21"
_symmetry_group_IT_number 20
_symmetry_cell_setting 'orthorhombic'
loop_
_space_group_symop_operation_xyz
x,y,z
-x,-y,1/2+z
x,-y,-z
-x,y,1/2-z
1/2+x,1/2+y,z
1/2-x,1/2-y,1/2+z
1/2+x,1/2-y,-z
1/2-x,1/2+y,1/2-z
loop_
_atom_site_type_symbol
_atom_site_label
_atom_site_fract_x
_atom_site_fract_y
_atom_site_fract_z
Si Si1 0.845861 0.585286 0.167645
Si Si2 0.142943 0.851131 0.302699
Si Si3 0.715477 0.445961 0.125515
Si Si4 0.462011 0.156530 0.003376
Si Si5 0.811119 0.774442 0.590617
Si Si6 0.061923 0.221696 0.425734
Si Si7 0.691335 0.000000 0.000000
Si Si8 0.273439 0.833701 0.584736
O O1 0.901733 0.613099 0.008236
O O2 0.853095 0.529914 0.303288
O O3 0.832840 0.626102 0.376283
O O4 0.774013 0.580142 0.034325
O O5 0.153677 0.905559 0.164578
O O6 0.073118 0.828954 0.407981
O O7 0.203692 0.857252 0.490307
O O8 0.163922 0.802353 0.140347
O O9 0.757292 0.462547 0.356657
O O10 0.694046 0.500000 0.000000
O O11 0.500000 0.144989 0.250000
O O12 0.500000 0.152907 0.750000
O O13 0.442707 0.218940 0.027335
O O14 0.869707 0.779541 0.777696
O O15 0.744681 0.804771 0.674444
O O16 0.796185 0.713518 0.575456
O O17 0.000000 0.214725 0.250000
#
# Coordination Sequence:
#
# PCOD9319685 Si02
#       8
#     8   8   8   8   8   8   4   8
#     4  11  23  39  66  91 127 176 220 286 342 413
#     4  11  21  36  60  86 134 168 212 270 338 408
#     4  10  22  38  61  97 129 159 214 279 354 414
#     4  11  28  46  67  95 135 188 242 283 337 409
#     4  11  22  35  56  93 131 164 208 261 322 403
#     4  10  26  40  58  90 134 179 231 269 322 411
#     4  10  22  40  68  88 132 158 218 282 352 402
#     4  11  21  32  56  93 126 167 203 260 335 402
#
# _framework density 20.791073999999998
#
# number of rings (size 3 to 8) (size 9 to 14) (size 15 to 20)
#    0.000    1.333    4.000    0.800   13.067    0.000 
#    0.000    0.000    4.400    0.000    0.000    0.000 
#   20.000    0.000    0.000    0.000    0.000    0.000 
#
# Total GULP energy -167159.852210 kJ/mol
# GULP energy per Si atom -5571.995074 kJ/mol
# Density = 2.074375 g / cm^3
# Si number density = 20.791074 Si / 1000 Ang^3
#
#
#
# Elastic Constant Matrix: (Units=GPa)
#
#
# Indices 1 2 3 4 5 6 
#
# 1 48.6602 41.3658 15.4132 0.0000 0.0000 0.0000
# 2 41.3658 115.2058 20.6799 0.0000 0.0000 0.0000
# 3 15.4132 20.6799 61.5790 0.0000 0.0000 0.0000
# 4 0.0000 0.0000 0.0000 37.9747 0.0000 0.0000
# 5 0.0000 0.0000 0.0000 0.0000 27.6317 0.0000
# 6 0.0000 0.0000 0.0000 0.0000 0.0000 25.3831
#
#
#
# Elastic Compliance Matrix: (Units=1/GPa)
#
#
# Indices 1 2 3 4 5 6 
#
# 1 0.030577 -0.010221 -0.004221 0.000000 0.000000 0.000000
# 2 -0.010221 0.012654 -0.001691 0.000000 0.000000 0.000000
# 3 -0.004221 -0.001691 0.017864 0.000000 0.000000 0.000000
# 4 0.000000 0.000000 0.000000 0.026333 0.000000 0.000000
# 5 0.000000 0.000000 0.000000 0.000000 0.036190 0.000000
# 6 0.000000 0.000000 0.000000 0.000000 0.000000 0.039396
#
#
# Mechanical properties :
#
#
# Convention : Reuss Voigt Hill
#
# Bulk Modulus (GPa) = 34.68861 42.26251 38.47556
# Shear Modulus (GPa) = 24.40342 28.06363 26.23353
#
# Velocity S-wave (km/s) = 3.42971 3.67794 3.55599
# Velocity P-wave (km/s) = 5.69250 6.19739 5.95030
#
# Compressibility (1/GPa) = 0.02882790
#
# Stress axis : x y z
#
# Youngs Moduli (GPa) = 32.70474 79.02823 55.97953
#
# Poissons Ratio (x) = 0.80776 0.23627
# Poissons Ratio (y) = 0.33428 0.09467
# Poissons Ratio (z) = 0.13804 0.13364
#
# Static dielectric constant tensor:
#      x y z
#    x 1.679740 0.000000 0.000000 
#    y 0.000000 1.842470 0.000000 
#    z 0.000000 0.000000 1.914390 
# 
# From -- ./inp_files/3334.got.cif
#   From: 2010.05.17/outbox.cif.g08.bks.cpg/sg20_2_cif.got.tgz:3334.got - 2010.06.03 22:52:26.
