data_PCOD9319534
_publ_section_title
;
Structure prediction by ZEFSAII (Michael W. Deem and Ramdas Pophale) SiO2 
 PCOD9319534
Probable space group: C 2 2 21
;
_chemical_formula_sum "Si O2"
_cell_formula_units_Z 40
_cell_length_a 11.737492
_cell_length_b 10.337310
_cell_length_c 14.180672
_cell_angle_alpha 90.000000
_cell_angle_beta 90.000000
_cell_angle_gamma 90.000000
_cell_volume 1720.598981
_symmetry_space_group_name_H-M "C 2 2 21"
_symmetry_group_IT_number 20
_symmetry_cell_setting 'orthorhombic'
loop_
_space_group_symop_operation_xyz
x,y,z
-x,-y,1/2+z
x,-y,-z
-x,y,1/2-z
1/2+x,1/2+y,z
1/2-x,1/2-y,1/2+z
1/2+x,1/2-y,-z
1/2-x,1/2+y,1/2-z
loop_
_atom_site_type_symbol
_atom_site_label
_atom_site_fract_x
_atom_site_fract_y
_atom_site_fract_z
Si Si1 0.000000 0.692815 0.750000
Si Si2 0.828694 0.862557 0.645005
Si Si3 0.310456 0.234710 0.445673
Si Si4 0.318795 0.500000 0.000000
Si Si5 0.867359 0.457872 0.105782
Si Si6 0.007449 0.894482 0.137154
O O1 0.892126 0.784933 0.727285
O O2 0.970929 0.600098 0.836621
O O3 0.822411 0.768880 0.555748
O O4 0.704868 0.928134 0.657375
O O5 0.912399 0.980751 0.617039
O O6 0.258691 0.094178 0.438341
O O7 0.221172 0.339102 0.405846
O O8 0.429730 0.265431 0.397127
O O9 0.396868 0.419462 0.073357
O O10 0.897102 0.500000 0.000000
O O11 0.000000 0.890871 0.250000
#
# Coordination Sequence:
#
# PCOD9319534 Si02
#       6
#     4   8   8   4   8   8
#     4  12  22  42  80 102 136 196 238 282 364 418
#     4  10  21  44  71  99 142 183 237 295 347 419
#     4  10  23  44  72 103 143 187 240 294 358 424
#     4  12  24  46  78 100 144 202 232 292 372 424
#     4   9  22  45  70 105 149 184 229 302 352 413
#     4  11  22  44  78 106 142 194 242 292 362 428
#
# _framework density 23.247720000000001
#
# number of rings (size 3 to 8) (size 9 to 14) (size 15 to 20)
#    0.000    1.600    3.000    2.400    0.000    3.200 
#    1.800    2.000   15.400    0.000    0.000    0.000 
#    0.000    0.000    0.000    0.000    0.000    0.000 
#
# Total GULP energy -111888.709771 kJ/mol
# GULP energy per Si atom -5594.435489 kJ/mol
# Density = 2.319481 g / cm^3
# Si number density = 23.247720 Si / 1000 Ang^3
#
#
#
# Elastic Constant Matrix: (Units=GPa)
#
#
# Indices 1 2 3 4 5 6 
#
# 1 77.3166 71.0506 50.4584 0.0000 0.0000 0.0000
# 2 71.0506 78.1640 53.9216 0.0000 0.0000 0.0000
# 3 50.4584 53.9216 84.5970 0.0000 0.0000 0.0000
# 4 0.0000 0.0000 0.0000 30.6586 0.0000 0.0000
# 5 0.0000 0.0000 0.0000 0.0000 45.5253 0.0000
# 6 0.0000 0.0000 0.0000 0.0000 0.0000 19.2286
#
#
#
# Elastic Compliance Matrix: (Units=1/GPa)
#
#
# Indices 1 2 3 4 5 6 
#
# 1 0.078814 -0.069985 -0.002401 0.000000 0.000000 0.000000
# 2 -0.069985 0.084979 -0.012422 0.000000 0.000000 0.000000
# 3 -0.002401 -0.012422 0.021171 0.000000 0.000000 0.000000
# 4 0.000000 0.000000 0.000000 0.032617 0.000000 0.000000
# 5 0.000000 0.000000 0.000000 0.000000 0.021966 0.000000
# 6 0.000000 0.000000 0.000000 0.000000 0.000000 0.052006
#
#
# Mechanical properties :
#
#
# Convention : Reuss Voigt Hill
#
# Bulk Modulus (GPa) = 65.15822 65.65987 65.40904
# Shear Modulus (GPa) = 10.72310 23.39232 17.05771
#
# Velocity S-wave (km/s) = 2.15001 3.17554 2.71170
# Velocity P-wave (km/s) = 5.85252 6.46145 6.16451
#
# Compressibility (1/GPa) = 0.01534726
#
# Stress axis : x y z
#
# Youngs Moduli (GPa) = 12.68816 11.76766 47.23528
#
# Poissons Ratio (x) = 0.82356 0.11341
# Poissons Ratio (y) = 0.88798 0.58676
# Poissons Ratio (z) = 0.03046 0.14618
#
# Static dielectric constant tensor:
#      x y z
#    x 1.884850 0.000000 0.000000 
#    y 0.000000 1.862130 0.000000 
#    z 0.000000 0.000000 1.834730 
# 
# From -- ./inp_files/20524.got.cif
#   From: 2010.05.17/outbox.cif.g08.bks.cpg/sg20_11_cif.got.tgz:20524.got - 2010.06.03 22:52:26.
