data_PCOD9319637
_publ_section_title
;
Structure prediction by ZEFSAII (Michael W. Deem and Ramdas Pophale) SiO2 
 PCOD9319637
Probable space group: C 2 2 21
;
_chemical_formula_sum "Si O2"
_cell_formula_units_Z 48
_cell_length_a 32.917783
_cell_length_b 8.307292
_cell_length_c 9.229723
_cell_angle_alpha 90.000000
_cell_angle_beta 90.000000
_cell_angle_gamma 90.000000
_cell_volume 2523.938227
_symmetry_space_group_name_H-M "C 2 2 21"
_symmetry_group_IT_number 20
_symmetry_cell_setting 'orthorhombic'
loop_
_space_group_symop_operation_xyz
x,y,z
-x,-y,1/2+z
x,-y,-z
-x,y,1/2-z
1/2+x,1/2+y,z
1/2-x,1/2-y,1/2+z
1/2+x,1/2-y,-z
1/2-x,1/2+y,1/2-z
loop_
_atom_site_type_symbol
_atom_site_label
_atom_site_fract_x
_atom_site_fract_y
_atom_site_fract_z
Si Si1 0.699391 0.449726 0.659401
Si Si2 0.880806 0.849048 0.689200
Si Si3 0.959146 0.938708 0.338533
Si Si4 0.141281 0.515217 0.671520
Si Si5 0.404656 0.164952 0.410067
Si Si6 0.767350 0.591038 0.849254
O O1 0.685194 0.500000 0.500000
O O2 0.660963 0.433787 0.765676
O O3 0.732236 0.565527 0.732714
O O4 0.722002 0.278713 0.636098
O O5 0.878998 0.683440 0.780277
O O6 0.883466 0.789404 0.522254
O O7 0.920465 0.957432 0.718199
O O8 0.944578 0.754651 0.353856
O O9 0.000000 0.957915 0.250000
O O10 0.966995 0.000000 0.500000
O O11 0.136153 0.500000 0.500000
O O12 0.122054 0.378740 0.771297
O O13 0.189457 0.518557 0.701733
O O14 0.411836 0.000000 0.500000
O O15 0.756828 0.500000 0.000000
#
# Coordination Sequence:
#
# PCOD9319637 Si02
#       6
#     8   8   8   8   8   8
#     4  11  23  38  57  82 113 151 197 244 289 344
#     4   9  21  39  58  83 112 149 190 233 288 348
#     4  10  22  39  60  86 113 145 186 234 287 343
#     4   9  19  36  58  86 117 152 194 236 280 337
#     4   9  19  39  61  81 113 152 189 228 285 352
#     4  10  22  37  54  82 116 151 192 237 289 342
#
# _framework density 19.017897000000001
#
# number of rings (size 3 to 8) (size 9 to 14) (size 15 to 20)
#    0.000    2.333    0.000    1.000    0.000   14.000 
#    0.000    8.333    0.000    0.000    0.000    0.000 
#    0.000    0.000    0.000    0.000    0.000    0.000 
#
# Total GULP energy -133923.085916 kJ/mol
# GULP energy per Si atom -5580.128580 kJ/mol
# Density = 1.897461 g / cm^3
# Si number density = 19.017897 Si / 1000 Ang^3
#
#
#
# Elastic Constant Matrix: (Units=GPa)
#
#
# Indices 1 2 3 4 5 6 
#
# 1 105.2495 49.8832 69.2697 0.0000 0.0000 0.0000
# 2 49.8832 56.1904 25.8468 0.0000 0.0000 0.0000
# 3 69.2697 25.8468 71.4058 0.0000 0.0000 0.0000
# 4 0.0000 0.0000 0.0000 20.7384 0.0000 0.0000
# 5 0.0000 0.0000 0.0000 0.0000 27.8692 0.0000
# 6 0.0000 0.0000 0.0000 0.0000 0.0000 -64.6373
#
#
#
# Elastic Compliance Matrix: (Units=1/GPa)
#
#
# Indices 1 2 3 4 5 6 
#
# 1 0.040145 -0.021266 -0.031247 0.000000 0.000000 0.000000
# 2 -0.021266 0.032617 0.008823 0.000000 0.000000 0.000000
# 3 -0.031247 0.008823 0.041122 0.000000 0.000000 0.000000
# 4 0.000000 0.000000 0.000000 0.048220 0.000000 0.000000
# 5 0.000000 0.000000 0.000000 0.000000 0.035882 0.000000
# 6 0.000000 0.000000 0.000000 0.000000 0.000000 -0.015471
#
#
# Mechanical properties :
#
#
# Convention : Reuss Voigt Hill
#
# Bulk Modulus (GPa) = 37.72679 58.09391 47.91035
# Shear Modulus (GPa) = 17.93857 2.65045 10.29451
#
# Velocity S-wave (km/s) = 3.07456 1.18181 2.32912
# Velocity P-wave (km/s) = 5.69952 5.69873 5.69912
#
# Compressibility (1/GPa) = 0.02650637
#
# Stress axis : x y z
#
# Youngs Moduli (GPa) = 24.90960 30.65885 24.31765
#
# Poissons Ratio (x) = 0.65199 0.75984
# Poissons Ratio (y) = 0.52973 -0.21457
# Poissons Ratio (z) = 0.77834 -0.27052
#
# Static dielectric constant tensor:
#      x y z
#    x 1.620760 0.000000 0.000000 
#    y 0.000000 1.737770 0.000000 
#    z 0.000000 0.000000 2.292250 
# 
# From -- ./inp_files/6521.got.cif
#   From: 2010.05.17/outbox.cif.g08.bks.cpg/sg20_4_cif.got.tgz:6521.got - 2010.06.03 22:52:26.
