data_PCOD9319805
_publ_section_title
;
Structure prediction by ZEFSAII (Michael W. Deem and Ramdas Pophale) SiO2 
 PCOD9319805
Probable space group: C 2 2 21
;
_chemical_formula_sum "Si O2"
_cell_formula_units_Z 44
_cell_length_a 12.050932
_cell_length_b 20.556811
_cell_length_c 9.283299
_cell_angle_alpha 90.000000
_cell_angle_beta 90.000000
_cell_angle_gamma 90.000000
_cell_volume 2299.739885
_symmetry_space_group_name_H-M "C 2 2 21"
_symmetry_group_IT_number 20
_symmetry_cell_setting 'orthorhombic'
loop_
_space_group_symop_operation_xyz
x,y,z
-x,-y,1/2+z
x,-y,-z
-x,y,1/2-z
1/2+x,1/2+y,z
1/2-x,1/2-y,1/2+z
1/2+x,1/2-y,-z
1/2-x,1/2+y,1/2-z
loop_
_atom_site_type_symbol
_atom_site_label
_atom_site_fract_x
_atom_site_fract_y
_atom_site_fract_z
Si Si1 0.976415 0.858120 0.005288
Si Si2 0.890345 0.968969 0.153368
Si Si3 0.617410 0.748649 0.299718
Si Si4 0.702854 0.806131 0.592158
Si Si5 0.313301 0.558591 0.390148
Si Si6 0.500000 0.260768 0.250000
O O1 0.882566 0.893698 0.104805
O O2 0.032736 0.807252 0.115519
O O3 0.917150 0.819195 0.877996
O O4 0.070407 0.905950 0.939053
O O5 0.000000 0.968217 0.250000
O O6 0.814447 0.019080 0.240152
O O7 0.906870 0.000000 0.000000
O O8 0.500000 0.778754 0.250000
O O9 0.678447 0.788132 0.426145
O O10 0.693705 0.732365 0.163415
O O11 0.727663 0.882415 0.606747
O O12 0.598605 0.782689 0.687018
O O13 0.292271 0.500000 0.500000
#
# Coordination Sequence:
#
# PCOD9319805 Si02
#       6
#     8   8   8   8   8   4
#     4  11  19  36  62  94 130 157 211 271 335 382
#     4  12  20  30  54  91 128 161 189 258 334 385
#     4  11  24  41  68  98 133 167 214 280 332 391
#     4  11  25  40  65  94 131 172 217 263 333 388
#     4  12  22  37  61  90 128 167 209 264 328 390
#     4  10  22  40  62  90 124 172 216 268 316 388
#
# _framework density 19.132598999999999
#
# number of rings (size 3 to 8) (size 9 to 14) (size 15 to 20)
#    0.000    0.727    6.364    2.182    2.545    1.455 
#    0.000    0.000    2.000    0.000    0.000    0.000 
#    0.000    0.000    0.000    0.000    0.000    0.000 
#
# Total GULP energy -122615.843657 kJ/mol
# GULP energy per Si atom -5573.447439 kJ/mol
# Density = 1.908905 g / cm^3
# Si number density = 19.132599 Si / 1000 Ang^3
#
#
#
# Elastic Constant Matrix: (Units=GPa)
#
#
# Indices 1 2 3 4 5 6 
#
# 1 54.2948 16.8523 27.0579 0.0000 0.0000 0.0000
# 2 16.8523 89.6774 27.3025 0.0000 0.0000 0.0000
# 3 27.0579 27.3025 125.5229 0.0000 0.0000 0.0000
# 4 0.0000 0.0000 0.0000 44.2129 0.0000 0.0000
# 5 0.0000 0.0000 0.0000 0.0000 27.0142 0.0000
# 6 0.0000 0.0000 0.0000 0.0000 0.0000 34.1432
#
#
#
# Elastic Compliance Matrix: (Units=1/GPa)
#
#
# Indices 1 2 3 4 5 6 
#
# 1 0.021265 -0.002785 -0.003978 0.000000 0.000000 0.000000
# 2 -0.002785 0.012307 -0.002076 0.000000 0.000000 0.000000
# 3 -0.003978 -0.002076 0.009276 0.000000 0.000000 0.000000
# 4 0.000000 0.000000 0.000000 0.022618 0.000000 0.000000
# 5 0.000000 0.000000 0.000000 0.000000 0.037018 0.000000
# 6 0.000000 0.000000 0.000000 0.000000 0.000000 0.029288
#
#
# Mechanical properties :
#
#
# Convention : Reuss Voigt Hill
#
# Bulk Modulus (GPa) = 39.73265 45.76894 42.75079
# Shear Modulus (GPa) = 31.67771 34.29291 32.98531
#
# Velocity S-wave (km/s) = 4.07343 4.23825 4.15666
# Velocity P-wave (km/s) = 6.55255 6.92273 6.74018
#
# Compressibility (1/GPa) = 0.02516822
#
# Stress axis : x y z
#
# Youngs Moduli (GPa) = 47.02582 81.25705 107.80672
#
# Poissons Ratio (x) = 0.22630 0.42887
# Poissons Ratio (y) = 0.13097 0.22386
# Poissons Ratio (z) = 0.18708 0.16873
#
# Static dielectric constant tensor:
#      x y z
#    x 1.689110 0.000000 0.000000 
#    y 0.000000 1.873730 0.000000 
#    z 0.000000 0.000000 1.794490 
# 
# From -- ./inp_files/7324.got.cif
#   From: 2010.05.17/outbox.cif.g08.bks.cpg/sg20_4_cif.got.tgz:7324.got - 2010.06.03 22:52:26.
