data_PCOD9319930
_publ_section_title
;
Structure prediction by ZEFSAII (Michael W. Deem and Ramdas Pophale) SiO2 
 PCOD9319930
Probable space group: C 2 2 21
;
_chemical_formula_sum "Si O2"
_cell_formula_units_Z 64
_cell_length_a 14.098325
_cell_length_b 18.395973
_cell_length_c 12.624293
_cell_angle_alpha 90.000000
_cell_angle_beta 90.000000
_cell_angle_gamma 90.000000
_cell_volume 3274.140764
_symmetry_space_group_name_H-M "C 2 2 21"
_symmetry_group_IT_number 20
_symmetry_cell_setting 'orthorhombic'
loop_
_space_group_symop_operation_xyz
x,y,z
-x,-y,1/2+z
x,-y,-z
-x,y,1/2-z
1/2+x,1/2+y,z
1/2-x,1/2-y,1/2+z
1/2+x,1/2-y,-z
1/2-x,1/2+y,1/2-z
loop_
_atom_site_type_symbol
_atom_site_label
_atom_site_fract_x
_atom_site_fract_y
_atom_site_fract_z
Si Si1 0.346204 0.785358 0.456035
Si Si2 0.260820 0.424168 0.954291
Si Si3 0.427399 0.776281 0.011437
Si Si4 0.917348 0.132191 0.893753
Si Si5 0.741749 0.867342 0.506119
Si Si6 0.106080 0.240476 0.258214
Si Si7 0.620111 0.424155 0.164410
Si Si8 0.167135 0.918767 0.783462
O O1 0.303171 0.855574 0.512162
O O2 0.459502 0.781983 0.475503
O O3 0.296366 0.710888 0.493357
O O4 0.332696 0.784018 0.327695
O O5 0.280173 0.428162 0.828929
O O6 0.221744 0.500000 0.000000
O O7 0.359644 0.410191 0.016294
O O8 0.410378 0.717335 0.920017
O O9 0.369787 0.850241 0.996271
O O10 0.376762 0.744925 0.117656
O O11 0.875724 0.114485 0.778480
O O12 0.026650 0.106858 0.892986
O O13 0.788365 0.910048 0.408254
O O14 0.765159 0.906205 0.616306
O O15 0.109107 0.156302 0.224594
O O16 0.000000 0.270070 0.250000
O O17 0.608537 0.509304 0.189618
#
# Coordination Sequence:
#
# PCOD9319930 Si02
#       8
#     8   8   8   8   8   8   8   8
#     4  10  22  41  62  95 126 167 219 270 317 388
#     4  12  24  42  65  90 130 171 216 261 326 394
#     4  11  21  41  65  96 124 165 226 270 323 380
#     4  11  23  40  63  96 126 167 205 270 334 385
#     4  11  23  40  64  88 130 173 210 269 326 388
#     4   9  20  34  61  91 124 160 210 260 322 383
#     4  11  25  41  58  95 136 166 209 263 335 398
#     4  11  23  39  60  94 128 173 208 263 322 401
#
# _framework density 19.547114000000001
#
# number of rings (size 3 to 8) (size 9 to 14) (size 15 to 20)
#    0.000    1.250    5.000    0.375    3.500    2.000 
#    0.000    1.250    0.000    0.000    0.000    0.000 
#    0.000    0.000    0.000    0.000    0.000    0.000 
#
# Total GULP energy -178574.539724 kJ/mol
# GULP energy per Si atom -5580.454366 kJ/mol
# Density = 1.950262 g / cm^3
# Si number density = 19.547114 Si / 1000 Ang^3
#
#
#
# Elastic Constant Matrix: (Units=GPa)
#
#
# Indices 1 2 3 4 5 6 
#
# 1 69.2743 16.8033 25.7284 0.0000 0.0000 0.0000
# 2 16.8033 68.3912 29.3751 0.0000 0.0000 0.0000
# 3 25.7284 29.3751 89.1166 0.0000 0.0000 0.0000
# 4 0.0000 0.0000 0.0000 68.1099 0.0000 0.0000
# 5 0.0000 0.0000 0.0000 0.0000 12.1644 0.0000
# 6 0.0000 0.0000 0.0000 0.0000 0.0000 23.1996
#
#
#
# Elastic Compliance Matrix: (Units=1/GPa)
#
#
# Indices 1 2 3 4 5 6 
#
# 1 0.016484 -0.002337 -0.003989 0.000000 0.000000 0.000000
# 2 -0.002337 0.017365 -0.005049 0.000000 0.000000 0.000000
# 3 -0.003989 -0.005049 0.014037 0.000000 0.000000 0.000000
# 4 0.000000 0.000000 0.000000 0.014682 0.000000 0.000000
# 5 0.000000 0.000000 0.000000 0.000000 0.082207 0.000000
# 6 0.000000 0.000000 0.000000 0.000000 0.000000 0.043104
#
#
# Mechanical properties :
#
#
# Convention : Reuss Voigt Hill
#
# Bulk Modulus (GPa) = 39.78333 41.17731 40.48032
# Shear Modulus (GPa) = 22.83039 31.01981 26.92510
#
# Velocity S-wave (km/s) = 3.42126 3.98795 3.71542
# Velocity P-wave (km/s) = 6.00029 6.50510 6.25779
#
# Compressibility (1/GPa) = 0.02513616
#
# Stress axis : x y z
#
# Youngs Moduli (GPa) = 60.66662 57.58849 71.23967
#
# Poissons Ratio (x) = 0.13457 0.28415
# Poissons Ratio (y) = 0.14176 0.35970
# Poissons Ratio (z) = 0.24198 0.29077
#
# Static dielectric constant tensor:
#      x y z
#    x 1.687920 0.000000 0.000000 
#    y 0.000000 1.689800 0.000000 
#    z 0.000000 0.000000 1.720620 
# 
# From -- ./inp_files/15335.got.cif
#   From: 2010.05.17/outbox.cif.g08.bks.cpg/sg20_8_cif.got.tgz:15335.got - 2010.06.03 22:52:26.
