data_PCOD9319116
_publ_section_title
;
Structure prediction by ZEFSAII (Michael W. Deem and Ramdas Pophale) SiO2 
 PCOD9319116
Probable space group: C 2 2 21
;
_chemical_formula_sum "Si O2"
_cell_formula_units_Z 56
_cell_length_a 9.480444
_cell_length_b 13.754880
_cell_length_c 20.256579
_cell_angle_alpha 90.000000
_cell_angle_beta 90.000000
_cell_angle_gamma 90.000000
_cell_volume 2641.505901
_symmetry_space_group_name_H-M "C 2 2 21"
_symmetry_group_IT_number 20
_symmetry_cell_setting 'orthorhombic'
loop_
_space_group_symop_operation_xyz
x,y,z
-x,-y,1/2+z
x,-y,-z
-x,y,1/2-z
1/2+x,1/2+y,z
1/2-x,1/2-y,1/2+z
1/2+x,1/2-y,-z
1/2-x,1/2+y,1/2-z
loop_
_atom_site_type_symbol
_atom_site_label
_atom_site_fract_x
_atom_site_fract_y
_atom_site_fract_z
Si Si1 0.605163 0.392937 0.498320
Si Si2 0.572330 0.112743 0.053002
Si Si3 0.466523 0.299620 0.133383
Si Si4 0.386056 0.047731 0.309857
Si Si5 0.753547 0.761172 0.322096
Si Si6 0.971703 0.295425 0.072452
Si Si7 0.813149 0.330418 0.308831
O O1 0.543092 0.500000 0.500000
O O2 0.764583 0.393964 0.528428
O O3 0.601522 0.369505 0.420781
O O4 0.518700 0.310047 0.536728
O O5 0.527589 0.211750 0.089934
O O6 0.549870 0.040878 0.115182
O O7 0.486469 0.122715 0.984511
O O8 0.602308 0.324274 0.176838
O O9 0.335048 0.275751 0.178723
O O10 0.500000 0.055109 0.250000
O O11 0.292975 0.146737 0.313128
O O12 0.302410 0.947169 0.301983
O O13 0.676148 0.788828 0.389940
O O14 0.650463 0.792556 0.263697
O O15 0.088117 0.307081 0.129174
#
# Coordination Sequence:
#
# PCOD9319116 Si02
#       7
#     8   8   8   8   8   8   8
#     4  11  21  40  66  98 130 173 223 278 340 405
#     4  10  21  39  68  95 130 173 223 275 332 418
#     4  10  21  39  67  91 130 172 218 268 344 395
#     4  11  23  43  67  98 131 184 233 270 343 425
#     4  11  23  44  66  97 136 177 227 285 341 412
#     4  11  23  39  66 100 131 171 230 275 345 396
#     4  12  24  43  69  96 136 182 225 290 335 412
#
# _framework density 21.200028
#
# number of rings (size 3 to 8) (size 9 to 14) (size 15 to 20)
#    0.000    1.143    4.286    4.286    0.000    0.000 
#    2.571    1.429    3.143    0.857    0.000    0.000 
#    0.000    0.000    0.000    0.000    0.000    0.000 
#
# Total GULP energy -155871.314485 kJ/mol
# GULP energy per Si atom -5566.832660 kJ/mol
# Density = 2.115178 g / cm^3
# Si number density = 21.200028 Si / 1000 Ang^3
#
#
#
# Elastic Constant Matrix: (Units=GPa)
#
#
# Indices 1 2 3 4 5 6 
#
# 1 87.7369 12.3126 34.0796 0.0000 0.0000 0.0000
# 2 12.3126 72.6157 39.3305 0.0000 0.0000 0.0000
# 3 34.0796 39.3305 143.0237 0.0000 0.0000 0.0000
# 4 0.0000 0.0000 0.0000 31.7227 0.0000 0.0000
# 5 0.0000 0.0000 0.0000 0.0000 50.3178 0.0000
# 6 0.0000 0.0000 0.0000 0.0000 0.0000 12.4449
#
#
#
# Elastic Compliance Matrix: (Units=1/GPa)
#
#
# Indices 1 2 3 4 5 6 
#
# 1 0.012582 -0.000599 -0.002833 0.000000 0.000000 0.000000
# 2 -0.000599 0.016210 -0.004315 0.000000 0.000000 0.000000
# 3 -0.002833 -0.004315 0.008854 0.000000 0.000000 0.000000
# 4 0.000000 0.000000 0.000000 0.031523 0.000000 0.000000
# 5 0.000000 0.000000 0.000000 0.000000 0.019874 0.000000
# 6 0.000000 0.000000 0.000000 0.000000 0.000000 0.080354
#
#
# Mechanical properties :
#
#
# Convention : Reuss Voigt Hill
#
# Bulk Modulus (GPa) = 45.14389 52.75796 48.95093
# Shear Modulus (GPa) = 26.00451 33.40734 29.70593
#
# Velocity S-wave (km/s) = 3.50612 3.97396 3.74735
# Velocity P-wave (km/s) = 6.14256 6.78206 6.47021
#
# Compressibility (1/GPa) = 0.02215139
#
# Stress axis : x y z
#
# Youngs Moduli (GPa) = 79.47645 61.69149 112.94885
#
# Poissons Ratio (x) = 0.03694 0.32004
# Poissons Ratio (y) = 0.04759 0.48736
# Poissons Ratio (z) = 0.22519 0.26619
#
# Static dielectric constant tensor:
#      x y z
#    x 1.788670 0.000000 0.000000 
#    y 0.000000 1.773680 0.000000 
#    z 0.000000 0.000000 1.921110 
# 
# From -- ./inp_files/26708.got.cif
#   From: 2010.05.17/outbox.cif.g08.bks.cpg/sg20_14_cif.got.tgz:26708.got - 2010.06.03 22:52:26.
