data_PCOD9319153
_publ_section_title
;
Structure prediction by ZEFSAII (Michael W. Deem and Ramdas Pophale) SiO2 
 PCOD9319153
Probable space group: C 2 2 21
;
_chemical_formula_sum "Si O2"
_cell_formula_units_Z 52
_cell_length_a 8.098173
_cell_length_b 19.143433
_cell_length_c 17.132438
_cell_angle_alpha 90.000000
_cell_angle_beta 90.000000
_cell_angle_gamma 90.000000
_cell_volume 2655.987592
_symmetry_space_group_name_H-M "C 2 2 21"
_symmetry_group_IT_number 20
_symmetry_cell_setting 'orthorhombic'
loop_
_space_group_symop_operation_xyz
x,y,z
-x,-y,1/2+z
x,-y,-z
-x,y,1/2-z
1/2+x,1/2+y,z
1/2-x,1/2-y,1/2+z
1/2+x,1/2-y,-z
1/2-x,1/2+y,1/2-z
loop_
_atom_site_type_symbol
_atom_site_label
_atom_site_fract_x
_atom_site_fract_y
_atom_site_fract_z
Si Si1 0.000000 0.310722 0.750000
Si Si2 0.540925 0.605385 0.411444
Si Si3 0.241741 0.146446 0.982257
Si Si4 0.730599 0.000000 0.000000
Si Si5 0.268911 0.259390 0.854439
Si Si6 0.500000 0.836938 0.250000
Si Si7 0.810035 0.590040 0.144326
Si Si8 0.473913 0.943750 0.116743
O O1 0.086870 0.268857 0.819209
O O2 0.140566 0.359827 0.713924
O O3 0.444714 0.635413 0.488051
O O4 0.659357 0.544792 0.440934
O O5 0.639091 0.667421 0.369571
O O6 0.386828 0.577365 0.359959
O O7 0.266479 0.218105 0.936472
O O8 0.309106 0.088490 0.922367
O O9 0.341264 0.131768 0.062654
O O10 0.610301 0.951692 0.050396
O O11 0.365843 0.213336 0.789966
O O12 0.544691 0.890736 0.180837
O O13 0.918328 0.519960 0.146520
#
# Coordination Sequence:
#
# PCOD9319153 Si02
#       8
#     4   8   8   4   8   4   8   8
#     4  12  25  38  64  88 129 168 214 256 330 393
#     4  10  23  37  63  92 126 161 215 269 313 377
#     4   9  22  39  63  88 124 164 213 265 317 379
#     4  12  20  36  66 100 120 166 220 264 320 378
#     4  11  24  41  61  89 128 172 207 264 320 391
#     4  10  25  42  60  90 127 168 202 264 320 391
#     4  10  21  40  61  92 123 164 208 271 314 380
#     4  11  20  40  66  92 128 165 218 262 323 385
#
# _framework density 19.578403999999999
#
# number of rings (size 3 to 8) (size 9 to 14) (size 15 to 20)
#    0.923    0.615    1.538    3.231    2.154    2.462 
#    0.000    0.000    0.000    1.846    0.000    0.000 
#    0.000    0.000    0.000    0.000    0.000    0.000 
#
# Total GULP energy -144897.074375 kJ/mol
# GULP energy per Si atom -5572.964399 kJ/mol
# Density = 1.953384 g / cm^3
# Si number density = 19.578404 Si / 1000 Ang^3
#
#
#
# Elastic Constant Matrix: (Units=GPa)
#
#
# Indices 1 2 3 4 5 6 
#
# 1 80.7345 32.4721 15.8441 0.0000 0.0000 0.0000
# 2 32.4721 76.0659 30.7405 0.0000 0.0000 0.0000
# 3 15.8441 30.7405 65.6023 0.0000 0.0000 0.0000
# 4 0.0000 0.0000 0.0000 31.5243 0.0000 0.0000
# 5 0.0000 0.0000 0.0000 0.0000 26.7412 0.0000
# 6 0.0000 0.0000 0.0000 0.0000 0.0000 2.2094
#
#
#
# Elastic Compliance Matrix: (Units=1/GPa)
#
#
# Indices 1 2 3 4 5 6 
#
# 1 0.014985 -0.006087 -0.000767 0.000000 0.000000 0.000000
# 2 -0.006087 0.018690 -0.007288 0.000000 0.000000 0.000000
# 3 -0.000767 -0.007288 0.018844 0.000000 0.000000 0.000000
# 4 0.000000 0.000000 0.000000 0.031722 0.000000 0.000000
# 5 0.000000 0.000000 0.000000 0.000000 0.037396 0.000000
# 6 0.000000 0.000000 0.000000 0.000000 0.000000 0.452610
#
#
# Mechanical properties :
#
#
# Convention : Reuss Voigt Hill
#
# Bulk Modulus (GPa) = 41.26219 42.27957 41.77088
# Shear Modulus (GPa) = 8.18856 21.65137 14.91997
#
# Velocity S-wave (km/s) = 2.04732 3.32909 2.76354
# Velocity P-wave (km/s) = 5.16815 6.03481 5.61822
#
# Compressibility (1/GPa) = 0.02423526
#
# Stress axis : x y z
#
# Youngs Moduli (GPa) = 66.73305 53.50353 53.06845
#
# Poissons Ratio (x) = 0.32569 0.04069
# Poissons Ratio (y) = 0.40622 0.38676
# Poissons Ratio (z) = 0.05117 0.38993
#
# Static dielectric constant tensor:
#      x y z
#    x 1.676420 0.000000 0.000000 
#    y 0.000000 1.680990 0.000000 
#    z 0.000000 0.000000 1.721450 
# 
# From -- ./inp_files/23725.got.cif
#   From: 2010.05.17/outbox.cif.g08.bks.cpg/sg20_12_cif.got.tgz:23725.got - 2010.06.03 22:52:26.
