data_PCOD9319147
_publ_section_title
;
Structure prediction by ZEFSAII (Michael W. Deem and Ramdas Pophale) SiO2 
 PCOD9319147
Probable space group: C 2 2 21
;
_chemical_formula_sum "Si O2"
_cell_formula_units_Z 44
_cell_length_a 9.997734
_cell_length_b 7.962567
_cell_length_c 22.637159
_cell_angle_alpha 90.000000
_cell_angle_beta 90.000000
_cell_angle_gamma 90.000000
_cell_volume 1802.090506
_symmetry_space_group_name_H-M "C 2 2 21"
_symmetry_group_IT_number 20
_symmetry_cell_setting 'orthorhombic'
loop_
_space_group_symop_operation_xyz
x,y,z
-x,-y,1/2+z
x,-y,-z
-x,y,1/2-z
1/2+x,1/2+y,z
1/2-x,1/2-y,1/2+z
1/2+x,1/2-y,-z
1/2-x,1/2+y,1/2-z
loop_
_atom_site_type_symbol
_atom_site_label
_atom_site_fract_x
_atom_site_fract_y
_atom_site_fract_z
Si Si1 0.091301 0.493121 0.622652
Si Si2 0.877454 0.478683 0.706491
Si Si3 0.830058 0.124791 0.291332
Si Si4 0.022343 0.128267 0.385634
Si Si5 0.225609 0.160451 0.034880
Si Si6 0.834476 0.000000 0.000000
O O1 0.943415 0.439109 0.643488
O O2 0.100268 0.695800 0.622086
O O3 0.205140 0.432440 0.668462
O O4 0.135838 0.406044 0.562637
O O5 0.861114 0.678694 0.709312
O O6 0.734566 0.410874 0.726934
O O7 0.000000 0.429253 0.750000
O O8 0.962901 0.050441 0.324054
O O9 0.885195 0.192777 0.416116
O O10 0.090453 0.011101 0.435545
O O11 0.250895 0.329473 0.000462
O O12 0.173211 0.000000 0.000000
#
# Coordination Sequence:
#
# PCOD9319147 Si02
#       6
#     8   8   8   8   8   4
#     4   9  19  39  60  82 124 161 196 255 309 357
#     4   9  18  36  59  87 117 158 196 245 307 363
#     4   9  19  36  62  86 121 157 199 251 301 366
#     4  10  21  40  59  86 120 159 207 254 307 363
#     4  11  22  38  59  87 121 158 205 255 301 366
#     4  12  24  36  62  88 112 166 210 244 320 368
#
# _framework density 24.416087999999998
#
# number of rings (size 3 to 8) (size 9 to 14) (size 15 to 20)
#    0.000    2.182    2.727    0.000    0.000    2.909 
#    0.000   19.091    0.000    0.000    0.000    0.000 
#    0.000    0.000    0.000    0.000    0.000    0.000 
#
# Total GULP energy -122602.328627 kJ/mol
# GULP energy per Si atom -5572.833119 kJ/mol
# Density = 2.436052 g / cm^3
# Si number density = 24.416088 Si / 1000 Ang^3
#
#
#
# Elastic Constant Matrix: (Units=GPa)
#
#
# Indices 1 2 3 4 5 6 
#
# 1 89.0578 16.4588 24.1304 0.0000 0.0000 0.0000
# 2 16.4588 62.8795 6.7160 0.0000 0.0000 0.0000
# 3 24.1304 6.7160 25.0762 0.0000 0.0000 0.0000
# 4 0.0000 0.0000 0.0000 34.7573 0.0000 0.0000
# 5 0.0000 0.0000 0.0000 0.0000 6.8278 0.0000
# 6 0.0000 0.0000 0.0000 0.0000 0.0000 19.5597
#
#
#
# Elastic Compliance Matrix: (Units=1/GPa)
#
#
# Indices 1 2 3 4 5 6 
#
# 1 0.015576 -0.002549 -0.014306 0.000000 0.000000 0.000000
# 2 -0.002549 0.016789 -0.002044 0.000000 0.000000 0.000000
# 3 -0.014306 -0.002044 0.054192 0.000000 0.000000 0.000000
# 4 0.000000 0.000000 0.000000 0.028771 0.000000 0.000000
# 5 0.000000 0.000000 0.000000 0.000000 0.146459 0.000000
# 6 0.000000 0.000000 0.000000 0.000000 0.000000 0.051125
#
#
# Mechanical properties :
#
#
# Convention : Reuss Voigt Hill
#
# Bulk Modulus (GPa) = 20.50858 30.18043 25.34451
# Shear Modulus (GPa) = 13.62538 20.87619 17.25078
#
# Velocity S-wave (km/s) = 2.36487 2.92724 2.66095
# Velocity P-wave (km/s) = 3.98430 4.87983 4.45462
#
# Compressibility (1/GPa) = 0.04876007
#
# Stress axis : x y z
#
# Youngs Moduli (GPa) = 64.20169 59.56312 18.45294
#
# Poissons Ratio (x) = 0.15183 0.26398
# Poissons Ratio (y) = 0.16365 0.03771
# Poissons Ratio (z) = 0.91845 0.12172
#
# Static dielectric constant tensor:
#      x y z
#    x 1.958260 0.000000 0.000000 
#    y 0.000000 1.886420 0.000000 
#    z 0.000000 0.000000 2.158110 
# 
# From -- ./inp_files/29047.got.cif
#   From: 2010.05.17/outbox.cif.g08.bks.cpg/sg20_15_cif.got.tgz:29047.got - 2010.06.03 22:52:26.
