data_PCOD9319540
_publ_section_title
;
Structure prediction by ZEFSAII (Michael W. Deem and Ramdas Pophale) SiO2 
 PCOD9319540
Probable space group: C 2 2 21
;
_chemical_formula_sum "Si O2"
_cell_formula_units_Z 56
_cell_length_a 19.935189
_cell_length_b 8.463711
_cell_length_c 15.515874
_cell_angle_alpha 90.000000
_cell_angle_beta 90.000000
_cell_angle_gamma 90.000000
_cell_volume 2617.926367
_symmetry_space_group_name_H-M "C 2 2 21"
_symmetry_group_IT_number 20
_symmetry_cell_setting 'orthorhombic'
loop_
_space_group_symop_operation_xyz
x,y,z
-x,-y,1/2+z
x,-y,-z
-x,y,1/2-z
1/2+x,1/2+y,z
1/2-x,1/2-y,1/2+z
1/2+x,1/2-y,-z
1/2-x,1/2+y,1/2-z
loop_
_atom_site_type_symbol
_atom_site_label
_atom_site_fract_x
_atom_site_fract_y
_atom_site_fract_z
Si Si1 0.220553 0.449558 0.190205
Si Si2 0.745453 0.000000 0.000000
Si Si3 0.842467 0.879213 0.731909
Si Si4 0.049995 0.941879 0.901779
Si Si5 0.500000 0.351780 0.250000
Si Si6 0.831315 0.321119 0.987104
Si Si7 0.559247 0.203031 0.636721
Si Si8 0.608513 0.882100 0.697010
O O1 0.205105 0.267826 0.209158
O O2 0.295764 0.496663 0.218418
O O3 0.168451 0.546219 0.247749
O O4 0.207893 0.489529 0.090633
O O5 0.786647 0.165698 0.002286
O O6 0.877773 0.936211 0.644381
O O7 0.901858 0.812737 0.793417
O O8 0.011771 0.774416 0.890929
O O9 0.006091 0.052631 0.838825
O O10 0.051188 0.000000 0.000000
O O11 0.433352 0.248864 0.245216
O O12 0.860664 0.317858 0.891464
O O13 0.801208 0.500000 0.000000
O O14 0.891944 0.307560 0.054705
O O15 0.558592 0.027184 0.674342
#
# Coordination Sequence:
#
# PCOD9319540 Si02
#       8
#     8   4   8   8   4   8   8   8
#     4  11  26  44  70  99 141 189 238 291 363 422
#     4  12  24  42  74 100 142 196 246 294 352 446
#     4  11  24  46  67 100 140 186 230 293 352 423
#     4  12  27  44  73 108 143 185 231 298 362 432
#     4  12  26  42  74 102 144 180 240 290 354 452
#     4  10  22  42  70 105 138 184 251 293 346 435
#     4  10  21  44  73  98 141 184 231 290 361 421
#     4  10  25  43  69 105 136 186 234 297 358 426
#
# _framework density 21.390978
#
# number of rings (size 3 to 8) (size 9 to 14) (size 15 to 20)
#    0.000    1.143    2.857    1.714   11.000    1.143 
#    0.000    2.143    0.000    0.000    0.000    0.000 
#    0.000    0.000    0.000    0.000    0.000    0.000 
#
# Total GULP energy -156568.173122 kJ/mol
# GULP energy per Si atom -5591.720469 kJ/mol
# Density = 2.134229 g / cm^3
# Si number density = 21.390978 Si / 1000 Ang^3
#
#
#
# Elastic Constant Matrix: (Units=GPa)
#
#
# Indices 1 2 3 4 5 6 
#
# 1 24.8404 26.9819 25.7925 0.0000 0.0000 0.0000
# 2 26.9819 90.9388 30.7370 0.0000 0.0000 0.0000
# 3 25.7925 30.7370 154.9327 0.0000 0.0000 0.0000
# 4 0.0000 0.0000 0.0000 29.1165 0.0000 0.0000
# 5 0.0000 0.0000 0.0000 0.0000 6.6743 0.0000
# 6 0.0000 0.0000 0.0000 0.0000 0.0000 -26.7620
#
#
#
# Elastic Compliance Matrix: (Units=1/GPa)
#
#
# Indices 1 2 3 4 5 6 
#
# 1 0.067062 -0.017283 -0.007735 0.000000 0.000000 0.000000
# 2 -0.017283 0.016241 -0.000345 0.000000 0.000000 0.000000
# 3 -0.007735 -0.000345 0.007811 0.000000 0.000000 0.000000
# 4 0.000000 0.000000 0.000000 0.034345 0.000000 0.000000
# 5 0.000000 0.000000 0.000000 0.000000 0.149829 0.000000
# 6 0.000000 0.000000 0.000000 0.000000 0.000000 -0.037366
#
#
# Mechanical properties :
#
#
# Convention : Reuss Voigt Hill
#
# Bulk Modulus (GPa) = 24.76054 48.63720 36.69887
# Shear Modulus (GPa) = 16.55031 14.28579 15.41805
#
# Velocity S-wave (km/s) = 2.78457 2.58707 2.68763
# Velocity P-wave (km/s) = 4.68389 5.63121 5.17925
#
# Compressibility (1/GPa) = 0.04038684
#
# Stress axis : x y z
#
# Youngs Moduli (GPa) = 14.91165 61.57303 128.03157
#
# Poissons Ratio (x) = 1.06416 0.99037
# Poissons Ratio (y) = 0.25772 0.04415
# Poissons Ratio (z) = 0.11535 0.02123
#
# Static dielectric constant tensor:
#      x y z
#    x 1.752800 0.000000 0.000000 
#    y 0.000000 1.826870 0.000000 
#    z 0.000000 0.000000 1.777510 
# 
# From -- ./inp_files/21808.got.cif
#   From: 2010.05.17/outbox.cif.g08.bks.cpg/sg20_11_cif.got.tgz:21808.got - 2010.06.03 22:52:26.
