data_PCOD9319503
_publ_section_title
;
Structure prediction by ZEFSAII (Michael W. Deem and Ramdas Pophale) SiO2 
 PCOD9319503
Probable space group: C 2 2 21
;
_chemical_formula_sum "Si O2"
_cell_formula_units_Z 64
_cell_length_a 14.328738
_cell_length_b 11.944882
_cell_length_c 17.452373
_cell_angle_alpha 90.000000
_cell_angle_beta 90.000000
_cell_angle_gamma 90.000000
_cell_volume 2987.062378
_symmetry_space_group_name_H-M "C 2 2 21"
_symmetry_group_IT_number 20
_symmetry_cell_setting 'orthorhombic'
loop_
_space_group_symop_operation_xyz
x,y,z
-x,-y,1/2+z
x,-y,-z
-x,y,1/2-z
1/2+x,1/2+y,z
1/2-x,1/2-y,1/2+z
1/2+x,1/2-y,-z
1/2-x,1/2+y,1/2-z
loop_
_atom_site_type_symbol
_atom_site_label
_atom_site_fract_x
_atom_site_fract_y
_atom_site_fract_z
Si Si1 0.243028 0.205166 0.326072
Si Si2 0.810383 0.439685 0.109801
Si Si3 0.496569 0.433483 0.331260
Si Si4 0.175964 0.004466 0.414540
Si Si5 0.088368 0.740597 0.078236
Si Si6 0.212252 0.296178 0.070163
Si Si7 0.339998 0.391658 0.671341
Si Si8 0.887310 0.355640 0.944993
O O1 0.206580 0.333485 0.334798
O O2 0.352571 0.201992 0.347204
O O3 0.215382 0.141582 0.248388
O O4 0.195036 0.131055 0.391907
O O5 0.719087 0.519297 0.119791
O O6 0.885091 0.540499 0.114925
O O7 0.840682 0.390516 0.026745
O O8 0.500000 0.370384 0.250000
O O9 0.600960 0.458766 0.355822
O O10 0.447047 0.362906 0.397539
O O11 0.436949 0.545508 0.316936
O O12 0.268728 0.927102 0.416029
O O13 0.136471 0.000000 0.500000
O O14 0.994334 0.679678 0.051474
O O15 0.163194 0.731207 0.010182
O O16 0.149910 0.226798 0.129280
O O17 0.315904 0.242055 0.079604
#
# Coordination Sequence:
#
# PCOD9319503 Si02
#       8
#     8   8   8   8   8   8   8   8
#     4  12  25  44  71 103 145 191 235 303 370 427
#     4  10  22  44  70  98 144 181 234 297 363 436
#     4  12  26  45  71 108 142 190 249 298 361 444
#     4  12  25  44  70 101 148 186 236 307 356 417
#     4  12  25  44  78 106 139 193 250 294 370 440
#     4  11  24  44  69 108 139 184 243 304 354 425
#     4  11  26  44  73 102 146 195 243 301 370 432
#     4  10  21  43  74 106 135 183 235 310 359 422
#
# _framework density 21.425733000000001
#
# number of rings (size 3 to 8) (size 9 to 14) (size 15 to 20)
#    0.000    0.750    6.250    0.000    5.250    2.000 
#    0.000    0.000    5.500    0.000    0.000    0.000 
#    0.000    0.000    0.000    0.000    0.000    0.000 
#
# Total GULP energy -178263.816505 kJ/mol
# GULP energy per Si atom -5570.744266 kJ/mol
# Density = 2.137697 g / cm^3
# Si number density = 21.425733 Si / 1000 Ang^3
#
#
#
# Elastic Constant Matrix: (Units=GPa)
#
#
# Indices 1 2 3 4 5 6 
#
# 1 98.0054 35.3117 28.8092 0.0000 0.0000 0.0000
# 2 35.3117 89.5767 17.9621 0.0000 0.0000 0.0000
# 3 28.8092 17.9621 68.0459 0.0000 0.0000 0.0000
# 4 0.0000 0.0000 0.0000 29.1992 0.0000 0.0000
# 5 0.0000 0.0000 0.0000 0.0000 32.7788 0.0000
# 6 0.0000 0.0000 0.0000 0.0000 0.0000 28.6431
#
#
#
# Elastic Compliance Matrix: (Units=1/GPa)
#
#
# Indices 1 2 3 4 5 6 
#
# 1 0.013028 -0.004255 -0.004393 0.000000 0.000000 0.000000
# 2 -0.004255 0.013177 -0.001677 0.000000 0.000000 0.000000
# 3 -0.004393 -0.001677 0.016998 0.000000 0.000000 0.000000
# 4 0.000000 0.000000 0.000000 0.034248 0.000000 0.000000
# 5 0.000000 0.000000 0.000000 0.000000 0.030508 0.000000
# 6 0.000000 0.000000 0.000000 0.000000 0.000000 0.034912
#
#
# Mechanical properties :
#
#
# Convention : Reuss Voigt Hill
#
# Bulk Modulus (GPa) = 44.33686 46.64378 45.49032
# Shear Modulus (GPa) = 29.23333 29.69388 29.46361
#
# Velocity S-wave (km/s) = 3.69779 3.72680 3.71233
# Velocity P-wave (km/s) = 6.24257 6.35106 6.29705
#
# Compressibility (1/GPa) = 0.02255460
#
# Stress axis : x y z
#
# Youngs Moduli (GPa) = 76.75918 75.88883 58.82929
#
# Poissons Ratio (x) = 0.32289 0.25841
# Poissons Ratio (y) = 0.32660 0.09866
# Poissons Ratio (z) = 0.33717 0.12726
#
# Static dielectric constant tensor:
#      x y z
#    x 1.761660 0.000000 0.000000 
#    y 0.000000 1.827160 0.000000 
#    z 0.000000 0.000000 1.847650 
# 
# From -- ./inp_files/25006.got.cif
#   From: 2010.05.17/outbox.cif.g08.bks.cpg/sg20_13_cif.got.tgz:25006.got - 2010.06.03 22:52:26.
