data_PCOD9319317
_publ_section_title
;
Structure prediction by ZEFSAII (Michael W. Deem and Ramdas Pophale) SiO2 
 PCOD9319317
Probable space group: C 2 2 21
;
_chemical_formula_sum "Si O2"
_cell_formula_units_Z 60
_cell_length_a 11.681213
_cell_length_b 8.178269
_cell_length_c 30.602639
_cell_angle_alpha 90.000000
_cell_angle_beta 90.000000
_cell_angle_gamma 90.000000
_cell_volume 2923.534435
_symmetry_space_group_name_H-M "C 2 2 21"
_symmetry_group_IT_number 20
_symmetry_cell_setting 'orthorhombic'
loop_
_space_group_symop_operation_xyz
x,y,z
-x,-y,1/2+z
x,-y,-z
-x,y,1/2-z
1/2+x,1/2+y,z
1/2-x,1/2-y,1/2+z
1/2+x,1/2-y,-z
1/2-x,1/2+y,1/2-z
loop_
_atom_site_type_symbol
_atom_site_label
_atom_site_fract_x
_atom_site_fract_y
_atom_site_fract_z
Si Si1 0.679288 0.842094 0.028943
Si Si2 0.450733 0.329807 0.595543
Si Si3 0.594693 0.603533 0.962689
Si Si4 0.616192 0.806160 0.672138
Si Si5 0.906069 0.692865 0.380763
Si Si6 0.816863 0.974014 0.103154
Si Si7 0.000000 0.885357 0.250000
Si Si8 0.147984 0.978139 0.825157
O O1 0.574276 0.819622 0.063613
O O2 0.787594 0.870998 0.059794
O O3 0.684155 0.697156 0.993372
O O4 0.660184 0.000000 0.000000
O O5 0.368119 0.462439 0.570806
O O6 0.576578 0.405831 0.594711
O O7 0.409661 0.335283 0.645172
O O8 0.552063 0.738706 0.928067
O O9 0.524484 0.500000 0.000000
O O10 0.510922 0.886130 0.645518
O O11 0.653862 0.651919 0.641772
O O12 0.571727 0.729072 0.717182
O O13 0.720579 0.928672 0.678940
O O14 0.795283 0.580886 0.386379
O O15 0.871841 0.851475 0.351282
O O16 0.916583 0.995226 0.279689
#
# Coordination Sequence:
#
# PCOD9319317 Si02
#       8
#     8   8   8   8   8   8   4   8
#     4  11  22  36  61  96 128 169 230 259 311 385
#     4  10  21  41  66  88 130 177 210 265 334 377
#     4   9  18  37  57  82 130 165 215 266 300 371
#     4  11  23  44  70  91 130 168 208 267 330 392
#     4  10  22  41  61  93 129 167 217 260 321 378
#     4  12  22  40  68  92 128 179 210 270 328 379
#     4  10  22  42  68 104 124 160 218 268 326 408
#     4  10  21  44  69  95 130 169 209 266 335 393
#
# _framework density 20.523102999999999
#
# number of rings (size 3 to 8) (size 9 to 14) (size 15 to 20)
#    0.000    1.600    6.667    0.000    0.000    4.800 
#    0.000    0.667    0.000    0.000    0.000    0.000 
#    0.000    0.000    0.000    0.000    0.000    0.000 
#
# Total GULP energy -167057.863482 kJ/mol
# GULP energy per Si atom -5568.595449 kJ/mol
# Density = 2.047639 g / cm^3
# Si number density = 20.523103 Si / 1000 Ang^3
#
#
#
# Elastic Constant Matrix: (Units=GPa)
#
#
# Indices 1 2 3 4 5 6 
#
# 1 134.6685 35.1431 57.8808 0.0000 0.0000 0.0000
# 2 35.1431 38.2076 25.6894 0.0000 0.0000 0.0000
# 3 57.8808 25.6894 143.5025 0.0000 0.0000 0.0000
# 4 0.0000 0.0000 0.0000 23.8891 0.0000 0.0000
# 5 0.0000 0.0000 0.0000 0.0000 38.3310 0.0000
# 6 0.0000 0.0000 0.0000 0.0000 0.0000 38.0085
#
#
#
# Elastic Compliance Matrix: (Units=1/GPa)
#
#
# Indices 1 2 3 4 5 6 
#
# 1 0.010747 -0.007924 -0.002916 0.000000 0.000000 0.000000
# 2 -0.007924 0.035597 -0.003176 0.000000 0.000000 0.000000
# 3 -0.002916 -0.003176 0.008713 0.000000 0.000000 0.000000
# 4 0.000000 0.000000 0.000000 0.041860 0.000000 0.000000
# 5 0.000000 0.000000 0.000000 0.000000 0.026089 0.000000
# 6 0.000000 0.000000 0.000000 0.000000 0.000000 0.026310
#
#
# Mechanical properties :
#
#
# Convention : Reuss Voigt Hill
#
# Bulk Modulus (GPa) = 37.00415 61.53392 49.26904
# Shear Modulus (GPa) = 26.83020 33.22341 30.02680
#
# Velocity S-wave (km/s) = 3.61961 4.02783 3.82916
# Velocity P-wave (km/s) = 5.96141 7.18882 6.60369
#
# Compressibility (1/GPa) = 0.02702399
#
# Stress axis : x y z
#
# Youngs Moduli (GPa) = 93.05008 28.09220 114.76671
#
# Poissons Ratio (x) = 0.22261 0.33467
# Poissons Ratio (y) = 0.73735 0.36453
# Poissons Ratio (z) = 0.27134 0.08923
#
# Static dielectric constant tensor:
#      x y z
#    x 1.747750 0.000000 0.000000 
#    y 0.000000 1.836530 0.000000 
#    z 0.000000 0.000000 1.757710 
# 
# From -- ./inp_files/31167.got.cif
#   From: 2010.05.17/outbox.cif.g08.bks.cpg/sg20_16_cif.got.tgz:31167.got - 2010.06.03 22:52:26.
