data_PCOD9319577
_publ_section_title
;
Structure prediction by ZEFSAII (Michael W. Deem and Ramdas Pophale) SiO2 
 PCOD9319577
Probable space group: C 2 2 21
;
_chemical_formula_sum "Si O2"
_cell_formula_units_Z 40
_cell_length_a 25.651441
_cell_length_b 7.847445
_cell_length_c 8.553974
_cell_angle_alpha 90.000000
_cell_angle_beta 90.000000
_cell_angle_gamma 90.000000
_cell_volume 1721.900189
_symmetry_space_group_name_H-M "C 2 2 21"
_symmetry_group_IT_number 20
_symmetry_cell_setting 'orthorhombic'
loop_
_space_group_symop_operation_xyz
x,y,z
-x,-y,1/2+z
x,-y,-z
-x,y,1/2-z
1/2+x,1/2+y,z
1/2-x,1/2-y,1/2+z
1/2+x,1/2-y,-z
1/2-x,1/2+y,1/2-z
loop_
_atom_site_type_symbol
_atom_site_label
_atom_site_fract_x
_atom_site_fract_y
_atom_site_fract_z
Si Si1 0.207373 0.859848 0.619233
Si Si2 0.501366 0.307278 0.936682
Si Si3 0.705065 0.386698 0.123261
Si Si4 0.390586 0.180988 0.420425
Si Si5 0.108295 0.205135 0.553260
O O1 0.254360 0.750077 0.687121
O O2 0.161973 0.751399 0.536297
O O3 0.230636 0.000000 0.500000
O O4 0.183707 0.986588 0.746928
O O5 0.500000 0.307557 0.750000
O O6 0.503329 0.500000 0.000000
O O7 0.552957 0.225030 0.009659
O O8 0.446712 0.226531 0.990146
O O9 0.657468 0.301179 0.032618
O O10 0.736073 0.500000 0.000000
O O11 0.390456 0.223544 0.232298
O O12 0.378082 0.000000 0.500000
O O13 0.105354 0.000000 0.500000
#
# Coordination Sequence:
#
# PCOD9319577 Si02
#       5
#     8   8   8   8   8
#     4  11  23  47  73 110 152 206 254 317 394 464
#     4  11  24  43  75 109 145 202 263 319 394 474
#     4  12  26  44  76 108 153 197 264 320 386 474
#     4  12  26  46  74 111 154 200 258 327 397 467
#     4  10  21  46  75 105 153 208 260 319 391 473
#
# _framework density 23.230150999999999
#
# number of rings (size 3 to 8) (size 9 to 14) (size 15 to 20)
#    0.000    0.800    4.000    5.400    2.800    1.600 
#    0.000    1.000    0.000    0.000    0.000    0.000 
#    0.000    0.000    0.000    0.000    0.000    0.000 
#
# Total GULP energy -111461.690429 kJ/mol
# GULP energy per Si atom -5573.084521 kJ/mol
# Density = 2.317728 g / cm^3
# Si number density = 23.230151 Si / 1000 Ang^3
#
#
#
# Elastic Constant Matrix: (Units=GPa)
#
#
# Indices 1 2 3 4 5 6 
#
# 1 157.5745 45.3752 55.2936 0.0000 0.0000 0.0000
# 2 45.3752 79.1069 72.2425 0.0000 0.0000 0.0000
# 3 55.2936 72.2425 160.9464 0.0000 0.0000 0.0000
# 4 0.0000 0.0000 0.0000 30.7893 0.0000 0.0000
# 5 0.0000 0.0000 0.0000 0.0000 36.0061 0.0000
# 6 0.0000 0.0000 0.0000 0.0000 0.0000 14.4927
#
#
#
# Elastic Compliance Matrix: (Units=1/GPa)
#
#
# Indices 1 2 3 4 5 6 
#
# 1 0.007720 -0.003400 -0.001126 0.000000 0.000000 0.000000
# 2 -0.003400 0.022920 -0.009120 0.000000 0.000000 0.000000
# 3 -0.001126 -0.009120 0.010694 0.000000 0.000000 0.000000
# 4 0.000000 0.000000 0.000000 0.032479 0.000000 0.000000
# 5 0.000000 0.000000 0.000000 0.000000 0.027773 0.000000
# 6 0.000000 0.000000 0.000000 0.000000 0.000000 0.069000
#
#
# Mechanical properties :
#
#
# Convention : Reuss Voigt Hill
#
# Bulk Modulus (GPa) = 71.21473 82.60560 76.91016
# Shear Modulus (GPa) = 24.68430 31.23874 27.96152
#
# Velocity S-wave (km/s) = 3.26329 3.67106 3.47316
# Velocity P-wave (km/s) = 6.70235 7.32160 7.01880
#
# Compressibility (1/GPa) = 0.01404204
#
# Stress axis : x y z
#
# Youngs Moduli (GPa) = 129.52607 43.63087 93.51327
#
# Poissons Ratio (x) = 0.14834 0.10533
# Poissons Ratio (y) = 0.44036 0.85281
# Poissons Ratio (z) = 0.14589 0.39790
#
# Static dielectric constant tensor:
#      x y z
#    x 1.856190 0.000000 0.000000 
#    y 0.000000 1.878000 0.000000 
#    z 0.000000 0.000000 2.000740 
# 
# From -- ./inp_files/10497.got.cif
#   From: 2010.05.17/outbox.cif.g08.bks.cpg/sg20_6_cif.got.tgz:10497.got - 2010.06.03 22:52:26.
