data_PCOD9319742
_publ_section_title
;
Structure prediction by ZEFSAII (Michael W. Deem and Ramdas Pophale) SiO2 
 PCOD9319742
Probable space group: C 2 2 21
;
_chemical_formula_sum "Si O2"
_cell_formula_units_Z 48
_cell_length_a 24.253833
_cell_length_b 5.140899
_cell_length_c 21.387509
_cell_angle_alpha 90.000000
_cell_angle_beta 90.000000
_cell_angle_gamma 90.000000
_cell_volume 2666.733765
_symmetry_space_group_name_H-M "C 2 2 21"
_symmetry_group_IT_number 20
_symmetry_cell_setting 'orthorhombic'
loop_
_space_group_symop_operation_xyz
x,y,z
-x,-y,1/2+z
x,-y,-z
-x,y,1/2-z
1/2+x,1/2+y,z
1/2-x,1/2-y,1/2+z
1/2+x,1/2-y,-z
1/2-x,1/2+y,1/2-z
loop_
_atom_site_type_symbol
_atom_site_label
_atom_site_fract_x
_atom_site_fract_y
_atom_site_fract_z
Si Si1 0.258443 0.578121 0.934576
Si Si2 0.081104 0.500000 0.500000
Si Si3 0.151445 0.487487 0.860173
Si Si4 0.895996 0.012865 0.428383
Si Si5 0.677545 0.081917 0.594388
Si Si6 0.710748 0.041379 0.738420
Si Si7 0.995873 0.000000 0.000000
O O1 0.214611 0.514944 0.882086
O O2 0.308466 0.376169 0.925861
O O3 0.278215 0.873144 0.931981
O O4 0.231627 0.500000 0.000000
O O5 0.120671 0.506331 0.560943
O O6 0.042262 0.250272 0.499776
O O7 0.126866 0.221324 0.886724
O O8 0.159442 0.509205 0.786082
O O9 0.119662 0.721991 0.893882
O O10 0.872337 0.000000 0.500000
O O11 0.961353 0.994823 0.441720
O O12 0.685887 0.060340 0.668675
O O13 0.747598 0.296174 0.754326
#
# Coordination Sequence:
#
# PCOD9319742 Si02
#       7
#     8   4   8   8   8   8   4
#     4  12  21  34  55  90 127 157 187 249 284 358
#     4  12  22  42  65  84 115 158 196 268 302 338
#     4  12  21  36  62  84 132 161 189 239 301 354
#     4  10  22  39  60  94 110 149 202 253 312 360
#     4  12  23  38  58  89 123 162 208 223 295 367
#     4  12  23  40  56  85 131 176 195 225 280 361
#     4  10  24  42  65  86 117 144 202 274 318 348
#
# _framework density 17.999548000000001
#
# number of rings (size 3 to 8) (size 9 to 14) (size 15 to 20)
#    0.500    0.000    5.000    5.500    0.000    0.000 
#    0.000    0.000    0.000    6.000    0.000    0.000 
#    0.000    0.000    0.000    0.000    0.000    0.000 
#
# Total GULP energy -133972.071826 kJ/mol
# GULP energy per Si atom -5582.169659 kJ/mol
# Density = 1.795858 g / cm^3
# Si number density = 17.999548 Si / 1000 Ang^3
#
#
#
# Elastic Constant Matrix: (Units=GPa)
#
#
# Indices 1 2 3 4 5 6 
#
# 1 71.5889 16.6723 9.8273 0.0000 0.0000 0.0000
# 2 16.6723 97.7131 15.8949 0.0000 0.0000 0.0000
# 3 9.8273 15.8949 114.2391 0.0000 0.0000 0.0000
# 4 0.0000 0.0000 0.0000 22.2923 0.0000 0.0000
# 5 0.0000 0.0000 0.0000 0.0000 6.1637 0.0000
# 6 0.0000 0.0000 0.0000 0.0000 0.0000 26.5831
#
#
#
# Elastic Compliance Matrix: (Units=1/GPa)
#
#
# Indices 1 2 3 4 5 6 
#
# 1 0.014643 -0.002347 -0.000933 0.000000 0.000000 0.000000
# 2 -0.002347 0.010847 -0.001307 0.000000 0.000000 0.000000
# 3 -0.000933 -0.001307 0.009016 0.000000 0.000000 0.000000
# 4 0.000000 0.000000 0.000000 0.044859 0.000000 0.000000
# 5 0.000000 0.000000 0.000000 0.000000 0.162240 0.000000
# 6 0.000000 0.000000 0.000000 0.000000 0.000000 0.037618
#
#
# Mechanical properties :
#
#
# Convention : Reuss Voigt Hill
#
# Bulk Modulus (GPa) = 39.47628 40.92557 40.20092
# Shear Modulus (GPa) = 16.84402 27.08425 21.96414
#
# Velocity S-wave (km/s) = 3.06241 3.88328 3.49701
# Velocity P-wave (km/s) = 5.87230 6.54926 6.22000
#
# Compressibility (1/GPa) = 0.02533167
#
# Stress axis : x y z
#
# Youngs Moduli (GPa) = 68.29071 92.19039 110.91705
#
# Poissons Ratio (x) = 0.21634 0.10350
# Poissons Ratio (y) = 0.16026 0.14501
# Poissons Ratio (z) = 0.06373 0.12053
#
# Static dielectric constant tensor:
#      x y z
#    x 1.596000 0.000000 0.000000 
#    y 0.000000 1.618030 0.000000 
#    z 0.000000 0.000000 1.655610 
# 
# From -- ./inp_files/27983.got.cif
#   From: 2010.05.17/outbox.cif.g08.bks.cpg/sg20_14_cif.got.tgz:27983.got - 2010.06.03 22:52:26.
