data_PCOD9319594
_publ_section_title
;
Structure prediction by ZEFSAII (Michael W. Deem and Ramdas Pophale) SiO2 
 PCOD9319594
Probable space group: C 2 2 21
;
_chemical_formula_sum "Si O2"
_cell_formula_units_Z 28
_cell_length_a 17.069137
_cell_length_b 14.234541
_cell_length_c 5.007933
_cell_angle_alpha 90.000000
_cell_angle_beta 90.000000
_cell_angle_gamma 90.000000
_cell_volume 1216.784144
_symmetry_space_group_name_H-M "C 2 2 21"
_symmetry_group_IT_number 20
_symmetry_cell_setting 'orthorhombic'
loop_
_space_group_symop_operation_xyz
x,y,z
-x,-y,1/2+z
x,-y,-z
-x,y,1/2-z
1/2+x,1/2+y,z
1/2-x,1/2-y,1/2+z
1/2+x,1/2-y,-z
1/2-x,1/2+y,1/2-z
loop_
_atom_site_type_symbol
_atom_site_label
_atom_site_fract_x
_atom_site_fract_y
_atom_site_fract_z
Si Si1 0.215248 0.369427 0.663110
Si Si2 0.680282 0.500000 0.500000
Si Si3 0.652055 0.792577 0.169153
Si Si4 0.549422 0.648333 0.484981
O O1 0.278808 0.284847 0.648967
O O2 0.149172 0.337033 0.876540
O O3 0.264773 0.455217 0.776428
O O4 0.178080 0.373279 0.373333
O O5 0.622517 0.584938 0.581349
O O6 0.583198 0.736111 0.315831
O O7 0.500000 0.670372 0.750000
O O8 0.500000 0.595389 0.250000
#
# Coordination Sequence:
#
# PCOD9319594 Si02
#       4
#     8   4   8   8
#     4   9  18  32  51  73 101 134 173 222 257 299
#     4  10  22  34  54  84 114 136 168 218 280 318
#     4   9  18  33  50  71 100 139 181 209 248 304
#     4  11  22  35  53  79 113 147 172 206 259 329
#
# _framework density 23.011478
#
# number of rings (size 3 to 8) (size 9 to 14) (size 15 to 20)
#    0.000    2.286    0.000    2.571    0.000   10.286 
#    0.000    0.000    0.000    0.000    0.000   20.000 
#    0.000    0.000    0.000    0.000    0.000    0.000 
#
# Total GULP energy -78173.822204 kJ/mol
# GULP energy per Si atom -5583.844443 kJ/mol
# Density = 2.295910 g / cm^3
# Si number density = 23.011478 Si / 1000 Ang^3
#
#
#
# Elastic Constant Matrix: (Units=GPa)
#
#
# Indices 1 2 3 4 5 6 
#
# 1 42.4961 30.3117 -3.4767 0.0000 0.0000 0.0000
# 2 30.3117 57.3192 14.2862 0.0000 0.0000 0.0000
# 3 -3.4767 14.2862 99.3015 0.0000 0.0000 0.0000
# 4 0.0000 0.0000 0.0000 29.2991 0.0000 0.0000
# 5 0.0000 0.0000 0.0000 0.0000 19.6919 0.0000
# 6 0.0000 0.0000 0.0000 0.0000 0.0000 24.4320
#
#
#
# Elastic Compliance Matrix: (Units=1/GPa)
#
#
# Indices 1 2 3 4 5 6 
#
# 1 0.039690 -0.022129 0.004573 0.000000 0.000000 0.000000
# 2 -0.022129 0.030433 -0.005153 0.000000 0.000000 0.000000
# 3 0.004573 -0.005153 0.010972 0.000000 0.000000 0.000000
# 4 0.000000 0.000000 0.000000 0.034131 0.000000 0.000000
# 5 0.000000 0.000000 0.000000 0.000000 0.050782 0.000000
# 6 0.000000 0.000000 0.000000 0.000000 0.000000 0.040930
#
#
# Mechanical properties :
#
#
# Convention : Reuss Voigt Hill
#
# Bulk Modulus (GPa) = 28.02911 31.26212 29.64562
# Shear Modulus (GPa) = 18.92176 25.21764 22.06970
#
# Velocity S-wave (km/s) = 2.87064 3.31399 3.10025
# Velocity P-wave (km/s) = 4.81606 5.31585 5.07211
#
# Compressibility (1/GPa) = 0.03567720
#
# Stress axis : x y z
#
# Youngs Moduli (GPa) = 25.19553 32.85957 91.14268
#
# Poissons Ratio (x) = 0.72713 -0.41681
# Poissons Ratio (y) = 0.55754 0.46966
# Poissons Ratio (z) = -0.11522 0.16933
#
# Static dielectric constant tensor:
#      x y z
#    x 1.932240 0.000000 0.000000 
#    y 0.000000 1.914410 0.000000 
#    z 0.000000 0.000000 1.861620 
# 
# From -- ./inp_files/2367.got.cif
#   From: 2010.05.17/outbox.cif.g08.bks.cpg/sg20_2_cif.got.tgz:2367.got - 2010.06.03 22:52:26.
