data_PCOD9319786
_publ_section_title
;
Structure prediction by ZEFSAII (Michael W. Deem and Ramdas Pophale) SiO2 
 PCOD9319786
Probable space group: C 2 2 21
;
_chemical_formula_sum "Si O2"
_cell_formula_units_Z 40
_cell_length_a 9.027040
_cell_length_b 7.196656
_cell_length_c 24.129905
_cell_angle_alpha 90.000000
_cell_angle_beta 90.000000
_cell_angle_gamma 90.000000
_cell_volume 1567.587251
_symmetry_space_group_name_H-M "C 2 2 21"
_symmetry_group_IT_number 20
_symmetry_cell_setting 'orthorhombic'
loop_
_space_group_symop_operation_xyz
x,y,z
-x,-y,1/2+z
x,-y,-z
-x,y,1/2-z
1/2+x,1/2+y,z
1/2-x,1/2-y,1/2+z
1/2+x,1/2-y,-z
1/2-x,1/2+y,1/2-z
loop_
_atom_site_type_symbol
_atom_site_label
_atom_site_fract_x
_atom_site_fract_y
_atom_site_fract_z
Si Si1 0.985477 0.215875 0.483752
Si Si2 0.792005 0.271252 0.575169
Si Si3 0.852655 0.423240 0.781308
Si Si4 0.857777 0.851349 0.817169
Si Si5 0.836958 0.134868 0.375755
O O1 0.934864 0.322411 0.538900
O O2 0.890539 0.256133 0.428075
O O3 0.155472 0.229040 0.467378
O O4 0.960672 0.000000 0.500000
O O5 0.749726 0.382947 0.630076
O O6 0.799274 0.062647 0.597833
O O7 0.877352 0.632079 0.802940
O O8 0.721361 0.433108 0.736362
O O9 0.795775 0.308121 0.834690
O O10 0.000000 0.354918 0.750000
O O11 0.020176 0.905676 0.837285
#
# Coordination Sequence:
#
# PCOD9319786 Si02
#       5
#     8   8   8   8   8
#     4   9  18  36  57  81 114 150 192 242 294 354
#     4   9  19  36  60  85 115 155 194 239 297 350
#     4  11  22  36  58  87 115 152 201 248 296 352
#     4  10  22  40  59  85 121 157 196 246 297 350
#     4   9  19  38  58  80 118 158 191 241 302 352
#
# _framework density 25.516922000000001
#
# number of rings (size 3 to 8) (size 9 to 14) (size 15 to 20)
#    0.000    2.400    0.000    1.800    0.000    4.800 
#    0.000   25.000    0.000    0.000    0.000    0.000 
#    0.000    0.000    0.000    0.000    0.000    0.000 
#
# Total GULP energy -111891.031301 kJ/mol
# GULP energy per Si atom -5594.551565 kJ/mol
# Density = 2.545884 g / cm^3
# Si number density = 25.516922 Si / 1000 Ang^3
#
#
#
# Elastic Constant Matrix: (Units=GPa)
#
#
# Indices 1 2 3 4 5 6 
#
# 1 8.2302 13.6709 72.3205 0.0000 0.0000 0.0000
# 2 13.6709 51.7867 14.4756 0.0000 0.0000 0.0000
# 3 72.3205 14.4756 148.2763 0.0000 0.0000 0.0000
# 4 0.0000 0.0000 0.0000 28.3492 0.0000 0.0000
# 5 0.0000 0.0000 0.0000 0.0000 77.2453 0.0000
# 6 0.0000 0.0000 0.0000 0.0000 0.0000 23.5951
#
#
#
# Elastic Compliance Matrix: (Units=1/GPa)
#
#
# Indices 1 2 3 4 5 6 
#
# 1 -0.035828 0.004702 0.017016 0.000000 0.000000 0.000000
# 2 0.004702 0.019235 -0.004171 0.000000 0.000000 0.000000
# 3 0.017016 -0.004171 -0.001148 0.000000 0.000000 0.000000
# 4 0.000000 0.000000 0.000000 0.035274 0.000000 0.000000
# 5 0.000000 0.000000 0.000000 0.000000 0.012946 0.000000
# 6 0.000000 0.000000 0.000000 0.000000 0.000000 0.042382
#
#
# Mechanical properties :
#
#
# Convention : Reuss Voigt Hill
#
# Bulk Modulus (GPa) = 57.63109 45.46968 51.55039
# Shear Modulus (GPa) = 114.80757 33.02634 73.91695
#
# Velocity S-wave (km/s) = 6.71494 3.60153 5.38801
# Velocity P-wave (km/s) = 9.09698 5.92898 7.67814
#
# Compressibility (1/GPa) = 0.01735174
#
# Stress axis : x y z
#
# Youngs Moduli (GPa) = -27.91101 51.98939 -871.11002
#
# Poissons Ratio (x) = -0.24444 14.82268
# Poissons Ratio (y) = 0.13123 -3.63345
# Poissons Ratio (z) = 0.47493 0.21685
#
# Static dielectric constant tensor:
#      x y z
#    x 1.980220 0.000000 0.000000 
#    y 0.000000 1.998580 0.000000 
#    z 0.000000 0.000000 1.988850 
# 
# From -- ./inp_files/28586.got.cif
#   From: 2010.05.17/outbox.cif.g08.bks.cpg/sg20_15_cif.got.tgz:28586.got - 2010.06.03 22:52:26.
