data_PCOD9319891
_publ_section_title
;
Structure prediction by ZEFSAII (Michael W. Deem and Ramdas Pophale) SiO2 
 PCOD9319891
Probable space group: C 2 2 21
;
_chemical_formula_sum "Si O2"
_cell_formula_units_Z 32
_cell_length_a 5.568528
_cell_length_b 37.005950
_cell_length_c 7.345578
_cell_angle_alpha 90.000000
_cell_angle_beta 90.000000
_cell_angle_gamma 90.000000
_cell_volume 1513.693480
_symmetry_space_group_name_H-M "C 2 2 21"
_symmetry_group_IT_number 20
_symmetry_cell_setting 'orthorhombic'
loop_
_space_group_symop_operation_xyz
x,y,z
-x,-y,1/2+z
x,-y,-z
-x,y,1/2-z
1/2+x,1/2+y,z
1/2-x,1/2-y,1/2+z
1/2+x,1/2-y,-z
1/2-x,1/2+y,1/2-z
loop_
_atom_site_type_symbol
_atom_site_label
_atom_site_fract_x
_atom_site_fract_y
_atom_site_fract_z
Si Si1 0.000000 0.228499 0.750000
Si Si2 0.011622 0.957538 0.465361
Si Si3 0.513738 0.920148 0.471140
Si Si4 0.500000 0.142755 0.250000
Si Si5 0.299326 0.291976 0.896269
O O1 0.871478 0.257048 0.616416
O O2 0.140098 0.203953 0.607705
O O3 0.746819 0.944212 0.526018
O O4 0.000000 0.951730 0.250000
O O5 0.254117 0.936929 0.529322
O O6 0.040148 0.000000 0.500000
O O7 0.500000 0.916330 0.250000
O O8 0.554339 0.882948 0.579104
O O9 0.299983 0.170674 0.318029
O O10 0.500000 0.281966 0.750000
#
# Coordination Sequence:
#
# PCOD9319891 Si02
#       5
#     4   8   8   4   8
#     4  11  22  44  70  98 136 170 226 300 324 416
#     4  10  22  40  68  98 129 177 231 288 348 401
#     4  10  24  44  64  97 142 176 230 286 341 417
#     4  11  28  42  68  98 136 192 218 270 362 426
#     4  11  24  42  69 102 133 173 230 275 356 406
#
# _framework density 21.140342
#
# number of rings (size 3 to 8) (size 9 to 14) (size 15 to 20)
#    0.000    1.500    2.500    0.750    7.000    2.000 
#    2.250    0.000    0.000    0.000    0.000    0.000 
#    0.000    0.000    0.000    0.000    0.000    0.000 
#
# Total GULP energy -89164.701597 kJ/mol
# GULP energy per Si atom -5572.793850 kJ/mol
# Density = 2.109223 g / cm^3
# Si number density = 21.140342 Si / 1000 Ang^3
#
#
#
# Elastic Constant Matrix: (Units=GPa)
#
#
# Indices 1 2 3 4 5 6 
#
# 1 108.2429 43.1270 35.3765 0.0000 0.0000 0.0000
# 2 43.1270 102.1076 29.3840 0.0000 0.0000 0.0000
# 3 35.3765 29.3840 126.3651 0.0000 0.0000 0.0000
# 4 0.0000 0.0000 0.0000 63.3055 0.0000 0.0000
# 5 0.0000 0.0000 0.0000 0.0000 6.5513 0.0000
# 6 0.0000 0.0000 0.0000 0.0000 0.0000 2.3773
#
#
#
# Elastic Compliance Matrix: (Units=1/GPa)
#
#
# Indices 1 2 3 4 5 6 
#
# 1 0.011688 -0.004282 -0.002277 0.000000 0.000000 0.000000
# 2 -0.004282 0.012064 -0.001607 0.000000 0.000000 0.000000
# 3 -0.002277 -0.001607 0.008925 0.000000 0.000000 0.000000
# 4 0.000000 0.000000 0.000000 0.015796 0.000000 0.000000
# 5 0.000000 0.000000 0.000000 0.000000 0.152641 0.000000
# 6 0.000000 0.000000 0.000000 0.000000 0.000000 0.420640
#
#
# Mechanical properties :
#
#
# Convention : Reuss Voigt Hill
#
# Bulk Modulus (GPa) = 61.17165 61.38782 61.27974
# Shear Modulus (GPa) = 7.76960 29.70205 18.73583
#
# Velocity S-wave (km/s) = 1.91917 3.75239 2.98024
# Velocity P-wave (km/s) = 5.82321 6.91919 6.39472
#
# Compressibility (1/GPa) = 0.01634744
#
# Stress axis : x y z
#
# Youngs Moduli (GPa) = 85.55437 82.88852 112.05072
#
# Poissons Ratio (x) = 0.35490 0.25510
# Poissons Ratio (y) = 0.36632 0.18003
# Poissons Ratio (z) = 0.19477 0.13318
#
# Static dielectric constant tensor:
#      x y z
#    x 1.701130 0.000000 0.000000 
#    y 0.000000 1.780050 0.000000 
#    z 0.000000 0.000000 1.752440 
# 
# From -- ./inp_files/5172.got.cif
#   From: 2010.05.17/outbox.cif.g08.bks.cpg/sg20_3_cif.got.tgz:5172.got - 2010.06.03 22:52:26.
