data_PCOD9319009
_publ_section_title
;
Structure prediction by ZEFSAII (Michael W. Deem and Ramdas Pophale) SiO2 
 PCOD9319009
Probable space group: C 2 2 21
;
_chemical_formula_sum "Si O2"
_cell_formula_units_Z 40
_cell_length_a 20.036098
_cell_length_b 11.136304
_cell_length_c 8.525619
_cell_angle_alpha 90.000000
_cell_angle_beta 90.000000
_cell_angle_gamma 90.000000
_cell_volume 1902.304984
_symmetry_space_group_name_H-M "C 2 2 21"
_symmetry_group_IT_number 20
_symmetry_cell_setting 'orthorhombic'
loop_
_space_group_symop_operation_xyz
x,y,z
-x,-y,1/2+z
x,-y,-z
-x,y,1/2-z
1/2+x,1/2+y,z
1/2-x,1/2-y,1/2+z
1/2+x,1/2-y,-z
1/2-x,1/2+y,1/2-z
loop_
_atom_site_type_symbol
_atom_site_label
_atom_site_fract_x
_atom_site_fract_y
_atom_site_fract_z
Si Si1 0.850781 0.553568 0.756714
Si Si2 0.958427 0.282989 0.403460
Si Si3 0.550629 0.000000 0.500000
Si Si4 0.222154 0.229621 0.354561
Si Si5 0.335990 0.643009 0.482197
Si Si6 0.244524 0.000000 0.500000
O O1 0.897497 0.629626 0.642708
O O2 0.820293 0.649699 0.877569
O O3 0.791598 0.501701 0.653211
O O4 0.902183 0.474898 0.851424
O O5 0.914913 0.176886 0.480308
O O6 0.000000 0.240429 0.250000
O O7 0.007983 0.378544 0.482676
O O8 0.297000 0.277774 0.387089
O O9 0.200404 0.182488 0.182175
O O10 0.206073 0.123890 0.477522
O O11 0.327210 0.500000 0.500000
#
# Coordination Sequence:
#
# PCOD9319009 Si02
#       6
#     8   8   4   8   8   4
#     4  10  22  37  61  95 129 165 215 266 325 390
#     4   9  19  40  65  90 126 173 220 278 318 380
#     4  10  21  38  70  94 122 173 226 274 324 378
#     4  11  23  40  64  99 133 174 211 272 335 400
#     4  11  24  42  69  97 139 176 219 272 338 397
#     4  12  21  38  64  94 138 167 206 270 336 396
#
# _framework density 21.027125000000002
#
# number of rings (size 3 to 8) (size 9 to 14) (size 15 to 20)
#    0.000    1.600    4.000    1.800    4.200    0.000 
#    0.000    0.000   24.200    0.000    0.000    0.000 
#    0.000    0.000    0.000    0.000    0.000    0.000 
#
# Total GULP energy -111378.848632 kJ/mol
# GULP energy per Si atom -5568.942432 kJ/mol
# Density = 2.097927 g / cm^3
# Si number density = 21.027125 Si / 1000 Ang^3
#
#
#
# Elastic Constant Matrix: (Units=GPa)
#
#
# Indices 1 2 3 4 5 6 
#
# 1 85.2340 45.5632 42.8363 0.0000 0.0000 0.0000
# 2 45.5632 116.5383 43.7455 0.0000 0.0000 0.0000
# 3 42.8363 43.7455 52.1566 0.0000 0.0000 0.0000
# 4 0.0000 0.0000 0.0000 34.4829 0.0000 0.0000
# 5 0.0000 0.0000 0.0000 0.0000 30.7568 0.0000
# 6 0.0000 0.0000 0.0000 0.0000 0.0000 21.1900
#
#
#
# Elastic Compliance Matrix: (Units=1/GPa)
#
#
# Indices 1 2 3 4 5 6 
#
# 1 0.020454 -0.002468 -0.014729 0.000000 0.000000 0.000000
# 2 -0.002468 0.012822 -0.008727 0.000000 0.000000 0.000000
# 3 -0.014729 -0.008727 0.038589 0.000000 0.000000 0.000000
# 4 0.000000 0.000000 0.000000 0.029000 0.000000 0.000000
# 5 0.000000 0.000000 0.000000 0.000000 0.032513 0.000000
# 6 0.000000 0.000000 0.000000 0.000000 0.000000 0.047192
#
#
# Mechanical properties :
#
#
# Convention : Reuss Voigt Hill
#
# Bulk Modulus (GPa) = 49.95658 57.57989 53.76823
# Shear Modulus (GPa) = 20.91259 25.40488 23.15874
#
# Velocity S-wave (km/s) = 3.15707 3.47968 3.32230
# Velocity P-wave (km/s) = 6.09091 6.60207 6.35164
#
# Compressibility (1/GPa) = 0.02001738
#
# Stress axis : x y z
#
# Youngs Moduli (GPa) = 48.88997 77.99273 25.91386
#
# Poissons Ratio (x) = 0.19250 0.38168
# Poissons Ratio (y) = 0.12067 0.22615
# Poissons Ratio (z) = 0.72009 0.68064
#
# Static dielectric constant tensor:
#      x y z
#    x 1.806700 0.000000 0.000000 
#    y 0.000000 1.841710 0.000000 
#    z 0.000000 0.000000 1.901280 
# 
# From -- ./inp_files/7268.got.cif
#   From: 2010.05.17/outbox.cif.g08.bks.cpg/sg20_4_cif.got.tgz:7268.got - 2010.06.03 22:52:26.
