data_PCOD9319892
_publ_section_title
;
Structure prediction by ZEFSAII (Michael W. Deem and Ramdas Pophale) SiO2 
 PCOD9319892
Probable space group: C 2 2 21
;
_chemical_formula_sum "Si O2"
_cell_formula_units_Z 36
_cell_length_a 7.967073
_cell_length_b 16.566175
_cell_length_c 12.028175
_cell_angle_alpha 90.000000
_cell_angle_beta 90.000000
_cell_angle_gamma 90.000000
_cell_volume 1587.525754
_symmetry_space_group_name_H-M "C 2 2 21"
_symmetry_group_IT_number 20
_symmetry_cell_setting 'orthorhombic'
loop_
_space_group_symop_operation_xyz
x,y,z
-x,-y,1/2+z
x,-y,-z
-x,y,1/2-z
1/2+x,1/2+y,z
1/2-x,1/2-y,1/2+z
1/2+x,1/2-y,-z
1/2-x,1/2+y,1/2-z
loop_
_atom_site_type_symbol
_atom_site_label
_atom_site_fract_x
_atom_site_fract_y
_atom_site_fract_z
Si Si1 0.000000 0.267908 0.250000
Si Si2 0.675514 0.088881 0.613927
Si Si3 0.163806 0.819487 0.924001
Si Si4 0.085581 0.500000 0.000000
Si Si5 0.315387 0.653946 0.973803
Si Si6 0.000000 0.894966 0.250000
O O1 0.087926 0.331505 0.334068
O O2 0.147894 0.210618 0.202267
O O3 0.725975 0.114610 0.487649
O O4 0.843974 0.065209 0.681683
O O5 0.535325 0.020510 0.603824
O O6 0.209800 0.735307 0.984021
O O7 0.974325 0.844051 0.947752
O O8 0.202794 0.422135 0.996596
O O9 0.397755 0.649052 0.849590
#
# Coordination Sequence:
#
# PCOD9319892 Si02
#       6
#     4   8   8   4   8   4
#     4  12  20  42  71  95 134 188 220 284 354 422
#     4  11  23  41  71 100 140 179 233 283 359 412
#     4  11  22  41  69 103 130 183 230 285 334 430
#     4  12  24  44  66  96 142 188 222 298 344 416
#     4  11  22  41  70 101 143 175 237 282 352 416
#     4  10  22  40  69 101 130 196 214 278 356 442
#
# _framework density 22.676796
#
# number of rings (size 3 to 8) (size 9 to 14) (size 15 to 20)
#    0.000    0.889    6.667    0.000    0.000    3.556 
#    0.000    8.889    0.000    0.000    0.000    0.000 
#    0.000    0.000    0.000    0.000    0.000    0.000 
#
# Total GULP energy -100244.866105 kJ/mol
# GULP energy per Si atom -5569.159228 kJ/mol
# Density = 2.262518 g / cm^3
# Si number density = 22.676796 Si / 1000 Ang^3
#
#
#
# Elastic Constant Matrix: (Units=GPa)
#
#
# Indices 1 2 3 4 5 6 
#
# 1 135.3306 50.7489 24.5074 0.0000 0.0000 0.0000
# 2 50.7489 70.7613 20.9262 0.0000 0.0000 0.0000
# 3 24.5074 20.9262 78.2573 0.0000 0.0000 0.0000
# 4 0.0000 0.0000 0.0000 19.1822 0.0000 0.0000
# 5 0.0000 0.0000 0.0000 0.0000 39.4107 0.0000
# 6 0.0000 0.0000 0.0000 0.0000 0.0000 11.3492
#
#
#
# Elastic Compliance Matrix: (Units=1/GPa)
#
#
# Indices 1 2 3 4 5 6 
#
# 1 0.010237 -0.006943 -0.001349 0.000000 0.000000 0.000000
# 2 -0.006943 0.020054 -0.003188 0.000000 0.000000 0.000000
# 3 -0.001349 -0.003188 0.014053 0.000000 0.000000 0.000000
# 4 0.000000 0.000000 0.000000 0.052132 0.000000 0.000000
# 5 0.000000 0.000000 0.000000 0.000000 0.025374 0.000000
# 6 0.000000 0.000000 0.000000 0.000000 0.000000 0.088112
#
#
# Mechanical properties :
#
#
# Convention : Reuss Voigt Hill
#
# Bulk Modulus (GPa) = 46.76439 52.96825 49.86632
# Shear Modulus (GPa) = 20.82886 26.53286 23.68086
#
# Velocity S-wave (km/s) = 3.03398 3.42430 3.23503
# Velocity P-wave (km/s) = 5.73936 6.24845 5.99931
#
# Compressibility (1/GPa) = 0.02138379
#
# Stress axis : x y z
#
# Youngs Moduli (GPa) = 97.68216 49.86466 71.15667
#
# Poissons Ratio (x) = 0.34621 0.09602
# Poissons Ratio (y) = 0.67820 0.22687
# Poissons Ratio (z) = 0.13181 0.15898
#
# Static dielectric constant tensor:
#      x y z
#    x 1.866480 0.000000 0.000000 
#    y 0.000000 1.799480 0.000000 
#    z 0.000000 0.000000 1.981880 
# 
# From -- ./inp_files/12865.got.cif
#   From: 2010.05.17/outbox.cif.g08.bks.cpg/sg20_7_cif.got.tgz:12865.got - 2010.06.03 22:52:26.
