data_PCOD9319842
_publ_section_title
;
Structure prediction by ZEFSAII (Michael W. Deem and Ramdas Pophale) SiO2 
 PCOD9319842
Probable space group: C 2 2 21
;
_chemical_formula_sum "Si O2"
_cell_formula_units_Z 32
_cell_length_a 18.151690
_cell_length_b 4.875940
_cell_length_c 14.661432
_cell_angle_alpha 90.000000
_cell_angle_beta 90.000000
_cell_angle_gamma 90.000000
_cell_volume 1297.632784
_symmetry_space_group_name_H-M "C 2 2 21"
_symmetry_group_IT_number 20
_symmetry_cell_setting 'orthorhombic'
loop_
_space_group_symop_operation_xyz
x,y,z
-x,-y,1/2+z
x,-y,-z
-x,y,1/2-z
1/2+x,1/2+y,z
1/2-x,1/2-y,1/2+z
1/2+x,1/2-y,-z
1/2-x,1/2+y,1/2-z
loop_
_atom_site_type_symbol
_atom_site_label
_atom_site_fract_x
_atom_site_fract_y
_atom_site_fract_z
Si Si1 0.366520 0.178857 0.090415
Si Si2 0.921705 0.410768 0.275718
Si Si3 0.229836 0.185156 0.193393
Si Si4 0.523246 0.729841 0.936734
O O1 0.284916 0.282474 0.113562
O O2 0.439040 0.368066 0.083852
O O3 0.388756 0.006250 0.179725
O O4 0.361374 0.000000 0.000000
O O5 0.856132 0.239548 0.320779
O O6 0.940722 0.662098 0.343635
O O7 0.000000 0.274921 0.250000
O O8 0.257774 0.370153 0.278924
O O9 0.559576 0.500000 0.000000
O O10 0.517909 0.000000 0.000000
#
# Coordination Sequence:
#
# PCOD9319842 Si02
#       4
#     8   8   8   8
#     4   9  20  41  69  99 133 177 229 284 346 414
#     4   9  20  42  69  99 137 180 224 283 346 409
#     4  10  22  41  65  96 132 176 226 278 340 411
#     4  10  22  40  64  96 132 175 226 277 337 404
#
# _framework density 24.660287
#
# number of rings (size 3 to 8) (size 9 to 14) (size 15 to 20)
#    0.000    2.500    0.000    0.000    0.000   14.000 
#    0.000   28.750    0.000   10.500    0.000    0.000 
#    0.000    0.000    0.000    0.000    0.000    0.000 
#
# Total GULP energy -89323.145322 kJ/mol
# GULP energy per Si atom -5582.696583 kJ/mol
# Density = 2.460416 g / cm^3
# Si number density = 24.660287 Si / 1000 Ang^3
#
#
#
# Elastic Constant Matrix: (Units=GPa)
#
#
# Indices 1 2 3 4 5 6 
#
# 1 182.2463 25.0281 56.3631 0.0000 0.0000 0.0000
# 2 25.0281 73.5754 28.9591 0.0000 0.0000 0.0000
# 3 56.3631 28.9591 152.7934 0.0000 0.0000 0.0000
# 4 0.0000 0.0000 0.0000 43.9587 0.0000 0.0000
# 5 0.0000 0.0000 0.0000 0.0000 193.1500 0.0000
# 6 0.0000 0.0000 0.0000 0.0000 0.0000 17.4839
#
#
#
# Elastic Compliance Matrix: (Units=1/GPa)
#
#
# Indices 1 2 3 4 5 6 
#
# 1 0.006312 -0.001330 -0.002076 0.000000 0.000000 0.000000
# 2 -0.001330 0.014967 -0.002346 0.000000 0.000000 0.000000
# 3 -0.002076 -0.002346 0.007755 0.000000 0.000000 0.000000
# 4 0.000000 0.000000 0.000000 0.022749 0.000000 0.000000
# 5 0.000000 0.000000 0.000000 0.000000 0.005177 0.000000
# 6 0.000000 0.000000 0.000000 0.000000 0.000000 0.057195
#
#
# Mechanical properties :
#
#
# Convention : Reuss Voigt Hill
#
# Bulk Modulus (GPa) = 57.04568 69.92400 63.48484
# Shear Modulus (GPa) = 38.02167 70.80284 54.41226
#
# Velocity S-wave (km/s) = 3.93086 5.36410 4.70241
# Velocity P-wave (km/s) = 6.61703 8.17198 7.43526
#
# Compressibility (1/GPa) = 0.01752981
#
# Stress axis : x y z
#
# Youngs Moduli (GPa) = 158.43223 66.81215 128.94284
#
# Poissons Ratio (x) = 0.08885 0.26772
# Poissons Ratio (y) = 0.21070 0.30253
# Poissons Ratio (z) = 0.32895 0.15676
#
# Static dielectric constant tensor:
#      x y z
#    x 2.036520 0.000000 0.000000 
#    y 0.000000 1.968350 0.000000 
#    z 0.000000 0.000000 1.933920 
# 
# From -- ./inp_files/17445.got.cif
#   From: 2010.05.17/outbox.cif.g08.bks.cpg/sg20_9_cif.got.tgz:17445.got - 2010.06.03 22:52:26.
