data_PCOD9319766
_publ_section_title
;
Structure prediction by ZEFSAII (Michael W. Deem and Ramdas Pophale) SiO2 
 PCOD9319766
Probable space group: C 2 2 21
;
_chemical_formula_sum "Si O2"
_cell_formula_units_Z 44
_cell_length_a 14.770151
_cell_length_b 25.089152
_cell_length_c 5.264284
_cell_angle_alpha 90.000000
_cell_angle_beta 90.000000
_cell_angle_gamma 90.000000
_cell_volume 1950.788688
_symmetry_space_group_name_H-M "C 2 2 21"
_symmetry_group_IT_number 20
_symmetry_cell_setting 'orthorhombic'
loop_
_space_group_symop_operation_xyz
x,y,z
-x,-y,1/2+z
x,-y,-z
-x,y,1/2-z
1/2+x,1/2+y,z
1/2-x,1/2-y,1/2+z
1/2+x,1/2-y,-z
1/2-x,1/2+y,1/2-z
loop_
_atom_site_type_symbol
_atom_site_label
_atom_site_fract_x
_atom_site_fract_y
_atom_site_fract_z
Si Si1 0.716963 0.831041 0.380050
Si Si2 0.899010 0.230943 0.129362
Si Si3 0.500000 0.464341 0.250000
Si Si4 0.500000 0.792672 0.750000
Si Si5 0.500000 0.966858 0.750000
Si Si6 0.872235 0.626532 0.399897
Si Si7 0.898144 0.139498 0.812943
O O1 0.679724 0.772358 0.289589
O O2 0.675973 0.851037 0.646027
O O3 0.824619 0.837510 0.379815
O O4 0.686747 0.870442 0.151651
O O5 0.000000 0.233570 0.250000
O O6 0.920844 0.256638 0.854235
O O7 0.874655 0.169771 0.075149
O O8 0.485005 0.500000 0.500000
O O9 0.585147 0.424100 0.305235
O O10 0.543086 0.833300 0.951419
O O11 0.583432 0.929514 0.834217
O O12 0.524927 0.000000 0.500000
O O13 0.000000 0.157252 0.750000
#
# Coordination Sequence:
#
# PCOD9319766 Si02
#       7
#     8   8   4   4   4   8   8
#     4  11  24  43  66 104 141 190 225 281 347 443
#     4  11  21  37  69 101 149 182 225 268 358 446
#     4  10  25  52  77  94 127 188 253 320 360 382
#     4   9  17  36  56  92 126 190 209 251 318 434
#     4  11  22  40  69 102 139 176 226 297 364 410
#     4  10  22  39  65  91 140 179 233 265 341 434
#     4  10  26  45  69 104 139 184 246 302 361 419
#
# _framework density 22.55498
#
# number of rings (size 3 to 8) (size 9 to 14) (size 15 to 20)
#    0.545    1.091    2.727    1.091    1.273    7.273 
#    0.000    5.455    0.000    0.000    0.000    0.000 
#    0.000    0.000    0.000    0.000    0.000    0.000 
#
# Total GULP energy -122565.662419 kJ/mol
# GULP energy per Si atom -5571.166474 kJ/mol
# Density = 2.250364 g / cm^3
# Si number density = 22.554980 Si / 1000 Ang^3
#
#
#
# Elastic Constant Matrix: (Units=GPa)
#
#
# Indices 1 2 3 4 5 6 
#
# 1 97.3753 37.8549 33.8303 0.0000 0.0000 0.0000
# 2 37.8549 141.2753 56.0279 0.0000 0.0000 0.0000
# 3 33.8303 56.0279 132.6675 0.0000 0.0000 0.0000
# 4 0.0000 0.0000 0.0000 -44.4561 0.0000 0.0000
# 5 0.0000 0.0000 0.0000 0.0000 31.4490 0.0000
# 6 0.0000 0.0000 0.0000 0.0000 0.0000 17.8159
#
#
#
# Elastic Compliance Matrix: (Units=1/GPa)
#
#
# Indices 1 2 3 4 5 6 
#
# 1 0.011901 -0.002385 -0.002028 0.000000 0.000000 0.000000
# 2 -0.002385 0.008980 -0.003184 0.000000 0.000000 0.000000
# 3 -0.002028 -0.003184 0.009400 0.000000 0.000000 0.000000
# 4 0.000000 0.000000 0.000000 -0.022494 0.000000 0.000000
# 5 0.000000 0.000000 0.000000 0.000000 0.031798 0.000000
# 6 0.000000 0.000000 0.000000 0.000000 0.000000 0.056130
#
#
# Mechanical properties :
#
#
# Convention : Reuss Voigt Hill
#
# Bulk Modulus (GPa) = 66.28128 69.63824 67.95976
# Shear Modulus (GPa) = 43.12701 17.20210 30.16456
#
# Velocity S-wave (km/s) = 4.37748 2.76465 3.66099
# Velocity P-wave (km/s) = 7.41621 6.41350 6.93300
#
# Compressibility (1/GPa) = 0.01508722
#
# Stress axis : x y z
#
# Youngs Moduli (GPa) = 84.02600 111.35516 106.38830
#
# Poissons Ratio (x) = 0.26556 0.21572
# Poissons Ratio (y) = 0.20038 0.33878
# Poissons Ratio (z) = 0.17038 0.35460
#
# Static dielectric constant tensor:
#      x y z
#    x 2.145850 0.000000 0.000000 
#    y 0.000000 1.875700 0.000000 
#    z 0.000000 0.000000 1.958880 
# 
# From -- ./inp_files/1993.got.cif
#   From: 2010.05.17/outbox.cif.g08.bks.cpg/sg20_1_cif.got.tgz:1993.got - 2010.06.03 22:52:26.
