data_PCOD9319543
_publ_section_title
;
Structure prediction by ZEFSAII (Michael W. Deem and Ramdas Pophale) SiO2 
 PCOD9319543
Probable space group: C 2 2 21
;
_chemical_formula_sum "Si O2"
_cell_formula_units_Z 32
_cell_length_a 16.753371
_cell_length_b 15.089516
_cell_length_c 5.271256
_cell_angle_alpha 90.000000
_cell_angle_beta 90.000000
_cell_angle_gamma 90.000000
_cell_volume 1332.574886
_symmetry_space_group_name_H-M "C 2 2 21"
_symmetry_group_IT_number 20
_symmetry_cell_setting 'orthorhombic'
loop_
_space_group_symop_operation_xyz
x,y,z
-x,-y,1/2+z
x,-y,-z
-x,y,1/2-z
1/2+x,1/2+y,z
1/2-x,1/2-y,1/2+z
1/2+x,1/2-y,-z
1/2-x,1/2+y,1/2-z
loop_
_atom_site_type_symbol
_atom_site_label
_atom_site_fract_x
_atom_site_fract_y
_atom_site_fract_z
Si Si1 0.554826 0.751425 0.501200
Si Si2 0.948156 0.500000 0.500000
Si Si3 0.735690 0.500000 0.000000
Si Si4 0.825376 0.897050 0.086928
Si Si5 0.831137 0.628104 0.323062
O O1 0.500000 0.751502 0.750000
O O2 0.598999 0.656680 0.493153
O O3 0.627144 0.816486 0.598788
O O4 0.500000 0.765226 0.250000
O O5 0.898364 0.590911 0.509158
O O6 0.000000 0.493308 0.750000
O O7 0.686554 0.583176 0.887322
O O8 0.795842 0.461134 0.796857
O O9 0.747042 0.844005 0.982730
O O10 0.832277 0.000000 0.000000
#
# Coordination Sequence:
#
# PCOD9319543 Si02
#       5
#     8   4   4   8   8
#     4  12  32  49  73 117 164 208 255 338 415 479
#     4  12  25  42  72 111 156 206 242 324 405 484
#     4  10  21  44  82 107 138 198 272 318 375 462
#     4  10  25  49  82 108 146 210 277 324 393 485
#     4  11  25  45  72 110 150 198 263 313 392 482
#
# _framework density 24.013659000000001
#
# number of rings (size 3 to 8) (size 9 to 14) (size 15 to 20)
#    0.000    1.000    3.750    1.500   14.000    5.000 
#    0.000    0.000    0.000    0.000    0.000    0.000 
#    0.000    0.000    0.000    0.000    0.000    0.000 
#
# Total GULP energy -89163.250766 kJ/mol
# GULP energy per Si atom -5572.703173 kJ/mol
# Density = 2.395900 g / cm^3
# Si number density = 24.013659 Si / 1000 Ang^3
#
#
#
# Elastic Constant Matrix: (Units=GPa)
#
#
# Indices 1 2 3 4 5 6 
#
# 1 92.5833 43.8939 55.4444 0.0000 0.0000 0.0000
# 2 43.8939 94.9290 27.5341 0.0000 0.0000 0.0000
# 3 55.4444 27.5341 133.8183 0.0000 0.0000 0.0000
# 4 0.0000 0.0000 0.0000 30.4573 0.0000 0.0000
# 5 0.0000 0.0000 0.0000 0.0000 27.4690 0.0000
# 6 0.0000 0.0000 0.0000 0.0000 0.0000 52.3572
#
#
#
# Elastic Compliance Matrix: (Units=1/GPa)
#
#
# Indices 1 2 3 4 5 6 
#
# 1 0.017304 -0.006298 -0.005874 0.000000 0.000000 0.000000
# 2 -0.006298 0.013495 -0.000167 0.000000 0.000000 0.000000
# 3 -0.005874 -0.000167 0.009941 0.000000 0.000000 0.000000
# 4 0.000000 0.000000 0.000000 0.032833 0.000000 0.000000
# 5 0.000000 0.000000 0.000000 0.000000 0.036405 0.000000
# 6 0.000000 0.000000 0.000000 0.000000 0.000000 0.019100
#
#
# Mechanical properties :
#
#
# Convention : Reuss Voigt Hill
#
# Bulk Modulus (GPa) = 62.25752 63.89726 63.07739
# Shear Modulus (GPa) = 31.42498 35.02056 33.22277
#
# Velocity S-wave (km/s) = 3.62142 3.82299 3.72357
# Velocity P-wave (km/s) = 6.59306 6.79364 6.69410
#
# Compressibility (1/GPa) = 0.01606232
#
# Stress axis : x y z
#
# Youngs Moduli (GPa) = 57.78870 74.10335 100.59390
#
# Poissons Ratio (x) = 0.46667 0.59088
# Poissons Ratio (y) = 0.36393 0.01684
# Poissons Ratio (z) = 0.33944 0.01240
#
# Static dielectric constant tensor:
#      x y z
#    x 2.000370 0.000000 0.000000 
#    y 0.000000 1.964680 0.000000 
#    z 0.000000 0.000000 2.267800 
# 
# From -- ./inp_files/2409.got.cif
#   From: 2010.05.17/outbox.cif.g08.bks.cpg/sg20_2_cif.got.tgz:2409.got - 2010.06.03 22:52:26.
