data_PCOD9319857
_publ_section_title
;
Structure prediction by ZEFSAII (Michael W. Deem and Ramdas Pophale) SiO2 
 PCOD9319857
Probable space group: C 2 2 21
;
_chemical_formula_sum "Si O2"
_cell_formula_units_Z 40
_cell_length_a 8.018726
_cell_length_b 27.192275
_cell_length_c 8.973052
_cell_angle_alpha 90.000000
_cell_angle_beta 90.000000
_cell_angle_gamma 90.000000
_cell_volume 1956.550681
_symmetry_space_group_name_H-M "C 2 2 21"
_symmetry_group_IT_number 20
_symmetry_cell_setting 'orthorhombic'
loop_
_space_group_symop_operation_xyz
x,y,z
-x,-y,1/2+z
x,-y,-z
-x,y,1/2-z
1/2+x,1/2+y,z
1/2-x,1/2-y,1/2+z
1/2+x,1/2-y,-z
1/2-x,1/2+y,1/2-z
loop_
_atom_site_type_symbol
_atom_site_label
_atom_site_fract_x
_atom_site_fract_y
_atom_site_fract_z
Si Si1 0.265998 0.291142 0.803533
Si Si2 0.346473 0.554312 0.437059
Si Si3 0.476884 0.896777 0.078497
Si Si4 0.928920 0.715394 0.008557
Si Si5 0.808469 0.904551 0.884097
O O1 0.217978 0.282439 0.632222
O O2 0.308188 0.348516 0.824723
O O3 0.097344 0.279973 0.896493
O O4 0.398393 0.256414 0.884616
O O5 0.372155 0.500000 0.500000
O O6 0.184111 0.576499 0.513891
O O7 0.517265 0.584446 0.465861
O O8 0.310301 0.559649 0.259703
O O9 0.500000 0.909804 0.250000
O O10 0.440499 0.838592 0.062868
O O11 0.643363 0.909414 0.984141
#
# Coordination Sequence:
#
# PCOD9319857 Si02
#       5
#     8   8   8   8   8
#     4  10  22  40  65  97 139 180 223 280 339 413
#     4  11  25  45  75 101 127 187 242 287 355 414
#     4  11  25  44  67 104 147 180 230 289 342 424
#     4  10  23  39  63 100 133 185 230 267 343 414
#     4  10  24  47  71  97 145 183 223 299 355 407
#
# _framework density 20.444143
#
# number of rings (size 3 to 8) (size 9 to 14) (size 15 to 20)
#    0.000    1.600    2.000    0.600    8.400    6.400 
#    0.000    0.000    0.000    0.000    0.000    0.000 
#    0.000    0.000    0.000    0.000    0.000    0.000 
#
# Total GULP energy -111781.161634 kJ/mol
# GULP energy per Si atom -5589.058082 kJ/mol
# Density = 2.039761 g / cm^3
# Si number density = 20.444143 Si / 1000 Ang^3
#
#
#
# Elastic Constant Matrix: (Units=GPa)
#
#
# Indices 1 2 3 4 5 6 
#
# 1 153.9328 48.2102 78.6267 0.0000 0.0000 0.0000
# 2 48.2102 75.7480 53.3147 0.0000 0.0000 0.0000
# 3 78.6267 53.3147 119.3071 0.0000 0.0000 0.0000
# 4 0.0000 0.0000 0.0000 36.4173 0.0000 0.0000
# 5 0.0000 0.0000 0.0000 0.0000 26.1294 0.0000
# 6 0.0000 0.0000 0.0000 0.0000 0.0000-7000.3074
#
#
#
# Elastic Compliance Matrix: (Units=1/GPa)
#
#
# Indices 1 2 3 4 5 6 
#
# 1 0.010119 -0.002548 -0.005530 0.000000 0.000000 0.000000
# 2 -0.002548 0.019901 -0.007214 0.000000 0.000000 0.000000
# 3 -0.005530 -0.007214 0.015250 0.000000 0.000000 0.000000
# 4 0.000000 0.000000 0.000000 0.027460 0.000000 0.000000
# 5 0.000000 0.000000 0.000000 0.000000 0.038271 0.000000
# 6 0.000000 0.000000 0.000000 0.000000 0.000000 -0.000143
#
#
# Mechanical properties :
#
#
# Convention : Reuss Voigt Hill
#
# Bulk Modulus (GPa) = 68.09304 78.81012 73.45158
# Shear Modulus (GPa) = 34.16780 -1376.29640 -671.06430
#
# Velocity S-wave (km/s) = 4.09256 -25.97421 -18.13713
# Velocity P-wave (km/s) = 7.46400 29.34133 20.06493
#
# Compressibility (1/GPa) = 0.01468579
#
# Stress axis : x y z
#
# Youngs Moduli (GPa) = 98.82350 50.24931 65.57427
#
# Poissons Ratio (x) = 0.12803 0.36263
# Poissons Ratio (y) = 0.25180 0.47304
# Poissons Ratio (z) = 0.54651 0.36249
#
# Static dielectric constant tensor:
#      x y z
#    x 1.741030 0.000000 0.000000 
#    y 0.000000 1.695950 0.000000 
#    z 0.000000 0.000000 9.166170 
# 
# From -- ./inp_files/6249.got.cif
#   From: 2010.05.17/outbox.cif.g08.bks.cpg/sg20_4_cif.got.tgz:6249.got - 2010.06.03 22:52:26.
