data_PCOD9319260
_publ_section_title
;
Structure prediction by ZEFSAII (Michael W. Deem and Ramdas Pophale) SiO2 
 PCOD9319260
Probable space group: C 2 2 21
;
_chemical_formula_sum "Si O2"
_cell_formula_units_Z 56
_cell_length_a 29.732828
_cell_length_b 5.455889
_cell_length_c 16.278198
_cell_angle_alpha 90.000000
_cell_angle_beta 90.000000
_cell_angle_gamma 90.000000
_cell_volume 2640.633152
_symmetry_space_group_name_H-M "C 2 2 21"
_symmetry_group_IT_number 20
_symmetry_cell_setting 'orthorhombic'
loop_
_space_group_symop_operation_xyz
x,y,z
-x,-y,1/2+z
x,-y,-z
-x,y,1/2-z
1/2+x,1/2+y,z
1/2-x,1/2-y,1/2+z
1/2+x,1/2-y,-z
1/2-x,1/2+y,1/2-z
loop_
_atom_site_type_symbol
_atom_site_label
_atom_site_fract_x
_atom_site_fract_y
_atom_site_fract_z
Si Si1 0.108394 0.002761 0.645800
Si Si2 0.521025 0.721048 0.672635
Si Si3 0.562153 0.482531 0.095859
Si Si4 0.255841 0.703359 0.698149
Si Si5 0.071785 0.365239 0.220768
Si Si6 0.313444 0.742982 0.049459
Si Si7 0.642359 0.752463 0.802169
O O1 0.083954 0.827214 0.709964
O O2 0.138370 0.849631 0.583883
O O3 0.064453 0.150874 0.617226
O O4 0.139566 0.168503 0.706006
O O5 0.500000 0.562432 0.750000
O O6 0.477976 0.710026 0.613731
O O7 0.542780 0.934104 0.729920
O O8 0.607321 0.400916 0.143046
O O9 0.550479 0.740054 0.140571
O O10 0.569544 0.500000 0.000000
O O11 0.252065 0.442967 0.744876
O O12 0.219727 0.710900 0.625480
O O13 0.307176 0.729675 0.668086
O O14 0.119709 0.481959 0.195439
O O15 0.296890 0.500000 0.000000
O O16 0.317142 0.000000 0.000000
#
# Coordination Sequence:
#
# PCOD9319260 Si02
#       7
#     8   8   8   8   8   8   8
#     4  10  22  42  70  95 131 188 235 281 354 437
#     4  11  21  39  69  98 132 181 246 280 349 435
#     4  11  25  43  63 104 144 178 234 311 366 420
#     4  12  25  46  79 108 138 196 256 296 360 460
#     4  10  21  40  72  92 130 188 237 291 348 448
#     4  12  28  48  70 109 155 183 237 320 376 419
#     4  10  22  41  70  98 129 183 244 283 354 447
#
# _framework density 21.207035000000001
#
# number of rings (size 3 to 8) (size 9 to 14) (size 15 to 20)
#    0.000    1.143    5.714    1.714    8.000    1.714 
#    2.571    0.000    0.000    0.000    0.000    0.000 
#    0.000    0.000    0.000    0.000    0.000    0.000 
#
# Total GULP energy -155962.568646 kJ/mol
# GULP energy per Si atom -5570.091737 kJ/mol
# Density = 2.115877 g / cm^3
# Si number density = 21.207035 Si / 1000 Ang^3
#
#
#
# Elastic Constant Matrix: (Units=GPa)
#
#
# Indices 1 2 3 4 5 6 
#
# 1 134.5382 17.1946 25.6993 0.0000 0.0000 0.0000
# 2 17.1946 92.2726 37.9855 0.0000 0.0000 0.0000
# 3 25.6993 37.9855 87.2863 0.0000 0.0000 0.0000
# 4 0.0000 0.0000 0.0000 27.7980 0.0000 0.0000
# 5 0.0000 0.0000 0.0000 0.0000 21.4257 0.0000
# 6 0.0000 0.0000 0.0000 0.0000 0.0000 66.5162
#
#
#
# Elastic Compliance Matrix: (Units=1/GPa)
#
#
# Indices 1 2 3 4 5 6 
#
# 1 0.007905 -0.000627 -0.002055 0.000000 0.000000 0.000000
# 2 -0.000627 0.013253 -0.005583 0.000000 0.000000 0.000000
# 3 -0.002055 -0.005583 0.014491 0.000000 0.000000 0.000000
# 4 0.000000 0.000000 0.000000 0.035974 0.000000 0.000000
# 5 0.000000 0.000000 0.000000 0.000000 0.046673 0.000000
# 6 0.000000 0.000000 0.000000 0.000000 0.000000 0.015034
#
#
# Mechanical properties :
#
#
# Convention : Reuss Voigt Hill
#
# Bulk Modulus (GPa) = 52.30143 52.87288 52.58715
# Shear Modulus (GPa) = 32.00373 38.69584 35.34978
#
# Velocity S-wave (km/s) = 3.88894 4.27625 4.08719
# Velocity P-wave (km/s) = 6.69933 7.02621 6.86471
#
# Compressibility (1/GPa) = 0.01911994
#
# Stress axis : x y z
#
# Youngs Moduli (GPa) = 126.49474 75.45744 69.00883
#
# Poissons Ratio (x) = 0.04734 0.14178
# Poissons Ratio (y) = 0.07936 0.38525
# Poissons Ratio (z) = 0.25989 0.42125
#
# Static dielectric constant tensor:
#      x y z
#    x 1.815170 0.000000 0.000000 
#    y 0.000000 2.026180 0.000000 
#    z 0.000000 0.000000 1.474120 
# 
# From -- ./inp_files/17950.got.cif
#   From: 2010.05.17/outbox.cif.g08.bks.cpg/sg20_9_cif.got.tgz:17950.got - 2010.06.03 22:52:26.
