data_PCOD9319227
_publ_section_title
;
Structure prediction by ZEFSAII (Michael W. Deem and Ramdas Pophale) SiO2 
 PCOD9319227
Probable space group: C 2 2 21
;
_chemical_formula_sum "Si O2"
_cell_formula_units_Z 40
_cell_length_a 7.605915
_cell_length_b 28.520479
_cell_length_c 7.492603
_cell_angle_alpha 90.000000
_cell_angle_beta 90.000000
_cell_angle_gamma 90.000000
_cell_volume 1625.327953
_symmetry_space_group_name_H-M "C 2 2 21"
_symmetry_group_IT_number 20
_symmetry_cell_setting 'orthorhombic'
loop_
_space_group_symop_operation_xyz
x,y,z
-x,-y,1/2+z
x,-y,-z
-x,y,1/2-z
1/2+x,1/2+y,z
1/2-x,1/2-y,1/2+z
1/2+x,1/2-y,-z
1/2-x,1/2+y,1/2-z
loop_
_atom_site_type_symbol
_atom_site_label
_atom_site_fract_x
_atom_site_fract_y
_atom_site_fract_z
Si Si1 0.801144 0.186961 0.826442
Si Si2 0.296648 0.709002 0.237802
Si Si3 0.495432 0.449448 0.538663
Si Si4 0.669180 0.097915 0.981025
Si Si5 0.791578 0.619680 0.093561
O O1 0.731567 0.235709 0.748933
O O2 0.000000 0.183590 0.750000
O O3 0.759721 0.196367 0.035166
O O4 0.709702 0.136289 0.826961
O O5 0.500000 0.696718 0.250000
O O6 0.202462 0.676791 0.389804
O O7 0.413569 0.500000 0.500000
O O8 0.500000 0.450641 0.750000
O O9 0.687902 0.443229 0.450161
O O10 0.380257 0.402903 0.504848
O O11 0.459846 0.095225 0.004177
O O12 0.713720 0.109574 0.191850
#
# Coordination Sequence:
#
# PCOD9319227 Si02
#       5
#     8   8   8   8   8
#     4  11  24  40  62  92 133 178 225 276 331 395
#     4  11  23  38  62  93 131 177 228 275 333 392
#     4  10  21  40  66  94 128 169 212 271 340 400
#     4   9  20  39  63  92 126 169 216 274 325 387
#     4   9  19  38  64  91 126 167 220 268 327 391
#
# _framework density 24.610420000000001
#
# number of rings (size 3 to 8) (size 9 to 14) (size 15 to 20)
#    0.000    2.000    0.000    4.200    8.400    1.600 
#    0.000    0.000    0.000    0.000    0.000    0.000 
#    0.000    0.000    0.000    0.000    0.000    0.000 
#
# Total GULP energy -111348.917891 kJ/mol
# GULP energy per Si atom -5567.445895 kJ/mol
# Density = 2.455441 g / cm^3
# Si number density = 24.610420 Si / 1000 Ang^3
#
#
#
# Elastic Constant Matrix: (Units=GPa)
#
#
# Indices 1 2 3 4 5 6 
#
# 1 89.8828 21.2797 25.6625 0.0000 0.0000 0.0000
# 2 21.2797 89.1447 49.6691 0.0000 0.0000 0.0000
# 3 25.6625 49.6691 44.4881 0.0000 0.0000 0.0000
# 4 0.0000 0.0000 0.0000 35.8147 0.0000 0.0000
# 5 0.0000 0.0000 0.0000 0.0000 32.3947 0.0000
# 6 0.0000 0.0000 0.0000 0.0000 0.0000 14.5244
#
#
#
# Elastic Compliance Matrix: (Units=1/GPa)
#
#
# Indices 1 2 3 4 5 6 
#
# 1 0.013612 0.002978 -0.011177 0.000000 0.000000 0.000000
# 2 0.002978 0.030333 -0.035584 0.000000 0.000000 0.000000
# 3 -0.011177 -0.035584 0.068653 0.000000 0.000000 0.000000
# 4 0.000000 0.000000 0.000000 0.027922 0.000000 0.000000
# 5 0.000000 0.000000 0.000000 0.000000 0.030869 0.000000
# 6 0.000000 0.000000 0.000000 0.000000 0.000000 0.068850
#
#
# Mechanical properties :
#
#
# Convention : Reuss Voigt Hill
#
# Bulk Modulus (GPa) = 39.94701 46.30424 43.12563
# Shear Modulus (GPa) = 14.87445 25.00703 19.94074
#
# Velocity S-wave (km/s) = 2.46111 3.19111 2.84959
# Velocity P-wave (km/s) = 4.93387 5.69503 5.32806
#
# Compressibility (1/GPa) = 0.02503316
#
# Stress axis : x y z
#
# Youngs Moduli (GPa) = 73.46677 32.96729 14.56603
#
# Poissons Ratio (x) = -0.09818 0.16280
# Poissons Ratio (y) = -0.21880 0.51831
# Poissons Ratio (z) = 0.82112 1.17310
#
# Static dielectric constant tensor:
#      x y z
#    x 1.986680 0.000000 0.000000 
#    y 0.000000 2.123620 0.000000 
#    z 0.000000 0.000000 1.977810 
# 
# From -- ./inp_files/6087.got.cif
#   From: 2010.05.17/outbox.cif.g08.bks.cpg/sg20_4_cif.got.tgz:6087.got - 2010.06.03 22:52:26.
