data_PCOD9319746
_publ_section_title
;
Structure prediction by ZEFSAII (Michael W. Deem and Ramdas Pophale) SiO2 
 PCOD9319746
Probable space group: C 2 2 21
;
_chemical_formula_sum "Si O2"
_cell_formula_units_Z 40
_cell_length_a 15.649853
_cell_length_b 13.936059
_cell_length_c 8.707909
_cell_angle_alpha 90.000000
_cell_angle_beta 90.000000
_cell_angle_gamma 90.000000
_cell_volume 1899.171222
_symmetry_space_group_name_H-M "C 2 2 21"
_symmetry_group_IT_number 20
_symmetry_cell_setting 'orthorhombic'
loop_
_space_group_symop_operation_xyz
x,y,z
-x,-y,1/2+z
x,-y,-z
-x,y,1/2-z
1/2+x,1/2+y,z
1/2-x,1/2-y,1/2+z
1/2+x,1/2-y,-z
1/2-x,1/2+y,1/2-z
loop_
_atom_site_type_symbol
_atom_site_label
_atom_site_fract_x
_atom_site_fract_y
_atom_site_fract_z
Si Si1 0.876464 0.511758 0.256092
Si Si2 0.000000 0.905290 0.750000
Si Si3 0.755046 0.654507 0.068816
Si Si4 0.342966 0.313794 0.867958
Si Si5 0.507349 0.000000 0.500000
Si Si6 0.376923 0.500000 0.500000
Si Si7 0.248243 0.000000 0.500000
O O1 0.823196 0.589446 0.161501
O O2 0.929845 0.453765 0.127617
O O3 0.808258 0.459451 0.363348
O O4 0.943135 0.554376 0.383306
O O5 0.942840 0.835583 0.855155
O O6 0.937006 0.969382 0.643187
O O7 0.695305 0.701665 0.198413
O O8 0.689488 0.587700 0.972401
O O9 0.807558 0.730287 0.972721
O O10 0.305514 0.414258 0.930753
#
# Coordination Sequence:
#
# PCOD9319746 Si02
#       7
#     8   4   8   8   4   4   4
#     4   9  18  34  56  83 116 156 200 247 305 370
#     4  10  22  42  66  96 128 166 214 268 320 370
#     4  10  22  39  61  90 124 164 209 254 313 383
#     4  10  22  40  63  93 124 161 211 264 315 374
#     4   9  17  32  53  81 116 154 194 241 297 364
#     4  10  22  42  66  94 128 168 214 264 320 382
#     4   9  19  38  63  87 116 160 210 257 317 380
#
# _framework density 21.061820000000001
#
# number of rings (size 3 to 8) (size 9 to 14) (size 15 to 20)
#    0.000    2.400    0.000    1.200    0.000    8.000 
#    0.000   24.000    0.000    2.400    0.000    0.000 
#    0.000    0.000    0.000    0.000    0.000    0.000 
#
# Total GULP energy -111359.981895 kJ/mol
# GULP energy per Si atom -5567.999095 kJ/mol
# Density = 2.101388 g / cm^3
# Si number density = 21.061820 Si / 1000 Ang^3
#
#
#
# Elastic Constant Matrix: (Units=GPa)
#
#
# Indices 1 2 3 4 5 6 
#
# 1 132.6138 48.3792 62.9050 0.0000 0.0000 0.0000
# 2 48.3792 68.6519 39.9439 0.0000 0.0000 0.0000
# 3 62.9050 39.9439 102.5614 0.0000 0.0000 0.0000
# 4 0.0000 0.0000 0.0000 36.2421 0.0000 0.0000
# 5 0.0000 0.0000 0.0000 0.0000 52.0552 0.0000
# 6 0.0000 0.0000 0.0000 0.0000 0.0000 -4.7443
#
#
#
# Elastic Compliance Matrix: (Units=1/GPa)
#
#
# Indices 1 2 3 4 5 6 
#
# 1 0.012006 -0.005400 -0.005261 0.000000 0.000000 0.000000
# 2 -0.005400 0.021263 -0.004969 0.000000 0.000000 0.000000
# 3 -0.005261 -0.004969 0.014912 0.000000 0.000000 0.000000
# 4 0.000000 0.000000 0.000000 0.027592 0.000000 0.000000
# 5 0.000000 0.000000 0.000000 0.000000 0.019210 0.000000
# 6 0.000000 0.000000 0.000000 0.000000 0.000000 -0.210779
#
#
# Mechanical properties :
#
#
# Convention : Reuss Voigt Hill
#
# Bulk Modulus (GPa) = 59.09630 67.36484 63.23057
# Shear Modulus (GPa) = -63.37487 26.88386 -18.24550
#
# Velocity S-wave (km/s) = -5.49138 3.57659 -2.94646
# Velocity P-wave (km/s) = 3.47672 7.00783 4.30245
#
# Compressibility (1/GPa) = 0.01692153
#
# Stress axis : x y z
#
# Youngs Moduli (GPa) = 83.29139 47.03069 67.05927
#
# Poissons Ratio (x) = 0.25396 0.35278
# Poissons Ratio (y) = 0.44976 0.33323
# Poissons Ratio (z) = 0.43818 0.23370
#
# Static dielectric constant tensor:
#      x y z
#    x 1.831170 0.000000 0.000000 
#    y 0.000000 1.725560 0.000000 
#    z 0.000000 0.000000 1.791650 
# 
# From -- ./inp_files/9191.got.cif
#   From: 2010.05.17/outbox.cif.g08.bks.cpg/sg20_5_cif.got.tgz:9191.got - 2010.06.03 22:52:26.
