data_PCOD9319233
_publ_section_title
;
Structure prediction by ZEFSAII (Michael W. Deem and Ramdas Pophale) SiO2 
 PCOD9319233
Probable space group: C 2 2 21
;
_chemical_formula_sum "Si O2"
_cell_formula_units_Z 48
_cell_length_a 7.057811
_cell_length_b 12.710328
_cell_length_c 22.261280
_cell_angle_alpha 90.000000
_cell_angle_beta 90.000000
_cell_angle_gamma 90.000000
_cell_volume 1996.994710
_symmetry_space_group_name_H-M "C 2 2 21"
_symmetry_group_IT_number 20
_symmetry_cell_setting 'orthorhombic'
loop_
_space_group_symop_operation_xyz
x,y,z
-x,-y,1/2+z
x,-y,-z
-x,y,1/2-z
1/2+x,1/2+y,z
1/2-x,1/2-y,1/2+z
1/2+x,1/2-y,-z
1/2-x,1/2+y,1/2-z
loop_
_atom_site_type_symbol
_atom_site_label
_atom_site_fract_x
_atom_site_fract_y
_atom_site_fract_z
Si Si1 0.357365 0.889103 0.483359
Si Si2 0.933929 0.018646 0.884902
Si Si3 0.014371 0.329007 0.178819
Si Si4 0.542880 0.283418 0.321296
Si Si5 0.575267 0.696627 0.420957
Si Si6 0.566039 0.945774 0.819640
O O1 0.474037 0.793350 0.454742
O O2 0.255456 0.840040 0.541380
O O3 0.458764 0.000000 0.500000
O O4 0.190343 0.928819 0.438327
O O5 0.034923 0.914256 0.910397
O O6 0.785673 0.972127 0.834693
O O7 0.043352 0.114458 0.854168
O O8 0.232689 0.298086 0.167852
O O9 0.973837 0.446840 0.156093
O O10 0.000000 0.325711 0.250000
O O11 0.889485 0.245420 0.144515
O O12 0.500000 0.290338 0.250000
O O13 0.494326 0.166932 0.343648
O O14 0.500000 0.943009 0.750000
#
# Coordination Sequence:
#
# PCOD9319233 Si02
#       6
#     8   8   8   8   8   8
#     4  10  23  47  67  91 133 175 223 283 335 388
#     4  10  22  43  65  94 139 168 221 286 329 384
#     4  10  22  43  64  99 137 168 217 273 339 398
#     4  10  21  40  66  99 137 178 220 264 334 411
#     4  11  23  45  71  94 132 178 220 282 334 398
#     4   9  19  38  64  91 133 178 211 263 331 398
#
# _framework density 24.036116
#
# number of rings (size 3 to 8) (size 9 to 14) (size 15 to 20)
#    0.000    2.000    3.333    0.000    4.667    3.333 
#    9.000    7.500    0.000    0.000    0.000    0.000 
#    0.000    0.000    0.000    0.000    0.000    0.000 
#
# Total GULP energy -133908.042048 kJ/mol
# GULP energy per Si atom -5579.501752 kJ/mol
# Density = 2.398141 g / cm^3
# Si number density = 24.036116 Si / 1000 Ang^3
#
#
#
# Elastic Constant Matrix: (Units=GPa)
#
#
# Indices 1 2 3 4 5 6 
#
# 1 62.1318 60.0599 9.8441 0.0000 0.0000 0.0000
# 2 60.0599 274.0240 61.4668 0.0000 0.0000 0.0000
# 3 9.8441 61.4668 101.2147 0.0000 0.0000 0.0000
# 4 0.0000 0.0000 0.0000 34.5889 0.0000 0.0000
# 5 0.0000 0.0000 0.0000 0.0000 24.4455 0.0000
# 6 0.0000 0.0000 0.0000 0.0000 0.0000 40.4097
#
#
#
# Elastic Compliance Matrix: (Units=1/GPa)
#
#
# Indices 1 2 3 4 5 6 
#
# 1 0.020484 -0.004680 0.000850 0.000000 0.000000 0.000000
# 2 -0.004680 0.005294 -0.002760 0.000000 0.000000 0.000000
# 3 0.000850 -0.002760 0.011473 0.000000 0.000000 0.000000
# 4 0.000000 0.000000 0.000000 0.028911 0.000000 0.000000
# 5 0.000000 0.000000 0.000000 0.000000 0.040907 0.000000
# 6 0.000000 0.000000 0.000000 0.000000 0.000000 0.024747
#
#
# Mechanical properties :
#
#
# Convention : Reuss Voigt Hill
#
# Bulk Modulus (GPa) = 41.54283 77.79022 59.66652
# Shear Modulus (GPa) = 32.67518 40.28881 36.48200
#
# Velocity S-wave (km/s) = 3.69103 4.09856 3.90012
# Velocity P-wave (km/s) = 5.95701 7.40484 6.72003
#
# Compressibility (1/GPa) = 0.02407154
#
# Stress axis : x y z
#
# Youngs Moduli (GPa) = 48.81748 188.88453 87.15820
#
# Poissons Ratio (x) = 0.88406 -0.07409
# Poissons Ratio (y) = 0.22849 0.24055
# Poissons Ratio (z) = -0.04150 0.52131
#
# Static dielectric constant tensor:
#      x y z
#    x 1.977020 0.000000 0.000000 
#    y 0.000000 1.932820 0.000000 
#    z 0.000000 0.000000 1.548980 
# 
# From -- ./inp_files/30085.got.cif
#   From: 2010.05.17/outbox.cif.g08.bks.cpg/sg20_16_cif.got.tgz:30085.got - 2010.06.03 22:52:26.
