data_PCOD9319030
_publ_section_title
;
Structure prediction by ZEFSAII (Michael W. Deem and Ramdas Pophale) SiO2 
 PCOD9319030
Probable space group: C 2 2 21
;
_chemical_formula_sum "Si O2"
_cell_formula_units_Z 48
_cell_length_a 7.691074
_cell_length_b 30.558917
_cell_length_c 8.271743
_cell_angle_alpha 90.000000
_cell_angle_beta 90.000000
_cell_angle_gamma 90.000000
_cell_volume 1944.115136
_symmetry_space_group_name_H-M "C 2 2 21"
_symmetry_group_IT_number 20
_symmetry_cell_setting 'orthorhombic'
loop_
_space_group_symop_operation_xyz
x,y,z
-x,-y,1/2+z
x,-y,-z
-x,y,1/2-z
1/2+x,1/2+y,z
1/2-x,1/2-y,1/2+z
1/2+x,1/2-y,-z
1/2-x,1/2+y,1/2-z
loop_
_atom_site_type_symbol
_atom_site_label
_atom_site_fract_x
_atom_site_fract_y
_atom_site_fract_z
Si Si1 0.682656 0.567403 0.348514
Si Si2 0.196672 0.610664 0.679452
Si Si3 0.162050 0.686271 0.474137
Si Si4 0.734446 0.844120 0.004724
Si Si5 0.182203 0.233229 0.326414
Si Si6 0.302082 0.522587 0.790645
O O1 0.500000 0.574366 0.250000
O O2 0.764392 0.615156 0.379213
O O3 0.780740 0.525570 0.268578
O O4 0.685087 0.546006 0.532090
O O5 0.230144 0.637920 0.517949
O O6 0.234777 0.559758 0.670847
O O7 0.000000 0.613194 0.750000
O O8 0.292440 0.635240 0.825813
O O9 0.243856 0.721804 0.596389
O O10 0.200112 0.707913 0.302831
O O11 0.956080 0.678750 0.505366
O O12 0.856490 0.804197 0.957532
O O13 0.000000 0.245030 0.250000
O O14 0.500000 0.513918 0.750000
#
# Coordination Sequence:
#
# PCOD9319030 Si02
#       6
#     8   8   8   8   8   8
#     4   9  18  35  59  89 124 159 197 246 299 354
#     4   9  19  37  58  83 117 156 198 245 297 357
#     4  11  23  41  61  84 117 156 200 248 303 361
#     4  10  21  39  61  85 118 156 198 249 302 360
#     4  12  24  39  60  85 114 151 197 248 302 360
#     4   9  18  33  58  88 120 158 199 243 295 355
#
# _framework density 24.689896000000001
#
# number of rings (size 3 to 8) (size 9 to 14) (size 15 to 20)
#    0.000    2.000    0.000    4.500    0.000    4.000 
#    0.000    5.000    0.000   16.000    0.000    0.000 
#    0.000    0.000    0.000    0.000    0.000    0.000 
#
# Total GULP energy -133750.223671 kJ/mol
# GULP energy per Si atom -5572.925986 kJ/mol
# Density = 2.463370 g / cm^3
# Si number density = 24.689896 Si / 1000 Ang^3
#
#
#
# Elastic Constant Matrix: (Units=GPa)
#
#
# Indices 1 2 3 4 5 6 
#
# 1 38.1084 32.7447 17.5210 0.0000 0.0000 0.0000
# 2 32.7447 202.3173 33.1432 0.0000 0.0000 0.0000
# 3 17.5210 33.1432 41.3688 0.0000 0.0000 0.0000
# 4 0.0000 0.0000 0.0000 21.9790 0.0000 0.0000
# 5 0.0000 0.0000 0.0000 0.0000 23.6487 0.0000
# 6 0.0000 0.0000 0.0000 0.0000 0.0000 -29.7025
#
#
#
# Elastic Compliance Matrix: (Units=1/GPa)
#
#
# Indices 1 2 3 4 5 6 
#
# 1 0.034847 -0.003709 -0.011787 0.000000 0.000000 0.000000
# 2 -0.003709 0.006084 -0.003304 0.000000 0.000000 0.000000
# 3 -0.011787 -0.003304 0.031812 0.000000 0.000000 0.000000
# 4 0.000000 0.000000 0.000000 0.045498 0.000000 0.000000
# 5 0.000000 0.000000 0.000000 0.000000 0.042286 0.000000
# 6 0.000000 0.000000 0.000000 0.000000 0.000000 -0.033667
#
#
# Mechanical properties :
#
#
# Convention : Reuss Voigt Hill
#
# Bulk Modulus (GPa) = 28.45483 49.84580 39.15031
# Shear Modulus (GPa) = 28.38101 16.41076 22.39589
#
# Velocity S-wave (km/s) = 3.39410 2.58093 3.01506
# Velocity P-wave (km/s) = 5.18747 5.39575 5.29264
#
# Compressibility (1/GPa) = 0.03514342
#
# Stress axis : x y z
#
# Youngs Moduli (GPa) = 28.69661 164.35997 31.43487
#
# Poissons Ratio (x) = 0.60961 0.37054
# Poissons Ratio (y) = 0.10644 0.10385
# Poissons Ratio (z) = 0.33826 0.54297
#
# Static dielectric constant tensor:
#      x y z
#    x 1.894310 0.000000 0.000000 
#    y 0.000000 1.972700 0.000000 
#    z 0.000000 0.000000 2.111580 
# 
# From -- ./inp_files/6513.got.cif
#   From: 2010.05.17/outbox.cif.g08.bks.cpg/sg20_4_cif.got.tgz:6513.got - 2010.06.03 22:52:26.
