data_PCOD9319205
_publ_section_title
;
Structure prediction by ZEFSAII (Michael W. Deem and Ramdas Pophale) SiO2 
 PCOD9319205
Probable space group: C 2 2 21
;
_chemical_formula_sum "Si O2"
_cell_formula_units_Z 28
_cell_length_a 19.048639
_cell_length_b 4.990229
_cell_length_c 14.272058
_cell_angle_alpha 90.000000
_cell_angle_beta 90.000000
_cell_angle_gamma 90.000000
_cell_volume 1356.660027
_symmetry_space_group_name_H-M "C 2 2 21"
_symmetry_group_IT_number 20
_symmetry_cell_setting 'orthorhombic'
loop_
_space_group_symop_operation_xyz
x,y,z
-x,-y,1/2+z
x,-y,-z
-x,y,1/2-z
1/2+x,1/2+y,z
1/2-x,1/2-y,1/2+z
1/2+x,1/2-y,-z
1/2-x,1/2+y,1/2-z
loop_
_atom_site_type_symbol
_atom_site_label
_atom_site_fract_x
_atom_site_fract_y
_atom_site_fract_z
Si Si1 0.575039 0.343638 0.703124
Si Si2 0.402444 0.164119 0.082326
Si Si3 0.712860 0.438757 0.202750
Si Si4 0.266822 0.000000 0.000000
O O1 0.500000 0.308964 0.750000
O O2 0.567908 0.560318 0.619515
O O3 0.634378 0.471000 0.769998
O O4 0.600686 0.058825 0.663756
O O5 0.324224 0.210798 0.040759
O O6 0.441667 0.000000 0.000000
O O7 0.762703 0.668272 0.246755
O O8 0.723688 0.413689 0.090910
#
# Coordination Sequence:
#
# PCOD9319205 Si02
#       4
#     8   8   8   4
#     4  12  23  41  64  91 129 163 199 257 318 365
#     4  10  21  40  65  87 119 167 206 246 312 368
#     4  12  22  41  65  94 122 163 212 257 302 372
#     4  10  22  38  68  90 124 162 218 250 314 354
#
# _framework density 20.638921
#
# number of rings (size 3 to 8) (size 9 to 14) (size 15 to 20)
#    0.857    0.000    5.714    1.714    0.000    3.429 
#    5.143    0.000    0.000    0.000    0.000    0.000 
#    0.000    0.000    0.000    0.000    0.000    0.000 
#
# Total GULP energy -78105.350584 kJ/mol
# GULP energy per Si atom -5578.953613 kJ/mol
# Density = 2.059195 g / cm^3
# Si number density = 20.638921 Si / 1000 Ang^3
#
#
#
# Elastic Constant Matrix: (Units=GPa)
#
#
# Indices 1 2 3 4 5 6 
#
# 1 106.9538 23.9021 52.5943 0.0000 0.0000 0.0000
# 2 23.9021 121.0680 31.8262 0.0000 0.0000 0.0000
# 3 52.5943 31.8262 138.5929 0.0000 0.0000 0.0000
# 4 0.0000 0.0000 0.0000 21.6904 0.0000 0.0000
# 5 0.0000 0.0000 0.0000 0.0000 15.2372 0.0000
# 6 0.0000 0.0000 0.0000 0.0000 0.0000 10.6956
#
#
#
# Elastic Compliance Matrix: (Units=1/GPa)
#
#
# Indices 1 2 3 4 5 6 
#
# 1 0.011660 -0.001212 -0.004146 0.000000 0.000000 0.000000
# 2 -0.001212 0.008916 -0.001588 0.000000 0.000000 0.000000
# 3 -0.004146 -0.001588 0.009153 0.000000 0.000000 0.000000
# 4 0.000000 0.000000 0.000000 0.046103 0.000000 0.000000
# 5 0.000000 0.000000 0.000000 0.000000 0.065629 0.000000
# 6 0.000000 0.000000 0.000000 0.000000 0.000000 0.093496
#
#
# Mechanical properties :
#
#
# Convention : Reuss Voigt Hill
#
# Bulk Modulus (GPa) = 63.14076 64.80667 63.97372
# Shear Modulus (GPa) = 19.67504 26.74412 23.20958
#
# Velocity S-wave (km/s) = 3.09090 3.60364 3.35707
# Velocity P-wave (km/s) = 6.58769 6.98451 6.78900
#
# Compressibility (1/GPa) = 0.01583763
#
# Stress axis : x y z
#
# Youngs Moduli (GPa) = 85.76587 112.15234 109.24827
#
# Poissons Ratio (x) = 0.13592 0.45299
# Poissons Ratio (y) = 0.10394 0.17345
# Poissons Ratio (z) = 0.35562 0.17806
#
# Static dielectric constant tensor:
#      x y z
#    x 1.727750 0.000000 0.000000 
#    y 0.000000 1.707520 0.000000 
#    z 0.000000 0.000000 1.808020 
# 
# From -- ./inp_files/16025.got.cif
#   From: 2010.05.17/outbox.cif.g08.bks.cpg/sg20_9_cif.got.tgz:16025.got - 2010.06.03 22:52:26.
