data_PCOD9319642
_publ_section_title
;
Structure prediction by ZEFSAII (Michael W. Deem and Ramdas Pophale) SiO2 
 PCOD9319642
Probable space group: C 2 2 21
;
_chemical_formula_sum "Si O2"
_cell_formula_units_Z 64
_cell_length_a 8.862679
_cell_length_b 11.153130
_cell_length_c 28.439747
_cell_angle_alpha 90.000000
_cell_angle_beta 90.000000
_cell_angle_gamma 90.000000
_cell_volume 2811.172610
_symmetry_space_group_name_H-M "C 2 2 21"
_symmetry_group_IT_number 20
_symmetry_cell_setting 'orthorhombic'
loop_
_space_group_symop_operation_xyz
x,y,z
-x,-y,1/2+z
x,-y,-z
-x,y,1/2-z
1/2+x,1/2+y,z
1/2-x,1/2-y,1/2+z
1/2+x,1/2-y,-z
1/2-x,1/2+y,1/2-z
loop_
_atom_site_type_symbol
_atom_site_label
_atom_site_fract_x
_atom_site_fract_y
_atom_site_fract_z
Si Si1 0.939596 0.633817 0.495932
Si Si2 0.229267 0.870791 0.023925
Si Si3 0.459428 0.357621 0.380729
Si Si4 0.990278 0.397010 0.612859
Si Si5 0.292558 0.119610 0.644565
Si Si6 0.756621 0.501970 0.174578
Si Si7 0.343213 0.524194 0.227213
Si Si8 0.453258 0.232272 0.804809
O O1 0.868673 0.500000 0.500000
O O2 0.089134 0.641305 0.528244
O O3 0.000713 0.633430 0.442162
O O4 0.833766 0.750042 0.501581
O O5 0.138319 0.874987 0.072517
O O6 0.203256 0.000000 0.000000
O O7 0.424708 0.222899 0.363415
O O8 0.640687 0.358664 0.384769
O O9 0.403098 0.460559 0.346010
O O10 0.148974 0.424257 0.636934
O O11 0.885776 0.512102 0.620768
O O12 0.407511 0.225352 0.658484
O O13 0.238574 0.072966 0.695739
O O14 0.748408 0.560751 0.225860
O O15 0.847172 0.377907 0.181974
O O16 0.500000 0.479697 0.250000
O O17 0.373952 0.639938 0.195724
O O18 0.500000 0.216961 0.750000
#
# Coordination Sequence:
#
# PCOD9319642 Si02
#       8
#     8   8   8   8   8   8   8   8
#     4  10  22  44  68  97 130 165 212 261 328 395
#     4  10  23  43  68  98 130 164 211 263 326 399
#     4  11  24  41  64  94 125 163 208 259 320 378
#     4  10  25  41  63  95 127 163 207 264 318 375
#     4  11  23  42  59  89 128 161 210 259 307 369
#     4  11  21  40  62  86 126 166 210 264 309 362
#     4  11  22  37  60  88 117 169 212 252 304 362
#     4  10  22  37  58  84 118 162 212 254 303 359
#
# _framework density 22.766300000000001
#
# number of rings (size 3 to 8) (size 9 to 14) (size 15 to 20)
#    0.000    1.500    2.500    2.250    3.500    4.500 
#    0.000    2.500    0.000    0.000    0.000    0.000 
#    0.000    0.000    0.000    0.000    0.000    0.000 
#
# Total GULP energy -178778.202401 kJ/mol
# GULP energy per Si atom -5586.818825 kJ/mol
# Density = 2.271448 g / cm^3
# Si number density = 22.766300 Si / 1000 Ang^3
#
#
#
# Elastic Constant Matrix: (Units=GPa)
#
#
# Indices 1 2 3 4 5 6 
#
# 1 69.0474 23.0939 0.4409 0.0000 0.0000 0.0000
# 2 23.0939 129.3363 3.8699 0.0000 0.0000 0.0000
# 3 0.4409 3.8699 26.1715 0.0000 0.0000 0.0000
# 4 0.0000 0.0000 0.0000 27.5845 0.0000 0.0000
# 5 0.0000 0.0000 0.0000 0.0000 34.2319 0.0000
# 6 0.0000 0.0000 0.0000 0.0000 0.0000 36.5117
#
#
#
# Elastic Compliance Matrix: (Units=1/GPa)
#
#
# Indices 1 2 3 4 5 6 
#
# 1 0.015403 -0.002755 0.000148 0.000000 0.000000 0.000000
# 2 -0.002755 0.008259 -0.001175 0.000000 0.000000 0.000000
# 3 0.000148 -0.001175 0.038381 0.000000 0.000000 0.000000
# 4 0.000000 0.000000 0.000000 0.036252 0.000000 0.000000
# 5 0.000000 0.000000 0.000000 0.000000 0.029213 0.000000
# 6 0.000000 0.000000 0.000000 0.000000 0.000000 0.027389
#
#
# Mechanical properties :
#
#
# Convention : Reuss Voigt Hill
#
# Bulk Modulus (GPa) = 18.35559 31.04053 24.69806
# Shear Modulus (GPa) = 27.68251 32.80896 30.24573
#
# Velocity S-wave (km/s) = 3.49082 3.80033 3.64886
# Velocity P-wave (km/s) = 4.93233 5.73765 5.35017
#
# Compressibility (1/GPa) = 0.05447933
#
# Stress axis : x y z
#
# Youngs Moduli (GPa) = 64.92138 121.08268 26.05471
#
# Poissons Ratio (x) = 0.33356 -0.00385
# Poissons Ratio (y) = 0.17884 0.03061
# Poissons Ratio (z) = -0.00960 0.14225
#
# Static dielectric constant tensor:
#      x y z
#    x 1.888920 0.000000 0.000000 
#    y 0.000000 1.862000 0.000000 
#    z 0.000000 0.000000 1.880790 
# 
# From -- ./inp_files/31060.got.cif
#   From: 2010.05.17/outbox.cif.g08.bks.cpg/sg20_16_cif.got.tgz:31060.got - 2010.06.03 22:52:26.
