data_PCOD9319306
_publ_section_title
;
Structure prediction by ZEFSAII (Michael W. Deem and Ramdas Pophale) SiO2 
 PCOD9319306
Probable space group: C 2 2 21
;
_chemical_formula_sum "Si O2"
_cell_formula_units_Z 52
_cell_length_a 7.436680
_cell_length_b 18.257398
_cell_length_c 19.005828
_cell_angle_alpha 90.000000
_cell_angle_beta 90.000000
_cell_angle_gamma 90.000000
_cell_volume 2580.505398
_symmetry_space_group_name_H-M "C 2 2 21"
_symmetry_group_IT_number 20
_symmetry_cell_setting 'orthorhombic'
loop_
_space_group_symop_operation_xyz
x,y,z
-x,-y,1/2+z
x,-y,-z
-x,y,1/2-z
1/2+x,1/2+y,z
1/2-x,1/2-y,1/2+z
1/2+x,1/2-y,-z
1/2-x,1/2+y,1/2-z
loop_
_atom_site_type_symbol
_atom_site_label
_atom_site_fract_x
_atom_site_fract_y
_atom_site_fract_z
Si Si1 0.500000 0.515058 0.250000
Si Si2 0.791029 0.318202 0.551367
Si Si3 0.206255 0.678241 0.616783
Si Si4 0.926312 0.116321 0.382790
Si Si5 0.196248 0.129483 0.733174
Si Si6 0.869926 0.419410 0.990025
Si Si7 0.193792 0.273870 0.103782
O O1 0.453515 0.566491 0.315004
O O2 0.338842 0.457850 0.230941
O O3 0.837174 0.246519 0.599333
O O4 0.622591 0.362242 0.585261
O O5 0.731352 0.286847 0.474467
O O6 0.967251 0.368174 0.538399
O O7 0.196049 0.651853 0.697076
O O8 0.218641 0.612126 0.561936
O O9 0.017315 0.712414 0.596110
O O10 0.798053 0.075762 0.437623
O O11 0.810275 0.190756 0.368608
O O12 0.248582 0.165992 0.660368
O O13 0.000000 0.161095 0.750000
O O14 0.948029 0.500000 0.000000
#
# Coordination Sequence:
#
# PCOD9319306 Si02
#       7
#     4   8   8   8   8   8   8
#     4  10  26  44  58 104 130 184 216 264 354 400
#     4  10  24  42  67 102 128 168 226 277 332 395
#     4  10  21  41  64  94 128 169 219 270 325 396
#     4  11  24  42  69  91 142 169 220 281 330 400
#     4  10  24  38  65  91 133 171 220 264 330 403
#     4  11  24  39  66  98 128 170 216 271 338 388
#     4  10  22  40  67  97 124 173 222 275 327 392
#
# _framework density 20.151091000000001
#
# number of rings (size 3 to 8) (size 9 to 14) (size 15 to 20)
#    0.462    1.231    1.538    1.385    8.615    3.077 
#    0.000    2.308    0.000    0.000    0.000    0.000 
#    0.000    0.000    0.000    0.000    0.000    0.000 
#
# Total GULP energy -144819.336145 kJ/mol
# GULP energy per Si atom -5569.974467 kJ/mol
# Density = 2.010523 g / cm^3
# Si number density = 20.151091 Si / 1000 Ang^3
#
#
#
# Elastic Constant Matrix: (Units=GPa)
#
#
# Indices 1 2 3 4 5 6 
#
# 1 37.1141 12.8995 7.5309 0.0000 0.0000 0.0000
# 2 12.8995 138.6058 63.3768 0.0000 0.0000 0.0000
# 3 7.5309 63.3768 131.3203 0.0000 0.0000 0.0000
# 4 0.0000 0.0000 0.0000 10.7831 0.0000 0.0000
# 5 0.0000 0.0000 0.0000 0.0000 34.8539 0.0000
# 6 0.0000 0.0000 0.0000 0.0000 0.0000 -4.4237
#
#
#
# Elastic Compliance Matrix: (Units=1/GPa)
#
#
# Indices 1 2 3 4 5 6 
#
# 1 0.027865 -0.002390 -0.000445 0.000000 0.000000 0.000000
# 2 -0.002390 0.009463 -0.004430 0.000000 0.000000 0.000000
# 3 -0.000445 -0.004430 0.009778 0.000000 0.000000 0.000000
# 4 0.000000 0.000000 0.000000 0.092738 0.000000 0.000000
# 5 0.000000 0.000000 0.000000 0.000000 0.028691 0.000000
# 6 0.000000 0.000000 0.000000 0.000000 0.000000 -0.226056
#
#
# Mechanical properties :
#
#
# Convention : Reuss Voigt Hill
#
# Bulk Modulus (GPa) = 30.69631 52.73941 41.71786
# Shear Modulus (GPa) = -155.60260 23.12484 -66.23888
#
# Velocity S-wave (km/s) = -8.79691 3.39126 -5.73955
# Velocity P-wave (km/s) = 9.37628 6.44694 4.81413
#
# Compressibility (1/GPa) = 0.03257721
#
# Stress axis : x y z
#
# Youngs Moduli (GPa) = 35.88755 105.67923 102.26729
#
# Poissons Ratio (x) = 0.25257 0.04546
# Poissons Ratio (y) = 0.08577 0.45301
# Poissons Ratio (z) = 0.01595 0.46813
#
# Static dielectric constant tensor:
#      x y z
#    x 1.793980 0.000000 0.000000 
#    y 0.000000 1.784220 0.000000 
#    z 0.000000 0.000000 2.086820 
# 
# From -- ./inp_files/23712.got.cif
#   From: 2010.05.17/outbox.cif.g08.bks.cpg/sg20_12_cif.got.tgz:23712.got - 2010.06.03 22:52:26.
