data_PCOD9319810
_publ_section_title
;
Structure prediction by ZEFSAII (Michael W. Deem and Ramdas Pophale) SiO2 
 PCOD9319810
Probable space group: C 2 2 21
;
_chemical_formula_sum "Si O2"
_cell_formula_units_Z 64
_cell_length_a 29.649770
_cell_length_b 11.808299
_cell_length_c 8.716053
_cell_angle_alpha 90.000000
_cell_angle_beta 90.000000
_cell_angle_gamma 90.000000
_cell_volume 3051.606510
_symmetry_space_group_name_H-M "C 2 2 21"
_symmetry_group_IT_number 20
_symmetry_cell_setting 'orthorhombic'
loop_
_space_group_symop_operation_xyz
x,y,z
-x,-y,1/2+z
x,-y,-z
-x,y,1/2-z
1/2+x,1/2+y,z
1/2-x,1/2-y,1/2+z
1/2+x,1/2-y,-z
1/2-x,1/2+y,1/2-z
loop_
_atom_site_type_symbol
_atom_site_label
_atom_site_fract_x
_atom_site_fract_y
_atom_site_fract_z
Si Si1 0.293728 0.128111 0.933729
Si Si2 0.112388 0.769213 0.598525
Si Si3 0.964172 0.628036 0.055065
Si Si4 0.160446 0.730246 0.073431
Si Si5 0.937105 0.379740 0.587908
Si Si6 0.243689 0.673418 0.908191
Si Si7 0.837011 0.889284 0.147033
Si Si8 0.371360 0.579544 0.369722
O O1 0.342851 0.188558 0.908501
O O2 0.270958 0.144193 0.765574
O O3 0.261778 0.200052 0.049078
O O4 0.298187 0.000000 0.000000
O O5 0.070213 0.697245 0.546681
O O6 0.123547 0.864887 0.472308
O O7 0.103642 0.832228 0.758893
O O8 0.944862 0.617971 0.228207
O O9 0.015086 0.675969 0.040142
O O10 0.967017 0.500000 0.000000
O O11 0.110446 0.680027 0.057652
O O12 0.165357 0.778733 0.243157
O O13 0.201148 0.651527 0.018824
O O14 0.162161 0.839548 0.962789
O O15 0.934553 0.500000 0.500000
O O16 0.289489 0.605947 0.936598
O O17 0.846411 0.994464 0.255526
O O18 0.394573 0.500000 0.500000
#
# Coordination Sequence:
#
# PCOD9319810 Si02
#       8
#     8   8   8   8   8   8   8   8
#     4  11  25  40  62  93 136 170 226 281 331 400
#     4  11  21  41  65  94 130 170 222 269 338 402
#     4  10  22  41  70  97 131 174 216 268 341 416
#     4  11  21  41  62  93 132 169 217 274 328 391
#     4  10  23  42  65 100 134 170 217 273 340 408
#     4  11  23  40  63  93 128 180 222 270 338 397
#     4  10  22  40  62  92 129 175 222 270 323 401
#     4  10  23  39  67  91 125 173 225 274 329 399
#
# _framework density 20.972560999999999
#
# number of rings (size 3 to 8) (size 9 to 14) (size 15 to 20)
#    0.000    1.500    3.750    0.750    3.500    1.000 
#    0.000    3.125    0.000    7.500    0.000    0.000 
#    0.000    0.000    0.000    0.000    0.000    0.000 
#
# Total GULP energy -178433.879723 kJ/mol
# GULP energy per Si atom -5576.058741 kJ/mol
# Density = 2.092483 g / cm^3
# Si number density = 20.972561 Si / 1000 Ang^3
#
#
#
# Elastic Constant Matrix: (Units=GPa)
#
#
# Indices 1 2 3 4 5 6 
#
# 1 145.2189 58.9193 30.6229 0.0000 0.0000 0.0000
# 2 58.9193 92.2625 44.5976 0.0000 0.0000 0.0000
# 3 30.6229 44.5976 92.2474 0.0000 0.0000 0.0000
# 4 0.0000 0.0000 0.0000 37.2722 0.0000 0.0000
# 5 0.0000 0.0000 0.0000 0.0000 25.3406 0.0000
# 6 0.0000 0.0000 0.0000 0.0000 0.0000 10.3914
#
#
#
# Elastic Compliance Matrix: (Units=1/GPa)
#
#
# Indices 1 2 3 4 5 6 
#
# 1 0.009300 -0.005803 -0.000282 0.000000 0.000000 0.000000
# 2 -0.005803 0.017765 -0.006662 0.000000 0.000000 0.000000
# 3 -0.000282 -0.006662 0.014155 0.000000 0.000000 0.000000
# 4 0.000000 0.000000 0.000000 0.026830 0.000000 0.000000
# 5 0.000000 0.000000 0.000000 0.000000 0.039462 0.000000
# 6 0.000000 0.000000 0.000000 0.000000 0.000000 0.096234
#
#
# Mechanical properties :
#
#
# Convention : Reuss Voigt Hill
#
# Bulk Modulus (GPa) = 63.58930 66.44539 65.01735
# Shear Modulus (GPa) = 21.32374 27.64010 24.48192
#
# Velocity S-wave (km/s) = 3.19210 3.63425 3.42033
# Velocity P-wave (km/s) = 6.63114 7.02575 6.83130
#
# Compressibility (1/GPa) = 0.01572592
#
# Stress axis : x y z
#
# Youngs Moduli (GPa) = 107.52776 56.29177 70.64734
#
# Poissons Ratio (x) = 0.32665 0.01991
# Poissons Ratio (y) = 0.62395 0.47066
# Poissons Ratio (z) = 0.03031 0.37502
#
# Static dielectric constant tensor:
#      x y z
#    x 1.736310 0.000000 0.000000 
#    y 0.000000 1.849800 0.000000 
#    z 0.000000 0.000000 1.795960 
# 
# From -- ./inp_files/11624.got.cif
#   From: 2010.05.17/outbox.cif.g08.bks.cpg/sg20_6_cif.got.tgz:11624.got - 2010.06.03 22:52:26.
