data_PCOD9319315
_publ_section_title
;
Structure prediction by ZEFSAII (Michael W. Deem and Ramdas Pophale) SiO2 
 PCOD9319315
Probable space group: C 2 2 21
;
_chemical_formula_sum "Si O2"
_cell_formula_units_Z 40
_cell_length_a 10.089523
_cell_length_b 9.326969
_cell_length_c 17.670011
_cell_angle_alpha 90.000000
_cell_angle_beta 90.000000
_cell_angle_gamma 90.000000
_cell_volume 1662.830523
_symmetry_space_group_name_H-M "C 2 2 21"
_symmetry_group_IT_number 20
_symmetry_cell_setting 'orthorhombic'
loop_
_space_group_symop_operation_xyz
x,y,z
-x,-y,1/2+z
x,-y,-z
-x,y,1/2-z
1/2+x,1/2+y,z
1/2-x,1/2-y,1/2+z
1/2+x,1/2-y,-z
1/2-x,1/2+y,1/2-z
loop_
_atom_site_type_symbol
_atom_site_label
_atom_site_fract_x
_atom_site_fract_y
_atom_site_fract_z
Si Si1 0.743953 0.306844 0.314858
Si Si2 0.290978 0.561932 0.075819
Si Si3 0.415349 0.638873 0.421609
Si Si4 0.719845 0.356245 0.082291
Si Si5 0.875755 0.493800 0.194480
O O1 0.687733 0.430740 0.368473
O O2 0.878097 0.249976 0.356434
O O3 0.772621 0.388524 0.237511
O O4 0.661400 0.161172 0.308504
O O5 0.432095 0.634198 0.054487
O O6 0.208828 0.693056 0.110611
O O7 0.227505 0.500000 0.000000
O O8 0.315281 0.659358 0.492595
O O9 0.383576 0.478093 0.392828
O O10 0.858702 0.428963 0.109649
O O11 0.000000 0.481723 0.250000
#
# Coordination Sequence:
#
# PCOD9319315 Si02
#       5
#     8   8   8   8   8
#     4  11  25  43  67 100 133 177 229 275 334 411
#     4  12  22  39  68  97 129 175 222 275 342 387
#     4  10  22  43  66  95 135 176 219 287 333 389
#     4  10  21  41  65  96 136 170 225 276 327 409
#     4  11  25  46  68  99 138 184 224 276 348 403
#
# _framework density 24.055367
#
# number of rings (size 3 to 8) (size 9 to 14) (size 15 to 20)
#    0.000    1.200    4.000    2.400    0.000    4.800 
#    0.000    5.000    0.000    0.000    0.000    0.000 
#    0.000    0.000    0.000    0.000    0.000    0.000 
#
# Total GULP energy -111519.222608 kJ/mol
# GULP energy per Si atom -5575.961130 kJ/mol
# Density = 2.400062 g / cm^3
# Si number density = 24.055367 Si / 1000 Ang^3
#
#
#
# Elastic Constant Matrix: (Units=GPa)
#
#
# Indices 1 2 3 4 5 6 
#
# 1 19.5980 29.6137 2.0025 0.0000 0.0000 0.0000
# 2 29.6137 209.4049 55.0779 0.0000 0.0000 0.0000
# 3 2.0025 55.0779 82.0324 0.0000 0.0000 0.0000
# 4 0.0000 0.0000 0.0000 57.6276 0.0000 0.0000
# 5 0.0000 0.0000 0.0000 0.0000 24.6509 0.0000
# 6 0.0000 0.0000 0.0000 0.0000 0.0000 19.0647
#
#
#
# Elastic Compliance Matrix: (Units=1/GPa)
#
#
# Indices 1 2 3 4 5 6 
#
# 1 0.067050 -0.010993 0.005744 0.000000 0.000000 0.000000
# 2 -0.010993 0.007602 -0.004836 0.000000 0.000000 0.000000
# 3 0.005744 -0.004836 0.015297 0.000000 0.000000 0.000000
# 4 0.000000 0.000000 0.000000 0.017353 0.000000 0.000000
# 5 0.000000 0.000000 0.000000 0.000000 0.040567 0.000000
# 6 0.000000 0.000000 0.000000 0.000000 0.000000 0.052453
#
#
# Mechanical properties :
#
#
# Convention : Reuss Voigt Hill
#
# Bulk Modulus (GPa) = 14.33089 53.82483 34.07786
# Shear Modulus (GPa) = 20.51287 35.22471 27.86879
#
# Velocity S-wave (km/s) = 2.92333 3.83079 3.40741
# Velocity P-wave (km/s) = 4.16712 6.48001 5.44773
#
# Compressibility (1/GPa) = 0.06977931
#
# Stress axis : x y z
#
# Youngs Moduli (GPa) = 14.91434 131.54564 65.37286
#
# Poissons Ratio (x) = 1.44606 -0.37550
# Poissons Ratio (y) = 0.16395 0.31612
# Poissons Ratio (z) = -0.08567 0.63612
#
# Static dielectric constant tensor:
#      x y z
#    x 1.997150 0.000000 0.000000 
#    y 0.000000 1.900640 0.000000 
#    z 0.000000 0.000000 2.055500 
# 
# From -- ./inp_files/23155.got.cif
#   From: 2010.05.17/outbox.cif.g08.bks.cpg/sg20_12_cif.got.tgz:23155.got - 2010.06.03 22:52:26.
