data_PCOD9319829
_publ_section_title
;
Structure prediction by ZEFSAII (Michael W. Deem and Ramdas Pophale) SiO2 
 PCOD9319829
Probable space group: C 2 2 21
;
_chemical_formula_sum "Si O2"
_cell_formula_units_Z 40
_cell_length_a 28.240025
_cell_length_b 13.154330
_cell_length_c 4.967209
_cell_angle_alpha 90.000000
_cell_angle_beta 90.000000
_cell_angle_gamma 90.000000
_cell_volume 1845.211885
_symmetry_space_group_name_H-M "C 2 2 21"
_symmetry_group_IT_number 20
_symmetry_cell_setting 'orthorhombic'
loop_
_space_group_symop_operation_xyz
x,y,z
-x,-y,1/2+z
x,-y,-z
-x,y,1/2-z
1/2+x,1/2+y,z
1/2-x,1/2-y,1/2+z
1/2+x,1/2-y,-z
1/2-x,1/2+y,1/2-z
loop_
_atom_site_type_symbol
_atom_site_label
_atom_site_fract_x
_atom_site_fract_y
_atom_site_fract_z
Si Si1 0.000000 0.854958 0.750000
Si Si2 0.575437 0.214679 0.862901
Si Si3 0.893640 0.500000 0.500000
Si Si4 0.375231 0.301188 0.151691
Si Si5 0.721216 0.219035 0.575440
Si Si6 0.824332 0.500000 0.000000
Si Si7 0.422172 0.500000 0.000000
O O1 0.971957 0.776192 0.558645
O O2 0.958052 0.930137 0.832659
O O3 0.589555 0.241964 0.556446
O O4 0.616858 0.257213 0.053228
O O5 0.574926 0.095636 0.913892
O O6 0.858688 0.524206 0.251114
O O7 0.323631 0.281239 0.036253
O O8 0.389989 0.419115 0.154322
O O9 0.736456 0.255842 0.869404
O O10 0.706286 0.100275 0.566955
#
# Coordination Sequence:
#
# PCOD9319829 Si02
#       7
#     4   8   4   8   8   4   4
#     4  10  22  40  64 106 132 186 218 292 328 404
#     4  11  22  40  67  95 135 169 235 264 334 406
#     4  12  20  42  70  94 124 190 216 269 325 418
#     4  11  23  42  64  98 127 185 218 275 334 420
#     4  12  25  43  68 102 135 167 228 291 334 405
#     4  12  24  44  71  93 130 184 219 258 361 400
#     4  10  22  40  69  89 144 176 227 265 352 408
#
# _framework density 21.677727000000001
#
# number of rings (size 3 to 8) (size 9 to 14) (size 15 to 20)
#    0.000    0.800    4.000    3.600    0.000    6.400 
#    0.000    5.000    0.000    0.000    0.000    0.000 
#    0.000    0.000    0.000    0.000    0.000    0.000 
#
# Total GULP energy -111752.016666 kJ/mol
# GULP energy per Si atom -5587.600833 kJ/mol
# Density = 2.162839 g / cm^3
# Si number density = 21.677727 Si / 1000 Ang^3
#
#
#
# Elastic Constant Matrix: (Units=GPa)
#
#
# Indices 1 2 3 4 5 6 
#
# 1 75.3687 41.0291 -6.6153 0.0000 0.0000 0.0000
# 2 41.0291 175.9028 2.6746 0.0000 0.0000 0.0000
# 3 -6.6153 2.6746 68.8626 0.0000 0.0000 0.0000
# 4 0.0000 0.0000 0.0000 22.9365 0.0000 0.0000
# 5 0.0000 0.0000 0.0000 0.0000 31.0173 0.0000
# 6 0.0000 0.0000 0.0000 0.0000 0.0000 34.4407
#
#
#
# Elastic Compliance Matrix: (Units=1/GPa)
#
#
# Indices 1 2 3 4 5 6 
#
# 1 0.015376 -0.003611 0.001617 0.000000 0.000000 0.000000
# 2 -0.003611 0.006536 -0.000601 0.000000 0.000000 0.000000
# 3 0.001617 -0.000601 0.014700 0.000000 0.000000 0.000000
# 4 0.000000 0.000000 0.000000 0.043599 0.000000 0.000000
# 5 0.000000 0.000000 0.000000 0.000000 0.032240 0.000000
# 6 0.000000 0.000000 0.000000 0.000000 0.000000 0.029035
#
#
# Mechanical properties :
#
#
# Convention : Reuss Voigt Hill
#
# Bulk Modulus (GPa) = 31.82309 43.81230 37.81770
# Shear Modulus (GPa) = 31.81674 36.54862 34.18268
#
# Velocity S-wave (km/s) = 3.83523 4.11055 3.97527
# Velocity P-wave (km/s) = 5.85867 6.54090 6.20916
#
# Compressibility (1/GPa) = 0.03142372
#
# Stress axis : x y z
#
# Youngs Moduli (GPa) = 65.03726 152.99061 68.02545
#
# Poissons Ratio (x) = 0.55245 -0.11002
# Poissons Ratio (y) = 0.23485 0.04087
# Poissons Ratio (z) = -0.10519 0.09191
#
# Static dielectric constant tensor:
#      x y z
#    x 1.824820 0.000000 0.000000 
#    y 0.000000 1.797640 0.000000 
#    z 0.000000 0.000000 1.809980 
# 
# From -- ./inp_files/4124.got.cif
#   From: 2010.05.17/outbox.cif.g08.bks.cpg/sg20_3_cif.got.tgz:4124.got - 2010.06.03 22:52:26.
