data_PCOD9319511
_publ_section_title
;
Structure prediction by ZEFSAII (Michael W. Deem and Ramdas Pophale) SiO2 
 PCOD9319511
Probable space group: C 2 2 21
;
_chemical_formula_sum "Si O2"
_cell_formula_units_Z 40
_cell_length_a 19.561418
_cell_length_b 7.779327
_cell_length_c 11.453903
_cell_angle_alpha 90.000000
_cell_angle_beta 90.000000
_cell_angle_gamma 90.000000
_cell_volume 1742.993877
_symmetry_space_group_name_H-M "C 2 2 21"
_symmetry_group_IT_number 20
_symmetry_cell_setting 'orthorhombic'
loop_
_space_group_symop_operation_xyz
x,y,z
-x,-y,1/2+z
x,-y,-z
-x,y,1/2-z
1/2+x,1/2+y,z
1/2-x,1/2-y,1/2+z
1/2+x,1/2-y,-z
1/2-x,1/2+y,1/2-z
loop_
_atom_site_type_symbol
_atom_site_label
_atom_site_fract_x
_atom_site_fract_y
_atom_site_fract_z
Si Si1 0.629137 0.000000 0.500000
Si Si2 0.013885 0.328927 0.384946
Si Si3 0.379540 0.676281 0.429229
Si Si4 0.753169 0.237512 0.586701
Si Si5 0.585208 0.500000 0.500000
Si Si6 0.824065 0.014896 0.787307
O O1 0.569872 0.018734 0.600226
O O2 0.684304 0.144070 0.540653
O O3 0.937544 0.320575 0.439078
O O4 0.000000 0.306311 0.250000
O O5 0.045971 0.159161 0.443600
O O6 0.398753 0.500000 0.500000
O O7 0.308234 0.734779 0.484572
O O8 0.364606 0.618573 0.296295
O O9 0.733121 0.419105 0.638005
O O10 0.788307 0.140064 0.695797
O O11 0.626321 0.420377 0.389275
#
# Coordination Sequence:
#
# PCOD9319511 Si02
#       6
#     4   8   8   8   4   8
#     4  12  24  47  71 100 148 186 236 308 370 419
#     4  12  25  47  68 100 148 187 236 303 365 439
#     4  10  21  44  66  94 135 182 231 295 348 432
#     4  11  24  45  70  99 140 186 242 304 357 440
#     4  12  24  39  77 100 132 194 244 290 364 445
#     4  11  24  42  71  99 137 183 247 296 362 427
#
# _framework density 22.949020000000001
#
# number of rings (size 3 to 8) (size 9 to 14) (size 15 to 20)
#    0.000    0.800    8.000    0.000    5.600    0.000 
#    7.200    1.000    0.000    0.000    0.000    0.000 
#    0.000    0.000    0.000    0.000    0.000    0.000 
#
# Total GULP energy -111509.279846 kJ/mol
# GULP energy per Si atom -5575.463992 kJ/mol
# Density = 2.289679 g / cm^3
# Si number density = 22.949020 Si / 1000 Ang^3
#
#
#
# Elastic Constant Matrix: (Units=GPa)
#
#
# Indices 1 2 3 4 5 6 
#
# 1 157.3180 15.8774 67.4469 0.0000 0.0000 0.0000
# 2 15.8774 34.8250 37.4682 0.0000 0.0000 0.0000
# 3 67.4469 37.4682 170.7104 0.0000 0.0000 0.0000
# 4 0.0000 0.0000 0.0000 27.3400 0.0000 0.0000
# 5 0.0000 0.0000 0.0000 0.0000 57.5876 0.0000
# 6 0.0000 0.0000 0.0000 0.0000 0.0000 -23.7596
#
#
#
# Elastic Compliance Matrix: (Units=1/GPa)
#
#
# Indices 1 2 3 4 5 6 
#
# 1 0.007655 -0.000309 -0.002957 0.000000 0.000000 0.000000
# 2 -0.000309 0.037605 -0.008132 0.000000 0.000000 0.000000
# 3 -0.002957 -0.008132 0.008811 0.000000 0.000000 0.000000
# 4 0.000000 0.000000 0.000000 0.036576 0.000000 0.000000
# 5 0.000000 0.000000 0.000000 0.000000 0.017365 0.000000
# 6 0.000000 0.000000 0.000000 0.000000 0.000000 -0.042088
#
#
# Mechanical properties :
#
#
# Convention : Reuss Voigt Hill
#
# Bulk Modulus (GPa) = 31.97321 67.15983 49.56652
# Shear Modulus (GPa) = 50.43173 28.37100 39.40137
#
# Velocity S-wave (km/s) = 4.69289 3.51987 4.14805
# Velocity P-wave (km/s) = 6.58231 6.77109 6.67737
#
# Compressibility (1/GPa) = 0.03127618
#
# Stress axis : x y z
#
# Youngs Moduli (GPa) = 130.62665 26.59246 113.49679
#
# Poissons Ratio (x) = 0.00822 0.33559
# Poissons Ratio (y) = 0.04037 0.92290
# Poissons Ratio (z) = 0.38624 0.21624
#
# Static dielectric constant tensor:
#      x y z
#    x 1.901230 0.000000 0.000000 
#    y 0.000000 1.942070 0.000000 
#    z 0.000000 0.000000 2.107750 
# 
# From -- ./inp_files/15589.got.cif
#   From: 2010.05.17/outbox.cif.g08.bks.cpg/sg20_8_cif.got.tgz:15589.got - 2010.06.03 22:52:26.
