data_PCOD9319514
_publ_section_title
;
Structure prediction by ZEFSAII (Michael W. Deem and Ramdas Pophale) SiO2 
 PCOD9319514
Probable space group: C 2 2 21
;
_chemical_formula_sum "Si O2"
_cell_formula_units_Z 64
_cell_length_a 10.633489
_cell_length_b 9.937464
_cell_length_c 27.934373
_cell_angle_alpha 90.000000
_cell_angle_beta 90.000000
_cell_angle_gamma 90.000000
_cell_volume 2951.822796
_symmetry_space_group_name_H-M "C 2 2 21"
_symmetry_group_IT_number 20
_symmetry_cell_setting 'orthorhombic'
loop_
_space_group_symop_operation_xyz
x,y,z
-x,-y,1/2+z
x,-y,-z
-x,y,1/2-z
1/2+x,1/2+y,z
1/2-x,1/2-y,1/2+z
1/2+x,1/2-y,-z
1/2-x,1/2+y,1/2-z
loop_
_atom_site_type_symbol
_atom_site_label
_atom_site_fract_x
_atom_site_fract_y
_atom_site_fract_z
Si Si1 0.837568 0.389333 0.053509
Si Si2 0.279449 0.204468 0.846538
Si Si3 0.590113 0.824631 0.551176
Si Si4 0.798244 0.990646 0.803478
Si Si5 0.550215 0.436610 0.049567
Si Si6 0.444606 0.510645 0.348840
Si Si7 0.765065 0.729197 0.147342
Si Si8 0.379669 0.982410 0.783734
O O1 0.834494 0.298001 0.100019
O O2 0.931513 0.516173 0.059565
O O3 0.699870 0.459016 0.052117
O O4 0.857725 0.318644 0.002985
O O5 0.255136 0.352504 0.828039
O O6 0.376123 0.121024 0.813361
O O7 0.152961 0.113722 0.845459
O O8 0.473887 0.722986 0.551537
O O9 0.682966 0.774772 0.593202
O O10 0.948595 0.993281 0.809207
O O11 0.752013 0.123450 0.830958
O O12 0.742540 0.988063 0.750502
O O13 0.494273 0.497193 0.098248
O O14 0.503180 0.500000 0.000000
O O15 0.363058 0.645425 0.348656
O O16 0.862684 0.641630 0.179735
O O17 0.500000 0.969235 0.750000
#
# Coordination Sequence:
#
# PCOD9319514 Si02
#       8
#     8   8   8   8   8   8   8   8
#     4  10  21  44  67  94 140 175 219 279 337 412
#     4  10  24  47  67 101 135 182 227 283 348 405
#     4  11  20  38  72  97 128 183 222 267 350 404
#     4  12  26  42  71 104 129 181 233 279 343 404
#     4  11  20  37  68  96 131 178 222 271 339 398
#     4  10  23  44  70  91 139 180 214 285 339 403
#     4  11  23  46  68 101 137 177 229 285 343 408
#     4  11  26  46  69  98 141 184 226 289 349 413
#
# _framework density 21.681516999999999
#
# number of rings (size 3 to 8) (size 9 to 14) (size 15 to 20)
#    0.000    1.250    6.250    0.750    5.250    2.000 
#    0.000    0.000    8.250    0.000    0.000    0.000 
#    0.000    0.000    0.000    0.000    0.000    0.000 
#
# Total GULP energy -178798.341659 kJ/mol
# GULP energy per Si atom -5587.448177 kJ/mol
# Density = 2.163217 g / cm^3
# Si number density = 21.681517 Si / 1000 Ang^3
#
#
#
# Elastic Constant Matrix: (Units=GPa)
#
#
# Indices 1 2 3 4 5 6 
#
# 1 60.2134 16.6703 15.1536 0.0000 0.0000 0.0000
# 2 16.6703 150.6122 42.1601 0.0000 0.0000 0.0000
# 3 15.1536 42.1601 143.0651 0.0000 0.0000 0.0000
# 4 0.0000 0.0000 0.0000 13.7031 0.0000 0.0000
# 5 0.0000 0.0000 0.0000 0.0000 11.0763 0.0000
# 6 0.0000 0.0000 0.0000 0.0000 0.0000 22.2383
#
#
#
# Elastic Compliance Matrix: (Units=1/GPa)
#
#
# Indices 1 2 3 4 5 6 
#
# 1 0.017382 -0.001535 -0.001389 0.000000 0.000000 0.000000
# 2 -0.001535 0.007372 -0.002010 0.000000 0.000000 0.000000
# 3 -0.001389 -0.002010 0.007729 0.000000 0.000000 0.000000
# 4 0.000000 0.000000 0.000000 0.072976 0.000000 0.000000
# 5 0.000000 0.000000 0.000000 0.000000 0.090283 0.000000
# 6 0.000000 0.000000 0.000000 0.000000 0.000000 0.044968
#
#
# Mechanical properties :
#
#
# Convention : Reuss Voigt Hill
#
# Bulk Modulus (GPa) = 44.21678 55.76208 49.98943
# Shear Modulus (GPa) = 19.37114 28.06399 23.71757
#
# Velocity S-wave (km/s) = 2.99229 3.60164 3.31101
# Velocity P-wave (km/s) = 5.69003 6.56280 6.14194
#
# Compressibility (1/GPa) = 0.02261585
#
# Stress axis : x y z
#
# Youngs Moduli (GPa) = 57.53045 135.64639 129.37920
#
# Poissons Ratio (x) = 0.20824 0.17967
# Poissons Ratio (y) = 0.08832 0.26004
# Poissons Ratio (z) = 0.07989 0.27263
#
# Static dielectric constant tensor:
#      x y z
#    x 1.795900 0.000000 0.000000 
#    y 0.000000 1.765150 0.000000 
#    z 0.000000 0.000000 1.824030 
# 
# From -- ./inp_files/31209.got.cif
#   From: 2010.05.17/outbox.cif.g08.bks.cpg/sg20_16_cif.got.tgz:31209.got - 2010.06.03 22:52:26.
