data_PCOD9319905
_publ_section_title
;
Structure prediction by ZEFSAII (Michael W. Deem and Ramdas Pophale) SiO2 
 PCOD9319905
Probable space group: C 2 2 21
;
_chemical_formula_sum "Si O2"
_cell_formula_units_Z 48
_cell_length_a 23.249460
_cell_length_b 5.375892
_cell_length_c 16.969547
_cell_angle_alpha 90.000000
_cell_angle_beta 90.000000
_cell_angle_gamma 90.000000
_cell_volume 2120.965746
_symmetry_space_group_name_H-M "C 2 2 21"
_symmetry_group_IT_number 20
_symmetry_cell_setting 'orthorhombic'
loop_
_space_group_symop_operation_xyz
x,y,z
-x,-y,1/2+z
x,-y,-z
-x,y,1/2-z
1/2+x,1/2+y,z
1/2-x,1/2-y,1/2+z
1/2+x,1/2-y,-z
1/2-x,1/2+y,1/2-z
loop_
_atom_site_type_symbol
_atom_site_label
_atom_site_fract_x
_atom_site_fract_y
_atom_site_fract_z
Si Si1 0.100003 0.736371 0.343319
Si Si2 0.500000 0.515566 0.750000
Si Si3 0.828177 0.976049 0.594447
Si Si4 0.110634 0.474473 0.905449
Si Si5 0.730896 0.158345 0.294488
Si Si6 0.508724 0.861034 0.388537
Si Si7 0.439932 0.500000 0.000000
O O1 0.164233 0.702320 0.313709
O O2 0.069561 0.478225 0.366187
O O3 0.094862 0.904965 0.423142
O O4 0.056872 0.837585 0.276219
O O5 0.509871 0.340570 0.824714
O O6 0.852866 0.240084 0.623390
O O7 0.765215 0.916921 0.626490
O O8 0.829024 0.000000 0.500000
O O9 0.866262 0.741826 0.622802
O O10 0.043230 0.444818 0.888300
O O11 0.116247 0.500000 0.000000
O O12 0.743193 0.917699 0.239196
O O13 0.519053 0.720816 0.470212
#
# Coordination Sequence:
#
# PCOD9319905 Si02
#       7
#     8   4   8   8   8   8   4
#     4  11  26  48  73 108 147 198 250 312 384 457
#     4  10  26  42  70 104 144 190 242 292 386 454
#     4  10  24  45  69 105 140 195 247 303 361 441
#     4  10  22  40  71 104 142 180 235 297 367 432
#     4  12  30  51  75 105 148 200 256 317 380 451
#     4  11  24  42  72 111 149 192 239 314 378 455
#     4  10  24  44  74 114 148 192 248 314 386 454
#
# _framework density 22.631201000000001
#
# number of rings (size 3 to 8) (size 9 to 14) (size 15 to 20)
#    0.000    1.333    0.000    3.000   15.167    4.000 
#    4.500    0.000    0.000    0.000    0.000    0.000 
#    0.000    0.000    0.000    0.000    0.000    0.000 
#
# Total GULP energy -134230.868577 kJ/mol
# GULP energy per Si atom -5592.952857 kJ/mol
# Density = 2.257969 g / cm^3
# Si number density = 22.631201 Si / 1000 Ang^3
#
#
#
# Elastic Constant Matrix: (Units=GPa)
#
#
# Indices 1 2 3 4 5 6 
#
# 1 205.4942 78.5947 68.9942 0.0000 0.0000 0.0000
# 2 78.5947 152.5104 55.1560 0.0000 0.0000 0.0000
# 3 68.9942 55.1560 89.9921 0.0000 0.0000 0.0000
# 4 0.0000 0.0000 0.0000 39.3140 0.0000 0.0000
# 5 0.0000 0.0000 0.0000 0.0000 37.0934 0.0000
# 6 0.0000 0.0000 0.0000 0.0000 0.0000 32.1642
#
#
#
# Elastic Compliance Matrix: (Units=1/GPa)
#
#
# Indices 1 2 3 4 5 6 
#
# 1 0.007067 -0.002162 -0.004094 0.000000 0.000000 0.000000
# 2 -0.002162 0.009085 -0.003911 0.000000 0.000000 0.000000
# 3 -0.004094 -0.003911 0.016648 0.000000 0.000000 0.000000
# 4 0.000000 0.000000 0.000000 0.025436 0.000000 0.000000
# 5 0.000000 0.000000 0.000000 0.000000 0.026959 0.000000
# 6 0.000000 0.000000 0.000000 0.000000 0.000000 0.031090
#
#
# Mechanical properties :
#
#
# Convention : Reuss Voigt Hill
#
# Bulk Modulus (GPa) = 80.20671 94.83185 87.51928
# Shear Modulus (GPa) = 35.51773 38.06444 36.79109
#
# Velocity S-wave (km/s) = 3.96588 4.10560 4.03635
# Velocity P-wave (km/s) = 7.51589 8.02924 7.77681
#
# Compressibility (1/GPa) = 0.01246778
#
# Stress axis : x y z
#
# Youngs Moduli (GPa) = 141.49289 110.06636 60.06882
#
# Poissons Ratio (x) = 0.23793 0.24589
# Poissons Ratio (y) = 0.30587 0.23494
# Poissons Ratio (z) = 0.57920 0.43048
#
# Static dielectric constant tensor:
#      x y z
#    x 1.791020 0.000000 0.000000 
#    y 0.000000 1.872410 0.000000 
#    z 0.000000 0.000000 1.858720 
# 
# From -- ./inp_files/25599.got.cif
#   From: 2010.05.17/outbox.cif.g08.bks.cpg/sg20_13_cif.got.tgz:25599.got - 2010.06.03 22:52:26.
