data_PCOD9319096
_publ_section_title
;
Structure prediction by ZEFSAII (Michael W. Deem and Ramdas Pophale) SiO2 
 PCOD9319096
Probable space group: C 2 2 21
;
_chemical_formula_sum "Si O2"
_cell_formula_units_Z 40
_cell_length_a 19.821150
_cell_length_b 9.618333
_cell_length_c 8.493266
_cell_angle_alpha 90.000000
_cell_angle_beta 90.000000
_cell_angle_gamma 90.000000
_cell_volume 1619.210767
_symmetry_space_group_name_H-M "C 2 2 21"
_symmetry_group_IT_number 20
_symmetry_cell_setting 'orthorhombic'
loop_
_space_group_symop_operation_xyz
x,y,z
-x,-y,1/2+z
x,-y,-z
-x,y,1/2-z
1/2+x,1/2+y,z
1/2-x,1/2-y,1/2+z
1/2+x,1/2-y,-z
1/2-x,1/2+y,1/2-z
loop_
_atom_site_type_symbol
_atom_site_label
_atom_site_fract_x
_atom_site_fract_y
_atom_site_fract_z
Si Si1 0.427111 0.797908 0.220515
Si Si2 0.140647 0.944773 0.830023
Si Si3 0.261798 0.347877 0.926502
Si Si4 0.383519 0.064970 0.341516
Si Si5 0.385079 0.288855 0.112724
O O1 0.500000 0.862334 0.250000
O O2 0.415655 0.674237 0.345108
O O3 0.373208 0.923079 0.240474
O O4 0.423469 0.720587 0.052856
O O5 0.199469 0.861558 0.738727
O O6 0.117683 0.069615 0.713833
O O7 0.160929 0.000000 0.000000
O O8 0.182100 0.344045 0.896870
O O9 0.268578 0.500000 0.000000
O O10 0.308010 0.259473 0.046667
O O11 0.416529 0.171711 0.223298
O O12 0.414094 0.000000 0.500000
#
# Coordination Sequence:
#
# PCOD9319096 Si02
#       5
#     8   8   8   8   8
#     4  11  25  44  63  91 132 179 225 272 331 396
#     4  10  21  39  65  97 129 171 224 277 332 392
#     4   8  19  37  60  91 128 165 207 261 327 395
#     4  11  23  40  65  98 131 170 218 274 335 396
#     4  10  22  42  65  93 133 175 222 276 331 393
#
# _framework density 24.703392000000001
#
# number of rings (size 3 to 8) (size 9 to 14) (size 15 to 20)
#    0.000    2.000    0.000    3.600    0.000   16.000 
#    0.000    5.000    0.000    0.000    0.000    0.000 
#    0.000    0.000    0.000    0.000    0.000    0.000 
#
# Total GULP energy -111426.394037 kJ/mol
# GULP energy per Si atom -5571.319702 kJ/mol
# Density = 2.464717 g / cm^3
# Si number density = 24.703392 Si / 1000 Ang^3
#
#
#
# Elastic Constant Matrix: (Units=GPa)
#
#
# Indices 1 2 3 4 5 6 
#
# 1 57.1483 13.2304 30.5482 0.0000 0.0000 0.0000
# 2 13.2304 105.8991 27.1838 0.0000 0.0000 0.0000
# 3 30.5482 27.1838 98.5790 0.0000 0.0000 0.0000
# 4 0.0000 0.0000 0.0000 49.9396 0.0000 0.0000
# 5 0.0000 0.0000 0.0000 0.0000 13.9204 0.0000
# 6 0.0000 0.0000 0.0000 0.0000 0.0000 14.6313
#
#
#
# Elastic Compliance Matrix: (Units=1/GPa)
#
#
# Indices 1 2 3 4 5 6 
#
# 1 0.021076 -0.001029 -0.006247 0.000000 0.000000 0.000000
# 2 -0.001029 0.010213 -0.002497 0.000000 0.000000 0.000000
# 3 -0.006247 -0.002497 0.012769 0.000000 0.000000 0.000000
# 4 0.000000 0.000000 0.000000 0.020024 0.000000 0.000000
# 5 0.000000 0.000000 0.000000 0.000000 0.071837 0.000000
# 6 0.000000 0.000000 0.000000 0.000000 0.000000 0.068347
#
#
# Mechanical properties :
#
#
# Convention : Reuss Voigt Hill
#
# Bulk Modulus (GPa) = 40.80045 44.83901 42.81973
# Shear Modulus (GPa) = 21.55331 28.40920 24.98126
#
# Velocity S-wave (km/s) = 2.95699 3.39486 3.18346
# Velocity P-wave (km/s) = 5.31134 5.79285 5.55732
#
# Compressibility (1/GPa) = 0.02450953
#
# Stress axis : x y z
#
# Youngs Moduli (GPa) = 47.44706 97.91846 78.31650
#
# Poissons Ratio (x) = 0.10081 0.48927
# Poissons Ratio (y) = 0.04885 0.19557
# Poissons Ratio (z) = 0.29642 0.24452
#
# Static dielectric constant tensor:
#      x y z
#    x 2.165160 0.000000 0.000000 
#    y 0.000000 1.925310 0.000000 
#    z 0.000000 0.000000 2.004030 
# 
# From -- ./inp_files/9984.got.cif
#   From: 2010.05.17/outbox.cif.g08.bks.cpg/sg20_5_cif.got.tgz:9984.got - 2010.06.03 22:52:26.
