data_PCOD9319049
_publ_section_title
;
Structure prediction by ZEFSAII (Michael W. Deem and Ramdas Pophale) SiO2 
 PCOD9319049
Probable space group: C 2 2 21
;
_chemical_formula_sum "Si O2"
_cell_formula_units_Z 60
_cell_length_a 9.261611
_cell_length_b 11.186966
_cell_length_c 27.119364
_cell_angle_alpha 90.000000
_cell_angle_beta 90.000000
_cell_angle_gamma 90.000000
_cell_volume 2809.819063
_symmetry_space_group_name_H-M "C 2 2 21"
_symmetry_group_IT_number 20
_symmetry_cell_setting 'orthorhombic'
loop_
_space_group_symop_operation_xyz
x,y,z
-x,-y,1/2+z
x,-y,-z
-x,y,1/2-z
1/2+x,1/2+y,z
1/2-x,1/2-y,1/2+z
1/2+x,1/2-y,-z
1/2-x,1/2+y,1/2-z
loop_
_atom_site_type_symbol
_atom_site_label
_atom_site_fract_x
_atom_site_fract_y
_atom_site_fract_z
Si Si1 0.916408 0.433499 0.824188
Si Si2 0.160787 0.614112 0.817031
Si Si3 0.238503 0.332007 0.295376
Si Si4 0.115382 0.207253 0.610699
Si Si5 0.821352 0.122139 0.562254
Si Si6 0.500000 0.240068 0.250000
Si Si7 0.841314 0.847716 0.552282
Si Si8 0.421702 0.738100 0.122281
O O1 0.807049 0.544526 0.822383
O O2 0.912030 0.340560 0.868170
O O3 0.075300 0.489747 0.818717
O O4 0.890089 0.347438 0.777737
O O5 0.174619 0.653825 0.760020
O O6 0.308886 0.626187 0.847096
O O7 0.052869 0.697138 0.848609
O O8 0.408010 0.317210 0.287614
O O9 0.180524 0.222925 0.329164
O O10 0.235556 0.240255 0.569409
O O11 0.967455 0.150803 0.592139
O O12 0.857047 0.162266 0.506406
O O13 0.685395 0.189996 0.585985
O O14 0.784088 0.981820 0.561157
O O15 0.988527 0.844796 0.584881
#
# Coordination Sequence:
#
# PCOD9319049 Si02
#       8
#     8   8   8   8   8   4   8   8
#     4  11  21  40  60  84 127 166 201 255 305 349
#     4  10  21  39  62  90 126 167 209 248 301 374
#     4  11  22  39  60  92 127 166 214 253 299 380
#     4  11  23  40  65  92 122 163 211 252 311 376
#     4  11  23  42  65  92 124 154 209 264 311 382
#     4  12  22  36  60  88 122 168 208 250 298 354
#     4  10  23  43  65  92 122 160 201 264 324 364
#     4  10  21  39  64  90 124 163 203 250 314 369
#
# _framework density 21.353687999999998
#
# number of rings (size 3 to 8) (size 9 to 14) (size 15 to 20)
#    0.000    1.333    2.667    4.400    0.000    2.133 
#    0.000    2.667    0.000    6.400    0.000    0.000 
#    0.000    0.000    0.000    0.000    0.000    0.000 
#
# Total GULP energy -167109.431867 kJ/mol
# GULP energy per Si atom -5570.314396 kJ/mol
# Density = 2.130509 g / cm^3
# Si number density = 21.353688 Si / 1000 Ang^3
#
#
#
# Elastic Constant Matrix: (Units=GPa)
#
#
# Indices 1 2 3 4 5 6 
#
# 1 57.9737 7.5281 9.3479 0.0000 0.0000 0.0000
# 2 7.5281 41.3857 9.1851 0.0000 0.0000 0.0000
# 3 9.3479 9.1851 122.7864 0.0000 0.0000 0.0000
# 4 0.0000 0.0000 0.0000 31.2837 0.0000 0.0000
# 5 0.0000 0.0000 0.0000 0.0000 38.9503 0.0000
# 6 0.0000 0.0000 0.0000 0.0000 0.0000 30.8042
#
#
#
# Elastic Compliance Matrix: (Units=1/GPa)
#
#
# Indices 1 2 3 4 5 6 
#
# 1 0.017820 -0.002990 -0.001133 0.000000 0.000000 0.000000
# 2 -0.002990 0.025073 -0.001648 0.000000 0.000000 0.000000
# 3 -0.001133 -0.001648 0.008354 0.000000 0.000000 0.000000
# 4 0.000000 0.000000 0.000000 0.031966 0.000000 0.000000
# 5 0.000000 0.000000 0.000000 0.000000 0.025674 0.000000
# 6 0.000000 0.000000 0.000000 0.000000 0.000000 0.032463
#
#
# Mechanical properties :
#
#
# Convention : Reuss Voigt Hill
#
# Bulk Modulus (GPa) = 25.18605 30.47423 27.83014
# Shear Modulus (GPa) = 30.09771 33.27996 31.68883
#
# Velocity S-wave (km/s) = 3.75838 3.95208 3.85645
# Velocity P-wave (km/s) = 5.53663 5.92684 5.73505
#
# Compressibility (1/GPa) = 0.03970452
#
# Stress axis : x y z
#
# Youngs Moduli (GPa) = 56.11624 39.88425 119.70669
#
# Poissons Ratio (x) = 0.11926 0.13563
# Poissons Ratio (y) = 0.16779 0.19727
# Poissons Ratio (z) = 0.06358 0.06573
#
# Static dielectric constant tensor:
#      x y z
#    x 1.826590 0.000000 0.000000 
#    y 0.000000 1.782340 0.000000 
#    z 0.000000 0.000000 1.848670 
# 
# From -- ./inp_files/30152.got.cif
#   From: 2010.05.17/outbox.cif.g08.bks.cpg/sg20_16_cif.got.tgz:30152.got - 2010.06.03 22:52:26.
