data_PCOD9319461
_publ_section_title
;
Structure prediction by ZEFSAII (Michael W. Deem and Ramdas Pophale) SiO2 
 PCOD9319461
Probable space group: C 2 2 21
;
_chemical_formula_sum "Si O2"
_cell_formula_units_Z 40
_cell_length_a 23.979335
_cell_length_b 13.998452
_cell_length_c 5.072201
_cell_angle_alpha 90.000000
_cell_angle_beta 90.000000
_cell_angle_gamma 90.000000
_cell_volume 1702.603817
_symmetry_space_group_name_H-M "C 2 2 21"
_symmetry_group_IT_number 20
_symmetry_cell_setting 'orthorhombic'
loop_
_space_group_symop_operation_xyz
x,y,z
-x,-y,1/2+z
x,-y,-z
-x,y,1/2-z
1/2+x,1/2+y,z
1/2-x,1/2-y,1/2+z
1/2+x,1/2-y,-z
1/2-x,1/2+y,1/2-z
loop_
_atom_site_type_symbol
_atom_site_label
_atom_site_fract_x
_atom_site_fract_y
_atom_site_fract_z
Si Si1 0.960356 0.000000 0.500000
Si Si2 0.823041 0.235570 0.869909
Si Si3 0.563527 0.905204 0.840712
Si Si4 0.437113 0.300067 0.369477
Si Si5 0.789253 0.356900 0.359563
Si Si6 0.351219 0.000000 0.000000
O O1 0.929686 0.101492 0.475309
O O2 0.000000 0.006166 0.750000
O O3 0.886177 0.201538 0.834984
O O4 0.807097 0.316827 0.647572
O O5 0.777621 0.151061 0.836126
O O6 0.812048 0.277701 0.156400
O O7 0.500000 0.911356 0.750000
O O8 0.568774 0.805493 0.996111
O O9 0.606289 0.917334 0.599601
O O10 0.575441 0.000000 0.000000
O O11 0.500000 0.299065 0.250000
O O12 0.813714 0.454305 0.233053
#
# Coordination Sequence:
#
# PCOD9319461 Si02
#       6
#     4   8   8   8   8   4
#     4  10  24  45  64  94 128 173 228 280 332 386
#     4  10  21  43  60  92 125 170 220 269 326 386
#     4  11  22  37  58  99 136 176 215 266 341 410
#     4  10  22  41  67  95 135 174 220 278 333 396
#     4  10  23  38  64  88 130 172 215 270 321 390
#     4  12  22  37  62  94 132 173 220 268 334 406
#
# _framework density 23.493428999999999
#
# number of rings (size 3 to 8) (size 9 to 14) (size 15 to 20)
#    0.000    1.600    3.000    1.200    0.000    4.800 
#    3.600    0.000    0.000    2.400    0.000    0.000 
#    0.000    0.000    0.000    0.000    0.000    0.000 
#
# Total GULP energy -111598.561115 kJ/mol
# GULP energy per Si atom -5579.928056 kJ/mol
# Density = 2.343996 g / cm^3
# Si number density = 23.493429 Si / 1000 Ang^3
#
#
#
# Elastic Constant Matrix: (Units=GPa)
#
#
# Indices 1 2 3 4 5 6 
#
# 1 167.3085 13.1502 8.7625 0.0000 0.0000 0.0000
# 2 13.1502 177.3796 16.4747 0.0000 0.0000 0.0000
# 3 8.7625 16.4747 79.1271 0.0000 0.0000 0.0000
# 4 0.0000 0.0000 0.0000 28.4253 0.0000 0.0000
# 5 0.0000 0.0000 0.0000 0.0000 21.4330 0.0000
# 6 0.0000 0.0000 0.0000 0.0000 0.0000 28.6286
#
#
#
# Elastic Compliance Matrix: (Units=1/GPa)
#
#
# Indices 1 2 3 4 5 6 
#
# 1 0.006039 -0.000393 -0.000587 0.000000 0.000000 0.000000
# 2 -0.000393 0.005774 -0.001159 0.000000 0.000000 0.000000
# 3 -0.000587 -0.001159 0.012944 0.000000 0.000000 0.000000
# 4 0.000000 0.000000 0.000000 0.035180 0.000000 0.000000
# 5 0.000000 0.000000 0.000000 0.000000 0.046657 0.000000
# 6 0.000000 0.000000 0.000000 0.000000 0.000000 0.034930
#
#
# Mechanical properties :
#
#
# Convention : Reuss Voigt Hill
#
# Bulk Modulus (GPa) = 48.82893 55.62109 52.22501
# Shear Modulus (GPa) = 32.75933 41.39256 37.07595
#
# Velocity S-wave (km/s) = 3.73822 4.20203 3.97689
# Velocity P-wave (km/s) = 6.28185 6.87527 6.58524
#
# Compressibility (1/GPa) = 0.02047966
#
# Stress axis : x y z
#
# Youngs Moduli (GPa) = 165.60069 173.17827 77.25503
#
# Poissons Ratio (x) = 0.06809 0.04534
# Poissons Ratio (y) = 0.06511 0.08952
# Poissons Ratio (z) = 0.09718 0.20067
#
# Static dielectric constant tensor:
#      x y z
#    x 1.907230 0.000000 0.000000 
#    y 0.000000 2.008650 0.000000 
#    z 0.000000 0.000000 1.929160 
# 
# From -- ./inp_files/3667.got.cif
#   From: 2010.05.17/outbox.cif.g08.bks.cpg/sg20_2_cif.got.tgz:3667.got - 2010.06.03 22:52:26.
