data_PCOD9319626
_publ_section_title
;
Structure prediction by ZEFSAII (Michael W. Deem and Ramdas Pophale) SiO2 
 PCOD9319626
Probable space group: C 2 2 21
;
_chemical_formula_sum "Si O2"
_cell_formula_units_Z 48
_cell_length_a 7.247782
_cell_length_b 13.615726
_cell_length_c 18.105141
_cell_angle_alpha 90.000000
_cell_angle_beta 90.000000
_cell_angle_gamma 90.000000
_cell_volume 1786.684364
_symmetry_space_group_name_H-M "C 2 2 21"
_symmetry_group_IT_number 20
_symmetry_cell_setting 'orthorhombic'
loop_
_space_group_symop_operation_xyz
x,y,z
-x,-y,1/2+z
x,-y,-z
-x,y,1/2-z
1/2+x,1/2+y,z
1/2-x,1/2-y,1/2+z
1/2+x,1/2-y,-z
1/2-x,1/2+y,1/2-z
loop_
_atom_site_type_symbol
_atom_site_label
_atom_site_fract_x
_atom_site_fract_y
_atom_site_fract_z
Si Si1 0.668256 0.259933 0.836643
Si Si2 0.403571 0.297958 0.498549
Si Si3 0.000000 0.760546 0.250000
Si Si4 0.192416 0.087396 0.863130
Si Si5 0.426733 0.433468 0.828185
Si Si6 0.000000 0.586516 0.750000
Si Si7 0.207692 0.402840 0.954596
O O1 0.481150 0.320127 0.824973
O O2 0.631515 0.153301 0.803142
O O3 0.837877 0.300228 0.788914
O O4 0.688532 0.271028 0.923179
O O5 0.276832 0.359006 0.441103
O O6 0.593436 0.357692 0.515998
O O7 0.424699 0.190045 0.462239
O O8 0.916161 0.830296 0.314381
O O9 0.357993 0.047679 0.811693
O O10 0.059318 0.996845 0.880508
O O11 0.500000 0.472802 0.750000
O O12 0.233081 0.435198 0.868752
O O13 0.159274 0.500000 0.000000
#
# Coordination Sequence:
#
# PCOD9319626 Si02
#       7
#     8   8   4   8   8   4   8
#     4  10  22  39  62  91 129 170 222 271 339 397
#     4  11  23  41  68  96 134 178 222 281 335 402
#     4  10  22  36  60  90 122 172 214 272 340 390
#     4  11  21  39  64  92 130 173 220 275 337 394
#     4  11  22  39  64  96 126 170 224 271 330 405
#     4  10  22  38  60  94 126 172 214 278 344 384
#     4  11  24  44  71  98 132 180 225 272 343 405
#
# _framework density 26.865404999999999
#
# number of rings (size 3 to 8) (size 9 to 14) (size 15 to 20)
#    0.000    1.333    3.333    3.000    2.333    0.667 
#    0.000    0.833   11.000    0.000    0.000    0.000 
#    0.000    0.000    0.000    0.000    0.000    0.000 
#
# Total GULP energy -134035.321480 kJ/mol
# GULP energy per Si atom -5584.805062 kJ/mol
# Density = 2.680426 g / cm^3
# Si number density = 26.865405 Si / 1000 Ang^3
#
#
#
# Elastic Constant Matrix: (Units=GPa)
#
#
# Indices 1 2 3 4 5 6 
#
# 1 87.5620 6.2590 19.2710 0.0000 0.0000 0.0000
# 2 6.2590 91.2406 13.4268 0.0000 0.0000 0.0000
# 3 19.2710 13.4268 140.5298 0.0000 0.0000 0.0000
# 4 0.0000 0.0000 0.0000 24.4999 0.0000 0.0000
# 5 0.0000 0.0000 0.0000 0.0000 38.5484 0.0000
# 6 0.0000 0.0000 0.0000 0.0000 0.0000 -12.2855
#
#
#
# Elastic Compliance Matrix: (Units=1/GPa)
#
#
# Indices 1 2 3 4 5 6 
#
# 1 0.011806 -0.000580 -0.001564 0.000000 0.000000 0.000000
# 2 -0.000580 0.011145 -0.000985 0.000000 0.000000 0.000000
# 3 -0.001564 -0.000985 0.007424 0.000000 0.000000 0.000000
# 4 0.000000 0.000000 0.000000 0.040816 0.000000 0.000000
# 5 0.000000 0.000000 0.000000 0.000000 0.025941 0.000000
# 6 0.000000 0.000000 0.000000 0.000000 0.000000 -0.081397
#
#
# Mechanical properties :
#
#
# Convention : Reuss Voigt Hill
#
# Bulk Modulus (GPa) = 41.46289 44.13846 42.80067
# Shear Modulus (GPa) = 166.48279 28.84426 97.66352
#
# Velocity S-wave (km/s) = 7.88059 3.28023 6.03588
# Velocity P-wave (km/s) = 9.91323 5.55083 8.03379
#
# Compressibility (1/GPa) = 0.02411795
#
# Stress axis : x y z
#
# Youngs Moduli (GPa) = 84.70239 89.72793 134.68945
#
# Poissons Ratio (x) = 0.05202 0.21060
# Poissons Ratio (y) = 0.04911 0.13271
# Poissons Ratio (z) = 0.13244 0.08841
#
# Static dielectric constant tensor:
#      x y z
#    x 2.175290 0.000000 0.000000 
#    y 0.000000 2.047370 0.000000 
#    z 0.000000 0.000000 2.850930 
# 
# From -- ./inp_files/23517.got.cif
#   From: 2010.05.17/outbox.cif.g08.bks.cpg/sg20_12_cif.got.tgz:23517.got - 2010.06.03 22:52:26.
