data_PCOD9319325
_publ_section_title
;
Structure prediction by ZEFSAII (Michael W. Deem and Ramdas Pophale) SiO2 
 PCOD9319325
Probable space group: C 2 2 21
;
_chemical_formula_sum "Si O2"
_cell_formula_units_Z 48
_cell_length_a 15.175725
_cell_length_b 25.407649
_cell_length_c 5.360326
_cell_angle_alpha 90.000000
_cell_angle_beta 90.000000
_cell_angle_gamma 90.000000
_cell_volume 2066.831787
_symmetry_space_group_name_H-M "C 2 2 21"
_symmetry_group_IT_number 20
_symmetry_cell_setting 'orthorhombic'
loop_
_space_group_symop_operation_xyz
x,y,z
-x,-y,1/2+z
x,-y,-z
-x,y,1/2-z
1/2+x,1/2+y,z
1/2-x,1/2-y,1/2+z
1/2+x,1/2-y,-z
1/2-x,1/2+y,1/2-z
loop_
_atom_site_type_symbol
_atom_site_label
_atom_site_fract_x
_atom_site_fract_y
_atom_site_fract_z
Si Si1 0.147034 0.052377 0.901981
Si Si2 0.099792 0.834666 0.221516
Si Si3 0.223846 0.500000 0.000000
Si Si4 0.557151 0.821488 0.494107
Si Si5 0.945690 0.500000 0.000000
Si Si6 0.102799 0.207901 0.285092
Si Si7 0.822677 0.415876 0.863469
O O1 0.094136 0.103067 0.820614
O O2 0.210225 0.027276 0.695047
O O3 0.219154 0.078738 0.086493
O O4 0.097811 0.000000 0.000000
O O5 0.145096 0.823934 0.486688
O O6 0.000000 0.813592 0.250000
O O7 0.141633 0.804255 0.986622
O O8 0.169139 0.451280 0.885550
O O9 0.500000 0.812391 0.750000
O O10 0.596632 0.767687 0.379232
O O11 0.634244 0.859615 0.595337
O O12 0.500000 0.842085 0.250000
O O13 0.880973 0.548689 0.949602
O O14 0.000000 0.509900 0.250000
O O15 0.000000 0.189652 0.250000
#
# Coordination Sequence:
#
# PCOD9319325 Si02
#       7
#     8   8   4   8   4   8   8
#     4  10  23  41  63  89 128 175 207 261 333 385
#     4  10  21  41  67  95 121 162 211 263 321 392
#     4  10  21  42  62  81 136 176 210 248 337 378
#     4  11  23  39  65  97 128 168 221 271 318 373
#     4  12  23  36  58  85 120 162 218 260 299 366
#     4   9  19  39  63  91 127 160 203 264 330 372
#     4  11  23  39  59  90 127 176 211 263 317 382
#
# _framework density 23.223949999999999
#
# number of rings (size 3 to 8) (size 9 to 14) (size 15 to 20)
#    0.000    1.667    2.500    4.000    7.000    0.000 
#    1.500    1.667    0.000    0.000    0.000    0.000 
#    0.000    0.000    0.000    0.000    0.000    0.000 
#
# Total GULP energy -133644.935253 kJ/mol
# GULP energy per Si atom -5568.538969 kJ/mol
# Density = 2.317109 g / cm^3
# Si number density = 23.223950 Si / 1000 Ang^3
#
#
#
# Elastic Constant Matrix: (Units=GPa)
#
#
# Indices 1 2 3 4 5 6 
#
# 1 26.0903 8.6933 13.2811 0.0000 0.0000 0.0000
# 2 8.6933 130.9496 54.8892 0.0000 0.0000 0.0000
# 3 13.2811 54.8892 172.5909 0.0000 0.0000 0.0000
# 4 0.0000 0.0000 0.0000 35.8960 0.0000 0.0000
# 5 0.0000 0.0000 0.0000 0.0000 12.0190 0.0000
# 6 0.0000 0.0000 0.0000 0.0000 0.0000 14.3114
#
#
#
# Elastic Compliance Matrix: (Units=1/GPa)
#
#
# Indices 1 2 3 4 5 6 
#
# 1 0.040173 -0.001582 -0.002588 0.000000 0.000000 0.000000
# 2 -0.001582 0.008873 -0.002700 0.000000 0.000000 0.000000
# 3 -0.002588 -0.002700 0.006852 0.000000 0.000000 0.000000
# 4 0.000000 0.000000 0.000000 0.027858 0.000000 0.000000
# 5 0.000000 0.000000 0.000000 0.000000 0.083201 0.000000
# 6 0.000000 0.000000 0.000000 0.000000 0.000000 0.069875
#
#
# Mechanical properties :
#
#
# Convention : Reuss Voigt Hill
#
# Bulk Modulus (GPa) = 23.72067 53.70645 38.71356
# Shear Modulus (GPa) = 18.89456 29.29642 24.09549
#
# Velocity S-wave (km/s) = 2.85543 3.55558 3.22456
# Velocity P-wave (km/s) = 4.59427 6.32707 5.52898
#
# Compressibility (1/GPa) = 0.04215733
#
# Stress axis : x y z
#
# Youngs Moduli (GPa) = 24.89229 112.69623 145.94304
#
# Poissons Ratio (x) = 0.17829 0.37773
# Poissons Ratio (y) = 0.03938 0.39409
# Poissons Ratio (z) = 0.06443 0.30431
#
# Static dielectric constant tensor:
#      x y z
#    x 1.908250 0.000000 0.000000 
#    y 0.000000 1.905750 0.000000 
#    z 0.000000 0.000000 2.093530 
# 
# From -- ./inp_files/2754.got.cif
#   From: 2010.05.17/outbox.cif.g08.bks.cpg/sg20_2_cif.got.tgz:2754.got - 2010.06.03 22:52:26.
