data_PCOD9319692
_publ_section_title
;
Structure prediction by ZEFSAII (Michael W. Deem and Ramdas Pophale) SiO2 
 PCOD9319692
Probable space group: C 2 2 21
;
_chemical_formula_sum "Si O2"
_cell_formula_units_Z 48
_cell_length_a 12.141380
_cell_length_b 8.564528
_cell_length_c 20.047858
_cell_angle_alpha 90.000000
_cell_angle_beta 90.000000
_cell_angle_gamma 90.000000
_cell_volume 2084.680303
_symmetry_space_group_name_H-M "C 2 2 21"
_symmetry_group_IT_number 20
_symmetry_cell_setting 'orthorhombic'
loop_
_space_group_symop_operation_xyz
x,y,z
-x,-y,1/2+z
x,-y,-z
-x,y,1/2-z
1/2+x,1/2+y,z
1/2-x,1/2-y,1/2+z
1/2+x,1/2-y,-z
1/2-x,1/2+y,1/2-z
loop_
_atom_site_type_symbol
_atom_site_label
_atom_site_fract_x
_atom_site_fract_y
_atom_site_fract_z
Si Si1 0.899515 0.705859 0.324712
Si Si2 0.771566 0.084922 0.590493
Si Si3 0.461037 0.500000 0.500000
Si Si4 0.223227 0.863634 0.788784
Si Si5 0.547230 0.137649 0.824527
Si Si6 0.547323 0.166174 0.532181
Si Si7 0.500000 0.535388 0.750000
O O1 0.821046 0.752978 0.384187
O O2 0.819265 0.681135 0.261381
O O3 0.958546 0.545669 0.335444
O O4 0.983884 0.846551 0.311607
O O5 0.676101 0.129539 0.540300
O O6 0.874375 0.991374 0.560779
O O7 0.735255 0.985780 0.655474
O O8 0.522944 0.332154 0.495865
O O9 0.169893 0.709244 0.821306
O O10 0.115932 0.943148 0.752445
O O11 0.500000 0.163800 0.750000
O O12 0.489588 0.200305 0.890972
O O13 0.501787 0.000000 0.500000
#
# Coordination Sequence:
#
# PCOD9319692 Si02
#       7
#     8   8   4   8   8   8   4
#     4  11  23  40  67 108 145 187 236 292 373 446
#     4  11  25  47  71 104 144 188 252 303 360 450
#     4  12  26  56  72 100 150 194 248 316 360 442
#     4  11  22  42  68 103 150 184 234 299 369 439
#     4  12  22  42  71 107 144 187 243 302 370 436
#     4  12  27  51  78 106 147 202 252 308 377 450
#     4  10  22  38  62  96 144 190 220 288 364 428
#
# _framework density 23.025113000000001
#
# number of rings (size 3 to 8) (size 9 to 14) (size 15 to 20)
#    0.000    0.667    4.167    5.000    0.000    0.000 
#    7.500    0.000    0.000    0.000    0.000    0.000 
#    0.000    0.000    0.000    0.000    0.000    0.000 
#
# Total GULP energy -133874.521407 kJ/mol
# GULP energy per Si atom -5578.105059 kJ/mol
# Density = 2.297271 g / cm^3
# Si number density = 23.025113 Si / 1000 Ang^3
#
#
#
# Elastic Constant Matrix: (Units=GPa)
#
#
# Indices 1 2 3 4 5 6 
#
# 1 77.9951 29.2522 21.1594 0.0000 0.0000 0.0000
# 2 29.2522 104.4104 24.2539 0.0000 0.0000 0.0000
# 3 21.1594 24.2539 64.8541 0.0000 0.0000 0.0000
# 4 0.0000 0.0000 0.0000 17.4462 0.0000 0.0000
# 5 0.0000 0.0000 0.0000 0.0000 32.3998 0.0000
# 6 0.0000 0.0000 0.0000 0.0000 0.0000 9.8756
#
#
#
# Elastic Compliance Matrix: (Units=1/GPa)
#
#
# Indices 1 2 3 4 5 6 
#
# 1 0.015079 -0.003375 -0.003658 0.000000 0.000000 0.000000
# 2 -0.003375 0.011244 -0.003104 0.000000 0.000000 0.000000
# 3 -0.003658 -0.003104 0.017773 0.000000 0.000000 0.000000
# 4 0.000000 0.000000 0.000000 0.057319 0.000000 0.000000
# 5 0.000000 0.000000 0.000000 0.000000 0.030864 0.000000
# 6 0.000000 0.000000 0.000000 0.000000 0.000000 0.101259
#
#
# Mechanical properties :
#
#
# Convention : Reuss Voigt Hill
#
# Bulk Modulus (GPa) = 41.97495 44.06561 43.02028
# Shear Modulus (GPa) = 19.10189 23.45060 21.27625
#
# Velocity S-wave (km/s) = 2.88342 3.19482 3.04311
# Velocity P-wave (km/s) = 5.41804 5.72615 5.57422
#
# Compressibility (1/GPa) = 0.02382373
#
# Stress axis : x y z
#
# Youngs Moduli (GPa) = 66.31542 88.93480 56.26400
#
# Poissons Ratio (x) = 0.30016 0.20579
# Poissons Ratio (y) = 0.22382 0.17464
# Poissons Ratio (z) = 0.24256 0.27604
#
# Static dielectric constant tensor:
#      x y z
#    x 1.867090 0.000000 0.000000 
#    y 0.000000 1.916180 0.000000 
#    z 0.000000 0.000000 1.919760 
# 
# From -- ./inp_files/29103.got.cif
#   From: 2010.05.17/outbox.cif.g08.bks.cpg/sg20_15_cif.got.tgz:29103.got - 2010.06.03 22:52:26.
