data_PCOD9319124
_publ_section_title
;
Structure prediction by ZEFSAII (Michael W. Deem and Ramdas Pophale) SiO2 
 PCOD9319124
Probable space group: C 2 2 21
;
_chemical_formula_sum "Si O2"
_cell_formula_units_Z 40
_cell_length_a 7.947322
_cell_length_b 15.589041
_cell_length_c 15.546468
_cell_angle_alpha 90.000000
_cell_angle_beta 90.000000
_cell_angle_gamma 90.000000
_cell_volume 1926.069465
_symmetry_space_group_name_H-M "C 2 2 21"
_symmetry_group_IT_number 20
_symmetry_cell_setting 'orthorhombic'
loop_
_space_group_symop_operation_xyz
x,y,z
-x,-y,1/2+z
x,-y,-z
-x,y,1/2-z
1/2+x,1/2+y,z
1/2-x,1/2-y,1/2+z
1/2+x,1/2-y,-z
1/2-x,1/2+y,1/2-z
loop_
_atom_site_type_symbol
_atom_site_label
_atom_site_fract_x
_atom_site_fract_y
_atom_site_fract_z
Si Si1 0.323709 0.438853 0.794239
Si Si2 0.792781 0.133073 0.521840
Si Si3 0.834735 0.182353 0.043896
Si Si4 0.297859 0.060315 0.581079
Si Si5 0.839109 0.486107 0.876699
O O1 0.500000 0.418668 0.750000
O O2 0.288212 0.369380 0.868980
O O3 0.322418 0.530804 0.842337
O O4 0.193018 0.448186 0.716694
O O5 0.701488 0.217830 0.555703
O O6 0.683349 0.089841 0.445643
O O7 0.975459 0.156743 0.483652
O O8 0.795609 0.058689 0.594216
O O9 0.723929 0.152551 0.961081
O O10 0.253431 0.000000 0.500000
O O11 0.482624 0.032787 0.611683
#
# Coordination Sequence:
#
# PCOD9319124 Si02
#       5
#     8   8   8   8   8
#     4  11  22  40  66  98 131 171 222 279 334 387
#     4  11  23  41  69  95 135 177 223 268 336 403
#     4  11  24  42  68  99 134 178 225 278 331 399
#     4  10  21  39  68  92 128 173 220 265 331 399
#     4  11  22  43  68  95 131 176 222 272 335 402
#
# _framework density 20.767683999999999
#
# number of rings (size 3 to 8) (size 9 to 14) (size 15 to 20)
#    0.000    1.200    4.000    3.000    8.400    0.000 
#    3.600    0.000    0.000    0.000    0.000    0.000 
#    0.000    0.000    0.000    0.000    0.000    0.000 
#
# Total GULP energy -111635.329821 kJ/mol
# GULP energy per Si atom -5581.766491 kJ/mol
# Density = 2.072042 g / cm^3
# Si number density = 20.767684 Si / 1000 Ang^3
#
#
#
# Elastic Constant Matrix: (Units=GPa)
#
#
# Indices 1 2 3 4 5 6 
#
# 1 77.5177 25.3544 31.6996 0.0000 0.0000 0.0000
# 2 25.3544 101.5756 58.6365 0.0000 0.0000 0.0000
# 3 31.6996 58.6365 114.8980 0.0000 0.0000 0.0000
# 4 0.0000 0.0000 0.0000 20.1605 0.0000 0.0000
# 5 0.0000 0.0000 0.0000 0.0000 33.5279 0.0000
# 6 0.0000 0.0000 0.0000 0.0000 0.0000 22.9576
#
#
#
# Elastic Compliance Matrix: (Units=1/GPa)
#
#
# Indices 1 2 3 4 5 6 
#
# 1 0.014794 -0.001895 -0.003115 0.000000 0.000000 0.000000
# 2 -0.001895 0.014199 -0.006724 0.000000 0.000000 0.000000
# 3 -0.003115 -0.006724 0.012994 0.000000 0.000000 0.000000
# 4 0.000000 0.000000 0.000000 0.049602 0.000000 0.000000
# 5 0.000000 0.000000 0.000000 0.000000 0.029826 0.000000
# 6 0.000000 0.000000 0.000000 0.000000 0.000000 0.043558
#
#
# Mechanical properties :
#
#
# Convention : Reuss Voigt Hill
#
# Bulk Modulus (GPa) = 53.99264 58.37470 56.18367
# Shear Modulus (GPa) = 25.69208 27.21592 26.45400
#
# Velocity S-wave (km/s) = 3.52109 3.62400 3.57291
# Velocity P-wave (km/s) = 6.52576 6.75875 6.64327
#
# Compressibility (1/GPa) = 0.01852104
#
# Stress axis : x y z
#
# Youngs Moduli (GPa) = 67.59661 70.42674 76.95903
#
# Poissons Ratio (x) = 0.13344 0.23969
# Poissons Ratio (y) = 0.12808 0.51744
# Poissons Ratio (z) = 0.21053 0.47352
#
# Static dielectric constant tensor:
#      x y z
#    x 1.827790 0.000000 0.000000 
#    y 0.000000 1.758280 0.000000 
#    z 0.000000 0.000000 1.748360 
# 
# From -- ./inp_files/18509.got.cif
#   From: 2010.05.17/outbox.cif.g08.bks.cpg/sg20_10_cif.got.tgz:18509.got - 2010.06.03 22:52:26.
