data_PCOD9319024
_publ_section_title
;
Structure prediction by ZEFSAII (Michael W. Deem and Ramdas Pophale) SiO2 
 PCOD9319024
Probable space group: C 2 2 21
;
_chemical_formula_sum "Si O2"
_cell_formula_units_Z 44
_cell_length_a 5.539162
_cell_length_b 24.981465
_cell_length_c 14.182386
_cell_angle_alpha 90.000000
_cell_angle_beta 90.000000
_cell_angle_gamma 90.000000
_cell_volume 1962.507258
_symmetry_space_group_name_H-M "C 2 2 21"
_symmetry_group_IT_number 20
_symmetry_cell_setting 'orthorhombic'
loop_
_space_group_symop_operation_xyz
x,y,z
-x,-y,1/2+z
x,-y,-z
-x,y,1/2-z
1/2+x,1/2+y,z
1/2-x,1/2-y,1/2+z
1/2+x,1/2-y,-z
1/2-x,1/2+y,1/2-z
loop_
_atom_site_type_symbol
_atom_site_label
_atom_site_fract_x
_atom_site_fract_y
_atom_site_fract_z
Si Si1 0.380712 0.756574 0.553034
Si Si2 0.618663 0.869677 0.849766
Si Si3 0.500000 0.558398 0.250000
Si Si4 0.992557 0.408280 0.366655
Si Si5 0.400703 0.024404 0.142185
Si Si6 0.507779 0.354622 0.138974
O O1 0.613314 0.758667 0.483932
O O2 0.351973 0.815612 0.594631
O O3 0.462957 0.708545 0.621689
O O4 0.500000 0.854032 0.750000
O O5 0.461106 0.917176 0.898116
O O6 0.856521 0.900697 0.817214
O O7 0.622014 0.520570 0.171065
O O8 0.995180 0.470344 0.398215
O O9 0.246013 0.382005 0.397453
O O10 0.000000 0.408392 0.250000
O O11 0.747895 0.378068 0.397626
O O12 0.500000 0.029341 0.250000
O O13 0.500000 0.364887 0.250000
#
# Coordination Sequence:
#
# PCOD9319024 Si02
#       6
#     8   8   4   8   8   8
#     4  12  27  43  62  83 122 165 206 255 305 357
#     4   9  20  37  61  92 117 155 206 253 296 358
#     4   8  16  30  58  90 128 146 198 244 316 342
#     4   9  18  31  58  90 124 146 187 242 300 353
#     4   8  16  28  54  92 120 149 186 248 303 350
#     4  10  21  39  60  89 118 158 196 244 291 357
#
# _framework density 22.420299
#
# number of rings (size 3 to 8) (size 9 to 14) (size 15 to 20)
#    0.000    2.909    0.000    1.636   14.000    0.000 
#    4.909    0.000    0.000    6.545    0.000    0.000 
#    0.000    0.000    0.000    0.000    0.000    0.000 
#
# Total GULP energy -122519.215273 kJ/mol
# GULP energy per Si atom -5569.055240 kJ/mol
# Density = 2.236927 g / cm^3
# Si number density = 22.420299 Si / 1000 Ang^3
#
#
#
# Elastic Constant Matrix: (Units=GPa)
#
#
# Indices 1 2 3 4 5 6 
#
# 1 94.1910 35.6725 12.5937 0.0000 0.0000 0.0000
# 2 35.6725 139.4701 21.8039 0.0000 0.0000 0.0000
# 3 12.5937 21.8039 34.9776 0.0000 0.0000 0.0000
# 4 0.0000 0.0000 0.0000 23.7665 0.0000 0.0000
# 5 0.0000 0.0000 0.0000 0.0000 17.4595 0.0000
# 6 0.0000 0.0000 0.0000 0.0000 0.0000 2.5429
#
#
#
# Elastic Compliance Matrix: (Units=1/GPa)
#
#
# Indices 1 2 3 4 5 6 
#
# 1 0.011975 -0.002647 -0.002662 0.000000 0.000000 0.000000
# 2 -0.002647 0.008529 -0.004364 0.000000 0.000000 0.000000
# 3 -0.002662 -0.004364 0.032268 0.000000 0.000000 0.000000
# 4 0.000000 0.000000 0.000000 0.042076 0.000000 0.000000
# 5 0.000000 0.000000 0.000000 0.000000 0.057276 0.000000
# 6 0.000000 0.000000 0.000000 0.000000 0.000000 0.393256
#
#
# Mechanical properties :
#
#
# Convention : Reuss Voigt Hill
#
# Bulk Modulus (GPa) = 29.91515 45.41987 37.66751
# Shear Modulus (GPa) = 8.68255 21.99167 15.33711
#
# Velocity S-wave (km/s) = 1.97003 3.13530 2.61832
# Velocity P-wave (km/s) = 4.30657 5.78007 5.09685
#
# Compressibility (1/GPa) = 0.03342788
#
# Stress axis : x y z
#
# Youngs Moduli (GPa) = 83.50735 117.24466 30.99016
#
# Poissons Ratio (x) = 0.31032 0.08249
# Poissons Ratio (y) = 0.22102 0.13524
# Poissons Ratio (z) = 0.22227 0.51164
#
# Static dielectric constant tensor:
#      x y z
#    x 2.716230 0.000000 0.000000 
#    y 0.000000 1.803060 0.000000 
#    z 0.000000 0.000000 1.893060 
# 
# From -- ./inp_files/17738.got.cif
#   From: 2010.05.17/outbox.cif.g08.bks.cpg/sg20_9_cif.got.tgz:17738.got - 2010.06.03 22:52:26.
