data_PCOD9319671
_publ_section_title
;
Structure prediction by ZEFSAII (Michael W. Deem and Ramdas Pophale) SiO2 
 PCOD9319671
Probable space group: C 2 2 21
;
_chemical_formula_sum "Si O2"
_cell_formula_units_Z 52
_cell_length_a 10.583721
_cell_length_b 20.881906
_cell_length_c 9.883741
_cell_angle_alpha 90.000000
_cell_angle_beta 90.000000
_cell_angle_gamma 90.000000
_cell_volume 2184.388470
_symmetry_space_group_name_H-M "C 2 2 21"
_symmetry_group_IT_number 20
_symmetry_cell_setting 'orthorhombic'
loop_
_space_group_symop_operation_xyz
x,y,z
-x,-y,1/2+z
x,-y,-z
-x,y,1/2-z
1/2+x,1/2+y,z
1/2-x,1/2-y,1/2+z
1/2+x,1/2-y,-z
1/2-x,1/2+y,1/2-z
loop_
_atom_site_type_symbol
_atom_site_label
_atom_site_fract_x
_atom_site_fract_y
_atom_site_fract_z
Si Si1 0.145213 0.842092 0.729364
Si Si2 0.943971 0.576235 0.966380
Si Si3 0.000000 0.425133 0.750000
Si Si4 0.110847 0.114274 0.575678
Si Si5 0.171519 0.124177 0.970144
Si Si6 0.140644 0.764934 0.229693
Si Si7 0.679619 0.029791 0.852301
O O1 0.149994 0.877255 0.582975
O O2 0.171983 0.881432 0.866903
O O3 0.248724 0.786332 0.734389
O O4 0.000000 0.818957 0.750000
O O5 0.980448 0.609231 0.108287
O O6 0.806448 0.597754 0.920110
O O7 0.936422 0.500000 0.000000
O O8 0.066297 0.581370 0.871495
O O9 0.121097 0.472505 0.766099
O O10 0.141191 0.181107 0.651772
O O11 0.187953 0.063218 0.663300
O O12 0.963248 0.096490 0.575888
O O13 0.158181 0.196341 0.911504
O O14 0.000000 0.737349 0.250000
O O15 0.694052 0.000000 0.000000
#
# Coordination Sequence:
#
# PCOD9319671 Si02
#       7
#     8   8   4   8   8   8   8
#     4  10  22  39  58  83 114 147 190 237 284 338
#     4   9  20  35  57  83 116 149 191 236 274 341
#     4   8  18  36  56  84 120 144 198 234 286 320
#     4  10  22  38  59  84 116 150 187 234 287 338
#     4  10  22  38  59  84 116 150 187 234 287 338
#     4  10  22  39  58  83 114 147 190 237 284 338
#     4   9  20  35  57  83 116 149 191 236 274 341
#
# _framework density 23.805289999999999
#
# number of rings (size 3 to 8) (size 9 to 14) (size 15 to 20)
#    0.000    2.769    0.000    0.923    8.615    3.077 
#    0.000    0.000    0.000    0.000    0.000    0.000 
#    0.000    0.000    0.000    0.000    0.000    0.000 
#
# Total GULP energy -145023.126561 kJ/mol
# GULP energy per Si atom -5577.812560 kJ/mol
# Density = 2.375111 g / cm^3
# Si number density = 23.805290 Si / 1000 Ang^3
#
#
#
# Elastic Constant Matrix: (Units=GPa)
#
#
# Indices 1 2 3 4 5 6 
#
# 1 193.7450 40.1251 10.5570 0.0000 0.0000 0.0000
# 2 40.1251 28.9817 -5.8437 0.0000 0.0000 0.0000
# 3 10.5570 -5.8437 120.9460 0.0000 0.0000 0.0000
# 4 0.0000 0.0000 0.0000 8.5599 0.0000 0.0000
# 5 0.0000 0.0000 0.0000 0.0000 31.3725 0.0000
# 6 0.0000 0.0000 0.0000 0.0000 0.0000 33.6273
#
#
#
# Elastic Compliance Matrix: (Units=1/GPa)
#
#
# Indices 1 2 3 4 5 6 
#
# 1 0.007392 -0.010466 -0.001151 0.000000 0.000000 0.000000
# 2 -0.010466 0.049662 0.003313 0.000000 0.000000 0.000000
# 3 -0.001151 0.003313 0.008529 0.000000 0.000000 0.000000
# 4 0.000000 0.000000 0.000000 0.116824 0.000000 0.000000
# 5 0.000000 0.000000 0.000000 0.000000 0.031875 0.000000
# 6 0.000000 0.000000 0.000000 0.000000 0.000000 0.029738
#
#
# Mechanical properties :
#
#
# Convention : Reuss Voigt Hill
#
# Bulk Modulus (GPa) = 20.41836 48.14995 34.28415
# Shear Modulus (GPa) = 18.05371 34.63421 26.34396
#
# Velocity S-wave (km/s) = 2.75688 3.81845 3.33023
# Velocity P-wave (km/s) = 4.32778 6.30168 5.40559
#
# Compressibility (1/GPa) = 0.04897553
#
# Stress axis : x y z
#
# Youngs Moduli (GPa) = 135.28839 20.13599 117.25134
#
# Poissons Ratio (x) = 0.21074 0.13494
# Poissons Ratio (y) = 1.41589 -0.38846
# Poissons Ratio (z) = 0.15570 -0.06671
#
# Static dielectric constant tensor:
#      x y z
#    x 1.977130 0.000000 0.000000 
#    y 0.000000 1.913070 0.000000 
#    z 0.000000 0.000000 2.033240 
# 
# From -- ./inp_files/13250.got.cif
#   From: 2010.05.17/outbox.cif.g08.bks.cpg/sg20_7_cif.got.tgz:13250.got - 2010.06.03 22:52:26.
