data_PCOD9319981
_publ_section_title
;
Structure prediction by ZEFSAII (Michael W. Deem and Ramdas Pophale) SiO2 
 PCOD9319981
Probable space group: C 2 2 21
;
_chemical_formula_sum "Si O2"
_cell_formula_units_Z 48
_cell_length_a 15.185634
_cell_length_b 9.929363
_cell_length_c 17.578415
_cell_angle_alpha 90.000000
_cell_angle_beta 90.000000
_cell_angle_gamma 90.000000
_cell_volume 2650.537968
_symmetry_space_group_name_H-M "C 2 2 21"
_symmetry_group_IT_number 20
_symmetry_cell_setting 'orthorhombic'
loop_
_space_group_symop_operation_xyz
x,y,z
-x,-y,1/2+z
x,-y,-z
-x,y,1/2-z
1/2+x,1/2+y,z
1/2-x,1/2-y,1/2+z
1/2+x,1/2-y,-z
1/2-x,1/2+y,1/2-z
loop_
_atom_site_type_symbol
_atom_site_label
_atom_site_fract_x
_atom_site_fract_y
_atom_site_fract_z
Si Si1 0.881115 0.389837 0.563149
Si Si2 0.722164 0.459563 0.674342
Si Si3 0.454424 0.480412 0.912871
Si Si4 0.639393 0.636301 0.045002
Si Si5 0.972369 0.730135 0.162600
Si Si6 0.770217 0.718868 0.179919
O O1 0.901604 0.500000 0.500000
O O2 0.795031 0.429840 0.610475
O O3 0.865508 0.252471 0.517538
O O4 0.961332 0.369920 0.621017
O O5 0.625785 0.430946 0.639082
O O6 0.741161 0.365505 0.746461
O O7 0.729186 0.619228 0.693675
O O8 0.542425 0.390980 0.918968
O O9 0.479886 0.625915 0.879167
O O10 0.422795 0.500000 0.000000
O O11 0.706703 0.679619 0.110478
O O12 0.664068 0.500000 0.000000
O O13 0.871210 0.685054 0.159566
O O14 0.000000 0.746353 0.250000
#
# Coordination Sequence:
#
# PCOD9319981 Si02
#       6
#     8   8   8   8   8   8
#     4  12  23  44  67  94 134 169 215 279 328 390
#     4  11  25  43  67  94 133 172 216 269 332 390
#     4  10  22  41  68  94 121 171 222 255 318 401
#     4  11  24  41  67  98 129 166 222 265 322 393
#     4  11  23  43  66  91 130 176 215 263 336 393
#     4  11  26  43  65  98 128 173 218 267 332 395
#
# _framework density 18.109531
#
# number of rings (size 3 to 8) (size 9 to 14) (size 15 to 20)
#    0.000    1.000    6.667    0.500    9.333    0.667 
#    3.000    1.667    0.000    0.000    0.000    0.000 
#    0.000    0.000    0.000    0.000    0.000    0.000 
#
# Total GULP energy -134065.681286 kJ/mol
# GULP energy per Si atom -5586.070054 kJ/mol
# Density = 1.806831 g / cm^3
# Si number density = 18.109531 Si / 1000 Ang^3
#
#
#
# Elastic Constant Matrix: (Units=GPa)
#
#
# Indices 1 2 3 4 5 6 
#
# 1 100.2259 23.5853 32.6803 0.0000 0.0000 0.0000
# 2 23.5853 82.4105 47.8584 0.0000 0.0000 0.0000
# 3 32.6803 47.8584 119.6975 0.0000 0.0000 0.0000
# 4 0.0000 0.0000 0.0000 48.9914 0.0000 0.0000
# 5 0.0000 0.0000 0.0000 0.0000 46.4689 0.0000
# 6 0.0000 0.0000 0.0000 0.0000 0.0000 23.2126
#
#
#
# Elastic Compliance Matrix: (Units=1/GPa)
#
#
# Indices 1 2 3 4 5 6 
#
# 1 0.011166 -0.001856 -0.002306 0.000000 0.000000 0.000000
# 2 -0.001856 0.016113 -0.005935 0.000000 0.000000 0.000000
# 3 -0.002306 -0.005935 0.011357 0.000000 0.000000 0.000000
# 4 0.000000 0.000000 0.000000 0.020412 0.000000 0.000000
# 5 0.000000 0.000000 0.000000 0.000000 0.021520 0.000000
# 6 0.000000 0.000000 0.000000 0.000000 0.000000 0.043080
#
#
# Mechanical properties :
#
#
# Convention : Reuss Voigt Hill
#
# Bulk Modulus (GPa) = 54.23068 56.73133 55.48101
# Shear Modulus (GPa) = 33.33539 36.94857 35.14198
#
# Velocity S-wave (km/s) = 4.29507 4.52185 4.40992
# Velocity P-wave (km/s) = 7.38971 7.65883 7.52547
#
# Compressibility (1/GPa) = 0.01843975
#
# Stress axis : x y z
#
# Youngs Moduli (GPa) = 89.55472 62.06356 88.04938
#
# Poissons Ratio (x) = 0.11521 0.20308
# Poissons Ratio (y) = 0.16624 0.52261
# Poissons Ratio (z) = 0.20656 0.36837
#
# Static dielectric constant tensor:
#      x y z
#    x 1.617210 0.000000 0.000000 
#    y 0.000000 1.583180 0.000000 
#    z 0.000000 0.000000 1.599890 
# 
# From -- ./inp_files/23426.got.cif
#   From: 2010.05.17/outbox.cif.g08.bks.cpg/sg20_12_cif.got.tgz:23426.got - 2010.06.03 22:52:26.
