data_PCOD9319532
_publ_section_title
;
Structure prediction by ZEFSAII (Michael W. Deem and Ramdas Pophale) SiO2 
 PCOD9319532
Probable space group: C 2 2 21
;
_chemical_formula_sum "Si O2"
_cell_formula_units_Z 48
_cell_length_a 11.510544
_cell_length_b 9.950412
_cell_length_c 21.024143
_cell_angle_alpha 90.000000
_cell_angle_beta 90.000000
_cell_angle_gamma 90.000000
_cell_volume 2407.992968
_symmetry_space_group_name_H-M "C 2 2 21"
_symmetry_group_IT_number 20
_symmetry_cell_setting 'orthorhombic'
loop_
_space_group_symop_operation_xyz
x,y,z
-x,-y,1/2+z
x,-y,-z
-x,y,1/2-z
1/2+x,1/2+y,z
1/2-x,1/2-y,1/2+z
1/2+x,1/2-y,-z
1/2-x,1/2+y,1/2-z
loop_
_atom_site_type_symbol
_atom_site_label
_atom_site_fract_x
_atom_site_fract_y
_atom_site_fract_z
Si Si1 0.456075 0.394435 0.320601
Si Si2 0.171958 0.255113 0.072720
Si Si3 0.928277 0.500000 0.500000
Si Si4 0.802892 0.410974 0.134258
Si Si5 0.573066 0.839778 0.604351
Si Si6 0.197937 0.000000 0.000000
Si Si7 0.513599 0.695716 0.325759
O O1 0.500000 0.363749 0.250000
O O2 0.317575 0.413868 0.327437
O O3 0.492607 0.271529 0.364621
O O4 0.516209 0.535978 0.338584
O O5 0.307801 0.230267 0.082508
O O6 0.100026 0.249549 0.137779
O O7 0.146793 0.394194 0.039041
O O8 0.130927 0.125974 0.030685
O O9 0.007013 0.412403 0.547142
O O10 0.883962 0.539134 0.150196
O O11 0.876430 0.277561 0.147464
O O12 0.768760 0.435695 0.059719
O O13 0.500000 0.713626 0.250000
#
# Coordination Sequence:
#
# PCOD9319532 Si02
#       7
#     8   8   4   8   8   4   8
#     4  11  26  44  69 100 132 180 228 274 341 408
#     4  11  24  43  69  98 135 173 223 279 332 408
#     4  12  25  44  67 100 134 177 224 273 352 398
#     4  11  23  45  69  96 140 174 221 287 337 400
#     4  11  24  44  66  98 134 173 221 280 336 405
#     4  10  21  44  71  94 138 175 216 281 344 388
#     4  11  25  45  68  97 137 181 222 278 340 398
#
# _framework density 19.933613999999999
#
# number of rings (size 3 to 8) (size 9 to 14) (size 15 to 20)
#    0.000    1.000    5.000    3.000    2.333    3.333 
#    0.000    0.000    0.000    0.000    0.000    0.000 
#    0.000    0.000    0.000    0.000    0.000    0.000 
#
# Total GULP energy -134035.370840 kJ/mol
# GULP energy per Si atom -5584.807118 kJ/mol
# Density = 1.988824 g / cm^3
# Si number density = 19.933614 Si / 1000 Ang^3
#
#
#
# Elastic Constant Matrix: (Units=GPa)
#
#
# Indices 1 2 3 4 5 6 
#
# 1 63.4464 52.1101 8.0113 0.0000 0.0000 0.0000
# 2 52.1101 143.1456 53.1743 0.0000 0.0000 0.0000
# 3 8.0113 53.1743 70.0425 0.0000 0.0000 0.0000
# 4 0.0000 0.0000 0.0000 39.0626 0.0000 0.0000
# 5 0.0000 0.0000 0.0000 0.0000 5.8512 0.0000
# 6 0.0000 0.0000 0.0000 0.0000 0.0000 30.8039
#
#
#
# Elastic Compliance Matrix: (Units=1/GPa)
#
#
# Indices 1 2 3 4 5 6 
#
# 1 0.023857 -0.010684 0.005382 0.000000 0.000000 0.000000
# 2 -0.010684 0.014515 -0.009797 0.000000 0.000000 0.000000
# 3 0.005382 -0.009797 0.021099 0.000000 0.000000 0.000000
# 4 0.000000 0.000000 0.000000 0.025600 0.000000 0.000000
# 5 0.000000 0.000000 0.000000 0.000000 0.170904 0.000000
# 6 0.000000 0.000000 0.000000 0.000000 0.000000 0.032463
#
#
# Mechanical properties :
#
#
# Convention : Reuss Voigt Hill
#
# Bulk Modulus (GPa) = 34.16124 55.91398 45.03761
# Shear Modulus (GPa) = 15.22566 26.03281 20.62924
#
# Velocity S-wave (km/s) = 2.76672 3.61775 3.22047
# Velocity P-wave (km/s) = 5.23269 6.74995 6.03916
#
# Compressibility (1/GPa) = 0.02927294
#
# Stress axis : x y z
#
# Youngs Moduli (GPa) = 41.91672 68.89609 47.39548
#
# Poissons Ratio (x) = 0.73610 -0.25510
# Poissons Ratio (y) = 0.44784 0.46434
# Poissons Ratio (z) = -0.22561 0.67498
#
# Static dielectric constant tensor:
#      x y z
#    x 1.696420 0.000000 0.000000 
#    y 0.000000 1.714230 0.000000 
#    z 0.000000 0.000000 1.721250 
# 
# From -- ./inp_files/29105.got.cif
#   From: 2010.05.17/outbox.cif.g08.bks.cpg/sg20_15_cif.got.tgz:29105.got - 2010.06.03 22:52:26.
