data_PCOD9319465
_publ_section_title
;
Structure prediction by ZEFSAII (Michael W. Deem and Ramdas Pophale) SiO2 
 PCOD9319465
Probable space group: C 2 2 21
;
_chemical_formula_sum "Si O2"
_cell_formula_units_Z 64
_cell_length_a 23.371241
_cell_length_b 15.513331
_cell_length_c 8.030400
_cell_angle_alpha 90.000000
_cell_angle_beta 90.000000
_cell_angle_gamma 90.000000
_cell_volume 2911.548380
_symmetry_space_group_name_H-M "C 2 2 21"
_symmetry_group_IT_number 20
_symmetry_cell_setting 'orthorhombic'
loop_
_space_group_symop_operation_xyz
x,y,z
-x,-y,1/2+z
x,-y,-z
-x,y,1/2-z
1/2+x,1/2+y,z
1/2-x,1/2-y,1/2+z
1/2+x,1/2-y,-z
1/2-x,1/2+y,1/2-z
loop_
_atom_site_type_symbol
_atom_site_label
_atom_site_fract_x
_atom_site_fract_y
_atom_site_fract_z
Si Si1 0.192749 0.648632 0.372200
Si Si2 0.781798 0.011446 0.304201
Si Si3 0.936121 0.670892 0.201639
Si Si4 0.224189 0.820592 0.164939
Si Si5 0.606822 0.448977 0.666210
Si Si6 0.558215 0.263581 0.652949
Si Si7 0.889740 0.225219 0.478405
Si Si8 0.536796 0.574430 0.897638
O O1 0.223685 0.564830 0.296045
O O2 0.125066 0.629073 0.354121
O O3 0.214042 0.736235 0.278330
O O4 0.217730 0.665433 0.558462
O O5 0.829916 0.072374 0.227868
O O6 0.793911 0.000000 0.500000
O O7 0.783352 0.912529 0.239632
O O8 0.915053 0.717257 0.371664
O O9 0.000000 0.634046 0.250000
O O10 0.944922 0.726818 0.032814
O O11 0.172594 0.806486 0.032318
O O12 0.615986 0.500000 0.500000
O O13 0.569390 0.365160 0.633933
O O14 0.582542 0.516400 0.799959
O O15 0.500000 0.244296 0.750000
O O16 0.394706 0.236198 0.706972
O O17 0.932183 0.142808 0.488256
O O18 0.500000 0.615785 0.750000
O O19 0.504148 0.500000 0.000000
#
# Coordination Sequence:
#
# PCOD9319465 Si02
#       8
#     8   8   8   8   8   8   8   8
#     4  10  24  39  68  97 127 177 226 282 343 419
#     4  10  21  43  63  90 132 173 222 275 344 399
#     4  11  24  43  62  93 130 169 228 282 344 405
#     4  10  22  41  64  98 132 173 224 279 345 401
#     4  12  24  33  54  86 123 175 220 263 320 391
#     4  12  24  37  58  85 123 180 222 269 322 396
#     4  11  22  39  59  84 127 174 216 270 328 397
#     4  12  23  34  49  76 118 172 224 261 301 380
#
# _framework density 21.981431000000001
#
# number of rings (size 3 to 8) (size 9 to 14) (size 15 to 20)
#    0.000    1.000    3.750    3.750    7.000    0.000 
#    0.000    0.000    0.000    0.000    0.000   21.000 
#    0.000    0.000    0.000    0.000    0.000    0.000 
#
# Total GULP energy -178397.933496 kJ/mol
# GULP energy per Si atom -5574.935422 kJ/mol
# Density = 2.193140 g / cm^3
# Si number density = 21.981431 Si / 1000 Ang^3
#
#
#
# Elastic Constant Matrix: (Units=GPa)
#
#
# Indices 1 2 3 4 5 6 
#
# 1 137.4887 7.3514 5.5427 0.0000 0.0000 0.0000
# 2 7.3514 31.3847 4.9554 0.0000 0.0000 0.0000
# 3 5.5427 4.9554 74.1424 0.0000 0.0000 0.0000
# 4 0.0000 0.0000 0.0000 16.8830 0.0000 0.0000
# 5 0.0000 0.0000 0.0000 0.0000 26.9099 0.0000
# 6 0.0000 0.0000 0.0000 0.0000 0.0000 28.3353
#
#
#
# Elastic Compliance Matrix: (Units=1/GPa)
#
#
# Indices 1 2 3 4 5 6 
#
# 1 0.007380 -0.001659 -0.000441 0.000000 0.000000 0.000000
# 2 -0.001659 0.032575 -0.002053 0.000000 0.000000 0.000000
# 3 -0.000441 -0.002053 0.013658 0.000000 0.000000 0.000000
# 4 0.000000 0.000000 0.000000 0.059231 0.000000 0.000000
# 5 0.000000 0.000000 0.000000 0.000000 0.037161 0.000000
# 6 0.000000 0.000000 0.000000 0.000000 0.000000 0.035292
#
#
# Mechanical properties :
#
#
# Convention : Reuss Voigt Hill
#
# Bulk Modulus (GPa) = 22.07167 30.96832 26.52000
# Shear Modulus (GPa) = 23.95724 29.43672 26.69698
#
# Velocity S-wave (km/s) = 3.30492 3.66343 3.48878
# Velocity P-wave (km/s) = 4.96248 5.65803 5.32163
#
# Compressibility (1/GPa) = 0.04530694
#
# Stress axis : x y z
#
# Youngs Moduli (GPa) = 135.50501 30.69799 73.21854
#
# Poissons Ratio (x) = 0.05093 0.03228
# Poissons Ratio (y) = 0.22480 0.15033
# Poissons Ratio (z) = 0.05973 0.06303
#
# Static dielectric constant tensor:
#      x y z
#    x 1.896530 0.000000 0.000000 
#    y 0.000000 1.821680 0.000000 
#    z 0.000000 0.000000 1.903650 
# 
# From -- ./inp_files/10355.got.cif
#   From: 2010.05.17/outbox.cif.g08.bks.cpg/sg20_6_cif.got.tgz:10355.got - 2010.06.03 22:52:26.
