data_PCOD9319309
_publ_section_title
;
Structure prediction by ZEFSAII (Michael W. Deem and Ramdas Pophale) SiO2 
 PCOD9319309
Probable space group: C 2 2 21
;
_chemical_formula_sum "Si O2"
_cell_formula_units_Z 32
_cell_length_a 18.965221
_cell_length_b 12.726972
_cell_length_c 5.575361
_cell_angle_alpha 90.000000
_cell_angle_beta 90.000000
_cell_angle_gamma 90.000000
_cell_volume 1345.723974
_symmetry_space_group_name_H-M "C 2 2 21"
_symmetry_group_IT_number 20
_symmetry_cell_setting 'orthorhombic'
loop_
_space_group_symop_operation_xyz
x,y,z
-x,-y,1/2+z
x,-y,-z
-x,y,1/2-z
1/2+x,1/2+y,z
1/2-x,1/2-y,1/2+z
1/2+x,1/2-y,-z
1/2-x,1/2+y,1/2-z
loop_
_atom_site_type_symbol
_atom_site_label
_atom_site_fract_x
_atom_site_fract_y
_atom_site_fract_z
Si Si1 0.718314 0.890870 0.681213
Si Si2 0.539679 0.773772 0.010219
Si Si3 0.167990 0.164829 0.828583
Si Si4 0.831185 0.000000 0.000000
Si Si5 0.605973 0.000000 0.000000
O O1 0.761571 0.890141 0.432594
O O2 0.690101 0.772095 0.697748
O O3 0.779597 0.916188 0.872095
O O4 0.655330 0.966854 0.772025
O O5 0.500000 0.741692 0.250000
O O6 0.560081 0.896604 0.039876
O O7 0.500000 0.761901 0.750000
O O8 0.612428 0.708995 0.016004
O O9 0.128939 0.073284 0.683506
#
# Coordination Sequence:
#
# PCOD9319309 Si02
#       5
#     8   8   8   4   4
#     4  10  21  41  65 108 142 181 231 306 378 427
#     4  11  26  48  74 103 150 203 251 297 357 443
#     4  11  23  41  72 102 149 187 241 302 371 441
#     4  11  22  40  66 100 140 186 229 300 374 433
#     4   9  22  44  72 110 146 192 243 312 376 437
#
# _framework density 23.779024
#
# number of rings (size 3 to 8) (size 9 to 14) (size 15 to 20)
#    0.000    1.500    2.500    1.500    3.500    0.000 
#   13.500    0.000    5.500    0.000    0.000    0.000 
#    0.000    0.000    0.000    0.000    0.000    0.000 
#
# Total GULP energy -89274.804721 kJ/mol
# GULP energy per Si atom -5579.675295 kJ/mol
# Density = 2.372490 g / cm^3
# Si number density = 23.779024 Si / 1000 Ang^3
#
#
#
# Elastic Constant Matrix: (Units=GPa)
#
#
# Indices 1 2 3 4 5 6 
#
# 1 52.3187 23.1938 24.7065 0.0000 0.0000 0.0000
# 2 23.1938 117.2019 43.5511 0.0000 0.0000 0.0000
# 3 24.7065 43.5511 99.9822 0.0000 0.0000 0.0000
# 4 0.0000 0.0000 0.0000 31.8798 0.0000 0.0000
# 5 0.0000 0.0000 0.0000 0.0000 25.9938 0.0000
# 6 0.0000 0.0000 0.0000 0.0000 0.0000 23.9527
#
#
#
# Elastic Compliance Matrix: (Units=1/GPa)
#
#
# Indices 1 2 3 4 5 6 
#
# 1 0.022401 -0.002835 -0.004301 0.000000 0.000000 0.000000
# 2 -0.002835 0.010539 -0.003890 0.000000 0.000000 0.000000
# 3 -0.004301 -0.003890 0.012759 0.000000 0.000000 0.000000
# 4 0.000000 0.000000 0.000000 0.031368 0.000000 0.000000
# 5 0.000000 0.000000 0.000000 0.000000 0.038471 0.000000
# 6 0.000000 0.000000 0.000000 0.000000 0.000000 0.041749
#
#
# Mechanical properties :
#
#
# Convention : Reuss Voigt Hill
#
# Bulk Modulus (GPa) = 42.28745 50.26728 46.27737
# Shear Modulus (GPa) = 26.70644 28.23535 27.47090
#
# Velocity S-wave (km/s) = 3.35492 3.44961 3.40260
# Velocity P-wave (km/s) = 5.72970 6.08701 5.91105
#
# Compressibility (1/GPa) = 0.02364768
#
# Stress axis : x y z
#
# Youngs Moduli (GPa) = 44.64012 94.88726 78.37625
#
# Poissons Ratio (x) = 0.26901 0.33707
# Poissons Ratio (y) = 0.12656 0.30489
# Poissons Ratio (z) = 0.19198 0.36911
#
# Static dielectric constant tensor:
#      x y z
#    x 1.884770 0.000000 0.000000 
#    y 0.000000 1.869920 0.000000 
#    z 0.000000 0.000000 2.074390 
# 
# From -- ./inp_files/2992.got.cif
#   From: 2010.05.17/outbox.cif.g08.bks.cpg/sg20_2_cif.got.tgz:2992.got - 2010.06.03 22:52:26.
