data_PCOD9319464
_publ_section_title
;
Structure prediction by ZEFSAII (Michael W. Deem and Ramdas Pophale) SiO2 
 PCOD9319464
Probable space group: C 2 2 21
;
_chemical_formula_sum "Si O2"
_cell_formula_units_Z 56
_cell_length_a 14.849544
_cell_length_b 14.603766
_cell_length_c 12.739142
_cell_angle_alpha 90.000000
_cell_angle_beta 90.000000
_cell_angle_gamma 90.000000
_cell_volume 2762.600981
_symmetry_space_group_name_H-M "C 2 2 21"
_symmetry_group_IT_number 20
_symmetry_cell_setting 'orthorhombic'
loop_
_space_group_symop_operation_xyz
x,y,z
-x,-y,1/2+z
x,-y,-z
-x,y,1/2-z
1/2+x,1/2+y,z
1/2-x,1/2-y,1/2+z
1/2+x,1/2-y,-z
1/2-x,1/2+y,1/2-z
loop_
_atom_site_type_symbol
_atom_site_label
_atom_site_fract_x
_atom_site_fract_y
_atom_site_fract_z
Si Si1 0.336245 0.257289 0.858678
Si Si2 0.726330 0.910816 0.954833
Si Si3 0.730360 0.056253 0.609750
Si Si4 0.942707 0.039072 0.650100
Si Si5 0.092087 0.497643 0.203444
Si Si6 0.870437 0.691742 0.625970
Si Si7 0.015249 0.151277 0.053035
O O1 0.272320 0.343559 0.874433
O O2 0.299847 0.161947 0.906535
O O3 0.347526 0.236746 0.736215
O O4 0.427465 0.293814 0.911159
O O5 0.638528 0.948173 0.892603
O O6 0.708763 0.853070 0.059668
O O7 0.777331 0.000000 0.000000
O O8 0.834614 0.053493 0.648134
O O9 0.664979 0.017264 0.702449
O O10 0.724070 0.000000 0.500000
O O11 0.984615 0.098669 0.556170
O O12 0.000000 0.066843 0.750000
O O13 0.959678 0.930906 0.631856
O O14 0.068999 0.396644 0.156064
O O15 0.000000 0.537767 0.250000
O O16 0.910744 0.769768 0.553595
#
# Coordination Sequence:
#
# PCOD9319464 Si02
#       7
#     8   8   8   8   8   8   8
#     4  11  24  40  68  98 131 184 229 284 346 426
#     4  10  24  39  63  95 137 167 224 286 345 408
#     4  11  24  46  70 102 143 191 236 294 363 433
#     4  11  25  42  69 101 140 183 238 301 352 417
#     4  10  23  41  66  98 134 180 231 286 349 428
#     4  10  21  43  63  89 128 176 225 276 343 421
#     4  11  23  41  69  97 133 181 239 281 351 430
#
# _framework density 20.270752000000002
#
# number of rings (size 3 to 8) (size 9 to 14) (size 15 to 20)
#    0.000    1.429    1.429    3.857    6.000    5.143 
#    0.000    4.286    0.000    0.000    0.000    0.000 
#    0.000    0.000    0.000    0.000    0.000    0.000 
#
# Total GULP energy -156200.723937 kJ/mol
# GULP energy per Si atom -5578.597283 kJ/mol
# Density = 2.022462 g / cm^3
# Si number density = 20.270752 Si / 1000 Ang^3
#
#
#
# Elastic Constant Matrix: (Units=GPa)
#
#
# Indices 1 2 3 4 5 6 
#
# 1 86.5515 50.0710 31.1364 0.0000 0.0000 0.0000
# 2 50.0710 119.2537 17.5899 0.0000 0.0000 0.0000
# 3 31.1364 17.5899 51.4264 0.0000 0.0000 0.0000
# 4 0.0000 0.0000 0.0000 -54.1593 0.0000 0.0000
# 5 0.0000 0.0000 0.0000 0.0000 219.6014 0.0000
# 6 0.0000 0.0000 0.0000 0.0000 0.0000 58.2400
#
#
#
# Elastic Compliance Matrix: (Units=1/GPa)
#
#
# Indices 1 2 3 4 5 6 
#
# 1 0.018527 -0.006450 -0.009011 0.000000 0.000000 0.000000
# 2 -0.006450 0.011076 0.000116 0.000000 0.000000 0.000000
# 3 -0.009011 0.000116 0.024861 0.000000 0.000000 0.000000
# 4 0.000000 0.000000 0.000000 -0.018464 0.000000 0.000000
# 5 0.000000 0.000000 0.000000 0.000000 0.004554 0.000000
# 6 0.000000 0.000000 0.000000 0.000000 0.000000 0.017170
#
#
# Mechanical properties :
#
#
# Convention : Reuss Voigt Hill
#
# Bulk Modulus (GPa) = 42.05975 50.53625 46.29800
# Shear Modulus (GPa) = 51.90058 55.29870 53.59964
#
# Velocity S-wave (km/s) = 5.06550 5.22870 5.14774
# Velocity P-wave (km/s) = 7.41663 7.83818 7.63032
#
# Compressibility (1/GPa) = 0.02377570
#
# Stress axis : x y z
#
# Youngs Moduli (GPa) = 53.97615 90.28263 40.22326
#
# Poissons Ratio (x) = 0.58229 0.36245
# Poissons Ratio (y) = 0.34813 -0.00468
# Poissons Ratio (z) = 0.48638 -0.01051
#
# Static dielectric constant tensor:
#      x y z
#    x 1.822260 0.000000 0.000000 
#    y 0.000000 1.660520 0.000000 
#    z 0.000000 0.000000 1.688260 
# 
# From -- ./inp_files/15119.got.cif
#   From: 2010.05.17/outbox.cif.g08.bks.cpg/sg20_8_cif.got.tgz:15119.got - 2010.06.03 22:52:26.
