data_PCOD9319912
_publ_section_title
;
Structure prediction by ZEFSAII (Michael W. Deem and Ramdas Pophale) SiO2 
 PCOD9319912
Probable space group: C 2 2 21
;
_chemical_formula_sum "Si O2"
_cell_formula_units_Z 28
_cell_length_a 31.821522
_cell_length_b 5.466079
_cell_length_c 6.961895
_cell_angle_alpha 90.000000
_cell_angle_beta 90.000000
_cell_angle_gamma 90.000000
_cell_volume 1210.944728
_symmetry_space_group_name_H-M "C 2 2 21"
_symmetry_group_IT_number 20
_symmetry_cell_setting 'orthorhombic'
loop_
_space_group_symop_operation_xyz
x,y,z
-x,-y,1/2+z
x,-y,-z
-x,y,1/2-z
1/2+x,1/2+y,z
1/2-x,1/2-y,1/2+z
1/2+x,1/2-y,-z
1/2-x,1/2+y,1/2-z
loop_
_atom_site_type_symbol
_atom_site_label
_atom_site_fract_x
_atom_site_fract_y
_atom_site_fract_z
Si Si1 0.655384 0.000000 0.500000
Si Si2 0.087265 0.359655 0.795401
Si Si3 0.225032 0.407697 0.213431
Si Si4 0.039818 0.000000 0.000000
Si Si5 0.000000 0.386191 0.250000
O O1 0.624663 0.139235 0.354291
O O2 0.686100 0.143339 0.644891
O O3 0.044323 0.482847 0.721935
O O4 0.097241 0.500000 0.000000
O O5 0.071350 0.086886 0.836439
O O6 0.249286 0.651517 0.294061
O O7 0.212664 0.500000 0.000000
O O8 0.010471 0.215840 0.068750
#
# Coordination Sequence:
#
# PCOD9319912 Si02
#       5
#     4   8   8   4   4
#     4  12  26  46  79 110 152 186 266 309 378 452
#     4  10  24  45  65 107 152 196 255 317 363 451
#     4  12  25  53  82 117 154 202 247 313 398 473
#     4  10  22  42  67 100 144 208 250 305 384 430
#     4  10  22  40  72  98 150 200 256 306 374 440
#
# _framework density 23.122443000000001
#
# number of rings (size 3 to 8) (size 9 to 14) (size 15 to 20)
#    0.000    1.143    2.857    1.714   10.000    0.000 
#   25.714    0.000    0.000    0.000    0.000    0.000 
#    0.000    0.000    0.000    0.000    0.000    0.000 
#
# Total GULP energy -78138.399089 kJ/mol
# GULP energy per Si atom -5581.314221 kJ/mol
# Density = 2.306981 g / cm^3
# Si number density = 23.122443 Si / 1000 Ang^3
#
#
#
# Elastic Constant Matrix: (Units=GPa)
#
#
# Indices 1 2 3 4 5 6 
#
# 1 147.1661 48.8827 70.3780 0.0000 0.0000 0.0000
# 2 48.8827 91.4757 17.9815 0.0000 0.0000 0.0000
# 3 70.3780 17.9815 142.3025 0.0000 0.0000 0.0000
# 4 0.0000 0.0000 0.0000 28.4628 0.0000 0.0000
# 5 0.0000 0.0000 0.0000 0.0000 68.6610 0.0000
# 6 0.0000 0.0000 0.0000 0.0000 0.0000 2.2096
#
#
#
# Elastic Compliance Matrix: (Units=1/GPa)
#
#
# Indices 1 2 3 4 5 6 
#
# 1 0.010590 -0.004747 -0.004637 0.000000 0.000000 0.000000
# 2 -0.004747 0.013339 0.000662 0.000000 0.000000 0.000000
# 3 -0.004637 0.000662 0.009237 0.000000 0.000000 0.000000
# 4 0.000000 0.000000 0.000000 0.035134 0.000000 0.000000
# 5 0.000000 0.000000 0.000000 0.000000 0.014564 0.000000
# 6 0.000000 0.000000 0.000000 0.000000 0.000000 0.452563
#
#
# Mechanical properties :
#
#
# Convention : Reuss Voigt Hill
#
# Bulk Modulus (GPa) = 63.61080 72.82541 68.21811
# Shear Modulus (GPa) = 8.95880 36.11350 22.53615
#
# Velocity S-wave (km/s) = 1.97051 3.95630 3.12532
# Velocity P-wave (km/s) = 5.72253 7.24111 6.52614
#
# Compressibility (1/GPa) = 0.01572060
#
# Stress axis : x y z
#
# Youngs Moduli (GPa) = 94.43228 74.97089 108.25936
#
# Poissons Ratio (x) = 0.35591 0.50204
# Poissons Ratio (y) = 0.44830 -0.07171
# Poissons Ratio (z) = 0.43792 -0.04966
#
# Static dielectric constant tensor:
#      x y z
#    x 1.833210 0.000000 0.000000 
#    y 0.000000 1.926060 0.000000 
#    z 0.000000 0.000000 1.988260 
# 
# From -- ./inp_files/5085.got.cif
#   From: 2010.05.17/outbox.cif.g08.bks.cpg/sg20_3_cif.got.tgz:5085.got - 2010.06.03 22:52:26.
