data_PCOD9319648
_publ_section_title
;
Structure prediction by ZEFSAII (Michael W. Deem and Ramdas Pophale) SiO2 
 PCOD9319648
Probable space group: C 2 2 21
;
_chemical_formula_sum "Si O2"
_cell_formula_units_Z 64
_cell_length_a 18.575300
_cell_length_b 8.338583
_cell_length_c 19.053895
_cell_angle_alpha 90.000000
_cell_angle_beta 90.000000
_cell_angle_gamma 90.000000
_cell_volume 2951.289822
_symmetry_space_group_name_H-M "C 2 2 21"
_symmetry_group_IT_number 20
_symmetry_cell_setting 'orthorhombic'
loop_
_space_group_symop_operation_xyz
x,y,z
-x,-y,1/2+z
x,-y,-z
-x,y,1/2-z
1/2+x,1/2+y,z
1/2-x,1/2-y,1/2+z
1/2+x,1/2-y,-z
1/2-x,1/2+y,1/2-z
loop_
_atom_site_type_symbol
_atom_site_label
_atom_site_fract_x
_atom_site_fract_y
_atom_site_fract_z
Si Si1 0.899515 0.315030 0.091184
Si Si2 0.359154 0.685165 0.493276
Si Si3 0.943282 0.578380 0.572710
Si Si4 0.104926 0.949543 0.373808
Si Si5 0.793644 0.250752 0.966906
Si Si6 0.955339 0.756006 0.371792
Si Si7 0.832015 0.830778 0.265686
Si Si8 0.702793 0.029838 0.328736
O O1 0.867333 0.423439 0.153424
O O2 0.974170 0.378896 0.062622
O O3 0.914487 0.132755 0.113469
O O4 0.841567 0.320285 0.029162
O O5 0.337470 0.500000 0.500000
O O6 0.396870 0.758630 0.423219
O O7 0.284592 0.781742 0.499184
O O8 0.418644 0.697536 0.554358
O O9 0.915662 0.500000 0.500000
O O10 0.945966 0.437695 0.629855
O O11 0.159337 0.891974 0.434264
O O12 0.148725 0.935690 0.301974
O O13 0.035773 0.829411 0.370553
O O14 0.782521 0.367554 0.899607
O O15 0.904290 0.821879 0.311297
O O16 0.767982 0.911714 0.309459
O O17 0.810563 0.657100 0.233773
#
# Coordination Sequence:
#
# PCOD9319648 Si02
#       8
#     8   8   8   8   8   8   8   8
#     4  12  22  40  64  92 125 160 208 268 328 389
#     4  11  22  37  61  94 125 157 202 261 325 383
#     4  10  22  37  60  91 124 160 204 258 324 385
#     4  11  25  41  65  93 126 171 216 264 326 391
#     4  11  23  40  65  95 127 165 211 268 331 391
#     4  11  23  42  63  88 127 172 214 264 319 388
#     4  11  24  44  64  89 128 170 218 265 316 387
#     4  11  24  41  65  92 123 167 213 264 323 388
#
# _framework density 21.685434000000001
#
# number of rings (size 3 to 8) (size 9 to 14) (size 15 to 20)
#    0.000    1.000    0.000    8.625    0.000    6.000 
#    0.000    3.750    0.000    0.000    0.000    0.000 
#    0.000    0.000    0.000    0.000    0.000    0.000 
#
# Total GULP energy -178689.129521 kJ/mol
# GULP energy per Si atom -5584.035298 kJ/mol
# Density = 2.163608 g / cm^3
# Si number density = 21.685434 Si / 1000 Ang^3
#
#
#
# Elastic Constant Matrix: (Units=GPa)
#
#
# Indices 1 2 3 4 5 6 
#
# 1 108.0143 14.3408 3.2073 0.0000 0.0000 0.0000
# 2 14.3408 99.1689 20.6297 0.0000 0.0000 0.0000
# 3 3.2073 20.6297 44.0682 0.0000 0.0000 0.0000
# 4 0.0000 0.0000 0.0000 28.6426 0.0000 0.0000
# 5 0.0000 0.0000 0.0000 0.0000 35.9129 0.0000
# 6 0.0000 0.0000 0.0000 0.0000 0.0000 23.4744
#
#
#
# Elastic Compliance Matrix: (Units=1/GPa)
#
#
# Indices 1 2 3 4 5 6 
#
# 1 0.009439 -0.001354 -0.000053 0.000000 0.000000 0.000000
# 2 -0.001354 0.011366 -0.005222 0.000000 0.000000 0.000000
# 3 -0.000053 -0.005222 0.025141 0.000000 0.000000 0.000000
# 4 0.000000 0.000000 0.000000 0.034913 0.000000 0.000000
# 5 0.000000 0.000000 0.000000 0.000000 0.027845 0.000000
# 6 0.000000 0.000000 0.000000 0.000000 0.000000 0.042600
#
#
# Mechanical properties :
#
#
# Convention : Reuss Voigt Hill
#
# Bulk Modulus (GPa) = 30.59294 36.40077 33.49686
# Shear Modulus (GPa) = 28.49681 31.81089 30.15385
#
# Velocity S-wave (km/s) = 3.62898 3.83420 3.73300
# Velocity P-wave (km/s) = 5.63006 6.03521 5.83615
#
# Compressibility (1/GPa) = 0.03268728
#
# Stress axis : x y z
#
# Youngs Moduli (GPa) = 105.93922 87.98199 39.77621
#
# Poissons Ratio (x) = 0.11912 0.00211
# Poissons Ratio (y) = 0.14344 0.20772
# Poissons Ratio (z) = 0.00563 0.45946
#
# Static dielectric constant tensor:
#      x y z
#    x 1.736610 0.000000 0.000000 
#    y 0.000000 1.947010 0.000000 
#    z 0.000000 0.000000 1.803040 
# 
# From -- ./inp_files/27779.got.cif
#   From: 2010.05.17/outbox.cif.g08.bks.cpg/sg20_14_cif.got.tgz:27779.got - 2010.06.03 22:52:26.
