data_PCOD9319123
_publ_section_title
;
Structure prediction by ZEFSAII (Michael W. Deem and Ramdas Pophale) SiO2 
 PCOD9319123
Probable space group: C 2 2 21
;
_chemical_formula_sum "Si O2"
_cell_formula_units_Z 64
_cell_length_a 15.862843
_cell_length_b 12.014688
_cell_length_c 16.047924
_cell_angle_alpha 90.000000
_cell_angle_beta 90.000000
_cell_angle_gamma 90.000000
_cell_volume 3058.527448
_symmetry_space_group_name_H-M "C 2 2 21"
_symmetry_group_IT_number 20
_symmetry_cell_setting 'orthorhombic'
loop_
_space_group_symop_operation_xyz
x,y,z
-x,-y,1/2+z
x,-y,-z
-x,y,1/2-z
1/2+x,1/2+y,z
1/2-x,1/2-y,1/2+z
1/2+x,1/2-y,-z
1/2-x,1/2+y,1/2-z
loop_
_atom_site_type_symbol
_atom_site_label
_atom_site_fract_x
_atom_site_fract_y
_atom_site_fract_z
Si Si1 0.183988 0.220040 0.532940
Si Si2 0.728434 0.196788 0.134652
Si Si3 0.996232 0.868382 0.999034
Si Si4 0.878051 0.647819 0.809403
Si Si5 0.595947 0.942194 0.590397
Si Si6 0.714368 0.956153 0.091023
Si Si7 0.440854 0.812729 0.378123
Si Si8 0.465111 0.772937 0.659292
O O1 0.256530 0.227054 0.463074
O O2 0.154863 0.337467 0.567896
O O3 0.222272 0.145189 0.606735
O O4 0.103485 0.161012 0.488741
O O5 0.800528 0.270992 0.175166
O O6 0.634765 0.222594 0.162309
O O7 0.732082 0.063154 0.146978
O O8 0.054450 0.800302 0.932802
O O9 0.013048 0.817545 0.089818
O O10 0.009312 0.000000 0.000000
O O11 0.861238 0.520944 0.839198
O O12 0.907022 0.678383 0.716464
O O13 0.960152 0.663948 0.867882
O O14 0.510301 0.887410 0.627671
O O15 0.582066 0.000000 0.500000
O O16 0.619995 0.906695 0.083082
O O17 0.738115 0.000000 0.000000
O O18 0.500000 0.747465 0.750000
#
# Coordination Sequence:
#
# PCOD9319123 Si02
#       8
#     8   8   8   8   8   8   8   8
#     4  10  21  39  68 104 135 185 240 293 364 438
#     4  11  21  43  67 102 142 184 237 304 363 435
#     4  11  22  46  73  98 143 196 242 301 367 453
#     4  11  24  41  69 105 140 183 244 307 359 427
#     4  11  22  44  73 101 149 191 245 305 362 428
#     4  10  22  40  69  97 135 185 238 287 360 445
#     4  11  24  44  65 105 135 185 247 291 368 443
#     4  11  27  45  71 106 146 188 248 301 377 439
#
# _framework density 20.925104000000001
#
# number of rings (size 3 to 8) (size 9 to 14) (size 15 to 20)
#    0.000    1.250    2.500    4.125    3.500    5.000 
#    6.750    0.000    0.000    0.000    0.000    0.000 
#    0.000    0.000    0.000    0.000    0.000    0.000 
#
# Total GULP energy -178374.998780 kJ/mol
# GULP energy per Si atom -5574.218712 kJ/mol
# Density = 2.087748 g / cm^3
# Si number density = 20.925104 Si / 1000 Ang^3
#
#
#
# Elastic Constant Matrix: (Units=GPa)
#
#
# Indices 1 2 3 4 5 6 
#
# 1 125.9796 68.7616 44.1628 0.0000 0.0000 0.0000
# 2 68.7616 162.0010 66.5142 0.0000 0.0000 0.0000
# 3 44.1628 66.5142 100.7882 0.0000 0.0000 0.0000
# 4 0.0000 0.0000 0.0000 -6.2745 0.0000 0.0000
# 5 0.0000 0.0000 0.0000 0.0000 27.2509 0.0000
# 6 0.0000 0.0000 0.0000 0.0000 0.0000 29.5107
#
#
#
# Elastic Compliance Matrix: (Units=1/GPa)
#
#
# Indices 1 2 3 4 5 6 
#
# 1 0.010714 -0.003594 -0.002323 0.000000 0.000000 0.000000
# 2 -0.003594 0.009672 -0.004809 0.000000 0.000000 0.000000
# 3 -0.002323 -0.004809 0.014113 0.000000 0.000000 0.000000
# 4 0.000000 0.000000 0.000000 -0.159375 0.000000 0.000000
# 5 0.000000 0.000000 0.000000 0.000000 0.036696 0.000000
# 6 0.000000 0.000000 0.000000 0.000000 0.000000 0.033886
#
#
# Mechanical properties :
#
#
# Convention : Reuss Voigt Hill
#
# Bulk Modulus (GPa) = 76.63508 83.07177 79.85343
# Shear Modulus (GPa) = -175.47341 24.05278 -75.71032
#
# Velocity S-wave (km/s) = -9.16733 3.39406 -6.02164
# Velocity P-wave (km/s) = 8.68045 7.42599 3.17843
#
# Compressibility (1/GPa) = 0.01304885
#
# Stress axis : x y z
#
# Youngs Moduli (GPa) = 93.33966 103.38639 70.85687
#
# Poissons Ratio (x) = 0.37154 0.16459
# Poissons Ratio (y) = 0.33543 0.34072
# Poissons Ratio (z) = 0.21681 0.49714
#
# Static dielectric constant tensor:
#      x y z
#    x 1.781050 0.000000 0.000000 
#    y 0.000000 1.827940 0.000000 
#    z 0.000000 0.000000 1.849700 
# 
# From -- ./inp_files/24986.got.cif
#   From: 2010.05.17/outbox.cif.g08.bks.cpg/sg20_13_cif.got.tgz:24986.got - 2010.06.03 22:52:26.
