data_PCOD9319259
_publ_section_title
;
Structure prediction by ZEFSAII (Michael W. Deem and Ramdas Pophale) SiO2 
 PCOD9319259
Probable space group: C 2 2 21
;
_chemical_formula_sum "Si O2"
_cell_formula_units_Z 28
_cell_length_a 29.745626
_cell_length_b 7.620748
_cell_length_c 5.385025
_cell_angle_alpha 90.000000
_cell_angle_beta 90.000000
_cell_angle_gamma 90.000000
_cell_volume 1220.698575
_symmetry_space_group_name_H-M "C 2 2 21"
_symmetry_group_IT_number 20
_symmetry_cell_setting 'orthorhombic'
loop_
_space_group_symop_operation_xyz
x,y,z
-x,-y,1/2+z
x,-y,-z
-x,y,1/2-z
1/2+x,1/2+y,z
1/2-x,1/2-y,1/2+z
1/2+x,1/2-y,-z
1/2-x,1/2+y,1/2-z
loop_
_atom_site_type_symbol
_atom_site_label
_atom_site_fract_x
_atom_site_fract_y
_atom_site_fract_z
Si Si1 0.133339 0.181659 0.244071
Si Si2 0.237543 0.833467 0.855087
Si Si3 0.500000 0.882573 0.750000
Si Si4 0.596256 0.286711 0.255653
O O1 0.185625 0.137420 0.217223
O O2 0.122064 0.276777 0.499591
O O3 0.106277 0.996453 0.250272
O O4 0.116724 0.281218 0.001167
O O5 0.260915 0.799793 0.590120
O O6 0.257509 0.000000 0.000000
O O7 0.455538 0.763874 0.769623
O O8 0.497236 0.000000 0.500000
#
# Coordination Sequence:
#
# PCOD9319259 Si02
#       4
#     8   8   4   8
#     4  10  21  41  71  93 123 174 235 278 336 415
#     4  12  25  44  72 103 145 185 242 314 358 421
#     4  12  26  44  62 104 144 176 222 282 356 420
#     4  10  21  40  71  93 130 177 221 285 332 416
#
# _framework density 22.937687
#
# number of rings (size 3 to 8) (size 9 to 14) (size 15 to 20)
#    0.000    1.143    2.857    4.286    4.000    4.571 
#    0.000   14.286    0.000    0.000    0.000    0.000 
#    0.000    0.000    0.000    0.000    0.000    0.000 
#
# Total GULP energy -78169.914092 kJ/mol
# GULP energy per Si atom -5583.565292 kJ/mol
# Density = 2.288548 g / cm^3
# Si number density = 22.937687 Si / 1000 Ang^3
#
#
#
# Elastic Constant Matrix: (Units=GPa)
#
#
# Indices 1 2 3 4 5 6 
#
# 1 99.9925 32.3214 40.9074 0.0000 0.0000 0.0000
# 2 32.3214 76.7779 29.1937 0.0000 0.0000 0.0000
# 3 40.9074 29.1937 238.6511 0.0000 0.0000 0.0000
# 4 0.0000 0.0000 0.0000 12.6590 0.0000 0.0000
# 5 0.0000 0.0000 0.0000 0.0000 47.2430 0.0000
# 6 0.0000 0.0000 0.0000 0.0000 0.0000 247.6981
#
#
#
# Elastic Compliance Matrix: (Units=1/GPa)
#
#
# Indices 1 2 3 4 5 6 
#
# 1 0.012079 -0.004507 -0.001519 0.000000 0.000000 0.000000
# 2 -0.004507 0.015342 -0.001104 0.000000 0.000000 0.000000
# 3 -0.001519 -0.001104 0.004586 0.000000 0.000000 0.000000
# 4 0.000000 0.000000 0.000000 0.078995 0.000000 0.000000
# 5 0.000000 0.000000 0.000000 0.000000 0.021167 0.000000
# 6 0.000000 0.000000 0.000000 0.000000 0.000000 0.004037
#
#
# Mechanical properties :
#
#
# Convention : Reuss Voigt Hill
#
# Bulk Modulus (GPa) = 56.35233 68.91849 62.63541
# Shear Modulus (GPa) = 31.97287 82.38662 57.17975
#
# Velocity S-wave (km/s) = 3.73755 5.99963 4.99824
# Velocity P-wave (km/s) = 6.57621 8.83772 7.78948
#
# Compressibility (1/GPa) = 0.01774550
#
# Stress axis : x y z
#
# Youngs Moduli (GPa) = 82.78706 65.18098 218.07020
#
# Poissons Ratio (x) = 0.29380 0.33128
# Poissons Ratio (y) = 0.37315 0.24078
# Poissons Ratio (z) = 0.12576 0.07197
#
# Static dielectric constant tensor:
#      x y z
#    x 1.789170 0.000000 0.000000 
#    y 0.000000 1.919470 0.000000 
#    z 0.000000 0.000000 1.942530 
# 
# From -- ./inp_files/3996.got.cif
#   From: 2010.05.17/outbox.cif.g08.bks.cpg/sg20_2_cif.got.tgz:3996.got - 2010.06.03 22:52:26.
