data_PCOD9319360
_publ_section_title
;
Structure prediction by ZEFSAII (Michael W. Deem and Ramdas Pophale) SiO2 
 PCOD9319360
Probable space group: C 2 2 21
;
_chemical_formula_sum "Si O2"
_cell_formula_units_Z 56
_cell_length_a 15.400192
_cell_length_b 13.122438
_cell_length_c 13.079992
_cell_angle_alpha 90.000000
_cell_angle_beta 90.000000
_cell_angle_gamma 90.000000
_cell_volume 2643.310270
_symmetry_space_group_name_H-M "C 2 2 21"
_symmetry_group_IT_number 20
_symmetry_cell_setting 'orthorhombic'
loop_
_space_group_symop_operation_xyz
x,y,z
-x,-y,1/2+z
x,-y,-z
-x,y,1/2-z
1/2+x,1/2+y,z
1/2-x,1/2-y,1/2+z
1/2+x,1/2-y,-z
1/2-x,1/2+y,1/2-z
loop_
_atom_site_type_symbol
_atom_site_label
_atom_site_fract_x
_atom_site_fract_y
_atom_site_fract_z
Si Si1 0.228749 0.878688 0.758155
Si Si2 0.383290 0.215701 0.353810
Si Si3 0.103864 0.300400 0.243887
Si Si4 0.682839 0.112904 0.951851
Si Si5 0.500000 0.619925 0.750000
Si Si6 0.155525 0.467164 0.381581
Si Si7 0.000000 0.555007 0.250000
Si Si8 0.855245 0.031651 0.891689
O O1 0.307159 0.803103 0.728497
O O2 0.148451 0.806927 0.786022
O O3 0.265318 0.965479 0.834648
O O4 0.200388 0.940440 0.657480
O O5 0.344252 0.197837 0.465757
O O6 0.440771 0.313221 0.327231
O O7 0.448510 0.123834 0.330363
O O8 0.126096 0.374698 0.149421
O O9 0.152885 0.348057 0.345027
O O10 0.000000 0.289430 0.250000
O O11 0.783291 0.118036 0.915845
O O12 0.671010 0.000000 0.000000
O O13 0.430514 0.558682 0.814837
O O14 0.148896 0.500000 0.500000
O O15 0.069642 0.498857 0.319353
O O16 0.893247 0.000000 0.000000
#
# Coordination Sequence:
#
# PCOD9319360 Si02
#       8
#     8   8   8   8   4   8   4   8
#     4  11  24  48  67  98 143 185 233 287 360 443
#     4  10  21  41  72 100 133 178 235 289 350 427
#     4  12  27  41  67 104 140 178 238 306 344 419
#     4  11  21  44  74  98 135 196 233 280 373 443
#     4  11  26  44  73 114 142 176 255 312 339 416
#     4  11  24  44  71 102 143 186 237 298 361 416
#     4   9  20  38  65 104 136 170 221 304 341 410
#     4  11  23  48  76  94 144 203 232 281 376 433
#
# _framework density 21.185555999999998
#
# number of rings (size 3 to 8) (size 9 to 14) (size 15 to 20)
#    0.000    1.143    5.000    1.714    3.000    2.286 
#    5.143    0.000    0.000    0.000    0.000    0.000 
#    0.000    0.000    0.000    0.000    0.000    0.000 
#
# Total GULP energy -156238.848722 kJ/mol
# GULP energy per Si atom -5579.958883 kJ/mol
# Density = 2.113734 g / cm^3
# Si number density = 21.185556 Si / 1000 Ang^3
#
#
#
# Elastic Constant Matrix: (Units=GPa)
#
#
# Indices 1 2 3 4 5 6 
#
# 1 126.3433 40.9763 35.7575 0.0000 0.0000 0.0000
# 2 40.9763 53.7041 25.2240 0.0000 0.0000 0.0000
# 3 35.7575 25.2240 118.0796 0.0000 0.0000 0.0000
# 4 0.0000 0.0000 0.0000 6.6352 0.0000 0.0000
# 5 0.0000 0.0000 0.0000 0.0000 38.8271 0.0000
# 6 0.0000 0.0000 0.0000 0.0000 0.0000 31.7006
#
#
#
# Elastic Compliance Matrix: (Units=1/GPa)
#
#
# Indices 1 2 3 4 5 6 
#
# 1 0.010809 -0.007458 -0.001680 0.000000 0.000000 0.000000
# 2 -0.007458 0.025844 -0.003262 0.000000 0.000000 0.000000
# 3 -0.001680 -0.003262 0.009674 0.000000 0.000000 0.000000
# 4 0.000000 0.000000 0.000000 0.150712 0.000000 0.000000
# 5 0.000000 0.000000 0.000000 0.000000 0.025755 0.000000
# 6 0.000000 0.000000 0.000000 0.000000 0.000000 0.031545
#
#
# Mechanical properties :
#
#
# Convention : Reuss Voigt Hill
#
# Bulk Modulus (GPa) = 46.45506 55.78248 51.11877
# Shear Modulus (GPa) = 17.46321 28.51053 22.98687
#
# Velocity S-wave (km/s) = 2.87417 3.67243 3.29755
# Velocity P-wave (km/s) = 5.74368 6.66108 6.21931
#
# Compressibility (1/GPa) = 0.02152618
#
# Stress axis : x y z
#
# Youngs Moduli (GPa) = 92.51199 38.69444 103.36486
#
# Poissons Ratio (x) = 0.28860 0.17366
# Poissons Ratio (y) = 0.69000 0.33718
# Poissons Ratio (z) = 0.15543 0.12622
#
# Static dielectric constant tensor:
#      x y z
#    x 1.824260 0.000000 0.000000 
#    y 0.000000 1.881560 0.000000 
#    z 0.000000 0.000000 1.729760 
# 
# From -- ./inp_files/15180.got.cif
#   From: 2010.05.17/outbox.cif.g08.bks.cpg/sg20_8_cif.got.tgz:15180.got - 2010.06.03 22:52:26.
