data_PCOD9319420
_publ_section_title
;
Structure prediction by ZEFSAII (Michael W. Deem and Ramdas Pophale) SiO2 
 PCOD9319420
Probable space group: C 2 2 21
;
_chemical_formula_sum "Si O2"
_cell_formula_units_Z 52
_cell_length_a 14.620130
_cell_length_b 8.905328
_cell_length_c 18.316704
_cell_angle_alpha 90.000000
_cell_angle_beta 90.000000
_cell_angle_gamma 90.000000
_cell_volume 2384.780882
_symmetry_space_group_name_H-M "C 2 2 21"
_symmetry_group_IT_number 20
_symmetry_cell_setting 'orthorhombic'
loop_
_space_group_symop_operation_xyz
x,y,z
-x,-y,1/2+z
x,-y,-z
-x,y,1/2-z
1/2+x,1/2+y,z
1/2-x,1/2-y,1/2+z
1/2+x,1/2-y,-z
1/2-x,1/2+y,1/2-z
loop_
_atom_site_type_symbol
_atom_site_label
_atom_site_fract_x
_atom_site_fract_y
_atom_site_fract_z
Si Si1 0.186291 0.637598 0.815092
Si Si2 0.432088 0.205459 0.050257
Si Si3 0.093646 0.600773 0.614095
Si Si4 0.623037 0.635096 0.943366
Si Si5 0.751259 0.850393 0.033901
Si Si6 0.500000 0.854330 0.250000
Si Si7 0.784464 0.002810 0.311549
O O1 0.183653 0.606692 0.900708
O O2 0.267605 0.561321 0.769354
O O3 0.092816 0.572911 0.780208
O O4 0.193749 0.819401 0.807003
O O5 0.519798 0.308958 0.050800
O O6 0.334243 0.268121 0.075157
O O7 0.455019 0.058420 0.097593
O O8 0.406765 0.171634 0.965717
O O9 0.192865 0.550056 0.643880
O O10 0.042473 0.705749 0.673423
O O11 0.640226 0.578056 0.861411
O O12 0.638396 0.500000 0.000000
O O13 0.695173 0.758739 0.973221
O O14 0.791634 0.000000 0.000000
#
# Coordination Sequence:
#
# PCOD9319420 Si02
#       7
#     8   8   8   8   8   4   8
#     4  11  25  46  68 100 135 182 226 283 346 418
#     4  11  23  41  68  99 136 179 230 286 345 404
#     4  10  21  42  67  95 136 184 221 280 348 410
#     4  12  24  43  68  98 137 179 225 287 350 403
#     4  12  26  44  71 105 136 174 237 288 341 414
#     4  10  24  40  66  98 138 174 234 274 344 410
#     4  11  24  45  68  94 140 182 222 283 351 410
#
# _framework density 21.804938
#
# number of rings (size 3 to 8) (size 9 to 14) (size 15 to 20)
#    0.000    0.923    4.615    1.385    6.462    1.231 
#    2.769    0.000    0.000    0.000    0.000    0.000 
#    0.000    0.000    0.000    0.000    0.000    0.000 
#
# Total GULP energy -144839.613074 kJ/mol
# GULP energy per Si atom -5570.754349 kJ/mol
# Density = 2.175531 g / cm^3
# Si number density = 21.804938 Si / 1000 Ang^3
#
#
#
# Elastic Constant Matrix: (Units=GPa)
#
#
# Indices 1 2 3 4 5 6 
#
# 1 67.6437 5.8988 -9.5445 0.0000 0.0000 0.0000
# 2 5.8988 53.1176 8.0558 0.0000 0.0000 0.0000
# 3 -9.5445 8.0558 65.0633 0.0000 0.0000 0.0000
# 4 0.0000 0.0000 0.0000 26.0923 0.0000 0.0000
# 5 0.0000 0.0000 0.0000 0.0000 34.1676 0.0000
# 6 0.0000 0.0000 0.0000 0.0000 0.0000 19.9694
#
#
#
# Elastic Compliance Matrix: (Units=1/GPa)
#
#
# Indices 1 2 3 4 5 6 
#
# 1 0.015318 -0.002081 0.002505 0.000000 0.000000 0.000000
# 2 -0.002081 0.019469 -0.002716 0.000000 0.000000 0.000000
# 3 0.002505 -0.002716 0.016073 0.000000 0.000000 0.000000
# 4 0.000000 0.000000 0.000000 0.038326 0.000000 0.000000
# 5 0.000000 0.000000 0.000000 0.000000 0.029267 0.000000
# 6 0.000000 0.000000 0.000000 0.000000 0.000000 0.050077
#
#
# Mechanical properties :
#
#
# Convention : Reuss Voigt Hill
#
# Bulk Modulus (GPa) = 21.60921 21.62722 21.61821
# Shear Modulus (GPa) = 26.51956 28.14014 27.32985
#
# Velocity S-wave (km/s) = 3.49121 3.59631 3.54415
# Velocity P-wave (km/s) = 5.11695 5.21388 5.16564
#
# Compressibility (1/GPa) = 0.04627657
#
# Stress axis : x y z
#
# Youngs Moduli (GPa) = 65.28165 51.36335 62.21478
#
# Poissons Ratio (x) = 0.10689 -0.15583
# Poissons Ratio (y) = 0.13585 0.16897
# Poissons Ratio (z) = -0.16352 0.13950
#
# Static dielectric constant tensor:
#      x y z
#    x 1.874040 0.000000 0.000000 
#    y 0.000000 1.803370 0.000000 
#    z 0.000000 0.000000 1.808270 
# 
# From -- ./inp_files/27524.got.cif
#   From: 2010.05.17/outbox.cif.g08.bks.cpg/sg20_14_cif.got.tgz:27524.got - 2010.06.03 22:52:26.
