data_PCOD9319411
_publ_section_title
;
Structure prediction by ZEFSAII (Michael W. Deem and Ramdas Pophale) SiO2 
 PCOD9319411
Probable space group: C 2 2 21
;
_chemical_formula_sum "Si O2"
_cell_formula_units_Z 32
_cell_length_a 13.345909
_cell_length_b 18.128920
_cell_length_c 5.334845
_cell_angle_alpha 90.000000
_cell_angle_beta 90.000000
_cell_angle_gamma 90.000000
_cell_volume 1290.749298
_symmetry_space_group_name_H-M "C 2 2 21"
_symmetry_group_IT_number 20
_symmetry_cell_setting 'orthorhombic'
loop_
_space_group_symop_operation_xyz
x,y,z
-x,-y,1/2+z
x,-y,-z
-x,y,1/2-z
1/2+x,1/2+y,z
1/2-x,1/2-y,1/2+z
1/2+x,1/2-y,-z
1/2-x,1/2+y,1/2-z
loop_
_atom_site_type_symbol
_atom_site_label
_atom_site_fract_x
_atom_site_fract_y
_atom_site_fract_z
Si Si1 0.884526 0.425083 0.663115
Si Si2 0.395339 0.305519 0.966459
Si Si3 0.120937 0.744535 0.019405
Si Si4 0.168572 0.955346 0.759530
O O1 0.882290 0.500000 0.500000
O O2 0.869772 0.342833 0.554595
O O3 0.783608 0.432637 0.831031
O O4 0.000000 0.423351 0.750000
O O5 0.334863 0.262811 0.752275
O O6 0.393989 0.385578 0.840340
O O7 0.502894 0.266353 0.991690
O O8 0.352464 0.297174 0.245143
O O9 0.175089 0.000000 0.500000
O O10 0.127305 0.000000 0.000000
#
# Coordination Sequence:
#
# PCOD9319411 Si02
#       4
#     8   8   8   8
#     4  11  24  41  68 100 140 186 232 287 356 435
#     4  10  21  42  66  96 136 171 232 284 341 420
#     4  10  22  41  66 100 133 178 226 281 350 419
#     4  11  25  44  67 100 137 181 232 291 352 418
#
# _framework density 24.791803000000002
#
# number of rings (size 3 to 8) (size 9 to 14) (size 15 to 20)
#    0.000    1.500    2.500    2.250    3.500    6.000 
#    0.000   10.000    0.000    0.000    0.000    0.000 
#    0.000    0.000    0.000    0.000    0.000    0.000 
#
# Total GULP energy -89083.214332 kJ/mol
# GULP energy per Si atom -5567.700896 kJ/mol
# Density = 2.473538 g / cm^3
# Si number density = 24.791803 Si / 1000 Ang^3
#
#
#
# Elastic Constant Matrix: (Units=GPa)
#
#
# Indices 1 2 3 4 5 6 
#
# 1 82.4994 19.7789 -4.8443 0.0000 0.0000 0.0000
# 2 19.7789 188.8579 61.0385 0.0000 0.0000 0.0000
# 3 -4.8443 61.0385 194.7425 0.0000 0.0000 0.0000
# 4 0.0000 0.0000 0.0000 47.6401 0.0000 0.0000
# 5 0.0000 0.0000 0.0000 0.0000 -3.6798 0.0000
# 6 0.0000 0.0000 0.0000 0.0000 0.0000 -53.0604
#
#
#
# Elastic Compliance Matrix: (Units=1/GPa)
#
#
# Indices 1 2 3 4 5 6 
#
# 1 0.012546 -0.001574 0.000806 0.000000 0.000000 0.000000
# 2 -0.001574 0.006089 -0.001948 0.000000 0.000000 0.000000
# 3 0.000806 -0.001948 0.005766 0.000000 0.000000 0.000000
# 4 0.000000 0.000000 0.000000 0.020991 0.000000 0.000000
# 5 0.000000 0.000000 0.000000 0.000000 -0.271750 0.000000
# 6 0.000000 0.000000 0.000000 0.000000 0.000000 -0.018846
#
#
# Mechanical properties :
#
#
# Convention : Reuss Voigt Hill
#
# Bulk Modulus (GPa) = 52.72075 68.67178 60.69627
# Shear Modulus (GPa) = -21.41791 24.18840 1.38525
#
# Velocity S-wave (km/s) = -2.94242 3.12695 0.74831
# Velocity P-wave (km/s) = 3.12534 6.38722 5.02814
#
# Compressibility (1/GPa) = 0.01896786
#
# Stress axis : x y z
#
# Youngs Moduli (GPa) = 79.70654 164.22063 173.44506
#
# Poissons Ratio (x) = 0.25853 -0.13971
# Poissons Ratio (y) = 0.12548 0.33783
# Poissons Ratio (z) = -0.06420 0.31986
#
# Static dielectric constant tensor:
#      x y z
#    x 2.044650 0.000000 0.000000 
#    y 0.000000 2.044970 0.000000 
#    z 0.000000 0.000000 2.166270 
# 
# From -- ./inp_files/1641.got.cif
#   From: 2010.05.17/outbox.cif.g08.bks.cpg/sg20_1_cif.got.tgz:1641.got - 2010.06.03 22:52:26.
