data_PCOD9319536
_publ_section_title
;
Structure prediction by ZEFSAII (Michael W. Deem and Ramdas Pophale) SiO2 
 PCOD9319536
Probable space group: C 2 2 21
;
_chemical_formula_sum "Si O2"
_cell_formula_units_Z 56
_cell_length_a 32.791026
_cell_length_b 5.311925
_cell_length_c 13.965382
_cell_angle_alpha 90.000000
_cell_angle_beta 90.000000
_cell_angle_gamma 90.000000
_cell_volume 2432.538708
_symmetry_space_group_name_H-M "C 2 2 21"
_symmetry_group_IT_number 20
_symmetry_cell_setting 'orthorhombic'
loop_
_space_group_symop_operation_xyz
x,y,z
-x,-y,1/2+z
x,-y,-z
-x,y,1/2-z
1/2+x,1/2+y,z
1/2-x,1/2-y,1/2+z
1/2+x,1/2-y,-z
1/2-x,1/2+y,1/2-z
loop_
_atom_site_type_symbol
_atom_site_label
_atom_site_fract_x
_atom_site_fract_y
_atom_site_fract_z
Si Si1 0.896940 0.559925 0.677391
Si Si2 0.657200 0.000000 0.000000
Si Si3 0.202774 0.159800 0.340638
Si Si4 0.537830 0.502430 0.386069
Si Si5 0.725753 0.193525 0.874525
Si Si6 0.510026 0.000576 0.883884
Si Si7 0.712246 0.000000 0.500000
Si Si8 0.378309 0.570079 0.784931
O O1 0.872636 0.442233 0.587057
O O2 0.944611 0.537472 0.655362
O O3 0.884322 0.847348 0.703854
O O4 0.885074 0.360276 0.758038
O O5 0.688457 0.189974 0.948406
O O6 0.210565 0.271536 0.234247
O O7 0.187067 0.313637 0.432803
O O8 0.167627 0.955853 0.322451
O O9 0.247155 0.059301 0.372829
O O10 0.536141 0.500000 0.500000
O O11 0.517179 0.761745 0.354191
O O12 0.584450 0.492327 0.354573
O O13 0.511847 0.258835 0.354421
O O14 0.758389 0.385045 0.917976
O O15 0.512953 0.000000 0.000000
#
# Coordination Sequence:
#
# PCOD9319536 Si02
#       8
#     8   4   8   8   8   8   4   8
#     4  12  27  46  74 109 147 185 240 310 369 440
#     4  12  26  48  70 113 140 194 241 312 384 436
#     4  12  27  47  73 107 150 191 256 307 369 454
#     4  10  23  45  71 100 146 192 237 295 359 441
#     4  12  26  46  74 105 146 192 244 311 374 447
#     4  10  21  44  72 104 142 190 239 290 368 439
#     4  12  26  46  78 103 138 206 239 306 378 436
#     4  12  29  45  71 111 145 191 243 308 357 435
#
# _framework density 23.021218000000001
#
# number of rings (size 3 to 8) (size 9 to 14) (size 15 to 20)
#    0.000    0.571    5.000    1.714    6.000    5.143 
#    3.857    0.000    0.000    0.000    0.000    0.000 
#    0.000    0.000    0.000    0.000    0.000    0.000 
#
# Total GULP energy -156397.527848 kJ/mol
# GULP energy per Si atom -5585.625995 kJ/mol
# Density = 2.296882 g / cm^3
# Si number density = 23.021218 Si / 1000 Ang^3
#
#
#
# Elastic Constant Matrix: (Units=GPa)
#
#
# Indices 1 2 3 4 5 6 
#
# 1 91.7307 -2.6580 10.3917 0.0000 0.0000 0.0000
# 2 -2.6580 69.1671 6.0735 0.0000 0.0000 0.0000
# 3 10.3917 6.0735 82.6183 0.0000 0.0000 0.0000
# 4 0.0000 0.0000 0.0000 11.2061 0.0000 0.0000
# 5 0.0000 0.0000 0.0000 0.0000 -8.3975 0.0000
# 6 0.0000 0.0000 0.0000 0.0000 0.0000 223.2389
#
#
#
# Elastic Compliance Matrix: (Units=1/GPa)
#
#
# Indices 1 2 3 4 5 6 
#
# 1 0.011080 0.000552 -0.001434 0.000000 0.000000 0.000000
# 2 0.000552 0.014579 -0.001141 0.000000 0.000000 0.000000
# 3 -0.001434 -0.001141 0.012368 0.000000 0.000000 0.000000
# 4 0.000000 0.000000 0.000000 0.089237 0.000000 0.000000
# 5 0.000000 0.000000 0.000000 0.000000 -0.119083 0.000000
# 6 0.000000 0.000000 0.000000 0.000000 0.000000 0.004480
#
#
# Mechanical properties :
#
#
# Convention : Reuss Voigt Hill
#
# Bulk Modulus (GPa) = 29.42909 30.12562 29.77736
# Shear Modulus (GPa) = 178.35294 60.52343 119.43819
#
# Velocity S-wave (km/s) = 8.81144 5.13297 7.21072
# Velocity P-wave (km/s) = 10.78579 6.94581 9.07131
#
# Compressibility (1/GPa) = 0.03397998
#
# Stress axis : x y z
#
# Youngs Moduli (GPa) = 90.25327 68.59107 80.85296
#
# Poissons Ratio (x) = -0.03784 0.11596
# Poissons Ratio (y) = -0.04980 0.09227
# Poissons Ratio (z) = 0.12944 0.07827
#
# Static dielectric constant tensor:
#      x y z
#    x 1.809990 0.000000 0.000000 
#    y 0.000000 2.063200 0.000000 
#    z 0.000000 0.000000 1.774110 
# 
# From -- ./inp_files/18016.got.cif
#   From: 2010.05.17/outbox.cif.g08.bks.cpg/sg20_10_cif.got.tgz:18016.got - 2010.06.03 22:52:26.
