data_PCOD9319771
_publ_section_title
;
Structure prediction by ZEFSAII (Michael W. Deem and Ramdas Pophale) SiO2 
 PCOD9319771
Probable space group: C 2 2 21
;
_chemical_formula_sum "Si O2"
_cell_formula_units_Z 60
_cell_length_a 18.612969
_cell_length_b 5.403067
_cell_length_c 29.464811
_cell_angle_alpha 90.000000
_cell_angle_beta 90.000000
_cell_angle_gamma 90.000000
_cell_volume 2963.191142
_symmetry_space_group_name_H-M "C 2 2 21"
_symmetry_group_IT_number 20
_symmetry_cell_setting 'orthorhombic'
loop_
_space_group_symop_operation_xyz
x,y,z
-x,-y,1/2+z
x,-y,-z
-x,y,1/2-z
1/2+x,1/2+y,z
1/2-x,1/2-y,1/2+z
1/2+x,1/2-y,-z
1/2-x,1/2+y,1/2-z
loop_
_atom_site_type_symbol
_atom_site_label
_atom_site_fract_x
_atom_site_fract_y
_atom_site_fract_z
Si Si1 0.813990 0.718466 0.584051
Si Si2 0.057008 0.990088 0.126433
Si Si3 0.600662 0.000000 0.000000
Si Si4 0.790016 0.959592 0.264670
Si Si5 0.321269 0.759739 0.970893
Si Si6 0.071911 0.239345 0.222248
Si Si7 0.149363 0.374150 0.834730
Si Si8 0.519537 0.670250 0.543914
O O1 0.849040 0.639934 0.535772
O O2 0.732502 0.766926 0.571214
O O3 0.813551 0.523604 0.625288
O O4 0.869449 0.923676 0.601970
O O5 0.074919 0.716392 0.143220
O O6 0.996006 0.986463 0.088979
O O7 0.047504 0.138060 0.172828
O O8 0.547455 0.846821 0.967144
O O9 0.756546 0.715462 0.239413
O O10 0.802174 0.849401 0.315437
O O11 0.872451 0.046575 0.253625
O O12 0.403148 0.794924 0.954599
O O13 0.315890 0.500000 0.000000
O O14 0.301568 0.000000 0.000000
O O15 0.123175 0.466834 0.208292
O O16 0.000000 0.293105 0.250000
O O17 0.521738 0.500000 0.500000
#
# Coordination Sequence:
#
# PCOD9319771 Si02
#       8
#     8   8   4   8   8   8   8   8
#     4  11  23  38  66  96 133 178 230 277 326 400
#     4  10  22  39  66  96 130 175 231 272 337 405
#     4  12  20  36  66  92 122 188 228 262 326 398
#     4  11  22  45  72  99 134 176 223 275 348 418
#     4  11  26  42  61  93 134 177 225 278 329 385
#     4  10  23  45  72  98 135 174 228 291 350 414
#     4  10  22  41  68 101 135 171 225 288 335 415
#     4  11  22  40  61  92 135 176 218 274 331 392
#
# _framework density 20.248441
#
# number of rings (size 3 to 8) (size 9 to 14) (size 15 to 20)
#    0.000    1.333    5.333    0.000    3.733    2.133 
#    2.400    0.000    0.000    0.000    0.000    0.000 
#    0.000    0.000    0.000    0.000    0.000    0.000 
#
# Total GULP energy -167034.008153 kJ/mol
# GULP energy per Si atom -5567.800272 kJ/mol
# Density = 2.020235 g / cm^3
# Si number density = 20.248441 Si / 1000 Ang^3
#
#
#
# Elastic Constant Matrix: (Units=GPa)
#
#
# Indices 1 2 3 4 5 6 
#
# 1 65.4418 14.0386 51.0377 0.0000 0.0000 0.0000
# 2 14.0386 72.6099 34.6539 0.0000 0.0000 0.0000
# 3 51.0377 34.6539 91.0903 0.0000 0.0000 0.0000
# 4 0.0000 0.0000 0.0000 33.7643 0.0000 0.0000
# 5 0.0000 0.0000 0.0000 0.0000 33.7500 0.0000
# 6 0.0000 0.0000 0.0000 0.0000 0.0000 -15.0799
#
#
#
# Elastic Compliance Matrix: (Units=1/GPa)
#
#
# Indices 1 2 3 4 5 6 
#
# 1 0.027504 0.002489 -0.016357 0.000000 0.000000 0.000000
# 2 0.002489 0.017053 -0.007882 0.000000 0.000000 0.000000
# 3 -0.016357 -0.007882 0.023142 0.000000 0.000000 0.000000
# 4 0.000000 0.000000 0.000000 0.029617 0.000000 0.000000
# 5 0.000000 0.000000 0.000000 0.000000 0.029630 0.000000
# 6 0.000000 0.000000 0.000000 0.000000 0.000000 -0.066314
#
#
# Mechanical properties :
#
#
# Convention : Reuss Voigt Hill
#
# Bulk Modulus (GPa) = 41.32630 47.62248 44.47439
# Shear Modulus (GPa) = 44.56422 19.11434 31.83928
#
# Velocity S-wave (km/s) = 4.69643 3.07578 3.96969
# Velocity P-wave (km/s) = 7.06134 6.01531 6.55921
#
# Compressibility (1/GPa) = 0.02419766
#
# Stress axis : x y z
#
# Youngs Moduli (GPa) = 36.35876 58.64140 43.21216
#
# Poissons Ratio (x) = -0.14596 0.70683
# Poissons Ratio (y) = -0.09050 0.34060
# Poissons Ratio (z) = 0.59473 0.46222
#
# Static dielectric constant tensor:
#      x y z
#    x 1.732480 0.000000 0.000000 
#    y 0.000000 1.815780 0.000000 
#    z 0.000000 0.000000 1.756070 
# 
# From -- ./inp_files/31354.got.cif
#   From: 2010.05.17/outbox.cif.g08.bks.cpg/sg20_16_cif.got.tgz:31354.got - 2010.06.03 22:52:26.
