data_PCOD9319244
_publ_section_title
;
Structure prediction by ZEFSAII (Michael W. Deem and Ramdas Pophale) SiO2 
 PCOD9319244
Probable space group: C 2 2 21
;
_chemical_formula_sum "Si O2"
_cell_formula_units_Z 40
_cell_length_a 8.327440
_cell_length_b 20.147860
_cell_length_c 10.771575
_cell_angle_alpha 90.000000
_cell_angle_beta 90.000000
_cell_angle_gamma 90.000000
_cell_volume 1807.255880
_symmetry_space_group_name_H-M "C 2 2 21"
_symmetry_group_IT_number 20
_symmetry_cell_setting 'orthorhombic'
loop_
_space_group_symop_operation_xyz
x,y,z
-x,-y,1/2+z
x,-y,-z
-x,y,1/2-z
1/2+x,1/2+y,z
1/2-x,1/2-y,1/2+z
1/2+x,1/2-y,-z
1/2-x,1/2+y,1/2-z
loop_
_atom_site_type_symbol
_atom_site_label
_atom_site_fract_x
_atom_site_fract_y
_atom_site_fract_z
Si Si1 0.545465 0.952432 0.883532
Si Si2 0.887720 0.011782 0.135678
Si Si3 0.335326 0.159204 0.002671
Si Si4 0.908475 0.253202 0.374226
Si Si5 0.687699 0.367762 0.261625
O O1 0.500000 0.981812 0.750000
O O2 0.736578 0.939573 0.880753
O O3 0.431489 0.890578 0.909782
O O4 0.518610 0.000000 0.000000
O O5 0.000000 0.031642 0.250000
O O6 0.815483 0.939894 0.174820
O O7 0.966909 0.000000 0.000000
O O8 0.460102 0.216778 0.966175
O O9 0.271591 0.127862 0.873524
O O10 0.185841 0.192299 0.069371
O O11 0.787751 0.313345 0.337774
O O12 0.000000 0.233170 0.250000
O O13 0.500000 0.348041 0.250000
#
# Coordination Sequence:
#
# PCOD9319244 Si02
#       5
#     8   8   8   8   8
#     4  11  24  42  66  95 131 173 221 270 325 390
#     4  10  22  41  66  96 130 171 219 270 328 391
#     4  11  23  41  67  97 132 173 217 269 324 388
#     4  10  22  40  65  97 132 171 216 264 324 391
#     4  10  21  40  68  97 132 172 214 267 330 394
#
# _framework density 22.133002999999999
#
# number of rings (size 3 to 8) (size 9 to 14) (size 15 to 20)
#    0.000    1.600    0.000    4.800    0.000    9.600 
#    0.000   11.000    0.000    1.200    0.000    0.000 
#    0.000    0.000    0.000    0.000    0.000    0.000 
#
# Total GULP energy -111890.638366 kJ/mol
# GULP energy per Si atom -5594.531918 kJ/mol
# Density = 2.208263 g / cm^3
# Si number density = 22.133003 Si / 1000 Ang^3
#
#
#
# Elastic Constant Matrix: (Units=GPa)
#
#
# Indices 1 2 3 4 5 6 
#
# 1 92.3219 20.1075 58.5854 0.0000 0.0000 0.0000
# 2 20.1075 52.6239 48.8610 0.0000 0.0000 0.0000
# 3 58.5854 48.8610 135.5385 0.0000 0.0000 0.0000
# 4 0.0000 0.0000 0.0000 9.9040 0.0000 0.0000
# 5 0.0000 0.0000 0.0000 0.0000 36.0704 0.0000
# 6 0.0000 0.0000 0.0000 0.0000 0.0000 19.1769
#
#
#
# Elastic Compliance Matrix: (Units=1/GPa)
#
#
# Indices 1 2 3 4 5 6 
#
# 1 0.014932 0.000432 -0.006610 0.000000 0.000000 0.000000
# 2 0.000432 0.028576 -0.010488 0.000000 0.000000 0.000000
# 3 -0.006610 -0.010488 0.014016 0.000000 0.000000 0.000000
# 4 0.000000 0.000000 0.000000 0.100970 0.000000 0.000000
# 5 0.000000 0.000000 0.000000 0.000000 0.027724 0.000000
# 6 0.000000 0.000000 0.000000 0.000000 0.000000 0.052146
#
#
# Mechanical properties :
#
#
# Convention : Reuss Voigt Hill
#
# Bulk Modulus (GPa) = 41.33688 59.51024 50.42356
# Shear Modulus (GPa) = 17.87248 23.22563 20.54906
#
# Velocity S-wave (km/s) = 2.84474 3.24291 3.05033
# Velocity P-wave (km/s) = 5.43205 6.40061 5.93612
#
# Compressibility (1/GPa) = 0.02419147
#
# Stress axis : x y z
#
# Youngs Moduli (GPa) = 66.96958 34.99445 71.34707
#
# Poissons Ratio (x) = -0.01511 0.47160
# Poissons Ratio (y) = -0.02891 0.74830
# Poissons Ratio (z) = 0.44267 0.36703
#
# Static dielectric constant tensor:
#      x y z
#    x 1.824600 0.000000 0.000000 
#    y 0.000000 1.795610 0.000000 
#    z 0.000000 0.000000 1.792820 
# 
# From -- ./inp_files/12680.got.cif
#   From: 2010.05.17/outbox.cif.g08.bks.cpg/sg20_7_cif.got.tgz:12680.got - 2010.06.03 22:52:26.
