data_PCOD9319571
_publ_section_title
;
Structure prediction by ZEFSAII (Michael W. Deem and Ramdas Pophale) SiO2 
 PCOD9319571
Probable space group: C 2 2 21
;
_chemical_formula_sum "Si O2"
_cell_formula_units_Z 64
_cell_length_a 12.680634
_cell_length_b 9.717455
_cell_length_c 21.143045
_cell_angle_alpha 90.000000
_cell_angle_beta 90.000000
_cell_angle_gamma 90.000000
_cell_volume 2605.319800
_symmetry_space_group_name_H-M "C 2 2 21"
_symmetry_group_IT_number 20
_symmetry_cell_setting 'orthorhombic'
loop_
_space_group_symop_operation_xyz
x,y,z
-x,-y,1/2+z
x,-y,-z
-x,y,1/2-z
1/2+x,1/2+y,z
1/2-x,1/2-y,1/2+z
1/2+x,1/2-y,-z
1/2-x,1/2+y,1/2-z
loop_
_atom_site_type_symbol
_atom_site_label
_atom_site_fract_x
_atom_site_fract_y
_atom_site_fract_z
Si Si1 0.071777 0.763281 0.527632
Si Si2 0.114344 0.587701 0.915112
Si Si3 0.175456 0.739590 0.712872
Si Si4 0.722806 0.805499 0.920382
Si Si5 0.558448 0.541843 0.347615
Si Si6 0.444529 0.586612 0.561246
Si Si7 0.450238 0.038316 0.184555
Si Si8 0.704908 0.274174 0.344405
O O1 0.192325 0.723898 0.535972
O O2 0.979073 0.653620 0.541446
O O3 0.055351 0.851646 0.464859
O O4 0.081743 0.850718 0.706525
O O5 0.191302 0.462365 0.935310
O O6 0.196606 0.704726 0.892189
O O7 0.045153 0.523445 0.857574
O O8 0.245394 0.784202 0.652611
O O9 0.125355 0.589826 0.702456
O O10 0.239542 0.749148 0.776705
O O11 0.618838 0.723026 0.931372
O O12 0.930406 0.871288 0.913365
O O13 0.447463 0.477499 0.368485
O O14 0.639695 0.416965 0.340145
O O15 0.406996 0.500000 0.500000
O O16 0.500000 0.095085 0.250000
O O17 0.379209 0.150660 0.148188
#
# Coordination Sequence:
#
# PCOD9319571 Si02
#       8
#     8   8   8   8   8   8   8   8
#     4  10  23  46  72 107 143 185 254 309 375 450
#     4  12  23  45  72 105 148 190 244 306 381 437
#     4  11  22  44  68 100 153 194 237 305 365 441
#     4  11  23  47  72 104 153 188 249 317 368 454
#     4  10  21  46  68  98 144 191 242 305 364 444
#     4  10  24  46  73 103 143 192 252 312 382 443
#     4  12  24  42  66 105 147 188 249 305 352 457
#     4  12  24  41  75 108 145 201 245 293 384 445
#
# _framework density 24.565121000000001
#
# number of rings (size 3 to 8) (size 9 to 14) (size 15 to 20)
#    0.000    1.000    6.250    2.250    0.000    3.500 
#    6.750    3.125    0.000    0.000    0.000    0.000 
#    0.000    0.000    0.000    0.000    0.000    0.000 
#
# Total GULP energy -178555.404795 kJ/mol
# GULP energy per Si atom -5579.856400 kJ/mol
# Density = 2.450921 g / cm^3
# Si number density = 24.565121 Si / 1000 Ang^3
#
#
#
# Elastic Constant Matrix: (Units=GPa)
#
#
# Indices 1 2 3 4 5 6 
#
# 1 80.5870 37.6656 37.9922 0.0000 0.0000 0.0000
# 2 37.6656 101.3125 27.0772 0.0000 0.0000 0.0000
# 3 37.9922 27.0772 79.6196 0.0000 0.0000 0.0000
# 4 0.0000 0.0000 0.0000 15.0522 0.0000 0.0000
# 5 0.0000 0.0000 0.0000 0.0000 22.0255 0.0000
# 6 0.0000 0.0000 0.0000 0.0000 0.0000 46.2775
#
#
#
# Elastic Compliance Matrix: (Units=1/GPa)
#
#
# Indices 1 2 3 4 5 6 
#
# 1 0.017918 -0.004814 -0.006913 0.000000 0.000000 0.000000
# 2 -0.004814 0.012151 -0.001835 0.000000 0.000000 0.000000
# 3 -0.006913 -0.001835 0.016482 0.000000 0.000000 0.000000
# 4 0.000000 0.000000 0.000000 0.066435 0.000000 0.000000
# 5 0.000000 0.000000 0.000000 0.000000 0.045402 0.000000
# 6 0.000000 0.000000 0.000000 0.000000 0.000000 0.021609
#
#
# Mechanical properties :
#
#
# Convention : Reuss Voigt Hill
#
# Bulk Modulus (GPa) = 51.47412 51.88768 51.68090
# Shear Modulus (GPa) = 23.40862 27.25665 25.33264
#
# Velocity S-wave (km/s) = 3.09029 3.33463 3.21478
# Velocity P-wave (km/s) = 5.80800 5.99956 5.90455
#
# Compressibility (1/GPa) = 0.01942724
#
# Stress axis : x y z
#
# Youngs Moduli (GPa) = 55.81011 82.30037 60.67079
#
# Poissons Ratio (x) = 0.39619 0.41940
# Poissons Ratio (y) = 0.26867 0.11134
# Poissons Ratio (z) = 0.38580 0.15103
#
# Static dielectric constant tensor:
#      x y z
#    x 2.291710 0.000000 0.000000 
#    y 0.000000 2.024130 0.000000 
#    z 0.000000 0.000000 2.123000 
# 
# From -- ./inp_files/29356.got.cif
#   From: 2010.05.17/outbox.cif.g08.bks.cpg/sg20_15_cif.got.tgz:29356.got - 2010.06.03 22:52:26.
