data_PCOD9319488
_publ_section_title
;
Structure prediction by ZEFSAII (Michael W. Deem and Ramdas Pophale) SiO2 
 PCOD9319488
Probable space group: C 2 2 21
;
_chemical_formula_sum "Si O2"
_cell_formula_units_Z 64
_cell_length_a 12.346097
_cell_length_b 8.926498
_cell_length_c 25.546009
_cell_angle_alpha 90.000000
_cell_angle_beta 90.000000
_cell_angle_gamma 90.000000
_cell_volume 2815.359492
_symmetry_space_group_name_H-M "C 2 2 21"
_symmetry_group_IT_number 20
_symmetry_cell_setting 'orthorhombic'
loop_
_space_group_symop_operation_xyz
x,y,z
-x,-y,1/2+z
x,-y,-z
-x,y,1/2-z
1/2+x,1/2+y,z
1/2-x,1/2-y,1/2+z
1/2+x,1/2-y,-z
1/2-x,1/2+y,1/2-z
loop_
_atom_site_type_symbol
_atom_site_label
_atom_site_fract_x
_atom_site_fract_y
_atom_site_fract_z
Si Si1 0.744691 0.617514 0.213935
Si Si2 0.823089 0.887498 0.598604
Si Si3 0.565276 0.638061 0.386499
Si Si4 0.721748 0.713081 0.930674
Si Si5 0.691965 0.867151 0.033316
Si Si6 0.895520 0.451138 0.625885
Si Si7 0.813106 0.055274 0.810267
Si Si8 0.059683 0.408306 0.304883
O O1 0.676693 0.619685 0.161011
O O2 0.808387 0.776905 0.213524
O O3 0.677839 0.572074 0.265147
O O4 0.824760 0.476551 0.208058
O O5 0.757968 0.745820 0.575419
O O6 0.950675 0.878615 0.584495
O O7 0.769381 0.038274 0.578372
O O8 0.663822 0.701600 0.422067
O O9 0.601793 0.487561 0.355861
O O10 0.555654 0.765070 0.341880
O O11 0.643378 0.785238 0.887197
O O12 0.667764 0.752651 0.986238
O O13 0.607066 0.957907 0.070378
O O14 0.747744 0.000000 0.000000
O O15 0.803134 0.524388 0.662393
O O16 0.002501 0.465847 0.659010
O O17 0.000000 0.384463 0.250000
#
# Coordination Sequence:
#
# PCOD9319488 Si02
#       8
#     8   8   8   8   8   8   8   8
#     4  12  25  41  69  97 140 188 235 285 362 427
#     4  12  24  44  70 103 142 181 232 303 355 426
#     4  11  25  43  69 101 143 182 237 292 360 435
#     4  10  24  44  70 100 135 180 236 299 357 423
#     4  10  21  44  72  94 131 186 221 291 364 419
#     4  10  21  43  68  91 139 177 226 285 358 423
#     4  11  24  42  62 100 136 183 228 288 348 429
#     4  12  23  41  67 101 135 188 233 284 358 443
#
# _framework density 22.732443
#
# number of rings (size 3 to 8) (size 9 to 14) (size 15 to 20)
#    0.000    1.000    5.000    1.125    5.250    0.000 
#    0.000   10.000    0.000    0.000    0.000    0.000 
#    0.000    0.000    0.000    0.000    0.000    0.000 
#
# Total GULP energy -178459.876074 kJ/mol
# GULP energy per Si atom -5576.871127 kJ/mol
# Density = 2.268070 g / cm^3
# Si number density = 22.732443 Si / 1000 Ang^3
#
#
#
# Elastic Constant Matrix: (Units=GPa)
#
#
# Indices 1 2 3 4 5 6 
#
# 1 43.7267 -10.7330 21.8430 0.0000 0.0000 0.0000
# 2 -10.7330 105.7409 26.6752 0.0000 0.0000 0.0000
# 3 21.8430 26.6752 113.4170 0.0000 0.0000 0.0000
# 4 0.0000 0.0000 0.0000 33.4283 0.0000 0.0000
# 5 0.0000 0.0000 0.0000 0.0000 15.3882 0.0000
# 6 0.0000 0.0000 0.0000 0.0000 0.0000 16.9872
#
#
#
# Elastic Compliance Matrix: (Units=1/GPa)
#
#
# Indices 1 2 3 4 5 6 
#
# 1 0.027036 0.004314 -0.006221 0.000000 0.000000 0.000000
# 2 0.004314 0.010742 -0.003357 0.000000 0.000000 0.000000
# 3 -0.006221 -0.003357 0.010805 0.000000 0.000000 0.000000
# 4 0.000000 0.000000 0.000000 0.029915 0.000000 0.000000
# 5 0.000000 0.000000 0.000000 0.000000 0.064985 0.000000
# 6 0.000000 0.000000 0.000000 0.000000 0.000000 0.058868
#
#
# Mechanical properties :
#
#
# Convention : Reuss Voigt Hill
#
# Bulk Modulus (GPa) = 26.27933 37.60612 31.94273
# Shear Modulus (GPa) = 22.16665 28.16737 25.16701
#
# Velocity S-wave (km/s) = 3.12606 3.52388 3.33092
# Velocity P-wave (km/s) = 4.96136 5.75637 5.37359
#
# Compressibility (1/GPa) = 0.03805272
#
# Stress axis : x y z
#
# Youngs Moduli (GPa) = 36.98780 93.09384 92.55145
#
# Poissons Ratio (x) = -0.40158 0.57580
# Poissons Ratio (y) = -0.15955 0.31071
# Poissons Ratio (z) = 0.23012 0.31254
#
# Static dielectric constant tensor:
#      x y z
#    x 1.840120 0.000000 0.000000 
#    y 0.000000 1.886180 0.000000 
#    z 0.000000 0.000000 1.872850 
# 
# From -- ./inp_files/29362.got.cif
#   From: 2010.05.17/outbox.cif.g08.bks.cpg/sg20_15_cif.got.tgz:29362.got - 2010.06.03 22:52:26.
