data_PCOD9319258
_publ_section_title
;
Structure prediction by ZEFSAII (Michael W. Deem and Ramdas Pophale) SiO2 
 PCOD9319258
Probable space group: C 2 2 21
;
_chemical_formula_sum "Si O2"
_cell_formula_units_Z 64
_cell_length_a 16.886811
_cell_length_b 15.840635
_cell_length_c 10.941170
_cell_angle_alpha 90.000000
_cell_angle_beta 90.000000
_cell_angle_gamma 90.000000
_cell_volume 2926.739007
_symmetry_space_group_name_H-M "C 2 2 21"
_symmetry_group_IT_number 20
_symmetry_cell_setting 'orthorhombic'
loop_
_space_group_symop_operation_xyz
x,y,z
-x,-y,1/2+z
x,-y,-z
-x,y,1/2-z
1/2+x,1/2+y,z
1/2-x,1/2-y,1/2+z
1/2+x,1/2-y,-z
1/2-x,1/2+y,1/2-z
loop_
_atom_site_type_symbol
_atom_site_label
_atom_site_fract_x
_atom_site_fract_y
_atom_site_fract_z
Si Si1 0.651088 0.264798 0.065624
Si Si2 0.223891 0.410079 0.470907
Si Si3 0.995976 0.772154 0.898276
Si Si4 0.295834 0.179896 0.659943
Si Si5 0.773015 0.002091 0.859933
Si Si6 0.073485 0.391652 0.318989
Si Si7 0.546589 0.547443 0.380049
Si Si8 0.701647 0.161429 0.269604
O O1 0.636801 0.213256 0.190873
O O2 0.707553 0.346644 0.075782
O O3 0.574148 0.282735 0.982077
O O4 0.702191 0.200201 0.982727
O O5 0.262736 0.500000 0.500000
O O6 0.147621 0.432852 0.387282
O O7 0.188385 0.363562 0.590320
O O8 0.959324 0.679305 0.911987
O O9 0.944546 0.855305 0.923725
O O10 0.000000 0.778340 0.750000
O O11 0.244824 0.096816 0.683392
O O12 0.382158 0.156055 0.708182
O O13 0.270234 0.266644 0.724802
O O14 0.866353 0.987504 0.855249
O O15 0.729758 0.925736 0.790944
O O16 0.745811 0.000000 0.000000
O O17 0.000000 0.437029 0.250000
O O18 0.511611 0.500000 0.500000
O O19 0.500000 0.541043 0.250000
#
# Coordination Sequence:
#
# PCOD9319258 Si02
#       8
#     8   8   8   8   8   8   8   8
#     4  11  22  41  71 107 137 190 242 303 361 441
#     4  11  26  44  68 109 147 188 246 305 366 447
#     4  10  21  40  70  98 135 190 240 284 371 447
#     4  11  21  40  67 102 133 184 242 298 354 438
#     4  11  23  41  69  98 138 187 248 296 357 450
#     4  11  21  43  71  95 132 186 243 283 366 435
#     4  10  24  40  61  97 140 187 237 294 373 452
#     4  11  24  40  68 106 145 178 248 303 365 420
#
# _framework density 21.867341
#
# number of rings (size 3 to 8) (size 9 to 14) (size 15 to 20)
#    0.000    1.250    5.000    1.500    5.250    2.500 
#    0.000    3.750    0.000    0.000    0.000    0.000 
#    0.000    0.000    0.000    0.000    0.000    0.000 
#
# Total GULP energy -178180.803730 kJ/mol
# GULP energy per Si atom -5568.150117 kJ/mol
# Density = 2.181757 g / cm^3
# Si number density = 21.867341 Si / 1000 Ang^3
#
#
#
# Elastic Constant Matrix: (Units=GPa)
#
#
# Indices 1 2 3 4 5 6 
#
# 1 76.1763 32.3974 16.5370 0.0000 0.0000 0.0000
# 2 32.3974 116.3481 17.1837 0.0000 0.0000 0.0000
# 3 16.5370 17.1837 88.2339 0.0000 0.0000 0.0000
# 4 0.0000 0.0000 0.0000 36.9331 0.0000 0.0000
# 5 0.0000 0.0000 0.0000 0.0000 31.2717 0.0000
# 6 0.0000 0.0000 0.0000 0.0000 0.0000 12.2756
#
#
#
# Elastic Compliance Matrix: (Units=1/GPa)
#
#
# Indices 1 2 3 4 5 6 
#
# 1 0.015257 -0.003939 -0.002092 0.000000 0.000000 0.000000
# 2 -0.003939 0.009867 -0.001183 0.000000 0.000000 0.000000
# 3 -0.002092 -0.001183 0.011956 0.000000 0.000000 0.000000
# 4 0.000000 0.000000 0.000000 0.027076 0.000000 0.000000
# 5 0.000000 0.000000 0.000000 0.000000 0.031978 0.000000
# 6 0.000000 0.000000 0.000000 0.000000 0.000000 0.081462
#
#
# Mechanical properties :
#
#
# Convention : Reuss Voigt Hill
#
# Bulk Modulus (GPa) = 44.15016 45.88827 45.01922
# Shear Modulus (GPa) = 25.05316 30.40543 27.72929
#
# Velocity S-wave (km/s) = 3.38847 3.73292 3.56486
# Velocity P-wave (km/s) = 5.96178 6.29365 6.12996
#
# Compressibility (1/GPa) = 0.02264997
#
# Stress axis : x y z
#
# Youngs Moduli (GPa) = 65.54347 101.35240 83.63936
#
# Poissons Ratio (x) = 0.39926 0.17500
# Poissons Ratio (y) = 0.25820 0.09896
# Poissons Ratio (z) = 0.13714 0.11992
#
# Static dielectric constant tensor:
#      x y z
#    x 1.794120 0.000000 0.000000 
#    y 0.000000 1.820760 0.000000 
#    z 0.000000 0.000000 1.905550 
# 
# From -- ./inp_files/15906.got.cif
#   From: 2010.05.17/outbox.cif.g08.bks.cpg/sg20_8_cif.got.tgz:15906.got - 2010.06.03 22:52:26.
