data_PCOD9319566
_publ_section_title
;
Structure prediction by ZEFSAII (Michael W. Deem and Ramdas Pophale) SiO2 
 PCOD9319566
Probable space group: C 2 2 21
;
_chemical_formula_sum "Si O2"
_cell_formula_units_Z 52
_cell_length_a 7.136456
_cell_length_b 12.108555
_cell_length_c 23.522024
_cell_angle_alpha 90.000000
_cell_angle_beta 90.000000
_cell_angle_gamma 90.000000
_cell_volume 2032.589136
_symmetry_space_group_name_H-M "C 2 2 21"
_symmetry_group_IT_number 20
_symmetry_cell_setting 'orthorhombic'
loop_
_space_group_symop_operation_xyz
x,y,z
-x,-y,1/2+z
x,-y,-z
-x,y,1/2-z
1/2+x,1/2+y,z
1/2-x,1/2-y,1/2+z
1/2+x,1/2-y,-z
1/2-x,1/2+y,1/2-z
loop_
_atom_site_type_symbol
_atom_site_label
_atom_site_fract_x
_atom_site_fract_y
_atom_site_fract_z
Si Si1 0.138132 0.270128 0.203489
Si Si2 0.000000 0.896915 0.250000
Si Si3 0.558718 0.947450 0.119128
Si Si4 0.469111 0.592846 0.034591
Si Si5 0.337515 0.825347 0.020263
Si Si6 0.567904 0.191938 0.386616
Si Si7 0.497079 0.564208 0.628550
O O1 0.317238 0.323897 0.235702
O O2 0.017264 0.366625 0.172070
O O3 0.243315 0.208458 0.151357
O O4 0.000000 0.217059 0.250000
O O5 0.962930 0.966029 0.306562
O O6 0.517969 0.075023 0.130862
O O7 0.454640 0.903045 0.062630
O O8 0.781797 0.935827 0.114222
O O9 0.353064 0.702192 0.046060
O O10 0.631074 0.629485 0.991052
O O11 0.567404 0.532749 0.087284
O O12 0.403446 0.815155 0.954610
O O13 0.855524 0.000000 0.000000
O O14 0.449064 0.305193 0.375663
#
# Coordination Sequence:
#
# PCOD9319566 Si02
#       7
#     8   4   8   8   8   8   8
#     4  10  23  48  81 111 160 205 267 324 397 474
#     4   8  20  46  82 112 150 200 262 324 392 474
#     4  10  23  45  78 111 156 205 254 327 396 469
#     4  12  26  43  71 111 156 199 252 320 381 470
#     4  12  26  45  74 108 156 206 255 314 396 470
#     4  10  21  45  74 115 148 200 262 315 390 467
#     4  10  23  46  79 112 158 199 260 324 397 462
#
# _framework density 25.583134000000001
#
# number of rings (size 3 to 8) (size 9 to 14) (size 15 to 20)
#    0.000    1.846    1.538    3.231    2.154    2.462 
#    5.538    3.077   35.538    0.000    0.000    0.000 
#    0.000    0.000    0.000    0.000    0.000    0.000 
#
# Total GULP energy -145327.260203 kJ/mol
# GULP energy per Si atom -5589.510008 kJ/mol
# Density = 2.552491 g / cm^3
# Si number density = 25.583134 Si / 1000 Ang^3
#
#
#
# Elastic Constant Matrix: (Units=GPa)
#
#
# Indices 1 2 3 4 5 6 
#
# 1 99.0558 42.5886 47.1522 0.0000 0.0000 0.0000
# 2 42.5886 197.4155 80.1229 0.0000 0.0000 0.0000
# 3 47.1522 80.1229 172.6742 0.0000 0.0000 0.0000
# 4 0.0000 0.0000 0.0000 31.3638 0.0000 0.0000
# 5 0.0000 0.0000 0.0000 0.0000 39.0026 0.0000
# 6 0.0000 0.0000 0.0000 0.0000 0.0000 18.3402
#
#
#
# Elastic Compliance Matrix: (Units=1/GPa)
#
#
# Indices 1 2 3 4 5 6 
#
# 1 0.011976 -0.001548 -0.002552 0.000000 0.000000 0.000000
# 2 -0.001548 0.006441 -0.002566 0.000000 0.000000 0.000000
# 3 -0.002552 -0.002566 0.007679 0.000000 0.000000 0.000000
# 4 0.000000 0.000000 0.000000 0.031884 0.000000 0.000000
# 5 0.000000 0.000000 0.000000 0.000000 0.025639 0.000000
# 6 0.000000 0.000000 0.000000 0.000000 0.000000 0.054525
#
#
# Mechanical properties :
#
#
# Convention : Reuss Voigt Hill
#
# Bulk Modulus (GPa) = 78.34717 89.87475 84.11096
# Shear Modulus (GPa) = 32.10704 37.69346 34.90025
#
# Velocity S-wave (km/s) = 3.54645 3.84262 3.69750
# Velocity P-wave (km/s) = 6.88918 7.40907 7.15385
#
# Compressibility (1/GPa) = 0.01276370
#
# Stress axis : x y z
#
# Youngs Moduli (GPa) = 83.50346 155.26096 130.22939
#
# Poissons Ratio (x) = 0.24030 0.33234
# Poissons Ratio (y) = 0.12924 0.33416
# Poissons Ratio (z) = 0.21310 0.39839
#
# Static dielectric constant tensor:
#      x y z
#    x 2.079130 0.000000 0.000000 
#    y 0.000000 2.098600 0.000000 
#    z 0.000000 0.000000 2.140350 
# 
# From -- ./inp_files/30113.got.cif
#   From: 2010.05.17/outbox.cif.g08.bks.cpg/sg20_16_cif.got.tgz:30113.got - 2010.06.03 22:52:26.
