data_PCOD9319484
_publ_section_title
;
Structure prediction by ZEFSAII (Michael W. Deem and Ramdas Pophale) SiO2 
 PCOD9319484
Probable space group: C 2 2 21
;
_chemical_formula_sum "Si O2"
_cell_formula_units_Z 48
_cell_length_a 8.573892
_cell_length_b 28.792619
_cell_length_c 9.238466
_cell_angle_alpha 90.000000
_cell_angle_beta 90.000000
_cell_angle_gamma 90.000000
_cell_volume 2280.652114
_symmetry_space_group_name_H-M "C 2 2 21"
_symmetry_group_IT_number 20
_symmetry_cell_setting 'orthorhombic'
loop_
_space_group_symop_operation_xyz
x,y,z
-x,-y,1/2+z
x,-y,-z
-x,y,1/2-z
1/2+x,1/2+y,z
1/2-x,1/2-y,1/2+z
1/2+x,1/2-y,-z
1/2-x,1/2+y,1/2-z
loop_
_atom_site_type_symbol
_atom_site_label
_atom_site_fract_x
_atom_site_fract_y
_atom_site_fract_z
Si Si1 0.786992 0.853310 0.504120
Si Si2 0.619736 0.206998 0.882404
Si Si3 0.591970 0.233579 0.389908
Si Si4 0.000000 0.887362 0.250000
Si Si5 0.975441 0.604188 0.578306
Si Si6 0.500000 0.392950 0.750000
Si Si7 0.821299 0.054627 0.998883
O O1 0.694674 0.806151 0.534721
O O2 0.646453 0.890809 0.490229
O O3 0.886762 0.857967 0.356421
O O4 0.895197 0.862936 0.641346
O O5 0.500000 0.207198 0.750000
O O6 0.792950 0.224532 0.852576
O O7 0.612795 0.154239 0.940228
O O8 0.543105 0.242901 0.995210
O O9 0.500000 0.216116 0.250000
O O10 0.098692 0.919645 0.360757
O O11 0.000000 0.597318 0.750000
O O12 0.861833 0.566143 0.512852
O O13 0.606955 0.423495 0.644087
O O14 0.851032 0.000000 0.000000
#
# Coordination Sequence:
#
# PCOD9319484 Si02
#       7
#     8   8   8   4   8   4   8
#     4  10  23  42  66  95 132 179 214 275 319 392
#     4  10  23  42  63  93 130 176 218 268 321 380
#     4  11  24  41  65  97 135 172 224 277 316 381
#     4  10  21  44  68  94 136 174 222 260 337 404
#     4  10  21  43  67  93 129 170 222 264 324 389
#     4  10  25  40  64 100 132 166 210 270 345 384
#     4  11  23  43  68  98 128 168 216 275 331 401
#
# _framework density 21.046612
#
# number of rings (size 3 to 8) (size 9 to 14) (size 15 to 20)
#    0.000    1.667    1.667    1.500    5.833    2.667 
#    6.000    0.833    0.000    0.000    0.000    0.000 
#    0.000    0.000    0.000    0.000    0.000    0.000 
#
# Total GULP energy -134111.164231 kJ/mol
# GULP energy per Si atom -5587.965176 kJ/mol
# Density = 2.099871 g / cm^3
# Si number density = 21.046612 Si / 1000 Ang^3
#
#
#
# Elastic Constant Matrix: (Units=GPa)
#
#
# Indices 1 2 3 4 5 6 
#
# 1 113.0806 35.8200 54.4661 0.0000 0.0000 0.0000
# 2 35.8200 55.4886 33.3114 0.0000 0.0000 0.0000
# 3 54.4661 33.3114 121.6286 0.0000 0.0000 0.0000
# 4 0.0000 0.0000 0.0000 13.7480 0.0000 0.0000
# 5 0.0000 0.0000 0.0000 0.0000 41.3703 0.0000
# 6 0.0000 0.0000 0.0000 0.0000 0.0000 -6.5820
#
#
#
# Elastic Compliance Matrix: (Units=1/GPa)
#
#
# Indices 1 2 3 4 5 6 
#
# 1 0.012616 -0.005688 -0.004092 0.000000 0.000000 0.000000
# 2 -0.005688 0.024132 -0.004062 0.000000 0.000000 0.000000
# 3 -0.004092 -0.004062 0.011167 0.000000 0.000000 0.000000
# 4 0.000000 0.000000 0.000000 0.072738 0.000000 0.000000
# 5 0.000000 0.000000 0.000000 0.000000 0.024172 0.000000
# 6 0.000000 0.000000 0.000000 0.000000 0.000000 -0.151931
#
#
# Mechanical properties :
#
#
# Convention : Reuss Voigt Hill
#
# Bulk Modulus (GPa) = 49.42862 59.71031 54.56946
# Shear Modulus (GPa) = 183.01604 20.81396 101.91500
#
# Velocity S-wave (km/s) = 9.33522 3.14816 6.96625
# Velocity P-wave (km/s) = 11.82080 6.45342 9.52308
#
# Compressibility (1/GPa) = 0.02023120
#
# Stress axis : x y z
#
# Youngs Moduli (GPa) = 79.26660 41.43882 89.55263
#
# Poissons Ratio (x) = 0.23568 0.36642
# Poissons Ratio (y) = 0.45083 0.36379
# Poissons Ratio (z) = 0.32433 0.16834
#
# Static dielectric constant tensor:
#      x y z
#    x 1.797260 0.000000 0.000000 
#    y 0.000000 1.746100 0.000000 
#    z 0.000000 0.000000 1.788350 
# 
# From -- ./inp_files/6577.got.cif
#   From: 2010.05.17/outbox.cif.g08.bks.cpg/sg20_4_cif.got.tgz:6577.got - 2010.06.03 22:52:26.
