data_PCOD9319945
_publ_section_title
;
Structure prediction by ZEFSAII (Michael W. Deem and Ramdas Pophale) SiO2 
 PCOD9319945
Probable space group: C 2 2 21
;
_chemical_formula_sum "Si O2"
_cell_formula_units_Z 52
_cell_length_a 20.859428
_cell_length_b 9.209783
_cell_length_c 12.807874
_cell_angle_alpha 90.000000
_cell_angle_beta 90.000000
_cell_angle_gamma 90.000000
_cell_volume 2460.530989
_symmetry_space_group_name_H-M "C 2 2 21"
_symmetry_group_IT_number 20
_symmetry_cell_setting 'orthorhombic'
loop_
_space_group_symop_operation_xyz
x,y,z
-x,-y,1/2+z
x,-y,-z
-x,y,1/2-z
1/2+x,1/2+y,z
1/2-x,1/2-y,1/2+z
1/2+x,1/2-y,-z
1/2-x,1/2+y,1/2-z
loop_
_atom_site_type_symbol
_atom_site_label
_atom_site_fract_x
_atom_site_fract_y
_atom_site_fract_z
Si Si1 0.297350 0.261368 0.927102
Si Si2 0.407036 0.651960 0.453477
Si Si3 0.827325 0.530499 0.185036
Si Si4 0.177881 0.060880 0.226315
Si Si5 0.030158 0.000000 0.500000
Si Si6 0.337483 0.122177 0.417215
Si Si7 0.367630 0.328506 0.131867
O O1 0.322088 0.373653 0.841867
O O2 0.221140 0.263721 0.913871
O O3 0.328295 0.110224 0.888777
O O4 0.314260 0.321847 0.040640
O O5 0.379523 0.500000 0.500000
O O6 0.368776 0.656198 0.345413
O O7 0.481981 0.613383 0.443832
O O8 0.394935 0.784279 0.532128
O O9 0.750618 0.569365 0.184068
O O10 0.843144 0.534497 0.308719
O O11 0.874611 0.656435 0.146589
O O12 0.153606 0.899233 0.257720
O O13 0.072906 0.086470 0.582848
O O14 0.319573 0.000000 0.500000
#
# Coordination Sequence:
#
# PCOD9319945 Si02
#       7
#     8   8   8   8   4   8   8
#     4  11  21  37  61  98 136 174 209 282 352 407
#     4  10  22  41  64  93 125 179 237 275 322 402
#     4  11  23  35  64 102 133 174 214 274 361 402
#     4  11  20  38  66  95 129 167 225 274 346 404
#     4  10  26  44  66  92 130 194 232 270 334 404
#     4  11  22  41  66 101 142 173 225 290 346 405
#     4  12  22  43  61  95 137 174 226 277 335 406
#
# _framework density 21.133648000000001
#
# number of rings (size 3 to 8) (size 9 to 14) (size 15 to 20)
#    0.462    0.615    1.538    7.846    0.000    0.615 
#    0.000    1.538    0.000    0.000    0.000    0.000 
#    0.000    0.000    0.000    0.000    0.000    0.000 
#
# Total GULP energy -144834.881255 kJ/mol
# GULP energy per Si atom -5570.572356 kJ/mol
# Density = 2.108555 g / cm^3
# Si number density = 21.133648 Si / 1000 Ang^3
#
#
#
# Elastic Constant Matrix: (Units=GPa)
#
#
# Indices 1 2 3 4 5 6 
#
# 1 67.7657 29.8734 37.4893 0.0000 0.0000 0.0000
# 2 29.8734 96.2208 9.7044 0.0000 0.0000 0.0000
# 3 37.4893 9.7044 73.3914 0.0000 0.0000 0.0000
# 4 0.0000 0.0000 0.0000 44.0865 0.0000 0.0000
# 5 0.0000 0.0000 0.0000 0.0000 17.8573 0.0000
# 6 0.0000 0.0000 0.0000 0.0000 0.0000 23.7724
#
#
#
# Elastic Compliance Matrix: (Units=1/GPa)
#
#
# Indices 1 2 3 4 5 6 
#
# 1 0.023766 -0.006237 -0.011315 0.000000 0.000000 0.000000
# 2 -0.006237 0.012170 0.001577 0.000000 0.000000 0.000000
# 3 -0.011315 0.001577 0.019197 0.000000 0.000000 0.000000
# 4 0.000000 0.000000 0.000000 0.022683 0.000000 0.000000
# 5 0.000000 0.000000 0.000000 0.000000 0.055999 0.000000
# 6 0.000000 0.000000 0.000000 0.000000 0.000000 0.042066
#
#
# Mechanical properties :
#
#
# Convention : Reuss Voigt Hill
#
# Bulk Modulus (GPa) = 43.13720 43.50136 43.31928
# Shear Modulus (GPa) = 23.19534 27.83062 25.51298
#
# Velocity S-wave (km/s) = 3.31653 3.63283 3.47828
# Velocity P-wave (km/s) = 5.92636 6.18266 6.05586
#
# Compressibility (1/GPa) = 0.02318185
#
# Stress axis : x y z
#
# Youngs Moduli (GPa) = 42.07640 82.16760 52.09112
#
# Poissons Ratio (x) = 0.51252 0.58943
# Poissons Ratio (y) = 0.26245 -0.08214
# Poissons Ratio (z) = 0.47611 -0.12957
#
# Static dielectric constant tensor:
#      x y z
#    x 1.758730 0.000000 0.000000 
#    y 0.000000 1.871330 0.000000 
#    z 0.000000 0.000000 1.861990 
# 
# From -- ./inp_files/21716.got.cif
#   From: 2010.05.17/outbox.cif.g08.bks.cpg/sg20_11_cif.got.tgz:21716.got - 2010.06.03 22:52:26.
