data_PCOD9319066
_publ_section_title
;
Structure prediction by ZEFSAII (Michael W. Deem and Ramdas Pophale) SiO2 
 PCOD9319066
Probable space group: C 2 2 21
;
_chemical_formula_sum "Si O2"
_cell_formula_units_Z 52
_cell_length_a 8.923315
_cell_length_b 12.335812
_cell_length_c 25.698326
_cell_angle_alpha 90.000000
_cell_angle_beta 90.000000
_cell_angle_gamma 90.000000
_cell_volume 2828.777574
_symmetry_space_group_name_H-M "C 2 2 21"
_symmetry_group_IT_number 20
_symmetry_cell_setting 'orthorhombic'
loop_
_space_group_symop_operation_xyz
x,y,z
-x,-y,1/2+z
x,-y,-z
-x,y,1/2-z
1/2+x,1/2+y,z
1/2-x,1/2-y,1/2+z
1/2+x,1/2-y,-z
1/2-x,1/2+y,1/2-z
loop_
_atom_site_type_symbol
_atom_site_label
_atom_site_fract_x
_atom_site_fract_y
_atom_site_fract_z
Si Si1 0.299522 0.691433 0.264433
Si Si2 0.000000 0.408497 0.750000
Si Si3 0.807258 0.500000 0.000000
Si Si4 0.051506 0.861492 0.945191
Si Si5 0.812289 0.000000 0.000000
Si Si6 0.177739 0.422216 0.181506
Si Si7 0.065822 0.390534 0.066949
Si Si8 0.946090 0.914408 0.827769
O O1 0.127902 0.664573 0.274784
O O2 0.325445 0.812093 0.285015
O O3 0.400069 0.601172 0.294757
O O4 0.344043 0.674382 0.203675
O O5 0.915503 0.485418 0.710126
O O6 0.698981 0.424183 0.965202
O O7 0.915435 0.563154 0.959626
O O8 0.078294 0.734289 0.949047
O O9 0.995283 0.889407 0.886683
O O10 0.918277 0.902637 0.982159
O O11 0.703203 0.960452 0.045004
O O12 0.089738 0.397236 0.128437
O O13 0.345024 0.475646 0.174206
#
# Coordination Sequence:
#
# PCOD9319066 Si02
#       8
#     8   4   4   8   4   8   8   8
#     4  10  22  41  60  89 123 156 201 254 299 366
#     4  10  24  38  60  90 122 156 204 250 296 374
#     4  10  26  40  60  94 126 160 208 256 298 364
#     4  11  21  41  63  88 123 162 202 254 308 361
#     4  10  22  40  62  86 124 160 206 250 306 368
#     4  11  22  39  64  90 121 164 199 252 312 356
#     4  11  22  39  64  89 122 162 204 254 305 364
#     4  10  21  39  64  89 122 162 203 247 308 370
#
# _framework density 18.382497999999998
#
# number of rings (size 3 to 8) (size 9 to 14) (size 15 to 20)
#    0.000    1.538    3.077    1.846    2.154    2.462 
#    0.000    3.077    0.000    0.000    0.000    0.000 
#    0.000    0.000    0.000    0.000    0.000    0.000 
#
# Total GULP energy -144861.251924 kJ/mol
# GULP energy per Si atom -5571.586612 kJ/mol
# Density = 1.834066 g / cm^3
# Si number density = 18.382498 Si / 1000 Ang^3
#
#
#
# Elastic Constant Matrix: (Units=GPa)
#
#
# Indices 1 2 3 4 5 6 
#
# 1 125.9060 43.8222 21.8953 0.0000 0.0000 0.0000
# 2 43.8222 96.7961 29.6155 0.0000 0.0000 0.0000
# 3 21.8953 29.6155 56.8968 0.0000 0.0000 0.0000
# 4 0.0000 0.0000 0.0000 75.7924 0.0000 0.0000
# 5 0.0000 0.0000 0.0000 0.0000 6.4814 0.0000
# 6 0.0000 0.0000 0.0000 0.0000 0.0000 15.4458
#
#
#
# Elastic Compliance Matrix: (Units=1/GPa)
#
#
# Indices 1 2 3 4 5 6 
#
# 1 0.009564 -0.003811 -0.001697 0.000000 0.000000 0.000000
# 2 -0.003811 0.013806 -0.005720 0.000000 0.000000 0.000000
# 3 -0.001697 -0.005720 0.021206 0.000000 0.000000 0.000000
# 4 0.000000 0.000000 0.000000 0.013194 0.000000 0.000000
# 5 0.000000 0.000000 0.000000 0.000000 0.154287 0.000000
# 6 0.000000 0.000000 0.000000 0.000000 0.000000 0.064743
#
#
# Mechanical properties :
#
#
# Convention : Reuss Voigt Hill
#
# Bulk Modulus (GPa) = 45.20560 52.25167 48.72863
# Shear Modulus (GPa) = 16.30638 31.82831 24.06734
#
# Velocity S-wave (km/s) = 2.98159 4.16558 3.62229
# Velocity P-wave (km/s) = 6.04137 7.18488 6.63779
#
# Compressibility (1/GPa) = 0.02212115
#
# Stress axis : x y z
#
# Youngs Moduli (GPa) = 104.56053 72.43125 47.15653
#
# Poissons Ratio (x) = 0.27601 0.08002
# Poissons Ratio (y) = 0.39844 0.26973
# Poissons Ratio (z) = 0.17743 0.41430
#
# Static dielectric constant tensor:
#      x y z
#    x 1.652580 0.000000 0.000000 
#    y 0.000000 1.606990 0.000000 
#    z 0.000000 0.000000 1.659780 
# 
# From -- ./inp_files/30137.got.cif
#   From: 2010.05.17/outbox.cif.g08.bks.cpg/sg20_16_cif.got.tgz:30137.got - 2010.06.03 22:52:26.
