data_PCOD9319866
_publ_section_title
;
Structure prediction by ZEFSAII (Michael W. Deem and Ramdas Pophale) SiO2 
 PCOD9319866
Probable space group: C 2 2 21
;
_chemical_formula_sum "Si O2"
_cell_formula_units_Z 52
_cell_length_a 26.103977
_cell_length_b 9.289724
_cell_length_c 11.411703
_cell_angle_alpha 90.000000
_cell_angle_beta 90.000000
_cell_angle_gamma 90.000000
_cell_volume 2767.323617
_symmetry_space_group_name_H-M "C 2 2 21"
_symmetry_group_IT_number 20
_symmetry_cell_setting 'orthorhombic'
loop_
_space_group_symop_operation_xyz
x,y,z
-x,-y,1/2+z
x,-y,-z
-x,y,1/2-z
1/2+x,1/2+y,z
1/2-x,1/2-y,1/2+z
1/2+x,1/2-y,-z
1/2-x,1/2+y,1/2-z
loop_
_atom_site_type_symbol
_atom_site_label
_atom_site_fract_x
_atom_site_fract_y
_atom_site_fract_z
Si Si1 0.888590 0.000000 0.000000
Si Si2 0.415246 0.231766 0.118636
Si Si3 0.202096 0.117268 0.094176
Si Si4 0.523117 0.000000 0.500000
Si Si5 0.500000 0.917407 0.750000
Si Si6 0.723501 0.866276 0.929676
Si Si7 0.818328 0.445503 0.814839
Si Si8 0.171506 0.776361 0.662288
O O1 0.857383 0.878158 0.929033
O O2 0.918194 0.100089 0.907789
O O3 0.449912 0.180080 0.227771
O O4 0.357974 0.172272 0.137114
O O5 0.441276 0.140758 0.013280
O O6 0.261627 0.079445 0.128882
O O7 0.170968 0.140763 0.213431
O O8 0.198238 0.267081 0.026103
O O9 0.184555 0.000000 0.000000
O O10 0.494768 0.997860 0.373787
O O11 0.688862 0.921222 0.823888
O O12 0.768662 0.775173 0.872297
O O13 0.746570 0.000000 0.000000
O O14 0.840637 0.606249 0.834762
#
# Coordination Sequence:
#
# PCOD9319866 Si02
#       8
#     4   8   8   4   4   8   8   8
#     4  12  24  36  66  89 124 158 205 256 294 366
#     4  10  22  40  66  93 121 152 203 253 308 375
#     4  11  23  35  55  80 126 169 208 253 305 342
#     4   8  18  42  70  89 122 152 193 242 308 384
#     4   8  20  42  70  94 122 150 194 254 314 382
#     4  11  21  37  49  79 121 168 205 254 297 345
#     4  11  23  36  58  87 117 163 214 251 290 375
#     4  11  23  36  56  85 122 166 210 250 301 350
#
# _framework density 18.790718999999999
#
# number of rings (size 3 to 8) (size 9 to 14) (size 15 to 20)
#    0.923    0.615    3.846    1.846    3.231    0.000 
#    1.385    0.769    0.000    0.000    0.000    0.000 
#    0.000    0.000    0.000    0.000    0.000    0.000 
#
# Total GULP energy -144736.042951 kJ/mol
# GULP energy per Si atom -5566.770883 kJ/mol
# Density = 1.874795 g / cm^3
# Si number density = 18.790719 Si / 1000 Ang^3
#
#
#
# Elastic Constant Matrix: (Units=GPa)
#
#
# Indices 1 2 3 4 5 6 
#
# 1 18.6113 16.6373 17.5909 0.0000 0.0000 0.0000
# 2 16.6373 94.6933 23.8900 0.0000 0.0000 0.0000
# 3 17.5909 23.8900 122.6163 0.0000 0.0000 0.0000
# 4 0.0000 0.0000 0.0000 33.6208 0.0000 0.0000
# 5 0.0000 0.0000 0.0000 0.0000 99.8688 0.0000
# 6 0.0000 0.0000 0.0000 0.0000 0.0000 6.5097
#
#
#
# Elastic Compliance Matrix: (Units=1/GPa)
#
#
# Indices 1 2 3 4 5 6 
#
# 1 0.070674 -0.010369 -0.008119 0.000000 0.000000 0.000000
# 2 -0.010369 0.012628 -0.000973 0.000000 0.000000 0.000000
# 3 -0.008119 -0.000973 0.009510 0.000000 0.000000 0.000000
# 4 0.000000 0.000000 0.000000 0.029743 0.000000 0.000000
# 5 0.000000 0.000000 0.000000 0.000000 0.010013 0.000000
# 6 0.000000 0.000000 0.000000 0.000000 0.000000 0.153617
#
#
# Mechanical properties :
#
#
# Convention : Reuss Voigt Hill
#
# Bulk Modulus (GPa) = 18.55624 39.12858 28.84241
# Shear Modulus (GPa) = 14.57430 39.85337 27.21383
#
# Velocity S-wave (km/s) = 2.78800 4.61033 3.80973
# Velocity P-wave (km/s) = 4.50118 7.01489 5.89361
#
# Compressibility (1/GPa) = 0.05389023
#
# Stress axis : x y z
#
# Youngs Moduli (GPa) = 14.14953 79.19172 105.15454
#
# Poissons Ratio (x) = 0.82112 0.85374
# Poissons Ratio (y) = 0.14671 0.10229
# Poissons Ratio (z) = 0.11488 0.07703
#
# Static dielectric constant tensor:
#      x y z
#    x 1.644520 0.000000 0.000000 
#    y 0.000000 -0.106830 0.000000 
#    z 0.000000 0.000000 1.876580 
# 
# From -- ./inp_files/17049.got.cif
#   From: 2010.05.17/outbox.cif.g08.bks.cpg/sg20_9_cif.got.tgz:17049.got - 2010.06.03 22:52:26.
