data_PCOD9319702
_publ_section_title
;
Structure prediction by ZEFSAII (Michael W. Deem and Ramdas Pophale) SiO2 
 PCOD9319702
Probable space group: C 2 2 21
;
_chemical_formula_sum "Si O2"
_cell_formula_units_Z 40
_cell_length_a 26.713037
_cell_length_b 8.431543
_cell_length_c 9.882640
_cell_angle_alpha 90.000000
_cell_angle_beta 90.000000
_cell_angle_gamma 90.000000
_cell_volume 2225.887960
_symmetry_space_group_name_H-M "C 2 2 21"
_symmetry_group_IT_number 20
_symmetry_cell_setting 'orthorhombic'
loop_
_space_group_symop_operation_xyz
x,y,z
-x,-y,1/2+z
x,-y,-z
-x,y,1/2-z
1/2+x,1/2+y,z
1/2-x,1/2-y,1/2+z
1/2+x,1/2-y,-z
1/2-x,1/2+y,1/2-z
loop_
_atom_site_type_symbol
_atom_site_label
_atom_site_fract_x
_atom_site_fract_y
_atom_site_fract_z
Si Si1 0.500000 0.694649 0.750000
Si Si2 0.223002 0.626548 0.621886
Si Si3 0.198670 0.596037 0.136714
Si Si4 0.889048 0.722248 0.908931
Si Si5 0.043472 0.000000 0.500000
Si Si6 0.095090 0.598703 0.285188
O O1 0.511479 0.593391 0.613918
O O2 0.452329 0.808761 0.729014
O O3 0.221786 0.500000 0.500000
O O4 0.225318 0.521082 0.756555
O O5 0.268330 0.748401 0.613846
O O6 0.170313 0.722839 0.620721
O O7 0.144502 0.632227 0.199207
O O8 0.192276 0.500000 0.000000
O O9 0.911247 0.590425 0.806479
O O10 0.920135 0.883645 0.913764
O O11 0.894717 0.660180 0.062733
#
# Coordination Sequence:
#
# PCOD9319702 Si02
#       6
#     4   8   8   8   4   8
#     4  10  22  42  62  86 120 158 204 250 300 348
#     4  11  21  40  61  85 123 162 202 230 297 374
#     4  11  23  36  58  94 121 153 197 250 298 342
#     4   9  18  38  64  82 112 163 200 230 285 381
#     4  10  22  38  64  96 114 148 210 254 294 342
#     4   9  19  41  58  81 120 158 199 237 296 362
#
# _framework density 17.970355999999999
#
# number of rings (size 3 to 8) (size 9 to 14) (size 15 to 20)
#    0.000    2.000    4.000    1.200    1.400    2.400 
#   16.200    0.000    0.000    0.000    0.000    0.000 
#    0.000    0.000    0.000    0.000    0.000    0.000 
#
# Total GULP energy -111525.527227 kJ/mol
# GULP energy per Si atom -5576.276361 kJ/mol
# Density = 1.792945 g / cm^3
# Si number density = 17.970356 Si / 1000 Ang^3
#
#
#
# Elastic Constant Matrix: (Units=GPa)
#
#
# Indices 1 2 3 4 5 6 
#
# 1 129.0817 94.4269 42.2204 0.0000 0.0000 0.0000
# 2 94.4269 102.0935 32.9859 0.0000 0.0000 0.0000
# 3 42.2204 32.9859 68.3861 0.0000 0.0000 0.0000
# 4 0.0000 0.0000 0.0000 26.7625 0.0000 0.0000
# 5 0.0000 0.0000 0.0000 0.0000 39.9011 0.0000
# 6 0.0000 0.0000 0.0000 0.0000 0.0000 90.4046
#
#
#
# Elastic Compliance Matrix: (Units=1/GPa)
#
#
# Indices 1 2 3 4 5 6 
#
# 1 0.025400 -0.021828 -0.005153 0.000000 0.000000 0.000000
# 2 -0.021828 0.030361 -0.001169 0.000000 0.000000 0.000000
# 3 -0.005153 -0.001169 0.018368 0.000000 0.000000 0.000000
# 4 0.000000 0.000000 0.000000 0.037366 0.000000 0.000000
# 5 0.000000 0.000000 0.000000 0.000000 0.025062 0.000000
# 6 0.000000 0.000000 0.000000 0.000000 0.000000 0.011061
#
#
# Mechanical properties :
#
#
# Convention : Reuss Voigt Hill
#
# Bulk Modulus (GPa) = 56.08378 70.98085 63.53231
# Shear Modulus (GPa) = 23.82532 40.07552 31.95042
#
# Velocity S-wave (km/s) = 3.64512 4.72751 4.22115
# Velocity P-wave (km/s) = 6.99948 8.32969 7.69339
#
# Compressibility (1/GPa) = 0.01783047
#
# Stress axis : x y z
#
# Youngs Moduli (GPa) = 39.36970 32.93668 54.44296
#
# Poissons Ratio (x) = 0.71894 0.28054
# Poissons Ratio (y) = 0.85936 0.06362
# Poissons Ratio (z) = 0.20287 0.03849
#
# Static dielectric constant tensor:
#      x y z
#    x 1.599100 0.000000 0.000000 
#    y 0.000000 1.644450 0.000000 
#    z 0.000000 0.000000 1.579070 
# 
# From -- ./inp_files/6292.got.cif
#   From: 2010.05.17/outbox.cif.g08.bks.cpg/sg20_4_cif.got.tgz:6292.got - 2010.06.03 22:52:26.
