data_PCOD9319275
_publ_section_title
;
Structure prediction by ZEFSAII (Michael W. Deem and Ramdas Pophale) SiO2 
 PCOD9319275
Probable space group: C 2 2 21
;
_chemical_formula_sum "Si O2"
_cell_formula_units_Z 36
_cell_length_a 11.316019
_cell_length_b 10.400470
_cell_length_c 12.641802
_cell_angle_alpha 90.000000
_cell_angle_beta 90.000000
_cell_angle_gamma 90.000000
_cell_volume 1487.837901
_symmetry_space_group_name_H-M "C 2 2 21"
_symmetry_group_IT_number 20
_symmetry_cell_setting 'orthorhombic'
loop_
_space_group_symop_operation_xyz
x,y,z
-x,-y,1/2+z
x,-y,-z
-x,y,1/2-z
1/2+x,1/2+y,z
1/2-x,1/2-y,1/2+z
1/2+x,1/2-y,-z
1/2-x,1/2+y,1/2-z
loop_
_atom_site_type_symbol
_atom_site_label
_atom_site_fract_x
_atom_site_fract_y
_atom_site_fract_z
Si Si1 0.000000 0.638956 0.250000
Si Si2 0.820326 0.240142 0.906846
Si Si3 0.339697 0.453621 0.649444
Si Si4 0.336553 0.896167 0.237748
Si Si5 0.909655 0.842724 0.874595
O O1 0.058962 0.729284 0.340626
O O2 0.104187 0.532533 0.232966
O O3 0.756183 0.376978 0.918744
O O4 0.719037 0.167343 0.840884
O O5 0.845731 0.167152 0.014423
O O6 0.281574 0.591257 0.664462
O O7 0.347322 0.406752 0.773188
O O8 0.469024 0.420067 0.610161
O O9 0.421712 0.804710 0.167720
#
# Coordination Sequence:
#
# PCOD9319275 Si02
#       5
#     4   8   8   8   8
#     4  10  22  40  64  92 120 158 200 242 304 356
#     4  10  22  40  64  91 119 158 205 247 293 358
#     4   9  21  39  60  89 122 159 198 242 304 355
#     4  10  21  42  62  86 127 157 194 255 295 351
#     4  10  21  41  62  87 124 159 197 249 300 352
#
# _framework density 24.196185
#
# number of rings (size 3 to 8) (size 9 to 14) (size 15 to 20)
#    0.000    2.222    0.000    2.667    0.000   11.556 
#    0.000   17.778    0.000    0.000    0.000    0.000 
#    0.000    0.000    0.000    0.000    0.000    0.000 
#
# Total GULP energy -100293.321723 kJ/mol
# GULP energy per Si atom -5571.851207 kJ/mol
# Density = 2.414111 g / cm^3
# Si number density = 24.196185 Si / 1000 Ang^3
#
#
#
# Elastic Constant Matrix: (Units=GPa)
#
#
# Indices 1 2 3 4 5 6 
#
# 1 120.9868 3.9419 35.3419 0.0000 0.0000 0.0000
# 2 3.9419 31.3777 15.3500 0.0000 0.0000 0.0000
# 3 35.3419 15.3500 127.4363 0.0000 0.0000 0.0000
# 4 0.0000 0.0000 0.0000 20.4989 0.0000 0.0000
# 5 0.0000 0.0000 0.0000 0.0000 24.8064 0.0000
# 6 0.0000 0.0000 0.0000 0.0000 0.0000 26.8562
#
#
#
# Elastic Compliance Matrix: (Units=1/GPa)
#
#
# Indices 1 2 3 4 5 6 
#
# 1 0.008994 0.000096 -0.002506 0.000000 0.000000 0.000000
# 2 0.000096 0.033866 -0.004106 0.000000 0.000000 0.000000
# 3 -0.002506 -0.004106 0.009037 0.000000 0.000000 0.000000
# 4 0.000000 0.000000 0.000000 0.048783 0.000000 0.000000
# 5 0.000000 0.000000 0.000000 0.000000 0.040312 0.000000
# 6 0.000000 0.000000 0.000000 0.000000 0.000000 0.037235
#
#
# Mechanical properties :
#
#
# Convention : Reuss Voigt Hill
#
# Bulk Modulus (GPa) = 25.72976 43.22982 34.47979
# Shear Modulus (GPa) = 24.48402 29.44342 26.96372
#
# Velocity S-wave (km/s) = 3.18448 3.49214 3.34185
# Velocity P-wave (km/s) = 4.91713 5.84510 5.40108
#
# Compressibility (1/GPa) = 0.03886550
#
# Stress axis : x y z
#
# Youngs Moduli (GPa) = 111.18200 29.52783 110.66106
#
# Poissons Ratio (x) = -0.00283 0.27731
# Poissons Ratio (y) = -0.01067 0.45437
# Poissons Ratio (z) = 0.27862 0.12124
#
# Static dielectric constant tensor:
#      x y z
#    x 2.037330 0.000000 0.000000 
#    y 0.000000 2.107580 0.000000 
#    z 0.000000 0.000000 1.959700 
# 
# From -- ./inp_files/13656.got.cif
#   From: 2010.05.17/outbox.cif.g08.bks.cpg/sg20_7_cif.got.tgz:13656.got - 2010.06.03 22:52:26.
