data_PCOD9319059
_publ_section_title
;
Structure prediction by ZEFSAII (Michael W. Deem and Ramdas Pophale) SiO2 
 PCOD9319059
Probable space group: C 2 2 21
;
_chemical_formula_sum "Si O2"
_cell_formula_units_Z 40
_cell_length_a 21.049968
_cell_length_b 7.880615
_cell_length_c 10.836108
_cell_angle_alpha 90.000000
_cell_angle_beta 90.000000
_cell_angle_gamma 90.000000
_cell_volume 1797.566127
_symmetry_space_group_name_H-M "C 2 2 21"
_symmetry_group_IT_number 20
_symmetry_cell_setting 'orthorhombic'
loop_
_space_group_symop_operation_xyz
x,y,z
-x,-y,1/2+z
x,-y,-z
-x,y,1/2-z
1/2+x,1/2+y,z
1/2-x,1/2-y,1/2+z
1/2+x,1/2-y,-z
1/2-x,1/2+y,1/2-z
loop_
_atom_site_type_symbol
_atom_site_label
_atom_site_fract_x
_atom_site_fract_y
_atom_site_fract_z
Si Si1 0.432131 0.626824 0.254625
Si Si2 0.182915 0.289340 0.848168
Si Si3 0.187693 0.629270 0.739581
Si Si4 0.620829 0.000000 0.500000
Si Si5 0.936954 0.232053 0.829220
Si Si6 0.874975 0.000000 0.500000
O O1 0.500000 0.719356 0.250000
O O2 0.370528 0.741387 0.247280
O O3 0.435688 0.472094 0.157230
O O4 0.420770 0.541047 0.386878
O O5 0.190580 0.493068 0.850615
O O6 0.245476 0.219878 0.780138
O O7 0.122086 0.267359 0.760741
O O8 0.167721 0.164092 0.962782
O O9 0.168120 0.538916 0.612083
O O10 0.576199 0.845394 0.549398
O O11 0.000000 0.276595 0.750000
#
# Coordination Sequence:
#
# PCOD9319059 Si02
#       6
#     8   8   8   4   8   4
#     4  10  23  42  64  93 127 171 218 269 324 386
#     4  10  21  39  63  94 128 167 212 266 319 387
#     4  11  23  40  64  94 131 169 218 268 321 388
#     4  10  23  40  64  94 127 168 212 268 333 392
#     4   9  20  41  65  91 128 167 212 265 321 390
#     4  10  21  42  68  90 127 168 212 266 335 392
#
# _framework density 22.252313000000001
#
# number of rings (size 3 to 8) (size 9 to 14) (size 15 to 20)
#    0.000    2.000    0.000    3.000    0.000   11.200 
#    0.000    2.000    0.000    0.000    0.000    0.000 
#    0.000    0.000    0.000    0.000    0.000    0.000 
#
# Total GULP energy -111517.164399 kJ/mol
# GULP energy per Si atom -5575.858220 kJ/mol
# Density = 2.220167 g / cm^3
# Si number density = 22.252313 Si / 1000 Ang^3
#
#
#
# Elastic Constant Matrix: (Units=GPa)
#
#
# Indices 1 2 3 4 5 6 
#
# 1 192.4087 62.7154 20.3830 0.0000 0.0000 0.0000
# 2 62.7154 118.9424 42.5833 0.0000 0.0000 0.0000
# 3 20.3830 42.5833 76.0858 0.0000 0.0000 0.0000
# 4 0.0000 0.0000 0.0000 27.8118 0.0000 0.0000
# 5 0.0000 0.0000 0.0000 0.0000 25.8976 0.0000
# 6 0.0000 0.0000 0.0000 0.0000 0.0000 36.7117
#
#
#
# Elastic Compliance Matrix: (Units=1/GPa)
#
#
# Indices 1 2 3 4 5 6 
#
# 1 0.006279 -0.003387 0.000214 0.000000 0.000000 0.000000
# 2 -0.003387 0.012341 -0.006000 0.000000 0.000000 0.000000
# 3 0.000214 -0.006000 0.016444 0.000000 0.000000 0.000000
# 4 0.000000 0.000000 0.000000 0.035956 0.000000 0.000000
# 5 0.000000 0.000000 0.000000 0.000000 0.038614 0.000000
# 6 0.000000 0.000000 0.000000 0.000000 0.000000 0.027239
#
#
# Mechanical properties :
#
#
# Convention : Reuss Voigt Hill
#
# Bulk Modulus (GPa) = 59.81807 70.97781 65.39794
# Shear Modulus (GPa) = 31.09619 35.53457 33.31538
#
# Velocity S-wave (km/s) = 3.74229 4.00045 3.87352
# Velocity P-wave (km/s) = 6.75374 7.30097 7.03268
#
# Compressibility (1/GPa) = 0.01671736
#
# Stress axis : x y z
#
# Youngs Moduli (GPa) = 159.26995 81.02840 60.81345
#
# Poissons Ratio (x) = 0.27445 -0.01299
# Poissons Ratio (y) = 0.53946 0.36487
# Poissons Ratio (z) = -0.03403 0.48615
#
# Static dielectric constant tensor:
#      x y z
#    x 1.783630 0.000000 0.000000 
#    y 0.000000 2.036840 0.000000 
#    z 0.000000 0.000000 1.797830 
# 
# From -- ./inp_files/16179.got.cif
#   From: 2010.05.17/outbox.cif.g08.bks.cpg/sg20_9_cif.got.tgz:16179.got - 2010.06.03 22:52:26.
