data_PCOD9319174
_publ_section_title
;
Structure prediction by ZEFSAII (Michael W. Deem and Ramdas Pophale) SiO2 
 PCOD9319174
Probable space group: C 2 2 21
;
_chemical_formula_sum "Si O2"
_cell_formula_units_Z 40
_cell_length_a 11.812965
_cell_length_b 12.210289
_cell_length_c 12.580428
_cell_angle_alpha 90.000000
_cell_angle_beta 90.000000
_cell_angle_gamma 90.000000
_cell_volume 1814.597369
_symmetry_space_group_name_H-M "C 2 2 21"
_symmetry_group_IT_number 20
_symmetry_cell_setting 'orthorhombic'
loop_
_space_group_symop_operation_xyz
x,y,z
-x,-y,1/2+z
x,-y,-z
-x,y,1/2-z
1/2+x,1/2+y,z
1/2-x,1/2-y,1/2+z
1/2+x,1/2-y,-z
1/2-x,1/2+y,1/2-z
loop_
_atom_site_type_symbol
_atom_site_label
_atom_site_fract_x
_atom_site_fract_y
_atom_site_fract_z
Si Si1 0.581410 0.633426 0.009714
Si Si2 0.089595 0.761643 0.657609
Si Si3 0.379860 0.392596 0.278654
Si Si4 0.276714 0.804360 0.818650
Si Si5 0.840866 0.484956 0.125844
O O1 0.464457 0.678285 0.057398
O O2 0.685135 0.677069 0.085098
O O3 0.577616 0.500000 0.000000
O O4 0.599941 0.672174 0.889179
O O5 0.206122 0.804712 0.707925
O O6 0.097715 0.630261 0.641948
O O7 0.000000 0.780912 0.750000
O O8 0.500000 0.445715 0.250000
O O9 0.335482 0.313897 0.186179
O O10 0.277989 0.470993 0.311397
O O11 0.373646 0.896443 0.830201
O O12 0.828646 0.500000 0.000000
#
# Coordination Sequence:
#
# PCOD9319174 Si02
#       5
#     8   8   8   8   8
#     4  11  21  41  67  93 124 165 211 263 309 372
#     4   9  23  40  65  93 124 163 214 257 308 380
#     4  11  24  35  63  95 117 161 219 253 301 382
#     4  10  21  40  63  86 128 165 201 257 322 359
#     4  11  21  42  62  86 130 169 197 260 327 361
#
# _framework density 22.043457
#
# number of rings (size 3 to 8) (size 9 to 14) (size 15 to 20)
#    0.000    1.600    4.000    0.000    5.600    0.800 
#    0.000    0.000    0.000    0.000    0.000    0.000 
#    0.000    0.000    0.000    0.000    0.000    0.000 
#
# Total GULP energy -111436.431645 kJ/mol
# GULP energy per Si atom -5571.821582 kJ/mol
# Density = 2.199329 g / cm^3
# Si number density = 22.043457 Si / 1000 Ang^3
#
#
#
# Elastic Constant Matrix: (Units=GPa)
#
#
# Indices 1 2 3 4 5 6 
#
# 1 47.3358 1.0794 7.8365 0.0000 0.0000 0.0000
# 2 1.0794 73.8955 13.5304 0.0000 0.0000 0.0000
# 3 7.8365 13.5304 77.5508 0.0000 0.0000 0.0000
# 4 0.0000 0.0000 0.0000 38.9304 0.0000 0.0000
# 5 0.0000 0.0000 0.0000 0.0000 31.4836 0.0000
# 6 0.0000 0.0000 0.0000 0.0000 0.0000 17.4713
#
#
#
# Elastic Compliance Matrix: (Units=1/GPa)
#
#
# Indices 1 2 3 4 5 6 
#
# 1 0.021486 0.000086 -0.002186 0.000000 0.000000 0.000000
# 2 0.000086 0.013980 -0.002448 0.000000 0.000000 0.000000
# 3 -0.002186 -0.002448 0.013543 0.000000 0.000000 0.000000
# 4 0.000000 0.000000 0.000000 0.025687 0.000000 0.000000
# 5 0.000000 0.000000 0.000000 0.000000 0.031763 0.000000
# 6 0.000000 0.000000 0.000000 0.000000 0.000000 0.057237
#
#
# Mechanical properties :
#
#
# Convention : Reuss Voigt Hill
#
# Bulk Modulus (GPa) = 25.05456 27.07496 26.06476
# Shear Modulus (GPa) = 26.86820 29.33277 28.10049
#
# Velocity S-wave (km/s) = 3.49503 3.65181 3.57428
# Velocity P-wave (km/s) = 5.26095 5.48545 5.37437
#
# Compressibility (1/GPa) = 0.03991290
#
# Stress axis : x y z
#
# Youngs Moduli (GPa) = 46.54275 71.53306 73.84021
#
# Poissons Ratio (x) = -0.00618 0.16143
# Poissons Ratio (y) = -0.00402 0.18074
# Poissons Ratio (z) = 0.10175 0.17510
#
# Static dielectric constant tensor:
#      x y z
#    x 1.910420 0.000000 0.000000 
#    y 0.000000 1.843590 0.000000 
#    z 0.000000 0.000000 1.833270 
# 
# From -- ./inp_files/13856.got.cif
#   From: 2010.05.17/outbox.cif.g08.bks.cpg/sg20_7_cif.got.tgz:13856.got - 2010.06.03 22:52:26.
