data_PCOD9319099
_publ_section_title
;
Structure prediction by ZEFSAII (Michael W. Deem and Ramdas Pophale) SiO2 
 PCOD9319099
Probable space group: C 2 2 21
;
_chemical_formula_sum "Si O2"
_cell_formula_units_Z 60
_cell_length_a 25.021084
_cell_length_b 8.714235
_cell_length_c 12.180327
_cell_angle_alpha 90.000000
_cell_angle_beta 90.000000
_cell_angle_gamma 90.000000
_cell_volume 2655.793699
_symmetry_space_group_name_H-M "C 2 2 21"
_symmetry_group_IT_number 20
_symmetry_cell_setting 'orthorhombic'
loop_
_space_group_symop_operation_xyz
x,y,z
-x,-y,1/2+z
x,-y,-z
-x,y,1/2-z
1/2+x,1/2+y,z
1/2-x,1/2-y,1/2+z
1/2+x,1/2-y,-z
1/2-x,1/2+y,1/2-z
loop_
_atom_site_type_symbol
_atom_site_label
_atom_site_fract_x
_atom_site_fract_y
_atom_site_fract_z
Si Si1 0.168731 0.474726 0.232692
Si Si2 0.087739 0.749221 0.878633
Si Si3 0.659499 0.257580 0.084105
Si Si4 0.093034 0.963946 0.234498
Si Si5 0.227674 0.632119 0.579311
Si Si6 0.873143 0.841713 0.937331
Si Si7 0.078577 0.335933 0.634359
Si Si8 0.000000 0.554064 0.750000
O O1 0.139129 0.324588 0.185760
O O2 0.174587 0.594387 0.135039
O O3 0.222644 0.432679 0.296826
O O4 0.129155 0.568455 0.315993
O O5 0.071397 0.927081 0.861302
O O6 0.040129 0.651767 0.825496
O O7 0.108988 0.737401 0.003678
O O8 0.643685 0.380014 0.178500
O O9 0.714508 0.320551 0.035597
O O10 0.101204 0.095852 0.325900
O O11 0.067046 0.818695 0.294424
O O12 0.207635 0.500000 0.500000
O O13 0.184142 0.765539 0.578715
O O14 0.908145 0.725226 0.012302
O O15 0.865204 0.000000 0.000000
O O16 0.030570 0.448566 0.661610
#
# Coordination Sequence:
#
# PCOD9319099 Si02
#       8
#     8   8   8   8   8   8   8   4
#     4  10  22  41  64  92 143 183 239 303 352 429
#     4  11  22  45  68 103 140 187 245 302 358 435
#     4  11  26  41  65 100 152 195 237 306 357 428
#     4  10  21  41  67  96 146 180 227 304 362 420
#     4  12  23  38  67 103 138 195 248 287 363 432
#     4  10  21  39  65  99 139 186 236 296 358 429
#     4   9  20  43  66 102 138 175 230 310 353 435
#     4  10  24  44  80 104 140 192 248 292 386 434
#
# _framework density 22.592116000000001
#
# number of rings (size 3 to 8) (size 9 to 14) (size 15 to 20)
#    0.000    1.600    2.667    1.600    1.867    2.667 
#    0.000    8.000    0.000    8.000    0.000    0.000 
#    0.000    0.000    0.000    0.000    0.000    0.000 
#
# Total GULP energy -167227.547183 kJ/mol
# GULP energy per Si atom -5574.251573 kJ/mol
# Density = 2.254070 g / cm^3
# Si number density = 22.592116 Si / 1000 Ang^3
#
#
#
# Elastic Constant Matrix: (Units=GPa)
#
#
# Indices 1 2 3 4 5 6 
#
# 1 69.3375 20.8191 19.3668 0.0000 0.0000 0.0000
# 2 20.8191 87.2599 17.6103 0.0000 0.0000 0.0000
# 3 19.3668 17.6103 74.7503 0.0000 0.0000 0.0000
# 4 0.0000 0.0000 0.0000 40.3435 0.0000 0.0000
# 5 0.0000 0.0000 0.0000 0.0000 22.9743 0.0000
# 6 0.0000 0.0000 0.0000 0.0000 0.0000 16.3594
#
#
#
# Elastic Compliance Matrix: (Units=1/GPa)
#
#
# Indices 1 2 3 4 5 6 
#
# 1 0.016356 -0.003199 -0.003484 0.000000 0.000000 0.000000
# 2 -0.003199 0.012658 -0.002153 0.000000 0.000000 0.000000
# 3 -0.003484 -0.002153 0.014788 0.000000 0.000000 0.000000
# 4 0.000000 0.000000 0.000000 0.024787 0.000000 0.000000
# 5 0.000000 0.000000 0.000000 0.000000 0.043527 0.000000
# 6 0.000000 0.000000 0.000000 0.000000 0.000000 0.061127
#
#
# Mechanical properties :
#
#
# Convention : Reuss Voigt Hill
#
# Bulk Modulus (GPa) = 38.27173 38.54891 38.41032
# Shear Modulus (GPa) = 25.04699 27.50554 26.27627
#
# Velocity S-wave (km/s) = 3.33327 3.49303 3.41408
# Velocity P-wave (km/s) = 5.63838 5.77654 5.70788
#
# Compressibility (1/GPa) = 0.02612895
#
# Stress axis : x y z
#
# Youngs Moduli (GPa) = 61.14009 79.00238 67.62351
#
# Poissons Ratio (x) = 0.25275 0.23559
# Poissons Ratio (y) = 0.19560 0.14560
# Poissons Ratio (z) = 0.21301 0.17011
#
# Static dielectric constant tensor:
#      x y z
#    x 1.837880 0.000000 0.000000 
#    y 0.000000 1.070020 0.000000 
#    z 0.000000 0.000000 2.050420 
# 
# From -- ./inp_files/17088.got.cif
#   From: 2010.05.17/outbox.cif.g08.bks.cpg/sg20_9_cif.got.tgz:17088.got - 2010.06.03 22:52:26.
