data_PCOD9319733
_publ_section_title
;
Structure prediction by ZEFSAII (Michael W. Deem and Ramdas Pophale) SiO2 
 PCOD9319733
Probable space group: C 2 2 21
;
_chemical_formula_sum "Si O2"
_cell_formula_units_Z 64
_cell_length_a 17.866135
_cell_length_b 5.342613
_cell_length_c 30.753244
_cell_angle_alpha 90.000000
_cell_angle_beta 90.000000
_cell_angle_gamma 90.000000
_cell_volume 2935.453883
_symmetry_space_group_name_H-M "C 2 2 21"
_symmetry_group_IT_number 20
_symmetry_cell_setting 'orthorhombic'
loop_
_space_group_symop_operation_xyz
x,y,z
-x,-y,1/2+z
x,-y,-z
-x,y,1/2-z
1/2+x,1/2+y,z
1/2-x,1/2-y,1/2+z
1/2+x,1/2-y,-z
1/2-x,1/2+y,1/2-z
loop_
_atom_site_type_symbol
_atom_site_label
_atom_site_fract_x
_atom_site_fract_y
_atom_site_fract_z
Si Si1 0.342741 0.041343 0.086541
Si Si2 0.802665 0.112748 0.362764
Si Si3 0.534707 0.894351 0.208222
Si Si4 0.824033 0.744198 0.286344
Si Si5 0.309645 0.536835 0.808811
Si Si6 0.445556 0.227987 0.156693
Si Si7 0.591361 0.564209 0.450680
Si Si8 0.039223 0.104178 0.117411
O O1 0.396687 0.033776 0.129038
O O2 0.364381 0.317728 0.067803
O O3 0.259763 0.002347 0.105243
O O4 0.360013 0.815700 0.054142
O O5 0.839387 0.941160 0.324720
O O6 0.753423 0.320927 0.337578
O O7 0.875085 0.174262 0.391716
O O8 0.500000 0.754366 0.250000
O O9 0.526406 0.749085 0.162983
O O10 0.618040 0.010905 0.211369
O O11 0.476714 0.122483 0.201352
O O12 0.735014 0.707815 0.295540
O O13 0.827004 0.837209 0.237251
O O14 0.386412 0.548065 0.834945
O O15 0.517359 0.317981 0.129885
O O16 0.572009 0.500000 0.500000
O O17 0.517785 0.634980 0.422401
#
# Coordination Sequence:
#
# PCOD9319733 Si02
#       8
#     8   8   8   8   8   8   8   8
#     4  10  24  43  71 103 131 171 217 271 342 410
#     4  11  24  39  60  89 132 176 214 284 339 392
#     4  12  23  36  59  92 132 180 234 281 331 390
#     4  12  23  35  57  86 129 176 237 284 326 384
#     4  11  23  36  55  84 122 178 237 274 324 377
#     4  10  22  39  57  87 129 173 219 276 322 396
#     4  11  24  48  77 103 132 169 220 279 345 422
#     4  11  24  41  63  95 130 173 222 277 342 401
#
# _framework density 21.802420999999999
#
# number of rings (size 3 to 8) (size 9 to 14) (size 15 to 20)
#    0.000    1.000    6.250    0.375    5.250    2.500 
#    0.000    1.250    0.000    0.000    0.000    0.000 
#    0.000    0.000    0.000    0.000    0.000    0.000 
#
# Total GULP energy -178324.105150 kJ/mol
# GULP energy per Si atom -5572.628286 kJ/mol
# Density = 2.175280 g / cm^3
# Si number density = 21.802421 Si / 1000 Ang^3
#
#
#
# Elastic Constant Matrix: (Units=GPa)
#
#
# Indices 1 2 3 4 5 6 
#
# 1 121.8125 20.8305 26.4444 0.0000 0.0000 0.0000
# 2 20.8305 51.2833 9.0219 0.0000 0.0000 0.0000
# 3 26.4444 9.0219 87.7804 0.0000 0.0000 0.0000
# 4 0.0000 0.0000 0.0000 28.5354 0.0000 0.0000
# 5 0.0000 0.0000 0.0000 0.0000 22.4105 0.0000
# 6 0.0000 0.0000 0.0000 0.0000 0.0000 24.5668
#
#
#
# Elastic Compliance Matrix: (Units=1/GPa)
#
#
# Indices 1 2 3 4 5 6 
#
# 1 0.009317 -0.003351 -0.002462 0.000000 0.000000 0.000000
# 2 -0.003351 0.021064 -0.001155 0.000000 0.000000 0.000000
# 3 -0.002462 -0.001155 0.012253 0.000000 0.000000 0.000000
# 4 0.000000 0.000000 0.000000 0.035044 0.000000 0.000000
# 5 0.000000 0.000000 0.000000 0.000000 0.044622 0.000000
# 6 0.000000 0.000000 0.000000 0.000000 0.000000 0.040705
#
#
# Mechanical properties :
#
#
# Convention : Reuss Voigt Hill
#
# Bulk Modulus (GPa) = 34.84841 41.49665 38.17253
# Shear Modulus (GPa) = 26.80847 28.74116 27.77481
#
# Velocity S-wave (km/s) = 3.51038 3.63472 3.57309
# Velocity P-wave (km/s) = 5.69639 6.05717 5.87954
#
# Compressibility (1/GPa) = 0.02869572
#
# Stress axis : x y z
#
# Youngs Moduli (GPa) = 107.33098 47.47435 81.61527
#
# Poissons Ratio (x) = 0.15910 0.20097
# Poissons Ratio (y) = 0.35969 0.09429
# Poissons Ratio (z) = 0.26429 0.05485
#
# Static dielectric constant tensor:
#      x y z
#    x 1.841350 0.000000 0.000000 
#    y 0.000000 1.959050 0.000000 
#    z 0.000000 0.000000 1.817770 
# 
# From -- ./inp_files/30850.got.cif
#   From: 2010.05.17/outbox.cif.g08.bks.cpg/sg20_16_cif.got.tgz:30850.got - 2010.06.03 22:52:26.
