data_PCOD9319089
_publ_section_title
;
Structure prediction by ZEFSAII (Michael W. Deem and Ramdas Pophale) SiO2 
 PCOD9319089
Probable space group: C 2 2 21
;
_chemical_formula_sum "Si O2"
_cell_formula_units_Z 52
_cell_length_a 9.589015
_cell_length_b 17.141165
_cell_length_c 16.452953
_cell_angle_alpha 90.000000
_cell_angle_beta 90.000000
_cell_angle_gamma 90.000000
_cell_volume 2704.320688
_symmetry_space_group_name_H-M "C 2 2 21"
_symmetry_group_IT_number 20
_symmetry_cell_setting 'orthorhombic'
loop_
_space_group_symop_operation_xyz
x,y,z
-x,-y,1/2+z
x,-y,-z
-x,y,1/2-z
1/2+x,1/2+y,z
1/2-x,1/2-y,1/2+z
1/2+x,1/2-y,-z
1/2-x,1/2+y,1/2-z
loop_
_atom_site_type_symbol
_atom_site_label
_atom_site_fract_x
_atom_site_fract_y
_atom_site_fract_z
Si Si1 0.290977 0.939611 0.218693
Si Si2 0.027334 0.000000 0.000000
Si Si3 0.318308 0.262306 0.554558
Si Si4 0.500000 0.638970 0.750000
Si Si5 0.540497 0.117352 0.874282
Si Si6 0.992468 0.500000 0.000000
Si Si7 0.238608 0.425735 0.613042
Si Si8 0.543147 0.332282 0.435285
O O1 0.372984 0.914011 0.298285
O O2 0.377368 0.897417 0.145911
O O3 0.135058 0.911031 0.227423
O O4 0.290829 0.031077 0.197728
O O5 0.128879 0.967812 0.928966
O O6 0.951223 0.076068 0.961901
O O7 0.419569 0.204522 0.603903
O O8 0.269250 0.334865 0.609581
O O9 0.405725 0.296851 0.478928
O O10 0.180300 0.212932 0.533605
O O11 0.464358 0.678997 0.837130
O O12 0.578510 0.060439 0.947641
O O13 0.892967 0.447334 0.943298
#
# Coordination Sequence:
#
# PCOD9319089 Si02
#       8
#     8   4   8   4   8   4   8   8
#     4  10  21  40  66  88 122 170 213 257 323 392
#     4   9  18  37  64  92 118 168 216 256 298 404
#     4  11  23  40  62 100 128 168 212 272 327 382
#     4  12  22  42  66  92 128 176 216 270 320 396
#     4  10  21  39  65  94 125 165 217 264 322 388
#     4   9  18  35  64  88 120 168 212 252 304 390
#     4   9  18  36  63  89 122 164 208 255 322 379
#     4  11  24  40  68  93 134 170 221 265 334 385
#
# _framework density 19.228487999999999
#
# number of rings (size 3 to 8) (size 9 to 14) (size 15 to 20)
#    0.000    1.846    3.077    0.923    4.308    0.615 
#    0.000    6.154    0.000    0.000    0.000    0.000 
#    0.000    0.000    0.000    0.000    0.000    0.000 
#
# Total GULP energy -144956.370968 kJ/mol
# GULP energy per Si atom -5575.245037 kJ/mol
# Density = 1.918472 g / cm^3
# Si number density = 19.228488 Si / 1000 Ang^3
#
#
#
# Elastic Constant Matrix: (Units=GPa)
#
#
# Indices 1 2 3 4 5 6 
#
# 1 74.7788 31.2966 4.0500 0.0000 0.0000 0.0000
# 2 31.2966 145.9868 37.6834 0.0000 0.0000 0.0000
# 3 4.0500 37.6834 80.4415 0.0000 0.0000 0.0000
# 4 0.0000 0.0000 0.0000 26.3582 0.0000 0.0000
# 5 0.0000 0.0000 0.0000 0.0000 17.4237 0.0000
# 6 0.0000 0.0000 0.0000 0.0000 0.0000 28.8568
#
#
#
# Elastic Compliance Matrix: (Units=1/GPa)
#
#
# Indices 1 2 3 4 5 6 
#
# 1 0.014741 -0.003377 0.000840 0.000000 0.000000 0.000000
# 2 -0.003377 0.008566 -0.003843 0.000000 0.000000 0.000000
# 3 0.000840 -0.003843 0.014189 0.000000 0.000000 0.000000
# 4 0.000000 0.000000 0.000000 0.037939 0.000000 0.000000
# 5 0.000000 0.000000 0.000000 0.000000 0.057393 0.000000
# 6 0.000000 0.000000 0.000000 0.000000 0.000000 0.034654
#
#
# Mechanical properties :
#
#
# Convention : Reuss Voigt Hill
#
# Bulk Modulus (GPa) = 40.42680 49.69634 45.06157
# Shear Modulus (GPa) = 26.52711 29.73954 28.13332
#
# Velocity S-wave (km/s) = 3.71829 3.93700 3.82921
# Velocity P-wave (km/s) = 6.28525 6.82407 6.56019
#
# Compressibility (1/GPa) = 0.02473607
#
# Stress axis : x y z
#
# Youngs Moduli (GPa) = 67.83994 116.74377 70.47591
#
# Poissons Ratio (x) = 0.39423 -0.05918
# Poissons Ratio (y) = 0.22909 0.27082
# Poissons Ratio (z) = -0.05697 0.44861
#
# Static dielectric constant tensor:
#      x y z
#    x 1.696940 0.000000 0.000000 
#    y 0.000000 1.651840 0.000000 
#    z 0.000000 0.000000 1.697070 
# 
# From -- ./inp_files/23732.got.cif
#   From: 2010.05.17/outbox.cif.g08.bks.cpg/sg20_12_cif.got.tgz:23732.got - 2010.06.03 22:52:26.
