data_PCOD9319630
_publ_section_title
;
Structure prediction by ZEFSAII (Michael W. Deem and Ramdas Pophale) SiO2 
 PCOD9319630
Probable space group: C 2 2 21
;
_chemical_formula_sum "Si O2"
_cell_formula_units_Z 44
_cell_length_a 7.389253
_cell_length_b 17.127723
_cell_length_c 13.789286
_cell_angle_alpha 90.000000
_cell_angle_beta 90.000000
_cell_angle_gamma 90.000000
_cell_volume 1745.186909
_symmetry_space_group_name_H-M "C 2 2 21"
_symmetry_group_IT_number 20
_symmetry_cell_setting 'orthorhombic'
loop_
_space_group_symop_operation_xyz
x,y,z
-x,-y,1/2+z
x,-y,-z
-x,y,1/2-z
1/2+x,1/2+y,z
1/2-x,1/2-y,1/2+z
1/2+x,1/2-y,-z
1/2-x,1/2+y,1/2-z
loop_
_atom_site_type_symbol
_atom_site_label
_atom_site_fract_x
_atom_site_fract_y
_atom_site_fract_z
Si Si1 0.956693 0.039628 0.399646
Si Si2 0.660360 0.054139 0.696730
Si Si3 0.862483 0.367376 0.001190
Si Si4 0.401200 0.753901 0.601915
Si Si5 0.000000 0.162483 0.250000
Si Si6 0.749280 0.786120 0.197150
O O1 0.775275 0.086117 0.433482
O O2 0.069974 0.099114 0.331886
O O3 0.029844 0.000000 0.500000
O O4 0.858949 0.976835 0.330079
O O5 0.500000 0.006543 0.750000
O O6 0.584864 0.080390 0.592397
O O7 0.692767 0.130210 0.763738
O O8 0.741466 0.297131 0.044366
O O9 0.035481 0.332643 0.948207
O O10 0.590937 0.707991 0.620201
O O11 0.323273 0.761992 0.709425
O O12 0.088346 0.226700 0.174953
#
# Coordination Sequence:
#
# PCOD9319630 Si02
#       6
#     8   8   8   8   4   8
#     4  10  24  42  62  95 140 182 223 280 345 414
#     4  10  22  40  65  91 136 179 223 272 348 407
#     4  10  22  39  63  96 135 169 223 278 342 395
#     4  10  22  36  63 100 132 165 217 292 329 396
#     4  12  22  42  74  96 138 182 234 294 340 410
#     4  10  22  40  65 103 127 172 238 277 336 401
#
# _framework density 25.212199999999999
#
# number of rings (size 3 to 8) (size 9 to 14) (size 15 to 20)
#    0.000    1.818    2.727    0.000    7.636    5.818 
#    0.000    1.818    0.000    0.000    0.000    0.000 
#    0.000    0.000    0.000    0.000    0.000    0.000 
#
# Total GULP energy -122656.636754 kJ/mol
# GULP energy per Si atom -5575.301671 kJ/mol
# Density = 2.515482 g / cm^3
# Si number density = 25.212200 Si / 1000 Ang^3
#
#
#
# Elastic Constant Matrix: (Units=GPa)
#
#
# Indices 1 2 3 4 5 6 
#
# 1 49.4468 2.1814 23.6234 0.0000 0.0000 0.0000
# 2 2.1814 59.9916 13.9694 0.0000 0.0000 0.0000
# 3 23.6234 13.9694 70.7154 0.0000 0.0000 0.0000
# 4 0.0000 0.0000 0.0000 39.6841 0.0000 0.0000
# 5 0.0000 0.0000 0.0000 0.0000 47.7339 0.0000
# 6 0.0000 0.0000 0.0000 0.0000 0.0000 10.1233
#
#
#
# Elastic Compliance Matrix: (Units=1/GPa)
#
#
# Indices 1 2 3 4 5 6 
#
# 1 0.024127 0.001048 -0.008267 0.000000 0.000000 0.000000
# 2 0.001048 0.017518 -0.003811 0.000000 0.000000 0.000000
# 3 -0.008267 -0.003811 0.017656 0.000000 0.000000 0.000000
# 4 0.000000 0.000000 0.000000 0.025199 0.000000 0.000000
# 5 0.000000 0.000000 0.000000 0.000000 0.020949 0.000000
# 6 0.000000 0.000000 0.000000 0.000000 0.000000 0.098782
#
#
# Mechanical properties :
#
#
# Convention : Reuss Voigt Hill
#
# Bulk Modulus (GPa) = 26.85193 28.85578 27.85385
# Shear Modulus (GPa) = 20.94638 28.86691 24.90664
#
# Velocity S-wave (km/s) = 2.88549 3.38739 3.14647
# Velocity P-wave (km/s) = 4.66636 5.17390 4.92667
#
# Compressibility (1/GPa) = 0.03724128
#
# Stress axis : x y z
#
# Youngs Moduli (GPa) = 41.44722 57.08337 56.63924
#
# Poissons Ratio (x) = -0.05981 0.46823
# Poissons Ratio (y) = -0.04342 0.21583
# Poissons Ratio (z) = 0.34264 0.21752
#
# Static dielectric constant tensor:
#      x y z
#    x 2.320070 0.000000 0.000000 
#    y 0.000000 2.047170 0.000000 
#    z 0.000000 0.000000 2.018820 
# 
# From -- ./inp_files/18760.got.cif
#   From: 2010.05.17/outbox.cif.g08.bks.cpg/sg20_10_cif.got.tgz:18760.got - 2010.06.03 22:52:26.
