data_PCOD9319562
_publ_section_title
;
Structure prediction by ZEFSAII (Michael W. Deem and Ramdas Pophale) SiO2 
 PCOD9319562
Probable space group: C 2 2 21
;
_chemical_formula_sum "Si O2"
_cell_formula_units_Z 52
_cell_length_a 21.337071
_cell_length_b 5.159811
_cell_length_c 20.448655
_cell_angle_alpha 90.000000
_cell_angle_beta 90.000000
_cell_angle_gamma 90.000000
_cell_volume 2251.299859
_symmetry_space_group_name_H-M "C 2 2 21"
_symmetry_group_IT_number 20
_symmetry_cell_setting 'orthorhombic'
loop_
_space_group_symop_operation_xyz
x,y,z
-x,-y,1/2+z
x,-y,-z
-x,y,1/2-z
1/2+x,1/2+y,z
1/2-x,1/2-y,1/2+z
1/2+x,1/2-y,-z
1/2-x,1/2+y,1/2-z
loop_
_atom_site_type_symbol
_atom_site_label
_atom_site_fract_x
_atom_site_fract_y
_atom_site_fract_z
Si Si1 0.359670 0.427744 0.644299
Si Si2 0.143356 0.901173 0.619274
Si Si3 0.963035 0.403267 0.185337
Si Si4 0.539779 0.843368 0.060074
Si Si5 0.433300 0.500000 0.000000
Si Si6 0.358012 0.927408 0.734061
Si Si7 0.217422 0.601239 0.354153
O O1 0.412293 0.368560 0.589855
O O2 0.367154 0.195793 0.696359
O O3 0.288038 0.410255 0.620954
O O4 0.362686 0.699066 0.682023
O O5 0.083204 0.823061 0.662003
O O6 0.112968 0.052233 0.558971
O O7 0.177113 0.622081 0.608865
O O8 0.194032 0.103089 0.644122
O O9 0.913699 0.612923 0.212833
O O10 0.000000 0.323178 0.250000
O O11 0.008594 0.477716 0.124941
O O12 0.479796 0.720997 0.024160
O O13 0.571108 0.000000 0.000000
O O14 0.295169 0.959942 0.777206
#
# Coordination Sequence:
#
# PCOD9319562 Si02
#       7
#     8   8   8   8   4   8   8
#     4  12  25  46  72 105 153 186 239 300 376 444
#     4  10  24  44  71 103 136 189 241 297 354 419
#     4  10  21  45  72 111 140 186 245 307 356 443
#     4  11  27  47  71 107 148 204 236 305 376 442
#     4  10  26  46  72  94 144 190 250 300 350 432
#     4  11  23  42  72 110 140 187 234 307 368 424
#     4  11  23  44  72 109 143 185 241 299 365 431
#
# _framework density 23.097767999999999
#
# number of rings (size 3 to 8) (size 9 to 14) (size 15 to 20)
#    0.000    1.231    1.538    3.692    8.615    0.000 
#    9.692    0.000    0.000    0.000    0.000    0.000 
#    0.000    0.000    0.000    0.000    0.000    0.000 
#
# Total GULP energy -145096.921768 kJ/mol
# GULP energy per Si atom -5580.650837 kJ/mol
# Density = 2.304520 g / cm^3
# Si number density = 23.097768 Si / 1000 Ang^3
#
#
#
# Elastic Constant Matrix: (Units=GPa)
#
#
# Indices 1 2 3 4 5 6 
#
# 1 105.0077 5.2671 27.3755 0.0000 0.0000 0.0000
# 2 5.2671 53.9591 2.6524 0.0000 0.0000 0.0000
# 3 27.3755 2.6524 93.8401 0.0000 0.0000 0.0000
# 4 0.0000 0.0000 0.0000 26.5335 0.0000 0.0000
# 5 0.0000 0.0000 0.0000 0.0000 14.1203 0.0000
# 6 0.0000 0.0000 0.0000 0.0000 0.0000 25.0131
#
#
#
# Elastic Compliance Matrix: (Units=1/GPa)
#
#
# Indices 1 2 3 4 5 6 
#
# 1 0.010347 -0.000863 -0.002994 0.000000 0.000000 0.000000
# 2 -0.000863 0.018630 -0.000275 0.000000 0.000000 0.000000
# 3 -0.002994 -0.000275 0.011538 0.000000 0.000000 0.000000
# 4 0.000000 0.000000 0.000000 0.037688 0.000000 0.000000
# 5 0.000000 0.000000 0.000000 0.000000 0.070820 0.000000
# 6 0.000000 0.000000 0.000000 0.000000 0.000000 0.039979
#
#
# Mechanical properties :
#
#
# Convention : Reuss Voigt Hill
#
# Bulk Modulus (GPa) = 31.00648 35.93299 33.46973
# Shear Modulus (GPa) = 24.03658 27.63417 25.83538
#
# Velocity S-wave (km/s) = 3.22940 3.46265 3.34806
# Velocity P-wave (km/s) = 5.23054 5.61937 5.42844
#
# Compressibility (1/GPa) = 0.03225132
#
# Stress axis : x y z
#
# Youngs Moduli (GPa) = 96.64688 53.67606 86.67281
#
# Poissons Ratio (x) = 0.04631 0.25950
# Poissons Ratio (y) = 0.08339 0.02382
# Poissons Ratio (z) = 0.28937 0.01475
#
# Static dielectric constant tensor:
#      x y z
#    x 1.933050 0.000000 0.000000 
#    y 0.000000 1.890480 0.000000 
#    z 0.000000 0.000000 1.969480 
# 
# From -- ./inp_files/27910.got.cif
#   From: 2010.05.17/outbox.cif.g08.bks.cpg/sg20_14_cif.got.tgz:27910.got - 2010.06.03 22:52:26.
