data_PCOD9319618
_publ_section_title
;
Structure prediction by ZEFSAII (Michael W. Deem and Ramdas Pophale) SiO2 
 PCOD9319618
Probable space group: C 2 2 21
;
_chemical_formula_sum "Si O2"
_cell_formula_units_Z 56
_cell_length_a 5.152384
_cell_length_b 27.085795
_cell_length_c 16.816967
_cell_angle_alpha 90.000000
_cell_angle_beta 90.000000
_cell_angle_gamma 90.000000
_cell_volume 2346.915656
_symmetry_space_group_name_H-M "C 2 2 21"
_symmetry_group_IT_number 20
_symmetry_cell_setting 'orthorhombic'
loop_
_space_group_symop_operation_xyz
x,y,z
-x,-y,1/2+z
x,-y,-z
-x,y,1/2-z
1/2+x,1/2+y,z
1/2-x,1/2-y,1/2+z
1/2+x,1/2-y,-z
1/2-x,1/2+y,1/2-z
loop_
_atom_site_type_symbol
_atom_site_label
_atom_site_fract_x
_atom_site_fract_y
_atom_site_fract_z
Si Si1 0.238246 0.778558 0.197389
Si Si2 0.382671 0.445441 0.024199
Si Si3 0.925991 0.281346 0.020604
Si Si4 0.191879 0.869168 0.946182
Si Si5 0.688034 0.329991 0.675107
Si Si6 0.051776 0.429113 0.866412
Si Si7 0.267032 0.032494 0.700249
O O1 0.500000 0.780008 0.250000
O O2 0.323620 0.795544 0.109135
O O3 0.161092 0.721295 0.178860
O O4 0.000000 0.800054 0.250000
O O5 0.274534 0.446003 0.112693
O O6 0.491980 0.500000 0.000000
O O7 0.580938 0.400336 0.018430
O O8 0.171686 0.435429 0.955082
O O9 0.706655 0.244522 0.983617
O O10 0.920133 0.332653 0.971521
O O11 0.257010 0.913321 0.883681
O O12 0.987207 0.834007 0.903387
O O13 0.500000 0.329457 0.750000
O O14 0.842986 0.380411 0.675248
O O15 0.132467 0.477288 0.820094
O O16 0.500000 0.056949 0.750000
O O17 0.000000 0.031884 0.750000
#
# Coordination Sequence:
#
# PCOD9319618 Si02
#       7
#     8   8   8   8   8   8   8
#     4  11  24  42  66  95 135 183 226 284 350 403
#     4   9  23  45  65  98 138 179 229 278 342 412
#     4  12  25  45  71 103 141 185 238 285 343 422
#     4  11  24  41  72 100 137 185 234 282 342 416
#     4  10  22  36  57  99 137 171 216 283 349 406
#     4  10  23  38  66  99 133 179 223 285 340 419
#     4  11  26  43  70 100 136 182 226 285 351 408
#
# _framework density 23.861104999999998
#
# number of rings (size 3 to 8) (size 9 to 14) (size 15 to 20)
#    0.000    1.429    1.429    2.143   18.000    0.571 
#    0.000    0.714    0.000    0.000    0.000    0.000 
#    0.000    0.000    0.000    0.000    0.000    0.000 
#
# Total GULP energy -156465.925235 kJ/mol
# GULP energy per Si atom -5588.068758 kJ/mol
# Density = 2.380680 g / cm^3
# Si number density = 23.861105 Si / 1000 Ang^3
#
#
#
# Elastic Constant Matrix: (Units=GPa)
#
#
# Indices 1 2 3 4 5 6 
#
# 1 90.6292 11.2967 39.1144 0.0000 0.0000 0.0000
# 2 11.2967 45.4481 14.8714 0.0000 0.0000 0.0000
# 3 39.1144 14.8714 125.3252 0.0000 0.0000 0.0000
# 4 0.0000 0.0000 0.0000 18.0941 0.0000 0.0000
# 5 0.0000 0.0000 0.0000 0.0000 34.7533 0.0000
# 6 0.0000 0.0000 0.0000 0.0000 0.0000 40.9818
#
#
#
# Elastic Compliance Matrix: (Units=1/GPa)
#
#
# Indices 1 2 3 4 5 6 
#
# 1 0.012919 -0.001968 -0.003798 0.000000 0.000000 0.000000
# 2 -0.001968 0.023192 -0.002138 0.000000 0.000000 0.000000
# 3 -0.003798 -0.002138 0.009418 0.000000 0.000000 0.000000
# 4 0.000000 0.000000 0.000000 0.055267 0.000000 0.000000
# 5 0.000000 0.000000 0.000000 0.000000 0.028774 0.000000
# 6 0.000000 0.000000 0.000000 0.000000 0.000000 0.024401
#
#
# Mechanical properties :
#
#
# Convention : Reuss Voigt Hill
#
# Bulk Modulus (GPa) = 33.64707 43.55193 38.59950
# Shear Modulus (GPa) = 27.82632 31.84054 29.83343
#
# Velocity S-wave (km/s) = 3.41864 3.65692 3.53979
# Velocity P-wave (km/s) = 5.45111 6.01021 5.73748
#
# Compressibility (1/GPa) = 0.02972027
#
# Stress axis : x y z
#
# Youngs Moduli (GPa) = 77.40749 43.11863 106.17517
#
# Poissons Ratio (x) = 0.08487 0.40330
# Poissons Ratio (y) = 0.15235 0.22697
# Poissons Ratio (z) = 0.29402 0.09218
#
# Static dielectric constant tensor:
#      x y z
#    x 1.970930 0.000000 0.000000 
#    y 0.000000 1.883050 0.000000 
#    z 0.000000 0.000000 1.956480 
# 
# From -- ./inp_files/17948.got.cif
#   From: 2010.05.17/outbox.cif.g08.bks.cpg/sg20_9_cif.got.tgz:17948.got - 2010.06.03 22:52:26.
