data_PCOD9319156
_publ_section_title
;
Structure prediction by ZEFSAII (Michael W. Deem and Ramdas Pophale) SiO2 
 PCOD9319156
Probable space group: C 2 2 21
;
_chemical_formula_sum "Si O2"
_cell_formula_units_Z 60
_cell_length_a 20.925097
_cell_length_b 20.416120
_cell_length_c 5.581847
_cell_angle_alpha 90.000000
_cell_angle_beta 90.000000
_cell_angle_gamma 90.000000
_cell_volume 2384.616901
_symmetry_space_group_name_H-M "C 2 2 21"
_symmetry_group_IT_number 20
_symmetry_cell_setting 'orthorhombic'
loop_
_space_group_symop_operation_xyz
x,y,z
-x,-y,1/2+z
x,-y,-z
-x,y,1/2-z
1/2+x,1/2+y,z
1/2-x,1/2-y,1/2+z
1/2+x,1/2-y,-z
1/2-x,1/2+y,1/2-z
loop_
_atom_site_type_symbol
_atom_site_label
_atom_site_fract_x
_atom_site_fract_y
_atom_site_fract_z
Si Si1 0.525422 0.577464 0.501079
Si Si2 0.833730 0.725657 0.039824
Si Si3 0.578050 0.898747 0.020870
Si Si4 0.765968 0.000000 0.500000
Si Si5 0.181723 0.797215 0.962366
Si Si6 0.560123 0.887457 0.528611
Si Si7 0.334392 0.585333 0.162783
Si Si8 0.289072 0.926629 0.386878
O O1 0.506758 0.500000 0.500000
O O2 0.500000 0.606035 0.250000
O O3 0.601396 0.582227 0.482719
O O4 0.500000 0.605964 0.750000
O O5 0.841039 0.768894 0.282926
O O6 0.759255 0.704025 0.039619
O O7 0.887224 0.669230 0.047088
O O8 0.841389 0.760672 0.781258
O O9 0.571554 0.931368 0.762670
O O10 0.512120 0.857542 0.993638
O O11 0.569658 0.926802 0.284855
O O12 0.652317 0.880263 0.042381
O O13 0.810862 0.017529 0.278276
O O14 0.722008 0.057572 0.607177
O O15 0.158999 0.870168 0.898979
O O16 0.273848 0.605329 0.001550
O O17 0.302051 0.000000 0.500000
#
# Coordination Sequence:
#
# PCOD9319156 Si02
#       8
#     8   8   8   4   8   8   8   8
#     4  10  23  40  65  93 126 171 215 258 313 401
#     4  10  21  40  61  99 132 171 221 290 344 404
#     4  10  22  38  66  97 123 187 233 274 343 411
#     4  10  24  38  66 102 146 180 228 294 352 408
#     4  10  23  37  66  97 134 171 219 282 354 408
#     4  10  21  40  64  92 128 169 238 286 334 415
#     4  11  24  41  67 102 135 179 223 281 346 414
#     4  10  23  39  61  99 142 181 230 296 342 402
#
# _framework density 25.161273999999999
#
# number of rings (size 3 to 8) (size 9 to 14) (size 15 to 20)
#    0.000    1.867    0.000    2.800   12.133    1.067 
#    0.000    2.667   11.733    0.000    0.000    0.000 
#    0.000    0.000    0.000    0.000    0.000    0.000 
#
# Total GULP energy -167265.189078 kJ/mol
# GULP energy per Si atom -5575.506303 kJ/mol
# Density = 2.510401 g / cm^3
# Si number density = 25.161274 Si / 1000 Ang^3
#
#
#
# Elastic Constant Matrix: (Units=GPa)
#
#
# Indices 1 2 3 4 5 6 
#
# 1 167.6367 13.1840 74.3467 0.0000 0.0000 0.0000
# 2 13.1840 66.6548 26.7387 0.0000 0.0000 0.0000
# 3 74.3467 26.7387 234.9965 0.0000 0.0000 0.0000
# 4 0.0000 0.0000 0.0000 -0.8254 0.0000 0.0000
# 5 0.0000 0.0000 0.0000 0.0000 39.9716 0.0000
# 6 0.0000 0.0000 0.0000 0.0000 0.0000 -0.3768
#
#
#
# Elastic Compliance Matrix: (Units=1/GPa)
#
#
# Indices 1 2 3 4 5 6 
#
# 1 0.006956 -0.000517 -0.002142 0.000000 0.000000 0.000000
# 2 -0.000517 0.015759 -0.001630 0.000000 0.000000 0.000000
# 3 -0.002142 -0.001630 0.005118 0.000000 0.000000 0.000000
# 4 0.000000 0.000000 0.000000 -1.211468 0.000000 0.000000
# 5 0.000000 0.000000 0.000000 0.000000 0.025018 0.000000
# 6 0.000000 0.000000 0.000000 0.000000 0.000000 -2.653635
#
#
# Mechanical properties :
#
#
# Convention : Reuss Voigt Hill
#
# Bulk Modulus (GPa) = 51.93010 77.53630 64.73320
# Shear Modulus (GPa) = -1.31674 31.42177 15.05252
#
# Velocity S-wave (km/s) = -0.72419 3.53769 2.44855
# Velocity P-wave (km/s) = 4.47039 6.89707 5.81180
#
# Compressibility (1/GPa) = 0.01925666
#
# Stress axis : x y z
#
# Youngs Moduli (GPa) = 143.76446 63.45748 195.37231
#
# Poissons Ratio (x) = 0.03278 0.41846
# Poissons Ratio (y) = 0.07427 0.31838
# Poissons Ratio (z) = 0.30792 0.10341
#
# Static dielectric constant tensor:
#      x y z
#    x 2.016250 0.000000 0.000000 
#    y 0.000000 2.044680 0.000000 
#    z 0.000000 0.000000 2.045220 
# 
# From -- ./inp_files/2829.got.cif
#   From: 2010.05.17/outbox.cif.g08.bks.cpg/sg20_2_cif.got.tgz:2829.got - 2010.06.03 22:52:26.
