data_PCOD9319567
_publ_section_title
;
Structure prediction by ZEFSAII (Michael W. Deem and Ramdas Pophale) SiO2 
 PCOD9319567
Probable space group: C 2 2 21
;
_chemical_formula_sum "Si O2"
_cell_formula_units_Z 48
_cell_length_a 5.242171
_cell_length_b 13.366203
_cell_length_c 30.882291
_cell_angle_alpha 90.000000
_cell_angle_beta 90.000000
_cell_angle_gamma 90.000000
_cell_volume 2163.857949
_symmetry_space_group_name_H-M "C 2 2 21"
_symmetry_group_IT_number 20
_symmetry_cell_setting 'orthorhombic'
loop_
_space_group_symop_operation_xyz
x,y,z
-x,-y,1/2+z
x,-y,-z
-x,y,1/2-z
1/2+x,1/2+y,z
1/2-x,1/2-y,1/2+z
1/2+x,1/2-y,-z
1/2-x,1/2+y,1/2-z
loop_
_atom_site_type_symbol
_atom_site_label
_atom_site_fract_x
_atom_site_fract_y
_atom_site_fract_z
Si Si1 0.809231 0.359619 0.622375
Si Si2 0.929257 0.941454 0.795633
Si Si3 0.926117 0.664079 0.902412
Si Si4 0.514985 0.974434 0.953641
Si Si5 0.930825 0.483270 0.173592
Si Si6 0.719044 0.276650 0.972873
O O1 0.610841 0.372324 0.662033
O O2 0.789994 0.246800 0.606218
O O3 0.779717 0.431315 0.580584
O O4 0.052582 0.414003 0.644413
O O5 0.000000 0.891572 0.750000
O O6 0.661069 0.999145 0.793447
O O7 0.153809 0.018555 0.806394
O O8 0.989016 0.609600 0.857430
O O9 0.873759 0.571123 0.934230
O O10 0.148983 0.721217 0.928120
O O11 0.313284 0.886934 0.961650
O O12 0.632835 0.000000 0.000000
O O13 0.459738 0.270573 0.001254
#
# Coordination Sequence:
#
# PCOD9319567 Si02
#       6
#     8   8   8   8   8   8
#     4   9  24  44  71 102 141 184 236 290 362 422
#     4  10  21  45  75 106 144 179 235 300 361 436
#     4  11  24  47  69 102 144 187 240 297 352 430
#     4  11  24  46  66 109 136 196 242 299 351 430
#     4   9  23  43  70 107 135 187 229 286 365 429
#     4  12  27  49  67 100 142 193 250 304 351 420
#
# _framework density 22.182601999999999
#
# number of rings (size 3 to 8) (size 9 to 14) (size 15 to 20)
#    1.000    0.667    1.667    1.500    4.667    2.667 
#    9.000    1.667    0.000    0.000    0.000    0.000 
#    0.000    0.000    0.000    0.000    0.000    0.000 
#
# Total GULP energy -133713.064592 kJ/mol
# GULP energy per Si atom -5571.377691 kJ/mol
# Density = 2.213211 g / cm^3
# Si number density = 22.182602 Si / 1000 Ang^3
#
#
#
# Elastic Constant Matrix: (Units=GPa)
#
#
# Indices 1 2 3 4 5 6 
#
# 1 79.5484 22.8684 39.1227 0.0000 0.0000 0.0000
# 2 22.8684 125.3062 38.3392 0.0000 0.0000 0.0000
# 3 39.1227 38.3392 122.4614 0.0000 0.0000 0.0000
# 4 0.0000 0.0000 0.0000 11.5390 0.0000 0.0000
# 5 0.0000 0.0000 0.0000 0.0000 18.6838 0.0000
# 6 0.0000 0.0000 0.0000 0.0000 0.0000 25.0780
#
#
#
# Elastic Compliance Matrix: (Units=1/GPa)
#
#
# Indices 1 2 3 4 5 6 
#
# 1 0.015139 -0.001419 -0.004392 0.000000 0.000000 0.000000
# 2 -0.001419 0.008959 -0.002351 0.000000 0.000000 0.000000
# 3 -0.004392 -0.002351 0.010305 0.000000 0.000000 0.000000
# 4 0.000000 0.000000 0.000000 0.086662 0.000000 0.000000
# 5 0.000000 0.000000 0.000000 0.000000 0.053522 0.000000
# 6 0.000000 0.000000 0.000000 0.000000 0.000000 0.039876
#
#
# Mechanical properties :
#
#
# Convention : Reuss Voigt Hill
#
# Bulk Modulus (GPa) = 55.31658 58.66408 56.99033
# Shear Modulus (GPa) = 21.11356 26.19255 23.65306
#
# Velocity S-wave (km/s) = 3.08848 3.43996 3.26895
# Velocity P-wave (km/s) = 6.14080 6.50240 6.32418
#
# Compressibility (1/GPa) = 0.01807776
#
# Stress axis : x y z
#
# Youngs Moduli (GPa) = 66.05445 111.62109 97.03850
#
# Poissons Ratio (x) = 0.15839 0.42621
# Poissons Ratio (y) = 0.09373 0.22818
# Poissons Ratio (z) = 0.29013 0.26247
#
# Static dielectric constant tensor:
#      x y z
#    x 1.818220 0.000000 0.000000 
#    y 0.000000 1.810720 0.000000 
#    z 0.000000 0.000000 1.925280 
# 
# From -- ./inp_files/30703.got.cif
#   From: 2010.05.17/outbox.cif.g08.bks.cpg/sg20_16_cif.got.tgz:30703.got - 2010.06.03 22:52:26.
