data_PCOD9319159
_publ_section_title
;
Structure prediction by ZEFSAII (Michael W. Deem and Ramdas Pophale) SiO2 
 PCOD9319159
Probable space group: C 2 2 21
;
_chemical_formula_sum "Si O2"
_cell_formula_units_Z 64
_cell_length_a 29.746818
_cell_length_b 8.044022
_cell_length_c 11.732968
_cell_angle_alpha 90.000000
_cell_angle_beta 90.000000
_cell_angle_gamma 90.000000
_cell_volume 2807.512200
_symmetry_space_group_name_H-M "C 2 2 21"
_symmetry_group_IT_number 20
_symmetry_cell_setting 'orthorhombic'
loop_
_space_group_symop_operation_xyz
x,y,z
-x,-y,1/2+z
x,-y,-z
-x,y,1/2-z
1/2+x,1/2+y,z
1/2-x,1/2-y,1/2+z
1/2+x,1/2-y,-z
1/2-x,1/2+y,1/2-z
loop_
_atom_site_type_symbol
_atom_site_label
_atom_site_fract_x
_atom_site_fract_y
_atom_site_fract_z
Si Si1 0.638046 0.238779 0.541882
Si Si2 0.951407 0.867182 0.245507
Si Si3 0.441082 0.200891 0.490157
Si Si4 0.193282 0.564867 0.713212
Si Si5 0.211133 0.215195 0.843597
Si Si6 0.343817 0.186037 0.553642
Si Si7 0.962160 0.697328 0.003584
Si Si8 0.144941 0.944839 0.321405
O O1 0.658086 0.080454 0.608306
O O2 0.584047 0.249058 0.555344
O O3 0.646469 0.289001 0.410251
O O4 0.658962 0.394111 0.609265
O O5 0.942261 0.759761 0.358923
O O6 0.957430 0.750744 0.134933
O O7 0.905972 0.965439 0.221640
O O8 0.000000 0.955733 0.250000
O O9 0.394014 0.260731 0.542873
O O10 0.489257 0.261248 0.539525
O O11 0.441747 0.000000 0.500000
O O12 0.204893 0.388081 0.772782
O O13 0.239060 0.646314 0.668319
O O14 0.171878 0.668154 0.817703
O O15 0.177283 0.090122 0.782139
O O16 0.193680 0.233254 0.972608
O O17 0.347866 0.000000 0.500000
O O18 0.962953 0.500000 0.000000
#
# Coordination Sequence:
#
# PCOD9319159 Si02
#       8
#     8   8   8   8   8   8   8   8
#     4  10  23  39  59  89 128 156 202 252 307 360
#     4   9  17  32  57  85 115 161 208 242 295 371
#     4   9  16  32  56  88 120 158 199 250 300 361
#     4  11  25  41  63  92 121 156 202 258 306 371
#     4  11  23  42  66  88 120 162 208 251 314 365
#     4   9  20  38  61  88 123 156 196 246 308 362
#     4   9  19  31  56  90 125 155 202 253 303 360
#     4  10  21  40  62  85 119 167 199 250 305 361
#
# _framework density 22.795981999999999
#
# number of rings (size 3 to 8) (size 9 to 14) (size 15 to 20)
#    0.000    2.250    1.250    0.750    5.250    0.000 
#    0.000    3.750    0.000    1.500    0.000    0.000 
#    0.000    0.000    0.000    0.000    0.000    0.000 
#
# Total GULP energy -178607.853917 kJ/mol
# GULP energy per Si atom -5581.495435 kJ/mol
# Density = 2.274410 g / cm^3
# Si number density = 22.795982 Si / 1000 Ang^3
#
#
#
# Elastic Constant Matrix: (Units=GPa)
#
#
# Indices 1 2 3 4 5 6 
#
# 1 136.4916 -10.8953 50.3309 0.0000 0.0000 0.0000
# 2 -10.8953 37.2844 7.5791 0.0000 0.0000 0.0000
# 3 50.3309 7.5791 97.1494 0.0000 0.0000 0.0000
# 4 0.0000 0.0000 0.0000 30.1027 0.0000 0.0000
# 5 0.0000 0.0000 0.0000 0.0000 29.0760 0.0000
# 6 0.0000 0.0000 0.0000 0.0000 0.0000 -92.8004
#
#
#
# Elastic Compliance Matrix: (Units=1/GPa)
#
#
# Indices 1 2 3 4 5 6 
#
# 1 0.009576 0.003868 -0.005263 0.000000 0.000000 0.000000
# 2 0.003868 0.028816 -0.004252 0.000000 0.000000 0.000000
# 3 -0.005263 -0.004252 0.013352 0.000000 0.000000 0.000000
# 4 0.000000 0.000000 0.000000 0.033220 0.000000 0.000000
# 5 0.000000 0.000000 0.000000 0.000000 0.034393 0.000000
# 6 0.000000 0.000000 0.000000 0.000000 0.000000 -0.010776
#
#
# Mechanical properties :
#
#
# Convention : Reuss Voigt Hill
#
# Bulk Modulus (GPa) = 24.72211 40.55055 32.63633
# Shear Modulus (GPa) = 37.49357 8.20303 22.84830
#
# Velocity S-wave (km/s) = 4.05994 1.89902 3.16934
# Velocity P-wave (km/s) = 5.73114 4.75767 5.26695
#
# Compressibility (1/GPa) = 0.04044962
#
# Stress axis : x y z
#
# Youngs Moduli (GPa) = 104.42911 34.70350 74.89685
#
# Poissons Ratio (x) = -0.13424 0.39417
# Poissons Ratio (y) = -0.40394 0.31846
# Poissons Ratio (z) = 0.54959 0.14756
#
# Static dielectric constant tensor:
#      x y z
#    x 1.873840 0.000000 0.000000 
#    y 0.000000 1.899910 0.000000 
#    z 0.000000 0.000000 1.820930 
# 
# From -- ./inp_files/17258.got.cif
#   From: 2010.05.17/outbox.cif.g08.bks.cpg/sg20_9_cif.got.tgz:17258.got - 2010.06.03 22:52:26.
