data_PCOD9319055
_publ_section_title
;
Structure prediction by ZEFSAII (Michael W. Deem and Ramdas Pophale) SiO2 
 PCOD9319055
Probable space group: C 2 2 21
;
_chemical_formula_sum "Si O2"
_cell_formula_units_Z 64
_cell_length_a 8.748303
_cell_length_b 24.399310
_cell_length_c 15.754721
_cell_angle_alpha 90.000000
_cell_angle_beta 90.000000
_cell_angle_gamma 90.000000
_cell_volume 3362.885480
_symmetry_space_group_name_H-M "C 2 2 21"
_symmetry_group_IT_number 20
_symmetry_cell_setting 'orthorhombic'
loop_
_space_group_symop_operation_xyz
x,y,z
-x,-y,1/2+z
x,-y,-z
-x,y,1/2-z
1/2+x,1/2+y,z
1/2-x,1/2-y,1/2+z
1/2+x,1/2-y,-z
1/2-x,1/2+y,1/2-z
loop_
_atom_site_type_symbol
_atom_site_label
_atom_site_fract_x
_atom_site_fract_y
_atom_site_fract_z
Si Si1 0.180905 0.495013 0.649793
Si Si2 0.316737 0.197009 0.250000
Si Si3 0.317536 0.377473 0.897102
Si Si4 0.684429 0.606679 0.587149
Si Si5 0.819095 0.495012 0.649794
Si Si6 0.313845 0.323030 0.250000
Si Si7 0.815571 0.893321 0.412851
Si Si8 0.682464 0.377473 0.897102
O O1 0.206188 0.505910 0.750000
O O2 0.244513 0.546610 0.598375
O O3 0.263829 0.438696 0.626390
O O4 1.000000 0.488767 0.635597
O O5 0.500000 0.196007 0.250000
O O6 0.258099 0.164797 0.332483
O O7 0.263927 0.260040 0.250000
O O8 0.258099 0.164797 0.167517
O O9 0.263829 0.438696 0.873610
O O10 0.500000 0.374088 0.888408
O O11 0.275809 0.368602 0.995600
O O12 0.755487 0.546610 0.598375
O O13 0.734746 0.644458 0.665693
O O14 0.500000 0.601289 0.590669
O O15 0.500000 0.322961 0.250000
O O16 0.265254 0.355542 0.334307
O O17 0.775809 0.868602 0.504400
#
# Coordination Sequence:
#
# PCOD9319055 Si02
#       8
#     8   8   8   8   8   8   8   8
#     4  11  22  36  58  89 122 155 190 235 292 346
#     4  11  23  40  61  84 113 156 198 239 294 345
#     4  11  23  38  60  89 118 153 195 240 289 344
#     4  10  21  39  63  88 116 154 196 237 288 348
#     4  11  22  36  58  89 122 155 190 235 292 346
#     4   9  20  40  63  84 113 152 196 241 288 345
#     4  10  21  39  63  88 116 154 196 237 288 348
#     4  11  23  38  60  89 118 153 195 240 289 344
#
# _framework density 19.031275000000001
#
# number of rings (size 3 to 8) (size 9 to 14) (size 15 to 20)
#    0.000    1.500    2.500    2.625    0.000    7.000 
#    0.000    2.500    0.000    0.000    0.000    0.000 
#    0.000    0.000    0.000    0.000    0.000    0.000 
#
# Total GULP energy -178877.511622 kJ/mol
# GULP energy per Si atom -5589.922238 kJ/mol
# Density = 1.898796 g / cm^3
# Si number density = 19.031275 Si / 1000 Ang^3
#
#
#
# Elastic Constant Matrix: (Units=GPa)
#
#
# Indices 1 2 3 4 5 6 
#
# 1 31.8611 13.6911 31.8056 0.0000 0.0000 0.0000
# 2 13.6911 114.2980 32.4678 0.0000 0.0000 0.0000
# 3 31.8056 32.4678 100.6724 0.0000 0.0000 0.0000
# 4 0.0000 0.0000 0.0000 1.4290 0.0000 0.0000
# 5 0.0000 0.0000 0.0000 0.0000 23.4224 0.0000
# 6 0.0000 0.0000 0.0000 0.0000 0.0000 24.1475
#
#
#
# Elastic Compliance Matrix: (Units=1/GPa)
#
#
# Indices 1 2 3 4 5 6 
#
# 1 0.046085 -0.001524 -0.014068 0.000000 0.000000 0.000000
# 2 -0.001524 0.009682 -0.002641 0.000000 0.000000 0.000000
# 3 -0.014068 -0.002641 0.015230 0.000000 0.000000 0.000000
# 4 0.000000 0.000000 0.000000 0.699773 0.000000 0.000000
# 5 0.000000 0.000000 0.000000 0.000000 0.042694 0.000000
# 6 0.000000 0.000000 0.000000 0.000000 0.000000 0.041412
#
#
# Mechanical properties :
#
#
# Convention : Reuss Voigt Hill
#
# Bulk Modulus (GPa) = 28.96044 44.75117 36.85580
# Shear Modulus (GPa) = 5.53801 21.05758 13.29780
#
# Velocity S-wave (km/s) = 1.70771 3.32998 2.64623
# Velocity P-wave (km/s) = 4.37478 6.19278 5.36140
#
# Compressibility (1/GPa) = 0.03452986
#
# Stress axis : x y z
#
# Youngs Moduli (GPa) = 21.69913 103.28637 65.66192
#
# Poissons Ratio (x) = 0.15741 0.92374
# Poissons Ratio (y) = 0.03307 0.17341
# Poissons Ratio (z) = 0.30527 0.27278
#
# Static dielectric constant tensor:
#      x y z
#    x 1.640670 0.000000 0.000000 
#    y 0.000000 1.614960 0.000000 
#    z 0.000000 0.000000 1.675280 
# 
# From -- ./inp_files/19344.got.cif
#   From: 2010.05.17/outbox.cif.g08.bks.cpg/sg20_10_cif.got.tgz:19344.got - 2010.06.03 22:52:26.
