data_PCOD9319094
_publ_section_title
;
Structure prediction by ZEFSAII (Michael W. Deem and Ramdas Pophale) SiO2 
 PCOD9319094
Probable space group: C 2 2 21
;
_chemical_formula_sum "Si O2"
_cell_formula_units_Z 64
_cell_length_a 13.173427
_cell_length_b 13.304885
_cell_length_c 17.715617
_cell_angle_alpha 90.000000
_cell_angle_beta 90.000000
_cell_angle_gamma 90.000000
_cell_volume 3105.032690
_symmetry_space_group_name_H-M "C 2 2 21"
_symmetry_group_IT_number 20
_symmetry_cell_setting 'orthorhombic'
loop_
_space_group_symop_operation_xyz
x,y,z
-x,-y,1/2+z
x,-y,-z
-x,y,1/2-z
1/2+x,1/2+y,z
1/2-x,1/2-y,1/2+z
1/2+x,1/2-y,-z
1/2-x,1/2+y,1/2-z
loop_
_atom_site_type_symbol
_atom_site_label
_atom_site_fract_x
_atom_site_fract_y
_atom_site_fract_z
Si Si1 0.684945 0.273680 0.383161
Si Si2 0.725173 0.888620 0.739119
Si Si3 0.021682 0.289848 0.103551
Si Si4 0.157874 0.408515 0.207790
Si Si5 0.067126 0.073842 0.175534
Si Si6 0.699821 0.226761 0.647426
Si Si7 0.982130 0.078700 0.943869
Si Si8 0.343077 0.714945 0.508739
O O1 0.671092 0.191245 0.316566
O O2 0.753407 0.363051 0.346223
O O3 0.586807 0.328724 0.416980
O O4 0.750498 0.220297 0.449215
O O5 0.814921 0.943621 0.692967
O O6 0.784920 0.826818 0.803465
O O7 0.658690 0.973309 0.778419
O O8 0.056918 0.370960 0.165161
O O9 0.060421 0.184008 0.138300
O O10 0.902032 0.277549 0.097900
O O11 0.081047 0.300752 0.024549
O O12 0.180760 0.356467 0.288187
O O13 0.000000 0.079617 0.250000
O O14 0.019649 0.986202 0.126159
O O15 0.794887 0.221357 0.591513
O O16 0.081838 0.119761 0.986823
O O17 0.927002 0.000000 0.000000
#
# Coordination Sequence:
#
# PCOD9319094 Si02
#       8
#     8   8   8   8   8   8   8   8
#     4  10  23  40  62  97 138 166 222 280 330 400
#     4  11  21  41  66  96 133 171 218 282 334 392
#     4  11  20  42  63  95 129 171 224 275 327 411
#     4  10  21  39  65  96 129 174 221 271 333 401
#     4  12  20  37  68 100 128 167 234 283 329 390
#     4  11  22  39  68  93 125 175 223 270 334 395
#     4  12  24  40  66  98 131 177 223 283 344 401
#     4  11  23  39  60  94 136 169 210 277 333 394
#
# _framework density 20.611699999999999
#
# number of rings (size 3 to 8) (size 9 to 14) (size 15 to 20)
#    0.000    1.000    6.250    2.625    0.000    1.000 
#    0.000    4.375    0.000    3.000    0.000    0.000 
#    0.000    0.000    0.000    0.000    0.000    0.000 
#
# Total GULP energy -178525.413638 kJ/mol
# GULP energy per Si atom -5578.919176 kJ/mol
# Density = 2.056479 g / cm^3
# Si number density = 20.611700 Si / 1000 Ang^3
#
#
#
# Elastic Constant Matrix: (Units=GPa)
#
#
# Indices 1 2 3 4 5 6 
#
# 1 82.4924 43.2163 41.9960 0.0000 0.0000 0.0000
# 2 43.2163 100.2536 25.7056 0.0000 0.0000 0.0000
# 3 41.9960 25.7056 86.0424 0.0000 0.0000 0.0000
# 4 0.0000 0.0000 0.0000 19.0779 0.0000 0.0000
# 5 0.0000 0.0000 0.0000 0.0000 32.9723 0.0000
# 6 0.0000 0.0000 0.0000 0.0000 0.0000 13.2948
#
#
#
# Elastic Compliance Matrix: (Units=1/GPa)
#
#
# Indices 1 2 3 4 5 6 
#
# 1 0.019292 -0.006392 -0.007507 0.000000 0.000000 0.000000
# 2 -0.006392 0.012920 -0.000740 0.000000 0.000000 0.000000
# 3 -0.007507 -0.000740 0.015507 0.000000 0.000000 0.000000
# 4 0.000000 0.000000 0.000000 0.052417 0.000000 0.000000
# 5 0.000000 0.000000 0.000000 0.000000 0.030328 0.000000
# 6 0.000000 0.000000 0.000000 0.000000 0.000000 0.075217
#
#
# Mechanical properties :
#
#
# Convention : Reuss Voigt Hill
#
# Bulk Modulus (GPa) = 54.22342 54.51379 54.36861
# Shear Modulus (GPa) = 20.73775 23.59373 22.16574
#
# Velocity S-wave (km/s) = 3.17537 3.38698 3.28288
# Velocity P-wave (km/s) = 6.30938 6.46536 6.38784
#
# Compressibility (1/GPa) = 0.01844221
#
# Stress axis : x y z
#
# Youngs Moduli (GPa) = 51.83384 77.40107 64.48594
#
# Poissons Ratio (x) = 0.49472 0.48408
# Poissons Ratio (y) = 0.33130 0.04773
# Poissons Ratio (z) = 0.38911 0.05729
#
# Static dielectric constant tensor:
#      x y z
#    x 1.768910 0.000000 0.000000 
#    y 0.000000 1.732630 0.000000 
#    z 0.000000 0.000000 1.811370 
# 
# From -- ./inp_files/25008.got.cif
#   From: 2010.05.17/outbox.cif.g08.bks.cpg/sg20_13_cif.got.tgz:25008.got - 2010.06.03 22:52:26.
