data_PCOD9319645
_publ_section_title
;
Structure prediction by ZEFSAII (Michael W. Deem and Ramdas Pophale) SiO2 
 PCOD9319645
Probable space group: C 2 2 21
;
_chemical_formula_sum "Si O2"
_cell_formula_units_Z 40
_cell_length_a 24.417941
_cell_length_b 7.698239
_cell_length_c 9.040014
_cell_angle_alpha 90.000000
_cell_angle_beta 90.000000
_cell_angle_gamma 90.000000
_cell_volume 1699.297949
_symmetry_space_group_name_H-M "C 2 2 21"
_symmetry_group_IT_number 20
_symmetry_cell_setting 'orthorhombic'
loop_
_space_group_symop_operation_xyz
x,y,z
-x,-y,1/2+z
x,-y,-z
-x,y,1/2-z
1/2+x,1/2+y,z
1/2-x,1/2-y,1/2+z
1/2+x,1/2-y,-z
1/2-x,1/2+y,1/2-z
loop_
_atom_site_type_symbol
_atom_site_label
_atom_site_fract_x
_atom_site_fract_y
_atom_site_fract_z
Si Si1 0.352071 0.609155 0.365508
Si Si2 0.675254 0.722330 0.687761
Si Si3 0.554843 0.727206 0.664652
Si Si4 0.944201 0.198688 0.177194
Si Si5 0.743606 0.801636 0.958950
O O1 0.381208 0.500000 0.500000
O O2 0.330700 0.478923 0.238015
O O3 0.393315 0.738121 0.284028
O O4 0.302292 0.695299 0.451646
O O5 0.614379 0.792396 0.720509
O O6 0.724504 0.784375 0.791404
O O7 0.696692 0.750960 0.521258
O O8 0.500000 0.785172 0.750000
O O9 0.555232 0.514688 0.675116
O O10 0.556376 0.763470 0.489983
O O11 0.000000 0.258796 0.250000
O O12 0.737781 0.000000 0.000000
#
# Coordination Sequence:
#
# PCOD9319645 Si02
#       5
#     8   8   8   8   8
#     4   9  20  36  56  86 119 147 191 244 288 337
#     4  10  22  37  60  84 117 150 191 245 284 347
#     4   9  19  32  52  85 117 143 183 241 304 337
#     4   9  18  28  56  84 113 145 184 237 294 343
#     4  11  23  37  59  83 116 156 193 231 288 341
#
# _framework density 23.539135000000002
#
# number of rings (size 3 to 8) (size 9 to 14) (size 15 to 20)
#    0.000    2.400    0.000    1.200   19.600    0.000 
#    0.000    0.000    0.000    1.200    0.000    0.000 
#    0.000    0.000    0.000    0.000    0.000    0.000 
#
# Total GULP energy -111595.317834 kJ/mol
# GULP energy per Si atom -5579.765892 kJ/mol
# Density = 2.348556 g / cm^3
# Si number density = 23.539135 Si / 1000 Ang^3
#
#
#
# Elastic Constant Matrix: (Units=GPa)
#
#
# Indices 1 2 3 4 5 6 
#
# 1 126.8480 9.3744 72.3062 0.0000 0.0000 0.0000
# 2 9.3744 19.8399 -8.4544 0.0000 0.0000 0.0000
# 3 72.3062 -8.4544 131.5091 0.0000 0.0000 0.0000
# 4 0.0000 0.0000 0.0000 7.1202 0.0000 0.0000
# 5 0.0000 0.0000 0.0000 0.0000 30.4592 0.0000
# 6 0.0000 0.0000 0.0000 0.0000 0.0000 -33.1462
#
#
#
# Elastic Compliance Matrix: (Units=1/GPa)
#
#
# Indices 1 2 3 4 5 6 
#
# 1 0.013004 -0.009450 -0.007757 0.000000 0.000000 0.000000
# 2 -0.009450 0.058690 0.008969 0.000000 0.000000 0.000000
# 3 -0.007757 0.008969 0.012446 0.000000 0.000000 0.000000
# 4 0.000000 0.000000 0.000000 0.140445 0.000000 0.000000
# 5 0.000000 0.000000 0.000000 0.000000 0.032831 0.000000
# 6 0.000000 0.000000 0.000000 0.000000 0.000000 -0.030169
#
#
# Mechanical properties :
#
#
# Convention : Reuss Voigt Hill
#
# Bulk Modulus (GPa) = 14.77907 47.18327 30.98117
# Shear Modulus (GPa) = 18.77745 14.55137 16.66441
#
# Velocity S-wave (km/s) = 2.82744 2.48902 2.66361
# Velocity P-wave (km/s) = 4.11721 5.32432 4.75919
#
# Compressibility (1/GPa) = 0.06766328
#
# Stress axis : x y z
#
# Youngs Moduli (GPa) = 76.90225 17.03856 80.34968
#
# Poissons Ratio (x) = 0.16101 0.62328
# Poissons Ratio (y) = 0.72670 -0.72063
# Poissons Ratio (z) = 0.59654 -0.15281
#
# Static dielectric constant tensor:
#      x y z
#    x 1.929140 0.000000 0.000000 
#    y 0.000000 1.947480 0.000000 
#    z 0.000000 0.000000 2.005960 
# 
# From -- ./inp_files/6115.got.cif
#   From: 2010.05.17/outbox.cif.g08.bks.cpg/sg20_4_cif.got.tgz:6115.got - 2010.06.03 22:52:26.
