data_PCOD9319631
_publ_section_title
;
Structure prediction by ZEFSAII (Michael W. Deem and Ramdas Pophale) SiO2 
 PCOD9319631
Probable space group: C 2 2 21
;
_chemical_formula_sum "Si O2"
_cell_formula_units_Z 48
_cell_length_a 19.568086
_cell_length_b 9.666875
_cell_length_c 12.930713
_cell_angle_alpha 90.000000
_cell_angle_beta 90.000000
_cell_angle_gamma 90.000000
_cell_volume 2446.002653
_symmetry_space_group_name_H-M "C 2 2 21"
_symmetry_group_IT_number 20
_symmetry_cell_setting 'orthorhombic'
loop_
_space_group_symop_operation_xyz
x,y,z
-x,-y,1/2+z
x,-y,-z
-x,y,1/2-z
1/2+x,1/2+y,z
1/2-x,1/2-y,1/2+z
1/2+x,1/2-y,-z
1/2-x,1/2+y,1/2-z
loop_
_atom_site_type_symbol
_atom_site_label
_atom_site_fract_x
_atom_site_fract_y
_atom_site_fract_z
Si Si1 0.762587 0.992127 0.188935
Si Si2 0.061698 0.693703 0.120448
Si Si3 0.500000 0.561258 0.750000
Si Si4 0.599211 0.405168 0.601393
Si Si5 0.082360 0.349086 0.525315
Si Si6 0.659176 0.000000 0.000000
Si Si7 0.171960 0.296782 0.707925
O O1 0.794369 0.850792 0.233416
O O2 0.822351 0.081996 0.135527
O O3 0.707163 0.964768 0.098155
O O4 0.726986 0.083745 0.276819
O O5 0.112043 0.633229 0.030875
O O6 0.107940 0.658754 0.220260
O O7 0.988589 0.632255 0.087426
O O8 0.036245 0.845826 0.159968
O O9 0.555789 0.469575 0.693578
O O10 0.588486 0.500000 0.500000
O O11 0.574437 0.252046 0.571626
O O12 0.108211 0.500000 0.500000
O O13 0.139390 0.277951 0.596102
#
# Coordination Sequence:
#
# PCOD9319631 Si02
#       7
#     8   8   4   8   8   4   8
#     4  11  22  42  63  94 128 172 217 259 332 397
#     4  11  19  40  65  92 125 169 213 273 326 380
#     4  12  22  42  70  98 128 176 226 280 336 396
#     4  12  22  44  70  91 131 181 220 275 343 400
#     4  12  24  42  67  96 128 172 221 276 339 397
#     4  10  22  36  64  92 130 170 204 260 330 390
#     4  11  23  41  65  91 130 173 213 276 326 395
#
# _framework density 19.623853
#
# number of rings (size 3 to 8) (size 9 to 14) (size 15 to 20)
#    0.000    0.667    8.333    0.000    2.333    0.000 
#    6.000    1.667    0.000    0.000    0.000    0.000 
#    0.000    0.000    0.000    0.000    0.000    0.000 
#
# Total GULP energy -133641.935703 kJ/mol
# GULP energy per Si atom -5568.413988 kJ/mol
# Density = 1.957919 g / cm^3
# Si number density = 19.623853 Si / 1000 Ang^3
#
#
#
# Elastic Constant Matrix: (Units=GPa)
#
#
# Indices 1 2 3 4 5 6 
#
# 1 103.4207 29.8338 25.4771 0.0000 0.0000 0.0000
# 2 29.8338 80.3840 16.9474 0.0000 0.0000 0.0000
# 3 25.4771 16.9474 47.1345 0.0000 0.0000 0.0000
# 4 0.0000 0.0000 0.0000 32.3991 0.0000 0.0000
# 5 0.0000 0.0000 0.0000 0.0000 23.5492 0.0000
# 6 0.0000 0.0000 0.0000 0.0000 0.0000 20.3269
#
#
#
# Elastic Compliance Matrix: (Units=1/GPa)
#
#
# Indices 1 2 3 4 5 6 
#
# 1 0.011919 -0.003317 -0.005250 0.000000 0.000000 0.000000
# 2 -0.003317 0.014384 -0.003379 0.000000 0.000000 0.000000
# 3 -0.005250 -0.003379 0.025268 0.000000 0.000000 0.000000
# 4 0.000000 0.000000 0.000000 0.030865 0.000000 0.000000
# 5 0.000000 0.000000 0.000000 0.000000 0.042464 0.000000
# 6 0.000000 0.000000 0.000000 0.000000 0.000000 0.049196
#
#
# Mechanical properties :
#
#
# Convention : Reuss Voigt Hill
#
# Bulk Modulus (GPa) = 36.12722 41.71732 38.92227
# Shear Modulus (GPa) = 24.12951 25.83376 24.98164
#
# Velocity S-wave (km/s) = 3.51037 3.63222 3.57182
# Velocity P-wave (km/s) = 5.90594 6.23661 6.07353
#
# Compressibility (1/GPa) = 0.02767996
#
# Stress axis : x y z
#
# Youngs Moduli (GPa) = 83.89685 69.52321 39.57498
#
# Poissons Ratio (x) = 0.23060 0.20777
# Poissons Ratio (y) = 0.27828 0.13372
# Poissons Ratio (z) = 0.44046 0.23491
#
# Static dielectric constant tensor:
#      x y z
#    x 1.704800 0.000000 0.000000 
#    y 0.000000 1.689090 0.000000 
#    z 0.000000 0.000000 1.713300 
# 
# From -- ./inp_files/21344.got.cif
#   From: 2010.05.17/outbox.cif.g08.bks.cpg/sg20_11_cif.got.tgz:21344.got - 2010.06.03 22:52:26.
