data_PCOD9319735
_publ_section_title
;
Structure prediction by ZEFSAII (Michael W. Deem and Ramdas Pophale) SiO2 
 PCOD9319735
Probable space group: C 2 2 21
;
_chemical_formula_sum "Si O2"
_cell_formula_units_Z 40
_cell_length_a 18.101844
_cell_length_b 10.178025
_cell_length_c 9.966641
_cell_angle_alpha 90.000000
_cell_angle_beta 90.000000
_cell_angle_gamma 90.000000
_cell_volume 1836.264112
_symmetry_space_group_name_H-M "C 2 2 21"
_symmetry_group_IT_number 20
_symmetry_cell_setting 'orthorhombic'
loop_
_space_group_symop_operation_xyz
x,y,z
-x,-y,1/2+z
x,-y,-z
-x,y,1/2-z
1/2+x,1/2+y,z
1/2-x,1/2-y,1/2+z
1/2+x,1/2-y,-z
1/2-x,1/2+y,1/2-z
loop_
_atom_site_type_symbol
_atom_site_label
_atom_site_fract_x
_atom_site_fract_y
_atom_site_fract_z
Si Si1 0.493687 0.101010 0.601069
Si Si2 0.371541 0.737229 0.013254
Si Si3 0.401820 0.349784 0.700237
Si Si4 0.583464 0.647844 0.775248
Si Si5 0.791588 0.157643 0.509679
O O1 0.500000 0.039835 0.750000
O O2 0.570853 0.141745 0.530955
O O3 0.453303 0.238818 0.634306
O O4 0.455166 0.000000 0.500000
O O5 0.394956 0.651767 0.140645
O O6 0.287561 0.780837 0.033287
O O7 0.381004 0.666751 0.871198
O O8 0.426177 0.498108 0.670787
O O9 0.323470 0.311548 0.636979
O O10 0.500000 0.701225 0.750000
O O11 0.644658 0.698536 0.882787
O O12 0.783451 0.000000 0.500000
#
# Coordination Sequence:
#
# PCOD9319735 Si02
#       5
#     8   8   8   8   8
#     4  10  22  39  61  88 124 166 212 263 319 383
#     4  11  21  38  61  88 122 163 210 263 324 385
#     4  10  22  40  61  89 124 164 215 269 318 376
#     4  11  22  38  64  93 123 166 216 269 321 377
#     4  10  22  39  58  86 126 165 207 262 322 379
#
# _framework density 21.783358
#
# number of rings (size 3 to 8) (size 9 to 14) (size 15 to 20)
#    0.000    1.600    0.000    5.400    0.000    5.600 
#    0.000   10.000    0.000    0.000    0.000    0.000 
#    0.000    0.000    0.000    0.000    0.000    0.000 
#
# Total GULP energy -111444.016112 kJ/mol
# GULP energy per Si atom -5572.200806 kJ/mol
# Density = 2.173378 g / cm^3
# Si number density = 21.783358 Si / 1000 Ang^3
#
#
#
# Elastic Constant Matrix: (Units=GPa)
#
#
# Indices 1 2 3 4 5 6 
#
# 1 126.9982 27.5747 26.5455 0.0000 0.0000 0.0000
# 2 27.5747 58.6784 39.0498 0.0000 0.0000 0.0000
# 3 26.5455 39.0498 148.4551 0.0000 0.0000 0.0000
# 4 0.0000 0.0000 0.0000 27.6424 0.0000 0.0000
# 5 0.0000 0.0000 0.0000 0.0000 35.1504 0.0000
# 6 0.0000 0.0000 0.0000 0.0000 0.0000 -0.7669
#
#
#
# Elastic Compliance Matrix: (Units=1/GPa)
#
#
# Indices 1 2 3 4 5 6 
#
# 1 0.008811 -0.003748 -0.000590 0.000000 0.000000 0.000000
# 2 -0.003748 0.022253 -0.005183 0.000000 0.000000 0.000000
# 3 -0.000590 -0.005183 0.008205 0.000000 0.000000 0.000000
# 4 0.000000 0.000000 0.000000 0.036176 0.000000 0.000000
# 5 0.000000 0.000000 0.000000 0.000000 0.028449 0.000000
# 6 0.000000 0.000000 0.000000 0.000000 0.000000 -1.303937
#
#
# Mechanical properties :
#
#
# Convention : Reuss Voigt Hill
#
# Bulk Modulus (GPa) = 49.43936 57.83018 53.63477
# Shear Modulus (GPa) = -4.25801 28.46928 12.10564
#
# Velocity S-wave (km/s) = -1.39962 3.61907 2.35995
# Velocity P-wave (km/s) = 4.48701 6.63845 5.66579
#
# Compressibility (1/GPa) = 0.02022680
#
# Stress axis : x y z
#
# Youngs Moduli (GPa) = 113.49167 44.93811 121.87898
#
# Poissons Ratio (x) = 0.16844 0.07186
# Poissons Ratio (y) = 0.42540 0.63172
# Poissons Ratio (z) = 0.06691 0.23292
#
# Static dielectric constant tensor:
#      x y z
#    x 1.814530 0.000000 0.000000 
#    y 0.000000 1.842750 0.000000 
#    z 0.000000 0.000000 1.823290 
# 
# From -- ./inp_files/7062.got.cif
#   From: 2010.05.17/outbox.cif.g08.bks.cpg/sg20_4_cif.got.tgz:7062.got - 2010.06.03 22:52:26.
