data_PCOD9319730
_publ_section_title
;
Structure prediction by ZEFSAII (Michael W. Deem and Ramdas Pophale) SiO2 
 PCOD9319730
Probable space group: C 2 2 21
;
_chemical_formula_sum "Si O2"
_cell_formula_units_Z 36
_cell_length_a 29.600179
_cell_length_b 5.204567
_cell_length_c 9.776187
_cell_angle_alpha 90.000000
_cell_angle_beta 90.000000
_cell_angle_gamma 90.000000
_cell_volume 1506.081387
_symmetry_space_group_name_H-M "C 2 2 21"
_symmetry_group_IT_number 20
_symmetry_cell_setting 'orthorhombic'
loop_
_space_group_symop_operation_xyz
x,y,z
-x,-y,1/2+z
x,-y,-z
-x,y,1/2-z
1/2+x,1/2+y,z
1/2-x,1/2-y,1/2+z
1/2+x,1/2-y,-z
1/2-x,1/2+y,1/2-z
loop_
_atom_site_type_symbol
_atom_site_label
_atom_site_fract_x
_atom_site_fract_y
_atom_site_fract_z
Si Si1 0.959760 0.395255 0.353125
Si Si2 0.791904 0.717838 0.862061
Si Si3 0.195866 0.780589 0.174925
Si Si4 0.597285 0.395939 0.201438
Si Si5 0.864866 0.000000 0.000000
O O1 0.976442 0.500000 0.500000
O O2 0.932250 0.639557 0.297899
O O3 0.000000 0.331209 0.250000
O O4 0.927854 0.143823 0.361395
O O5 0.801922 0.475723 0.766324
O O6 0.740617 0.726802 0.918807
O O7 0.795552 0.968702 0.766793
O O8 0.830461 0.765846 0.972576
O O9 0.144611 0.820272 0.127480
O O10 0.607823 0.462982 0.360565
#
# Coordination Sequence:
#
# PCOD9319730 Si02
#       5
#     8   8   8   8   4
#     4  12  29  52  80 106 144 185 242 308 387 450
#     4   9  18  33  58  96 148 190 244 285 340 400
#     4   9  18  36  60  93 144 198 234 291 340 413
#     4  11  24  43  76 109 150 185 245 300 371 442
#     4  10  22  38  72 116 146 192 246 298 356 434
#
# _framework density 23.903092000000001
#
# number of rings (size 3 to 8) (size 9 to 14) (size 15 to 20)
#    0.000    1.778    0.000    4.000    3.111    7.111 
#    2.000    0.000   29.333    0.000    0.000    0.000 
#    0.000    0.000    0.000    0.000    0.000    0.000 
#
# Total GULP energy -100632.255233 kJ/mol
# GULP energy per Si atom -5590.680846 kJ/mol
# Density = 2.384869 g / cm^3
# Si number density = 23.903092 Si / 1000 Ang^3
#
#
#
# Elastic Constant Matrix: (Units=GPa)
#
#
# Indices 1 2 3 4 5 6 
#
# 1 130.2345 43.7495 27.5307 0.0000 0.0000 0.0000
# 2 43.7495 206.4532 30.5766 0.0000 0.0000 0.0000
# 3 27.5307 30.5766 87.5322 0.0000 0.0000 0.0000
# 4 0.0000 0.0000 0.0000 18.3349 0.0000 0.0000
# 5 0.0000 0.0000 0.0000 0.0000 55.9637 0.0000
# 6 0.0000 0.0000 0.0000 0.0000 0.0000 60.1827
#
#
#
# Elastic Compliance Matrix: (Units=1/GPa)
#
#
# Indices 1 2 3 4 5 6 
#
# 1 0.008649 -0.001508 -0.002193 0.000000 0.000000 0.000000
# 2 -0.001508 0.005371 -0.001402 0.000000 0.000000 0.000000
# 3 -0.002193 -0.001402 0.012604 0.000000 0.000000 0.000000
# 4 0.000000 0.000000 0.000000 0.054541 0.000000 0.000000
# 5 0.000000 0.000000 0.000000 0.000000 0.017869 0.000000
# 6 0.000000 0.000000 0.000000 0.000000 0.000000 0.016616
#
#
# Mechanical properties :
#
#
# Convention : Reuss Voigt Hill
#
# Bulk Modulus (GPa) = 60.91222 69.77038 65.34130
# Shear Modulus (GPa) = 38.07262 48.38712 43.22987
#
# Velocity S-wave (km/s) = 3.99531 4.50411 4.25732
# Velocity P-wave (km/s) = 6.84263 7.50343 7.18064
#
# Compressibility (1/GPa) = 0.01641707
#
# Stress axis : x y z
#
# Youngs Moduli (GPa) = 115.62451 186.18946 79.34013
#
# Poissons Ratio (x) = 0.28075 0.17403
# Poissons Ratio (y) = 0.17435 0.11123
# Poissons Ratio (z) = 0.25362 0.26102
#
# Static dielectric constant tensor:
#      x y z
#    x 1.964270 0.000000 0.000000 
#    y 0.000000 1.842060 0.000000 
#    z 0.000000 0.000000 1.976610 
# 
# From -- ./inp_files/17126.got.cif
#   From: 2010.05.17/outbox.cif.g08.bks.cpg/sg20_9_cif.got.tgz:17126.got - 2010.06.03 22:52:26.
