data_PCOD9319784
_publ_section_title
;
Structure prediction by ZEFSAII (Michael W. Deem and Ramdas Pophale) SiO2 
 PCOD9319784
Probable space group: C 2 2 21
;
_chemical_formula_sum "Si O2"
_cell_formula_units_Z 48
_cell_length_a 7.042010
_cell_length_b 17.511159
_cell_length_c 19.460009
_cell_angle_alpha 90.000000
_cell_angle_beta 90.000000
_cell_angle_gamma 90.000000
_cell_volume 2399.686817
_symmetry_space_group_name_H-M "C 2 2 21"
_symmetry_group_IT_number 20
_symmetry_cell_setting 'orthorhombic'
loop_
_space_group_symop_operation_xyz
x,y,z
-x,-y,1/2+z
x,-y,-z
-x,y,1/2-z
1/2+x,1/2+y,z
1/2-x,1/2-y,1/2+z
1/2+x,1/2-y,-z
1/2-x,1/2+y,1/2-z
loop_
_atom_site_type_symbol
_atom_site_label
_atom_site_fract_x
_atom_site_fract_y
_atom_site_fract_z
Si Si1 0.677933 0.426316 0.072135
Si Si2 0.466071 0.923499 0.631303
Si Si3 0.464351 0.000000 0.500000
Si Si4 0.000000 0.455058 0.250000
Si Si5 0.867828 0.173185 0.188635
Si Si6 0.119662 0.898252 0.922352
Si Si7 0.801924 0.837208 0.287153
O O1 0.590997 0.510012 0.088998
O O2 0.669145 0.372935 0.137396
O O3 0.890648 0.446441 0.043923
O O4 0.590939 0.389160 0.003753
O O5 0.329385 0.869924 0.675120
O O6 0.662603 0.886860 0.604102
O O7 0.515295 0.992419 0.682876
O O8 0.365014 0.046527 0.439180
O O9 0.817810 0.400443 0.254254
O O10 0.817362 0.260018 0.204964
O O11 0.000000 0.141319 0.250000
O O12 0.988705 0.157287 0.120650
O O13 0.000000 0.821900 0.250000
#
# Coordination Sequence:
#
# PCOD9319784 Si02
#       7
#     8   8   4   4   8   8   8
#     4   8  18  43  68  93 122 164 216 267 309 378
#     4  10  22  39  73  96 122 168 211 264 318 379
#     4   8  16  40  70  96 128 152 218 270 312 380
#     4  12  22  42  68  92 124 168 218 254 312 378
#     4  12  27  40  61  96 133 166 211 259 324 377
#     4   9  20  43  70  93 127 161 213 272 309 381
#     4  12  27  44  60  94 132 174 208 264 317 380
#
# _framework density 20.002609
#
# number of rings (size 3 to 8) (size 9 to 14) (size 15 to 20)
#    0.000    2.333    4.167    1.000    5.833    1.333 
#    6.000    0.000    0.000    0.000    0.000    0.000 
#    0.000    0.000    0.000    0.000    0.000    0.000 
#
# Total GULP energy -133831.178633 kJ/mol
# GULP energy per Si atom -5576.299110 kJ/mol
# Density = 1.995708 g / cm^3
# Si number density = 20.002609 Si / 1000 Ang^3
#
#
#
# Elastic Constant Matrix: (Units=GPa)
#
#
# Indices 1 2 3 4 5 6 
#
# 1 83.1273 34.8823 33.2273 0.0000 0.0000 0.0000
# 2 34.8823 53.4750 26.5702 0.0000 0.0000 0.0000
# 3 33.2273 26.5702 109.2175 0.0000 0.0000 0.0000
# 4 0.0000 0.0000 0.0000 12.3826 0.0000 0.0000
# 5 0.0000 0.0000 0.0000 0.0000 34.9331 0.0000
# 6 0.0000 0.0000 0.0000 0.0000 0.0000 2.0850
#
#
#
# Elastic Compliance Matrix: (Units=1/GPa)
#
#
# Indices 1 2 3 4 5 6 
#
# 1 0.017319 -0.009872 -0.002867 0.000000 0.000000 0.000000
# 2 -0.009872 0.026899 -0.003541 0.000000 0.000000 0.000000
# 3 -0.002867 -0.003541 0.010890 0.000000 0.000000 0.000000
# 4 0.000000 0.000000 0.000000 0.080758 0.000000 0.000000
# 5 0.000000 0.000000 0.000000 0.000000 0.028626 0.000000
# 6 0.000000 0.000000 0.000000 0.000000 0.000000 0.479619
#
#
# Mechanical properties :
#
#
# Convention : Reuss Voigt Hill
#
# Bulk Modulus (GPa) = 44.35098 48.35328 46.35213
# Shear Modulus (GPa) = 7.30794 19.95613 13.63203
#
# Velocity S-wave (km/s) = 1.91349 3.16203 2.61341
# Velocity P-wave (km/s) = 5.20602 6.12839 5.68594
#
# Compressibility (1/GPa) = 0.02254742
#
# Stress axis : x y z
#
# Youngs Moduli (GPa) = 57.74168 37.17548 91.83058
#
# Poissons Ratio (x) = 0.36701 0.26328
# Poissons Ratio (y) = 0.57005 0.32513
# Poissons Ratio (z) = 0.16555 0.13162
#
# Static dielectric constant tensor:
#      x y z
#    x 1.776330 0.000000 0.000000 
#    y 0.000000 1.698740 0.000000 
#    z 0.000000 0.000000 1.733980 
# 
# From -- ./inp_files/26605.got.cif
#   From: 2010.05.17/outbox.cif.g08.bks.cpg/sg20_14_cif.got.tgz:26605.got - 2010.06.03 22:52:26.
