data_PCOD9319288
_publ_section_title
;
Structure prediction by ZEFSAII (Michael W. Deem and Ramdas Pophale) SiO2 
 PCOD9319288
Probable space group: C 2 2 21
;
_chemical_formula_sum "Si O2"
_cell_formula_units_Z 60
_cell_length_a 27.389125
_cell_length_b 11.382271
_cell_length_c 8.731483
_cell_angle_alpha 90.000000
_cell_angle_beta 90.000000
_cell_angle_gamma 90.000000
_cell_volume 2722.043695
_symmetry_space_group_name_H-M "C 2 2 21"
_symmetry_group_IT_number 20
_symmetry_cell_setting 'orthorhombic'
loop_
_space_group_symop_operation_xyz
x,y,z
-x,-y,1/2+z
x,-y,-z
-x,y,1/2-z
1/2+x,1/2+y,z
1/2-x,1/2-y,1/2+z
1/2+x,1/2-y,-z
1/2-x,1/2+y,1/2-z
loop_
_atom_site_type_symbol
_atom_site_label
_atom_site_fract_x
_atom_site_fract_y
_atom_site_fract_z
Si Si1 0.525880 0.135601 0.023005
Si Si2 0.184249 0.779195 0.872376
Si Si3 0.650323 0.978908 0.180456
Si Si4 0.106469 0.072479 0.275107
Si Si5 0.576717 0.871342 0.688508
Si Si6 0.215786 0.293203 0.785128
Si Si7 0.500000 0.311315 0.750000
Si Si8 0.640338 0.337860 0.399888
O O1 0.473970 0.122883 0.105051
O O2 0.565813 0.181911 0.142859
O O3 0.517247 0.223349 0.884553
O O4 0.539502 0.000000 0.000000
O O5 0.167586 0.653151 0.806602
O O6 0.138005 0.866696 0.859393
O O7 0.229033 0.816804 0.764328
O O8 0.204296 0.757002 0.044867
O O9 0.602672 0.004920 0.282095
O O10 0.687999 0.081684 0.226016
O O11 0.642095 0.000000 0.000000
O O12 0.134351 0.116371 0.428730
O O13 0.049313 0.111698 0.282128
O O14 0.114201 0.932780 0.288730
O O15 0.611229 0.783386 0.602278
O O16 0.192881 0.197769 0.666911
#
# Coordination Sequence:
#
# PCOD9319288 Si02
#       8
#     8   8   8   8   8   8   4   8
#     4  11  24  37  64  93 134 169 216 272 327 387
#     4  11  24  43  69 102 132 176 220 278 333 404
#     4   9  21  38  66  94 129 168 211 266 330 397
#     4  11  26  44  68  94 135 182 223 282 335 388
#     4  10  21  41  63  93 124 178 211 267 332 382
#     4  10  23  44  70 100 134 173 223 268 342 404
#     4  12  26  44  62 104 130 176 236 266 330 406
#     4  10  23  48  65  92 133 175 224 274 334 402
#
# _framework density 22.042259999999999
#
# number of rings (size 3 to 8) (size 9 to 14) (size 15 to 20)
#    0.000    1.600    1.333    2.000   11.200    1.600 
#    0.000    4.667    0.000    0.000    0.000    0.000 
#    0.000    0.000    0.000    0.000    0.000    0.000 
#
# Total GULP energy -167480.386225 kJ/mol
# GULP energy per Si atom -5582.679541 kJ/mol
# Density = 2.199209 g / cm^3
# Si number density = 22.042260 Si / 1000 Ang^3
#
#
#
# Elastic Constant Matrix: (Units=GPa)
#
#
# Indices 1 2 3 4 5 6 
#
# 1 95.3859 13.6979 7.9763 0.0000 0.0000 0.0000
# 2 13.6979 53.1827 -3.4788 0.0000 0.0000 0.0000
# 3 7.9763 -3.4788 40.5487 0.0000 0.0000 0.0000
# 4 0.0000 0.0000 0.0000 29.6140 0.0000 0.0000
# 5 0.0000 0.0000 0.0000 0.0000 29.3368 0.0000
# 6 0.0000 0.0000 0.0000 0.0000 0.0000 16.8602
#
#
#
# Elastic Compliance Matrix: (Units=1/GPa)
#
#
# Indices 1 2 3 4 5 6 
#
# 1 0.011123 -0.003025 -0.002447 0.000000 0.000000 0.000000
# 2 -0.003025 0.019732 0.002288 0.000000 0.000000 0.000000
# 3 -0.002447 0.002288 0.025339 0.000000 0.000000 0.000000
# 4 0.000000 0.000000 0.000000 0.033768 0.000000 0.000000
# 5 0.000000 0.000000 0.000000 0.000000 0.034087 0.000000
# 6 0.000000 0.000000 0.000000 0.000000 0.000000 0.059311
#
#
# Mechanical properties :
#
#
# Convention : Reuss Voigt Hill
#
# Bulk Modulus (GPa) = 20.07022 25.05646 22.56334
# Shear Modulus (GPa) = 24.23218 26.55701 25.39459
#
# Velocity S-wave (km/s) = 3.31924 3.47482 3.39792
# Velocity P-wave (km/s) = 4.88006 5.24322 5.06489
#
# Compressibility (1/GPa) = 0.04982506
#
# Stress axis : x y z
#
# Youngs Moduli (GPa) = 89.90557 50.67945 39.46422
#
# Poissons Ratio (x) = 0.15330 0.09659
# Poissons Ratio (y) = 0.27196 -0.09029
# Poissons Ratio (z) = 0.22004 -0.11595
#
# Static dielectric constant tensor:
#      x y z
#    x 1.833330 0.000000 0.000000 
#    y 0.000000 1.800040 0.000000 
#    z 0.000000 0.000000 1.904710 
# 
# From -- ./inp_files/11137.got.cif
#   From: 2010.05.17/outbox.cif.g08.bks.cpg/sg20_6_cif.got.tgz:11137.got - 2010.06.03 22:52:26.
