data_PCOD9319134
_publ_section_title
;
Structure prediction by ZEFSAII (Michael W. Deem and Ramdas Pophale) SiO2 
 PCOD9319134
Probable space group: C 2 2 21
;
_chemical_formula_sum "Si O2"
_cell_formula_units_Z 40
_cell_length_a 24.909791
_cell_length_b 7.653307
_cell_length_c 9.072186
_cell_angle_alpha 90.000000
_cell_angle_beta 90.000000
_cell_angle_gamma 90.000000
_cell_volume 1729.542204
_symmetry_space_group_name_H-M "C 2 2 21"
_symmetry_group_IT_number 20
_symmetry_cell_setting 'orthorhombic'
loop_
_space_group_symop_operation_xyz
x,y,z
-x,-y,1/2+z
x,-y,-z
-x,y,1/2-z
1/2+x,1/2+y,z
1/2-x,1/2-y,1/2+z
1/2+x,1/2-y,-z
1/2-x,1/2+y,1/2-z
loop_
_atom_site_type_symbol
_atom_site_label
_atom_site_fract_x
_atom_site_fract_y
_atom_site_fract_z
Si Si1 0.163720 0.277951 0.291449
Si Si2 0.053054 0.290269 0.160882
Si Si3 0.852467 0.177398 0.905326
Si Si4 0.261292 0.916918 0.835734
Si Si5 0.944015 0.712669 0.317656
O O1 0.110776 0.221208 0.207965
O O2 0.141719 0.308761 0.456308
O O3 0.208516 0.130981 0.256771
O O4 0.195716 0.456108 0.256220
O O5 0.058468 0.500292 0.187866
O O6 0.000000 0.233006 0.250000
O O7 0.050859 0.247137 0.989459
O O8 0.793459 0.234772 0.853200
O O9 0.895364 0.207491 0.777094
O O10 0.857149 0.000000 0.000000
O O11 0.249271 0.000000 0.000000
O O12 0.000000 0.771126 0.250000
#
# Coordination Sequence:
#
# PCOD9319134 Si02
#       5
#     8   8   8   8   8
#     4  11  22  41  66  96 136 178 233 288 350 420
#     4  10  21  39  70 101 130 175 230 296 346 419
#     4  11  23  41  64  95 139 188 228 288 354 424
#     4  10  23  41  63 100 139 185 236 291 352 426
#     4  10  21  40  66  99 134 173 232 288 355 421
#
# _framework density 23.127507999999999
#
# number of rings (size 3 to 8) (size 9 to 14) (size 15 to 20)
#    0.000    1.600    2.000    2.400    0.000    6.400 
#    3.600    3.000    0.000    1.200    0.000    0.000 
#    0.000    0.000    0.000    0.000    0.000    0.000 
#
# Total GULP energy -111557.639985 kJ/mol
# GULP energy per Si atom -5577.881999 kJ/mol
# Density = 2.307487 g / cm^3
# Si number density = 23.127508 Si / 1000 Ang^3
#
#
#
# Elastic Constant Matrix: (Units=GPa)
#
#
# Indices 1 2 3 4 5 6 
#
# 1 186.6594 41.8605 110.4120 0.0000 0.0000 0.0000
# 2 41.8605 109.7285 40.3195 0.0000 0.0000 0.0000
# 3 110.4120 40.3195 146.6607 0.0000 0.0000 0.0000
# 4 0.0000 0.0000 0.0000 24.0391 0.0000 0.0000
# 5 0.0000 0.0000 0.0000 0.0000 44.5250 0.0000
# 6 0.0000 0.0000 0.0000 0.0000 0.0000 24.7976
#
#
#
# Elastic Compliance Matrix: (Units=1/GPa)
#
#
# Indices 1 2 3 4 5 6 
#
# 1 0.009785 -0.001141 -0.007053 0.000000 0.000000 0.000000
# 2 -0.001141 0.010271 -0.001964 0.000000 0.000000 0.000000
# 3 -0.007053 -0.001964 0.012668 0.000000 0.000000 0.000000
# 4 0.000000 0.000000 0.000000 0.041599 0.000000 0.000000
# 5 0.000000 0.000000 0.000000 0.000000 0.022459 0.000000
# 6 0.000000 0.000000 0.000000 0.000000 0.000000 0.040327
#
#
# Mechanical properties :
#
#
# Convention : Reuss Voigt Hill
#
# Bulk Modulus (GPa) = 80.60069 92.02585 86.31327
# Shear Modulus (GPa) = 30.94796 35.36945 33.15870
#
# Velocity S-wave (km/s) = 3.66204 3.91490 3.79058
# Velocity P-wave (km/s) = 7.26684 7.76610 7.52061
#
# Compressibility (1/GPa) = 0.01240684
#
# Stress axis : x y z
#
# Youngs Moduli (GPa) = 102.19465 97.36521 78.93782
#
# Poissons Ratio (x) = 0.11113 0.55674
# Poissons Ratio (y) = 0.11665 0.15506
# Poissons Ratio (z) = 0.72077 0.19125
#
# Static dielectric constant tensor:
#      x y z
#    x 1.866760 0.000000 0.000000 
#    y 0.000000 2.035070 0.000000 
#    z 0.000000 0.000000 2.008520 
# 
# From -- ./inp_files/10513.got.cif
#   From: 2010.05.17/outbox.cif.g08.bks.cpg/sg20_6_cif.got.tgz:10513.got - 2010.06.03 22:52:26.
