data_PCOD9319280
_publ_section_title
;
Structure prediction by ZEFSAII (Michael W. Deem and Ramdas Pophale) SiO2 
 PCOD9319280
Probable space group: C 2 2 21
;
_chemical_formula_sum "Si O2"
_cell_formula_units_Z 36
_cell_length_a 17.543428
_cell_length_b 5.778151
_cell_length_c 13.685157
_cell_angle_alpha 90.000000
_cell_angle_beta 90.000000
_cell_angle_gamma 90.000000
_cell_volume 1387.244878
_symmetry_space_group_name_H-M "C 2 2 21"
_symmetry_group_IT_number 20
_symmetry_cell_setting 'orthorhombic'
loop_
_space_group_symop_operation_xyz
x,y,z
-x,-y,1/2+z
x,-y,-z
-x,y,1/2-z
1/2+x,1/2+y,z
1/2-x,1/2-y,1/2+z
1/2+x,1/2-y,-z
1/2-x,1/2+y,1/2-z
loop_
_atom_site_type_symbol
_atom_site_label
_atom_site_fract_x
_atom_site_fract_y
_atom_site_fract_z
Si Si1 0.428327 0.723873 0.303909
Si Si2 0.687219 0.739058 0.649686
Si Si3 0.525092 0.126366 0.404807
Si Si4 0.584134 0.500000 0.000000
Si Si5 0.714977 0.763917 0.339561
O O1 0.500000 0.595460 0.250000
O O2 0.363678 0.767914 0.223636
O O3 0.385932 0.619404 0.400077
O O4 0.473136 0.948128 0.345140
O O5 0.716258 0.986606 0.608941
O O6 0.596295 0.755336 0.646674
O O7 0.713523 0.487903 0.609600
O O8 0.468632 0.309339 0.450614
O O9 0.559683 0.000000 0.500000
O O10 0.716687 0.260829 0.238538
#
# Coordination Sequence:
#
# PCOD9319280 Si02
#       5
#     8   8   8   4   8
#     4  11  21  38  65  94 126 174 214 269 329 380
#     4  10  21  41  62  94 127 165 220 266 317 398
#     4  10  22  38  60  88 128 165 220 263 328 384
#     4  10  24  38  60  96 130 162 218 278 310 400
#     4  10  22  38  66  94 125 167 217 268 323 386
#
# _framework density 25.950718999999999
#
# number of rings (size 3 to 8) (size 9 to 14) (size 15 to 20)
#    0.000    1.778    2.222    1.333    6.222    0.889 
#    2.000    0.000    7.333    0.000    0.000    0.000 
#    0.000    0.000    0.000    0.000    0.000    0.000 
#
# Total GULP energy -100461.898993 kJ/mol
# GULP energy per Si atom -5581.216611 kJ/mol
# Density = 2.589165 g / cm^3
# Si number density = 25.950719 Si / 1000 Ang^3
#
#
#
# Elastic Constant Matrix: (Units=GPa)
#
#
# Indices 1 2 3 4 5 6 
#
# 1 103.0924 1.9953 29.9243 0.0000 0.0000 0.0000
# 2 1.9953 207.1948 34.3854 0.0000 0.0000 0.0000
# 3 29.9243 34.3854 113.6198 0.0000 0.0000 0.0000
# 4 0.0000 0.0000 0.0000 0.9807 0.0000 0.0000
# 5 0.0000 0.0000 0.0000 0.0000 16.8152 0.0000
# 6 0.0000 0.0000 0.0000 0.0000 0.0000 18.2500
#
#
#
# Elastic Compliance Matrix: (Units=1/GPa)
#
#
# Indices 1 2 3 4 5 6 
#
# 1 0.010531 0.000378 -0.002888 0.000000 0.000000 0.000000
# 2 0.000378 0.005095 -0.001641 0.000000 0.000000 0.000000
# 3 -0.002888 -0.001641 0.010059 0.000000 0.000000 0.000000
# 4 0.000000 0.000000 0.000000 1.019713 0.000000 0.000000
# 5 0.000000 0.000000 0.000000 0.000000 0.059470 0.000000
# 6 0.000000 0.000000 0.000000 0.000000 0.000000 0.054795
#
#
# Mechanical properties :
#
#
# Convention : Reuss Voigt Hill
#
# Bulk Modulus (GPa) = 57.53182 61.83522 59.68352
# Shear Modulus (GPa) = 4.25982 31.04929 17.65456
#
# Velocity S-wave (km/s) = 1.28260 3.46276 2.61111
# Velocity P-wave (km/s) = 4.94077 6.31405 5.66915
#
# Compressibility (1/GPa) = 0.01738168
#
# Stress axis : x y z
#
# Youngs Moduli (GPa) = 94.95780 196.26495 99.41684
#
# Poissons Ratio (x) = -0.07416 0.28711
# Poissons Ratio (y) = -0.03588 0.16319
# Poissons Ratio (z) = 0.27423 0.32217
#
# Static dielectric constant tensor:
#      x y z
#    x 1.963040 0.000000 0.000000 
#    y 0.000000 2.192290 0.000000 
#    z 0.000000 0.000000 2.537300 
# 
# From -- ./inp_files/21595.got.cif
#   From: 2010.05.17/outbox.cif.g08.bks.cpg/sg20_11_cif.got.tgz:21595.got - 2010.06.03 22:52:26.
