data_PCOD9319656
_publ_section_title
;
Structure prediction by ZEFSAII (Michael W. Deem and Ramdas Pophale) SiO2 
 PCOD9319656
Probable space group: C 2 2 21
;
_chemical_formula_sum "Si O2"
_cell_formula_units_Z 52
_cell_length_a 25.056092
_cell_length_b 12.606852
_cell_length_c 7.434397
_cell_angle_alpha 90.000000
_cell_angle_beta 90.000000
_cell_angle_gamma 90.000000
_cell_volume 2348.365753
_symmetry_space_group_name_H-M "C 2 2 21"
_symmetry_group_IT_number 20
_symmetry_cell_setting 'orthorhombic'
loop_
_space_group_symop_operation_xyz
x,y,z
-x,-y,1/2+z
x,-y,-z
-x,y,1/2-z
1/2+x,1/2+y,z
1/2-x,1/2-y,1/2+z
1/2+x,1/2-y,-z
1/2-x,1/2+y,1/2-z
loop_
_atom_site_type_symbol
_atom_site_label
_atom_site_fract_x
_atom_site_fract_y
_atom_site_fract_z
Si Si1 0.433186 0.767609 0.435643
Si Si2 0.292739 0.523897 0.211153
Si Si3 0.823933 0.478947 0.194380
Si Si4 0.368667 0.330296 0.223060
Si Si5 0.091931 0.500000 0.000000
Si Si6 0.155217 0.246606 0.352034
Si Si7 0.521917 0.618832 0.553498
O O1 0.395174 0.723133 0.600583
O O2 0.402164 0.754707 0.247048
O O3 0.487812 0.702102 0.440210
O O4 0.440788 0.892722 0.469153
O O5 0.234197 0.529221 0.293423
O O6 0.329871 0.426900 0.279511
O O7 0.320382 0.637618 0.220368
O O8 0.285214 0.500000 0.000000
O O9 0.867010 0.517318 0.336560
O O10 0.815816 0.352470 0.217232
O O11 0.847747 0.500000 0.000000
O O12 0.415057 0.375986 0.089689
O O13 0.341999 0.254635 0.071139
O O14 0.507126 0.500000 0.500000
O O15 0.500000 0.640657 0.750000
#
# Coordination Sequence:
#
# PCOD9319656 Si02
#       7
#     8   8   8   8   4   8   8
#     4  10  23  38  67  88 122 164 202 250 313 365
#     4  10  22  39  58  88 127 161 201 255 309 364
#     4  11  23  39  62  89 120 165 210 251 305 367
#     4  10  22  41  60  91 127 156 198 260 305 367
#     4  10  22  46  60  88 128 162 208 262 296 370
#     4  10  23  38  61  89 121 161 203 253 311 361
#     4  10  22  37  64  94 124 157 199 255 315 372
#
# _framework density 22.143058
#
# number of rings (size 3 to 8) (size 9 to 14) (size 15 to 20)
#    0.000    1.846    0.769    2.308    8.615    3.692 
#    0.000    0.000   22.000    0.000    0.000    0.000 
#    0.000    0.000    0.000    0.000    0.000    0.000 
#
# Total GULP energy -145135.771667 kJ/mol
# GULP energy per Si atom -5582.145064 kJ/mol
# Density = 2.209266 g / cm^3
# Si number density = 22.143058 Si / 1000 Ang^3
#
#
#
# Elastic Constant Matrix: (Units=GPa)
#
#
# Indices 1 2 3 4 5 6 
#
# 1 62.0791 22.3745 -1.1198 0.0000 0.0000 0.0000
# 2 22.3745 92.5613 6.5081 0.0000 0.0000 0.0000
# 3 -1.1198 6.5081 82.6820 0.0000 0.0000 0.0000
# 4 0.0000 0.0000 0.0000 25.7188 0.0000 0.0000
# 5 0.0000 0.0000 0.0000 0.0000 -3.7687 0.0000
# 6 0.0000 0.0000 0.0000 0.0000 0.0000 28.0787
#
#
#
# Elastic Compliance Matrix: (Units=1/GPa)
#
#
# Indices 1 2 3 4 5 6 
#
# 1 0.017673 -0.004313 0.000579 0.000000 0.000000 0.000000
# 2 -0.004313 0.011916 -0.000996 0.000000 0.000000 0.000000
# 3 0.000579 -0.000996 0.012181 0.000000 0.000000 0.000000
# 4 0.000000 0.000000 0.000000 0.038882 0.000000 0.000000
# 5 0.000000 0.000000 0.000000 0.000000 -0.265346 0.000000
# 6 0.000000 0.000000 0.000000 0.000000 0.000000 0.035614
#
#
# Mechanical properties :
#
#
# Convention : Reuss Voigt Hill
#
# Bulk Modulus (GPa) = 30.95049 32.53867 31.74458
# Shear Modulus (GPa) = -38.80528 23.97640 -7.41444
#
# Velocity S-wave (km/s) = -4.19081 3.29416 -1.83186
# Velocity P-wave (km/s) = 3.06746 5.40326 3.14531
#
# Compressibility (1/GPa) = 0.03230967
#
# Stress axis : x y z
#
# Youngs Moduli (GPa) = 56.58241 83.91922 82.09643
#
# Poissons Ratio (x) = 0.36193 -0.04752
# Poissons Ratio (y) = 0.24403 0.08180
# Poissons Ratio (z) = -0.03275 0.08361
#
# Static dielectric constant tensor:
#      x y z
#    x 1.886550 0.000000 0.000000 
#    y 0.000000 1.817220 0.000000 
#    z 0.000000 0.000000 1.849410 
# 
# From -- ./inp_files/7523.got.cif
#   From: 2010.05.17/outbox.cif.g08.bks.cpg/sg20_4_cif.got.tgz:7523.got - 2010.06.03 22:52:26.
