data_PCOD9319432
_publ_section_title
;
Structure prediction by ZEFSAII (Michael W. Deem and Ramdas Pophale) SiO2 
 PCOD9319432
Probable space group: C 2 2 21
;
_chemical_formula_sum "Si O2"
_cell_formula_units_Z 40
_cell_length_a 15.342654
_cell_length_b 15.146274
_cell_length_c 7.204712
_cell_angle_alpha 90.000000
_cell_angle_beta 90.000000
_cell_angle_gamma 90.000000
_cell_volume 1674.260091
_symmetry_space_group_name_H-M "C 2 2 21"
_symmetry_group_IT_number 20
_symmetry_cell_setting 'orthorhombic'
loop_
_space_group_symop_operation_xyz
x,y,z
-x,-y,1/2+z
x,-y,-z
-x,y,1/2-z
1/2+x,1/2+y,z
1/2-x,1/2-y,1/2+z
1/2+x,1/2-y,-z
1/2-x,1/2+y,1/2-z
loop_
_atom_site_type_symbol
_atom_site_label
_atom_site_fract_x
_atom_site_fract_y
_atom_site_fract_z
Si Si1 0.140025 0.249263 0.585468
Si Si2 0.666228 0.214615 0.035796
Si Si3 0.912117 0.922240 0.854706
Si Si4 0.768905 0.464166 0.709086
Si Si5 0.406779 0.109390 0.805879
O O1 0.244222 0.255244 0.541362
O O2 0.123107 0.227867 0.802484
O O3 0.113856 0.164433 0.467290
O O4 0.093681 0.334364 0.494279
O O5 0.686218 0.129034 0.165936
O O6 0.614519 0.179216 0.859090
O O7 0.829393 0.948121 0.724209
O O8 0.000000 0.903718 0.750000
O O9 0.928234 0.000000 0.000000
O O10 0.756142 0.500000 0.500000
O O11 0.831061 0.535662 0.805085
O O12 0.500000 0.069060 0.750000
#
# Coordination Sequence:
#
# PCOD9319432 Si02
#       5
#     8   8   8   8   8
#     4  11  22  42  71  99 131 177 228 277 345 400
#     4  10  21  42  68  96 135 180 220 275 340 406
#     4  10  22  45  67  96 132 175 230 284 338 402
#     4   8  19  42  67  92 135 179 218 273 339 405
#     4  11  23  43  68 101 141 180 222 283 331 404
#
# _framework density 23.891151000000001
#
# number of rings (size 3 to 8) (size 9 to 14) (size 15 to 20)
#    0.000    2.000    2.000    1.800    0.000    1.600 
#   25.200    0.000    0.000    0.000    0.000    0.000 
#    0.000    0.000    0.000    0.000    0.000    0.000 
#
# Total GULP energy -111792.562562 kJ/mol
# GULP energy per Si atom -5589.628128 kJ/mol
# Density = 2.383677 g / cm^3
# Si number density = 23.891151 Si / 1000 Ang^3
#
#
#
# Elastic Constant Matrix: (Units=GPa)
#
#
# Indices 1 2 3 4 5 6 
#
# 1 94.6637 -7.0832 21.9835 0.0000 0.0000 0.0000
# 2 -7.0832 42.8702 4.2309 0.0000 0.0000 0.0000
# 3 21.9835 4.2309 110.2994 0.0000 0.0000 0.0000
# 4 0.0000 0.0000 0.0000 34.6048 0.0000 0.0000
# 5 0.0000 0.0000 0.0000 0.0000 -23.2620 0.0000
# 6 0.0000 0.0000 0.0000 0.0000 0.0000 -51.9146
#
#
#
# Elastic Compliance Matrix: (Units=1/GPa)
#
#
# Indices 1 2 3 4 5 6 
#
# 1 0.011260 0.002090 -0.002324 0.000000 0.000000 0.000000
# 2 0.002090 0.023803 -0.001330 0.000000 0.000000 0.000000
# 3 -0.002324 -0.001330 0.009580 0.000000 0.000000 0.000000
# 4 0.000000 0.000000 0.000000 0.028898 0.000000 0.000000
# 5 0.000000 0.000000 0.000000 0.000000 -0.042989 0.000000
# 6 0.000000 0.000000 0.000000 0.000000 0.000000 -0.019262
#
#
# Mechanical properties :
#
#
# Convention : Reuss Voigt Hill
#
# Bulk Modulus (GPa) = 24.08774 31.78841 27.93808
# Shear Modulus (GPa) = 176.95238 7.13246 92.04242
#
# Velocity S-wave (km/s) = 8.61550 1.72971 6.21364
# Velocity P-wave (km/s) = 10.44382 4.16216 7.94975
#
# Compressibility (1/GPa) = 0.04151489
#
# Stress axis : x y z
#
# Youngs Moduli (GPa) = 88.81111 42.01203 104.37879
#
# Poissons Ratio (x) = -0.08780 0.24261
# Poissons Ratio (y) = -0.18560 0.13878
# Poissons Ratio (z) = 0.20643 0.05586
#
# Static dielectric constant tensor:
#      x y z
#    x 1.974420 0.000000 0.000000 
#    y 0.000000 2.344300 0.000000 
#    z 0.000000 0.000000 2.161630 
# 
# From -- ./inp_files/8102.got.cif
#   From: 2010.05.17/outbox.cif.g08.bks.cpg/sg20_5_cif.got.tgz:8102.got - 2010.06.03 22:52:26.
