data_PCOD9319344
_publ_section_title
;
Structure prediction by ZEFSAII (Michael W. Deem and Ramdas Pophale) SiO2 
 PCOD9319344
Probable space group: C 2 2 21
;
_chemical_formula_sum "Si O2"
_cell_formula_units_Z 32
_cell_length_a 7.247985
_cell_length_b 16.752717
_cell_length_c 11.553218
_cell_angle_alpha 90.000000
_cell_angle_beta 90.000000
_cell_angle_gamma 90.000000
_cell_volume 1402.831490
_symmetry_space_group_name_H-M "C 2 2 21"
_symmetry_group_IT_number 20
_symmetry_cell_setting 'orthorhombic'
loop_
_space_group_symop_operation_xyz
x,y,z
-x,-y,1/2+z
x,-y,-z
-x,y,1/2-z
1/2+x,1/2+y,z
1/2-x,1/2-y,1/2+z
1/2+x,1/2-y,-z
1/2-x,1/2+y,1/2-z
loop_
_atom_site_type_symbol
_atom_site_label
_atom_site_fract_x
_atom_site_fract_y
_atom_site_fract_z
Si Si1 0.345225 0.826478 0.507913
Si Si2 0.229278 0.141018 0.008096
Si Si3 0.718164 0.922732 0.761166
Si Si4 0.595796 0.442690 0.393416
O O1 0.551701 0.858505 0.488220
O O2 0.340790 0.731383 0.505390
O O3 0.273214 0.859290 0.632508
O O4 0.215347 0.862702 0.408759
O O5 0.111218 0.085555 0.922797
O O6 0.205732 0.112411 0.140972
O O7 0.500000 0.940255 0.750000
O O8 0.827310 0.003000 0.791284
O O9 0.648674 0.500000 0.500000
#
# Coordination Sequence:
#
# PCOD9319344 Si02
#       4
#     8   8   8   8
#     4  10  21  41  69 102 141 182 237 296 346 419
#     4  11  21  42  71 102 143 184 232 301 352 415
#     4   9  22  43  70 101 142 193 234 290 360 431
#     4  10  22  41  67 101 140 179 236 288 355 421
#
# _framework density 22.811007
#
# number of rings (size 3 to 8) (size 9 to 14) (size 15 to 20)
#    0.000    2.000    2.500    0.000    0.000    9.000 
#    0.000   12.500    0.000    3.000    0.000    0.000 
#    0.000    0.000    0.000    0.000    0.000    0.000 
#
# Total GULP energy -89430.603228 kJ/mol
# GULP energy per Si atom -5589.412702 kJ/mol
# Density = 2.275909 g / cm^3
# Si number density = 22.811007 Si / 1000 Ang^3
#
#
#
# Elastic Constant Matrix: (Units=GPa)
#
#
# Indices 1 2 3 4 5 6 
#
# 1 111.7519 47.5042 73.7241 0.0000 0.0000 0.0000
# 2 47.5042 146.2667 95.8056 0.0000 0.0000 0.0000
# 3 73.7241 95.8056 133.4103 0.0000 0.0000 0.0000
# 4 0.0000 0.0000 0.0000 39.3440 0.0000 0.0000
# 5 0.0000 0.0000 0.0000 0.0000 16.4179 0.0000
# 6 0.0000 0.0000 0.0000 0.0000 0.0000 31.9991
#
#
#
# Elastic Compliance Matrix: (Units=1/GPa)
#
#
# Indices 1 2 3 4 5 6 
#
# 1 0.014158 0.000994 -0.008538 0.000000 0.000000 0.000000
# 2 0.000994 0.012979 -0.009870 0.000000 0.000000 0.000000
# 3 -0.008538 -0.009870 0.019302 0.000000 0.000000 0.000000
# 4 0.000000 0.000000 0.000000 0.025417 0.000000 0.000000
# 5 0.000000 0.000000 0.000000 0.000000 0.060909 0.000000
# 6 0.000000 0.000000 0.000000 0.000000 0.000000 0.031251
#
#
# Mechanical properties :
#
#
# Convention : Reuss Voigt Hill
#
# Bulk Modulus (GPa) = 86.12163 91.72184 88.92174
# Shear Modulus (GPa) = 24.66539 29.17855 26.92197
#
# Velocity S-wave (km/s) = 3.29187 3.58039 3.43916
# Velocity P-wave (km/s) = 7.23083 7.57555 7.40520
#
# Compressibility (1/GPa) = 0.01161148
#
# Stress axis : x y z
#
# Youngs Moduli (GPa) = 70.62927 77.04950 51.80932
#
# Poissons Ratio (x) = -0.07659 0.44235
# Poissons Ratio (y) = -0.07021 0.51134
# Poissons Ratio (z) = 0.60303 0.76045
#
# Static dielectric constant tensor:
#      x y z
#    x 1.876430 0.000000 0.000000 
#    y 0.000000 1.793890 0.000000 
#    z 0.000000 0.000000 1.941060 
# 
# From -- ./inp_files/12553.got.cif
#   From: 2010.05.17/outbox.cif.g08.bks.cpg/sg20_7_cif.got.tgz:12553.got - 2010.06.03 22:52:26.
