data_PCOD9319877
_publ_section_title
;
Structure prediction by ZEFSAII (Michael W. Deem and Ramdas Pophale) SiO2 
 PCOD9319877
Probable space group: C 2 2 21
;
_chemical_formula_sum "Si O2"
_cell_formula_units_Z 40
_cell_length_a 16.802111
_cell_length_b 9.807969
_cell_length_c 12.288567
_cell_angle_alpha 90.000000
_cell_angle_beta 90.000000
_cell_angle_gamma 90.000000
_cell_volume 2025.089285
_symmetry_space_group_name_H-M "C 2 2 21"
_symmetry_group_IT_number 20
_symmetry_cell_setting 'orthorhombic'
loop_
_space_group_symop_operation_xyz
x,y,z
-x,-y,1/2+z
x,-y,-z
-x,y,1/2-z
1/2+x,1/2+y,z
1/2-x,1/2-y,1/2+z
1/2+x,1/2-y,-z
1/2-x,1/2+y,1/2-z
loop_
_atom_site_type_symbol
_atom_site_label
_atom_site_fract_x
_atom_site_fract_y
_atom_site_fract_z
Si Si1 0.248803 0.215753 0.982330
Si Si2 0.000000 0.813572 0.750000
Si Si3 0.659109 0.000000 0.000000
Si Si4 0.914238 0.545951 0.717731
Si Si5 0.633114 0.592262 0.392548
Si Si6 0.257158 0.510004 0.316628
O O1 0.335357 0.261710 0.937008
O O2 0.213346 0.123105 0.884357
O O3 0.208964 0.361311 0.004995
O O4 0.244353 0.130209 0.093468
O O5 0.931973 0.708485 0.708564
O O6 0.954698 0.897864 0.841429
O O7 0.604772 0.014153 0.102694
O O8 0.835020 0.515941 0.785474
O O9 0.000000 0.488709 0.750000
O O10 0.633221 0.500000 0.500000
O O11 0.692174 0.542924 0.293187
#
# Coordination Sequence:
#
# PCOD9319877 Si02
#       6
#     8   4   4   8   8   8
#     4  11  23  40  75 101 139 184 239 298 354 431
#     4  10  24  46  64 100 148 180 234 302 350 424
#     4  12  22  40  68 106 132 184 234 292 356 420
#     4  10  22  40  67  95 138 174 228 294 337 416
#     4  12  24  43  74 100 147 192 235 298 371 433
#     4  11  24  44  71 108 136 187 242 291 362 439
#
# _framework density 19.752215
#
# number of rings (size 3 to 8) (size 9 to 14) (size 15 to 20)
#    0.600    0.400    5.000    1.200    2.800    3.200 
#    7.200    0.000    2.200    0.000    0.000    0.000 
#    0.000    0.000    0.000    0.000    0.000    0.000 
#
# Total GULP energy -111374.535643 kJ/mol
# GULP energy per Si atom -5568.726782 kJ/mol
# Density = 1.970726 g / cm^3
# Si number density = 19.752215 Si / 1000 Ang^3
#
#
#
# Elastic Constant Matrix: (Units=GPa)
#
#
# Indices 1 2 3 4 5 6 
#
# 1 106.8612 38.5413 62.7016 0.0000 0.0000 0.0000
# 2 38.5413 100.2974 53.5484 0.0000 0.0000 0.0000
# 3 62.7016 53.5484 133.7261 0.0000 0.0000 0.0000
# 4 0.0000 0.0000 0.0000 26.3222 0.0000 0.0000
# 5 0.0000 0.0000 0.0000 0.0000 61.8440 0.0000
# 6 0.0000 0.0000 0.0000 0.0000 0.0000 8.9907
#
#
#
# Elastic Compliance Matrix: (Units=1/GPa)
#
#
# Indices 1 2 3 4 5 6 
#
# 1 0.013303 -0.002266 -0.005330 0.000000 0.000000 0.000000
# 2 -0.002266 0.013068 -0.004170 0.000000 0.000000 0.000000
# 3 -0.005330 -0.004170 0.011647 0.000000 0.000000 0.000000
# 4 0.000000 0.000000 0.000000 0.037991 0.000000 0.000000
# 5 0.000000 0.000000 0.000000 0.000000 0.016170 0.000000
# 6 0.000000 0.000000 0.000000 0.000000 0.000000 0.111226
#
#
# Mechanical properties :
#
#
# Convention : Reuss Voigt Hill
#
# Bulk Modulus (GPa) = 69.03827 72.27413 70.65620
# Shear Modulus (GPa) = 21.57367 31.83761 26.70564
#
# Velocity S-wave (km/s) = 3.30845 4.01914 3.68099
# Velocity P-wave (km/s) = 7.04433 7.62940 7.34269
#
# Compressibility (1/GPa) = 0.01448472
#
# Stress axis : x y z
#
# Youngs Moduli (GPa) = 75.17315 76.52520 85.85966
#
# Poissons Ratio (x) = 0.17342 0.45762
# Poissons Ratio (y) = 0.17036 0.35805
# Poissons Ratio (z) = 0.40066 0.31912
#
# Static dielectric constant tensor:
#      x y z
#    x 1.742110 0.000000 0.000000 
#    y 0.000000 1.742400 0.000000 
#    z 0.000000 0.000000 1.727240 
# 
# From -- ./inp_files/15603.got.cif
#   From: 2010.05.17/outbox.cif.g08.bks.cpg/sg20_8_cif.got.tgz:15603.got - 2010.06.03 22:52:26.
