data_PCOD9319241
_publ_section_title
;
Structure prediction by ZEFSAII (Michael W. Deem and Ramdas Pophale) SiO2 
 PCOD9319241
Probable space group: C 2 2 21
;
_chemical_formula_sum "Si O2"
_cell_formula_units_Z 64
_cell_length_a 20.714481
_cell_length_b 8.408277
_cell_length_c 16.012071
_cell_angle_alpha 90.000000
_cell_angle_beta 90.000000
_cell_angle_gamma 90.000000
_cell_volume 2788.871950
_symmetry_space_group_name_H-M "C 2 2 21"
_symmetry_group_IT_number 20
_symmetry_cell_setting 'orthorhombic'
loop_
_space_group_symop_operation_xyz
x,y,z
-x,-y,1/2+z
x,-y,-z
-x,y,1/2-z
1/2+x,1/2+y,z
1/2-x,1/2-y,1/2+z
1/2+x,1/2-y,-z
1/2-x,1/2+y,1/2-z
loop_
_atom_site_type_symbol
_atom_site_label
_atom_site_fract_x
_atom_site_fract_y
_atom_site_fract_z
Si Si1 0.448355 0.007043 0.826736
Si Si2 0.446998 0.659447 0.824634
Si Si3 0.311740 0.149248 0.806757
Si Si4 0.198967 0.160939 0.907131
Si Si5 0.142083 0.834150 0.905837
Si Si6 0.503321 0.334620 0.646971
Si Si7 0.811937 0.021976 0.796680
Si Si8 0.202321 0.489440 0.097643
O O1 0.500000 0.003118 0.750000
O O2 0.374760 0.041989 0.799943
O O3 0.465610 0.166488 0.877316
O O4 0.451878 0.832161 0.866653
O O5 0.500000 0.661744 0.750000
O O6 0.461551 0.498778 0.875532
O O7 0.374941 0.629465 0.790756
O O8 0.276391 0.145191 0.898147
O O9 0.327051 0.334072 0.787314
O O10 0.251096 0.083006 0.753757
O O11 0.184261 0.334913 0.867912
O O12 0.167790 0.000982 0.869370
O O13 0.170653 0.166291 0.000434
O O14 0.066415 0.840306 0.894099
O O15 0.164921 0.665146 0.869810
O O16 0.500000 0.333017 0.750000
O O17 0.778509 0.034921 0.888413
O O18 0.187796 0.500000 0.000000
#
# Coordination Sequence:
#
# PCOD9319241 Si02
#       8
#     8   8   8   8   8   8   8   8
#     4  10  22  38  56  90 134 172 203 263 333 396
#     4  10  22  38  55  87 132 169 208 260 326 387
#     4  11  23  37  61  99 135 166 223 275 336 389
#     4   9  22  40  62  98 124 163 229 270 316 404
#     4  10  21  40  68  90 124 177 213 271 334 388
#     4  10  22  37  61  90 131 164 213 269 326 402
#     4  11  23  36  62  96 129 172 211 283 333 388
#     4   9  21  40  62  94 127 165 215 269 322 400
#
# _framework density 22.948346000000001
#
# number of rings (size 3 to 8) (size 9 to 14) (size 15 to 20)
#    0.000    2.000    1.250    0.750   10.500    1.000 
#    0.000    0.000    2.750    0.000    9.750    0.000 
#    0.000    0.000    0.000    0.000    0.000    0.000 
#
# Total GULP energy -178341.266441 kJ/mol
# GULP energy per Si atom -5573.164576 kJ/mol
# Density = 2.289611 g / cm^3
# Si number density = 22.948346 Si / 1000 Ang^3
#
#
#
# Elastic Constant Matrix: (Units=GPa)
#
#
# Indices 1 2 3 4 5 6 
#
# 1 153.6230 69.5257 20.8536 0.0000 0.0000 0.0000
# 2 69.5257 246.4667 10.4653 0.0000 0.0000 0.0000
# 3 20.8536 10.4653 30.2404 0.0000 0.0000 0.0000
# 4 0.0000 0.0000 0.0000 -11.5342 0.0000 0.0000
# 5 0.0000 0.0000 0.0000 0.0000 20.3020 0.0000
# 6 0.0000 0.0000 0.0000 0.0000 0.0000 35.5518
#
#
#
# Elastic Compliance Matrix: (Units=1/GPa)
#
#
# Indices 1 2 3 4 5 6 
#
# 1 0.008113 -0.002082 -0.004874 0.000000 0.000000 0.000000
# 2 -0.002082 0.004652 -0.000174 0.000000 0.000000 0.000000
# 3 -0.004874 -0.000174 0.036490 0.000000 0.000000 0.000000
# 4 0.000000 0.000000 0.000000 -0.086699 0.000000 0.000000
# 5 0.000000 0.000000 0.000000 0.000000 0.049256 0.000000
# 6 0.000000 0.000000 0.000000 0.000000 0.000000 0.028128
#
#
# Mechanical properties :
#
#
# Convention : Reuss Voigt Hill
#
# Bulk Modulus (GPa) = 28.57611 70.22439 49.40025
# Shear Modulus (GPa) = 75.91115 30.82961 53.37038
#
# Velocity S-wave (km/s) = 5.75769 3.66927 4.82776
# Velocity P-wave (km/s) = 7.52866 6.97272 7.25602
#
# Compressibility (1/GPa) = 0.03499426
#
# Stress axis : x y z
#
# Youngs Moduli (GPa) = 123.25532 214.96270 27.40470
#
# Poissons Ratio (x) = 0.44748 0.13358
# Poissons Ratio (y) = 0.25658 0.00478
# Poissons Ratio (z) = 0.60080 0.03749
#
# Static dielectric constant tensor:
#      x y z
#    x 1.800230 0.000000 0.000000 
#    y 0.000000 1.926440 0.000000 
#    z 0.000000 0.000000 2.119110 
# 
# From -- ./inp_files/27776.got.cif
#   From: 2010.05.17/outbox.cif.g08.bks.cpg/sg20_14_cif.got.tgz:27776.got - 2010.06.03 22:52:26.
