data_PCOD9319649
_publ_section_title
;
Structure prediction by ZEFSAII (Michael W. Deem and Ramdas Pophale) SiO2 
 PCOD9319649
Probable space group: C 2 2 21
;
_chemical_formula_sum "Si O2"
_cell_formula_units_Z 64
_cell_length_a 13.793966
_cell_length_b 8.774958
_cell_length_c 22.649497
_cell_angle_alpha 90.000000
_cell_angle_beta 90.000000
_cell_angle_gamma 90.000000
_cell_volume 2741.528464
_symmetry_space_group_name_H-M "C 2 2 21"
_symmetry_group_IT_number 20
_symmetry_cell_setting 'orthorhombic'
loop_
_space_group_symop_operation_xyz
x,y,z
-x,-y,1/2+z
x,-y,-z
-x,y,1/2-z
1/2+x,1/2+y,z
1/2-x,1/2-y,1/2+z
1/2+x,1/2-y,-z
1/2-x,1/2+y,1/2-z
loop_
_atom_site_type_symbol
_atom_site_label
_atom_site_fract_x
_atom_site_fract_y
_atom_site_fract_z
Si Si1 0.530974 0.500000 0.933237
Si Si2 0.704783 0.500000 0.432466
Si Si3 0.816858 0.745471 0.156074
Si Si4 0.683142 0.245472 0.656074
Si Si5 0.875941 0.839975 0.716964
Si Si6 0.527171 0.831680 0.123344
Si Si7 0.027171 0.331680 0.876656
Si Si8 0.875941 0.839974 0.283036
O O1 0.413337 0.500000 0.932923
O O2 0.556012 0.330036 0.907693
O O3 0.556012 0.669964 0.907693
O O4 0.567769 0.500000 0.000000
O O5 0.738487 0.500000 0.500000
O O6 0.729904 0.353687 0.393354
O O7 0.729904 0.646313 0.393354
O O8 0.728948 0.657168 0.185992
O O9 0.860859 0.830613 0.213286
O O10 0.910098 0.667570 0.127114
O O11 0.639142 0.330614 0.713286
O O12 0.589902 0.167571 0.627115
O O13 0.771053 0.157169 0.685992
O O14 0.930801 0.696832 0.689126
O O15 0.926401 0.000000 0.702178
O O16 0.557566 1.000000 0.100835
O O17 0.069198 0.303168 0.810874
#
# Coordination Sequence:
#
# PCOD9319649 Si02
#       8
#     8   8   8   8   8   8   8   8
#     4   9  20  41  65  89 122 166 214 266 313 371
#     4   9  18  37  63  89 119 162 215 260 314 377
#     4  10  22  37  61  90 126 165 206 258 317 372
#     4  10  22  37  61  90 126 165 206 258 317 372
#     4  11  22  37  61  90 129 166 206 258 318 381
#     4  11  23  39  63  94 127 165 209 260 319 379
#     4  11  23  39  63  94 127 165 209 260 319 379
#     4  11  22  37  61  90 129 166 206 258 318 381
#
# _framework density 23.344640999999999
#
# number of rings (size 3 to 8) (size 9 to 14) (size 15 to 20)
#    0.000    1.750    2.500    1.500    1.750    4.500 
#    0.000    1.250    0.000    1.500    0.000    0.000 
#    0.000    0.000    0.000    0.000    0.000    0.000 
#
# Total GULP energy -178387.344829 kJ/mol
# GULP energy per Si atom -5574.604526 kJ/mol
# Density = 2.329151 g / cm^3
# Si number density = 23.344641 Si / 1000 Ang^3
#
#
#
# Elastic Constant Matrix: (Units=GPa)
#
#
# Indices 1 2 3 4 5 6 
#
# 1 66.0224 22.7166 -5.2782 0.0000 0.0000 0.0000
# 2 22.7166 197.9795 77.6925 0.0000 0.0000 0.0000
# 3 -5.2782 77.6925 139.6092 0.0000 0.0000 0.0000
# 4 0.0000 0.0000 0.0000 -20.5904 0.0000 0.0000
# 5 0.0000 0.0000 0.0000 0.0000 19.4723 0.0000
# 6 0.0000 0.0000 0.0000 0.0000 0.0000 78.0154
#
#
#
# Elastic Compliance Matrix: (Units=1/GPa)
#
#
# Indices 1 2 3 4 5 6 
#
# 1 0.016242 -0.002693 0.002112 0.000000 0.000000 0.000000
# 2 -0.002693 0.006909 -0.003946 0.000000 0.000000 0.000000
# 3 0.002112 -0.003946 0.009439 0.000000 0.000000 0.000000
# 4 0.000000 0.000000 0.000000 -0.048566 0.000000 0.000000
# 5 0.000000 0.000000 0.000000 0.000000 0.051355 0.000000
# 6 0.000000 0.000000 0.000000 0.000000 0.000000 0.012818
#
#
# Mechanical properties :
#
#
# Convention : Reuss Voigt Hill
#
# Bulk Modulus (GPa) = 42.48789 65.98588 54.23689
# Shear Modulus (GPa) = 76.81123 35.94480 56.37801
#
# Velocity S-wave (km/s) = 5.74235 3.92822 4.91963
# Velocity P-wave (km/s) = 7.88707 6.99298 7.45345
#
# Compressibility (1/GPa) = 0.02353612
#
# Stress axis : x y z
#
# Youngs Moduli (GPa) = 61.56989 144.74534 105.94423
#
# Poissons Ratio (x) = 0.38974 -0.22380
# Poissons Ratio (y) = 0.16578 0.41811
# Poissons Ratio (z) = -0.13006 0.57123
#
# Static dielectric constant tensor:
#      x y z
#    x 1.897670 0.000000 0.000000 
#    y 0.000000 1.894140 0.000000 
#    z 0.000000 0.000000 1.880440 
# 
# From -- ./inp_files/29368.got.cif
#   From: 2010.05.17/outbox.cif.g08.bks.cpg/sg20_15_cif.got.tgz:29368.got - 2010.06.03 22:52:26.
