data_PCOD9319641
_publ_section_title
;
Structure prediction by ZEFSAII (Michael W. Deem and Ramdas Pophale) SiO2 
 PCOD9319641
Probable space group: C 2 2 21
;
_chemical_formula_sum "Si O2"
_cell_formula_units_Z 64
_cell_length_a 25.763360
_cell_length_b 10.996152
_cell_length_c 11.929477
_cell_angle_alpha 90.000000
_cell_angle_beta 90.000000
_cell_angle_gamma 90.000000
_cell_volume 3379.594859
_symmetry_space_group_name_H-M "C 2 2 21"
_symmetry_group_IT_number 20
_symmetry_cell_setting 'orthorhombic'
loop_
_space_group_symop_operation_xyz
x,y,z
-x,-y,1/2+z
x,-y,-z
-x,y,1/2-z
1/2+x,1/2+y,z
1/2-x,1/2-y,1/2+z
1/2+x,1/2-y,-z
1/2-x,1/2+y,1/2-z
loop_
_atom_site_type_symbol
_atom_site_label
_atom_site_fract_x
_atom_site_fract_y
_atom_site_fract_z
Si Si1 0.166491 0.581351 0.770122
Si Si2 0.757868 0.368573 0.452577
Si Si3 0.387981 0.133789 0.956550
Si Si4 0.327829 0.187362 0.361571
Si Si5 0.515697 0.701363 0.426364
Si Si6 0.417901 0.130282 0.543079
Si Si7 0.462756 0.438452 0.154076
Si Si8 0.147433 0.826509 0.358115
O O1 0.211787 0.653277 0.836218
O O2 0.154246 0.618152 0.643013
O O3 0.178512 0.438264 0.790249
O O4 0.115912 0.605734 0.846243
O O5 0.775278 0.500000 0.500000
O O6 0.779520 0.286761 0.554356
O O7 0.697683 0.374004 0.424136
O O8 0.438112 0.203047 0.908506
O O9 0.370370 0.213582 0.063545
O O10 0.401518 0.000000 0.000000
O O11 0.377490 0.172836 0.445326
O O12 0.336835 0.286086 0.266322
O O13 0.461685 0.772753 0.425900
O O14 0.520409 0.639378 0.547508
O O15 0.525477 0.581456 0.353500
O O16 0.439658 0.000000 0.500000
O O17 0.500000 0.388254 0.250000
O O18 0.401013 0.416956 0.157485
#
# Coordination Sequence:
#
# PCOD9319641 Si02
#       8
#     8   8   8   8   8   8   8   8
#     4   9  19  37  56  87 116 148 187 247 299 349
#     4   9  21  37  60  83 115 151 201 239 292 362
#     4  11  22  35  55  86 122 143 188 244 304 345
#     4   9  18  38  59  86 112 152 189 246 301 345
#     4  10  22  37  57  85 115 156 196 239 287 344
#     4   9  18  35  62  85 115 147 195 238 298 356
#     4  10  23  40  56  81 118 160 201 233 280 347
#     4  11  22  36  62  83 118 159 193 242 295 358
#
# _framework density 18.937182
#
# number of rings (size 3 to 8) (size 9 to 14) (size 15 to 20)
#    0.000    2.250    1.250    2.625    7.000    0.000 
#    0.000    0.000    0.000    0.000    0.000    0.000 
#    0.000    0.000    0.000    0.000    0.000    0.000 
#
# Total GULP energy -178198.412582 kJ/mol
# GULP energy per Si atom -5568.700393 kJ/mol
# Density = 1.889408 g / cm^3
# Si number density = 18.937182 Si / 1000 Ang^3
#
#
#
# Elastic Constant Matrix: (Units=GPa)
#
#
# Indices 1 2 3 4 5 6 
#
# 1 104.2999 30.5164 32.9767 0.0000 0.0000 0.0000
# 2 30.5164 57.1530 24.8512 0.0000 0.0000 0.0000
# 3 32.9767 24.8512 93.8442 0.0000 0.0000 0.0000
# 4 0.0000 0.0000 0.0000 -78.5257 0.0000 0.0000
# 5 0.0000 0.0000 0.0000 0.0000 3.6475 0.0000
# 6 0.0000 0.0000 0.0000 0.0000 0.0000 19.6418
#
#
#
# Elastic Compliance Matrix: (Units=1/GPa)
#
#
# Indices 1 2 3 4 5 6 
#
# 1 0.012001 -0.005169 -0.002848 0.000000 0.000000 0.000000
# 2 -0.005169 0.022000 -0.004010 0.000000 0.000000 0.000000
# 3 -0.002848 -0.004010 0.012719 0.000000 0.000000 0.000000
# 4 0.000000 0.000000 0.000000 -0.012735 0.000000 0.000000
# 5 0.000000 0.000000 0.000000 0.000000 0.274158 0.000000
# 6 0.000000 0.000000 0.000000 0.000000 0.000000 0.050912
#
#
# Mechanical properties :
#
#
# Convention : Reuss Voigt Hill
#
# Bulk Modulus (GPa) = 44.11933 47.99843 46.05888
# Shear Modulus (GPa) = 12.79873 0.08293 6.44083
#
# Velocity S-wave (km/s) = 2.60254 0.20949 1.84622
# Velocity P-wave (km/s) = 5.69027 5.04576 5.37768
#
# Compressibility (1/GPa) = 0.02266580
#
# Stress axis : x y z
#
# Youngs Moduli (GPa) = 83.32864 45.45377 78.62522
#
# Poissons Ratio (x) = 0.23496 0.22394
# Poissons Ratio (y) = 0.43075 0.31525
# Poissons Ratio (z) = 0.23733 0.18225
#
# Static dielectric constant tensor:
#      x y z
#    x 1.677910 0.000000 0.000000 
#    y 0.000000 1.743570 0.000000 
#    z 0.000000 0.000000 1.626580 
# 
# From -- ./inp_files/16801.got.cif
#   From: 2010.05.17/outbox.cif.g08.bks.cpg/sg20_9_cif.got.tgz:16801.got - 2010.06.03 22:52:26.
