data_PCOD9319336
_publ_section_title
;
Structure prediction by ZEFSAII (Michael W. Deem and Ramdas Pophale) SiO2 
 PCOD9319336
Probable space group: C 2 2 21
;
_chemical_formula_sum "Si O2"
_cell_formula_units_Z 48
_cell_length_a 17.084359
_cell_length_b 14.405239
_cell_length_c 8.992554
_cell_angle_alpha 90.000000
_cell_angle_beta 90.000000
_cell_angle_gamma 90.000000
_cell_volume 2213.105979
_symmetry_space_group_name_H-M "C 2 2 21"
_symmetry_group_IT_number 20
_symmetry_cell_setting 'orthorhombic'
loop_
_space_group_symop_operation_xyz
x,y,z
-x,-y,1/2+z
x,-y,-z
-x,y,1/2-z
1/2+x,1/2+y,z
1/2-x,1/2-y,1/2+z
1/2+x,1/2-y,-z
1/2-x,1/2+y,1/2-z
loop_
_atom_site_type_symbol
_atom_site_label
_atom_site_fract_x
_atom_site_fract_y
_atom_site_fract_z
Si Si1 0.301790 0.000000 0.000000
Si Si2 0.519337 0.597446 0.073874
Si Si3 0.588088 0.035828 0.726413
Si Si4 0.195325 0.157959 0.001085
Si Si5 0.240736 0.823939 0.667318
Si Si6 0.308182 0.000000 0.500000
Si Si7 0.931980 0.738711 0.878349
O O1 0.244470 0.075296 0.926548
O O2 0.358624 0.032485 0.131449
O O3 0.500000 0.585102 0.250000
O O4 0.609968 0.621560 0.044671
O O5 0.472471 0.687398 0.011460
O O6 0.498916 0.500000 0.000000
O O7 0.500000 0.002809 0.750000
O O8 0.633881 0.049985 0.880839
O O9 0.583309 0.128989 0.625684
O O10 0.241803 0.174776 0.154669
O O11 0.199359 0.249544 0.902449
O O12 0.257415 0.922199 0.586544
O O13 0.153003 0.784553 0.641175
O O14 0.000000 0.739843 0.750000
#
# Coordination Sequence:
#
# PCOD9319336 Si02
#       7
#     4   8   8   8   8   4   8
#     4  12  23  46  67  98 138 178 224 290 341 416
#     4  11  24  45  71 101 140 186 232 285 355 421
#     4  11  24  45  67  96 135 186 227 285 350 412
#     4  12  25  46  71 101 139 179 233 290 352 418
#     4  12  25  44  69 104 136 183 234 291 349 416
#     4  12  27  40  71 104 136 174 252 286 333 430
#     4  10  21  41  68  90 134 182 217 272 358 401
#
# _framework density 21.688976
#
# number of rings (size 3 to 8) (size 9 to 14) (size 15 to 20)
#    0.000    0.667    7.500    1.500    3.500    0.000 
#    3.000    0.000    0.000    0.000    0.000    0.000 
#    0.000    0.000    0.000    0.000    0.000    0.000 
#
# Total GULP energy -133621.749817 kJ/mol
# GULP energy per Si atom -5567.572909 kJ/mol
# Density = 2.163961 g / cm^3
# Si number density = 21.688976 Si / 1000 Ang^3
#
#
#
# Elastic Constant Matrix: (Units=GPa)
#
#
# Indices 1 2 3 4 5 6 
#
# 1 116.4399 9.7677 6.4913 0.0000 0.0000 0.0000
# 2 9.7677 85.6985 -1.8359 0.0000 0.0000 0.0000
# 3 6.4913 -1.8359 44.6261 0.0000 0.0000 0.0000
# 4 0.0000 0.0000 0.0000 18.3806 0.0000 0.0000
# 5 0.0000 0.0000 0.0000 0.0000 24.7431 0.0000
# 6 0.0000 0.0000 0.0000 0.0000 0.0000 29.6839
#
#
#
# Elastic Compliance Matrix: (Units=1/GPa)
#
#
# Indices 1 2 3 4 5 6 
#
# 1 0.008747 -0.001025 -0.001315 0.000000 0.000000 0.000000
# 2 -0.001025 0.011799 0.000635 0.000000 0.000000 0.000000
# 3 -0.001315 0.000635 0.022626 0.000000 0.000000 0.000000
# 4 0.000000 0.000000 0.000000 0.054405 0.000000 0.000000
# 5 0.000000 0.000000 0.000000 0.000000 0.040415 0.000000
# 6 0.000000 0.000000 0.000000 0.000000 0.000000 0.033688
#
#
# Mechanical properties :
#
#
# Convention : Reuss Voigt Hill
#
# Bulk Modulus (GPa) = 25.14965 30.62342 27.88653
# Shear Modulus (GPa) = 26.54694 30.05095 28.29894
#
# Velocity S-wave (km/s) = 3.50234 3.72632 3.61607
# Velocity P-wave (km/s) = 5.28923 5.71524 5.50636
#
# Compressibility (1/GPa) = 0.03976198
#
# Stress axis : x y z
#
# Youngs Moduli (GPa) = 114.31965 84.75113 44.19746
#
# Poissons Ratio (x) = 0.08688 0.05810
# Poissons Ratio (y) = 0.11720 -0.02804
# Poissons Ratio (z) = 0.15028 -0.05378
#
# Static dielectric constant tensor:
#      x y z
#    x 1.779700 0.000000 0.000000 
#    y 0.000000 1.913570 0.000000 
#    z 0.000000 0.000000 1.840870 
# 
# From -- ./inp_files/9365.got.cif
#   From: 2010.05.17/outbox.cif.g08.bks.cpg/sg20_5_cif.got.tgz:9365.got - 2010.06.03 22:52:26.
