data_PCOD9319729
_publ_section_title
;
Structure prediction by ZEFSAII (Michael W. Deem and Ramdas Pophale) SiO2 
 PCOD9319729
Probable space group: C 2 2 21
;
_chemical_formula_sum "Si O2"
_cell_formula_units_Z 32
_cell_length_a 33.679583
_cell_length_b 6.199571
_cell_length_c 7.145387
_cell_angle_alpha 90.000000
_cell_angle_beta 90.000000
_cell_angle_gamma 90.000000
_cell_volume 1491.949418
_symmetry_space_group_name_H-M "C 2 2 21"
_symmetry_group_IT_number 20
_symmetry_cell_setting 'orthorhombic'
loop_
_space_group_symop_operation_xyz
x,y,z
-x,-y,1/2+z
x,-y,-z
-x,y,1/2-z
1/2+x,1/2+y,z
1/2-x,1/2-y,1/2+z
1/2+x,1/2-y,-z
1/2-x,1/2+y,1/2-z
loop_
_atom_site_type_symbol
_atom_site_label
_atom_site_fract_x
_atom_site_fract_y
_atom_site_fract_z
Si Si1 0.290770 0.197653 0.626849
Si Si2 0.000000 0.848554 0.250000
Si Si3 0.457670 0.000000 0.000000
Si Si4 0.357996 0.500000 0.500000
Si Si5 0.423376 0.614599 0.199025
Si Si6 0.277269 0.000000 0.000000
O O1 0.327493 0.301440 0.514235
O O2 0.252959 0.354812 0.621641
O O3 0.278353 0.000000 0.500000
O O4 0.300594 0.133216 0.841216
O O5 0.985085 0.685300 0.089575
O O6 0.962860 0.004929 0.284839
O O7 0.431610 0.867703 0.153333
O O8 0.386952 0.545540 0.327192
O O9 0.417285 0.500000 0.000000
#
# Coordination Sequence:
#
# PCOD9319729 Si02
#       6
#     8   4   4   4   8   4
#     4  11  24  43  70 106 135 183 225 289 346 409
#     4  10  22  38  70  98 130 182 246 294 346 414
#     4  10  22  39  68  97 128 188 236 300 359 396
#     4  11  28  42  66 101 148 184 220 288 361 412
#     4  10  24  44  62  98 141 180 240 295 341 424
#     4  11  22  43  74 102 138 174 242 274 334 424
#
# _framework density 21.448446000000001
#
# number of rings (size 3 to 8) (size 9 to 14) (size 15 to 20)
#    0.000    1.500    2.500    0.750    8.750    7.000 
#    0.000    0.000    0.000    0.000    0.000    0.000 
#    0.000    0.000    0.000    0.000    0.000    0.000 
#
# Total GULP energy -89231.107739 kJ/mol
# GULP energy per Si atom -5576.944234 kJ/mol
# Density = 2.139963 g / cm^3
# Si number density = 21.448446 Si / 1000 Ang^3
#
#
#
# Elastic Constant Matrix: (Units=GPa)
#
#
# Indices 1 2 3 4 5 6 
#
# 1 82.8359 34.1855 23.1298 0.0000 0.0000 0.0000
# 2 34.1855 102.0035 39.7803 0.0000 0.0000 0.0000
# 3 23.1298 39.7803 115.4243 0.0000 0.0000 0.0000
# 4 0.0000 0.0000 0.0000 32.3254 0.0000 0.0000
# 5 0.0000 0.0000 0.0000 0.0000 16.2365 0.0000
# 6 0.0000 0.0000 0.0000 0.0000 0.0000 14.8070
#
#
#
# Elastic Compliance Matrix: (Units=1/GPa)
#
#
# Indices 1 2 3 4 5 6 
#
# 1 0.014201 -0.004216 -0.001393 0.000000 0.000000 0.000000
# 2 -0.004216 0.012578 -0.003490 0.000000 0.000000 0.000000
# 3 -0.001393 -0.003490 0.010146 0.000000 0.000000 0.000000
# 4 0.000000 0.000000 0.000000 0.030935 0.000000 0.000000
# 5 0.000000 0.000000 0.000000 0.000000 0.061590 0.000000
# 6 0.000000 0.000000 0.000000 0.000000 0.000000 0.067536
#
#
# Mechanical properties :
#
#
# Convention : Reuss Voigt Hill
#
# Bulk Modulus (GPa) = 53.40001 54.93943 54.16972
# Shear Modulus (GPa) = 22.58104 26.21831 24.39968
#
# Velocity S-wave (km/s) = 3.24822 3.50006 3.37649
# Velocity P-wave (km/s) = 6.24651 6.48106 6.36486
#
# Compressibility (1/GPa) = 0.01872659
#
# Stress axis : x y z
#
# Youngs Moduli (GPa) = 70.41814 79.50618 98.56553
#
# Poissons Ratio (x) = 0.33521 0.13726
# Poissons Ratio (y) = 0.29690 0.34399
# Poissons Ratio (z) = 0.09807 0.27747
#
# Static dielectric constant tensor:
#      x y z
#    x 1.782450 0.000000 0.000000 
#    y 0.000000 1.968170 0.000000 
#    z 0.000000 0.000000 1.824610 
# 
# From -- ./inp_files/5211.got.cif
#   From: 2010.05.17/outbox.cif.g08.bks.cpg/sg20_3_cif.got.tgz:5211.got - 2010.06.03 22:52:26.
