data_PCOD9319356
_publ_section_title
;
Structure prediction by ZEFSAII (Michael W. Deem and Ramdas Pophale) SiO2 
 PCOD9319356
Probable space group: C 2 2 21
;
_chemical_formula_sum "Si O2"
_cell_formula_units_Z 52
_cell_length_a 12.404781
_cell_length_b 22.822544
_cell_length_c 7.603033
_cell_angle_alpha 90.000000
_cell_angle_beta 90.000000
_cell_angle_gamma 90.000000
_cell_volume 2152.484486
_symmetry_space_group_name_H-M "C 2 2 21"
_symmetry_group_IT_number 20
_symmetry_cell_setting 'orthorhombic'
loop_
_space_group_symop_operation_xyz
x,y,z
-x,-y,1/2+z
x,-y,-z
-x,y,1/2-z
1/2+x,1/2+y,z
1/2-x,1/2-y,1/2+z
1/2+x,1/2-y,-z
1/2-x,1/2+y,1/2-z
loop_
_atom_site_type_symbol
_atom_site_label
_atom_site_fract_x
_atom_site_fract_y
_atom_site_fract_z
Si Si1 0.392211 0.932902 0.820603
Si Si2 0.170842 0.126275 0.532290
Si Si3 0.500000 0.557298 0.750000
Si Si4 0.318074 0.475149 0.800043
Si Si5 0.627468 0.867200 0.304906
Si Si6 0.726564 0.243122 0.496596
Si Si7 0.114549 0.305426 0.820438
O O1 0.500000 0.963337 0.750000
O O2 0.296358 0.977304 0.788746
O O3 0.388870 0.875756 0.688015
O O4 0.382003 0.907240 0.017390
O O5 0.065793 0.099994 0.624820
O O6 0.167467 0.093411 0.343708
O O7 0.279963 0.114558 0.656986
O O8 0.163720 0.195450 0.510206
O O9 0.407201 0.511031 0.695521
O O10 0.316481 0.500000 0.000000
O O11 0.500000 0.861733 0.250000
O O12 0.677112 0.805614 0.374359
O O13 0.849132 0.266410 0.517047
O O14 0.709015 0.212385 0.310934
O O15 0.000000 0.286281 0.750000
#
# Coordination Sequence:
#
# PCOD9319356 Si02
#       7
#     8   8   4   8   8   8   8
#     4  10  21  41  71 100 136 185 226 299 370 424
#     4  11  23  44  69  97 141 189 238 296 372 421
#     4  10  26  46  68 102 136 186 240 306 346 426
#     4  10  22  45  72  97 133 181 245 304 356 424
#     4  11  25  42  67 107 148 187 235 298 360 451
#     4  11  22  38  63 100 142 185 238 288 358 442
#     4  10  22  37  62  97 140 183 231 295 354 442
#
# _framework density 24.15813
#
# number of rings (size 3 to 8) (size 9 to 14) (size 15 to 20)
#    0.000    1.538    3.077    0.923    5.385    3.692 
#    1.385   10.000    0.000    0.000    0.000    0.000 
#    0.000    0.000    0.000    0.000    0.000    0.000 
#
# Total GULP energy -144831.720085 kJ/mol
# GULP energy per Si atom -5570.450772 kJ/mol
# Density = 2.410315 g / cm^3
# Si number density = 24.158130 Si / 1000 Ang^3
#
#
#
# Elastic Constant Matrix: (Units=GPa)
#
#
# Indices 1 2 3 4 5 6 
#
# 1 177.8619 43.7947 32.2545 0.0000 0.0000 0.0000
# 2 43.7947 90.9659 17.7560 0.0000 0.0000 0.0000
# 3 32.2545 17.7560 82.4186 0.0000 0.0000 0.0000
# 4 0.0000 0.0000 0.0000 11.4273 0.0000 0.0000
# 5 0.0000 0.0000 0.0000 0.0000 31.8648 0.0000
# 6 0.0000 0.0000 0.0000 0.0000 0.0000 -2.2833
#
#
#
# Elastic Compliance Matrix: (Units=1/GPa)
#
#
# Indices 1 2 3 4 5 6 
#
# 1 0.006682 -0.002825 -0.002006 0.000000 0.000000 0.000000
# 2 -0.002825 0.012670 -0.001624 0.000000 0.000000 0.000000
# 3 -0.002006 -0.001624 0.013268 0.000000 0.000000 0.000000
# 4 0.000000 0.000000 0.000000 0.087510 0.000000 0.000000
# 5 0.000000 0.000000 0.000000 0.000000 0.031383 0.000000
# 6 0.000000 0.000000 0.000000 0.000000 0.000000 -0.437964
#
#
# Mechanical properties :
#
#
# Convention : Reuss Voigt Hill
#
# Bulk Modulus (GPa) = 50.73747 59.87297 55.30522
# Shear Modulus (GPa) = -18.72864 25.36450 3.31793
#
# Velocity S-wave (km/s) = -2.78736 3.24379 1.17320
# Velocity P-wave (km/s) = 3.26936 6.23435 4.97774
#
# Compressibility (1/GPa) = 0.01970930
#
# Stress axis : x y z
#
# Youngs Moduli (GPa) = 149.65950 78.92456 75.36815
#
# Poissons Ratio (x) = 0.22299 0.15121
# Poissons Ratio (y) = 0.42283 0.12240
# Poissons Ratio (z) = 0.30026 0.12817
#
# Static dielectric constant tensor:
#      x y z
#    x 2.038570 0.000000 0.000000 
#    y 0.000000 1.973690 0.000000 
#    z 0.000000 0.000000 2.302250 
# 
# From -- ./inp_files/7520.got.cif
#   From: 2010.05.17/outbox.cif.g08.bks.cpg/sg20_4_cif.got.tgz:7520.got - 2010.06.03 22:52:26.
