data_PCOD9319203
_publ_section_title
;
Structure prediction by ZEFSAII (Michael W. Deem and Ramdas Pophale) SiO2 
 PCOD9319203
Probable space group: C 2 2 21
;
_chemical_formula_sum "Si O2"
_cell_formula_units_Z 40
_cell_length_a 13.865860
_cell_length_b 8.692193
_cell_length_c 16.878925
_cell_angle_alpha 90.000000
_cell_angle_beta 90.000000
_cell_angle_gamma 90.000000
_cell_volume 2034.327899
_symmetry_space_group_name_H-M "C 2 2 21"
_symmetry_group_IT_number 20
_symmetry_cell_setting 'orthorhombic'
loop_
_space_group_symop_operation_xyz
x,y,z
-x,-y,1/2+z
x,-y,-z
-x,y,1/2-z
1/2+x,1/2+y,z
1/2-x,1/2-y,1/2+z
1/2+x,1/2-y,-z
1/2-x,1/2+y,1/2-z
loop_
_atom_site_type_symbol
_atom_site_label
_atom_site_fract_x
_atom_site_fract_y
_atom_site_fract_z
Si Si1 0.110139 0.051879 0.781936
Si Si2 0.458728 0.637884 0.550342
Si Si3 0.801285 0.333374 0.462170
Si Si4 0.373041 0.137310 0.057984
Si Si5 0.747169 0.207334 0.302599
O O1 0.099529 0.068233 0.876413
O O2 0.173016 0.195388 0.749905
O O3 0.000000 0.048267 0.750000
O O4 0.171217 0.897417 0.762877
O O5 0.504782 0.500000 0.500000
O O6 0.388258 0.730159 0.492773
O O7 0.537275 0.757596 0.580945
O O8 0.807556 0.500000 0.500000
O O9 0.703042 0.246989 0.487388
O O10 0.795063 0.325264 0.366524
O O11 0.315751 0.096690 0.138501
O O12 0.399882 0.000000 0.000000
#
# Coordination Sequence:
#
# PCOD9319203 Si02
#       5
#     8   8   8   8   8
#     4  12  24  48  67 101 141 184 232 288 355 423
#     4  12  22  42  70  95 139 181 236 294 342 418
#     4  10  21  40  64  97 127 173 227 281 345 403
#     4  10  21  41  65 101 128 175 232 285 351 414
#     4  10  25  44  68  98 137 184 227 289 356 414
#
# _framework density 19.662513000000001
#
# number of rings (size 3 to 8) (size 9 to 14) (size 15 to 20)
#    1.200    0.000    4.000    3.000    2.800    0.000 
#    3.600    1.000    0.000    0.000    0.000    0.000 
#    0.000    0.000    0.000    0.000    0.000    0.000 
#
# Total GULP energy -111441.033896 kJ/mol
# GULP energy per Si atom -5572.051695 kJ/mol
# Density = 1.961776 g / cm^3
# Si number density = 19.662513 Si / 1000 Ang^3
#
#
#
# Elastic Constant Matrix: (Units=GPa)
#
#
# Indices 1 2 3 4 5 6 
#
# 1 105.0705 32.0702 5.3342 0.0000 0.0000 0.0000
# 2 32.0702 90.0350 11.8881 0.0000 0.0000 0.0000
# 3 5.3342 11.8881 32.8230 0.0000 0.0000 0.0000
# 4 0.0000 0.0000 0.0000 28.4179 0.0000 0.0000
# 5 0.0000 0.0000 0.0000 0.0000 18.6561 0.0000
# 6 0.0000 0.0000 0.0000 0.0000 0.0000 46.3720
#
#
#
# Elastic Compliance Matrix: (Units=1/GPa)
#
#
# Indices 1 2 3 4 5 6 
#
# 1 0.010683 -0.003756 -0.000376 0.000000 0.000000 0.000000
# 2 -0.003756 0.012985 -0.004093 0.000000 0.000000 0.000000
# 3 -0.000376 -0.004093 0.032010 0.000000 0.000000 0.000000
# 4 0.000000 0.000000 0.000000 0.035189 0.000000 0.000000
# 5 0.000000 0.000000 0.000000 0.000000 0.053602 0.000000
# 6 0.000000 0.000000 0.000000 0.000000 0.000000 0.021565
#
#
# Mechanical properties :
#
#
# Convention : Reuss Voigt Hill
#
# Bulk Modulus (GPa) = 25.49113 36.27929 30.88521
# Shear Modulus (GPa) = 25.56789 30.59826 28.08307
#
# Velocity S-wave (km/s) = 3.60993 3.94911 3.78333
# Velocity P-wave (km/s) = 5.51071 6.26778 5.90140
#
# Compressibility (1/GPa) = 0.03922933
#
# Stress axis : x y z
#
# Youngs Moduli (GPa) = 93.60845 77.01258 31.24043
#
# Poissons Ratio (x) = 0.28922 0.01174
# Poissons Ratio (y) = 0.35155 0.12786
# Poissons Ratio (z) = 0.03519 0.31518
#
# Static dielectric constant tensor:
#      x y z
#    x 1.725030 0.000000 0.000000 
#    y 0.000000 1.710500 0.000000 
#    z 0.000000 0.000000 1.675210 
# 
# From -- ./inp_files/27100.got.cif
#   From: 2010.05.17/outbox.cif.g08.bks.cpg/sg20_14_cif.got.tgz:27100.got - 2010.06.03 22:52:26.
