data_PCOD9319959
_publ_section_title
;
Structure prediction by ZEFSAII (Michael W. Deem and Ramdas Pophale) SiO2 
 PCOD9319959
Probable space group: C 2 2 21
;
_chemical_formula_sum "Si O2"
_cell_formula_units_Z 40
_cell_length_a 24.171589
_cell_length_b 8.127917
_cell_length_c 8.298289
_cell_angle_alpha 90.000000
_cell_angle_beta 90.000000
_cell_angle_gamma 90.000000
_cell_volume 1630.320603
_symmetry_space_group_name_H-M "C 2 2 21"
_symmetry_group_IT_number 20
_symmetry_cell_setting 'orthorhombic'
loop_
_space_group_symop_operation_xyz
x,y,z
-x,-y,1/2+z
x,-y,-z
-x,y,1/2-z
1/2+x,1/2+y,z
1/2-x,1/2-y,1/2+z
1/2+x,1/2-y,-z
1/2-x,1/2+y,1/2-z
loop_
_atom_site_type_symbol
_atom_site_label
_atom_site_fract_x
_atom_site_fract_y
_atom_site_fract_z
Si Si1 0.862843 0.286440 0.243297
Si Si2 0.534521 0.332887 0.918237
Si Si3 0.668541 0.165722 0.235351
Si Si4 0.769954 0.181275 0.435681
Si Si5 0.570857 0.809683 0.560977
O O1 0.913414 0.278748 0.370347
O O2 0.836555 0.468544 0.241398
O O3 0.813107 0.168805 0.289614
O O4 0.891008 0.232834 0.078068
O O5 0.500000 0.359198 0.750000
O O6 0.490508 0.256435 0.042612
O O7 0.554804 0.500000 0.000000
O O8 0.711304 0.238226 0.367153
O O9 0.605425 0.217238 0.276087
O O10 0.696993 0.211894 0.067329
O O11 0.761101 0.000000 0.500000
O O12 0.568728 0.000000 0.500000
#
# Coordination Sequence:
#
# PCOD9319959 Si02
#       5
#     8   8   8   8   8
#     4  10  22  42  63  91 130 172 219 267 327 398
#     4  10  22  41  65  96 133 170 216 274 330 388
#     4  11  23  42  65  92 128 173 218 269 330 395
#     4  12  24  39  62  92 126 166 216 273 327 388
#     4   9  20  40  65  91 125 171 219 267 325 395
#
# _framework density 24.535049999999998
#
# number of rings (size 3 to 8) (size 9 to 14) (size 15 to 20)
#    0.000    1.600    0.000    5.400    0.000    6.400 
#    0.000    9.000    0.000    0.000    0.000    0.000 
#    0.000    0.000    0.000    0.000    0.000    0.000 
#
# Total GULP energy -111806.828411 kJ/mol
# GULP energy per Si atom -5590.341421 kJ/mol
# Density = 2.447921 g / cm^3
# Si number density = 24.535050 Si / 1000 Ang^3
#
#
#
# Elastic Constant Matrix: (Units=GPa)
#
#
# Indices 1 2 3 4 5 6 
#
# 1 152.3449 25.3207 46.0276 0.0000 0.0000 0.0000
# 2 25.3207 28.0064 19.1797 0.0000 0.0000 0.0000
# 3 46.0276 19.1797 61.7946 0.0000 0.0000 0.0000
# 4 0.0000 0.0000 0.0000 32.2804 0.0000 0.0000
# 5 0.0000 0.0000 0.0000 0.0000 36.0801 0.0000
# 6 0.0000 0.0000 0.0000 0.0000 0.0000 37.2365
#
#
#
# Elastic Compliance Matrix: (Units=1/GPa)
#
#
# Indices 1 2 3 4 5 6 
#
# 1 0.008886 -0.004446 -0.005239 0.000000 0.000000 0.000000
# 2 -0.004446 0.047569 -0.011453 0.000000 0.000000 0.000000
# 3 -0.005239 -0.011453 0.023639 0.000000 0.000000 0.000000
# 4 0.000000 0.000000 0.000000 0.030979 0.000000 0.000000
# 5 0.000000 0.000000 0.000000 0.000000 0.027716 0.000000
# 6 0.000000 0.000000 0.000000 0.000000 0.000000 0.026855
#
#
# Mechanical properties :
#
#
# Convention : Reuss Voigt Hill
#
# Bulk Modulus (GPa) = 26.44156 47.02242 36.73199
# Shear Modulus (GPa) = 22.67316 31.22726 26.95021
#
# Velocity S-wave (km/s) = 3.04322 3.57145 3.31786
# Velocity P-wave (km/s) = 4.81131 6.01781 5.44806
#
# Compressibility (1/GPa) = 0.03781925
#
# Stress axis : x y z
#
# Youngs Moduli (GPa) = 112.54005 21.02211 42.30253
#
# Poissons Ratio (x) = 0.09347 0.22160
# Poissons Ratio (y) = 0.50036 0.48448
# Poissons Ratio (z) = 0.58955 0.24076
#
# Static dielectric constant tensor:
#      x y z
#    x 1.880540 0.000000 0.000000 
#    y 0.000000 1.937100 0.000000 
#    z 0.000000 0.000000 2.047240 
# 
# From -- ./inp_files/6031.got.cif
#   From: 2010.05.17/outbox.cif.g08.bks.cpg/sg20_4_cif.got.tgz:6031.got - 2010.06.03 22:52:26.
