data_PCOD9319477
_publ_section_title
;
Structure prediction by ZEFSAII (Michael W. Deem and Ramdas Pophale) SiO2 
 PCOD9319477
Probable space group: C 2 2 21
;
_chemical_formula_sum "Si O2"
_cell_formula_units_Z 48
_cell_length_a 14.172700
_cell_length_b 12.931330
_cell_length_c 13.381131
_cell_angle_alpha 90.000000
_cell_angle_beta 90.000000
_cell_angle_gamma 90.000000
_cell_volume 2452.384777
_symmetry_space_group_name_H-M "C 2 2 21"
_symmetry_group_IT_number 20
_symmetry_cell_setting 'orthorhombic'
loop_
_space_group_symop_operation_xyz
x,y,z
-x,-y,1/2+z
x,-y,-z
-x,y,1/2-z
1/2+x,1/2+y,z
1/2-x,1/2-y,1/2+z
1/2+x,1/2-y,-z
1/2-x,1/2+y,1/2-z
loop_
_atom_site_type_symbol
_atom_site_label
_atom_site_fract_x
_atom_site_fract_y
_atom_site_fract_z
Si Si1 0.167917 0.695030 0.035972
Si Si2 0.319462 0.385223 0.117918
Si Si3 0.915181 0.905323 0.816198
Si Si4 0.211224 0.616445 0.472701
Si Si5 0.541376 0.748485 0.491055
Si Si6 0.264658 0.800775 0.758174
O O1 0.237085 0.625582 0.966164
O O2 0.204801 0.809932 0.009051
O O3 0.057713 0.698040 0.012696
O O4 0.186885 0.675108 0.152582
O O5 0.353412 0.500073 0.141114
O O6 0.280770 0.318911 0.211668
O O7 0.410816 0.320903 0.078729
O O8 0.959946 0.832444 0.900612
O O9 0.844171 0.832057 0.754920
O O10 0.000000 0.948292 0.750000
O O11 0.228527 0.500000 0.500000
O O12 0.118917 0.662620 0.526352
O O13 0.199493 0.634472 0.353797
#
# Coordination Sequence:
#
# PCOD9319477 Si02
#       6
#     8   8   8   8   8   8
#     4  10  21  43  66  86 137 171 212 273 336 385
#     4  10  24  40  61 100 131 162 224 277 320 396
#     4  12  23  39  68  99 127 173 225 271 330 399
#     4  10  23  42  62  95 130 170 223 267 319 398
#     4  10  22  42  64  89 134 167 214 276 329 376
#     4  10  22  40  63  94 131 174 206 270 332 392
#
# _framework density 19.572783999999999
#
# number of rings (size 3 to 8) (size 9 to 14) (size 15 to 20)
#    0.000    2.000    3.333    2.500    4.667    3.333 
#    3.000    0.000    0.000    0.000    0.000    0.000 
#    0.000    0.000    0.000    0.000    0.000    0.000 
#
# Total GULP energy -133878.981532 kJ/mol
# GULP energy per Si atom -5578.290897 kJ/mol
# Density = 1.952824 g / cm^3
# Si number density = 19.572784 Si / 1000 Ang^3
#
#
#
# Elastic Constant Matrix: (Units=GPa)
#
#
# Indices 1 2 3 4 5 6 
#
# 1 72.3624 -3.4895 7.7871 0.0000 0.0000 0.0000
# 2 -3.4895 52.6707 17.0862 0.0000 0.0000 0.0000
# 3 7.7871 17.0862 87.1229 0.0000 0.0000 0.0000
# 4 0.0000 0.0000 0.0000 22.6015 0.0000 0.0000
# 5 0.0000 0.0000 0.0000 0.0000 27.8162 0.0000
# 6 0.0000 0.0000 0.0000 0.0000 0.0000 4.9250
#
#
#
# Elastic Compliance Matrix: (Units=1/GPa)
#
#
# Indices 1 2 3 4 5 6 
#
# 1 0.014054 0.001430 -0.001536 0.000000 0.000000 0.000000
# 2 0.001430 0.020421 -0.004133 0.000000 0.000000 0.000000
# 3 -0.001536 -0.004133 0.012426 0.000000 0.000000 0.000000
# 4 0.000000 0.000000 0.000000 0.044245 0.000000 0.000000
# 5 0.000000 0.000000 0.000000 0.000000 0.035950 0.000000
# 6 0.000000 0.000000 0.000000 0.000000 0.000000 0.203045
#
#
# Mechanical properties :
#
#
# Convention : Reuss Voigt Hill
#
# Bulk Modulus (GPa) = 26.02721 28.32486 27.17603
# Shear Modulus (GPa) = 14.22770 23.78668 19.00719
#
# Velocity S-wave (km/s) = 2.69906 3.48989 3.11963
# Velocity P-wave (km/s) = 4.79997 5.54455 5.18564
#
# Compressibility (1/GPa) = 0.03842133
#
# Stress axis : x y z
#
# Youngs Moduli (GPa) = 71.15609 48.96865 80.47729
#
# Poissons Ratio (x) = -0.07000 0.12365
# Poissons Ratio (y) = -0.10172 0.33259
# Poissons Ratio (z) = 0.10933 0.20237
#
# Static dielectric constant tensor:
#      x y z
#    x 1.674760 0.000000 0.000000 
#    y 0.000000 1.679590 0.000000 
#    z 0.000000 0.000000 1.736080 
# 
# From -- ./inp_files/15023.got.cif
#   From: 2010.05.17/outbox.cif.g08.bks.cpg/sg20_8_cif.got.tgz:15023.got - 2010.06.03 22:52:26.
