data_PCOD9319348
_publ_section_title
;
Structure prediction by ZEFSAII (Michael W. Deem and Ramdas Pophale) SiO2 
 PCOD9319348
Probable space group: C 2 2 21
;
_chemical_formula_sum "Si O2"
_cell_formula_units_Z 52
_cell_length_a 9.009932
_cell_length_b 12.270363
_cell_length_c 20.295125
_cell_angle_alpha 90.000000
_cell_angle_beta 90.000000
_cell_angle_gamma 90.000000
_cell_volume 2243.730309
_symmetry_space_group_name_H-M "C 2 2 21"
_symmetry_group_IT_number 20
_symmetry_cell_setting 'orthorhombic'
loop_
_space_group_symop_operation_xyz
x,y,z
-x,-y,1/2+z
x,-y,-z
-x,y,1/2-z
1/2+x,1/2+y,z
1/2-x,1/2-y,1/2+z
1/2+x,1/2-y,-z
1/2-x,1/2+y,1/2-z
loop_
_atom_site_type_symbol
_atom_site_label
_atom_site_fract_x
_atom_site_fract_y
_atom_site_fract_z
Si Si1 0.130155 0.445078 0.430335
Si Si2 0.500000 0.248385 0.250000
Si Si3 0.039971 0.249359 0.010441
Si Si4 0.158408 0.045347 0.807639
Si Si5 0.664451 0.523031 0.332284
Si Si6 0.810288 0.106614 0.963081
Si Si7 0.558904 0.134142 0.126026
O O1 0.174463 0.500000 0.500000
O O2 0.254825 0.446336 0.375161
O O3 0.065737 0.327087 0.446661
O O4 0.000180 0.518149 0.398797
O O5 0.387786 0.333388 0.283985
O O6 0.462934 0.172317 0.188398
O O7 0.035940 0.285650 0.934286
O O8 0.961221 0.132709 0.004178
O O9 0.204032 0.286964 0.032608
O O10 0.231355 0.002060 0.740136
O O11 0.012083 0.971126 0.820885
O O12 0.672487 0.427830 0.387309
O O13 0.766964 0.620526 0.357832
O O14 0.743080 0.000000 0.000000
#
# Coordination Sequence:
#
# PCOD9319348 Si02
#       7
#     8   4   8   8   8   8   8
#     4  10  22  42  66 102 142 183 242 305 362 441
#     4  10  22  36  70  92 132 188 234 292 370 436
#     4  11  24  42  68 104 141 186 242 294 358 439
#     4  10  23  41  64 103 135 183 243 299 368 439
#     4  10  21  41  69  93 141 185 234 297 360 432
#     4  12  24  46  71 106 145 191 239 303 366 426
#     4  11  20  43  68  96 135 189 239 290 368 434
#
# _framework density 23.175689999999999
#
# number of rings (size 3 to 8) (size 9 to 14) (size 15 to 20)
#    0.000    1.538    3.077    3.231    4.308    0.615 
#    2.769    0.769    6.769    1.846    0.000    0.000 
#    0.000    0.000    0.000    0.000    0.000    0.000 
#
# Total GULP energy -145084.606984 kJ/mol
# GULP energy per Si atom -5580.177192 kJ/mol
# Density = 2.312294 g / cm^3
# Si number density = 23.175690 Si / 1000 Ang^3
#
#
#
# Elastic Constant Matrix: (Units=GPa)
#
#
# Indices 1 2 3 4 5 6 
#
# 1 73.9876 19.8471 36.4772 0.0000 0.0000 0.0000
# 2 19.8471 49.8939 1.4003 0.0000 0.0000 0.0000
# 3 36.4772 1.4003 134.7422 0.0000 0.0000 0.0000
# 4 0.0000 0.0000 0.0000 29.7394 0.0000 0.0000
# 5 0.0000 0.0000 0.0000 0.0000 44.9413 0.0000
# 6 0.0000 0.0000 0.0000 0.0000 0.0000 21.7290
#
#
#
# Elastic Compliance Matrix: (Units=1/GPa)
#
#
# Indices 1 2 3 4 5 6 
#
# 1 0.017695 -0.006906 -0.004719 0.000000 0.000000 0.000000
# 2 -0.006906 0.022744 0.001633 0.000000 0.000000 0.000000
# 3 -0.004719 0.001633 0.008682 0.000000 0.000000 0.000000
# 4 0.000000 0.000000 0.000000 0.033625 0.000000 0.000000
# 5 0.000000 0.000000 0.000000 0.000000 0.022251 0.000000
# 6 0.000000 0.000000 0.000000 0.000000 0.000000 0.046021
#
#
# Mechanical properties :
#
#
# Convention : Reuss Voigt Hill
#
# Bulk Modulus (GPa) = 34.31993 41.56368 37.94180
# Shear Modulus (GPa) = 27.66801 32.67521 30.17161
#
# Velocity S-wave (km/s) = 3.45894 3.75893 3.61205
# Velocity P-wave (km/s) = 5.54916 6.06733 5.81402
#
# Compressibility (1/GPa) = 0.02913759
#
# Stress axis : x y z
#
# Youngs Moduli (GPa) = 56.51418 43.96786 115.18091
#
# Poissons Ratio (x) = 0.30365 0.54348
# Poissons Ratio (y) = 0.39030 -0.18812
# Poissons Ratio (z) = 0.26666 -0.07181
#
# Static dielectric constant tensor:
#      x y z
#    x 1.951960 0.000000 0.000000 
#    y 0.000000 1.897120 0.000000 
#    z 0.000000 0.000000 1.875730 
# 
# From -- ./inp_files/26640.got.cif
#   From: 2010.05.17/outbox.cif.g08.bks.cpg/sg20_14_cif.got.tgz:26640.got - 2010.06.03 22:52:26.
