data_PCOD9319609
_publ_section_title
;
Structure prediction by ZEFSAII (Michael W. Deem and Ramdas Pophale) SiO2 
 PCOD9319609
Probable space group: C 2 2 21
;
_chemical_formula_sum "Si O2"
_cell_formula_units_Z 44
_cell_length_a 6.028049
_cell_length_b 19.695005
_cell_length_c 17.834588
_cell_angle_alpha 90.000000
_cell_angle_beta 90.000000
_cell_angle_gamma 90.000000
_cell_volume 2117.366075
_symmetry_space_group_name_H-M "C 2 2 21"
_symmetry_group_IT_number 20
_symmetry_cell_setting 'orthorhombic'
loop_
_space_group_symop_operation_xyz
x,y,z
-x,-y,1/2+z
x,-y,-z
-x,y,1/2-z
1/2+x,1/2+y,z
1/2-x,1/2-y,1/2+z
1/2+x,1/2-y,-z
1/2-x,1/2+y,1/2-z
loop_
_atom_site_type_symbol
_atom_site_label
_atom_site_fract_x
_atom_site_fract_y
_atom_site_fract_z
Si Si1 0.498209 0.000000 0.000000
Si Si2 0.500000 0.990055 0.750000
Si Si3 0.500000 0.186150 0.750000
Si Si4 0.767292 0.082234 0.383988
Si Si5 0.872139 0.277411 0.825193
Si Si6 0.610607 0.353589 0.167175
Si Si7 0.155706 0.979378 0.371316
O O1 0.664172 0.973144 0.063596
O O2 0.342083 0.055125 0.039713
O O3 0.704815 0.024637 0.794197
O O4 0.376169 0.948795 0.815455
O O5 0.668743 0.234344 0.793115
O O6 0.630768 0.144763 0.686471
O O7 0.726416 0.162269 0.374607
O O8 0.013567 0.049512 0.376366
O O9 0.000000 0.303563 0.750000
O O10 0.033762 0.220558 0.862466
O O11 0.500000 0.356620 0.250000
O O12 0.518420 0.417813 0.123799
#
# Coordination Sequence:
#
# PCOD9319609 Si02
#       7
#     4   4   4   8   8   8   8
#     4  10  26  42  58  82 130 166 210 264 310 368
#     4  10  22  35  62  96 121 150 198 260 313 372
#     4   8  18  31  56  92 133 148 186 266 313 370
#     4  11  21  38  62  91 120 162 210 258 313 375
#     4   9  19  34  58  93 125 154 197 253 318 374
#     4   9  19  36  57  94 125 159 197 249 320 372
#     4  11  23  39  63  90 125 165 211 259 316 379
#
# _framework density 20.780535
#
# number of rings (size 3 to 8) (size 9 to 14) (size 15 to 20)
#    0.000    2.545    0.909    2.182    2.545   10.909 
#    0.000    0.000    8.000    0.000    0.000    0.000 
#    0.000    0.000    0.000    0.000    0.000    0.000 
#
# Total GULP energy -122686.958116 kJ/mol
# GULP energy per Si atom -5576.679914 kJ/mol
# Density = 2.073324 g / cm^3
# Si number density = 20.780535 Si / 1000 Ang^3
#
#
#
# Elastic Constant Matrix: (Units=GPa)
#
#
# Indices 1 2 3 4 5 6 
#
# 1 115.6996 36.6072 17.2155 0.0000 0.0000 0.0000
# 2 36.6072 101.6857 17.1953 0.0000 0.0000 0.0000
# 3 17.2155 17.1953 48.0183 0.0000 0.0000 0.0000
# 4 0.0000 0.0000 0.0000 13.7724 0.0000 0.0000
# 5 0.0000 0.0000 0.0000 0.0000 32.5001 0.0000
# 6 0.0000 0.0000 0.0000 0.0000 0.0000 21.9975
#
#
#
# Elastic Compliance Matrix: (Units=1/GPa)
#
#
# Indices 1 2 3 4 5 6 
#
# 1 0.010017 -0.003192 -0.002448 0.000000 0.000000 0.000000
# 2 -0.003192 0.011485 -0.002968 0.000000 0.000000 0.000000
# 3 -0.002448 -0.002968 0.022766 0.000000 0.000000 0.000000
# 4 0.000000 0.000000 0.000000 0.072609 0.000000 0.000000
# 5 0.000000 0.000000 0.000000 0.000000 0.030769 0.000000
# 6 0.000000 0.000000 0.000000 0.000000 0.000000 0.045460
#
#
# Mechanical properties :
#
#
# Convention : Reuss Voigt Hill
#
# Bulk Modulus (GPa) = 36.96723 45.27107 41.11915
# Shear Modulus (GPa) = 22.79546 26.61303 24.70424
#
# Velocity S-wave (km/s) = 3.31563 3.58253 3.45166
# Velocity P-wave (km/s) = 5.69964 6.24062 5.97625
#
# Compressibility (1/GPa) = 0.02705099
#
# Stress axis : x y z
#
# Youngs Moduli (GPa) = 99.82628 87.06681 43.92489
#
# Poissons Ratio (x) = 0.27794 0.10754
# Poissons Ratio (y) = 0.31867 0.13039
# Poissons Ratio (z) = 0.24440 0.25845
#
# Static dielectric constant tensor:
#      x y z
#    x 1.812690 0.000000 0.000000 
#    y 0.000000 1.807260 0.000000 
#    z 0.000000 0.000000 1.739960 
# 
# From -- ./inp_files/26043.got.cif
#   From: 2010.05.17/outbox.cif.g08.bks.cpg/sg20_14_cif.got.tgz:26043.got - 2010.06.03 22:52:26.
