data_PCOD9319006
_publ_section_title
;
Structure prediction by ZEFSAII (Michael W. Deem and Ramdas Pophale) SiO2 
 PCOD9319006
Probable space group: C 2 2 21
;
_chemical_formula_sum "Si O2"
_cell_formula_units_Z 56
_cell_length_a 21.809412
_cell_length_b 8.648074
_cell_length_c 13.635813
_cell_angle_alpha 90.000000
_cell_angle_beta 90.000000
_cell_angle_gamma 90.000000
_cell_volume 2571.842629
_symmetry_space_group_name_H-M "C 2 2 21"
_symmetry_group_IT_number 20
_symmetry_cell_setting 'orthorhombic'
loop_
_space_group_symop_operation_xyz
x,y,z
-x,-y,1/2+z
x,-y,-z
-x,y,1/2-z
1/2+x,1/2+y,z
1/2-x,1/2-y,1/2+z
1/2+x,1/2-y,-z
1/2-x,1/2+y,1/2-z
loop_
_atom_site_type_symbol
_atom_site_label
_atom_site_fract_x
_atom_site_fract_y
_atom_site_fract_z
Si Si1 0.847722 0.228888 0.614554
Si Si2 0.042978 0.269487 0.341115
Si Si3 0.924758 0.671968 0.543150
Si Si4 0.338632 0.371775 0.916946
Si Si5 0.246326 0.676309 0.472760
Si Si6 0.863263 0.545036 0.727264
Si Si7 0.229655 0.031134 0.220373
O O1 0.903675 0.206627 0.539173
O O2 0.794860 0.276137 0.535161
O O3 0.864192 0.371004 0.685072
O O4 0.821271 0.084758 0.674913
O O5 0.093532 0.147551 0.374698
O O6 0.084202 0.416091 0.306219
O O7 0.000000 0.220432 0.250000
O O8 0.994310 0.305956 0.424732
O O9 0.918007 0.500000 0.500000
O O10 0.881622 0.664299 0.640056
O O11 0.295321 0.409756 0.824192
O O12 0.333369 0.500000 0.000000
O O13 0.317686 0.221340 0.978642
O O14 0.260166 0.500000 0.500000
O O15 0.253964 0.669437 0.356290
O O16 0.794420 0.557847 0.767427
#
# Coordination Sequence:
#
# PCOD9319006 Si02
#       7
#     8   8   8   8   8   8   8
#     4  10  21  40  65 106 134 183 237 293 353 432
#     4  10  23  45  68  95 137 198 241 296 358 428
#     4   9  21  40  67  97 132 184 239 298 341 425
#     4  12  28  45  67 106 146 192 243 306 371 435
#     4  10  23  41  67 103 142 185 232 291 365 440
#     4  10  21  38  70 100 138 176 235 291 364 422
#     4  11  25  41  69 106 148 186 230 296 380 443
#
# _framework density 21.774272
#
# number of rings (size 3 to 8) (size 9 to 14) (size 15 to 20)
#    0.000    1.714    1.429    1.714    8.000    1.714 
#    2.571    0.000    0.000    0.000    0.000    0.000 
#    0.000    0.000    0.000    0.000    0.000    0.000 
#
# Total GULP energy -156233.395175 kJ/mol
# GULP energy per Si atom -5579.764113 kJ/mol
# Density = 2.172471 g / cm^3
# Si number density = 21.774272 Si / 1000 Ang^3
#
#
#
# Elastic Constant Matrix: (Units=GPa)
#
#
# Indices 1 2 3 4 5 6 
#
# 1 133.6666 23.6580 82.2303 0.0000 0.0000 0.0000
# 2 23.6580 39.4782 57.1044 0.0000 0.0000 0.0000
# 3 82.2303 57.1044 145.9235 0.0000 0.0000 0.0000
# 4 0.0000 0.0000 0.0000 39.2410 0.0000 0.0000
# 5 0.0000 0.0000 0.0000 0.0000 54.8247 0.0000
# 6 0.0000 0.0000 0.0000 0.0000 0.0000 31.7240
#
#
#
# Elastic Compliance Matrix: (Units=1/GPa)
#
#
# Indices 1 2 3 4 5 6 
#
# 1 0.012035 0.005986 -0.009125 0.000000 0.000000 0.000000
# 2 0.005986 0.061350 -0.027382 0.000000 0.000000 0.000000
# 3 -0.009125 -0.027382 0.022710 0.000000 0.000000 0.000000
# 4 0.000000 0.000000 0.000000 0.025484 0.000000 0.000000
# 5 0.000000 0.000000 0.000000 0.000000 0.018240 0.000000
# 6 0.000000 0.000000 0.000000 0.000000 0.000000 0.031522
#
#
# Mechanical properties :
#
#
# Convention : Reuss Voigt Hill
#
# Bulk Modulus (GPa) = 28.52631 71.67265 50.09948
# Shear Modulus (GPa) = 20.48634 35.56300 28.02467
#
# Velocity S-wave (km/s) = 3.07066 4.04574 3.59145
# Velocity P-wave (km/s) = 5.06964 7.40349 6.34480
#
# Compressibility (1/GPa) = 0.03505536
#
# Stress axis : x y z
#
# Youngs Moduli (GPa) = 83.08999 16.29997 44.03340
#
# Poissons Ratio (x) = -0.09758 0.40179
# Poissons Ratio (y) = -0.49740 1.20570
# Poissons Ratio (z) = 0.75817 0.44632
#
# Static dielectric constant tensor:
#      x y z
#    x 1.807850 0.000000 0.000000 
#    y 0.000000 1.817460 0.000000 
#    z 0.000000 0.000000 1.894480 
# 
# From -- ./inp_files/21771.got.cif
#   From: 2010.05.17/outbox.cif.g08.bks.cpg/sg20_11_cif.got.tgz:21771.got - 2010.06.03 22:52:26.
