data_PCOD9319307
_publ_section_title
;
Structure prediction by ZEFSAII (Michael W. Deem and Ramdas Pophale) SiO2 
 PCOD9319307
Probable space group: C 2 2 21
;
_chemical_formula_sum "Si O2"
_cell_formula_units_Z 64
_cell_length_a 9.374980
_cell_length_b 13.850697
_cell_length_c 24.913426
_cell_angle_alpha 90.000000
_cell_angle_beta 90.000000
_cell_angle_gamma 90.000000
_cell_volume 3235.008549
_symmetry_space_group_name_H-M "C 2 2 21"
_symmetry_group_IT_number 20
_symmetry_cell_setting 'orthorhombic'
loop_
_space_group_symop_operation_xyz
x,y,z
-x,-y,1/2+z
x,-y,-z
-x,y,1/2-z
1/2+x,1/2+y,z
1/2-x,1/2-y,1/2+z
1/2+x,1/2-y,-z
1/2-x,1/2+y,1/2-z
loop_
_atom_site_type_symbol
_atom_site_label
_atom_site_fract_x
_atom_site_fract_y
_atom_site_fract_z
Si Si1 0.596563 0.768084 0.301342
Si Si2 0.991592 0.329688 0.814380
Si Si3 0.508395 0.432244 0.646217
Si Si4 0.408321 0.367940 0.303876
Si Si5 0.432279 0.157623 0.596436
Si Si6 0.757824 0.669548 0.105355
Si Si7 0.317549 0.944150 0.606292
Si Si8 0.985885 0.611104 0.017222
O O1 0.500000 0.793632 0.250000
O O2 0.565318 0.652606 0.312454
O O3 0.752493 0.818178 0.293164
O O4 0.539533 0.813872 0.356484
O O5 0.840631 0.358373 0.839773
O O6 0.000000 0.335625 0.750000
O O7 0.015044 0.220033 0.834627
O O8 0.114609 0.391633 0.842109
O O9 0.430000 0.527261 0.669926
O O10 0.392127 0.384909 0.607290
O O11 0.650924 0.457705 0.614012
O O12 0.500000 0.376525 0.250000
O O13 0.290074 0.219971 0.603991
O O14 0.496322 0.171288 0.537100
O O15 0.392953 0.046685 0.602229
O O16 0.860010 0.643748 0.056426
O O17 0.370079 0.887305 0.553350
O O18 0.960117 0.500000 0.000000
#
# Coordination Sequence:
#
# PCOD9319307 Si02
#       8
#     8   8   8   8   8   8   8   8
#     4  11  26  44  64  98 137 175 222 280 335 407
#     4  10  22  39  64  93 135 175 221 265 332 400
#     4  11  24  41  66  98 136 171 226 280 332 403
#     4  11  25  41  65  96 133 182 223 275 337 406
#     4  10  23  41  69  91 136 170 219 277 341 407
#     4  10  23  42  63  96 128 172 222 274 336 406
#     4  10  21  41  64  96 130 171 219 274 331 406
#     4   9  21  43  66  89 127 173 219 275 339 403
#
# _framework density 19.783563999999998
#
# number of rings (size 3 to 8) (size 9 to 14) (size 15 to 20)
#    0.000    1.750    1.250    1.125   14.000    3.500 
#    0.000    3.125    0.000    0.000    0.000    0.000 
#    0.000    0.000    0.000    0.000    0.000    0.000 
#
# Total GULP energy -178286.758557 kJ/mol
# GULP energy per Si atom -5571.461205 kJ/mol
# Density = 1.973854 g / cm^3
# Si number density = 19.783564 Si / 1000 Ang^3
#
#
#
# Elastic Constant Matrix: (Units=GPa)
#
#
# Indices 1 2 3 4 5 6 
#
# 1 102.0627 37.1525 44.5881 0.0000 0.0000 0.0000
# 2 37.1525 79.2429 29.8314 0.0000 0.0000 0.0000
# 3 44.5881 29.8314 120.2302 0.0000 0.0000 0.0000
# 4 0.0000 0.0000 0.0000 10.6409 0.0000 0.0000
# 5 0.0000 0.0000 0.0000 0.0000 18.3583 0.0000
# 6 0.0000 0.0000 0.0000 0.0000 0.0000 24.2412
#
#
#
# Elastic Compliance Matrix: (Units=1/GPa)
#
#
# Indices 1 2 3 4 5 6 
#
# 1 0.013149 -0.004775 -0.003692 0.000000 0.000000 0.000000
# 2 -0.004775 0.015654 -0.002113 0.000000 0.000000 0.000000
# 3 -0.003692 -0.002113 0.010211 0.000000 0.000000 0.000000
# 4 0.000000 0.000000 0.000000 0.093977 0.000000 0.000000
# 5 0.000000 0.000000 0.000000 0.000000 0.054471 0.000000
# 6 0.000000 0.000000 0.000000 0.000000 0.000000 0.041252
#
#
# Mechanical properties :
#
#
# Convention : Reuss Voigt Hill
#
# Bulk Modulus (GPa) = 56.01051 58.29778 57.15415
# Shear Modulus (GPa) = 19.54467 23.31233 21.42850
#
# Velocity S-wave (km/s) = 3.14654 3.43646 3.29469
# Velocity P-wave (km/s) = 6.44779 6.72885 6.58982
#
# Compressibility (1/GPa) = 0.01785379
#
# Stress axis : x y z
#
# Youngs Moduli (GPa) = 76.05251 63.88280 97.93631
#
# Poissons Ratio (x) = 0.30504 0.36154
# Poissons Ratio (y) = 0.36315 0.20695
# Poissons Ratio (z) = 0.28075 0.13499
#
# Static dielectric constant tensor:
#      x y z
#    x 1.710440 0.000000 0.000000 
#    y 0.000000 1.749730 0.000000 
#    z 0.000000 0.000000 1.705460 
# 
# From -- ./inp_files/28894.got.cif
#   From: 2010.05.17/outbox.cif.g08.bks.cpg/sg20_15_cif.got.tgz:28894.got - 2010.06.03 22:52:26.
