data_PCOD9319183
_publ_section_title
;
Structure prediction by ZEFSAII (Michael W. Deem and Ramdas Pophale) SiO2 
 PCOD9319183
Probable space group: C 2 2 21
;
_chemical_formula_sum "Si O2"
_cell_formula_units_Z 56
_cell_length_a 9.033010
_cell_length_b 20.075712
_cell_length_c 14.598520
_cell_angle_alpha 90.000000
_cell_angle_beta 90.000000
_cell_angle_gamma 90.000000
_cell_volume 2647.355577
_symmetry_space_group_name_H-M "C 2 2 21"
_symmetry_group_IT_number 20
_symmetry_cell_setting 'orthorhombic'
loop_
_space_group_symop_operation_xyz
x,y,z
-x,-y,1/2+z
x,-y,-z
-x,y,1/2-z
1/2+x,1/2+y,z
1/2-x,1/2-y,1/2+z
1/2+x,1/2-y,-z
1/2-x,1/2+y,1/2-z
loop_
_atom_site_type_symbol
_atom_site_label
_atom_site_fract_x
_atom_site_fract_y
_atom_site_fract_z
Si Si1 0.047383 0.863743 0.021549
Si Si2 0.391842 0.580345 0.336177
Si Si3 0.031033 0.708356 0.977667
Si Si4 0.195045 0.826210 0.347543
Si Si5 0.397859 0.172862 0.164226
Si Si6 0.700859 0.038755 0.588779
Si Si7 0.378210 0.155778 0.820264
O O1 0.194499 0.901475 0.053127
O O2 0.926550 0.869680 0.100864
O O3 0.012437 0.899169 0.925386
O O4 0.062800 0.784798 0.003337
O O5 0.500000 0.579198 0.250000
O O6 0.257451 0.633922 0.331517
O O7 0.304288 0.511738 0.355506
O O8 0.168266 0.679665 0.919493
O O9 0.892733 0.704454 0.906763
O O10 0.985225 0.666700 0.067592
O O11 0.137992 0.751210 0.332607
O O12 0.237442 0.849460 0.245723
O O13 0.500000 0.153749 0.250000
O O14 0.583941 0.080871 0.646623
O O15 0.642261 0.000000 0.500000
O O16 0.500000 0.182649 0.750000
#
# Coordination Sequence:
#
# PCOD9319183 Si02
#       7
#     8   8   8   8   8   8   8
#     4  10  22  38  63  93 126 169 221 263 335 388
#     4  11  25  42  65  90 134 181 225 278 328 398
#     4  10  21  40  63  96 136 165 211 274 344 408
#     4  10  23  36  66  99 133 169 206 283 337 411
#     4  11  25  39  63 102 129 179 223 272 346 397
#     4  10  23  43  65  87 126 180 224 269 326 394
#     4  10  23  40  67  97 132 171 218 271 346 398
#
# _framework density 21.153182000000001
#
# number of rings (size 3 to 8) (size 9 to 14) (size 15 to 20)
#    0.000    1.714    1.429    1.714   12.000    0.571 
#    0.000    0.000    0.000    0.000    0.000    0.000 
#    0.000    0.000    0.000    0.000    0.000    0.000 
#
# Total GULP energy -156215.311234 kJ/mol
# GULP energy per Si atom -5579.118258 kJ/mol
# Density = 2.110504 g / cm^3
# Si number density = 21.153182 Si / 1000 Ang^3
#
#
#
# Elastic Constant Matrix: (Units=GPa)
#
#
# Indices 1 2 3 4 5 6 
#
# 1 24.0130 -3.7944 20.0250 0.0000 0.0000 0.0000
# 2 -3.7944 54.9348 7.0480 0.0000 0.0000 0.0000
# 3 20.0250 7.0480 123.6868 0.0000 0.0000 0.0000
# 4 0.0000 0.0000 0.0000 27.7465 0.0000 0.0000
# 5 0.0000 0.0000 0.0000 0.0000 33.8442 0.0000
# 6 0.0000 0.0000 0.0000 0.0000 0.0000 27.1801
#
#
#
# Elastic Compliance Matrix: (Units=1/GPa)
#
#
# Indices 1 2 3 4 5 6 
#
# 1 0.049202 0.004453 -0.008220 0.000000 0.000000 0.000000
# 2 0.004453 0.018740 -0.001789 0.000000 0.000000 0.000000
# 3 -0.008220 -0.001789 0.009518 0.000000 0.000000 0.000000
# 4 0.000000 0.000000 0.000000 0.036041 0.000000 0.000000
# 5 0.000000 0.000000 0.000000 0.000000 0.029547 0.000000
# 6 0.000000 0.000000 0.000000 0.000000 0.000000 0.036792
#
#
# Mechanical properties :
#
#
# Convention : Reuss Voigt Hill
#
# Bulk Modulus (GPa) = 15.07169 27.68796 21.37983
# Shear Modulus (GPa) = 23.46677 29.71122 26.58899
#
# Velocity S-wave (km/s) = 3.33434 3.75183 3.54923
# Velocity P-wave (km/s) = 4.68660 5.64677 5.18894
#
# Compressibility (1/GPa) = 0.06634956
#
# Stress axis : x y z
#
# Youngs Moduli (GPa) = 20.32425 53.36040 105.06811
#
# Poissons Ratio (x) = -0.23762 0.86362
# Poissons Ratio (y) = -0.09050 0.18795
# Poissons Ratio (z) = 0.16706 0.09545
#
# Static dielectric constant tensor:
#      x y z
#    x 1.867940 0.000000 0.000000 
#    y 0.000000 1.747660 0.000000 
#    z 0.000000 0.000000 1.898330 
# 
# From -- ./inp_files/19180.got.cif
#   From: 2010.05.17/outbox.cif.g08.bks.cpg/sg20_10_cif.got.tgz:19180.got - 2010.06.03 22:52:26.
