data_PCOD9319355
_publ_section_title
;
Structure prediction by ZEFSAII (Michael W. Deem and Ramdas Pophale) SiO2 
 PCOD9319355
Probable space group: C 2 2 21
;
_chemical_formula_sum "Si O2"
_cell_formula_units_Z 36
_cell_length_a 11.608799
_cell_length_b 23.720628
_cell_length_c 5.867046
_cell_angle_alpha 90.000000
_cell_angle_beta 90.000000
_cell_angle_gamma 90.000000
_cell_volume 1615.596738
_symmetry_space_group_name_H-M "C 2 2 21"
_symmetry_group_IT_number 20
_symmetry_cell_setting 'orthorhombic'
loop_
_space_group_symop_operation_xyz
x,y,z
-x,-y,1/2+z
x,-y,-z
-x,y,1/2-z
1/2+x,1/2+y,z
1/2-x,1/2-y,1/2+z
1/2+x,1/2-y,-z
1/2-x,1/2+y,1/2-z
loop_
_atom_site_type_symbol
_atom_site_label
_atom_site_fract_x
_atom_site_fract_y
_atom_site_fract_z
Si Si1 0.472244 0.586621 0.488151
Si Si2 0.437087 0.000000 0.000000
Si Si3 0.371523 0.209562 0.158350
Si Si4 0.818792 0.166461 0.996756
Si Si5 0.212785 0.609781 0.606174
O O1 0.500000 0.553875 0.250000
O O2 0.556782 0.640010 0.461295
O O3 0.337792 0.602629 0.487495
O O4 0.500000 0.566743 0.750000
O O5 0.500000 0.993204 0.750000
O O6 0.361954 0.056364 0.962088
O O7 0.500000 0.201366 0.250000
O O8 0.268826 0.186743 0.313896
O O9 0.347787 0.275717 0.134433
O O10 0.354051 0.168246 0.943442
O O11 0.749581 0.116935 0.867438
#
# Coordination Sequence:
#
# PCOD9319355 Si02
#       5
#     8   4   8   8   8
#     4  10  21  41  70  99 143 185 235 301 362 437
#     4  12  32  54  78 110 154 200 266 324 370 456
#     4  12  24  39  68 107 145 199 249 303 388 460
#     4  11  24  42  68 108 151 190 249 312 379 461
#     4  11  25  47  71 102 146 199 247 316 379 445
#
# _framework density 22.282786999999999
#
# number of rings (size 3 to 8) (size 9 to 14) (size 15 to 20)
#    0.000    0.889    4.444    2.667    6.222    0.000 
#    0.000    3.333    0.000    0.000    0.000    0.000 
#    0.000    0.000    0.000    0.000    0.000    0.000 
#
# Total GULP energy -100244.163729 kJ/mol
# GULP energy per Si atom -5569.120207 kJ/mol
# Density = 2.223207 g / cm^3
# Si number density = 22.282787 Si / 1000 Ang^3
#
#
#
# Elastic Constant Matrix: (Units=GPa)
#
#
# Indices 1 2 3 4 5 6 
#
# 1 141.1413 69.9188 46.2665 0.0000 0.0000 0.0000
# 2 69.9188 120.1062 43.4487 0.0000 0.0000 0.0000
# 3 46.2665 43.4487 116.7577 0.0000 0.0000 0.0000
# 4 0.0000 0.0000 0.0000 -28.8961 0.0000 0.0000
# 5 0.0000 0.0000 0.0000 0.0000 30.9924 0.0000
# 6 0.0000 0.0000 0.0000 0.0000 0.0000 11.1404
#
#
#
# Elastic Compliance Matrix: (Units=1/GPa)
#
#
# Indices 1 2 3 4 5 6 
#
# 1 0.010407 -0.005277 -0.002160 0.000000 0.000000 0.000000
# 2 -0.005277 0.012297 -0.002485 0.000000 0.000000 0.000000
# 3 -0.002160 -0.002485 0.010345 0.000000 0.000000 0.000000
# 4 0.000000 0.000000 0.000000 -0.034607 0.000000 0.000000
# 5 0.000000 0.000000 0.000000 0.000000 0.032266 0.000000
# 6 0.000000 0.000000 0.000000 0.000000 0.000000 0.089764
#
#
# Mechanical properties :
#
#
# Convention : Reuss Voigt Hill
#
# Bulk Modulus (GPa) = 75.72769 77.47479 76.60124
# Shear Modulus (GPa) = 34.54969 17.20542 25.87755
#
# Velocity S-wave (km/s) = 3.94192 2.78175 3.41152
# Velocity P-wave (km/s) = 7.40115 6.72026 7.06891
#
# Compressibility (1/GPa) = 0.01320521
#
# Stress axis : x y z
#
# Youngs Moduli (GPa) = 96.08523 81.32130 96.66046
#
# Poissons Ratio (x) = 0.42914 0.20882
# Poissons Ratio (y) = 0.50705 0.24019
# Poissons Ratio (z) = 0.20757 0.20208
#
# Static dielectric constant tensor:
#      x y z
#    x 1.804060 0.000000 0.000000 
#    y 0.000000 1.821020 0.000000 
#    z 0.000000 0.000000 2.024110 
# 
# From -- ./inp_files/1195.got.cif
#   From: 2010.05.17/outbox.cif.g08.bks.cpg/sg20_1_cif.got.tgz:1195.got - 2010.06.03 22:52:26.
