data_PCOD9319413
_publ_section_title
;
Structure prediction by ZEFSAII (Michael W. Deem and Ramdas Pophale) SiO2 
 PCOD9319413
Probable space group: C 2 2 21
;
_chemical_formula_sum "Si O2"
_cell_formula_units_Z 40
_cell_length_a 24.148774
_cell_length_b 8.597427
_cell_length_c 9.366271
_cell_angle_alpha 90.000000
_cell_angle_beta 90.000000
_cell_angle_gamma 90.000000
_cell_volume 1944.600098
_symmetry_space_group_name_H-M "C 2 2 21"
_symmetry_group_IT_number 20
_symmetry_cell_setting 'orthorhombic'
loop_
_space_group_symop_operation_xyz
x,y,z
-x,-y,1/2+z
x,-y,-z
-x,y,1/2-z
1/2+x,1/2+y,z
1/2-x,1/2-y,1/2+z
1/2+x,1/2-y,-z
1/2-x,1/2+y,1/2-z
loop_
_atom_site_type_symbol
_atom_site_label
_atom_site_fract_x
_atom_site_fract_y
_atom_site_fract_z
Si Si1 0.886489 0.000000 0.000000
Si Si2 0.308795 0.223584 0.682570
Si Si3 0.934962 0.832025 0.258747
Si Si4 0.363634 0.953745 0.846185
Si Si5 0.786774 0.234124 0.005110
Si Si6 0.867631 0.000000 0.500000
O O1 0.921898 0.960976 0.137615
O O2 0.843935 0.140723 0.018304
O O3 0.264933 0.157048 0.570575
O O4 0.273826 0.240408 0.829659
O O5 0.332599 0.381037 0.604739
O O6 0.353488 0.097421 0.738940
O O7 0.901233 0.676455 0.223344
O O8 0.907652 0.896295 0.402391
O O9 0.000000 0.803012 0.250000
O O10 0.305452 0.876081 0.900969
O O11 0.389332 0.000000 0.000000
#
# Coordination Sequence:
#
# PCOD9319413 Si02
#       6
#     4   8   8   8   8   4
#     4  10  21  42  66  98 136 178 219 276 324 406
#     4  11  25  42  65 103 140 179 221 263 337 403
#     4  11  24  47  72  96 127 179 230 283 346 382
#     4   9  23  46  65  97 135 174 225 279 324 401
#     4  10  23  37  69  94 141 181 215 261 335 400
#     4  12  27  44  66 106 136 168 227 288 322 408
#
# _framework density 20.569782
#
# number of rings (size 3 to 8) (size 9 to 14) (size 15 to 20)
#    0.000    1.600    2.000    0.600   12.600    0.800 
#    3.600    0.000    0.000    0.000    0.000    0.000 
#    0.000    0.000    0.000    0.000    0.000    0.000 
#
# Total GULP energy -111420.214863 kJ/mol
# GULP energy per Si atom -5571.010743 kJ/mol
# Density = 2.052296 g / cm^3
# Si number density = 20.569782 Si / 1000 Ang^3
#
#
#
# Elastic Constant Matrix: (Units=GPa)
#
#
# Indices 1 2 3 4 5 6 
#
# 1 93.9915 48.9595 71.0381 0.0000 0.0000 0.0000
# 2 48.9595 110.0102 67.7594 0.0000 0.0000 0.0000
# 3 71.0381 67.7594 144.2090 0.0000 0.0000 0.0000
# 4 0.0000 0.0000 0.0000 53.5477 0.0000 0.0000
# 5 0.0000 0.0000 0.0000 0.0000 6.8604 0.0000
# 6 0.0000 0.0000 0.0000 0.0000 0.0000 4.7926
#
#
#
# Elastic Compliance Matrix: (Units=1/GPa)
#
#
# Indices 1 2 3 4 5 6 
#
# 1 0.017892 -0.003566 -0.007138 0.000000 0.000000 0.000000
# 2 -0.003566 0.013503 -0.004588 0.000000 0.000000 0.000000
# 3 -0.007138 -0.004588 0.012606 0.000000 0.000000 0.000000
# 4 0.000000 0.000000 0.000000 0.018675 0.000000 0.000000
# 5 0.000000 0.000000 0.000000 0.000000 0.145764 0.000000
# 6 0.000000 0.000000 0.000000 0.000000 0.000000 0.208653
#
#
# Mechanical properties :
#
#
# Convention : Reuss Voigt Hill
#
# Bulk Modulus (GPa) = 74.53229 80.41382 77.47306
# Shear Modulus (GPa) = 11.05830 23.73707 17.39768
#
# Velocity S-wave (km/s) = 2.32113 3.40071 2.91140
# Velocity P-wave (km/s) = 6.59516 7.38903 7.00335
#
# Compressibility (1/GPa) = 0.01341700
#
# Stress axis : x y z
#
# Youngs Moduli (GPa) = 55.89228 74.05735 79.32540
#
# Poissons Ratio (x) = 0.26409 0.56622
# Poissons Ratio (y) = 0.19931 0.36395
# Poissons Ratio (z) = 0.39895 0.33978
#
# Static dielectric constant tensor:
#      x y z
#    x 1.687590 0.000000 0.000000 
#    y 0.000000 1.908870 0.000000 
#    z 0.000000 0.000000 1.783650 
# 
# From -- ./inp_files/6182.got.cif
#   From: 2010.05.17/outbox.cif.g08.bks.cpg/sg20_4_cif.got.tgz:6182.got - 2010.06.03 22:52:26.
