data_PCOD9319953
_publ_section_title
;
Structure prediction by ZEFSAII (Michael W. Deem and Ramdas Pophale) SiO2 
 PCOD9319953
Probable space group: C 2 2 21
;
_chemical_formula_sum "Si O2"
_cell_formula_units_Z 28
_cell_length_a 9.052185
_cell_length_b 5.664297
_cell_length_c 20.450604
_cell_angle_alpha 90.000000
_cell_angle_beta 90.000000
_cell_angle_gamma 90.000000
_cell_volume 1048.589675
_symmetry_space_group_name_H-M "C 2 2 21"
_symmetry_group_IT_number 20
_symmetry_cell_setting 'orthorhombic'
loop_
_space_group_symop_operation_xyz
x,y,z
-x,-y,1/2+z
x,-y,-z
-x,y,1/2-z
1/2+x,1/2+y,z
1/2-x,1/2-y,1/2+z
1/2+x,1/2-y,-z
1/2-x,1/2+y,1/2-z
loop_
_atom_site_type_symbol
_atom_site_label
_atom_site_fract_x
_atom_site_fract_y
_atom_site_fract_z
Si Si1 0.706435 0.001947 0.675206
Si Si2 0.828913 0.000000 0.000000
Si Si3 0.626334 0.504439 0.696837
Si Si4 0.117668 0.162433 0.058027
O O1 0.614761 0.761610 0.663886
O O2 0.730839 0.014171 0.753995
O O3 0.847161 0.959632 0.627326
O O4 0.638898 0.256212 0.660224
O O5 0.714891 0.897379 0.053100
O O6 0.949386 0.176492 0.032706
O O7 0.500000 0.484844 0.750000
O O8 0.184849 0.000000 0.000000
#
# Coordination Sequence:
#
# PCOD9319953 Si02
#       4
#     8   4   8   8
#     4  10  23  41  65  98 135 183 235 294 362 427
#     4  10  26  46  68 108 140 188 246 292 372 430
#     4  10  22  41  64  99 133 181 235 293 360 429
#     4  10  26  44  70 104 142 192 238 304 360 442
#
# _framework density 26.702532999999999
#
# number of rings (size 3 to 8) (size 9 to 14) (size 15 to 20)
#    0.857    1.143    0.000    0.857   10.000    0.000 
#    0.000    0.000    0.000    0.000    0.000    0.000 
#    0.000    0.000    0.000    0.000    0.000    0.000 
#
# Total GULP energy -78034.087226 kJ/mol
# GULP energy per Si atom -5573.863373 kJ/mol
# Density = 2.664176 g / cm^3
# Si number density = 26.702533 Si / 1000 Ang^3
#
#
#
# Elastic Constant Matrix: (Units=GPa)
#
#
# Indices 1 2 3 4 5 6 
#
# 1 101.3807 57.1528 4.8057 0.0000 0.0000 0.0000
# 2 57.1528 194.6905 10.9128 0.0000 0.0000 0.0000
# 3 4.8057 10.9128 99.4988 0.0000 0.0000 0.0000
# 4 0.0000 0.0000 0.0000 33.6525 0.0000 0.0000
# 5 0.0000 0.0000 0.0000 0.0000 25.1291 0.0000
# 6 0.0000 0.0000 0.0000 0.0000 0.0000 43.3757
#
#
#
# Elastic Compliance Matrix: (Units=1/GPa)
#
#
# Indices 1 2 3 4 5 6 
#
# 1 0.011824 -0.003460 -0.000192 0.000000 0.000000 0.000000
# 2 -0.003460 0.006181 -0.000511 0.000000 0.000000 0.000000
# 3 -0.000192 -0.000511 0.010116 0.000000 0.000000 0.000000
# 4 0.000000 0.000000 0.000000 0.029715 0.000000 0.000000
# 5 0.000000 0.000000 0.000000 0.000000 0.039795 0.000000
# 6 0.000000 0.000000 0.000000 0.000000 0.000000 0.023054
#
#
# Mechanical properties :
#
#
# Convention : Reuss Voigt Hill
#
# Bulk Modulus (GPa) = 50.51790 60.14583 55.33187
# Shear Modulus (GPa) = 36.87109 41.94470 39.40789
#
# Velocity S-wave (km/s) = 3.71995 3.96765 3.84580
# Velocity P-wave (km/s) = 6.11642 6.60022 6.36292
#
# Compressibility (1/GPa) = 0.01979496
#
# Stress axis : x y z
#
# Youngs Moduli (GPa) = 84.57709 161.79299 98.85675
#
# Poissons Ratio (x) = 0.55983 0.01894
# Poissons Ratio (y) = 0.29265 0.05049
# Poissons Ratio (z) = 0.01620 0.08264
#
# Static dielectric constant tensor:
#      x y z
#    x 2.125280 0.000000 0.000000 
#    y 0.000000 2.248690 0.000000 
#    z 0.000000 0.000000 2.149920 
# 
# From -- ./inp_files/25804.got.cif
#   From: 2010.05.17/outbox.cif.g08.bks.cpg/sg20_13_cif.got.tgz:25804.got - 2010.06.03 22:52:26.
