data_PCOD9319673
_publ_section_title
;
Structure prediction by ZEFSAII (Michael W. Deem and Ramdas Pophale) SiO2 
 PCOD9319673
Probable space group: C 2 2 21
;
_chemical_formula_sum "Si O2"
_cell_formula_units_Z 40
_cell_length_a 13.297777
_cell_length_b 16.639538
_cell_length_c 9.805909
_cell_angle_alpha 90.000000
_cell_angle_beta 90.000000
_cell_angle_gamma 90.000000
_cell_volume 2169.742362
_symmetry_space_group_name_H-M "C 2 2 21"
_symmetry_group_IT_number 20
_symmetry_cell_setting 'orthorhombic'
loop_
_space_group_symop_operation_xyz
x,y,z
-x,-y,1/2+z
x,-y,-z
-x,y,1/2-z
1/2+x,1/2+y,z
1/2-x,1/2-y,1/2+z
1/2+x,1/2-y,-z
1/2-x,1/2+y,1/2-z
loop_
_atom_site_type_symbol
_atom_site_label
_atom_site_fract_x
_atom_site_fract_y
_atom_site_fract_z
Si Si1 0.000000 0.531175 0.250000
Si Si2 0.158254 0.682466 0.488112
Si Si3 0.947520 0.699074 0.614030
Si Si4 0.182267 0.586196 0.066921
Si Si5 0.710520 0.289837 0.738239
Si Si6 0.627807 0.000000 0.500000
O O1 0.088771 0.577579 0.171850
O O2 0.056685 0.486370 0.370430
O O3 0.201099 0.717938 0.348499
O O4 0.208829 0.721070 0.622220
O O5 0.179187 0.586402 0.481479
O O6 0.039765 0.702561 0.507915
O O7 0.860909 0.643431 0.551798
O O8 0.890758 0.778377 0.671735
O O9 0.000000 0.665643 0.750000
O O10 0.270819 0.629092 0.151507
O O11 0.205363 0.500000 0.000000
#
# Coordination Sequence:
#
# PCOD9319673 Si02
#       6
#     4   8   8   8   8   4
#     4  12  22  32  58  94 126 152 198 244 328 368
#     4  11  23  39  61  90 127 161 199 251 312 371
#     4  10  22  38  60  87 128 161 187 256 314 357
#     4  12  22  34  59  91 125 161 203 249 302 376
#     4  11  23  38  57  92 125 166 202 239 306 375
#     4  12  24  34  58  94 126 156 190 254 322 376
#
# _framework density 18.435368
#
# number of rings (size 3 to 8) (size 9 to 14) (size 15 to 20)
#    0.000    0.800    7.000    0.000   11.200    0.000 
#    0.000    0.000    0.000    0.000   23.400    0.000 
#    0.000    0.000    0.000    0.000    0.000    0.000 
#
# Total GULP energy -111388.423737 kJ/mol
# GULP energy per Si atom -5569.421187 kJ/mol
# Density = 1.839341 g / cm^3
# Si number density = 18.435368 Si / 1000 Ang^3
#
#
#
# Elastic Constant Matrix: (Units=GPa)
#
#
# Indices 1 2 3 4 5 6 
#
# 1 66.3017 59.2475 39.6560 0.0000 0.0000 0.0000
# 2 59.2475 103.4692 42.3439 0.0000 0.0000 0.0000
# 3 39.6560 42.3439 101.5064 0.0000 0.0000 0.0000
# 4 0.0000 0.0000 0.0000 32.7151 0.0000 0.0000
# 5 0.0000 0.0000 0.0000 0.0000 46.1526 0.0000
# 6 0.0000 0.0000 0.0000 0.0000 0.0000 -22.5306
#
#
#
# Elastic Compliance Matrix: (Units=1/GPa)
#
#
# Indices 1 2 3 4 5 6 
#
# 1 0.033835 -0.016840 -0.006194 0.000000 0.000000 0.000000
# 2 -0.016840 0.020035 -0.001779 0.000000 0.000000 0.000000
# 3 -0.006194 -0.001779 0.013013 0.000000 0.000000 0.000000
# 4 0.000000 0.000000 0.000000 0.030567 0.000000 0.000000
# 5 0.000000 0.000000 0.000000 0.000000 0.021667 0.000000
# 6 0.000000 0.000000 0.000000 0.000000 0.000000 -0.044384
#
#
# Mechanical properties :
#
#
# Convention : Reuss Voigt Hill
#
# Bulk Modulus (GPa) = 57.94054 61.53021 59.73537
# Shear Modulus (GPa) = 38.42853 19.93609 29.18231
#
# Velocity S-wave (km/s) = 4.57059 3.29204 3.98295
# Velocity P-wave (km/s) = 7.70395 6.92089 7.32289
#
# Compressibility (1/GPa) = 0.01725907
#
# Stress axis : x y z
#
# Youngs Moduli (GPa) = 29.55511 49.91202 76.84335
#
# Poissons Ratio (x) = 0.84050 0.47595
# Poissons Ratio (y) = 0.49769 0.13671
# Poissons Ratio (z) = 0.18306 0.08879
#
# Static dielectric constant tensor:
#      x y z
#    x 1.664980 0.000000 0.000000 
#    y 0.000000 1.684560 0.000000 
#    z 0.000000 0.000000 1.693250 
# 
# From -- ./inp_files/8139.got.cif
#   From: 2010.05.17/outbox.cif.g08.bks.cpg/sg20_5_cif.got.tgz:8139.got - 2010.06.03 22:52:26.
