data_PCOD9319592
_publ_section_title
;
Structure prediction by ZEFSAII (Michael W. Deem and Ramdas Pophale) SiO2 
 PCOD9319592
Probable space group: C 2 2 21
;
_chemical_formula_sum "Si O2"
_cell_formula_units_Z 56
_cell_length_a 21.704914
_cell_length_b 12.929215
_cell_length_c 9.900453
_cell_angle_alpha 90.000000
_cell_angle_beta 90.000000
_cell_angle_gamma 90.000000
_cell_volume 2778.339371
_symmetry_space_group_name_H-M "C 2 2 21"
_symmetry_group_IT_number 20
_symmetry_cell_setting 'orthorhombic'
loop_
_space_group_symop_operation_xyz
x,y,z
-x,-y,1/2+z
x,-y,-z
-x,y,1/2-z
1/2+x,1/2+y,z
1/2-x,1/2-y,1/2+z
1/2+x,1/2-y,-z
1/2-x,1/2+y,1/2-z
loop_
_atom_site_type_symbol
_atom_site_label
_atom_site_fract_x
_atom_site_fract_y
_atom_site_fract_z
Si Si1 0.735701 0.593061 0.598976
Si Si2 0.938291 0.968632 0.340126
Si Si3 0.764031 0.899091 0.415523
Si Si4 0.852755 0.276051 0.000015
Si Si5 0.925208 0.185075 0.252795
Si Si6 0.647859 0.790107 0.009095
Si Si7 0.427093 0.230469 0.266371
O O1 0.719931 0.500000 0.500000
O O2 0.729291 0.575899 0.757968
O O3 0.691603 0.686321 0.555904
O O4 0.805798 0.626802 0.570281
O O5 0.916109 0.851711 0.312340
O O6 0.000000 0.969044 0.250000
O O7 0.947029 0.000000 0.500000
O O8 0.903156 0.066304 0.275922
O O9 0.693848 0.864420 0.448683
O O10 0.807204 0.803045 0.458598
O O11 0.781405 0.000000 0.500000
O O12 0.895124 0.231756 0.119223
O O13 0.895751 0.300475 0.873435
O O14 0.898645 0.247393 0.379126
O O15 0.000000 0.188502 0.250000
O O16 0.607369 0.830270 0.884812
O O17 0.500000 0.217189 0.250000
#
# Coordination Sequence:
#
# PCOD9319592 Si02
#       7
#     8   8   8   8   8   8   8
#     4  11  26  43  66  95 122 165 215 264 311 364
#     4  10  22  34  52  87 128 169 205 239 298 369
#     4  11  26  43  67  92 125 165 211 267 315 359
#     4  11  25  42  64  96 126 164 212 254 313 378
#     4  11  23  39  64  90 130 170 203 254 313 378
#     4  11  23  42  65  93 128 165 210 255 313 374
#     4  11  23  39  63  94 131 166 207 252 312 380
#
# _framework density 20.155925
#
# number of rings (size 3 to 8) (size 9 to 14) (size 15 to 20)
#    0.000    1.143    4.286    0.857   14.000    0.000 
#    0.000    0.000    0.000    5.143    0.000    0.000 
#    0.000    0.000    0.000    0.000    0.000    0.000 
#
# Total GULP energy -156354.109745 kJ/mol
# GULP energy per Si atom -5584.075348 kJ/mol
# Density = 2.011005 g / cm^3
# Si number density = 20.155925 Si / 1000 Ang^3
#
#
#
# Elastic Constant Matrix: (Units=GPa)
#
#
# Indices 1 2 3 4 5 6 
#
# 1 119.7898 -3.6785 44.8876 0.0000 0.0000 0.0000
# 2 -3.6785 12.2143 12.6932 0.0000 0.0000 0.0000
# 3 44.8876 12.6932 173.9040 0.0000 0.0000 0.0000
# 4 0.0000 0.0000 0.0000 9.4310 0.0000 0.0000
# 5 0.0000 0.0000 0.0000 0.0000 40.9940 0.0000
# 6 0.0000 0.0000 0.0000 0.0000 0.0000 5.8301
#
#
#
# Elastic Compliance Matrix: (Units=1/GPa)
#
#
# Indices 1 2 3 4 5 6 
#
# 1 0.009623 0.005929 -0.002917 0.000000 0.000000 0.000000
# 2 0.005929 0.092244 -0.008263 0.000000 0.000000 0.000000
# 3 -0.002917 -0.008263 0.007106 0.000000 0.000000 0.000000
# 4 0.000000 0.000000 0.000000 0.106033 0.000000 0.000000
# 5 0.000000 0.000000 0.000000 0.000000 0.024394 0.000000
# 6 0.000000 0.000000 0.000000 0.000000 0.000000 0.171523
#
#
# Mechanical properties :
#
#
# Convention : Reuss Voigt Hill
#
# Bulk Modulus (GPa) = 10.15519 45.96807 28.06163
# Shear Modulus (GPa) = 11.00717 28.05141 19.52929
#
# Velocity S-wave (km/s) = 2.33942 3.73462 3.11611
# Velocity P-wave (km/s) = 3.51375 6.43835 5.18646
#
# Compressibility (1/GPa) = 0.09847182
#
# Stress axis : x y z
#
# Youngs Moduli (GPa) = 103.91842 10.84079 140.72104
#
# Poissons Ratio (x) = -0.06428 0.41043
# Poissons Ratio (y) = -0.61614 1.16282
# Poissons Ratio (z) = 0.30309 0.08958
#
# Static dielectric constant tensor:
#      x y z
#    x 1.959240 0.000000 0.000000 
#    y 0.000000 1.730540 0.000000 
#    z 0.000000 0.000000 1.717880 
# 
# From -- ./inp_files/8703.got.cif
#   From: 2010.05.17/outbox.cif.g08.bks.cpg/sg20_5_cif.got.tgz:8703.got - 2010.06.03 22:52:26.
