data_PCOD9319767
_publ_section_title
;
Structure prediction by ZEFSAII (Michael W. Deem and Ramdas Pophale) SiO2 
 PCOD9319767
Probable space group: C 2 2 21
;
_chemical_formula_sum "Si O2"
_cell_formula_units_Z 36
_cell_length_a 7.351618
_cell_length_b 18.890230
_cell_length_c 13.722880
_cell_angle_alpha 90.000000
_cell_angle_beta 90.000000
_cell_angle_gamma 90.000000
_cell_volume 1905.747874
_symmetry_space_group_name_H-M "C 2 2 21"
_symmetry_group_IT_number 20
_symmetry_cell_setting 'orthorhombic'
loop_
_space_group_symop_operation_xyz
x,y,z
-x,-y,1/2+z
x,-y,-z
-x,y,1/2-z
1/2+x,1/2+y,z
1/2-x,1/2-y,1/2+z
1/2+x,1/2-y,-z
1/2-x,1/2+y,1/2-z
loop_
_atom_site_type_symbol
_atom_site_label
_atom_site_fract_x
_atom_site_fract_y
_atom_site_fract_z
Si Si1 0.560305 0.072897 0.949834
Si Si2 0.213058 0.120948 0.266488
Si Si3 0.000000 0.503507 0.750000
Si Si4 0.770263 0.331432 0.944503
Si Si5 0.650730 0.675421 0.478987
O O1 0.486168 0.052407 0.844451
O O2 0.401747 0.108501 0.013609
O O3 0.728622 0.126795 0.950452
O O4 0.620453 0.000000 0.000000
O O5 0.329822 0.049326 0.265069
O O6 0.276515 0.166395 0.173033
O O7 0.227982 0.160785 0.369835
O O8 0.000000 0.105318 0.250000
O O9 0.561420 0.344160 0.975290
O O10 0.830411 0.256423 0.988537
#
# Coordination Sequence:
#
# PCOD9319767 Si02
#       5
#     8   8   4   8   8
#     4  12  24  42  68  98 129 174 215 268 326 392
#     4  10  22  39  65  93 129 178 213 264 336 385
#     4  12  24  42  66  98 138 168 216 268 334 384
#     4  11  23  42  67  97 133 171 220 271 327 387
#     4  11  23  42  67  97 133 171 220 271 327 387
#
# _framework density 18.890222999999999
#
# number of rings (size 3 to 8) (size 9 to 14) (size 15 to 20)
#    0.000    0.889    6.667    0.000    0.000    4.444 
#    0.000    2.222    0.000    0.000    0.000    0.000 
#    0.000    0.000    0.000    0.000    0.000    0.000 
#
# Total GULP energy -100581.114824 kJ/mol
# GULP energy per Si atom -5587.839712 kJ/mol
# Density = 1.884723 g / cm^3
# Si number density = 18.890223 Si / 1000 Ang^3
#
#
#
# Elastic Constant Matrix: (Units=GPa)
#
#
# Indices 1 2 3 4 5 6 
#
# 1 62.3941 16.0818 9.2673 0.0000 0.0000 0.0000
# 2 16.0818 75.7715 30.4662 0.0000 0.0000 0.0000
# 3 9.2673 30.4662 75.5800 0.0000 0.0000 0.0000
# 4 0.0000 0.0000 0.0000 30.7535 0.0000 0.0000
# 5 0.0000 0.0000 0.0000 0.0000 24.3571 0.0000
# 6 0.0000 0.0000 0.0000 0.0000 0.0000 14.6510
#
#
#
# Elastic Compliance Matrix: (Units=1/GPa)
#
#
# Indices 1 2 3 4 5 6 
#
# 1 0.016990 -0.003304 -0.000751 0.000000 0.000000 0.000000
# 2 -0.003304 0.016393 -0.006203 0.000000 0.000000 0.000000
# 3 -0.000751 -0.006203 0.015823 0.000000 0.000000 0.000000
# 4 0.000000 0.000000 0.000000 0.032517 0.000000 0.000000
# 5 0.000000 0.000000 0.000000 0.000000 0.041056 0.000000
# 6 0.000000 0.000000 0.000000 0.000000 0.000000 0.068255
#
#
# Mechanical properties :
#
#
# Convention : Reuss Voigt Hill
#
# Bulk Modulus (GPa) = 34.85500 36.15291 35.50396
# Shear Modulus (GPa) = 22.61282 24.48101 23.54692
#
# Velocity S-wave (km/s) = 3.46362 3.60385 3.53443
# Velocity P-wave (km/s) = 5.87256 6.04127 5.95751
#
# Compressibility (1/GPa) = 0.02869029
#
# Stress axis : x y z
#
# Youngs Moduli (GPa) = 58.85698 61.00232 63.19716
#
# Poissons Ratio (x) = 0.20154 0.04749
# Poissons Ratio (y) = 0.19446 0.39200
# Poissons Ratio (z) = 0.04423 0.37839
#
# Static dielectric constant tensor:
#      x y z
#    x 1.658830 0.000000 0.000000 
#    y 0.000000 1.605280 0.000000 
#    z 0.000000 0.000000 1.670340 
# 
# From -- ./inp_files/18439.got.cif
#   From: 2010.05.17/outbox.cif.g08.bks.cpg/sg20_10_cif.got.tgz:18439.got - 2010.06.03 22:52:26.
