data_PCOD9319410
_publ_section_title
;
Structure prediction by ZEFSAII (Michael W. Deem and Ramdas Pophale) SiO2 
 PCOD9319410
Probable space group: C 2 2 21
;
_chemical_formula_sum "Si O2"
_cell_formula_units_Z 56
_cell_length_a 6.640927
_cell_length_b 28.128684
_cell_length_c 14.163819
_cell_angle_alpha 90.000000
_cell_angle_beta 90.000000
_cell_angle_gamma 90.000000
_cell_volume 2645.808996
_symmetry_space_group_name_H-M "C 2 2 21"
_symmetry_group_IT_number 20
_symmetry_cell_setting 'orthorhombic'
loop_
_space_group_symop_operation_xyz
x,y,z
-x,-y,1/2+z
x,-y,-z
-x,y,1/2-z
1/2+x,1/2+y,z
1/2-x,1/2-y,1/2+z
1/2+x,1/2-y,-z
1/2-x,1/2+y,1/2-z
loop_
_atom_site_type_symbol
_atom_site_label
_atom_site_fract_x
_atom_site_fract_y
_atom_site_fract_z
Si Si1 0.500000 0.479698 0.750000
Si Si2 0.289083 0.303879 0.500020
Si Si3 0.889158 0.062228 0.605615
Si Si4 0.383598 0.967362 0.660887
Si Si5 0.542962 0.895934 0.510764
Si Si6 0.665387 0.646523 0.595467
Si Si7 0.446276 0.772146 0.354001
Si Si8 0.145116 0.000000 0.500000
O O1 0.403452 0.516545 0.673545
O O2 0.674543 0.448286 0.704629
O O3 0.172497 0.350002 0.538895
O O4 0.503233 0.321495 0.460172
O O5 0.327008 0.264957 0.580180
O O6 0.145979 0.285498 0.414643
O O7 0.670322 0.079543 0.574024
O O8 0.028258 0.105360 0.641494
O O9 0.997409 0.044559 0.508492
O O10 0.500000 0.986896 0.750000
O O11 0.508241 0.930917 0.598337
O O12 0.294443 0.005021 0.587721
O O13 0.327512 0.878416 0.473208
O O14 0.804023 0.681223 0.657928
O O15 0.500000 0.754096 0.250000
#
# Coordination Sequence:
#
# PCOD9319410 Si02
#       8
#     4   8   8   8   8   8   8   4
#     4  10  26  40  62 102 132 168 228 290 320 414
#     4  10  22  44  67  99 140 171 223 281 335 413
#     4  10  22  40  65  92 131 176 219 276 342 395
#     4  11  25  41  64  95 127 176 229 274 342 404
#     4  10  23  41  68  92 131 185 215 278 341 398
#     4  10  21  42  66  96 135 172 218 278 337 401
#     4  11  23  42  71 102 133 183 222 278 348 417
#     4  10  22  42  62  90 132 174 216 290 336 392
#
# _framework density 21.165548999999999
#
# number of rings (size 3 to 8) (size 9 to 14) (size 15 to 20)
#    0.000    1.714    2.857    0.000    6.000    4.000 
#    2.571    0.714    0.000    0.000    0.000    0.000 
#    0.000    0.000    0.000    0.000    0.000    0.000 
#
# Total GULP energy -156167.719737 kJ/mol
# GULP energy per Si atom -5577.418562 kJ/mol
# Density = 2.111738 g / cm^3
# Si number density = 21.165549 Si / 1000 Ang^3
#
#
#
# Elastic Constant Matrix: (Units=GPa)
#
#
# Indices 1 2 3 4 5 6 
#
# 1 136.0642 33.3741 41.6803 0.0000 0.0000 0.0000
# 2 33.3741 58.0512 19.0967 0.0000 0.0000 0.0000
# 3 41.6803 19.0967 85.4045 0.0000 0.0000 0.0000
# 4 0.0000 0.0000 0.0000 15.7305 0.0000 0.0000
# 5 0.0000 0.0000 0.0000 0.0000 22.8142 0.0000
# 6 0.0000 0.0000 0.0000 0.0000 0.0000 47.5010
#
#
#
# Elastic Compliance Matrix: (Units=1/GPa)
#
#
# Indices 1 2 3 4 5 6 
#
# 1 0.009527 -0.004261 -0.003697 0.000000 0.000000 0.000000
# 2 -0.004261 0.020500 -0.002504 0.000000 0.000000 0.000000
# 3 -0.003697 -0.002504 0.014073 0.000000 0.000000 0.000000
# 4 0.000000 0.000000 0.000000 0.063571 0.000000 0.000000
# 5 0.000000 0.000000 0.000000 0.000000 0.043832 0.000000
# 6 0.000000 0.000000 0.000000 0.000000 0.000000 0.021052
#
#
# Mechanical properties :
#
#
# Convention : Reuss Voigt Hill
#
# Bulk Modulus (GPa) = 43.14865 51.98023 47.56444
# Shear Modulus (GPa) = 24.85035 29.56705 27.20870
#
# Velocity S-wave (km/s) = 3.43022 3.74162 3.58930
# Velocity P-wave (km/s) = 6.00992 6.57864 6.30070
#
# Compressibility (1/GPa) = 0.02317569
#
# Stress axis : x y z
#
# Youngs Moduli (GPa) = 104.96426 48.78120 71.05766
#
# Poissons Ratio (x) = 0.20786 0.26268
# Poissons Ratio (y) = 0.44726 0.17795
# Poissons Ratio (z) = 0.38802 0.12216
#
# Static dielectric constant tensor:
#      x y z
#    x 1.806050 0.000000 0.000000 
#    y 0.000000 1.777140 0.000000 
#    z 0.000000 0.000000 1.814950 
# 
# From -- ./inp_files/18013.got.cif
#   From: 2010.05.17/outbox.cif.g08.bks.cpg/sg20_10_cif.got.tgz:18013.got - 2010.06.03 22:52:26.
