data_PCOD9319795
_publ_section_title
;
Structure prediction by ZEFSAII (Michael W. Deem and Ramdas Pophale) SiO2 
 PCOD9319795
Probable space group: C 2 2 21
;
_chemical_formula_sum "Si O2"
_cell_formula_units_Z 40
_cell_length_a 11.507328
_cell_length_b 11.311260
_cell_length_c 14.452924
_cell_angle_alpha 90.000000
_cell_angle_beta 90.000000
_cell_angle_gamma 90.000000
_cell_volume 1881.226970
_symmetry_space_group_name_H-M "C 2 2 21"
_symmetry_group_IT_number 20
_symmetry_cell_setting 'orthorhombic'
loop_
_space_group_symop_operation_xyz
x,y,z
-x,-y,1/2+z
x,-y,-z
-x,y,1/2-z
1/2+x,1/2+y,z
1/2-x,1/2-y,1/2+z
1/2+x,1/2-y,-z
1/2-x,1/2+y,1/2-z
loop_
_atom_site_type_symbol
_atom_site_label
_atom_site_fract_x
_atom_site_fract_y
_atom_site_fract_z
Si Si1 0.252425 0.499272 0.750022
Si Si2 0.409422 0.571336 0.092140
Si Si3 0.317145 0.839398 0.090775
Si Si4 0.945635 0.608989 0.653652
Si Si5 0.829167 0.841401 0.593135
O O1 0.360867 0.495168 0.818337
O O2 0.252718 0.112820 0.817669
O O3 0.135756 0.503114 0.812352
O O4 0.258166 0.389503 0.680464
O O5 0.351532 0.701561 0.093879
O O6 0.547703 0.590560 0.093671
O O7 0.377641 0.500000 0.000000
O O8 0.440479 0.909481 0.092256
O O9 0.240507 0.860513 0.000775
O O10 0.863046 0.705042 0.606964
O O11 0.000000 0.660762 0.750000
#
# Coordination Sequence:
#
# PCOD9319795 Si02
#       5
#     8   8   8   8   8
#     4  11  20  37  63  89 122 164 207 254 312 371
#     4  11  23  39  63  94 125 167 216 259 310 374
#     4  10  22  40  60  91 130 166 205 260 320 373
#     4   9  20  39  60  87 126 166 206 255 312 371
#     4  11  21  39  65  91 126 167 211 262 311 371
#
# _framework density 21.262718
#
# number of rings (size 3 to 8) (size 9 to 14) (size 15 to 20)
#    0.000    1.600    0.000    7.200    0.000    0.000 
#    0.000   24.000    0.000   14.400    0.000    0.000 
#    0.000    0.000    0.000    0.000    0.000    0.000 
#
# Total GULP energy -111735.531978 kJ/mol
# GULP energy per Si atom -5586.776599 kJ/mol
# Density = 2.121432 g / cm^3
# Si number density = 21.262718 Si / 1000 Ang^3
#
#
#
# Elastic Constant Matrix: (Units=GPa)
#
#
# Indices 1 2 3 4 5 6 
#
# 1 152.5571 55.8125 93.9116 0.0000 0.0000 0.0000
# 2 55.8125 52.4925 34.7777 0.0000 0.0000 0.0000
# 3 93.9116 34.7777 128.0199 0.0000 0.0000 0.0000
# 4 0.0000 0.0000 0.0000 36.3668 0.0000 0.0000
# 5 0.0000 0.0000 0.0000 0.0000 54.9725 0.0000
# 6 0.0000 0.0000 0.0000 0.0000 0.0000 37.9017
#
#
#
# Elastic Compliance Matrix: (Units=1/GPa)
#
#
# Indices 1 2 3 4 5 6 
#
# 1 0.016042 -0.011292 -0.008700 0.000000 0.000000 0.000000
# 2 -0.011292 0.031181 -0.000187 0.000000 0.000000 0.000000
# 3 -0.008700 -0.000187 0.014244 0.000000 0.000000 0.000000
# 4 0.000000 0.000000 0.000000 0.027498 0.000000 0.000000
# 5 0.000000 0.000000 0.000000 0.000000 0.018191 0.000000
# 6 0.000000 0.000000 0.000000 0.000000 0.000000 0.026384
#
#
# Mechanical properties :
#
#
# Convention : Reuss Voigt Hill
#
# Bulk Modulus (GPa) = 47.37506 78.00813 62.69159
# Shear Modulus (GPa) = 27.63440 35.75272 31.69356
#
# Velocity S-wave (km/s) = 3.60900 4.10503 3.86498
# Velocity P-wave (km/s) = 6.30045 7.69648 7.03319
#
# Compressibility (1/GPa) = 0.02110815
#
# Stress axis : x y z
#
# Youngs Moduli (GPa) = 62.33678 32.07118 70.20400
#
# Poissons Ratio (x) = 0.36216 0.61079
# Poissons Ratio (y) = 0.70393 0.01311
# Poissons Ratio (z) = 0.54234 0.00599
#
# Static dielectric constant tensor:
#      x y z
#    x 1.788740 0.000000 0.000000 
#    y 0.000000 1.780620 0.000000 
#    z 0.000000 0.000000 1.766740 
# 
# From -- ./inp_files/19652.got.cif
#   From: 2010.05.17/outbox.cif.g08.bks.cpg/sg20_10_cif.got.tgz:19652.got - 2010.06.03 22:52:26.
