data_PCOD9319148
_publ_section_title
;
Structure prediction by ZEFSAII (Michael W. Deem and Ramdas Pophale) SiO2 
 PCOD9319148
Probable space group: C 2 2 21
;
_chemical_formula_sum "Si O2"
_cell_formula_units_Z 28
_cell_length_a 11.228278
_cell_length_b 8.743553
_cell_length_c 13.885695
_cell_angle_alpha 90.000000
_cell_angle_beta 90.000000
_cell_angle_gamma 90.000000
_cell_volume 1363.228715
_symmetry_space_group_name_H-M "C 2 2 21"
_symmetry_group_IT_number 20
_symmetry_cell_setting 'orthorhombic'
loop_
_space_group_symop_operation_xyz
x,y,z
-x,-y,1/2+z
x,-y,-z
-x,y,1/2-z
1/2+x,1/2+y,z
1/2-x,1/2-y,1/2+z
1/2+x,1/2-y,-z
1/2-x,1/2+y,1/2-z
loop_
_atom_site_type_symbol
_atom_site_label
_atom_site_fract_x
_atom_site_fract_y
_atom_site_fract_z
Si Si1 0.000000 0.654207 0.750000
Si Si2 0.834995 0.935565 0.723470
Si Si3 0.050362 0.920992 0.397602
Si Si4 0.594127 0.932578 0.603872
O O1 0.112634 0.767900 0.752906
O O2 0.003657 0.546940 0.656803
O O3 0.846707 0.030102 0.822363
O O4 0.708209 0.929083 0.673911
O O5 0.929478 0.013684 0.650237
O O6 0.045695 0.738801 0.405991
O O7 0.068955 0.000000 0.500000
O O8 0.626125 0.000000 0.500000
#
# Coordination Sequence:
#
# PCOD9319148 Si02
#       4
#     4   8   8   8
#     4  10  22  40  60  90 118 148 198 244 284 344
#     4  10  22  41  61  84 121 155 191 242 293 344
#     4  10  21  40  60  85 122 156 190 241 293 341
#     4  12  23  38  63  88 115 155 198 238 289 348
#
# _framework density 20.539470999999999
#
# number of rings (size 3 to 8) (size 9 to 14) (size 15 to 20)
#    0.000    1.714    0.000    7.714    0.000    0.000 
#    0.000   14.286    0.000    0.000    0.000    0.000 
#    0.000    0.000    0.000    0.000    0.000    0.000 
#
# Total GULP energy -78280.722111 kJ/mol
# GULP energy per Si atom -5591.480151 kJ/mol
# Density = 2.049272 g / cm^3
# Si number density = 20.539471 Si / 1000 Ang^3
#
#
#
# Elastic Constant Matrix: (Units=GPa)
#
#
# Indices 1 2 3 4 5 6 
#
# 1 15.5368 5.1808 -0.6292 0.0000 0.0000 0.0000
# 2 5.1808 176.3228 46.2707 0.0000 0.0000 0.0000
# 3 -0.6292 46.2707 137.1578 0.0000 0.0000 0.0000
# 4 0.0000 0.0000 0.0000 38.9813 0.0000 0.0000
# 5 0.0000 0.0000 0.0000 0.0000 23.3598 0.0000
# 6 0.0000 0.0000 0.0000 0.0000 0.0000 17.0877
#
#
#
# Elastic Compliance Matrix: (Units=1/GPa)
#
#
# Indices 1 2 3 4 5 6 
#
# 1 0.065134 -0.002186 0.001036 0.000000 0.000000 0.000000
# 2 -0.002186 0.006296 -0.002134 0.000000 0.000000 0.000000
# 3 0.001036 -0.002134 0.008015 0.000000 0.000000 0.000000
# 4 0.000000 0.000000 0.000000 0.025653 0.000000 0.000000
# 5 0.000000 0.000000 0.000000 0.000000 0.042809 0.000000
# 6 0.000000 0.000000 0.000000 0.000000 0.000000 0.058522
#
#
# Mechanical properties :
#
#
# Convention : Reuss Voigt Hill
#
# Bulk Modulus (GPa) = 13.72148 47.85134 30.78641
# Shear Modulus (GPa) = 21.07139 34.43210 27.75174
#
# Velocity S-wave (km/s) = 3.20644 4.09881 3.67978
# Velocity P-wave (km/s) = 4.51701 6.76374 5.75115
#
# Compressibility (1/GPa) = 0.07287845
#
# Stress axis : x y z
#
# Youngs Moduli (GPa) = 15.35292 158.84076 124.75831
#
# Poissons Ratio (x) = 0.34718 -0.12927
# Poissons Ratio (y) = 0.03356 0.26622
# Poissons Ratio (z) = -0.01591 0.33895
#
# Static dielectric constant tensor:
#      x y z
#    x 1.734700 0.000000 0.000000 
#    y 0.000000 1.726400 0.000000 
#    z 0.000000 0.000000 1.708940 
# 
# From -- ./inp_files/12374.got.cif
#   From: 2010.05.17/outbox.cif.g08.bks.cpg/sg20_7_cif.got.tgz:12374.got - 2010.06.03 22:52:26.
