data_PCOD9319999
_publ_section_title
;
Structure prediction by ZEFSAII (Michael W. Deem and Ramdas Pophale) SiO2 
 PCOD9319999
Probable space group: C 2 2 21
;
_chemical_formula_sum "Si O2"
_cell_formula_units_Z 60
_cell_length_a 19.101763
_cell_length_b 5.630011
_cell_length_c 26.503997
_cell_angle_alpha 90.000000
_cell_angle_beta 90.000000
_cell_angle_gamma 90.000000
_cell_volume 2850.322949
_symmetry_space_group_name_H-M "C 2 2 21"
_symmetry_group_IT_number 20
_symmetry_cell_setting 'orthorhombic'
loop_
_space_group_symop_operation_xyz
x,y,z
-x,-y,1/2+z
x,-y,-z
-x,y,1/2-z
1/2+x,1/2+y,z
1/2-x,1/2-y,1/2+z
1/2+x,1/2-y,-z
1/2-x,1/2+y,1/2-z
loop_
_atom_site_type_symbol
_atom_site_label
_atom_site_fract_x
_atom_site_fract_y
_atom_site_fract_z
Si Si1 0.326008 0.600360 0.368757
Si Si2 0.981327 0.966956 0.638113
Si Si3 0.794094 0.697141 0.827393
Si Si4 0.351611 0.000000 0.000000
Si Si5 0.246031 0.882815 0.449044
Si Si6 0.612864 0.682474 0.412546
Si Si7 0.686475 0.045557 0.784438
Si Si8 0.532197 0.049184 0.194858
O O1 0.402178 0.505541 0.382316
O O2 0.263029 0.415684 0.364892
O O3 0.302177 0.803568 0.407870
O O4 0.327355 0.704673 0.311871
O O5 0.979295 0.701223 0.664459
O O6 0.042538 0.961546 0.596839
O O7 0.995784 0.202699 0.671608
O O8 0.865540 0.710363 0.858333
O O9 0.757170 0.937928 0.807907
O O10 0.806648 0.557189 0.775451
O O11 0.396531 0.858285 0.040789
O O12 0.299026 0.160842 0.031977
O O13 0.276157 0.000000 0.500000
O O14 0.184190 0.043414 0.426098
O O15 0.616000 0.906683 0.799109
O O16 0.500000 0.012662 0.250000
#
# Coordination Sequence:
#
# PCOD9319999 Si02
#       8
#     8   8   8   4   8   8   8   8
#     4  11  22  42  63  94 137 172 215 285 329 406
#     4  11  26  42  68  97 137 178 223 274 348 393
#     4  12  21  37  64  94 129 177 225 270 329 394
#     4  10  22  42  68  96 128 160 232 282 348 392
#     4  10  22  41  70  94 123 169 225 279 339 413
#     4  11  24  41  69  97 128 178 224 284 338 415
#     4  11  23  36  61  97 132 175 227 271 322 396
#     4  11  24  43  63  94 140 184 224 274 329 406
#
# _framework density 21.050245
#
# number of rings (size 3 to 8) (size 9 to 14) (size 15 to 20)
#    0.000    1.067    5.333    1.200    1.867    3.200 
#    1.200    0.000    4.400    0.000    0.000    0.000 
#    0.000    0.000    0.000    0.000    0.000    0.000 
#
# Total GULP energy -167314.448534 kJ/mol
# GULP energy per Si atom -5577.148284 kJ/mol
# Density = 2.100233 g / cm^3
# Si number density = 21.050245 Si / 1000 Ang^3
#
#
#
# Elastic Constant Matrix: (Units=GPa)
#
#
# Indices 1 2 3 4 5 6 
#
# 1 71.0309 -3.7905 11.9606 0.0000 0.0000 0.0000
# 2 -3.7905 65.4676 14.3024 0.0000 0.0000 0.0000
# 3 11.9606 14.3024 77.1208 0.0000 0.0000 0.0000
# 4 0.0000 0.0000 0.0000 31.1599 0.0000 0.0000
# 5 0.0000 0.0000 0.0000 0.0000 19.0625 0.0000
# 6 0.0000 0.0000 0.0000 0.0000 0.0000 -4.0641
#
#
#
# Elastic Compliance Matrix: (Units=1/GPa)
#
#
# Indices 1 2 3 4 5 6 
#
# 1 0.014577 0.001394 -0.002519 0.000000 0.000000 0.000000
# 2 0.001394 0.016053 -0.003193 0.000000 0.000000 0.000000
# 3 -0.002519 -0.003193 0.013950 0.000000 0.000000 0.000000
# 4 0.000000 0.000000 0.000000 0.032092 0.000000 0.000000
# 5 0.000000 0.000000 0.000000 0.000000 0.052459 0.000000
# 6 0.000000 0.000000 0.000000 0.000000 0.000000 -0.246059
#
#
# Mechanical properties :
#
#
# Convention : Reuss Voigt Hill
#
# Bulk Modulus (GPa) = 27.82177 28.72938 28.27557
# Shear Modulus (GPa) = -51.91543 21.97480 -14.97032
#
# Velocity S-wave (km/s) = -4.97154 3.23448 -2.66967
# Velocity P-wave (km/s) = 4.43952 5.25612 1.98965
#
# Compressibility (1/GPa) = 0.03594307
#
# Stress axis : x y z
#
# Youngs Moduli (GPa) = 68.60113 62.29322 71.68654
#
# Poissons Ratio (x) = -0.08686 0.18060
# Poissons Ratio (y) = -0.09566 0.22892
# Poissons Ratio (z) = 0.17283 0.19893
#
# Static dielectric constant tensor:
#      x y z
#    x 1.742250 0.000000 0.000000 
#    y 0.000000 1.856220 0.000000 
#    z 0.000000 0.000000 1.835360 
# 
# From -- ./inp_files/29559.got.cif
#   From: 2010.05.17/outbox.cif.g08.bks.cpg/sg20_15_cif.got.tgz:29559.got - 2010.06.03 22:52:26.
