data_PCOD9319370
_publ_section_title
;
Structure prediction by ZEFSAII (Michael W. Deem and Ramdas Pophale) SiO2 
 PCOD9319370
Probable space group: C 2 2 21
;
_chemical_formula_sum "Si O2"
_cell_formula_units_Z 56
_cell_length_a 13.854496
_cell_length_b 14.187812
_cell_length_c 12.548669
_cell_angle_alpha 90.000000
_cell_angle_beta 90.000000
_cell_angle_gamma 90.000000
_cell_volume 2466.628929
_symmetry_space_group_name_H-M "C 2 2 21"
_symmetry_group_IT_number 20
_symmetry_cell_setting 'orthorhombic'
loop_
_space_group_symop_operation_xyz
x,y,z
-x,-y,1/2+z
x,-y,-z
-x,y,1/2-z
1/2+x,1/2+y,z
1/2-x,1/2-y,1/2+z
1/2+x,1/2-y,-z
1/2-x,1/2+y,1/2-z
loop_
_atom_site_type_symbol
_atom_site_label
_atom_site_fract_x
_atom_site_fract_y
_atom_site_fract_z
Si Si1 0.639179 0.722209 0.782258
Si Si2 0.426963 0.095354 0.653609
Si Si3 0.820027 0.217044 0.317184
Si Si4 0.393653 0.111940 0.411654
Si Si5 0.065067 0.092917 0.601416
Si Si6 0.345038 0.600629 0.530976
Si Si7 0.838332 0.113113 0.103917
O O1 0.707033 0.786613 0.708893
O O2 0.575381 0.794287 0.850329
O O3 0.589044 0.649976 0.705542
O O4 0.698358 0.662751 0.872622
O O5 0.500000 0.115329 0.750000
O O6 0.344100 0.172692 0.672946
O O7 0.445671 0.109388 0.526406
O O8 0.406895 0.983874 0.654308
O O9 0.848486 0.163004 0.424265
O O10 0.863882 0.168246 0.211734
O O11 0.276094 0.116610 0.422289
O O12 0.107287 0.149108 0.500341
O O13 0.952558 0.078567 0.576106
O O14 0.121872 0.993823 0.613277
O O15 0.299493 0.500000 0.500000
#
# Coordination Sequence:
#
# PCOD9319370 Si02
#       7
#     8   8   8   8   8   8   8
#     4  11  24  43  73  94 137 185 222 274 334 416
#     4  11  23  40  68  91 131 178 227 284 324 386
#     4  11  25  42  68  98 136 181 230 267 340 407
#     4  10  22  45  66  95 131 181 239 272 330 404
#     4  11  22  40  69 109 137 173 222 271 355 408
#     4  12  25  43  67 106 141 167 220 291 347 405
#     4  10  21  41  74  99 139 177 215 274 339 431
#
# _framework density 22.703050000000001
#
# number of rings (size 3 to 8) (size 9 to 14) (size 15 to 20)
#    0.000    1.143    2.857    4.714    4.000    2.286 
#    0.000    0.000    3.143    0.000    0.000    0.000 
#    0.000    0.000    0.000    0.000    0.000    0.000 
#
# Total GULP energy -156299.663216 kJ/mol
# GULP energy per Si atom -5582.130829 kJ/mol
# Density = 2.265138 g / cm^3
# Si number density = 22.703050 Si / 1000 Ang^3
#
#
#
# Elastic Constant Matrix: (Units=GPa)
#
#
# Indices 1 2 3 4 5 6 
#
# 1 28.3450 -4.4338 20.4489 0.0000 0.0000 0.0000
# 2 -4.4338 114.3905 73.1957 0.0000 0.0000 0.0000
# 3 20.4489 73.1957 168.2016 0.0000 0.0000 0.0000
# 4 0.0000 0.0000 0.0000 48.0978 0.0000 0.0000
# 5 0.0000 0.0000 0.0000 0.0000 31.5491 0.0000
# 6 0.0000 0.0000 0.0000 0.0000 0.0000 12.2249
#
#
#
# Elastic Compliance Matrix: (Units=1/GPa)
#
#
# Indices 1 2 3 4 5 6 
#
# 1 0.042185 0.006814 -0.008094 0.000000 0.000000 0.000000
# 2 0.006814 0.013216 -0.006580 0.000000 0.000000 0.000000
# 3 -0.008094 -0.006580 0.009793 0.000000 0.000000 0.000000
# 4 0.000000 0.000000 0.000000 0.020791 0.000000 0.000000
# 5 0.000000 0.000000 0.000000 0.000000 0.031697 0.000000
# 6 0.000000 0.000000 0.000000 0.000000 0.000000 0.081800
#
#
# Mechanical properties :
#
#
# Convention : Reuss Voigt Hill
#
# Bulk Modulus (GPa) = 20.21236 54.37319 37.29278
# Shear Modulus (GPa) = 21.58040 33.15612 27.36826
#
# Velocity S-wave (km/s) = 3.08644 3.82570 3.47578
# Velocity P-wave (km/s) = 4.65014 6.59669 5.70702
#
# Compressibility (1/GPa) = 0.04947468
#
# Stress axis : x y z
#
# Youngs Moduli (GPa) = 23.70530 75.66411 102.11879
#
# Poissons Ratio (x) = -0.51559 0.82653
# Poissons Ratio (y) = -0.16153 0.67191
# Poissons Ratio (z) = 0.19187 0.49785
#
# Static dielectric constant tensor:
#      x y z
#    x 1.894260 0.000000 0.000000 
#    y 0.000000 1.869710 0.000000 
#    z 0.000000 0.000000 1.875250 
# 
# From -- ./inp_files/15122.got.cif
#   From: 2010.05.17/outbox.cif.g08.bks.cpg/sg20_8_cif.got.tgz:15122.got - 2010.06.03 22:52:26.
