data_PCOD9319602
_publ_section_title
;
Structure prediction by ZEFSAII (Michael W. Deem and Ramdas Pophale) SiO2 
 PCOD9319602
Probable space group: C 2 2 21
;
_chemical_formula_sum "Si O2"
_cell_formula_units_Z 36
_cell_length_a 11.773752
_cell_length_b 26.713907
_cell_length_c 5.706486
_cell_angle_alpha 90.000000
_cell_angle_beta 90.000000
_cell_angle_gamma 90.000000
_cell_volume 1794.820617
_symmetry_space_group_name_H-M "C 2 2 21"
_symmetry_group_IT_number 20
_symmetry_cell_setting 'orthorhombic'
loop_
_space_group_symop_operation_xyz
x,y,z
-x,-y,1/2+z
x,-y,-z
-x,y,1/2-z
1/2+x,1/2+y,z
1/2-x,1/2-y,1/2+z
1/2+x,1/2-y,-z
1/2-x,1/2+y,1/2-z
loop_
_atom_site_type_symbol
_atom_site_label
_atom_site_fract_x
_atom_site_fract_y
_atom_site_fract_z
Si Si1 0.633286 0.817213 0.774377
Si Si2 0.673814 0.705739 0.928874
Si Si3 0.306241 0.624941 0.939691
Si Si4 0.862918 0.025951 0.748442
Si Si5 0.000000 0.853940 0.750000
O O1 0.500000 0.825057 0.750000
O O2 0.654088 0.764520 0.907976
O O3 0.702865 0.808010 0.533844
O O4 0.695465 0.862143 0.911119
O O5 0.661165 0.677045 0.684856
O O6 0.580589 0.681295 0.096882
O O7 0.302942 0.580346 0.755937
O O8 0.413144 0.612525 0.104594
O O9 0.000000 0.031042 0.750000
O O10 0.833229 0.000000 0.500000
O O11 0.831633 0.000000 0.000000
#
# Coordination Sequence:
#
# PCOD9319602 Si02
#       5
#     8   8   8   8   4
#     4  11  24  38  60  92 129 173 224 264 325 393
#     4  11  22  38  58  91 126 173 213 265 319 388
#     4  11  23  39  61  93 132 174 210 270 329 393
#     4  10  23  39  65  99 134 169 215 277 343 403
#     4  10  22  34  64  88 132 164 216 258 328 394
#
# _framework density 20.057715000000002
#
# number of rings (size 3 to 8) (size 9 to 14) (size 15 to 20)
#    0.000    1.333    2.222    3.333   14.000    0.889 
#    0.000    0.000    0.000    0.000    5.778    0.000 
#    0.000    0.000    0.000    0.000    0.000    0.000 
#
# Total GULP energy -100541.851151 kJ/mol
# GULP energy per Si atom -5585.658397 kJ/mol
# Density = 2.001206 g / cm^3
# Si number density = 20.057715 Si / 1000 Ang^3
#
#
#
# Elastic Constant Matrix: (Units=GPa)
#
#
# Indices 1 2 3 4 5 6 
#
# 1 136.8829 25.2065 44.6272 0.0000 0.0000 0.0000
# 2 25.2065 92.8529 31.7524 0.0000 0.0000 0.0000
# 3 44.6272 31.7524 86.1303 0.0000 0.0000 0.0000
# 4 0.0000 0.0000 0.0000 40.8343 0.0000 0.0000
# 5 0.0000 0.0000 0.0000 0.0000 17.2580 0.0000
# 6 0.0000 0.0000 0.0000 0.0000 0.0000 10.7060
#
#
#
# Elastic Compliance Matrix: (Units=1/GPa)
#
#
# Indices 1 2 3 4 5 6 
#
# 1 0.008864 -0.000956 -0.004240 0.000000 0.000000 0.000000
# 2 -0.000956 0.012426 -0.004086 0.000000 0.000000 0.000000
# 3 -0.004240 -0.004086 0.015314 0.000000 0.000000 0.000000
# 4 0.000000 0.000000 0.000000 0.024489 0.000000 0.000000
# 5 0.000000 0.000000 0.000000 0.000000 0.057944 0.000000
# 6 0.000000 0.000000 0.000000 0.000000 0.000000 0.093406
#
#
# Mechanical properties :
#
#
# Convention : Reuss Voigt Hill
#
# Bulk Modulus (GPa) = 55.43307 57.67093 56.55200
# Shear Modulus (GPa) = 21.09523 28.04499 24.57011
#
# Velocity S-wave (km/s) = 3.24655 3.74333 3.50375
# Velocity P-wave (km/s) = 6.46144 6.89190 6.68014
#
# Compressibility (1/GPa) = 0.01803977
#
# Stress axis : x y z
#
# Youngs Moduli (GPa) = 112.81546 80.47349 65.30184
#
# Poissons Ratio (x) = 0.07696 0.27690
# Poissons Ratio (y) = 0.10788 0.26680
# Poissons Ratio (z) = 0.47836 0.32878
#
# Static dielectric constant tensor:
#      x y z
#    x 1.669870 0.000000 0.000000 
#    y 0.000000 1.739730 0.000000 
#    z 0.000000 0.000000 1.806680 
# 
# From -- ./inp_files/1193.got.cif
#   From: 2010.05.17/outbox.cif.g08.bks.cpg/sg20_1_cif.got.tgz:1193.got - 2010.06.03 22:52:26.
