data_PCOD9319020
_publ_section_title
;
Structure prediction by ZEFSAII (Michael W. Deem and Ramdas Pophale) SiO2 
 PCOD9319020
Probable space group: C 2 2 21
;
_chemical_formula_sum "Si O2"
_cell_formula_units_Z 44
_cell_length_a 16.019654
_cell_length_b 16.147815
_cell_length_c 8.005222
_cell_angle_alpha 90.000000
_cell_angle_beta 90.000000
_cell_angle_gamma 90.000000
_cell_volume 2070.810113
_symmetry_space_group_name_H-M "C 2 2 21"
_symmetry_group_IT_number 20
_symmetry_cell_setting 'orthorhombic'
loop_
_space_group_symop_operation_xyz
x,y,z
-x,-y,1/2+z
x,-y,-z
-x,y,1/2-z
1/2+x,1/2+y,z
1/2-x,1/2-y,1/2+z
1/2+x,1/2-y,-z
1/2-x,1/2+y,1/2-z
loop_
_atom_site_type_symbol
_atom_site_label
_atom_site_fract_x
_atom_site_fract_y
_atom_site_fract_z
Si Si1 0.704493 0.821733 0.591142
Si Si2 0.000000 0.817264 0.250000
Si Si3 0.256035 0.016056 0.191945
Si Si4 0.810559 0.849774 0.280824
Si Si5 0.446231 0.750625 0.086902
Si Si6 0.086788 0.939600 0.659208
O O1 0.695572 0.897895 0.722210
O O2 0.784821 0.835078 0.473169
O O3 0.708223 0.734592 0.684288
O O4 0.626849 0.813407 0.463277
O O5 0.089277 0.864548 0.238429
O O6 0.001139 0.762270 0.417324
O O7 0.160436 0.041707 0.214496
O O8 0.249002 0.926029 0.279136
O O9 0.278893 0.000000 0.000000
O O10 0.500000 0.771885 0.250000
O O11 0.408817 0.657998 0.114957
O O12 0.000000 0.952709 0.750000
O O13 0.093602 0.000000 0.500000
#
# Coordination Sequence:
#
# PCOD9319020 Si02
#       6
#     8   4   8   8   8   8
#     4  10  21  39  59  89 129 170 214 264 327 391
#     4  10  22  38  58  96 134 164 208 260 334 388
#     4  10  22  36  57  89 125 170 201 261 326 386
#     4  10  22  37  63  89 129 170 209 265 328 397
#     4  10  23  37  61  92 122 172 220 264 320 389
#     4  11  22  31  53  84 132 169 209 257 326 401
#
# _framework density 21.247724000000002
#
# number of rings (size 3 to 8) (size 9 to 14) (size 15 to 20)
#    0.000    1.818    0.000    3.818   17.818    0.000 
#    0.000    0.000    0.000    0.000   85.091    0.000 
#    0.000    0.000    0.000    0.000    0.000    0.000 
#
# Total GULP energy -122547.339414 kJ/mol
# GULP energy per Si atom -5570.333610 kJ/mol
# Density = 2.119936 g / cm^3
# Si number density = 21.247724 Si / 1000 Ang^3
#
#
#
# Elastic Constant Matrix: (Units=GPa)
#
#
# Indices 1 2 3 4 5 6 
#
# 1 48.7538 41.6740 12.0067 0.0000 0.0000 0.0000
# 2 41.6740 155.3071 21.8019 0.0000 0.0000 0.0000
# 3 12.0067 21.8019 63.2380 0.0000 0.0000 0.0000
# 4 0.0000 0.0000 0.0000 80.4537 0.0000 0.0000
# 5 0.0000 0.0000 0.0000 0.0000 30.6768 0.0000
# 6 0.0000 0.0000 0.0000 0.0000 0.0000 15.3137
#
#
#
# Elastic Compliance Matrix: (Units=1/GPa)
#
#
# Indices 1 2 3 4 5 6 
#
# 1 0.027070 -0.006875 -0.002769 0.000000 0.000000 0.000000
# 2 -0.006875 0.008512 -0.001629 0.000000 0.000000 0.000000
# 3 -0.002769 -0.001629 0.016901 0.000000 0.000000 0.000000
# 4 0.000000 0.000000 0.000000 0.012430 0.000000 0.000000
# 5 0.000000 0.000000 0.000000 0.000000 0.032598 0.000000
# 6 0.000000 0.000000 0.000000 0.000000 0.000000 0.065301
#
#
# Mechanical properties :
#
#
# Convention : Reuss Voigt Hill
#
# Bulk Modulus (GPa) = 33.40513 46.47380 39.93946
# Shear Modulus (GPa) = 25.59668 38.07659 31.83664
#
# Velocity S-wave (km/s) = 3.47461 4.23783 3.87506
# Velocity P-wave (km/s) = 5.64386 6.77241 6.23372
#
# Compressibility (1/GPa) = 0.02993552
#
# Stress axis : x y z
#
# Youngs Moduli (GPa) = 36.94143 117.47605 59.16865
#
# Poissons Ratio (x) = 0.80764 0.16386
# Poissons Ratio (y) = 0.25397 0.09641
# Poissons Ratio (z) = 0.10231 0.19142
#
# Static dielectric constant tensor:
#      x y z
#    x 1.762440 0.000000 0.000000 
#    y 0.000000 1.919360 0.000000 
#    z 0.000000 0.000000 1.825610 
# 
# From -- ./inp_files/9274.got.cif
#   From: 2010.05.17/outbox.cif.g08.bks.cpg/sg20_5_cif.got.tgz:9274.got - 2010.06.03 22:52:26.
