data_PCOD9319456
_publ_section_title
;
Structure prediction by ZEFSAII (Michael W. Deem and Ramdas Pophale) SiO2 
 PCOD9319456
Probable space group: C 2 2 21
;
_chemical_formula_sum "Si O2"
_cell_formula_units_Z 40
_cell_length_a 19.013692
_cell_length_b 18.575748
_cell_length_c 5.133851
_cell_angle_alpha 90.000000
_cell_angle_beta 90.000000
_cell_angle_gamma 90.000000
_cell_volume 1813.243066
_symmetry_space_group_name_H-M "C 2 2 21"
_symmetry_group_IT_number 20
_symmetry_cell_setting 'orthorhombic'
loop_
_space_group_symop_operation_xyz
x,y,z
-x,-y,1/2+z
x,-y,-z
-x,y,1/2-z
1/2+x,1/2+y,z
1/2-x,1/2-y,1/2+z
1/2+x,1/2-y,-z
1/2-x,1/2+y,1/2-z
loop_
_atom_site_type_symbol
_atom_site_label
_atom_site_fract_x
_atom_site_fract_y
_atom_site_fract_z
Si Si1 0.421756 0.643253 0.135277
Si Si2 0.000000 0.549186 0.250000
Si Si3 0.245739 0.500000 0.500000
Si Si4 0.500000 0.262116 0.250000
Si Si5 0.856919 0.367953 0.893078
Si Si6 0.660852 0.500000 0.500000
Si Si7 0.619223 0.221677 0.916037
O O1 0.500000 0.630924 0.250000
O O2 0.375719 0.695433 0.321056
O O3 0.439430 0.689335 0.877283
O O4 0.385529 0.568714 0.075518
O O5 0.930839 0.594527 0.179616
O O6 0.983118 0.500000 0.500000
O O7 0.198588 0.568365 0.423375
O O8 0.292415 0.518817 0.749971
O O9 0.461741 0.219389 0.479467
O O10 0.839097 0.311607 0.660923
O O11 0.866443 0.326665 0.164967
#
# Coordination Sequence:
#
# PCOD9319456 Si02
#       7
#     8   4   4   4   8   4   8
#     4  10  25  45  78 118 145 176 246 309 385 442
#     4  12  25  38  66 104 139 178 248 298 375 412
#     4  12  30  53  69 104 150 212 256 286 356 446
#     4  10  21  42  72 116 149 172 228 314 387 450
#     4  12  25  45  71 103 150 191 244 307 354 435
#     4  12  30  51  81  98 154 204 244 302 370 438
#     4  11  23  41  73 106 144 185 225 303 381 432
#
# _framework density 22.059922
#
# number of rings (size 3 to 8) (size 9 to 14) (size 15 to 20)
#    0.000    0.800    3.000    3.000   14.000    0.000 
#    0.000    4.000    0.000    0.000    0.000    0.000 
#    0.000    0.000    0.000    0.000    0.000    0.000 
#
# Total GULP energy -111860.624095 kJ/mol
# GULP energy per Si atom -5593.031205 kJ/mol
# Density = 2.200971 g / cm^3
# Si number density = 22.059922 Si / 1000 Ang^3
#
#
#
# Elastic Constant Matrix: (Units=GPa)
#
#
# Indices 1 2 3 4 5 6 
#
# 1 66.9844 63.1447 37.7014 0.0000 0.0000 0.0000
# 2 63.1447 165.1368 74.7803 0.0000 0.0000 0.0000
# 3 37.7014 74.7803 176.7967 0.0000 0.0000 0.0000
# 4 0.0000 0.0000 0.0000 35.7812 0.0000 0.0000
# 5 0.0000 0.0000 0.0000 0.0000 23.7931 0.0000
# 6 0.0000 0.0000 0.0000 0.0000 0.0000 1180.0069
#
#
#
# Elastic Compliance Matrix: (Units=1/GPa)
#
#
# Indices 1 2 3 4 5 6 
#
# 1 0.023664 -0.008366 -0.001508 0.000000 0.000000 0.000000
# 2 -0.008366 0.010448 -0.002635 0.000000 0.000000 0.000000
# 3 -0.001508 -0.002635 0.007092 0.000000 0.000000 0.000000
# 4 0.000000 0.000000 0.000000 0.027948 0.000000 0.000000
# 5 0.000000 0.000000 0.000000 0.000000 0.042029 0.000000
# 6 0.000000 0.000000 0.000000 0.000000 0.000000 0.000847
#
#
# Mechanical properties :
#
#
# Convention : Reuss Voigt Hill
#
# Bulk Modulus (GPa) = 61.77982 84.46341 73.12162
# Shear Modulus (GPa) = 35.10239 263.46900 149.28570
#
# Velocity S-wave (km/s) = 3.99335 10.94041 8.23527
# Velocity P-wave (km/s) = 7.02344 14.06988 11.11958
#
# Compressibility (1/GPa) = 0.01618652
#
# Stress axis : x y z
#
# Youngs Moduli (GPa) = 42.25904 95.71452 140.99720
#
# Poissons Ratio (x) = 0.80072 0.21259
# Poissons Ratio (y) = 0.35353 0.37155
# Poissons Ratio (z) = 0.06372 0.25222
#
# Static dielectric constant tensor:
#      x y z
#    x 1.783680 0.000000 0.000000 
#    y 0.000000 1.830000 0.000000 
#    z 0.000000 0.000000 1.421790 
# 
# From -- ./inp_files/3121.got.cif
#   From: 2010.05.17/outbox.cif.g08.bks.cpg/sg20_2_cif.got.tgz:3121.got - 2010.06.03 22:52:26.
