data_PCOD9319478
_publ_section_title
;
Structure prediction by ZEFSAII (Michael W. Deem and Ramdas Pophale) SiO2 
 PCOD9319478
Probable space group: C 2 2 21
;
_chemical_formula_sum "Si O2"
_cell_formula_units_Z 56
_cell_length_a 18.509557
_cell_length_b 8.902404
_cell_length_c 15.946532
_cell_angle_alpha 90.000000
_cell_angle_beta 90.000000
_cell_angle_gamma 90.000000
_cell_volume 2627.662435
_symmetry_space_group_name_H-M "C 2 2 21"
_symmetry_group_IT_number 20
_symmetry_cell_setting 'orthorhombic'
loop_
_space_group_symop_operation_xyz
x,y,z
-x,-y,1/2+z
x,-y,-z
-x,y,1/2-z
1/2+x,1/2+y,z
1/2-x,1/2-y,1/2+z
1/2+x,1/2-y,-z
1/2-x,1/2+y,1/2-z
loop_
_atom_site_type_symbol
_atom_site_label
_atom_site_fract_x
_atom_site_fract_y
_atom_site_fract_z
Si Si1 0.602143 0.058070 0.871977
Si Si2 0.919757 0.752923 0.775197
Si Si3 0.767072 0.676097 0.526271
Si Si4 0.676334 0.487366 0.272077
Si Si5 0.112433 0.133055 0.567656
Si Si6 0.549413 0.855766 0.456366
Si Si7 0.798865 0.294545 0.651795
O O1 0.592641 0.099871 0.775057
O O2 0.663182 0.164114 0.914950
O O3 0.527862 0.091624 0.920292
O O4 0.628293 0.886111 0.871242
O O5 0.912595 0.719998 0.874654
O O6 0.000000 0.802561 0.750000
O O7 0.865071 0.870997 0.734243
O O8 0.760698 0.500000 0.500000
O O9 0.690425 0.717122 0.565790
O O10 0.773714 0.763036 0.439068
O O11 0.616321 0.434238 0.340273
O O12 0.745161 0.572157 0.314691
O O13 0.695878 0.344705 0.215318
O O14 0.049508 0.237759 0.532751
O O15 0.114075 0.000000 0.500000
O O16 0.585287 0.000000 0.500000
#
# Coordination Sequence:
#
# PCOD9319478 Si02
#       7
#     8   8   8   8   8   8   8
#     4  10  21  43  66  90 129 173 220 277 335 392
#     4  10  23  43  60  90 136 175 215 281 330 396
#     4   9  17  39  62  87 119 166 209 267 327 383
#     4  12  23  41  66  99 130 175 222 275 340 400
#     4  11  20  41  66  90 129 175 217 273 337 399
#     4  11  23  40  65  94 129 177 224 273 339 399
#     4  11  22  38  68  94 128 169 221 276 333 396
#
# _framework density 21.311717999999999
#
# number of rings (size 3 to 8) (size 9 to 14) (size 15 to 20)
#    0.000    1.429    5.714    2.143    2.000    0.000 
#    5.143    0.714    0.000    0.000    0.000    0.000 
#    0.000    0.000    0.000    0.000    0.000    0.000 
#
# Total GULP energy -155871.611592 kJ/mol
# GULP energy per Si atom -5566.843271 kJ/mol
# Density = 2.126321 g / cm^3
# Si number density = 21.311718 Si / 1000 Ang^3
#
#
#
# Elastic Constant Matrix: (Units=GPa)
#
#
# Indices 1 2 3 4 5 6 
#
# 1 43.1088 17.3003 -0.6404 0.0000 0.0000 0.0000
# 2 17.3003 72.8821 32.6419 0.0000 0.0000 0.0000
# 3 -0.6404 32.6419 77.3199 0.0000 0.0000 0.0000
# 4 0.0000 0.0000 0.0000 32.5969 0.0000 0.0000
# 5 0.0000 0.0000 0.0000 0.0000 15.2453 0.0000
# 6 0.0000 0.0000 0.0000 0.0000 0.0000 21.1559
#
#
#
# Elastic Compliance Matrix: (Units=1/GPa)
#
#
# Indices 1 2 3 4 5 6 
#
# 1 0.026399 -0.007848 0.003532 0.000000 0.000000 0.000000
# 2 -0.007848 0.019253 -0.008193 0.000000 0.000000 0.000000
# 3 0.003532 -0.008193 0.016421 0.000000 0.000000 0.000000
# 4 0.000000 0.000000 0.000000 0.030678 0.000000 0.000000
# 5 0.000000 0.000000 0.000000 0.000000 0.065594 0.000000
# 6 0.000000 0.000000 0.000000 0.000000 0.000000 0.047268
#
#
# Mechanical properties :
#
#
# Convention : Reuss Voigt Hill
#
# Bulk Modulus (GPa) = 26.98694 32.43493 29.71094
# Shear Modulus (GPa) = 20.57744 23.40021 21.98882
#
# Velocity S-wave (km/s) = 3.11069 3.31720 3.21560
# Velocity P-wave (km/s) = 5.05889 5.47029 5.26861
#
# Compressibility (1/GPa) = 0.03705496
#
# Stress axis : x y z
#
# Youngs Moduli (GPa) = 37.87981 51.93925 60.89614
#
# Poissons Ratio (x) = 0.40764 -0.21509
# Poissons Ratio (y) = 0.29730 0.49893
# Poissons Ratio (z) = -0.13379 0.42554
#
# Static dielectric constant tensor:
#      x y z
#    x 1.876250 0.000000 0.000000 
#    y 0.000000 1.840760 0.000000 
#    z 0.000000 0.000000 1.827490 
# 
# From -- ./inp_files/19185.got.cif
#   From: 2010.05.17/outbox.cif.g08.bks.cpg/sg20_10_cif.got.tgz:19185.got - 2010.06.03 22:52:26.
