data_PCOD9319246
_publ_section_title
;
Structure prediction by ZEFSAII (Michael W. Deem and Ramdas Pophale) SiO2 
 PCOD9319246
Probable space group: C 2 2 21
;
_chemical_formula_sum "Si O2"
_cell_formula_units_Z 52
_cell_length_a 12.491510
_cell_length_b 7.922641
_cell_length_c 22.543377
_cell_angle_alpha 90.000000
_cell_angle_beta 90.000000
_cell_angle_gamma 90.000000
_cell_volume 2231.022196
_symmetry_space_group_name_H-M "C 2 2 21"
_symmetry_group_IT_number 20
_symmetry_cell_setting 'orthorhombic'
loop_
_space_group_symop_operation_xyz
x,y,z
-x,-y,1/2+z
x,-y,-z
-x,y,1/2-z
1/2+x,1/2+y,z
1/2-x,1/2-y,1/2+z
1/2+x,1/2-y,-z
1/2-x,1/2+y,1/2-z
loop_
_atom_site_type_symbol
_atom_site_label
_atom_site_fract_x
_atom_site_fract_y
_atom_site_fract_z
Si Si1 0.987048 0.974675 0.130728
Si Si2 0.651604 0.000000 0.000000
Si Si3 0.799462 0.781630 0.911569
Si Si4 0.849844 0.199156 0.425198
Si Si5 0.000000 0.839777 0.750000
Si Si6 0.315147 0.248915 0.174674
Si Si7 0.817586 0.500000 0.000000
Si Si8 0.288816 0.867769 0.211874
O O1 0.890985 0.092742 0.108983
O O2 0.025738 0.044355 0.193759
O O3 0.080305 0.030809 0.086115
O O4 0.925119 0.799668 0.141221
O O5 0.595694 0.147277 0.961263
O O6 0.720949 0.893144 0.952315
O O7 0.748107 0.714399 0.849970
O O8 0.854511 0.625840 0.947219
O O9 0.790261 0.268077 0.366621
O O10 0.751974 0.132998 0.463557
O O11 0.103290 0.728513 0.732583
O O12 0.293901 0.358901 0.233614
O O13 0.318005 0.057965 0.196249
#
# Coordination Sequence:
#
# PCOD9319246 Si02
#       8
#     8   4   8   8   4   8   4   8
#     4  11  24  41  67  99 138 184 235 292 356 428
#     4  10  22  42  72  98 142 194 240 294 366 426
#     4  10  21  40  68  97 137 189 235 287 360 422
#     4  11  23  45  68 104 139 183 241 293 352 436
#     4  10  22  42  64 102 142 172 238 300 340 442
#     4  12  24  44  70  99 142 193 230 301 368 424
#     4  10  22  42  66  96 140 178 236 288 344 426
#     4  11  23  42  69 100 140 186 238 298 370 428
#
# _framework density 23.307703
#
# number of rings (size 3 to 8) (size 9 to 14) (size 15 to 20)
#    0.000    1.231    4.615    1.846    0.000    1.846 
#    0.000    6.154    0.000    0.000    0.000    0.000 
#    0.000    0.000    0.000    0.000    0.000    0.000 
#
# Total GULP energy -145044.979556 kJ/mol
# GULP energy per Si atom -5578.653060 kJ/mol
# Density = 2.325465 g / cm^3
# Si number density = 23.307703 Si / 1000 Ang^3
#
#
#
# Elastic Constant Matrix: (Units=GPa)
#
#
# Indices 1 2 3 4 5 6 
#
# 1 50.6506 4.1557 18.6957 0.0000 0.0000 0.0000
# 2 4.1557 84.9514 19.8178 0.0000 0.0000 0.0000
# 3 18.6957 19.8178 109.1149 0.0000 0.0000 0.0000
# 4 0.0000 0.0000 0.0000 52.3462 0.0000 0.0000
# 5 0.0000 0.0000 0.0000 0.0000 55.3101 0.0000
# 6 0.0000 0.0000 0.0000 0.0000 0.0000 26.4721
#
#
#
# Elastic Compliance Matrix: (Units=1/GPa)
#
#
# Indices 1 2 3 4 5 6 
#
# 1 0.021079 -0.000197 -0.003576 0.000000 0.000000 0.000000
# 2 -0.000197 0.012294 -0.002199 0.000000 0.000000 0.000000
# 3 -0.003576 -0.002199 0.010177 0.000000 0.000000 0.000000
# 4 0.000000 0.000000 0.000000 0.019104 0.000000 0.000000
# 5 0.000000 0.000000 0.000000 0.000000 0.018080 0.000000
# 6 0.000000 0.000000 0.000000 0.000000 0.000000 0.037776
#
#
# Mechanical properties :
#
#
# Convention : Reuss Voigt Hill
#
# Bulk Modulus (GPa) = 31.63960 36.67283 34.15622
# Shear Modulus (GPa) = 35.46387 40.29552 37.87969
#
# Velocity S-wave (km/s) = 3.90494 4.16245 4.03575
# Velocity P-wave (km/s) = 5.82543 6.23456 6.03346
#
# Compressibility (1/GPa) = 0.03160596
#
# Stress axis : x y z
#
# Youngs Moduli (GPa) = 47.44017 81.33985 98.26310
#
# Poissons Ratio (x) = 0.01602 0.35138
# Poissons Ratio (y) = 0.00934 0.21610
# Poissons Ratio (z) = 0.16964 0.17888
#
# Static dielectric constant tensor:
#      x y z
#    x 1.914760 0.000000 0.000000 
#    y 0.000000 1.888090 0.000000 
#    z 0.000000 0.000000 2.032830 
# 
# From -- ./inp_files/27530.got.cif
#   From: 2010.05.17/outbox.cif.g08.bks.cpg/sg20_14_cif.got.tgz:27530.got - 2010.06.03 22:52:26.
