data_PCOD9319196
_publ_section_title
;
Structure prediction by ZEFSAII (Michael W. Deem and Ramdas Pophale) SiO2 
 PCOD9319196
Probable space group: C 2 2 21
;
_chemical_formula_sum "Si O2"
_cell_formula_units_Z 40
_cell_length_a 19.153485
_cell_length_b 9.158780
_cell_length_c 11.125202
_cell_angle_alpha 90.000000
_cell_angle_beta 90.000000
_cell_angle_gamma 90.000000
_cell_volume 1951.611364
_symmetry_space_group_name_H-M "C 2 2 21"
_symmetry_group_IT_number 20
_symmetry_cell_setting 'orthorhombic'
loop_
_space_group_symop_operation_xyz
x,y,z
-x,-y,1/2+z
x,-y,-z
-x,y,1/2-z
1/2+x,1/2+y,z
1/2-x,1/2-y,1/2+z
1/2+x,1/2-y,-z
1/2-x,1/2+y,1/2-z
loop_
_atom_site_type_symbol
_atom_site_label
_atom_site_fract_x
_atom_site_fract_y
_atom_site_fract_z
Si Si1 0.461941 0.084993 0.624592
Si Si2 0.148950 0.643972 0.421029
Si Si3 0.050271 0.157708 0.460049
Si Si4 0.193689 0.547711 0.797235
Si Si5 0.202530 0.814873 0.622419
O O1 0.500000 0.032651 0.750000
O O2 0.492527 0.245684 0.602756
O O3 0.477515 0.000000 0.500000
O O4 0.378506 0.085447 0.637698
O O5 0.132447 0.500000 0.500000
O O6 0.083068 0.751501 0.427573
O O7 0.170639 0.578985 0.296341
O O8 0.208986 0.731131 0.494223
O O9 0.119600 0.148969 0.376171
O O10 0.026812 0.000000 0.500000
O O11 0.216948 0.690755 0.722507
O O12 0.253978 0.462124 0.867189
#
# Coordination Sequence:
#
# PCOD9319196 Si02
#       5
#     8   8   8   8   8
#     4  12  24  45  72 103 141 189 243 291 358 435
#     4   8  17  38  61  88 135 183 226 271 367 425
#     4  10  21  40  64  93 134 189 227 286 361 433
#     4  11  21  39  68  97 139 180 231 302 336 420
#     4   9  22  37  62  99 134 181 231 286 359 420
#
# _framework density 20.495882999999999
#
# number of rings (size 3 to 8) (size 9 to 14) (size 15 to 20)
#    1.200    0.800    2.000    1.800    2.800    2.400 
#    0.000    5.000    0.000    0.000    0.000    0.000 
#    0.000    0.000    0.000    0.000    0.000    0.000 
#
# Total GULP energy -111404.362974 kJ/mol
# GULP energy per Si atom -5570.218149 kJ/mol
# Density = 2.044923 g / cm^3
# Si number density = 20.495883 Si / 1000 Ang^3
#
#
#
# Elastic Constant Matrix: (Units=GPa)
#
#
# Indices 1 2 3 4 5 6 
#
# 1 119.7398 71.4856 27.5921 0.0000 0.0000 0.0000
# 2 71.4856 131.5519 56.2618 0.0000 0.0000 0.0000
# 3 27.5921 56.2618 85.1767 0.0000 0.0000 0.0000
# 4 0.0000 0.0000 0.0000 34.1253 0.0000 0.0000
# 5 0.0000 0.0000 0.0000 0.0000 8.0767 0.0000
# 6 0.0000 0.0000 0.0000 0.0000 0.0000 37.3618
#
#
#
# Elastic Compliance Matrix: (Units=1/GPa)
#
#
# Indices 1 2 3 4 5 6 
#
# 1 0.012384 -0.006988 0.000604 0.000000 0.000000 0.000000
# 2 -0.006988 0.014537 -0.007339 0.000000 0.000000 0.000000
# 3 0.000604 -0.007339 0.016392 0.000000 0.000000 0.000000
# 4 0.000000 0.000000 0.000000 0.029304 0.000000 0.000000
# 5 0.000000 0.000000 0.000000 0.000000 0.123813 0.000000
# 6 0.000000 0.000000 0.000000 0.000000 0.000000 0.026765
#
#
# Mechanical properties :
#
#
# Convention : Reuss Voigt Hill
#
# Bulk Modulus (GPa) = 63.01845 71.90526 67.46186
# Shear Modulus (GPa) = 19.53657 27.98802 23.76229
#
# Velocity S-wave (km/s) = 3.09073 3.69933 3.40864
# Velocity P-wave (km/s) = 6.59928 7.30792 6.96262
#
# Compressibility (1/GPa) = 0.01586837
#
# Stress axis : x y z
#
# Youngs Moduli (GPa) = 80.74898 68.78812 61.00495
#
# Poissons Ratio (x) = 0.48068 -0.03685
# Poissons Ratio (y) = 0.56426 0.44770
# Poissons Ratio (z) = -0.04877 0.50482
#
# Static dielectric constant tensor:
#      x y z
#    x 1.753600 0.000000 0.000000 
#    y 0.000000 1.718020 0.000000 
#    z 0.000000 0.000000 1.811590 
# 
# From -- ./inp_files/16167.got.cif
#   From: 2010.05.17/outbox.cif.g08.bks.cpg/sg20_9_cif.got.tgz:16167.got - 2010.06.03 22:52:26.
