data_PCOD9319320
_publ_section_title
;
Structure prediction by ZEFSAII (Michael W. Deem and Ramdas Pophale) SiO2 
 PCOD9319320
Probable space group: C 2 2 21
;
_chemical_formula_sum "Si O2"
_cell_formula_units_Z 40
_cell_length_a 7.443241
_cell_length_b 13.380280
_cell_length_c 18.056676
_cell_angle_alpha 90.000000
_cell_angle_beta 90.000000
_cell_angle_gamma 90.000000
_cell_volume 1798.312189
_symmetry_space_group_name_H-M "C 2 2 21"
_symmetry_group_IT_number 20
_symmetry_cell_setting 'orthorhombic'
loop_
_space_group_symop_operation_xyz
x,y,z
-x,-y,1/2+z
x,-y,-z
-x,y,1/2-z
1/2+x,1/2+y,z
1/2-x,1/2-y,1/2+z
1/2+x,1/2-y,-z
1/2-x,1/2+y,1/2-z
loop_
_atom_site_type_symbol
_atom_site_label
_atom_site_fract_x
_atom_site_fract_y
_atom_site_fract_z
Si Si1 0.610292 0.270754 0.685501
Si Si2 0.107942 0.602918 0.470047
Si Si3 0.684449 0.799267 0.068968
Si Si4 0.086004 0.588862 0.177191
Si Si5 0.190687 0.107898 0.712549
O O1 0.500000 0.328127 0.750000
O O2 0.473627 0.235718 0.623907
O O3 0.759333 0.338829 0.649201
O O4 0.706249 0.182271 0.731162
O O5 0.191654 0.500000 0.500000
O O6 0.921146 0.626047 0.514005
O O7 0.061594 0.579147 0.385127
O O8 0.227170 0.703482 0.470916
O O9 0.823892 0.846324 0.128934
O O10 0.180789 0.487079 0.201405
O O11 0.000000 0.637162 0.250000
O O12 0.000000 0.085552 0.750000
#
# Coordination Sequence:
#
# PCOD9319320 Si02
#       5
#     8   8   8   8   8
#     4  10  21  41  66  98 134 179 234 284 348 416
#     4  12  26  46  71 101 144 186 234 290 362 422
#     4  11  24  48  68 102 143 188 230 299 353 425
#     4  12  23  43  71 100 139 182 237 293 348 423
#     4  11  23  41  70 103 137 187 241 291 352 419
#
# _framework density 22.243079000000002
#
# number of rings (size 3 to 8) (size 9 to 14) (size 15 to 20)
#    0.000    0.800    2.000    7.800    0.000    0.000 
#    3.600    0.000    0.000    0.000    0.000    0.000 
#    0.000    0.000    0.000    0.000    0.000    0.000 
#
# Total GULP energy -111792.428242 kJ/mol
# GULP energy per Si atom -5589.621412 kJ/mol
# Density = 2.219245 g / cm^3
# Si number density = 22.243079 Si / 1000 Ang^3
#
#
#
# Elastic Constant Matrix: (Units=GPa)
#
#
# Indices 1 2 3 4 5 6 
#
# 1 42.2431 15.4979 7.5923 0.0000 0.0000 0.0000
# 2 15.4979 87.1277 2.7383 0.0000 0.0000 0.0000
# 3 7.5923 2.7383 91.1429 0.0000 0.0000 0.0000
# 4 0.0000 0.0000 0.0000 27.0745 0.0000 0.0000
# 5 0.0000 0.0000 0.0000 0.0000 34.3620 0.0000
# 6 0.0000 0.0000 0.0000 0.0000 0.0000 37.4649
#
#
#
# Elastic Compliance Matrix: (Units=1/GPa)
#
#
# Indices 1 2 3 4 5 6 
#
# 1 0.025686 -0.004506 -0.002004 0.000000 0.000000 0.000000
# 2 -0.004506 0.012279 0.000006 0.000000 0.000000 0.000000
# 3 -0.002004 0.000006 0.011139 0.000000 0.000000 0.000000
# 4 0.000000 0.000000 0.000000 0.036935 0.000000 0.000000
# 5 0.000000 0.000000 0.000000 0.000000 0.029102 0.000000
# 6 0.000000 0.000000 0.000000 0.000000 0.000000 0.026692
#
#
# Mechanical properties :
#
#
# Convention : Reuss Voigt Hill
#
# Bulk Modulus (GPa) = 27.70420 30.24119 28.97269
# Shear Modulus (GPa) = 29.96324 32.75929 31.36127
#
# Velocity S-wave (km/s) = 3.67424 3.84185 3.75898
# Velocity P-wave (km/s) = 5.52108 5.77105 5.64745
#
# Compressibility (1/GPa) = 0.03609562
#
# Stress axis : x y z
#
# Youngs Moduli (GPa) = 38.93193 81.44191 89.77828
#
# Poissons Ratio (x) = 0.36697 0.17994
# Poissons Ratio (y) = 0.17542 -0.00058
# Poissons Ratio (z) = 0.07803 -0.00052
#
# Static dielectric constant tensor:
#      x y z
#    x 1.841350 0.000000 0.000000 
#    y 0.000000 1.837270 0.000000 
#    z 0.000000 0.000000 1.832570 
# 
# From -- ./inp_files/23131.got.cif
#   From: 2010.05.17/outbox.cif.g08.bks.cpg/sg20_12_cif.got.tgz:23131.got - 2010.06.03 22:52:26.
