data_PCOD9319140
_publ_section_title
;
Structure prediction by ZEFSAII (Michael W. Deem and Ramdas Pophale) SiO2 
 PCOD9319140
Probable space group: C 2 2 21
;
_chemical_formula_sum "Si O2"
_cell_formula_units_Z 60
_cell_length_a 11.317317
_cell_length_b 7.921495
_cell_length_c 26.786760
_cell_angle_alpha 90.000000
_cell_angle_beta 90.000000
_cell_angle_gamma 90.000000
_cell_volume 2401.434910
_symmetry_space_group_name_H-M "C 2 2 21"
_symmetry_group_IT_number 20
_symmetry_cell_setting 'orthorhombic'
loop_
_space_group_symop_operation_xyz
x,y,z
-x,-y,1/2+z
x,-y,-z
-x,y,1/2-z
1/2+x,1/2+y,z
1/2-x,1/2-y,1/2+z
1/2+x,1/2-y,-z
1/2-x,1/2+y,1/2-z
loop_
_atom_site_type_symbol
_atom_site_label
_atom_site_fract_x
_atom_site_fract_y
_atom_site_fract_z
Si Si1 0.558634 0.500000 0.500000
Si Si2 0.201200 0.474015 0.794637
Si Si3 0.369917 0.658275 0.865157
Si Si4 0.602192 0.535925 0.904279
Si Si5 0.660853 0.829180 0.067257
Si Si6 0.774622 0.314444 0.025317
Si Si7 0.896609 0.295993 0.215196
Si Si8 0.509898 0.001451 0.629843
O O1 0.476495 0.448221 0.454061
O O2 0.625442 0.329215 0.519556
O O3 0.291103 0.614074 0.817267
O O4 0.139471 0.534286 0.744289
O O5 0.281828 0.315072 0.786765
O O6 0.099274 0.445012 0.835124
O O7 0.502557 0.580854 0.863462
O O8 0.284048 0.598300 0.910655
O O9 0.396642 0.854139 0.873954
O O10 0.639986 0.341670 0.900813
O O11 0.717105 0.647376 0.920210
O O12 0.550374 0.947527 0.078199
O O13 0.678060 0.772747 0.011127
O O14 0.800777 0.500000 0.000000
O O15 0.000000 0.219833 0.250000
O O16 0.939171 0.340454 0.160099
#
# Coordination Sequence:
#
# PCOD9319140 Si02
#       8
#     4   8   8   8   8   8   8   8
#     4  12  22  42  64  82 124 160 202 268 316 368
#     4  10  22  39  62  90 126 152 209 246 298 380
#     4  11  23  38  60  90 120 160 201 253 309 371
#     4  11  23  41  59  88 120 156 209 261 310 377
#     4  10  21  40  55  84 120 148 205 255 294 375
#     4  10  23  41  59  90 118 157 213 258 316 387
#     4  10  21  40  62  89 121 162 193 249 305 357
#     4  10  23  38  59  89 120 160 199 247 309 365
#
# _framework density 24.985063
#
# number of rings (size 3 to 8) (size 9 to 14) (size 15 to 20)
#    0.000    1.600    3.333    1.600    1.867    4.267 
#    1.200    0.000    0.000    0.000    0.000    0.000 
#    0.000    0.000    0.000    0.000    0.000    0.000 
#
# Total GULP energy -167714.459750 kJ/mol
# GULP energy per Si atom -5590.481992 kJ/mol
# Density = 2.492820 g / cm^3
# Si number density = 24.985063 Si / 1000 Ang^3
#
#
#
# Elastic Constant Matrix: (Units=GPa)
#
#
# Indices 1 2 3 4 5 6 
#
# 1 110.8894 29.1776 17.7560 0.0000 0.0000 0.0000
# 2 29.1776 54.6863 7.9019 0.0000 0.0000 0.0000
# 3 17.7560 7.9019 33.4112 0.0000 0.0000 0.0000
# 4 0.0000 0.0000 0.0000 14.3453 0.0000 0.0000
# 5 0.0000 0.0000 0.0000 0.0000 27.8715 0.0000
# 6 0.0000 0.0000 0.0000 0.0000 0.0000 58.3235
#
#
#
# Elastic Compliance Matrix: (Units=1/GPa)
#
#
# Indices 1 2 3 4 5 6 
#
# 1 0.011156 -0.005276 -0.004681 0.000000 0.000000 0.000000
# 2 -0.005276 0.021428 -0.002264 0.000000 0.000000 0.000000
# 3 -0.004681 -0.002264 0.032953 0.000000 0.000000 0.000000
# 4 0.000000 0.000000 0.000000 0.069709 0.000000 0.000000
# 5 0.000000 0.000000 0.000000 0.000000 0.035879 0.000000
# 6 0.000000 0.000000 0.000000 0.000000 0.000000 0.017146
#
#
# Mechanical properties :
#
#
# Convention : Reuss Voigt Hill
#
# Bulk Modulus (GPa) = 24.33349 34.29532 29.31441
# Shear Modulus (GPa) = 22.08379 29.71816 25.90097
#
# Velocity S-wave (km/s) = 2.97624 3.45256 3.22321
# Velocity P-wave (km/s) = 4.64446 5.44516 5.06067
#
# Compressibility (1/GPa) = 0.04109562
#
# Stress axis : x y z
#
# Youngs Moduli (GPa) = 89.64053 46.66773 30.34612
#
# Poissons Ratio (x) = 0.24620 0.14205
# Poissons Ratio (y) = 0.47292 0.06871
# Poissons Ratio (z) = 0.41959 0.10566
#
# Static dielectric constant tensor:
#      x y z
#    x 2.009160 0.000000 0.000000 
#    y 0.000000 2.001760 0.000000 
#    z 0.000000 0.000000 2.011810 
# 
# From -- ./inp_files/31176.got.cif
#   From: 2010.05.17/outbox.cif.g08.bks.cpg/sg20_16_cif.got.tgz:31176.got - 2010.06.03 22:52:26.
