data_PCOD9319363
_publ_section_title
;
Structure prediction by ZEFSAII (Michael W. Deem and Ramdas Pophale) SiO2 
 PCOD9319363
Probable space group: C 2 2 21
;
_chemical_formula_sum "Si O2"
_cell_formula_units_Z 32
_cell_length_a 15.068002
_cell_length_b 11.107112
_cell_length_c 8.564301
_cell_angle_alpha 90.000000
_cell_angle_beta 90.000000
_cell_angle_gamma 90.000000
_cell_volume 1433.338423
_symmetry_space_group_name_H-M "C 2 2 21"
_symmetry_group_IT_number 20
_symmetry_cell_setting 'orthorhombic'
loop_
_space_group_symop_operation_xyz
x,y,z
-x,-y,1/2+z
x,-y,-z
-x,y,1/2-z
1/2+x,1/2+y,z
1/2-x,1/2-y,1/2+z
1/2+x,1/2-y,-z
1/2-x,1/2+y,1/2-z
loop_
_atom_site_type_symbol
_atom_site_label
_atom_site_fract_x
_atom_site_fract_y
_atom_site_fract_z
Si Si1 0.077327 0.500000 0.000000
Si Si2 0.484985 0.500000 0.000000
Si Si3 0.412906 0.842551 0.919382
Si Si4 0.676825 0.923524 0.289814
Si Si5 0.615088 0.400512 0.230789
O O1 0.138268 0.424241 0.116235
O O2 0.009367 0.594597 0.079257
O O3 0.419405 0.493256 0.849384
O O4 0.556610 0.594130 0.926904
O O5 0.403334 0.720189 0.827761
O O6 0.347124 0.941812 0.846758
O O7 0.379142 0.835032 0.098426
O O8 0.781095 0.905862 0.300647
#
# Coordination Sequence:
#
# PCOD9319363 Si02
#       5
#     4   4   8   8   8
#     4  10  21  41  72 108 134 174 242 303 339 444
#     4  10  25  43  64  92 144 190 246 277 359 442
#     4  10  22  43  71  99 142 184 223 301 374 411
#     4  10  22  42  71 108 134 172 253 293 343 445
#     4  11  24  46  65 101 145 195 231 303 359 432
#
# _framework density 22.325503000000001
#
# number of rings (size 3 to 8) (size 9 to 14) (size 15 to 20)
#    0.000    2.000    0.000    5.250    7.000    4.000 
#   13.500    0.000    0.000    0.000    0.000    0.000 
#    0.000    0.000    0.000    0.000    0.000    0.000 
#
# Total GULP energy -89220.191468 kJ/mol
# GULP energy per Si atom -5576.261967 kJ/mol
# Density = 2.227469 g / cm^3
# Si number density = 22.325503 Si / 1000 Ang^3
#
#
#
# Elastic Constant Matrix: (Units=GPa)
#
#
# Indices 1 2 3 4 5 6 
#
# 1 117.1454 15.8032 -7.7637 0.0000 0.0000 0.0000
# 2 15.8032 86.9227 31.7810 0.0000 0.0000 0.0000
# 3 -7.7637 31.7810 56.4580 0.0000 0.0000 0.0000
# 4 0.0000 0.0000 0.0000 50.2742 0.0000 0.0000
# 5 0.0000 0.0000 0.0000 0.0000 30.5694 0.0000
# 6 0.0000 0.0000 0.0000 0.0000 0.0000 9.0565
#
#
#
# Elastic Compliance Matrix: (Units=1/GPa)
#
#
# Indices 1 2 3 4 5 6 
#
# 1 0.009076 -0.002652 0.002741 0.000000 0.000000 0.000000
# 2 -0.002652 0.015261 -0.008955 0.000000 0.000000 0.000000
# 3 0.002741 -0.008955 0.023130 0.000000 0.000000 0.000000
# 4 0.000000 0.000000 0.000000 0.019891 0.000000 0.000000
# 5 0.000000 0.000000 0.000000 0.000000 0.032712 0.000000
# 6 0.000000 0.000000 0.000000 0.000000 0.000000 0.110419
#
#
# Mechanical properties :
#
#
# Convention : Reuss Voigt Hill
#
# Bulk Modulus (GPa) = 33.63150 37.79635 35.71392
# Shear Modulus (GPa) = 20.99663 32.69372 26.84518
#
# Velocity S-wave (km/s) = 3.07005 3.83091 3.47139
# Velocity P-wave (km/s) = 5.25964 6.04436 5.66560
#
# Compressibility (1/GPa) = 0.02973403
#
# Stress axis : x y z
#
# Youngs Moduli (GPa) = 110.18247 65.52666 43.23329
#
# Poissons Ratio (x) = 0.17379 -0.11850
# Poissons Ratio (y) = 0.29223 0.38717
# Poissons Ratio (z) = -0.30202 0.58681
#
# Static dielectric constant tensor:
#      x y z
#    x 1.797570 0.000000 0.000000 
#    y 0.000000 1.834450 0.000000 
#    z 0.000000 0.000000 1.983000 
# 
# From -- ./inp_files/7868.got.cif
#   From: 2010.05.17/outbox.cif.g08.bks.cpg/sg20_4_cif.got.tgz:7868.got - 2010.06.03 22:52:26.
