data_PCOD9319238
_publ_section_title
;
Structure prediction by ZEFSAII (Michael W. Deem and Ramdas Pophale) SiO2 
 PCOD9319238
Probable space group: C 2 2 21
;
_chemical_formula_sum "Si O2"
_cell_formula_units_Z 64
_cell_length_a 17.955437
_cell_length_b 8.622886
_cell_length_c 19.818062
_cell_angle_alpha 90.000000
_cell_angle_beta 90.000000
_cell_angle_gamma 90.000000
_cell_volume 3068.384687
_symmetry_space_group_name_H-M "C 2 2 21"
_symmetry_group_IT_number 20
_symmetry_cell_setting 'orthorhombic'
loop_
_space_group_symop_operation_xyz
x,y,z
-x,-y,1/2+z
x,-y,-z
-x,y,1/2-z
1/2+x,1/2+y,z
1/2-x,1/2-y,1/2+z
1/2+x,1/2-y,-z
1/2-x,1/2+y,1/2-z
loop_
_atom_site_type_symbol
_atom_site_label
_atom_site_fract_x
_atom_site_fract_y
_atom_site_fract_z
Si Si1 0.323312 0.781659 0.261030
Si Si2 0.273448 0.726272 0.052334
Si Si3 0.701481 0.516977 0.666590
Si Si4 0.517742 0.673601 0.005147
Si Si5 0.125622 0.385084 0.937051
Si Si6 0.448435 0.852426 0.358179
Si Si7 0.380912 0.947864 0.137100
Si Si8 0.129664 0.216998 0.570902
O O1 0.308050 0.620102 0.221462
O O2 0.255913 0.847067 0.306908
O O3 0.400387 0.765859 0.301902
O O4 0.336554 0.917717 0.206030
O O5 0.272636 0.572174 0.098868
O O6 0.185765 0.754739 0.062072
O O7 0.334792 0.838119 0.085409
O O8 0.295061 0.713836 0.974180
O O9 0.629431 0.601391 0.634884
O O10 0.540257 0.744270 0.076659
O O11 0.546452 0.500000 0.000000
O O12 0.549832 0.796182 0.952573
O O13 0.431320 0.671835 0.984808
O O14 0.104177 0.499078 0.876031
O O15 0.143256 0.500000 0.000000
O O16 0.533629 0.903318 0.345559
O O17 0.380337 0.114087 0.102375
#
# Coordination Sequence:
#
# PCOD9319238 Si02
#       8
#     8   8   8   8   8   8   8   8
#     4  11  25  46  71  98 141 187 246 281 352 432
#     4  11  22  39  70 105 134 179 234 294 358 424
#     4  11  24  44  68 102 138 185 228 299 352 422
#     4  11  24  40  65 102 143 177 230 298 356 423
#     4  10  21  40  67  98 139 183 227 284 369 421
#     4  11  22  46  72  95 139 191 234 287 357 435
#     4  11  24  42  70 102 137 189 235 288 349 435
#     4  12  23  41  70 103 142 177 236 296 366 421
#
# _framework density 20.857880999999999
#
# number of rings (size 3 to 8) (size 9 to 14) (size 15 to 20)
#    0.000    1.000    3.750    3.375    3.500    1.000 
#    4.500    0.000    0.000    0.000    0.000    0.000 
#    0.000    0.000    0.000    0.000    0.000    0.000 
#
# Total GULP energy -178203.139477 kJ/mol
# GULP energy per Si atom -5568.848109 kJ/mol
# Density = 2.081041 g / cm^3
# Si number density = 20.857881 Si / 1000 Ang^3
#
#
#
# Elastic Constant Matrix: (Units=GPa)
#
#
# Indices 1 2 3 4 5 6 
#
# 1 68.1508 22.0271 20.0697 0.0000 0.0000 0.0000
# 2 22.0271 68.4391 36.5082 0.0000 0.0000 0.0000
# 3 20.0697 36.5082 69.2581 0.0000 0.0000 0.0000
# 4 0.0000 0.0000 0.0000 24.6903 0.0000 0.0000
# 5 0.0000 0.0000 0.0000 0.0000 30.6066 0.0000
# 6 0.0000 0.0000 0.0000 0.0000 0.0000 14.8389
#
#
#
# Elastic Compliance Matrix: (Units=1/GPa)
#
#
# Indices 1 2 3 4 5 6 
#
# 1 0.016759 -0.003900 -0.002801 0.000000 0.000000 0.000000
# 2 -0.003900 0.021235 -0.010064 0.000000 0.000000 0.000000
# 3 -0.002801 -0.010064 0.020555 0.000000 0.000000 0.000000
# 4 0.000000 0.000000 0.000000 0.040502 0.000000 0.000000
# 5 0.000000 0.000000 0.000000 0.000000 0.032673 0.000000
# 6 0.000000 0.000000 0.000000 0.000000 0.000000 0.067391
#
#
# Mechanical properties :
#
#
# Convention : Reuss Voigt Hill
#
# Bulk Modulus (GPa) = 39.96683 40.33979 40.15331
# Shear Modulus (GPa) = 20.74846 22.51003 21.62924
#
# Velocity S-wave (km/s) = 3.15739 3.28870 3.22371
# Velocity P-wave (km/s) = 5.70046 5.81403 5.75753
#
# Compressibility (1/GPa) = 0.02502075
#
# Stress axis : x y z
#
# Youngs Moduli (GPa) = 59.67107 47.09212 48.64967
#
# Poissons Ratio (x) = 0.18365 0.13625
# Poissons Ratio (y) = 0.23270 0.48959
# Poissons Ratio (z) = 0.16712 0.47391
#
# Static dielectric constant tensor:
#      x y z
#    x 1.932940 0.000000 0.000000 
#    y 0.000000 1.752630 0.000000 
#    z 0.000000 0.000000 1.755420 
# 
# From -- ./inp_files/27773.got.cif
#   From: 2010.05.17/outbox.cif.g08.bks.cpg/sg20_14_cif.got.tgz:27773.got - 2010.06.03 22:52:26.
