data_PCOD9319491
_publ_section_title
;
Structure prediction by ZEFSAII (Michael W. Deem and Ramdas Pophale) SiO2 
 PCOD9319491
Probable space group: C 2 2 21
;
_chemical_formula_sum "Si O2"
_cell_formula_units_Z 40
_cell_length_a 12.871949
_cell_length_b 10.816115
_cell_length_c 11.566614
_cell_angle_alpha 90.000000
_cell_angle_beta 90.000000
_cell_angle_gamma 90.000000
_cell_volume 1610.355827
_symmetry_space_group_name_H-M "C 2 2 21"
_symmetry_group_IT_number 20
_symmetry_cell_setting 'orthorhombic'
loop_
_space_group_symop_operation_xyz
x,y,z
-x,-y,1/2+z
x,-y,-z
-x,y,1/2-z
1/2+x,1/2+y,z
1/2-x,1/2-y,1/2+z
1/2+x,1/2-y,-z
1/2-x,1/2+y,1/2-z
loop_
_atom_site_type_symbol
_atom_site_label
_atom_site_fract_x
_atom_site_fract_y
_atom_site_fract_z
Si Si1 0.199374 0.341065 0.108533
Si Si2 0.500000 0.381368 0.250000
Si Si3 0.404867 0.894216 0.174163
Si Si4 0.971238 0.500000 0.500000
Si Si5 0.882567 0.071876 0.391241
Si Si6 0.916436 0.812452 0.011631
O O1 0.183307 0.409595 0.231360
O O2 0.182538 0.195161 0.134468
O O3 0.105100 0.386468 0.026578
O O4 0.305773 0.369347 0.045453
O O5 0.408372 0.474261 0.291508
O O6 0.530957 0.302512 0.361871
O O7 0.500000 0.838334 0.250000
O O8 0.384861 0.803234 0.068312
O O9 0.455932 0.011610 0.112010
O O10 0.997394 0.115010 0.436610
O O11 0.832740 0.000000 0.500000
#
# Coordination Sequence:
#
# PCOD9319491 Si02
#       6
#     8   4   8   4   8   8
#     4  11  24  45  72 105 141 191 237 293 360 424
#     4  10  24  42  68 102 138 194 224 290 352 426
#     4  10  21  47  70  97 143 190 222 304 364 407
#     4  10  22  44  72  92 138 194 236 286 358 414
#     4  10  21  43  68  96 147 186 226 288 354 413
#     4  11  23  45  74 105 142 184 244 286 359 433
#
# _framework density 24.839231000000002
#
# number of rings (size 3 to 8) (size 9 to 14) (size 15 to 20)
#    0.000    1.600    4.000    1.200    4.200    3.200 
#   10.800    0.000    0.000    0.000    0.000    0.000 
#    0.000    0.000    0.000    0.000    0.000    0.000 
#
# Total GULP energy -111673.003489 kJ/mol
# GULP energy per Si atom -5583.650174 kJ/mol
# Density = 2.478270 g / cm^3
# Si number density = 24.839231 Si / 1000 Ang^3
#
#
#
# Elastic Constant Matrix: (Units=GPa)
#
#
# Indices 1 2 3 4 5 6 
#
# 1 116.0360 14.9860 43.7670 0.0000 0.0000 0.0000
# 2 14.9860 78.7746 36.6222 0.0000 0.0000 0.0000
# 3 43.7670 36.6222 163.1692 0.0000 0.0000 0.0000
# 4 0.0000 0.0000 0.0000 41.9118 0.0000 0.0000
# 5 0.0000 0.0000 0.0000 0.0000 21.3465 0.0000
# 6 0.0000 0.0000 0.0000 0.0000 0.0000 11.1977
#
#
#
# Elastic Compliance Matrix: (Units=1/GPa)
#
#
# Indices 1 2 3 4 5 6 
#
# 1 0.009623 -0.000704 -0.002423 0.000000 0.000000 0.000000
# 2 -0.000704 0.014225 -0.003004 0.000000 0.000000 0.000000
# 3 -0.002423 -0.003004 0.007453 0.000000 0.000000 0.000000
# 4 0.000000 0.000000 0.000000 0.023860 0.000000 0.000000
# 5 0.000000 0.000000 0.000000 0.000000 0.046846 0.000000
# 6 0.000000 0.000000 0.000000 0.000000 0.000000 0.089304
#
#
# Mechanical properties :
#
#
# Convention : Reuss Voigt Hill
#
# Bulk Modulus (GPa) = 52.52544 60.97004 56.74774
# Shear Modulus (GPa) = 23.81873 32.39816 28.10845
#
# Velocity S-wave (km/s) = 3.10000 3.61545 3.36760
# Velocity P-wave (km/s) = 5.83141 6.48288 6.16576
#
# Compressibility (1/GPa) = 0.01903839
#
# Stress axis : x y z
#
# Youngs Moduli (GPa) = 103.91859 70.29939 134.17872
#
# Poissons Ratio (x) = 0.04950 0.32513
# Poissons Ratio (y) = 0.07317 0.40305
# Poissons Ratio (z) = 0.25181 0.21117
#
# Static dielectric constant tensor:
#      x y z
#    x 2.013850 0.000000 0.000000 
#    y 0.000000 2.072310 0.000000 
#    z 0.000000 0.000000 1.954150 
# 
# From -- ./inp_files/14885.got.cif
#   From: 2010.05.17/outbox.cif.g08.bks.cpg/sg20_8_cif.got.tgz:14885.got - 2010.06.03 22:52:26.
