data_PCOD9319086
_publ_section_title
;
Structure prediction by ZEFSAII (Michael W. Deem and Ramdas Pophale) SiO2 
 PCOD9319086
Probable space group: C 2 2 21
;
_chemical_formula_sum "Si O2"
_cell_formula_units_Z 64
_cell_length_a 23.140629
_cell_length_b 10.200477
_cell_length_c 14.175032
_cell_angle_alpha 90.000000
_cell_angle_beta 90.000000
_cell_angle_gamma 90.000000
_cell_volume 3345.951862
_symmetry_space_group_name_H-M "C 2 2 21"
_symmetry_group_IT_number 20
_symmetry_cell_setting 'orthorhombic'
loop_
_space_group_symop_operation_xyz
x,y,z
-x,-y,1/2+z
x,-y,-z
-x,y,1/2-z
1/2+x,1/2+y,z
1/2-x,1/2-y,1/2+z
1/2+x,1/2-y,-z
1/2-x,1/2+y,1/2-z
loop_
_atom_site_type_symbol
_atom_site_label
_atom_site_fract_x
_atom_site_fract_y
_atom_site_fract_z
Si Si1 0.383709 0.522763 0.891690
Si Si2 0.685304 0.929255 0.829923
Si Si3 0.808197 0.188139 0.189883
Si Si4 0.724361 0.145384 0.522078
Si Si5 0.585322 0.847395 0.969651
Si Si6 0.821607 0.725645 0.601349
Si Si7 0.518580 0.714054 0.641665
Si Si8 0.640403 0.194157 0.358323
O O1 0.365585 0.389222 0.841496
O O2 0.449386 0.578496 0.888881
O O3 0.350315 0.647948 0.845701
O O4 0.366860 0.500000 0.000000
O O5 0.751948 0.892921 0.840248
O O6 0.637397 0.856324 0.893530
O O7 0.668030 0.890737 0.723774
O O8 0.681620 0.077069 0.863640
O O9 0.810342 0.197245 0.302296
O O10 0.795116 0.319429 0.128422
O O11 0.772835 0.239218 0.475525
O O12 0.667740 0.160865 0.457962
O O13 0.746696 0.000000 0.500000
O O14 0.532246 0.769939 0.923200
O O15 0.614863 0.766925 0.055102
O O16 0.572104 0.000000 0.000000
O O17 0.500000 0.699698 0.750000
O O18 0.428507 0.817615 0.860075
#
# Coordination Sequence:
#
# PCOD9319086 Si02
#       8
#     8   8   8   8   8   8   8   8
#     4  10  22  41  64  89 127 179 226 265 334 412
#     4  11  21  37  69  95 133 173 221 271 337 412
#     4  12  23  38  65  91 140 176 210 276 339 408
#     4  12  24  40  61  96 135 177 223 273 341 410
#     4  10  21  42  67  97 126 172 223 279 343 391
#     4  11  25  39  60 104 136 170 221 284 342 400
#     4  10  21  42  68  92 125 172 234 277 328 411
#     4  10  21  39  65  92 126 167 232 260 330 406
#
# _framework density 19.127590999999999
#
# number of rings (size 3 to 8) (size 9 to 14) (size 15 to 20)
#    0.750    0.500    5.000    1.500    0.000    0.500 
#    4.500    0.000    0.000    0.000    0.000    0.000 
#    0.000    0.000    0.000    0.000    0.000    0.000 
#
# Total GULP energy -178162.824582 kJ/mol
# GULP energy per Si atom -5567.588268 kJ/mol
# Density = 1.908406 g / cm^3
# Si number density = 19.127591 Si / 1000 Ang^3
#
#
#
# Elastic Constant Matrix: (Units=GPa)
#
#
# Indices 1 2 3 4 5 6 
#
# 1 79.2497 40.2174 25.5159 0.0000 0.0000 0.0000
# 2 40.2174 53.8534 24.5362 0.0000 0.0000 0.0000
# 3 25.5159 24.5362 78.6934 0.0000 0.0000 0.0000
# 4 0.0000 0.0000 0.0000 23.2851 0.0000 0.0000
# 5 0.0000 0.0000 0.0000 0.0000 23.2125 0.0000
# 6 0.0000 0.0000 0.0000 0.0000 0.0000 13.0932
#
#
#
# Elastic Compliance Matrix: (Units=1/GPa)
#
#
# Indices 1 2 3 4 5 6 
#
# 1 0.020640 -0.014412 -0.002199 0.000000 0.000000 0.000000
# 2 -0.014412 0.031707 -0.005213 0.000000 0.000000 0.000000
# 3 -0.002199 -0.005213 0.015046 0.000000 0.000000 0.000000
# 4 0.000000 0.000000 0.000000 0.042946 0.000000 0.000000
# 5 0.000000 0.000000 0.000000 0.000000 0.043080 0.000000
# 6 0.000000 0.000000 0.000000 0.000000 0.000000 0.076375
#
#
# Mechanical properties :
#
#
# Convention : Reuss Voigt Hill
#
# Bulk Modulus (GPa) = 42.11405 43.59284 42.85344
# Shear Modulus (GPa) = 17.77098 20.01994 18.89546
#
# Velocity S-wave (km/s) = 3.05138 3.23871 3.14644
# Velocity P-wave (km/s) = 5.87195 6.06842 5.97099
#
# Compressibility (1/GPa) = 0.02374505
#
# Stress axis : x y z
#
# Youngs Moduli (GPa) = 48.44927 31.53880 66.46332
#
# Poissons Ratio (x) = 0.45454 0.14614
# Poissons Ratio (y) = 0.69826 0.34647
# Poissons Ratio (z) = 0.10653 0.16441
#
# Static dielectric constant tensor:
#      x y z
#    x 1.665430 0.000000 0.000000 
#    y 0.000000 1.730990 0.000000 
#    z 0.000000 0.000000 1.692530 
# 
# From -- ./inp_files/22063.got.cif
#   From: 2010.05.17/outbox.cif.g08.bks.cpg/sg20_12_cif.got.tgz:22063.got - 2010.06.03 22:52:26.
