data_PCOD9319162
_publ_section_title
;
Structure prediction by ZEFSAII (Michael W. Deem and Ramdas Pophale) SiO2 
 PCOD9319162
Probable space group: C 2 2 21
;
_chemical_formula_sum "Si O2"
_cell_formula_units_Z 60
_cell_length_a 10.615326
_cell_length_b 8.931589
_cell_length_c 30.589695
_cell_angle_alpha 90.000000
_cell_angle_beta 90.000000
_cell_angle_gamma 90.000000
_cell_volume 2900.261870
_symmetry_space_group_name_H-M "C 2 2 21"
_symmetry_group_IT_number 20
_symmetry_cell_setting 'orthorhombic'
loop_
_space_group_symop_operation_xyz
x,y,z
-x,-y,1/2+z
x,-y,-z
-x,y,1/2-z
1/2+x,1/2+y,z
1/2-x,1/2-y,1/2+z
1/2+x,1/2-y,-z
1/2-x,1/2+y,1/2-z
loop_
_atom_site_type_symbol
_atom_site_label
_atom_site_fract_x
_atom_site_fract_y
_atom_site_fract_z
Si Si1 0.500000 0.448511 0.750000
Si Si2 0.823649 0.226125 0.747230
Si Si3 0.960864 0.635600 0.410575
Si Si4 0.321090 0.946482 0.049607
Si Si5 0.460205 0.451591 0.449593
Si Si6 0.415689 0.222952 0.813915
Si Si7 0.174050 0.860431 0.594121
Si Si8 0.970537 0.375644 0.815753
O O1 0.381797 0.560895 0.753804
O O2 0.508597 0.345520 0.792985
O O3 0.691185 0.215528 0.723697
O O4 0.844166 0.313817 0.792647
O O5 0.915254 0.316248 0.714037
O O6 0.817291 0.579797 0.405413
O O7 0.061391 0.514252 0.425128
O O8 0.006423 0.691319 0.363318
O O9 0.964876 0.772888 0.444256
O O10 0.181585 0.996513 0.065432
O O11 0.326787 0.769664 0.057437
O O12 0.330037 0.000000 0.000000
O O13 0.475289 0.500000 0.500000
O O14 0.568271 0.522880 0.419959
O O15 0.359064 0.283467 0.859413
O O16 0.469113 0.055595 0.818646
#
# Coordination Sequence:
#
# PCOD9319162 Si02
#       8
#     4   8   8   8   8   8   8   8
#     4  10  24  36  62  88 112 166 208 250 302 376
#     4  10  23  42  61  84 123 162 206 257 314 366
#     4  11  22  42  64  95 127 168 208 262 320 380
#     4  10  22  43  67  92 126 167 210 260 325 384
#     4  10  24  43  64  94 130 167 211 267 320 382
#     4  12  22  41  60  91 124 161 211 258 309 368
#     4  11  24  38  66  94 130 161 211 266 309 381
#     4  10  21  40  62  86 125 165 202 256 315 371
#
# _framework density 20.687788000000001
#
# number of rings (size 3 to 8) (size 9 to 14) (size 15 to 20)
#    0.000    1.600    2.667    2.400    3.733    1.600 
#    2.400    0.000    0.000    0.000    0.000    0.000 
#    0.000    0.000    0.000    0.000    0.000    0.000 
#
# Total GULP energy -167510.320917 kJ/mol
# GULP energy per Si atom -5583.677364 kJ/mol
# Density = 2.064070 g / cm^3
# Si number density = 20.687788 Si / 1000 Ang^3
#
#
#
# Elastic Constant Matrix: (Units=GPa)
#
#
# Indices 1 2 3 4 5 6 
#
# 1 89.0259 32.8612 19.4765 0.0000 0.0000 0.0000
# 2 32.8612 71.3704 -1.4836 0.0000 0.0000 0.0000
# 3 19.4765 -1.4836 27.1218 0.0000 0.0000 0.0000
# 4 0.0000 0.0000 0.0000 27.9880 0.0000 0.0000
# 5 0.0000 0.0000 0.0000 0.0000 30.0874 0.0000
# 6 0.0000 0.0000 0.0000 0.0000 0.0000 23.0003
#
#
#
# Elastic Compliance Matrix: (Units=1/GPa)
#
#
# Indices 1 2 3 4 5 6 
#
# 1 0.016980 -0.008081 -0.012635 0.000000 0.000000 0.000000
# 2 -0.008081 0.017873 0.006780 0.000000 0.000000 0.000000
# 3 -0.012635 0.006780 0.046315 0.000000 0.000000 0.000000
# 4 0.000000 0.000000 0.000000 0.035730 0.000000 0.000000
# 5 0.000000 0.000000 0.000000 0.000000 0.033237 0.000000
# 6 0.000000 0.000000 0.000000 0.000000 0.000000 0.043478
#
#
# Mechanical properties :
#
#
# Convention : Reuss Voigt Hill
#
# Bulk Modulus (GPa) = 18.76287 32.13625 25.44956
# Shear Modulus (GPa) = 20.89880 25.32606 23.11243
#
# Velocity S-wave (km/s) = 3.18181 3.50266 3.34608
# Velocity P-wave (km/s) = 4.75266 5.65029 5.22080
#
# Compressibility (1/GPa) = 0.05329676
#
# Stress axis : x y z
#
# Youngs Moduli (GPa) = 58.89394 55.95058 21.59119
#
# Poissons Ratio (x) = 0.45212 0.27281
# Poissons Ratio (y) = 0.47590 -0.14640
# Poissons Ratio (z) = 0.74414 -0.37937
#
# Static dielectric constant tensor:
#      x y z
#    x 1.772860 0.000000 0.000000 
#    y 0.000000 1.732120 0.000000 
#    z 0.000000 0.000000 1.762470 
# 
# From -- ./inp_files/31173.got.cif
#   From: 2010.05.17/outbox.cif.g08.bks.cpg/sg20_16_cif.got.tgz:31173.got - 2010.06.03 22:52:26.
