data_PCOD9319206
_publ_section_title
;
Structure prediction by ZEFSAII (Michael W. Deem and Ramdas Pophale) SiO2 
 PCOD9319206
Probable space group: C 2 2 21
;
_chemical_formula_sum "Si O2"
_cell_formula_units_Z 56
_cell_length_a 17.997164
_cell_length_b 32.389311
_cell_length_c 5.059924
_cell_angle_alpha 90.000000
_cell_angle_beta 90.000000
_cell_angle_gamma 90.000000
_cell_volume 2949.509352
_symmetry_space_group_name_H-M "C 2 2 21"
_symmetry_group_IT_number 20
_symmetry_cell_setting 'orthorhombic'
loop_
_space_group_symop_operation_xyz
x,y,z
-x,-y,1/2+z
x,-y,-z
-x,y,1/2-z
1/2+x,1/2+y,z
1/2-x,1/2-y,1/2+z
1/2+x,1/2-y,-z
1/2-x,1/2+y,1/2-z
loop_
_atom_site_type_symbol
_atom_site_label
_atom_site_fract_x
_atom_site_fract_y
_atom_site_fract_z
Si Si1 0.086443 0.659352 0.753780
Si Si2 0.176062 0.147443 0.314005
Si Si3 0.767852 0.727583 0.280757
Si Si4 0.426069 0.763926 0.591836
Si Si5 0.835406 0.383377 0.752277
Si Si6 0.582573 0.334769 0.156503
Si Si7 0.087295 0.471067 0.749147
O O1 0.132890 0.641661 0.506639
O O2 0.000000 0.645362 0.750000
O O3 0.081210 0.708405 0.828160
O O4 0.127587 0.639346 0.003644
O O5 0.218024 0.188910 0.217306
O O6 0.246215 0.116852 0.294824
O O7 0.139060 0.156854 0.598763
O O8 0.112176 0.140702 0.097886
O O9 0.759358 0.736413 0.590453
O O10 0.854702 0.724395 0.235125
O O11 0.500000 0.775715 0.750000
O O12 0.423267 0.714052 0.571465
O O13 0.865100 0.429798 0.762835
O O14 0.500000 0.346208 0.250000
O O15 0.100772 0.500000 0.500000
O O16 0.000000 0.459071 0.750000
O O17 0.101686 0.500000 0.000000
#
# Coordination Sequence:
#
# PCOD9319206 Si02
#       7
#     8   8   8   8   8   8   8
#     4  12  25  37  54  83 123 163 204 256 305 342
#     4  12  23  40  60  84 113 150 196 258 312 359
#     4  12  23  38  56  76 108 152 203 259 312 356
#     4  11  24  39  54  78 111 160 214 259 305 352
#     4  12  25  40  62  91 122 157 203 251 298 358
#     4  11  25  42  60  81 112 155 208 260 310 366
#     4  10  21  40  65  91 125 165 197 228 278 351
#
# _framework density 18.986208000000001
#
# number of rings (size 3 to 8) (size 9 to 14) (size 15 to 20)
#    0.000    0.571    4.286    4.286    2.000    4.571 
#    0.000    0.000    0.000    0.000    0.000    0.000 
#    0.000   11.429    0.000    0.000    0.000    0.000 
#
# Total GULP energy -156385.903092 kJ/mol
# GULP energy per Si atom -5585.210825 kJ/mol
# Density = 1.894299 g / cm^3
# Si number density = 18.986208 Si / 1000 Ang^3
#
#
#
# Elastic Constant Matrix: (Units=GPa)
#
#
# Indices 1 2 3 4 5 6 
#
# 1 114.2747 43.7855 34.6796 0.0000 0.0000 0.0000
# 2 43.7855 80.6580 33.8952 0.0000 0.0000 0.0000
# 3 34.6796 33.8952 127.4505 0.0000 0.0000 0.0000
# 4 0.0000 0.0000 0.0000 9.9667 0.0000 0.0000
# 5 0.0000 0.0000 0.0000 0.0000 33.8394 0.0000
# 6 0.0000 0.0000 0.0000 0.0000 0.0000 28.7714
#
#
#
# Elastic Compliance Matrix: (Units=1/GPa)
#
#
# Indices 1 2 3 4 5 6 
#
# 1 0.011342 -0.005472 -0.001631 0.000000 0.000000 0.000000
# 2 -0.005472 0.016598 -0.002925 0.000000 0.000000 0.000000
# 3 -0.001631 -0.002925 0.009068 0.000000 0.000000 0.000000
# 4 0.000000 0.000000 0.000000 0.100334 0.000000 0.000000
# 5 0.000000 0.000000 0.000000 0.000000 0.029551 0.000000
# 6 0.000000 0.000000 0.000000 0.000000 0.000000 0.034757
#
#
# Mechanical properties :
#
#
# Convention : Reuss Voigt Hill
#
# Bulk Modulus (GPa) = 58.99074 60.78929 59.89002
# Shear Modulus (GPa) = 21.99187 28.51704 25.25445
#
# Velocity S-wave (km/s) = 3.40708 3.87975 3.65108
# Velocity P-wave (km/s) = 6.82755 7.22199 7.02753
#
# Compressibility (1/GPa) = 0.01695181
#
# Stress axis : x y z
#
# Youngs Moduli (GPa) = 88.16454 60.24925 110.27836
#
# Poissons Ratio (x) = 0.32967 0.17987
# Poissons Ratio (y) = 0.48242 0.32259
# Poissons Ratio (z) = 0.14380 0.17624
#
# Static dielectric constant tensor:
#      x y z
#    x 1.711410 0.000000 0.000000 
#    y 0.000000 1.648300 0.000000 
#    z 0.000000 0.000000 1.685370 
# 
# From -- ./inp_files/2237.got.cif
#   From: 2010.05.17/outbox.cif.g08.bks.cpg/sg20_2_cif.got.tgz:2237.got - 2010.06.03 22:52:26.
