data_PCOD9319143
_publ_section_title
;
Structure prediction by ZEFSAII (Michael W. Deem and Ramdas Pophale) SiO2 
 PCOD9319143
Probable space group: C 2 2 21
;
_chemical_formula_sum "Si O2"
_cell_formula_units_Z 56
_cell_length_a 24.585398
_cell_length_b 5.092230
_cell_length_c 25.184922
_cell_angle_alpha 90.000000
_cell_angle_beta 90.000000
_cell_angle_gamma 90.000000
_cell_volume 3153.013749
_symmetry_space_group_name_H-M "C 2 2 21"
_symmetry_group_IT_number 20
_symmetry_cell_setting 'orthorhombic'
loop_
_space_group_symop_operation_xyz
x,y,z
-x,-y,1/2+z
x,-y,-z
-x,y,1/2-z
1/2+x,1/2+y,z
1/2-x,1/2-y,1/2+z
1/2+x,1/2-y,-z
1/2-x,1/2+y,1/2-z
loop_
_atom_site_type_symbol
_atom_site_label
_atom_site_fract_x
_atom_site_fract_y
_atom_site_fract_z
Si Si1 0.402395 0.879647 0.377082
Si Si2 0.922255 0.144428 0.846812
Si Si3 0.548810 0.260121 0.464879
Si Si4 0.314813 0.355417 0.217324
Si Si5 0.579213 0.369777 0.054779
Si Si6 0.512215 0.864946 0.310984
Si Si7 0.810185 0.354933 0.290467
O O1 0.410659 0.591056 0.401200
O O2 0.456741 0.931101 0.342390
O O3 0.350505 0.892170 0.339184
O O4 0.397887 0.094844 0.423805
O O5 0.923585 0.240331 0.907556
O O6 0.861797 0.103226 0.825247
O O7 0.950659 0.376213 0.813285
O O8 0.956944 0.877897 0.839042
O O9 0.569937 0.500000 0.500000
O O10 0.484924 0.313748 0.453511
O O11 0.553595 0.000000 0.500000
O O12 0.253563 0.374818 0.194965
O O13 0.320060 0.575215 0.262884
O O14 0.320761 0.075468 0.245966
O O15 0.599670 0.500000 0.000000
O O16 0.500000 0.794045 0.250000
#
# Coordination Sequence:
#
# PCOD9319143 Si02
#       7
#     8   8   8   8   8   8   8
#     4  12  20  37  55  85 114 148 186 229 287 336
#     4  12  22  37  56  83 114 150 184 232 283 335
#     4  11  21  36  55  79 110 148 189 230 274 334
#     4  10  21  40  58  84 112 152 196 227 273 337
#     4  11  22  36  56  80 115 148 190 233 277 341
#     4  12  23  34  52  85 121 147 174 226 290 345
#     4  10  22  38  61  82 113 153 193 231 269 340
#
# _framework density 17.760786
#
# number of rings (size 3 to 8) (size 9 to 14) (size 15 to 20)
#    0.000    0.857    2.857    6.857    0.000    0.000 
#    0.000    0.000    0.000    2.571    0.000    0.000 
#    0.000    0.000    0.000    0.000    0.000    0.000 
#
# Total GULP energy -156470.329047 kJ/mol
# GULP energy per Si atom -5588.226037 kJ/mol
# Density = 1.772036 g / cm^3
# Si number density = 17.760786 Si / 1000 Ang^3
#
#
#
# Elastic Constant Matrix: (Units=GPa)
#
#
# Indices 1 2 3 4 5 6 
#
# 1 88.3879 8.8968 47.0902 0.0000 0.0000 0.0000
# 2 8.8968 69.7869 -0.5132 0.0000 0.0000 0.0000
# 3 47.0902 -0.5132 80.4428 0.0000 0.0000 0.0000
# 4 0.0000 0.0000 0.0000 29.8281 0.0000 0.0000
# 5 0.0000 0.0000 0.0000 0.0000 24.1350 0.0000
# 6 0.0000 0.0000 0.0000 0.0000 0.0000 122.8475
#
#
#
# Elastic Compliance Matrix: (Units=1/GPa)
#
#
# Indices 1 2 3 4 5 6 
#
# 1 0.016776 -0.002211 -0.009834 0.000000 0.000000 0.000000
# 2 -0.002211 0.014621 0.001388 0.000000 0.000000 0.000000
# 3 -0.009834 0.001388 0.018197 0.000000 0.000000 0.000000
# 4 0.000000 0.000000 0.000000 0.033525 0.000000 0.000000
# 5 0.000000 0.000000 0.000000 0.000000 0.041434 0.000000
# 6 0.000000 0.000000 0.000000 0.000000 0.000000 0.008140
#
#
# Mechanical properties :
#
#
# Convention : Reuss Voigt Hill
#
# Bulk Modulus (GPa) = 35.36259 38.84058 37.10158
# Shear Modulus (GPa) = 30.59316 47.57171 39.08244
#
# Velocity S-wave (km/s) = 4.15482 5.18101 4.69603
# Velocity P-wave (km/s) = 6.55518 7.59649 7.09496
#
# Compressibility (1/GPa) = 0.02827847
#
# Stress axis : x y z
#
# Youngs Moduli (GPa) = 59.60976 68.39283 54.95412
#
# Poissons Ratio (x) = 0.15122 0.54044
# Poissons Ratio (y) = 0.13180 -0.07625
# Poissons Ratio (z) = 0.58623 -0.09490
#
# Static dielectric constant tensor:
#      x y z
#    x 1.584230 0.000000 0.000000 
#    y 0.000000 1.606080 0.000000 
#    z 0.000000 0.000000 1.363650 
# 
# From -- ./inp_files/29518.got.cif
#   From: 2010.05.17/outbox.cif.g08.bks.cpg/sg20_15_cif.got.tgz:29518.got - 2010.06.03 22:52:26.
