data_PCOD9319390
_publ_section_title
;
Structure prediction by ZEFSAII (Michael W. Deem and Ramdas Pophale) SiO2 
 PCOD9319390
Probable space group: C 2 2 21
;
_chemical_formula_sum "Si O2"
_cell_formula_units_Z 40
_cell_length_a 15.609858
_cell_length_b 8.200135
_cell_length_c 15.051307
_cell_angle_alpha 90.000000
_cell_angle_beta 90.000000
_cell_angle_gamma 90.000000
_cell_volume 1926.611591
_symmetry_space_group_name_H-M "C 2 2 21"
_symmetry_group_IT_number 20
_symmetry_cell_setting 'orthorhombic'
loop_
_space_group_symop_operation_xyz
x,y,z
-x,-y,1/2+z
x,-y,-z
-x,y,1/2-z
1/2+x,1/2+y,z
1/2-x,1/2-y,1/2+z
1/2+x,1/2-y,-z
1/2-x,1/2+y,1/2-z
loop_
_atom_site_type_symbol
_atom_site_label
_atom_site_fract_x
_atom_site_fract_y
_atom_site_fract_z
Si Si1 0.813767 0.801723 0.715703
Si Si2 0.561595 0.474179 0.669485
Si Si3 0.635009 0.048449 0.284047
Si Si4 0.014625 0.668345 0.124510
Si Si5 0.563806 0.670161 0.046347
O O1 0.847017 0.937619 0.787313
O O2 0.715926 0.839848 0.693815
O O3 0.830900 0.629953 0.762125
O O4 0.870383 0.800472 0.626049
O O5 0.500000 0.420808 0.750000
O O6 0.532050 0.657886 0.647034
O O7 0.530521 0.365719 0.587177
O O8 0.585927 0.122889 0.197714
O O9 0.562637 0.042849 0.360378
O O10 0.056130 0.693386 0.028776
O O11 0.590589 0.500000 0.000000
#
# Coordination Sequence:
#
# PCOD9319390 Si02
#       5
#     8   8   8   8   8
#     4  11  24  41  66 100 129 173 217 267 318 391
#     4   9  17  37  67  86 123 166 208 254 322 380
#     4  11  24  39  66  92 133 173 215 258 327 387
#     4  10  21  42  64  93 128 172 211 268 321 389
#     4   9  21  39  69  94 126 164 217 269 326 374
#
# _framework density 20.761838999999998
#
# number of rings (size 3 to 8) (size 9 to 14) (size 15 to 20)
#    0.000    2.000    2.000    1.200   14.000    0.800 
#    3.600    0.000    0.000    0.000    0.000    0.000 
#    0.000    0.000    0.000    0.000    0.000    0.000 
#
# Total GULP energy -111563.717813 kJ/mol
# GULP energy per Si atom -5578.185891 kJ/mol
# Density = 2.071458 g / cm^3
# Si number density = 20.761839 Si / 1000 Ang^3
#
#
#
# Elastic Constant Matrix: (Units=GPa)
#
#
# Indices 1 2 3 4 5 6 
#
# 1 106.6347 17.4608 22.0898 0.0000 0.0000 0.0000
# 2 17.4608 85.7768 26.4311 0.0000 0.0000 0.0000
# 3 22.0898 26.4311 55.6229 0.0000 0.0000 0.0000
# 4 0.0000 0.0000 0.0000 19.0352 0.0000 0.0000
# 5 0.0000 0.0000 0.0000 0.0000 15.4062 0.0000
# 6 0.0000 0.0000 0.0000 0.0000 0.0000 21.7482
#
#
#
# Elastic Compliance Matrix: (Units=1/GPa)
#
#
# Indices 1 2 3 4 5 6 
#
# 1 0.010288 -0.000979 -0.003621 0.000000 0.000000 0.000000
# 2 -0.000979 0.013751 -0.006146 0.000000 0.000000 0.000000
# 3 -0.003621 -0.006146 0.022336 0.000000 0.000000 0.000000
# 4 0.000000 0.000000 0.000000 0.052534 0.000000 0.000000
# 5 0.000000 0.000000 0.000000 0.000000 0.064909 0.000000
# 6 0.000000 0.000000 0.000000 0.000000 0.000000 0.045981
#
#
# Mechanical properties :
#
#
# Convention : Reuss Voigt Hill
#
# Bulk Modulus (GPa) = 40.18381 42.22199 41.20290
# Shear Modulus (GPa) = 20.86942 23.37476 22.12209
#
# Velocity S-wave (km/s) = 3.17390 3.35901 3.26777
# Velocity P-wave (km/s) = 5.72959 5.95184 5.84177
#
# Compressibility (1/GPa) = 0.02488564
#
# Stress axis : x y z
#
# Youngs Moduli (GPa) = 97.19974 72.72158 44.76983
#
# Poissons Ratio (x) = 0.07116 0.16210
# Poissons Ratio (y) = 0.09512 0.27514
# Poissons Ratio (z) = 0.35194 0.44692
#
# Static dielectric constant tensor:
#      x y z
#    x 1.738860 0.000000 0.000000 
#    y 0.000000 1.813420 0.000000 
#    z 0.000000 0.000000 1.773670 
# 
# From -- ./inp_files/18532.got.cif
#   From: 2010.05.17/outbox.cif.g08.bks.cpg/sg20_10_cif.got.tgz:18532.got - 2010.06.03 22:52:26.
