data_PCOD9319429
_publ_section_title
;
Structure prediction by ZEFSAII (Michael W. Deem and Ramdas Pophale) SiO2 
 PCOD9319429
Probable space group: C 2 2 21
;
_chemical_formula_sum "Si O2"
_cell_formula_units_Z 56
_cell_length_a 9.282064
_cell_length_b 19.638765
_cell_length_c 13.733958
_cell_angle_alpha 90.000000
_cell_angle_beta 90.000000
_cell_angle_gamma 90.000000
_cell_volume 2503.539494
_symmetry_space_group_name_H-M "C 2 2 21"
_symmetry_group_IT_number 20
_symmetry_cell_setting 'orthorhombic'
loop_
_space_group_symop_operation_xyz
x,y,z
-x,-y,1/2+z
x,-y,-z
-x,y,1/2-z
1/2+x,1/2+y,z
1/2-x,1/2-y,1/2+z
1/2+x,1/2-y,-z
1/2-x,1/2+y,1/2-z
loop_
_atom_site_type_symbol
_atom_site_label
_atom_site_fract_x
_atom_site_fract_y
_atom_site_fract_z
Si Si1 0.508637 0.894055 0.857604
Si Si2 0.335554 0.566526 0.629066
Si Si3 0.586753 0.000000 0.500000
Si Si4 0.500000 0.545470 0.250000
Si Si5 0.014347 0.176721 0.999120
Si Si6 0.191095 0.835380 0.682318
Si Si7 0.326594 0.209239 0.038615
Si Si8 0.143829 0.681253 0.691952
O O1 0.500000 0.924698 0.750000
O O2 0.647801 0.846576 0.854451
O O3 0.370127 0.849234 0.886305
O O4 0.513701 0.949155 0.941125
O O5 0.195450 0.534754 0.576794
O O6 0.437019 0.507510 0.670701
O O7 0.427040 0.609672 0.551595
O O8 0.268955 0.624232 0.701990
O O9 0.366533 0.598280 0.238345
O O10 0.156803 0.217719 0.030910
O O11 0.917542 0.162515 0.091579
O O12 0.914813 0.224129 0.932735
O O13 0.179793 0.758984 0.725125
O O14 0.373751 0.188637 0.926972
O O15 0.000000 0.660978 0.750000
#
# Coordination Sequence:
#
# PCOD9319429 Si02
#       8
#     8   8   4   4   8   8   8   8
#     4  12  26  43  70 106 138 193 255 306 367 462
#     4  11  24  45  69 105 148 195 240 305 392 437
#     4  12  24  48  70  96 158 196 236 314 390 448
#     4  12  26  44  68 106 148 194 252 308 378 460
#     4  10  21  44  72  98 144 193 233 306 374 444
#     4  11  25  45  70 104 140 192 256 304 374 444
#     4  10  21  42  68 105 139 184 243 302 368 438
#     4  10  21  44  74 100 142 194 239 301 371 443
#
# _framework density 22.368331000000001
#
# number of rings (size 3 to 8) (size 9 to 14) (size 15 to 20)
#    0.000    1.143    3.571    4.286    2.000    2.857 
#   12.857    0.000    0.000    0.000    0.000    0.000 
#    0.000    0.000    0.000    0.000    0.000    0.000 
#
# Total GULP energy -156375.880833 kJ/mol
# GULP energy per Si atom -5584.852887 kJ/mol
# Density = 2.231742 g / cm^3
# Si number density = 22.368331 Si / 1000 Ang^3
#
#
#
# Elastic Constant Matrix: (Units=GPa)
#
#
# Indices 1 2 3 4 5 6 
#
# 1 86.6328 18.5648 16.8542 0.0000 0.0000 0.0000
# 2 18.5648 99.9086 4.7291 0.0000 0.0000 0.0000
# 3 16.8542 4.7291 45.0570 0.0000 0.0000 0.0000
# 4 0.0000 0.0000 0.0000 27.3555 0.0000 0.0000
# 5 0.0000 0.0000 0.0000 0.0000 29.2373 0.0000
# 6 0.0000 0.0000 0.0000 0.0000 0.0000 38.7837
#
#
#
# Elastic Compliance Matrix: (Units=1/GPa)
#
#
# Indices 1 2 3 4 5 6 
#
# 1 0.012905 -0.002180 -0.004598 0.000000 0.000000 0.000000
# 2 -0.002180 0.010427 -0.000279 0.000000 0.000000 0.000000
# 3 -0.004598 -0.000279 0.023943 0.000000 0.000000 0.000000
# 4 0.000000 0.000000 0.000000 0.036556 0.000000 0.000000
# 5 0.000000 0.000000 0.000000 0.000000 0.034203 0.000000
# 6 0.000000 0.000000 0.000000 0.000000 0.000000 0.025784
#
#
# Mechanical properties :
#
#
# Convention : Reuss Voigt Hill
#
# Bulk Modulus (GPa) = 30.15622 34.65496 32.40559
# Shear Modulus (GPa) = 29.58805 31.83863 30.71334
#
# Velocity S-wave (km/s) = 3.64093 3.77686 3.70952
# Velocity P-wave (km/s) = 5.58445 5.87759 5.73290
#
# Compressibility (1/GPa) = 0.03316066
#
# Stress axis : x y z
#
# Youngs Moduli (GPa) = 77.49058 95.90042 41.76503
#
# Poissons Ratio (x) = 0.20909 0.19205
# Poissons Ratio (y) = 0.16895 0.01165
# Poissons Ratio (z) = 0.35633 0.02675
#
# Static dielectric constant tensor:
#      x y z
#    x 1.799760 0.000000 0.000000 
#    y 0.000000 1.890820 0.000000 
#    z 0.000000 0.000000 1.878390 
# 
# From -- ./inp_files/19248.got.cif
#   From: 2010.05.17/outbox.cif.g08.bks.cpg/sg20_10_cif.got.tgz:19248.got - 2010.06.03 22:52:26.
