data_PCOD9319973
_publ_section_title
;
Structure prediction by ZEFSAII (Michael W. Deem and Ramdas Pophale) SiO2 
 PCOD9319973
Probable space group: C 2 2 21
;
_chemical_formula_sum "Si O2"
_cell_formula_units_Z 28
_cell_length_a 28.501618
_cell_length_b 5.667202
_cell_length_c 7.349126
_cell_angle_alpha 90.000000
_cell_angle_beta 90.000000
_cell_angle_gamma 90.000000
_cell_volume 1187.063363
_symmetry_space_group_name_H-M "C 2 2 21"
_symmetry_group_IT_number 20
_symmetry_cell_setting 'orthorhombic'
loop_
_space_group_symop_operation_xyz
x,y,z
-x,-y,1/2+z
x,-y,-z
-x,y,1/2-z
1/2+x,1/2+y,z
1/2-x,1/2-y,1/2+z
1/2+x,1/2-y,-z
1/2-x,1/2+y,1/2-z
loop_
_atom_site_type_symbol
_atom_site_label
_atom_site_fract_x
_atom_site_fract_y
_atom_site_fract_z
Si Si1 0.444568 0.516336 0.717163
Si Si2 0.275810 0.500000 0.000000
Si Si3 0.199580 0.405670 0.695525
Si Si4 0.596482 0.018356 0.783439
O O1 0.435322 0.500000 0.500000
O O2 0.500000 0.530411 0.750000
O O3 0.422299 0.763936 0.786137
O O4 0.426489 0.260934 0.787422
O O5 0.238521 0.404794 0.850090
O O6 0.309928 0.640463 0.865673
O O7 0.217780 0.500000 0.500000
O O8 0.152274 0.533091 0.749683
O O9 0.588438 0.000000 0.000000
#
# Coordination Sequence:
#
# PCOD9319973 Si02
#       4
#     8   4   8   8
#     4  10  22  41  67  97 135 179 226 284 350 418
#     4  12  26  46  68 102 140 184 242 302 348 430
#     4  12  26  44  70 101 140 185 238 289 361 419
#     4  10  23  42  67  98 137 181 230 290 345 419
#
# _framework density 23.587620000000001
#
# number of rings (size 3 to 8) (size 9 to 14) (size 15 to 20)
#    0.000    1.143    4.286    0.857    4.000    2.286 
#    5.143    0.000    0.000    0.000    0.000    0.000 
#    0.000    0.000    0.000    0.000    0.000    0.000 
#
# Total GULP energy -78011.830152 kJ/mol
# GULP energy per Si atom -5572.273582 kJ/mol
# Density = 2.353393 g / cm^3
# Si number density = 23.587620 Si / 1000 Ang^3
#
#
#
# Elastic Constant Matrix: (Units=GPa)
#
#
# Indices 1 2 3 4 5 6 
#
# 1 68.9249 51.6310 -12.1979 0.0000 0.0000 0.0000
# 2 51.6310 154.5681 32.1764 0.0000 0.0000 0.0000
# 3 -12.1979 32.1764 79.7856 0.0000 0.0000 0.0000
# 4 0.0000 0.0000 0.0000 -17.0116 0.0000 0.0000
# 5 0.0000 0.0000 0.0000 0.0000 20.3675 0.0000
# 6 0.0000 0.0000 0.0000 0.0000 0.0000 27.4896
#
#
#
# Elastic Compliance Matrix: (Units=1/GPa)
#
#
# Indices 1 2 3 4 5 6 
#
# 1 0.022485 -0.008980 0.007059 0.000000 0.000000 0.000000
# 2 -0.008980 0.010649 -0.005668 0.000000 0.000000 0.000000
# 3 0.007059 -0.005668 0.015898 0.000000 0.000000 0.000000
# 4 0.000000 0.000000 0.000000 -0.058783 0.000000 0.000000
# 5 0.000000 0.000000 0.000000 0.000000 0.049098 0.000000
# 6 0.000000 0.000000 0.000000 0.000000 0.000000 0.036377
#
#
# Mechanical properties :
#
#
# Convention : Reuss Voigt Hill
#
# Bulk Modulus (GPa) = 29.53757 49.61082 39.57419
# Shear Modulus (GPa) = 48.93016 21.61371 35.27193
#
# Velocity S-wave (km/s) = 4.55950 3.03035 3.87118
# Velocity P-wave (km/s) = 6.34574 5.77255 6.06592
#
# Compressibility (1/GPa) = 0.03385519
#
# Stress axis : x y z
#
# Youngs Moduli (GPa) = 44.47448 93.90427 62.89914
#
# Poissons Ratio (x) = 0.84328 -0.44401
# Poissons Ratio (y) = 0.39939 0.35649
# Poissons Ratio (z) = -0.31395 0.53221
#
# Static dielectric constant tensor:
#      x y z
#    x 1.827190 0.000000 0.000000 
#    y 0.000000 2.840720 0.000000 
#    z 0.000000 0.000000 1.873050 
# 
# From -- ./inp_files/5057.got.cif
#   From: 2010.05.17/outbox.cif.g08.bks.cpg/sg20_3_cif.got.tgz:5057.got - 2010.06.03 22:52:26.
