data_PCOD9319483
_publ_section_title
;
Structure prediction by ZEFSAII (Michael W. Deem and Ramdas Pophale) SiO2 
 PCOD9319483
Probable space group: C 2 2 21
;
_chemical_formula_sum "Si O2"
_cell_formula_units_Z 48
_cell_length_a 20.817816
_cell_length_b 4.850101
_cell_length_c 17.994496
_cell_angle_alpha 90.000000
_cell_angle_beta 90.000000
_cell_angle_gamma 90.000000
_cell_volume 1816.877453
_symmetry_space_group_name_H-M "C 2 2 21"
_symmetry_group_IT_number 20
_symmetry_cell_setting 'orthorhombic'
loop_
_space_group_symop_operation_xyz
x,y,z
-x,-y,1/2+z
x,-y,-z
-x,y,1/2-z
1/2+x,1/2+y,z
1/2-x,1/2-y,1/2+z
1/2+x,1/2-y,-z
1/2-x,1/2+y,1/2-z
loop_
_atom_site_type_symbol
_atom_site_label
_atom_site_fract_x
_atom_site_fract_y
_atom_site_fract_z
Si Si1 0.052631 0.990898 0.299317
Si Si2 0.809758 0.605620 0.324417
Si Si3 0.771553 0.408135 0.847520
Si Si4 0.441601 0.500000 0.500000
Si Si5 0.921933 0.242038 0.345598
Si Si6 0.026895 0.500000 0.500000
Si Si7 0.363714 0.658896 0.074149
O O1 0.000000 0.807069 0.250000
O O2 0.097004 0.106308 0.233362
O O3 0.105288 0.945529 0.364457
O O4 0.999144 0.205766 0.332394
O O5 0.799259 0.582406 0.236023
O O6 0.792768 0.910011 0.348082
O O7 0.881543 0.521003 0.344452
O O8 0.755606 0.399491 0.360652
O O9 0.817543 0.597690 0.897352
O O10 0.408913 0.621458 0.427143
O O11 0.482735 0.241965 0.467642
O O12 0.074142 0.669650 0.550695
O O13 0.340845 0.500000 0.000000
#
# Coordination Sequence:
#
# PCOD9319483 Si02
#       7
#     8   8   8   4   8   4   8
#     4   8  17  36  69  94 132 162 223 264 339 393
#     4  10  21  43  67  91 129 174 218 273 323 391
#     4  10  23  41  66  93 125 175 224 268 329 383
#     4  12  24  42  67  98 139 174 216 262 360 404
#     4   9  19  40  66  95 134 169 219 271 328 408
#     4  12  24  42  67  96 135 176 212 284 342 402
#     4  12  23  42  68  98 135 175 223 286 330 399
#
# _framework density 26.418955
#
# number of rings (size 3 to 8) (size 9 to 14) (size 15 to 20)
#    1.000    0.667    4.167    0.000    2.333    1.333 
#    3.000    0.000   22.000    0.000    0.000    0.000 
#    0.000    0.000    0.000    0.000    0.000    0.000 
#
# Total GULP energy -133724.156137 kJ/mol
# GULP energy per Si atom -5571.839839 kJ/mol
# Density = 2.635882 g / cm^3
# Si number density = 26.418955 Si / 1000 Ang^3
#
#
#
# Elastic Constant Matrix: (Units=GPa)
#
#
# Indices 1 2 3 4 5 6 
#
# 1 80.0145 -1.3549 15.7451 0.0000 0.0000 0.0000
# 2 -1.3549 84.0255 -4.5454 0.0000 0.0000 0.0000
# 3 15.7451 -4.5454 118.2419 0.0000 0.0000 0.0000
# 4 0.0000 0.0000 0.0000 26.5366 0.0000 0.0000
# 5 0.0000 0.0000 0.0000 0.0000 42.9341 0.0000
# 6 0.0000 0.0000 0.0000 0.0000 0.0000 21.1592
#
#
#
# Elastic Compliance Matrix: (Units=1/GPa)
#
#
# Indices 1 2 3 4 5 6 
#
# 1 0.012835 0.000115 -0.001705 0.000000 0.000000 0.000000
# 2 0.000115 0.011927 0.000443 0.000000 0.000000 0.000000
# 3 -0.001705 0.000443 0.008701 0.000000 0.000000 0.000000
# 4 0.000000 0.000000 0.000000 0.037684 0.000000 0.000000
# 5 0.000000 0.000000 0.000000 0.000000 0.023292 0.000000
# 6 0.000000 0.000000 0.000000 0.000000 0.000000 0.047261
#
#
# Mechanical properties :
#
#
# Convention : Reuss Voigt Hill
#
# Bulk Modulus (GPa) = 32.08228 33.55241 32.81735
# Shear Modulus (GPa) = 32.38699 36.28845 34.33772
#
# Velocity S-wave (km/s) = 3.50508 3.71020 3.60910
# Velocity P-wave (km/s) = 5.34330 5.57511 5.46043
#
# Compressibility (1/GPa) = 0.03116985
#
# Stress axis : x y z
#
# Youngs Moduli (GPa) = 77.91113 83.84357 114.92566
#
# Poissons Ratio (x) = -0.00962 0.19592
# Poissons Ratio (y) = -0.00894 -0.05094
# Poissons Ratio (z) = 0.13282 -0.03716
#
# Static dielectric constant tensor:
#      x y z
#    x 2.098400 0.000000 0.000000 
#    y 0.000000 2.268850 0.000000 
#    z 0.000000 0.000000 2.105360 
# 
# From -- ./inp_files/27990.got.cif
#   From: 2010.05.17/outbox.cif.g08.bks.cpg/sg20_14_cif.got.tgz:27990.got - 2010.06.03 22:52:26.
