data_PCOD9319962
_publ_section_title
;
Structure prediction by ZEFSAII (Michael W. Deem and Ramdas Pophale) SiO2 
 PCOD9319962
Probable space group: C 2 2 21
;
_chemical_formula_sum "Si O2"
_cell_formula_units_Z 32
_cell_length_a 4.974808
_cell_length_b 14.207607
_cell_length_c 16.528515
_cell_angle_alpha 90.000000
_cell_angle_beta 90.000000
_cell_angle_gamma 90.000000
_cell_volume 1168.237373
_symmetry_space_group_name_H-M "C 2 2 21"
_symmetry_group_IT_number 20
_symmetry_cell_setting 'orthorhombic'
loop_
_space_group_symop_operation_xyz
x,y,z
-x,-y,1/2+z
x,-y,-z
-x,y,1/2-z
1/2+x,1/2+y,z
1/2-x,1/2-y,1/2+z
1/2+x,1/2-y,-z
1/2-x,1/2+y,1/2-z
loop_
_atom_site_type_symbol
_atom_site_label
_atom_site_fract_x
_atom_site_fract_y
_atom_site_fract_z
Si Si1 0.017977 0.369419 0.551860
Si Si2 0.604944 0.950629 0.163775
Si Si3 0.771155 0.753333 0.698572
Si Si4 0.996291 0.098113 0.955875
O O1 0.143633 0.304517 0.621125
O O2 0.221058 0.359935 0.477041
O O3 0.990531 0.472672 0.596819
O O4 0.733670 0.351086 0.508891
O O5 0.500000 0.988352 0.250000
O O6 0.554224 0.838004 0.171178
O O7 0.915909 0.931990 0.134958
O O8 0.500000 0.733456 0.750000
O O9 0.000000 0.810009 0.750000
O O10 0.012221 0.000000 0.000000
#
# Coordination Sequence:
#
# PCOD9319962 Si02
#       4
#     8   8   8   8
#     4  11  23  43  68  96 141 188 233 295 360 425
#     4  10  24  44  71 103 143 190 238 303 371 430
#     4  11  25  44  69 107 145 186 247 299 356 445
#     4  10  22  41  66 100 136 182 241 289 353 442
#
# _framework density 27.391696
#
# number of rings (size 3 to 8) (size 9 to 14) (size 15 to 20)
#    0.000    1.500    0.000    4.500    0.000   16.000 
#    0.000    2.500    0.000    0.000    0.000    0.000 
#    0.000    0.000    0.000    0.000    0.000    0.000 
#
# Total GULP energy -89110.639507 kJ/mol
# GULP energy per Si atom -5569.414969 kJ/mol
# Density = 2.732935 g / cm^3
# Si number density = 27.391696 Si / 1000 Ang^3
#
#
#
# Elastic Constant Matrix: (Units=GPa)
#
#
# Indices 1 2 3 4 5 6 
#
# 1 155.0380 55.4939 102.6462 0.0000 0.0000 0.0000
# 2 55.4939 92.9694 33.2788 0.0000 0.0000 0.0000
# 3 102.6462 33.2788 185.4835 0.0000 0.0000 0.0000
# 4 0.0000 0.0000 0.0000 41.8227 0.0000 0.0000
# 5 0.0000 0.0000 0.0000 0.0000 43.7537 0.0000
# 6 0.0000 0.0000 0.0000 0.0000 0.0000 18.8347
#
#
#
# Elastic Compliance Matrix: (Units=1/GPa)
#
#
# Indices 1 2 3 4 5 6 
#
# 1 0.012131 -0.005170 -0.005786 0.000000 0.000000 0.000000
# 2 -0.005170 0.013698 0.000404 0.000000 0.000000 0.000000
# 3 -0.005786 0.000404 0.008521 0.000000 0.000000 0.000000
# 4 0.000000 0.000000 0.000000 0.023910 0.000000 0.000000
# 5 0.000000 0.000000 0.000000 0.000000 0.022855 0.000000
# 6 0.000000 0.000000 0.000000 0.000000 0.000000 0.053093
#
#
# Mechanical properties :
#
#
# Convention : Reuss Voigt Hill
#
# Bulk Modulus (GPa) = 75.49997 90.70320 83.10159
# Shear Modulus (GPa) = 31.30307 37.02036 34.16171
#
# Velocity S-wave (km/s) = 3.38419 3.68029 3.53534
# Velocity P-wave (km/s) = 6.54929 7.15854 6.86068
#
# Compressibility (1/GPa) = 0.01324504
#
# Stress axis : x y z
#
# Youngs Moduli (GPa) = 82.43196 73.00407 117.36048
#
# Poissons Ratio (x) = 0.37744 0.67902
# Poissons Ratio (y) = 0.42618 -0.04736
# Poissons Ratio (z) = 0.47693 -0.02946
#
# Static dielectric constant tensor:
#      x y z
#    x 2.415300 0.000000 0.000000 
#    y 0.000000 2.262630 0.000000 
#    z 0.000000 0.000000 2.369520 
# 
# From -- ./inp_files/22479.got.cif
#   From: 2010.05.17/outbox.cif.g08.bks.cpg/sg20_12_cif.got.tgz:22479.got - 2010.06.03 22:52:26.
