data_PCOD9319748
_publ_section_title
;
Structure prediction by ZEFSAII (Michael W. Deem and Ramdas Pophale) SiO2 
 PCOD9319748
Probable space group: C 2 2 21
;
_chemical_formula_sum "Si O2"
_cell_formula_units_Z 36
_cell_length_a 11.476951
_cell_length_b 11.511135
_cell_length_c 13.996776
_cell_angle_alpha 90.000000
_cell_angle_beta 90.000000
_cell_angle_gamma 90.000000
_cell_volume 1849.152321
_symmetry_space_group_name_H-M "C 2 2 21"
_symmetry_group_IT_number 20
_symmetry_cell_setting 'orthorhombic'
loop_
_space_group_symop_operation_xyz
x,y,z
-x,-y,1/2+z
x,-y,-z
-x,y,1/2-z
1/2+x,1/2+y,z
1/2-x,1/2-y,1/2+z
1/2+x,1/2-y,-z
1/2-x,1/2+y,1/2-z
loop_
_atom_site_type_symbol
_atom_site_label
_atom_site_fract_x
_atom_site_fract_y
_atom_site_fract_z
Si Si1 0.252719 0.154894 0.641980
Si Si2 0.939067 0.348298 0.852473
Si Si3 0.389576 0.101926 0.821355
Si Si4 0.097607 0.000000 0.500000
Si Si5 0.485015 0.257936 0.542593
O O1 0.169447 0.263933 0.653561
O O2 0.283622 0.107781 0.747438
O O3 0.368926 0.207727 0.592468
O O4 0.183559 0.059522 0.578600
O O5 0.900051 0.479162 0.873503
O O6 0.000000 0.349999 0.750000
O O7 0.016821 0.295762 0.936650
O O8 0.500000 0.110928 0.750000
O O9 0.406069 0.202536 0.898724
O O10 0.014453 0.894906 0.537209
#
# Coordination Sequence:
#
# PCOD9319748 Si02
#       5
#     8   8   8   4   8
#     4  10  23  40  65  92 128 174 201 276 336 367
#     4  10  22  39  61  95 120 166 220 260 323 400
#     4   9  20  37  64  89 118 164 213 262 316 391
#     4  10  24  42  64  96 132 170 214 274 318 390
#     4  10  22  43  61  91 130 164 219 267 322 394
#
# _framework density 19.468378999999999
#
# number of rings (size 3 to 8) (size 9 to 14) (size 15 to 20)
#    0.000    2.222    0.000    0.667   12.444    1.778 
#   16.000    1.111    0.000    0.000    0.000    0.000 
#    0.000    0.000    0.000    0.000    0.000    0.000 
#
# Total GULP energy -100321.428894 kJ/mol
# GULP energy per Si atom -5573.412716 kJ/mol
# Density = 1.942407 g / cm^3
# Si number density = 19.468379 Si / 1000 Ang^3
#
#
#
# Elastic Constant Matrix: (Units=GPa)
#
#
# Indices 1 2 3 4 5 6 
#
# 1 43.1209 16.5218 19.5047 0.0000 0.0000 0.0000
# 2 16.5218 155.9393 44.6279 0.0000 0.0000 0.0000
# 3 19.5047 44.6279 80.9768 0.0000 0.0000 0.0000
# 4 0.0000 0.0000 0.0000 63.6840 0.0000 0.0000
# 5 0.0000 0.0000 0.0000 0.0000 14.4700 0.0000
# 6 0.0000 0.0000 0.0000 0.0000 0.0000 27.7185
#
#
#
# Elastic Compliance Matrix: (Units=1/GPa)
#
#
# Indices 1 2 3 4 5 6 
#
# 1 0.026199 -0.001151 -0.005676 0.000000 0.000000 0.000000
# 2 -0.001151 0.007664 -0.003947 0.000000 0.000000 0.000000
# 3 -0.005676 -0.003947 0.015891 0.000000 0.000000 0.000000
# 4 0.000000 0.000000 0.000000 0.015703 0.000000 0.000000
# 5 0.000000 0.000000 0.000000 0.000000 0.069109 0.000000
# 6 0.000000 0.000000 0.000000 0.000000 0.000000 0.036077
#
#
# Mechanical properties :
#
#
# Convention : Reuss Voigt Hill
#
# Bulk Modulus (GPa) = 35.45233 49.03843 42.24538
# Shear Modulus (GPa) = 24.80244 34.46667 29.63456
#
# Velocity S-wave (km/s) = 3.57317 4.21217 3.90576
# Velocity P-wave (km/s) = 5.93912 6.99285 6.48741
#
# Compressibility (1/GPa) = 0.02820689
#
# Stress axis : x y z
#
# Youngs Moduli (GPa) = 38.16916 130.47677 62.92709
#
# Poissons Ratio (x) = 0.15023 0.35717
# Poissons Ratio (y) = 0.04395 0.24835
# Poissons Ratio (z) = 0.21665 0.51493
#
# Static dielectric constant tensor:
#      x y z
#    x 1.674270 0.000000 0.000000 
#    y 0.000000 1.669520 0.000000 
#    z 0.000000 0.000000 1.456910 
# 
# From -- ./inp_files/13665.got.cif
#   From: 2010.05.17/outbox.cif.g08.bks.cpg/sg20_7_cif.got.tgz:13665.got - 2010.06.03 22:52:26.
