data_PCOD9319251
_publ_section_title
;
Structure prediction by ZEFSAII (Michael W. Deem and Ramdas Pophale) SiO2 
 PCOD9319251
Probable space group: C 2 2 21
;
_chemical_formula_sum "Si O2"
_cell_formula_units_Z 64
_cell_length_a 11.749897
_cell_length_b 22.483304
_cell_length_c 12.314849
_cell_angle_alpha 90.000000
_cell_angle_beta 90.000000
_cell_angle_gamma 90.000000
_cell_volume 3253.293783
_symmetry_space_group_name_H-M "C 2 2 21"
_symmetry_group_IT_number 20
_symmetry_cell_setting 'orthorhombic'
loop_
_space_group_symop_operation_xyz
x,y,z
-x,-y,1/2+z
x,-y,-z
-x,y,1/2-z
1/2+x,1/2+y,z
1/2-x,1/2-y,1/2+z
1/2+x,1/2-y,-z
1/2-x,1/2+y,1/2-z
loop_
_atom_site_type_symbol
_atom_site_label
_atom_site_fract_x
_atom_site_fract_y
_atom_site_fract_z
Si Si1 0.090854 0.363578 0.486223
Si Si2 0.223156 0.599661 0.307216
Si Si3 0.634182 0.795630 0.065466
Si Si4 0.300057 0.331083 0.881730
Si Si5 0.220581 0.703381 0.703699
Si Si6 0.436064 0.655973 0.429460
Si Si7 0.206508 0.527187 0.611578
Si Si8 0.400391 0.615594 0.672513
O O1 0.140035 0.366873 0.607801
O O2 0.169205 0.323024 0.407451
O O3 0.105980 0.429268 0.431484
O O4 0.968847 0.333661 0.483083
O O5 0.230695 0.618670 0.182458
O O6 0.347832 0.617502 0.357071
O O7 0.186493 0.530987 0.317524
O O8 0.648301 0.813307 0.191064
O O9 0.606170 0.724941 0.061938
O O10 0.745907 0.812949 0.996994
O O11 0.282103 0.273494 0.806569
O O12 0.434259 0.343699 0.888171
O O13 0.345790 0.676765 0.716399
O O14 0.436484 0.628039 0.549475
O O15 0.257142 0.500000 0.500000
O O16 0.297934 0.568778 0.669117
O O17 0.500000 0.595240 0.750000
#
# Coordination Sequence:
#
# PCOD9319251 Si02
#       8
#     8   8   8   8   8   8   8   8
#     4  10  21  40  69  88 119 173 218 258 311 390
#     4  11  22  42  67  93 123 167 225 264 323 378
#     4  12  24  39  62  95 135 169 211 262 330 393
#     4  12  25  37  60  99 137 166 203 275 328 381
#     4  11  21  39  59  92 130 170 210 251 322 397
#     4  12  22  38  61  98 131 167 209 259 329 395
#     4   9  19  42  67  88 117 167 227 259 304 390
#     4  11  22  38  63  92 126 167 213 262 320 377
#
# _framework density 19.672369
#
# number of rings (size 3 to 8) (size 9 to 14) (size 15 to 20)
#    0.000    1.000    7.500    1.500    0.000    2.500 
#    0.000    0.000   30.250    0.000    0.000    0.000 
#    0.000    0.000    0.000    0.000    0.000    0.000 
#
# Total GULP energy -178548.065836 kJ/mol
# GULP energy per Si atom -5579.627057 kJ/mol
# Density = 1.962759 g / cm^3
# Si number density = 19.672369 Si / 1000 Ang^3
#
#
#
# Elastic Constant Matrix: (Units=GPa)
#
#
# Indices 1 2 3 4 5 6 
#
# 1 36.4638 -5.6077 -19.0029 0.0000 0.0000 0.0000
# 2 -5.6077 58.6410 -1.8227 0.0000 0.0000 0.0000
# 3 -19.0029 -1.8227 45.7242 0.0000 0.0000 0.0000
# 4 0.0000 0.0000 0.0000 19.2020 0.0000 0.0000
# 5 0.0000 0.0000 0.0000 0.0000 28.9084 0.0000
# 6 0.0000 0.0000 0.0000 0.0000 0.0000 14.5039
#
#
#
# Elastic Compliance Matrix: (Units=1/GPa)
#
#
# Indices 1 2 3 4 5 6 
#
# 1 0.035875 0.003899 0.015065 0.000000 0.000000 0.000000
# 2 0.003899 0.017498 0.002318 0.000000 0.000000 0.000000
# 3 0.015065 0.002318 0.028224 0.000000 0.000000 0.000000
# 4 0.000000 0.000000 0.000000 0.052078 0.000000 0.000000
# 5 0.000000 0.000000 0.000000 0.000000 0.034592 0.000000
# 6 0.000000 0.000000 0.000000 0.000000 0.000000 0.068947
#
#
# Mechanical properties :
#
#
# Convention : Reuss Voigt Hill
#
# Bulk Modulus (GPa) = 8.05411 9.77361 8.91386
# Shear Modulus (GPa) = 21.18316 23.67368 22.42842
#
# Velocity S-wave (km/s) = 3.28502 3.47277 3.38020
# Velocity P-wave (km/s) = 4.30017 4.58902 4.44694
#
# Compressibility (1/GPa) = 0.12416025
#
# Stress axis : x y z
#
# Youngs Moduli (GPa) = 27.87448 57.15003 35.43126
#
# Poissons Ratio (x) = -0.22282 -0.53377
# Poissons Ratio (y) = -0.10868 -0.08213
# Poissons Ratio (z) = -0.41993 -0.13247
#
# Static dielectric constant tensor:
#      x y z
#    x 1.700810 0.000000 0.000000 
#    y 0.000000 1.732840 0.000000 
#    z 0.000000 0.000000 1.709610 
# 
# From -- ./inp_files/14482.got.cif
#   From: 2010.05.17/outbox.cif.g08.bks.cpg/sg20_8_cif.got.tgz:14482.got - 2010.06.03 22:52:26.
