data_PCOD9319983
_publ_section_title
;
Structure prediction by ZEFSAII (Michael W. Deem and Ramdas Pophale) SiO2 
 PCOD9319983
Probable space group: C 2 2 21
;
_chemical_formula_sum "Si O2"
_cell_formula_units_Z 56
_cell_length_a 14.657283
_cell_length_b 11.864839
_cell_length_c 13.160385
_cell_angle_alpha 90.000000
_cell_angle_beta 90.000000
_cell_angle_gamma 90.000000
_cell_volume 2288.673901
_symmetry_space_group_name_H-M "C 2 2 21"
_symmetry_group_IT_number 20
_symmetry_cell_setting 'orthorhombic'
loop_
_space_group_symop_operation_xyz
x,y,z
-x,-y,1/2+z
x,-y,-z
-x,y,1/2-z
1/2+x,1/2+y,z
1/2-x,1/2-y,1/2+z
1/2+x,1/2-y,-z
1/2-x,1/2+y,1/2-z
loop_
_atom_site_type_symbol
_atom_site_label
_atom_site_fract_x
_atom_site_fract_y
_atom_site_fract_z
Si Si1 0.430921 0.522430 0.620431
Si Si2 0.513932 0.176293 0.859755
Si Si3 0.868873 0.924488 0.096981
Si Si4 0.835619 0.254837 0.057116
Si Si5 0.213652 0.927146 0.735032
Si Si6 0.128737 0.242307 0.958220
Si Si7 0.909586 0.568070 0.306184
O O1 0.426229 0.500000 0.500000
O O2 0.538539 0.523973 0.643965
O O3 0.359147 0.444163 0.676713
O O4 0.403417 0.653324 0.626200
O O5 0.500000 0.233305 0.750000
O O6 0.412040 0.158835 0.904626
O O7 0.566300 0.060209 0.836869
O O8 0.568874 0.251139 0.940116
O O9 0.791226 0.950844 0.177154
O O10 0.877775 0.805276 0.043262
O O11 0.844673 0.000000 0.000000
O O12 0.734228 0.288034 0.024423
O O13 0.817217 0.168600 0.153230
O O14 0.319304 0.914750 0.762301
O O15 0.115637 0.364281 0.907746
O O16 0.000000 0.611579 0.250000
#
# Coordination Sequence:
#
# PCOD9319983 Si02
#       7
#     8   8   8   8   8   8   8
#     4  11  24  40  64 102 139 177 231 302 351 407
#     4  11  24  42  72 101 137 184 237 290 350 433
#     4   9  18  37  64  92 126 169 224 284 351 412
#     4  10  22  42  67 101 131 184 232 286 359 429
#     4  10  22  41  68  95 136 185 230 285 353 434
#     4  11  24  46  68  98 144 181 236 291 358 425
#     4  10  24  46  69  99 139 186 234 286 356 432
#
# _framework density 24.468316999999999
#
# number of rings (size 3 to 8) (size 9 to 14) (size 15 to 20)
#    0.000    1.714    1.429    1.714    6.000    3.429 
#    2.571    0.000    0.000    0.000    0.000    0.000 
#    0.000    0.000    0.000    0.000    0.000    0.000 
#
# Total GULP energy -156358.431895 kJ/mol
# GULP energy per Si atom -5584.229711 kJ/mol
# Density = 2.441263 g / cm^3
# Si number density = 24.468317 Si / 1000 Ang^3
#
#
#
# Elastic Constant Matrix: (Units=GPa)
#
#
# Indices 1 2 3 4 5 6 
#
# 1 181.8182 12.3168 44.7753 0.0000 0.0000 0.0000
# 2 12.3168 45.4137 -2.1449 0.0000 0.0000 0.0000
# 3 44.7753 -2.1449 51.9615 0.0000 0.0000 0.0000
# 4 0.0000 0.0000 0.0000 1.9286 0.0000 0.0000
# 5 0.0000 0.0000 0.0000 0.0000 41.5072 0.0000
# 6 0.0000 0.0000 0.0000 0.0000 0.0000 23.6851
#
#
#
# Elastic Compliance Matrix: (Units=1/GPa)
#
#
# Indices 1 2 3 4 5 6 
#
# 1 0.007204 -0.002251 -0.006301 0.000000 0.000000 0.000000
# 2 -0.002251 0.022766 0.002880 0.000000 0.000000 0.000000
# 3 -0.006301 0.002880 0.024793 0.000000 0.000000 0.000000
# 4 0.000000 0.000000 0.000000 0.518513 0.000000 0.000000
# 5 0.000000 0.000000 0.000000 0.000000 0.024092 0.000000
# 6 0.000000 0.000000 0.000000 0.000000 0.000000 0.042221
#
#
# Mechanical properties :
#
#
# Convention : Reuss Voigt Hill
#
# Bulk Modulus (GPa) = 23.03135 43.23199 33.13167
# Shear Modulus (GPa) = 7.51419 28.37392 17.94405
#
# Velocity S-wave (km/s) = 1.75432 3.40901 2.71100
# Velocity P-wave (km/s) = 3.67922 5.76212 4.83419
#
# Compressibility (1/GPa) = 0.04341908
#
# Stress axis : x y z
#
# Youngs Moduli (GPa) = 138.80839 43.92433 40.33350
#
# Poissons Ratio (x) = 0.09889 0.25413
# Poissons Ratio (y) = 0.31252 -0.11615
# Poissons Ratio (z) = 0.87460 -0.12649
#
# Static dielectric constant tensor:
#      x y z
#    x 2.004560 0.000000 0.000000 
#    y 0.000000 2.000120 0.000000 
#    z 0.000000 0.000000 1.982350 
# 
# From -- ./inp_files/15141.got.cif
#   From: 2010.05.17/outbox.cif.g08.bks.cpg/sg20_8_cif.got.tgz:15141.got - 2010.06.03 22:52:26.
