data_PCOD9319706
_publ_section_title
;
Structure prediction by ZEFSAII (Michael W. Deem and Ramdas Pophale) SiO2 
 PCOD9319706
Probable space group: C 2 2 21
;
_chemical_formula_sum "Si O2"
_cell_formula_units_Z 32
_cell_length_a 10.650854
_cell_length_b 8.552147
_cell_length_c 15.244931
_cell_angle_alpha 90.000000
_cell_angle_beta 90.000000
_cell_angle_gamma 90.000000
_cell_volume 1388.625230
_symmetry_space_group_name_H-M "C 2 2 21"
_symmetry_group_IT_number 20
_symmetry_cell_setting 'orthorhombic'
loop_
_space_group_symop_operation_xyz
x,y,z
-x,-y,1/2+z
x,-y,-z
-x,y,1/2-z
1/2+x,1/2+y,z
1/2-x,1/2-y,1/2+z
1/2+x,1/2-y,-z
1/2-x,1/2+y,1/2-z
loop_
_atom_site_type_symbol
_atom_site_label
_atom_site_fract_x
_atom_site_fract_y
_atom_site_fract_z
Si Si1 0.843892 0.126237 0.576904
Si Si2 0.338241 0.327603 0.675745
Si Si3 0.443256 0.824153 0.847270
Si Si4 0.910235 0.305222 0.133046
O O1 0.836978 0.015219 0.664312
O O2 0.847954 0.000000 0.500000
O O3 0.711085 0.216368 0.571944
O O4 0.962840 0.236305 0.587998
O O5 0.200680 0.268132 0.649487
O O6 0.454592 0.270203 0.617056
O O7 0.367203 0.266947 0.773269
O O8 0.500000 0.804078 0.750000
O O9 0.436846 0.009717 0.863999
#
# Coordination Sequence:
#
# PCOD9319706 Si02
#       4
#     8   8   8   8
#     4  11  26  42  62  95 135 168 208 272 330 374
#     4  10  22  38  65  96 119 166 218 259 316 381
#     4  11  21  38  67  92 124 162 216 267 313 381
#     4  10  22  41  66  94 124 163 221 265 314 379
#
# _framework density 23.044374999999999
#
# number of rings (size 3 to 8) (size 9 to 14) (size 15 to 20)
#    0.000    1.500    5.000    0.000    3.500    6.000 
#    0.000    1.250    0.000    0.000    0.000    0.000 
#    0.000    0.000    0.000    0.000    0.000    0.000 
#
# Total GULP energy -89398.012703 kJ/mol
# GULP energy per Si atom -5587.375794 kJ/mol
# Density = 2.299193 g / cm^3
# Si number density = 23.044375 Si / 1000 Ang^3
#
#
#
# Elastic Constant Matrix: (Units=GPa)
#
#
# Indices 1 2 3 4 5 6 
#
# 1 247.3080 40.8389 19.3830 0.0000 0.0000 0.0000
# 2 40.8389 47.8127 6.5529 0.0000 0.0000 0.0000
# 3 19.3830 6.5529 54.3261 0.0000 0.0000 0.0000
# 4 0.0000 0.0000 0.0000 34.3913 0.0000 0.0000
# 5 0.0000 0.0000 0.0000 0.0000 14.0460 0.0000
# 6 0.0000 0.0000 0.0000 0.0000 0.0000 -75.7438
#
#
#
# Elastic Compliance Matrix: (Units=1/GPa)
#
#
# Indices 1 2 3 4 5 6 
#
# 1 0.004788 -0.003920 -0.001235 0.000000 0.000000 0.000000
# 2 -0.003920 0.024476 -0.001554 0.000000 0.000000 0.000000
# 3 -0.001235 -0.001554 0.019036 0.000000 0.000000 0.000000
# 4 0.000000 0.000000 0.000000 0.029077 0.000000 0.000000
# 5 0.000000 0.000000 0.000000 0.000000 0.071195 0.000000
# 6 0.000000 0.000000 0.000000 0.000000 0.000000 -0.013202
#
#
# Mechanical properties :
#
#
# Convention : Reuss Voigt Hill
#
# Bulk Modulus (GPa) = 28.66876 53.66625 41.16751
# Shear Modulus (GPa) = 31.16932 13.38350 22.27641
#
# Velocity S-wave (km/s) = 3.68173 2.41253 3.11251
# Velocity P-wave (km/s) = 5.52641 5.57667 5.55159
#
# Compressibility (1/GPa) = 0.03488117
#
# Stress axis : x y z
#
# Youngs Moduli (GPa) = 208.86853 40.85598 52.53335
#
# Poissons Ratio (x) = 0.16016 0.06490
# Poissons Ratio (y) = 0.81878 0.08162
# Poissons Ratio (z) = 0.25803 0.06348
#
# Static dielectric constant tensor:
#      x y z
#    x 1.892080 0.000000 0.000000 
#    y 0.000000 1.814190 0.000000 
#    z 0.000000 0.000000 3.300120 
# 
# From -- ./inp_files/18284.got.cif
#   From: 2010.05.17/outbox.cif.g08.bks.cpg/sg20_10_cif.got.tgz:18284.got - 2010.06.03 22:52:26.
