data_PCOD9319304
_publ_section_title
;
Structure prediction by ZEFSAII (Michael W. Deem and Ramdas Pophale) SiO2 
 PCOD9319304
Probable space group: C 2 2 21
;
_chemical_formula_sum "Si O2"
_cell_formula_units_Z 40
_cell_length_a 7.477891
_cell_length_b 22.442053
_cell_length_c 9.116196
_cell_angle_alpha 90.000000
_cell_angle_beta 90.000000
_cell_angle_gamma 90.000000
_cell_volume 1529.872958
_symmetry_space_group_name_H-M "C 2 2 21"
_symmetry_group_IT_number 20
_symmetry_cell_setting 'orthorhombic'
loop_
_space_group_symop_operation_xyz
x,y,z
-x,-y,1/2+z
x,-y,-z
-x,y,1/2-z
1/2+x,1/2+y,z
1/2-x,1/2-y,1/2+z
1/2+x,1/2-y,-z
1/2-x,1/2+y,1/2-z
loop_
_atom_site_type_symbol
_atom_site_label
_atom_site_fract_x
_atom_site_fract_y
_atom_site_fract_z
Si Si1 0.836842 0.974319 0.839452
Si Si2 0.791152 0.274910 0.710417
Si Si3 0.318142 0.107816 0.108059
Si Si4 0.278601 0.127779 0.485985
Si Si5 0.291956 0.359567 0.294088
O O1 0.717302 0.951673 0.702737
O O2 0.000000 0.003786 0.750000
O O3 0.880147 0.908498 0.907615
O O4 0.777286 0.000000 0.000000
O O5 0.742575 0.330193 0.818639
O O6 0.753084 0.302786 0.549120
O O7 0.717624 0.208243 0.704991
O O8 0.000000 0.267375 0.750000
O O9 0.531894 0.114452 0.089449
O O10 0.243511 0.107395 0.944048
O O11 0.296863 0.110479 0.653685
O O12 0.500000 0.357418 0.250000
#
# Coordination Sequence:
#
# PCOD9319304 Si02
#       5
#     8   8   8   8   8
#     4  11  25  46  69  92 119 157 206 271 339 399
#     4   8  17  33  57  91 132 177 218 256 300 364
#     4  10  21  41  64  92 132 171 216 266 314 379
#     4  10  21  41  64  93 131 170 216 264 317 378
#     4  11  20  33  59  96 137 179 218 257 310 370
#
# _framework density 26.145962999999998
#
# number of rings (size 3 to 8) (size 9 to 14) (size 15 to 20)
#    0.000    2.000    0.000    4.800    0.000    2.400 
#    0.000   18.000    0.000    0.000    0.000    0.000 
#    0.000    0.000    0.000    0.000    0.000    0.000 
#
# Total GULP energy -111400.634589 kJ/mol
# GULP energy per Si atom -5570.031729 kJ/mol
# Density = 2.608645 g / cm^3
# Si number density = 26.145963 Si / 1000 Ang^3
#
#
#
# Elastic Constant Matrix: (Units=GPa)
#
#
# Indices 1 2 3 4 5 6 
#
# 1 42.5206 15.8933 26.1171 0.0000 0.0000 0.0000
# 2 15.8933 81.7955 43.5348 0.0000 0.0000 0.0000
# 3 26.1171 43.5348 218.0637 0.0000 0.0000 0.0000
# 4 0.0000 0.0000 0.0000 37.1022 0.0000 0.0000
# 5 0.0000 0.0000 0.0000 0.0000 37.7518 0.0000
# 6 0.0000 0.0000 0.0000 0.0000 0.0000 15.4112
#
#
#
# Elastic Compliance Matrix: (Units=1/GPa)
#
#
# Indices 1 2 3 4 5 6 
#
# 1 0.026432 -0.003861 -0.002395 0.000000 0.000000 0.000000
# 2 -0.003861 0.014243 -0.002381 0.000000 0.000000 0.000000
# 3 -0.002395 -0.002381 0.005348 0.000000 0.000000 0.000000
# 4 0.000000 0.000000 0.000000 0.026953 0.000000 0.000000
# 5 0.000000 0.000000 0.000000 0.000000 0.026489 0.000000
# 6 0.000000 0.000000 0.000000 0.000000 0.000000 0.064888
#
#
# Mechanical properties :
#
#
# Convention : Reuss Voigt Hill
#
# Bulk Modulus (GPa) = 34.78386 57.05226 45.91806
# Shear Modulus (GPa) = 26.14920 35.17533 30.66227
#
# Velocity S-wave (km/s) = 3.16590 3.67187 3.42824
# Velocity P-wave (km/s) = 5.16687 6.31228 5.76808
#
# Compressibility (1/GPa) = 0.02874897
#
# Stress axis : x y z
#
# Youngs Moduli (GPa) = 37.83254 70.20902 186.98540
#
# Poissons Ratio (x) = 0.27110 0.44781
# Poissons Ratio (y) = 0.14608 0.44523
# Poissons Ratio (z) = 0.09060 0.16717
#
# Static dielectric constant tensor:
#      x y z
#    x 2.111900 0.000000 0.000000 
#    y 0.000000 2.115550 0.000000 
#    z 0.000000 0.000000 2.137370 
# 
# From -- ./inp_files/6107.got.cif
#   From: 2010.05.17/outbox.cif.g08.bks.cpg/sg20_4_cif.got.tgz:6107.got - 2010.06.03 22:52:26.
