data_PCOD9319751
_publ_section_title
;
Structure prediction by ZEFSAII (Michael W. Deem and Ramdas Pophale) SiO2 
 PCOD9319751
Probable space group: C 2 2 21
;
_chemical_formula_sum "Si O2"
_cell_formula_units_Z 24
_cell_length_a 7.088782
_cell_length_b 18.917750
_cell_length_c 6.354096
_cell_angle_alpha 90.000000
_cell_angle_beta 90.000000
_cell_angle_gamma 90.000000
_cell_volume 852.108455
_symmetry_space_group_name_H-M "C 2 2 21"
_symmetry_group_IT_number 20
_symmetry_cell_setting 'orthorhombic'
loop_
_space_group_symop_operation_xyz
x,y,z
-x,-y,1/2+z
x,-y,-z
-x,y,1/2-z
1/2+x,1/2+y,z
1/2-x,1/2-y,1/2+z
1/2+x,1/2-y,-z
1/2-x,1/2+y,1/2-z
loop_
_atom_site_type_symbol
_atom_site_label
_atom_site_fract_x
_atom_site_fract_y
_atom_site_fract_z
Si Si1 0.500000 0.712812 0.250000
Si Si2 0.500000 0.045329 0.750000
Si Si3 0.668805 0.500000 0.000000
Si Si4 0.000000 0.882247 0.250000
Si Si5 0.167059 0.666539 0.994343
O O1 0.694592 0.672750 0.306783
O O2 0.456227 0.764614 0.446815
O O3 0.687992 0.002516 0.696822
O O4 0.542315 0.097135 0.948514
O O5 0.540634 0.432735 0.049953
O O6 0.185211 0.839208 0.300201
#
# Coordination Sequence:
#
# PCOD9319751 Si02
#       5
#     4   4   4   4   8
#     4  11  22  41  64  90 122 159 198 251 300 358
#     4   9  22  42  62  90 122 160 204 245 298 360
#     4  10  22  40  62  86 124 158 200 252 296 350
#     4  10  22  41  60  92 124 159 202 248 300 358
#     4  10  22  39  62  90 122 157 202 247 301 359
#
# _framework density 28.165426
#
# number of rings (size 3 to 8) (size 9 to 14) (size 15 to 20)
#    0.000    2.000    0.000    2.000    0.000    9.333 
#    0.000    3.333    0.000    0.000    0.000    0.000 
#    0.000    0.000    0.000    0.000    0.000    0.000 
#
# Total GULP energy -67126.434366 kJ/mol
# GULP energy per Si atom -5593.869530 kJ/mol
# Density = 2.810132 g / cm^3
# Si number density = 28.165426 Si / 1000 Ang^3
#
#
#
# Elastic Constant Matrix: (Units=GPa)
#
#
# Indices 1 2 3 4 5 6 
#
# 1 120.3815 39.6262 28.8109 0.0000 0.0000 0.0000
# 2 39.6262 73.0770 55.9731 0.0000 0.0000 0.0000
# 3 28.8109 55.9731 81.4995 0.0000 0.0000 0.0000
# 4 0.0000 0.0000 0.0000 40.3064 0.0000 0.0000
# 5 0.0000 0.0000 0.0000 0.0000 81.6211 0.0000
# 6 0.0000 0.0000 0.0000 0.0000 0.0000 42.3268
#
#
#
# Elastic Compliance Matrix: (Units=1/GPa)
#
#
# Indices 1 2 3 4 5 6 
#
# 1 0.010118 -0.005796 0.000404 0.000000 0.000000 0.000000
# 2 -0.005796 0.032192 -0.020060 0.000000 0.000000 0.000000
# 3 0.000404 -0.020060 0.025905 0.000000 0.000000 0.000000
# 4 0.000000 0.000000 0.000000 0.024810 0.000000 0.000000
# 5 0.000000 0.000000 0.000000 0.000000 0.012252 0.000000
# 6 0.000000 0.000000 0.000000 0.000000 0.000000 0.023626
#
#
# Mechanical properties :
#
#
# Convention : Reuss Voigt Hill
#
# Bulk Modulus (GPa) = 57.77067 58.19761 57.98414
# Shear Modulus (GPa) = 26.94295 42.88739 34.91517
#
# Velocity S-wave (km/s) = 3.09624 3.90641 3.52468
# Velocity P-wave (km/s) = 5.77391 6.40737 6.09887
#
# Compressibility (1/GPa) = 0.01730982
#
# Stress axis : x y z
#
# Youngs Moduli (GPa) = 98.83261 31.06345 38.60312
#
# Poissons Ratio (x) = 0.18003 -0.01558
# Poissons Ratio (y) = 0.57280 0.77439
# Poissons Ratio (z) = -0.03989 0.62315
#
# Static dielectric constant tensor:
#      x y z
#    x 2.003980 0.000000 0.000000 
#    y 0.000000 2.206310 0.000000 
#    z 0.000000 0.000000 2.203350 
# 
# From -- ./inp_files/367.got.cif
#   From: 2010.05.17/outbox.cif.g08.bks.cpg/sg20_1_cif.got.tgz:367.got - 2010.06.03 22:52:26.
