data_PCOD9319101
_publ_section_title
;
Structure prediction by ZEFSAII (Michael W. Deem and Ramdas Pophale) SiO2 
 PCOD9319101
Probable space group: C 2 2 21
;
_chemical_formula_sum "Si O2"
_cell_formula_units_Z 40
_cell_length_a 26.751231
_cell_length_b 8.532641
_cell_length_c 8.198845
_cell_angle_alpha 90.000000
_cell_angle_beta 90.000000
_cell_angle_gamma 90.000000
_cell_volume 1871.457295
_symmetry_space_group_name_H-M "C 2 2 21"
_symmetry_group_IT_number 20
_symmetry_cell_setting 'orthorhombic'
loop_
_space_group_symop_operation_xyz
x,y,z
-x,-y,1/2+z
x,-y,-z
-x,y,1/2-z
1/2+x,1/2+y,z
1/2-x,1/2-y,1/2+z
1/2+x,1/2-y,-z
1/2-x,1/2+y,1/2-z
loop_
_atom_site_type_symbol
_atom_site_label
_atom_site_fract_x
_atom_site_fract_y
_atom_site_fract_z
Si Si1 0.000000 0.344903 0.750000
Si Si2 0.426415 0.000000 0.000000
Si Si3 0.082599 0.821918 0.038791
Si Si4 0.230387 0.688826 0.529236
Si Si5 0.325210 0.206604 0.298162
Si Si6 0.141138 0.650322 0.745031
O O1 0.039264 0.444144 0.646851
O O2 0.033287 0.253438 0.883081
O O3 0.391115 0.868485 0.078896
O O4 0.126909 0.812906 0.171069
O O5 0.107739 0.732967 0.883228
O O6 0.071659 0.000000 0.000000
O O7 0.235470 0.500000 0.500000
O O8 0.283775 0.764836 0.563402
O O9 0.202737 0.747708 0.368404
O O10 0.193480 0.721506 0.682434
O O11 0.345099 0.028153 0.296351
#
# Coordination Sequence:
#
# PCOD9319101 Si02
#       6
#     4   4   8   8   8   8
#     4  12  26  44  74 102 132 180 232 292 350 400
#     4  12  22  46  76 106 130 170 242 286 346 406
#     4  12  27  45  67 100 142 181 229 285 350 406
#     4  10  21  39  66 102 141 178 228 281 343 403
#     4  11  21  41  66 101 134 184 231 277 336 406
#     4  11  22  45  72 101 138 180 230 285 337 412
#
# _framework density 21.373716999999999
#
# number of rings (size 3 to 8) (size 9 to 14) (size 15 to 20)
#    0.000    0.800    5.000    3.600    0.000    4.800 
#    0.000    7.000    0.000    0.000    0.000    0.000 
#    0.000    0.000    0.000    0.000    0.000    0.000 
#
# Total GULP energy -111813.030072 kJ/mol
# GULP energy per Si atom -5590.651504 kJ/mol
# Density = 2.132507 g / cm^3
# Si number density = 21.373717 Si / 1000 Ang^3
#
#
#
# Elastic Constant Matrix: (Units=GPa)
#
#
# Indices 1 2 3 4 5 6 
#
# 1 108.2271 9.0987 12.5539 0.0000 0.0000 0.0000
# 2 9.0987 27.7872 7.5750 0.0000 0.0000 0.0000
# 3 12.5539 7.5750 84.9521 0.0000 0.0000 0.0000
# 4 0.0000 0.0000 0.0000 26.3384 0.0000 0.0000
# 5 0.0000 0.0000 0.0000 0.0000 59.1769 0.0000
# 6 0.0000 0.0000 0.0000 0.0000 0.0000 10.7464
#
#
#
# Elastic Compliance Matrix: (Units=1/GPa)
#
#
# Indices 1 2 3 4 5 6 
#
# 1 0.009613 -0.002829 -0.001168 0.000000 0.000000 0.000000
# 2 -0.002829 0.037717 -0.002945 0.000000 0.000000 0.000000
# 3 -0.001168 -0.002945 0.012207 0.000000 0.000000 0.000000
# 4 0.000000 0.000000 0.000000 0.037967 0.000000 0.000000
# 5 0.000000 0.000000 0.000000 0.000000 0.016898 0.000000
# 6 0.000000 0.000000 0.000000 0.000000 0.000000 0.093054
#
#
# Mechanical properties :
#
#
# Convention : Reuss Voigt Hill
#
# Bulk Modulus (GPa) = 21.90507 31.04683 26.47595
# Shear Modulus (GPa) = 21.13633 32.03494 26.58564
#
# Velocity S-wave (km/s) = 3.14808 3.87563 3.53065
# Velocity P-wave (km/s) = 4.84610 5.88087 5.38838
#
# Compressibility (1/GPa) = 0.04565154
#
# Stress axis : x y z
#
# Youngs Moduli (GPa) = 104.02357 26.51324 81.92291
#
# Poissons Ratio (x) = 0.07501 0.09571
# Poissons Ratio (y) = 0.29431 0.24127
# Poissons Ratio (z) = 0.12153 0.07808
#
# Static dielectric constant tensor:
#      x y z
#    x 1.735230 0.000000 0.000000 
#    y 0.000000 1.747520 0.000000 
#    z 0.000000 0.000000 1.836130 
# 
# From -- ./inp_files/6184.got.cif
#   From: 2010.05.17/outbox.cif.g08.bks.cpg/sg20_4_cif.got.tgz:6184.got - 2010.06.03 22:52:26.
