data_PCOD9319879
_publ_section_title
;
Structure prediction by ZEFSAII (Michael W. Deem and Ramdas Pophale) SiO2 
 PCOD9319879
Probable space group: C 2 2 21
;
_chemical_formula_sum "Si O2"
_cell_formula_units_Z 52
_cell_length_a 17.380881
_cell_length_b 7.472351
_cell_length_c 19.533238
_cell_angle_alpha 90.000000
_cell_angle_beta 90.000000
_cell_angle_gamma 90.000000
_cell_volume 2536.899669
_symmetry_space_group_name_H-M "C 2 2 21"
_symmetry_group_IT_number 20
_symmetry_cell_setting 'orthorhombic'
loop_
_space_group_symop_operation_xyz
x,y,z
-x,-y,1/2+z
x,-y,-z
-x,y,1/2-z
1/2+x,1/2+y,z
1/2-x,1/2-y,1/2+z
1/2+x,1/2-y,-z
1/2-x,1/2+y,1/2-z
loop_
_atom_site_type_symbol
_atom_site_label
_atom_site_fract_x
_atom_site_fract_y
_atom_site_fract_z
Si Si1 0.644798 0.285765 0.796663
Si Si2 0.166631 0.000000 0.000000
Si Si3 0.637392 0.841658 0.359609
Si Si4 0.023084 0.494622 0.829007
Si Si5 0.931033 0.896823 0.366751
Si Si6 0.594702 0.519905 0.577860
Si Si7 0.774309 0.314342 0.902970
O O1 0.649844 0.222923 0.718498
O O2 0.613061 0.487463 0.808667
O O3 0.723115 0.256482 0.838128
O O4 0.581285 0.159206 0.831471
O O5 0.114396 0.063171 0.936761
O O6 0.219934 0.842060 0.968911
O O7 0.637037 0.663120 0.403487
O O8 0.555020 0.942139 0.365279
O O9 0.697869 0.986401 0.384325
O O10 0.000000 0.463391 0.750000
O O11 0.062726 0.314299 0.854479
O O12 0.019705 0.959009 0.374565
O O13 0.567511 0.500000 0.500000
O O14 0.654082 0.683421 0.585689
#
# Coordination Sequence:
#
# PCOD9319879 Si02
#       7
#     8   4   8   8   8   8   8
#     4  10  25  42  66 101 133 167 223 278 333 399
#     4  10  24  48  64  96 134 176 226 278 318 408
#     4  11  24  43  67 100 137 171 224 277 332 407
#     4  10  22  40  68 100 128 171 221 270 333 392
#     4  11  22  43  70  94 131 176 221 276 331 386
#     4  12  25  41  69  98 129 180 224 269 331 396
#     4  11  25  45  66  96 138 174 219 276 344 391
#
# _framework density 20.497461000000001
#
# number of rings (size 3 to 8) (size 9 to 14) (size 15 to 20)
#    0.000    1.231    3.846    0.923    4.308    3.692 
#    2.769    5.385    0.000    0.000    0.000    0.000 
#    0.000    0.000    0.000    0.000    0.000    0.000 
#
# Total GULP energy -145326.302791 kJ/mol
# GULP energy per Si atom -5589.473184 kJ/mol
# Density = 2.045081 g / cm^3
# Si number density = 20.497461 Si / 1000 Ang^3
#
#
#
# Elastic Constant Matrix: (Units=GPa)
#
#
# Indices 1 2 3 4 5 6 
#
# 1 64.3243 9.3818 11.1343 0.0000 0.0000 0.0000
# 2 9.3818 93.0677 24.1989 0.0000 0.0000 0.0000
# 3 11.1343 24.1989 30.9398 0.0000 0.0000 0.0000
# 4 0.0000 0.0000 0.0000 14.1180 0.0000 0.0000
# 5 0.0000 0.0000 0.0000 0.0000 24.5114 0.0000
# 6 0.0000 0.0000 0.0000 0.0000 0.0000 -13.2162
#
#
#
# Elastic Compliance Matrix: (Units=1/GPa)
#
#
# Indices 1 2 3 4 5 6 
#
# 1 0.016581 -0.000151 -0.005849 0.000000 0.000000 0.000000
# 2 -0.000151 0.013489 -0.010496 0.000000 0.000000 0.000000
# 3 -0.005849 -0.010496 0.042635 0.000000 0.000000 0.000000
# 4 0.000000 0.000000 0.000000 0.070832 0.000000 0.000000
# 5 0.000000 0.000000 0.000000 0.000000 0.040797 0.000000
# 6 0.000000 0.000000 0.000000 0.000000 0.000000 -0.075665
#
#
# Mechanical properties :
#
#
# Convention : Reuss Voigt Hill
#
# Bulk Modulus (GPa) = 25.18045 30.86242 28.02144
# Shear Modulus (GPa) = 32.27916 14.65707 23.46811
#
# Velocity S-wave (km/s) = 3.97267 2.67698 3.38735
# Velocity P-wave (km/s) = 5.77530 4.96431 5.38509
#
# Compressibility (1/GPa) = 0.03971334
#
# Stress axis : x y z
#
# Youngs Moduli (GPa) = 60.31135 74.13347 23.45489
#
# Poissons Ratio (x) = 0.01116 0.13719
# Poissons Ratio (y) = 0.00908 0.24618
# Poissons Ratio (z) = 0.35276 0.77811
#
# Static dielectric constant tensor:
#      x y z
#    x 1.720650 0.000000 0.000000 
#    y 0.000000 1.711480 0.000000 
#    z 0.000000 0.000000 1.724180 
# 
# From -- ./inp_files/27898.got.cif
#   From: 2010.05.17/outbox.cif.g08.bks.cpg/sg20_14_cif.got.tgz:27898.got - 2010.06.03 22:52:26.
