data_PCOD9319418
_publ_section_title
;
Structure prediction by ZEFSAII (Michael W. Deem and Ramdas Pophale) SiO2 
 PCOD9319418
Probable space group: C 2 2 21
;
_chemical_formula_sum "Si O2"
_cell_formula_units_Z 48
_cell_length_a 30.070028
_cell_length_b 9.089524
_cell_length_c 6.978172
_cell_angle_alpha 90.000000
_cell_angle_beta 90.000000
_cell_angle_gamma 90.000000
_cell_volume 1907.289610
_symmetry_space_group_name_H-M "C 2 2 21"
_symmetry_group_IT_number 20
_symmetry_cell_setting 'orthorhombic'
loop_
_space_group_symop_operation_xyz
x,y,z
-x,-y,1/2+z
x,-y,-z
-x,y,1/2-z
1/2+x,1/2+y,z
1/2-x,1/2-y,1/2+z
1/2+x,1/2-y,-z
1/2-x,1/2+y,1/2-z
loop_
_atom_site_type_symbol
_atom_site_label
_atom_site_fract_x
_atom_site_fract_y
_atom_site_fract_z
Si Si1 0.292107 0.761699 0.510226
Si Si2 0.509707 0.325182 0.473634
Si Si3 0.694128 0.171031 0.563937
Si Si4 0.901859 0.331350 0.923308
Si Si5 0.648540 0.500000 0.000000
Si Si6 0.147388 0.500000 0.000000
Si Si7 0.414107 0.760587 0.463549
O O1 0.305255 0.794437 0.290578
O O2 0.239470 0.752910 0.504291
O O3 0.315847 0.614804 0.588795
O O4 0.318043 0.895091 0.611906
O O5 0.510227 0.500000 0.500000
O O6 0.500000 0.297213 0.250000
O O7 0.557166 0.255588 0.518009
O O8 0.466046 0.257604 0.573930
O O9 0.646864 0.223489 0.483983
O O10 0.699392 0.000000 0.500000
O O11 0.907611 0.293828 0.694570
O O12 0.905570 0.500000 0.000000
O O13 0.613246 0.614116 0.091861
O O14 0.112920 0.398832 0.117537
#
# Coordination Sequence:
#
# PCOD9319418 Si02
#       7
#     8   8   8   8   4   4   8
#     4  11  25  41  68  97 132 178 220 275 325 390
#     4  10  22  43  64  96 127 170 215 269 326 387
#     4  11  25  43  65  95 135 171 223 268 330 383
#     4  10  23  42  64  89 134 171 219 268 324 381
#     4  10  22  42  68  94 130 170 224 268 332 386
#     4  10  22  38  64  96 130 172 226 262 334 382
#     4  10  21  42  67  93 131 169 219 272 325 395
#
# _framework density 25.166604
#
# number of rings (size 3 to 8) (size 9 to 14) (size 15 to 20)
#    0.000    1.667    1.667    2.000    8.167    2.667 
#    4.500    0.000    0.000    0.000    0.000    0.000 
#    0.000    0.000    0.000    0.000    0.000    0.000 
#
# Total GULP energy -133923.374458 kJ/mol
# GULP energy per Si atom -5580.140602 kJ/mol
# Density = 2.510932 g / cm^3
# Si number density = 25.166604 Si / 1000 Ang^3
#
#
#
# Elastic Constant Matrix: (Units=GPa)
#
#
# Indices 1 2 3 4 5 6 
#
# 1 319.4266 93.9867 33.0307 0.0000 0.0000 0.0000
# 2 93.9867 144.2440 0.8920 0.0000 0.0000 0.0000
# 3 33.0307 0.8920 132.4590 0.0000 0.0000 0.0000
# 4 0.0000 0.0000 0.0000 14.7667 0.0000 0.0000
# 5 0.0000 0.0000 0.0000 0.0000 27.5743 0.0000
# 6 0.0000 0.0000 0.0000 0.0000 0.0000 54.1924
#
#
#
# Elastic Compliance Matrix: (Units=1/GPa)
#
#
# Indices 1 2 3 4 5 6 
#
# 1 0.003996 -0.002598 -0.000979 0.000000 0.000000 0.000000
# 2 -0.002598 0.008622 0.000590 0.000000 0.000000 0.000000
# 3 -0.000979 0.000590 0.007790 0.000000 0.000000 0.000000
# 4 0.000000 0.000000 0.000000 0.067720 0.000000 0.000000
# 5 0.000000 0.000000 0.000000 0.000000 0.036266 0.000000
# 6 0.000000 0.000000 0.000000 0.000000 0.000000 0.018453
#
#
# Mechanical properties :
#
#
# Convention : Reuss Voigt Hill
#
# Bulk Modulus (GPa) = 69.28351 94.66092 81.97222
# Shear Modulus (GPa) = 32.54543 50.52135 41.53339
#
# Velocity S-wave (km/s) = 3.60001 4.48535 4.06684
# Velocity P-wave (km/s) = 6.69849 8.03242 7.39559
#
# Compressibility (1/GPa) = 0.01443345
#
# Stress axis : x y z
#
# Youngs Moduli (GPa) = 250.23694 115.98596 128.37513
#
# Poissons Ratio (x) = 0.30131 0.12568
# Poissons Ratio (y) = 0.65007 -0.07571
# Poissons Ratio (z) = 0.24499 -0.06840
#
# Static dielectric constant tensor:
#      x y z
#    x 1.958370 0.000000 0.000000 
#    y 0.000000 2.061150 0.000000 
#    z 0.000000 0.000000 2.177480 
# 
# From -- ./inp_files/6565.got.cif
#   From: 2010.05.17/outbox.cif.g08.bks.cpg/sg20_4_cif.got.tgz:6565.got - 2010.06.03 22:52:26.
