data_PCOD9319335
_publ_section_title
;
Structure prediction by ZEFSAII (Michael W. Deem and Ramdas Pophale) SiO2 
 PCOD9319335
Probable space group: C 2 2 21
;
_chemical_formula_sum "Si O2"
_cell_formula_units_Z 40
_cell_length_a 13.232901
_cell_length_b 7.875700
_cell_length_c 18.608013
_cell_angle_alpha 90.000000
_cell_angle_beta 90.000000
_cell_angle_gamma 90.000000
_cell_volume 1939.296568
_symmetry_space_group_name_H-M "C 2 2 21"
_symmetry_group_IT_number 20
_symmetry_cell_setting 'orthorhombic'
loop_
_space_group_symop_operation_xyz
x,y,z
-x,-y,1/2+z
x,-y,-z
-x,y,1/2-z
1/2+x,1/2+y,z
1/2-x,1/2-y,1/2+z
1/2+x,1/2-y,-z
1/2-x,1/2+y,1/2-z
loop_
_atom_site_type_symbol
_atom_site_label
_atom_site_fract_x
_atom_site_fract_y
_atom_site_fract_z
Si Si1 0.500000 0.981885 0.750000
Si Si2 0.819945 0.947712 0.347673
Si Si3 0.784192 0.747389 0.084296
Si Si4 0.856261 0.500000 0.500000
Si Si5 0.305891 0.779518 0.265950
Si Si6 0.992464 0.283977 0.604064
O O1 0.518116 0.865447 0.681035
O O2 0.598485 0.097572 0.761244
O O3 0.758423 0.800511 0.306607
O O4 0.920584 0.876355 0.382532
O O5 0.752392 0.052407 0.404701
O O6 0.840072 0.089222 0.285975
O O7 0.713811 0.850293 0.030530
O O8 0.762067 0.823649 0.164146
O O9 0.901703 0.757203 0.066621
O O10 0.927762 0.421239 0.560641
#
# Coordination Sequence:
#
# PCOD9319335 Si02
#       6
#     4   8   8   4   8   8
#     4  12  20  44  74 104 140 176 238 300 360 410
#     4  10  22  42  69 102 140 171 235 282 358 409
#     4  10  25  45  66 100 136 187 228 293 348 425
#     4  12  28  46  66 100 146 186 248 282 356 432
#     4  10  21  41  68 108 134 176 229 300 349 419
#     4  12  24  46  74  99 142 190 231 298 354 422
#
# _framework density 20.626038000000001
#
# number of rings (size 3 to 8) (size 9 to 14) (size 15 to 20)
#    1.200    0.000    4.000    2.400    0.000    6.400 
#    0.000    0.000    0.000    0.000    0.000    0.000 
#    0.000    0.000    0.000    0.000    0.000    0.000 
#
# Total GULP energy -111678.487409 kJ/mol
# GULP energy per Si atom -5583.924370 kJ/mol
# Density = 2.057909 g / cm^3
# Si number density = 20.626038 Si / 1000 Ang^3
#
#
#
# Elastic Constant Matrix: (Units=GPa)
#
#
# Indices 1 2 3 4 5 6 
#
# 1 124.3060 24.9329 5.1330 0.0000 0.0000 0.0000
# 2 24.9329 60.9515 15.7688 0.0000 0.0000 0.0000
# 3 5.1330 15.7688 40.9532 0.0000 0.0000 0.0000
# 4 0.0000 0.0000 0.0000 0.9454 0.0000 0.0000
# 5 0.0000 0.0000 0.0000 0.0000 15.6740 0.0000
# 6 0.0000 0.0000 0.0000 0.0000 0.0000 -0.3450
#
#
#
# Elastic Compliance Matrix: (Units=1/GPa)
#
#
# Indices 1 2 3 4 5 6 
#
# 1 0.008767 -0.003667 0.000313 0.000000 0.000000 0.000000
# 2 -0.003667 0.019756 -0.007147 0.000000 0.000000 0.000000
# 3 0.000313 -0.007147 0.027131 0.000000 0.000000 0.000000
# 4 0.000000 0.000000 0.000000 1.057776 0.000000 0.000000
# 5 0.000000 0.000000 0.000000 0.000000 0.063800 0.000000
# 6 0.000000 0.000000 0.000000 0.000000 0.000000 -2.898203
#
#
# Mechanical properties :
#
#
# Convention : Reuss Voigt Hill
#
# Bulk Modulus (GPa) = 28.85905 35.32002 32.08953
# Shear Modulus (GPa) = -2.96135 15.27992 6.15929
#
# Velocity S-wave (km/s) = -1.19952 2.72473 1.72993
# Velocity P-wave (km/s) = 3.47900 5.20193 4.42513
#
# Compressibility (1/GPa) = 0.03465118
#
# Stress axis : x y z
#
# Youngs Moduli (GPa) = 114.05983 50.61820 36.85846
#
# Poissons Ratio (x) = 0.18564 -0.01155
# Poissons Ratio (y) = 0.41830 0.26343
# Poissons Ratio (z) = -0.03573 0.36178
#
# Static dielectric constant tensor:
#      x y z
#    x 1.729750 0.000000 0.000000 
#    y 0.000000 1.744360 0.000000 
#    z 0.000000 0.000000 1.739950 
# 
# From -- ./inp_files/24117.got.cif
#   From: 2010.05.17/outbox.cif.g08.bks.cpg/sg20_13_cif.got.tgz:24117.got - 2010.06.03 22:52:26.
