data_PCOD9319225
_publ_section_title
;
Structure prediction by ZEFSAII (Michael W. Deem and Ramdas Pophale) SiO2 
 PCOD9319225
Probable space group: C 2 2 21
;
_chemical_formula_sum "Si O2"
_cell_formula_units_Z 60
_cell_length_a 5.472696
_cell_length_b 25.223364
_cell_length_c 19.979623
_cell_angle_alpha 90.000000
_cell_angle_beta 90.000000
_cell_angle_gamma 90.000000
_cell_volume 2757.983228
_symmetry_space_group_name_H-M "C 2 2 21"
_symmetry_group_IT_number 20
_symmetry_cell_setting 'orthorhombic'
loop_
_space_group_symop_operation_xyz
x,y,z
-x,-y,1/2+z
x,-y,-z
-x,y,1/2-z
1/2+x,1/2+y,z
1/2-x,1/2-y,1/2+z
1/2+x,1/2-y,-z
1/2-x,1/2+y,1/2-z
loop_
_atom_site_type_symbol
_atom_site_label
_atom_site_fract_x
_atom_site_fract_y
_atom_site_fract_z
Si Si1 0.672982 0.037193 0.690565
Si Si2 0.609246 0.200210 0.918597
Si Si3 0.000029 0.744622 0.173830
Si Si4 0.322563 0.148933 0.813738
Si Si5 0.184131 0.802063 0.559921
Si Si6 0.980778 0.091696 0.105172
Si Si7 0.016344 0.470340 0.570153
Si Si8 0.000000 0.945078 0.750000
O O1 0.500000 0.054270 0.750000
O O2 0.817637 0.092497 0.680716
O O3 0.525826 0.015850 0.627207
O O4 0.805703 0.986218 0.720217
O O5 0.489545 0.151902 0.879721
O O6 0.416594 0.242714 0.946478
O O7 0.756566 0.233774 0.862399
O O8 0.745452 0.181909 0.984817
O O9 0.155606 0.799109 0.181889
O O10 0.117527 0.704719 0.119452
O O11 0.000000 0.722508 0.250000
O O12 0.500000 0.156647 0.750000
O O13 0.002479 0.847428 0.584020
O O14 0.733987 0.063745 0.076148
O O15 0.232251 0.062845 0.082908
O O16 0.936838 0.088741 0.185167
O O17 0.027056 0.500000 0.500000
#
# Coordination Sequence:
#
# PCOD9319225 Si02
#       8
#     8   8   8   8   8   8   8   4
#     4  10  21  40  66  93 132 176 218 281 343 407
#     4  11  23  43  64  95 135 170 231 283 348 416
#     4  11  23  42  64  96 137 170 227 292 343 420
#     4  10  22  37  63  99 126 174 222 277 347 418
#     4  11  26  43  69  97 133 186 229 285 355 418
#     4  11  26  45  74  99 141 186 238 284 355 421
#     4  11  25  46  67 105 140 177 234 291 345 414
#     4  10  22  44  66 100 136 178 238 286 338 424
#
# _framework density 21.755026999999998
#
# number of rings (size 3 to 8) (size 9 to 14) (size 15 to 20)
#    0.000    1.333    4.000    0.400    4.667    2.133 
#    2.400    0.000    0.000    0.000    0.000    0.000 
#    0.000    0.000    0.000    0.000    0.000    0.000 
#
# Total GULP energy -167222.668720 kJ/mol
# GULP energy per Si atom -5574.088957 kJ/mol
# Density = 2.170551 g / cm^3
# Si number density = 21.755027 Si / 1000 Ang^3
#
#
#
# Elastic Constant Matrix: (Units=GPa)
#
#
# Indices 1 2 3 4 5 6 
#
# 1 47.8952 -3.9531 3.9396 0.0000 0.0000 0.0000
# 2 -3.9531 61.1734 10.1583 0.0000 0.0000 0.0000
# 3 3.9396 10.1583 132.5491 0.0000 0.0000 0.0000
# 4 0.0000 0.0000 0.0000 14.1835 0.0000 0.0000
# 5 0.0000 0.0000 0.0000 0.0000 29.5848 0.0000
# 6 0.0000 0.0000 0.0000 0.0000 0.0000 56.4535
#
#
#
# Elastic Compliance Matrix: (Units=1/GPa)
#
#
# Indices 1 2 3 4 5 6 
#
# 1 0.021062 0.001484 -0.000740 0.000000 0.000000 0.000000
# 2 0.001484 0.016662 -0.001321 0.000000 0.000000 0.000000
# 3 -0.000740 -0.001321 0.007668 0.000000 0.000000 0.000000
# 4 0.000000 0.000000 0.000000 0.070505 0.000000 0.000000
# 5 0.000000 0.000000 0.000000 0.000000 0.033801 0.000000
# 6 0.000000 0.000000 0.000000 0.000000 0.000000 0.017714
#
#
# Mechanical properties :
#
#
# Convention : Reuss Voigt Hill
#
# Bulk Modulus (GPa) = 22.60485 29.10081 25.85283
# Shear Modulus (GPa) = 27.27598 35.47586 31.37592
#
# Velocity S-wave (km/s) = 3.54471 4.04257 3.80180
# Velocity P-wave (km/s) = 5.21215 5.93258 5.58399
#
# Compressibility (1/GPa) = 0.04423830
#
# Stress axis : x y z
#
# Youngs Moduli (GPa) = 47.47834 60.01591 130.41886
#
# Poissons Ratio (x) = -0.08906 0.09648
# Poissons Ratio (y) = -0.07045 0.17229
# Poissons Ratio (z) = 0.03512 0.07928
#
# Static dielectric constant tensor:
#      x y z
#    x 1.849580 0.000000 0.000000 
#    y 0.000000 1.884430 0.000000 
#    z 0.000000 0.000000 1.846140 
# 
# From -- ./inp_files/22915.got.cif
#   From: 2010.05.17/outbox.cif.g08.bks.cpg/sg20_12_cif.got.tgz:22915.got - 2010.06.03 22:52:26.
