data_PCOD9319808
_publ_section_title
;
Structure prediction by ZEFSAII (Michael W. Deem and Ramdas Pophale) SiO2 
 PCOD9319808
Probable space group: C 2 2 21
;
_chemical_formula_sum "Si O2"
_cell_formula_units_Z 48
_cell_length_a 12.661694
_cell_length_b 7.671828
_cell_length_c 23.866976
_cell_angle_alpha 90.000000
_cell_angle_beta 90.000000
_cell_angle_gamma 90.000000
_cell_volume 2318.398395
_symmetry_space_group_name_H-M "C 2 2 21"
_symmetry_group_IT_number 20
_symmetry_cell_setting 'orthorhombic'
loop_
_space_group_symop_operation_xyz
x,y,z
-x,-y,1/2+z
x,-y,-z
-x,y,1/2-z
1/2+x,1/2+y,z
1/2-x,1/2-y,1/2+z
1/2+x,1/2-y,-z
1/2-x,1/2+y,1/2-z
loop_
_atom_site_type_symbol
_atom_site_label
_atom_site_fract_x
_atom_site_fract_y
_atom_site_fract_z
Si Si1 0.561483 0.295134 0.689671
Si Si2 0.711486 0.369240 0.314941
Si Si3 0.241212 0.817412 0.437511
Si Si4 0.021277 0.311778 0.069407
Si Si5 0.148632 0.500000 0.500000
Si Si6 0.376566 0.039147 0.243020
Si Si7 0.936149 0.000000 0.000000
O O1 0.500000 0.307729 0.750000
O O2 0.627797 0.472518 0.683616
O O3 0.495581 0.260778 0.632565
O O4 0.630042 0.117955 0.697783
O O5 0.722470 0.270684 0.373342
O O6 0.821001 0.458712 0.297343
O O7 0.679222 0.218646 0.272138
O O8 0.360996 0.884511 0.439698
O O9 0.220084 0.659126 0.479616
O O10 0.147110 0.949560 0.451709
O O11 0.005050 0.155172 0.024746
O O12 0.929304 0.444902 0.050842
O O13 0.500000 0.075370 0.250000
#
# Coordination Sequence:
#
# PCOD9319808 Si02
#       7
#     8   8   8   8   4   8   4
#     4  11  23  43  68  99 136 178 217 275 336 396
#     4  12  23  42  67  96 132 176 223 266 328 397
#     4  11  22  40  65  91 124 170 209 269 332 381
#     4  11  22  42  65  94 130 167 216 271 328 390
#     4  10  24  42  66  98 126 164 224 272 326 396
#     4  11  24  42  63  94 134 172 216 265 321 391
#     4  10  22  40  62  92 126 162 218 264 326 394
#
# _framework density 20.703948
#
# number of rings (size 3 to 8) (size 9 to 14) (size 15 to 20)
#    0.000    1.000    3.333    4.500    0.000    0.000 
#    0.000    0.000    0.000    0.000    0.000    0.000 
#    0.000    0.000    0.000    0.000    0.000    0.000 
#
# Total GULP energy -133865.369072 kJ/mol
# GULP energy per Si atom -5577.723711 kJ/mol
# Density = 2.065683 g / cm^3
# Si number density = 20.703948 Si / 1000 Ang^3
#
#
#
# Elastic Constant Matrix: (Units=GPa)
#
#
# Indices 1 2 3 4 5 6 
#
# 1 82.4199 9.6371 33.2860 0.0000 0.0000 0.0000
# 2 9.6371 57.2198 3.4023 0.0000 0.0000 0.0000
# 3 33.2860 3.4023 87.5838 0.0000 0.0000 0.0000
# 4 0.0000 0.0000 0.0000 25.3159 0.0000 0.0000
# 5 0.0000 0.0000 0.0000 0.0000 25.0758 0.0000
# 6 0.0000 0.0000 0.0000 0.0000 0.0000 3.8460
#
#
#
# Elastic Compliance Matrix: (Units=1/GPa)
#
#
# Indices 1 2 3 4 5 6 
#
# 1 0.014588 -0.002132 -0.005461 0.000000 0.000000 0.000000
# 2 -0.002132 0.017829 0.000118 0.000000 0.000000 0.000000
# 3 -0.005461 0.000118 0.013489 0.000000 0.000000 0.000000
# 4 0.000000 0.000000 0.000000 0.039501 0.000000 0.000000
# 5 0.000000 0.000000 0.000000 0.000000 0.039879 0.000000
# 6 0.000000 0.000000 0.000000 0.000000 0.000000 0.260013
#
#
# Mechanical properties :
#
#
# Convention : Reuss Voigt Hill
#
# Bulk Modulus (GPa) = 32.30635 35.54160 33.92397
# Shear Modulus (GPa) = 12.17826 22.90741 17.54284
#
# Velocity S-wave (km/s) = 2.42793 3.32991 2.91403
# Velocity P-wave (km/s) = 4.84744 5.65581 5.26716
#
# Compressibility (1/GPa) = 0.03095367
#
# Stress axis : x y z
#
# Youngs Moduli (GPa) = 68.55009 56.08973 74.13672
#
# Poissons Ratio (x) = 0.11959 0.40488
# Poissons Ratio (y) = 0.14616 -0.00873
# Poissons Ratio (z) = 0.37437 -0.00660
#
# Static dielectric constant tensor:
#      x y z
#    x 1.738870 0.000000 0.000000 
#    y 0.000000 1.725790 0.000000 
#    z 0.000000 0.000000 1.781870 
# 
# From -- ./inp_files/28762.got.cif
#   From: 2010.05.17/outbox.cif.g08.bks.cpg/sg20_15_cif.got.tgz:28762.got - 2010.06.03 22:52:26.
