data_PCOD9319457
_publ_section_title
;
Structure prediction by ZEFSAII (Michael W. Deem and Ramdas Pophale) SiO2 
 PCOD9319457
Probable space group: C 2 2 21
;
_chemical_formula_sum "Si O2"
_cell_formula_units_Z 32
_cell_length_a 5.350785
_cell_length_b 14.393365
_cell_length_c 17.204439
_cell_angle_alpha 90.000000
_cell_angle_beta 90.000000
_cell_angle_gamma 90.000000
_cell_volume 1325.013660
_symmetry_space_group_name_H-M "C 2 2 21"
_symmetry_group_IT_number 20
_symmetry_cell_setting 'orthorhombic'
loop_
_space_group_symop_operation_xyz
x,y,z
-x,-y,1/2+z
x,-y,-z
-x,y,1/2-z
1/2+x,1/2+y,z
1/2-x,1/2-y,1/2+z
1/2+x,1/2-y,-z
1/2-x,1/2+y,1/2-z
loop_
_atom_site_type_symbol
_atom_site_label
_atom_site_fract_x
_atom_site_fract_y
_atom_site_fract_z
Si Si1 0.833257 0.516517 0.593105
Si Si2 0.162674 0.085921 0.107154
Si Si3 0.337783 0.701509 0.530859
Si Si4 0.507448 0.790594 0.159519
O O1 0.836387 0.500000 0.500000
O O2 0.579387 0.474131 0.626954
O O3 0.076067 0.462275 0.625694
O O4 0.856670 0.624264 0.615641
O O5 0.123011 0.188632 0.143590
O O6 0.153243 0.104210 0.013392
O O7 0.589470 0.752327 0.506814
O O8 0.269689 0.706371 0.620787
O O9 0.500000 0.808878 0.250000
#
# Coordination Sequence:
#
# PCOD9319457 Si02
#       4
#     8   8   8   8
#     4  12  26  44  77 107 139 191 250 298 357 444
#     4  11  25  46  74 103 144 188 245 297 362 434
#     4  10  21  42  73 102 134 187 244 291 351 445
#     4  11  27  47  74 111 152 193 242 314 376 430
#
# _framework density 24.150694999999999
#
# number of rings (size 3 to 8) (size 9 to 14) (size 15 to 20)
#    0.000    1.000    2.500    3.750    7.000    4.000 
#    0.000   17.500    0.000    0.000    0.000    0.000 
#    0.000    0.000    0.000    0.000    0.000    0.000 
#
# Total GULP energy -89590.854323 kJ/mol
# GULP energy per Si atom -5599.428395 kJ/mol
# Density = 2.409573 g / cm^3
# Si number density = 24.150695 Si / 1000 Ang^3
#
#
#
# Elastic Constant Matrix: (Units=GPa)
#
#
# Indices 1 2 3 4 5 6 
#
# 1 187.2921 77.3161 16.4021 0.0000 0.0000 0.0000
# 2 77.3161 179.9175 41.0710 0.0000 0.0000 0.0000
# 3 16.4021 41.0710 122.0500 0.0000 0.0000 0.0000
# 4 0.0000 0.0000 0.0000 22.2697 0.0000 0.0000
# 5 0.0000 0.0000 0.0000 0.0000 10.0537 0.0000
# 6 0.0000 0.0000 0.0000 0.0000 0.0000 48.8294
#
#
#
# Elastic Compliance Matrix: (Units=1/GPa)
#
#
# Indices 1 2 3 4 5 6 
#
# 1 0.006491 -0.002806 0.000072 0.000000 0.000000 0.000000
# 2 -0.002806 0.007233 -0.002057 0.000000 0.000000 0.000000
# 3 0.000072 -0.002057 0.008876 0.000000 0.000000 0.000000
# 4 0.000000 0.000000 0.000000 0.044904 0.000000 0.000000
# 5 0.000000 0.000000 0.000000 0.000000 0.099466 0.000000
# 6 0.000000 0.000000 0.000000 0.000000 0.000000 0.020479
#
#
# Mechanical properties :
#
#
# Convention : Reuss Voigt Hill
#
# Bulk Modulus (GPa) = 76.81393 84.31534 80.56464
# Shear Modulus (GPa) = 24.82975 39.86194 32.34585
#
# Velocity S-wave (km/s) = 3.20991 4.06710 3.66366
# Velocity P-wave (km/s) = 6.75375 7.55269 7.16436
#
# Compressibility (1/GPa) = 0.01301847
#
# Stress axis : x y z
#
# Youngs Moduli (GPa) = 154.05318 138.24639 112.66440
#
# Poissons Ratio (x) = 0.38791 -0.00810
# Poissons Ratio (y) = 0.43226 0.23176
# Poissons Ratio (z) = -0.01107 0.28438
#
# Static dielectric constant tensor:
#      x y z
#    x 1.991150 0.000000 0.000000 
#    y 0.000000 1.954550 0.000000 
#    z 0.000000 0.000000 1.963590 
# 
# From -- ./inp_files/25887.got.cif
#   From: 2010.05.17/outbox.cif.g08.bks.cpg/sg20_13_cif.got.tgz:25887.got - 2010.06.03 22:52:26.
