data_PCOD9319590
_publ_section_title
;
Structure prediction by ZEFSAII (Michael W. Deem and Ramdas Pophale) SiO2 
 PCOD9319590
Probable space group: C 2 2 21
;
_chemical_formula_sum "Si O2"
_cell_formula_units_Z 60
_cell_length_a 24.402895
_cell_length_b 32.727474
_cell_length_c 5.207307
_cell_angle_alpha 90.000000
_cell_angle_beta 90.000000
_cell_angle_gamma 90.000000
_cell_volume 4158.790280
_symmetry_space_group_name_H-M "C 2 2 21"
_symmetry_group_IT_number 20
_symmetry_cell_setting 'orthorhombic'
loop_
_space_group_symop_operation_xyz
x,y,z
-x,-y,1/2+z
x,-y,-z
-x,y,1/2-z
1/2+x,1/2+y,z
1/2-x,1/2-y,1/2+z
1/2+x,1/2-y,-z
1/2-x,1/2+y,1/2-z
loop_
_atom_site_type_symbol
_atom_site_label
_atom_site_fract_x
_atom_site_fract_y
_atom_site_fract_z
Si Si1 0.396143 0.187086 0.534945
Si Si2 0.826526 0.590101 0.017425
Si Si3 0.066216 0.648371 0.459342
Si Si4 0.210530 0.626910 0.980046
Si Si5 0.402046 0.025496 0.758132
Si Si6 0.677439 0.260608 0.105465
Si Si7 0.784063 0.799205 0.892248
Si Si8 0.500000 0.086015 0.750000
O O1 0.425069 0.179957 0.806397
O O2 0.342947 0.156821 0.530416
O O3 0.372987 0.231756 0.471668
O O4 0.434609 0.171990 0.306020
O O5 0.878845 0.620327 0.038167
O O6 0.786093 0.608273 0.803091
O O7 0.851381 0.548925 0.894121
O O8 0.800842 0.592913 0.300843
O O9 0.019445 0.616102 0.526552
O O10 0.260986 0.655899 0.052505
O O11 0.448120 0.058383 0.677371
O O12 0.388835 0.000000 0.500000
O O13 0.426243 0.000000 0.000000
O O14 0.730258 0.230225 0.108397
O O15 0.677431 0.281939 0.381898
O O16 0.688631 0.293337 0.883247
#
# Coordination Sequence:
#
# PCOD9319590 Si02
#       8
#     8   8   8   8   8   8   8   4
#     4   9  16  26  37  50  68  89 107 125 153 194
#     4   9  17  28  40  52  67  85 104 129 162 209
#     4   9  18  28  40  52  64  84 107 133 170 208
#     4   9  15  25  38  52  69  87 107 125 148 184
#     4  11  22  34  46  58  70  85 107 141 191 238
#     4   9  15  22  32  49  71  89 107 125 143 171
#     4   9  15  21  33  51  69  89 107 125 143 166
#     4  10  22  34  46  58  70  82 110 152 190 230
#
# _framework density 14.427272
#
# number of rings (size 3 to 8) (size 9 to 14) (size 15 to 20)
#    0.000    2.667    0.000    2.800    0.000   11.200 
#    0.000    0.000    0.000    0.000    0.000    0.000 
#    0.000    0.000    0.000    0.000    0.000    0.000 
#
# Total GULP energy -167165.246264 kJ/mol
# GULP energy per Si atom -5572.174875 kJ/mol
# Density = 1.439443 g / cm^3
# Si number density = 14.427272 Si / 1000 Ang^3
#
#
#
# Elastic Constant Matrix: (Units=GPa)
#
#
# Indices 1 2 3 4 5 6 
#
# 1 10.7444 14.4298 -1.4641 0.0000 0.0000 0.0000
# 2 14.4298 24.3583 -5.3626 0.0000 0.0000 0.0000
# 3 -1.4641 -5.3626 54.6419 0.0000 0.0000 0.0000
# 4 0.0000 0.0000 0.0000 11.6727 0.0000 0.0000
# 5 0.0000 0.0000 0.0000 0.0000 11.8257 0.0000
# 6 0.0000 0.0000 0.0000 0.0000 0.0000 13.5547
#
#
#
# Elastic Compliance Matrix: (Units=1/GPa)
#
#
# Indices 1 2 3 4 5 6 
#
# 1 0.466999 -0.279943 -0.014962 0.000000 0.000000 0.000000
# 2 -0.279943 0.209773 0.013087 0.000000 0.000000 0.000000
# 3 -0.014962 0.013087 0.019184 0.000000 0.000000 0.000000
# 4 0.000000 0.000000 0.000000 0.085670 0.000000 0.000000
# 5 0.000000 0.000000 0.000000 0.000000 0.084561 0.000000
# 6 0.000000 0.000000 0.000000 0.000000 0.000000 0.073775
#
#
# Mechanical properties :
#
#
# Convention : Reuss Voigt Hill
#
# Bulk Modulus (GPa) = 7.55741 11.66119 9.60930
# Shear Modulus (GPa) = 3.23059 12.88673 8.05866
#
# Velocity S-wave (km/s) = 1.49803 2.99192 2.36598
# Velocity P-wave (km/s) = 2.87085 4.47613 3.76015
#
# Compressibility (1/GPa) = 0.13232047
#
# Stress axis : x y z
#
# Youngs Moduli (GPa) = 2.14133 4.76707 52.12557
#
# Poissons Ratio (x) = 1.33451 0.77988
# Poissons Ratio (y) = 0.59945 -0.68215
# Poissons Ratio (z) = 0.03204 -0.06239
#
# Static dielectric constant tensor:
#      x y z
#    x 1.474020 0.000000 0.000000 
#    y 0.000000 1.495020 0.000000 
#    z 0.000000 0.000000 1.514020 
# 
# From -- ./inp_files/3946.got.cif
#   From: 2010.05.17/outbox.cif.g08.bks.cpg/sg20_2_cif.got.tgz:3946.got - 2010.06.03 22:52:26.
