data_PCOD9319868
_publ_section_title
;
Structure prediction by ZEFSAII (Michael W. Deem and Ramdas Pophale) SiO2 
 PCOD9319868
Probable space group: C 2 2 21
;
_chemical_formula_sum "Si O2"
_cell_formula_units_Z 32
_cell_length_a 23.696364
_cell_length_b 11.343959
_cell_length_c 5.138469
_cell_angle_alpha 90.000000
_cell_angle_beta 90.000000
_cell_angle_gamma 90.000000
_cell_volume 1381.274841
_symmetry_space_group_name_H-M "C 2 2 21"
_symmetry_group_IT_number 20
_symmetry_cell_setting 'orthorhombic'
loop_
_space_group_symop_operation_xyz
x,y,z
-x,-y,1/2+z
x,-y,-z
-x,y,1/2-z
1/2+x,1/2+y,z
1/2-x,1/2-y,1/2+z
1/2+x,1/2-y,-z
1/2-x,1/2+y,1/2-z
loop_
_atom_site_type_symbol
_atom_site_label
_atom_site_fract_x
_atom_site_fract_y
_atom_site_fract_z
Si Si1 0.434289 0.746499 0.329634
Si Si2 0.459788 0.000000 0.500000
Si Si3 0.174716 0.244644 0.415115
Si Si4 0.714015 0.873339 0.914025
Si Si5 0.959691 0.000000 0.500000
O O1 0.500000 0.746921 0.250000
O O2 0.392289 0.733786 0.084507
O O3 0.425909 0.623476 0.483675
O O4 0.426918 0.876170 0.458633
O O5 0.500000 0.016695 0.250000
O O6 0.218277 0.138171 0.453690
O O7 0.195058 0.340449 0.624769
O O8 0.187796 0.282408 0.118921
O O9 0.694975 0.000000 0.000000
O O10 0.000000 0.007899 0.750000
#
# Coordination Sequence:
#
# PCOD9319868 Si02
#       5
#     8   4   8   8   4
#     4  10  23  45  67 102 143 184 232 287 354 426
#     4  10  22  40  66  94 138 186 232 282 342 418
#     4  10  23  42  69 100 131 178 225 289 356 407
#     4  10  22  45  67  97 132 174 233 285 348 413
#     4  10  22  42  66  94 142 192 234 280 342 420
#
# _framework density 23.167005
#
# number of rings (size 3 to 8) (size 9 to 14) (size 15 to 20)
#    0.000    2.000    0.000    1.500    1.750    8.000 
#   31.500    0.000    0.000    0.000    0.000    0.000 
#    0.000    0.000    0.000    0.000    0.000    0.000 
#
# Total GULP energy -89283.757877 kJ/mol
# GULP energy per Si atom -5580.234867 kJ/mol
# Density = 2.311428 g / cm^3
# Si number density = 23.167005 Si / 1000 Ang^3
#
#
#
# Elastic Constant Matrix: (Units=GPa)
#
#
# Indices 1 2 3 4 5 6 
#
# 1 131.1059 27.8416 30.7074 0.0000 0.0000 0.0000
# 2 27.8416 184.9181 20.2623 0.0000 0.0000 0.0000
# 3 30.7074 20.2623 92.7932 0.0000 0.0000 0.0000
# 4 0.0000 0.0000 0.0000 20.3337 0.0000 0.0000
# 5 0.0000 0.0000 0.0000 0.0000 27.4416 0.0000
# 6 0.0000 0.0000 0.0000 0.0000 0.0000 22.4349
#
#
#
# Elastic Compliance Matrix: (Units=1/GPa)
#
#
# Indices 1 2 3 4 5 6 
#
# 1 0.008441 -0.000988 -0.002577 0.000000 0.000000 0.000000
# 2 -0.000988 0.005656 -0.000908 0.000000 0.000000 0.000000
# 3 -0.002577 -0.000908 0.011828 0.000000 0.000000 0.000000
# 4 0.000000 0.000000 0.000000 0.049179 0.000000 0.000000
# 5 0.000000 0.000000 0.000000 0.000000 0.036441 0.000000
# 6 0.000000 0.000000 0.000000 0.000000 0.000000 0.044573
#
#
# Mechanical properties :
#
#
# Convention : Reuss Voigt Hill
#
# Bulk Modulus (GPa) = 58.90263 62.93775 60.92019
# Shear Modulus (GPa) = 29.28674 36.04244 32.66459
#
# Velocity S-wave (km/s) = 3.55936 3.94860 3.75902
# Velocity P-wave (km/s) = 6.50941 6.92925 6.72261
#
# Compressibility (1/GPa) = 0.01697717
#
# Stress axis : x y z
#
# Youngs Moduli (GPa) = 118.46899 176.79981 84.54609
#
# Poissons Ratio (x) = 0.17476 0.21792
# Poissons Ratio (y) = 0.11710 0.07676
# Poissons Ratio (z) = 0.30535 0.16053
#
# Static dielectric constant tensor:
#      x y z
#    x 1.975190 0.000000 0.000000 
#    y 0.000000 1.881820 0.000000 
#    z 0.000000 0.000000 1.834810 
# 
# From -- ./inp_files/3522.got.cif
#   From: 2010.05.17/outbox.cif.g08.bks.cpg/sg20_2_cif.got.tgz:3522.got - 2010.06.03 22:52:26.
