data_PCOD9319425
_publ_section_title
;
Structure prediction by ZEFSAII (Michael W. Deem and Ramdas Pophale) SiO2 
 PCOD9319425
Probable space group: C 2 2 21
;
_chemical_formula_sum "Si O2"
_cell_formula_units_Z 48
_cell_length_a 9.194375
_cell_length_b 28.437284
_cell_length_c 8.010668
_cell_angle_alpha 90.000000
_cell_angle_beta 90.000000
_cell_angle_gamma 90.000000
_cell_volume 2094.493712
_symmetry_space_group_name_H-M "C 2 2 21"
_symmetry_group_IT_number 20
_symmetry_cell_setting 'orthorhombic'
loop_
_space_group_symop_operation_xyz
x,y,z
-x,-y,1/2+z
x,-y,-z
-x,y,1/2-z
1/2+x,1/2+y,z
1/2-x,1/2-y,1/2+z
1/2+x,1/2-y,-z
1/2-x,1/2+y,1/2-z
loop_
_atom_site_type_symbol
_atom_site_label
_atom_site_fract_x
_atom_site_fract_y
_atom_site_fract_z
Si Si1 0.327459 0.088198 0.246683
Si Si2 0.410642 0.353980 0.922815
Si Si3 0.835546 0.997053 0.299544
Si Si4 0.154324 0.691812 0.683623
Si Si5 0.628081 0.256598 0.384447
Si Si6 0.327959 0.603735 0.609394
O O1 0.500000 0.092704 0.250000
O O2 0.242896 0.122734 0.373163
O O3 0.273263 0.034580 0.280209
O O4 0.268309 0.098170 0.059245
O O5 0.500000 0.351265 0.750000
O O6 0.399815 0.302313 0.001126
O O7 0.509081 0.386794 0.043419
O O8 0.809941 0.941800 0.274778
O O9 0.000000 0.009937 0.250000
O O10 0.826385 0.000000 0.500000
O O11 0.219301 0.734233 0.792823
O O12 0.138088 0.710738 0.497204
O O13 0.270580 0.650581 0.695247
O O14 0.000000 0.675984 0.750000
O O15 0.500000 0.252839 0.250000
#
# Coordination Sequence:
#
# PCOD9319425 Si02
#       6
#     8   8   8   8   8   8
#     4  10  22  40  69 101 138 178 225 290 360 416
#     4  10  22  44  72  98 134 189 241 288 348 434
#     4  10  21  42  67  98 133 181 235 281 339 425
#     4  12  28  44  66 106 139 184 235 299 363 416
#     4  12  26  47  73  99 140 187 238 293 361 443
#     4  10  23  43  67  95 138 181 235 288 340 428
#
# _framework density 22.917231000000001
#
# number of rings (size 3 to 8) (size 9 to 14) (size 15 to 20)
#    0.000    1.333    1.667    4.000    9.333    1.333 
#    0.000    7.500    0.000    0.000    0.000    0.000 
#    0.000    0.000    0.000    0.000    0.000    0.000 
#
# Total GULP energy -134417.501975 kJ/mol
# GULP energy per Si atom -5600.729249 kJ/mol
# Density = 2.286507 g / cm^3
# Si number density = 22.917231 Si / 1000 Ang^3
#
#
#
# Elastic Constant Matrix: (Units=GPa)
#
#
# Indices 1 2 3 4 5 6 
#
# 1 162.3982 36.1368 23.8504 0.0000 0.0000 0.0000
# 2 36.1368 99.3948 26.3866 0.0000 0.0000 0.0000
# 3 23.8504 26.3866 49.5708 0.0000 0.0000 0.0000
# 4 0.0000 0.0000 0.0000 12.0837 0.0000 0.0000
# 5 0.0000 0.0000 0.0000 0.0000 32.4758 0.0000
# 6 0.0000 0.0000 0.0000 0.0000 0.0000 38.3340
#
#
#
# Elastic Compliance Matrix: (Units=1/GPa)
#
#
# Indices 1 2 3 4 5 6 
#
# 1 0.006921 -0.001901 -0.002318 0.000000 0.000000 0.000000
# 2 -0.001901 0.012239 -0.005600 0.000000 0.000000 0.000000
# 3 -0.002318 -0.005600 0.024269 0.000000 0.000000 0.000000
# 4 0.000000 0.000000 0.000000 0.082756 0.000000 0.000000
# 5 0.000000 0.000000 0.000000 0.000000 0.030792 0.000000
# 6 0.000000 0.000000 0.000000 0.000000 0.000000 0.026086
#
#
# Mechanical properties :
#
#
# Convention : Reuss Voigt Hill
#
# Bulk Modulus (GPa) = 42.03274 53.79017 47.91146
# Shear Modulus (GPa) = 23.73801 31.57804 27.65802
#
# Velocity S-wave (km/s) = 3.22190 3.71606 3.47777
# Velocity P-wave (km/s) = 5.67642 6.47569 6.08918
#
# Compressibility (1/GPa) = 0.02379098
#
# Stress axis : x y z
#
# Youngs Moduli (GPa) = 144.48474 81.70832 41.20407
#
# Poissons Ratio (x) = 0.15532 0.09552
# Poissons Ratio (y) = 0.27465 0.23075
# Poissons Ratio (z) = 0.33494 0.45757
#
# Static dielectric constant tensor:
#      x y z
#    x 1.805450 0.000000 0.000000 
#    y 0.000000 1.901780 0.000000 
#    z 0.000000 0.000000 1.873030 
# 
# From -- ./inp_files/6462.got.cif
#   From: 2010.05.17/outbox.cif.g08.bks.cpg/sg20_4_cif.got.tgz:6462.got - 2010.06.03 22:52:26.
