data_PCOD9319075
_publ_section_title
;
Structure prediction by ZEFSAII (Michael W. Deem and Ramdas Pophale) SiO2 
 PCOD9319075
Probable space group: C 2 2 21
;
_chemical_formula_sum "Si O2"
_cell_formula_units_Z 40
_cell_length_a 13.028478
_cell_length_b 6.864026
_cell_length_c 17.343989
_cell_angle_alpha 90.000000
_cell_angle_beta 90.000000
_cell_angle_gamma 90.000000
_cell_volume 1551.034983
_symmetry_space_group_name_H-M "C 2 2 21"
_symmetry_group_IT_number 20
_symmetry_cell_setting 'orthorhombic'
loop_
_space_group_symop_operation_xyz
x,y,z
-x,-y,1/2+z
x,-y,-z
-x,y,1/2-z
1/2+x,1/2+y,z
1/2-x,1/2-y,1/2+z
1/2+x,1/2-y,-z
1/2-x,1/2+y,1/2-z
loop_
_atom_site_type_symbol
_atom_site_label
_atom_site_fract_x
_atom_site_fract_y
_atom_site_fract_z
Si Si1 0.867400 0.080939 0.084627
Si Si2 0.390357 0.086026 0.719721
Si Si3 0.341359 0.469519 0.244796
Si Si4 0.333573 0.674755 0.599876
Si Si5 0.405379 0.743756 0.435916
O O1 0.779443 0.237379 0.101179
O O2 0.978972 0.176302 0.080802
O O3 0.864806 0.927059 0.155238
O O4 0.845131 0.000000 0.000000
O O5 0.500000 0.014292 0.750000
O O6 0.387712 0.317396 0.740962
O O7 0.282170 0.011690 0.752561
O O8 0.381343 0.090485 0.626394
O O9 0.377790 0.325877 0.312795
O O10 0.393386 0.767969 0.527397
O O11 0.333627 0.442635 0.582428
#
# Coordination Sequence:
#
# PCOD9319075 Si02
#       5
#     8   8   8   8   8
#     4  12  22  41  69  95 126 175 218 263 329 385
#     4  11  21  41  66  91 132 170 211 268 324 380
#     4  11  22  39  67  97 128 170 217 265 321 390
#     4  10  21  39  64  96 124 164 220 256 321 390
#     4  10  21  41  66  90 127 170 205 269 327 377
#
# _framework density 25.789228999999999
#
# number of rings (size 3 to 8) (size 9 to 14) (size 15 to 20)
#    0.000    1.200    6.000    1.200    0.000    0.000 
#    0.000    3.000   22.000    0.000    0.000    0.000 
#    0.000    0.000    0.000    0.000    0.000    0.000 
#
# Total GULP energy -111928.529195 kJ/mol
# GULP energy per Si atom -5596.426460 kJ/mol
# Density = 2.573053 g / cm^3
# Si number density = 25.789229 Si / 1000 Ang^3
#
#
#
# Elastic Constant Matrix: (Units=GPa)
#
#
# Indices 1 2 3 4 5 6 
#
# 1 177.4871 47.6165 63.3268 0.0000 0.0000 0.0000
# 2 47.6165 49.6012 38.6327 0.0000 0.0000 0.0000
# 3 63.3268 38.6327 264.8871 0.0000 0.0000 0.0000
# 4 0.0000 0.0000 0.0000 52.6205 0.0000 0.0000
# 5 0.0000 0.0000 0.0000 0.0000 34.6949 0.0000
# 6 0.0000 0.0000 0.0000 0.0000 0.0000 41.5532
#
#
#
# Elastic Compliance Matrix: (Units=1/GPa)
#
#
# Indices 1 2 3 4 5 6 
#
# 1 0.007761 -0.006775 -0.000867 0.000000 0.000000 0.000000
# 2 -0.006775 0.028659 -0.002560 0.000000 0.000000 0.000000
# 3 -0.000867 -0.002560 0.004356 0.000000 0.000000 0.000000
# 4 0.000000 0.000000 0.000000 0.019004 0.000000 0.000000
# 5 0.000000 0.000000 0.000000 0.000000 0.028823 0.000000
# 6 0.000000 0.000000 0.000000 0.000000 0.000000 0.024066
#
#
# Mechanical properties :
#
#
# Convention : Reuss Voigt Hill
#
# Bulk Modulus (GPa) = 49.08965 87.90304 68.49634
# Shear Modulus (GPa) = 35.74904 48.60035 42.17470
#
# Velocity S-wave (km/s) = 3.72721 4.34582 4.04835
# Velocity P-wave (km/s) = 6.13181 7.70329 6.96203
#
# Compressibility (1/GPa) = 0.02037089
#
# Stress axis : x y z
#
# Youngs Moduli (GPa) = 128.84348 34.89323 229.57243
#
# Poissons Ratio (x) = 0.23641 0.19913
# Poissons Ratio (y) = 0.87294 0.58771
# Poissons Ratio (z) = 0.11176 0.08933
#
# Static dielectric constant tensor:
#      x y z
#    x 1.926710 0.000000 0.000000 
#    y 0.000000 2.102090 0.000000 
#    z 0.000000 0.000000 2.162790 
# 
# From -- ./inp_files/24068.got.cif
#   From: 2010.05.17/outbox.cif.g08.bks.cpg/sg20_13_cif.got.tgz:24068.got - 2010.06.03 22:52:26.
