data_PCOD9319212
_publ_section_title
;
Structure prediction by ZEFSAII (Michael W. Deem and Ramdas Pophale) SiO2 
 PCOD9319212
Probable space group: C 2 2 21
;
_chemical_formula_sum "Si O2"
_cell_formula_units_Z 40
_cell_length_a 13.768642
_cell_length_b 16.050890
_cell_length_c 7.617443
_cell_angle_alpha 90.000000
_cell_angle_beta 90.000000
_cell_angle_gamma 90.000000
_cell_volume 1683.446967
_symmetry_space_group_name_H-M "C 2 2 21"
_symmetry_group_IT_number 20
_symmetry_cell_setting 'orthorhombic'
loop_
_space_group_symop_operation_xyz
x,y,z
-x,-y,1/2+z
x,-y,-z
-x,y,1/2-z
1/2+x,1/2+y,z
1/2-x,1/2-y,1/2+z
1/2+x,1/2-y,-z
1/2-x,1/2+y,1/2-z
loop_
_atom_site_type_symbol
_atom_site_label
_atom_site_fract_x
_atom_site_fract_y
_atom_site_fract_z
Si Si1 0.047481 0.310459 0.560560
Si Si2 0.393899 0.319054 0.551911
Si Si3 0.713543 0.044835 0.827264
Si Si4 0.000000 0.562168 0.750000
Si Si5 0.652156 0.500000 0.000000
Si Si6 0.736099 0.266006 0.282931
O O1 0.031365 0.382767 0.419133
O O2 0.157208 0.283817 0.600645
O O3 0.000000 0.330710 0.750000
O O4 0.990739 0.231974 0.478870
O O5 0.408191 0.417101 0.538362
O O6 0.324345 0.288694 0.391047
O O7 0.330916 0.292413 0.720705
O O8 0.601259 0.018497 0.797359
O O9 0.777896 0.018640 0.663194
O O10 0.723335 0.144727 0.849641
O O11 0.750227 0.000000 0.000000
#
# Coordination Sequence:
#
# PCOD9319212 Si02
#       6
#     8   8   8   4   4   8
#     4  10  22  39  68  94 125 166 213 266 311 373
#     4  10  21  40  65  93 126 168 213 264 317 378
#     4  11  26  42  63  92 133 169 210 262 322 377
#     4  12  24  42  62 102 122 166 224 250 314 392
#     4  10  24  42  64  94 132 166 208 270 324 368
#     4  10  21  41  64  91 125 166 216 258 314 380
#
# _framework density 23.760773
#
# number of rings (size 3 to 8) (size 9 to 14) (size 15 to 20)
#    0.000    1.600    2.000    2.400    4.200    1.600 
#    1.800    0.000    2.200    0.000    0.000    0.000 
#    0.000    0.000    0.000    0.000    0.000    0.000 
#
# Total GULP energy -111969.117509 kJ/mol
# GULP energy per Si atom -5598.455875 kJ/mol
# Density = 2.370669 g / cm^3
# Si number density = 23.760773 Si / 1000 Ang^3
#
#
#
# Elastic Constant Matrix: (Units=GPa)
#
#
# Indices 1 2 3 4 5 6 
#
# 1 79.8613 -13.5189 11.6044 0.0000 0.0000 0.0000
# 2 -13.5189 58.7537 9.9911 0.0000 0.0000 0.0000
# 3 11.6044 9.9911 87.1255 0.0000 0.0000 0.0000
# 4 0.0000 0.0000 0.0000 20.5584 0.0000 0.0000
# 5 0.0000 0.0000 0.0000 0.0000 27.3997 0.0000
# 6 0.0000 0.0000 0.0000 0.0000 0.0000 56.6255
#
#
#
# Elastic Compliance Matrix: (Units=1/GPa)
#
#
# Indices 1 2 3 4 5 6 
#
# 1 0.013425 0.003461 -0.002185 0.000000 0.000000 0.000000
# 2 0.003461 0.018251 -0.002554 0.000000 0.000000 0.000000
# 3 -0.002185 -0.002554 0.012062 0.000000 0.000000 0.000000
# 4 0.000000 0.000000 0.000000 0.048642 0.000000 0.000000
# 5 0.000000 0.000000 0.000000 0.000000 0.036497 0.000000
# 6 0.000000 0.000000 0.000000 0.000000 0.000000 0.017660
#
#
# Mechanical properties :
#
#
# Convention : Reuss Voigt Hill
#
# Bulk Modulus (GPa) = 24.28310 26.87709 25.58010
# Shear Modulus (GPa) = 30.70890 35.42764 33.06827
#
# Velocity S-wave (km/s) = 3.59892 3.86555 3.73462
# Velocity P-wave (km/s) = 5.24516 5.59101 5.42085
#
# Compressibility (1/GPa) = 0.04118090
#
# Stress axis : x y z
#
# Youngs Moduli (GPa) = 74.48790 54.79232 82.90793
#
# Poissons Ratio (x) = -0.18961 0.18115
# Poissons Ratio (y) = -0.25777 0.21173
# Poissons Ratio (z) = 0.16275 0.13993
#
# Static dielectric constant tensor:
#      x y z
#    x 1.838210 0.000000 0.000000 
#    y 0.000000 1.940420 0.000000 
#    z 0.000000 0.000000 1.988910 
# 
# From -- ./inp_files/8149.got.cif
#   From: 2010.05.17/outbox.cif.g08.bks.cpg/sg20_5_cif.got.tgz:8149.got - 2010.06.03 22:52:26.
