data_PCOD9319039
_publ_section_title
;
Structure prediction by ZEFSAII (Michael W. Deem and Ramdas Pophale) SiO2 
 PCOD9319039
Probable space group: C 2 2 21
;
_chemical_formula_sum "Si O2"
_cell_formula_units_Z 44
_cell_length_a 7.940983
_cell_length_b 11.799856
_cell_length_c 25.450267
_cell_angle_alpha 90.000000
_cell_angle_beta 90.000000
_cell_angle_gamma 90.000000
_cell_volume 2384.752521
_symmetry_space_group_name_H-M "C 2 2 21"
_symmetry_group_IT_number 20
_symmetry_cell_setting 'orthorhombic'
loop_
_space_group_symop_operation_xyz
x,y,z
-x,-y,1/2+z
x,-y,-z
-x,y,1/2-z
1/2+x,1/2+y,z
1/2-x,1/2-y,1/2+z
1/2+x,1/2-y,-z
1/2-x,1/2+y,1/2-z
loop_
_atom_site_type_symbol
_atom_site_label
_atom_site_fract_x
_atom_site_fract_y
_atom_site_fract_z
Si Si1 0.843950 0.115670 0.526328
Si Si2 0.165355 0.897824 0.786893
Si Si3 0.655932 0.841203 0.160389
Si Si4 0.000000 0.516519 0.750000
Si Si5 0.038325 0.993315 0.377142
Si Si6 0.451244 0.272350 0.931332
O O1 0.702625 0.197248 0.549197
O O2 0.964174 0.074522 0.573398
O O3 0.946466 0.181050 0.481284
O O4 0.773326 0.000000 0.500000
O O5 0.205901 0.774390 0.810091
O O6 0.329782 0.945092 0.758138
O O7 0.000000 0.890233 0.750000
O O8 0.107550 0.978313 0.835070
O O9 0.814067 0.921135 0.148867
O O10 0.568146 0.802942 0.106487
O O11 0.528294 0.906585 0.198676
O O12 0.100942 0.115906 0.398127
#
# Coordination Sequence:
#
# PCOD9319039 Si02
#       6
#     8   8   8   4   8   8
#     4  10  21  39  61  91 123 161 202 256 311 367
#     4  11  23  41  59  88 124 157 210 262 301 375
#     4  11  23  40  61  89 123 163 210 259 315 373
#     4  12  24  38  64  88 116 170 210 250 330 368
#     4  10  22  40  61  87 125 161 201 263 311 362
#     4  10  22  38  62  89 126 158 209 256 306 382
#
# _framework density 18.450551999999998
#
# number of rings (size 3 to 8) (size 9 to 14) (size 15 to 20)
#    0.000    1.455    2.727    2.182    0.000    4.364 
#    0.000    0.000    0.000    0.000    0.000    0.000 
#    0.000    0.000    0.000    0.000    0.000    0.000 
#
# Total GULP energy -122884.920702 kJ/mol
# GULP energy per Si atom -5585.678214 kJ/mol
# Density = 1.840856 g / cm^3
# Si number density = 18.450552 Si / 1000 Ang^3
#
#
#
# Elastic Constant Matrix: (Units=GPa)
#
#
# Indices 1 2 3 4 5 6 
#
# 1 94.6115 77.5506 44.9278 0.0000 0.0000 0.0000
# 2 77.5506 102.9123 41.0202 0.0000 0.0000 0.0000
# 3 44.9278 41.0202 90.8761 0.0000 0.0000 0.0000
# 4 0.0000 0.0000 0.0000 42.9782 0.0000 0.0000
# 5 0.0000 0.0000 0.0000 0.0000 32.0883 0.0000
# 6 0.0000 0.0000 0.0000 0.0000 0.0000 24.9693
#
#
#
# Elastic Compliance Matrix: (Units=1/GPa)
#
#
# Indices 1 2 3 4 5 6 
#
# 1 0.029818 -0.020235 -0.005608 0.000000 0.000000 0.000000
# 2 -0.020235 0.025580 -0.001543 0.000000 0.000000 0.000000
# 3 -0.005608 -0.001543 0.014473 0.000000 0.000000 0.000000
# 4 0.000000 0.000000 0.000000 0.023268 0.000000 0.000000
# 5 0.000000 0.000000 0.000000 0.000000 0.031164 0.000000
# 6 0.000000 0.000000 0.000000 0.000000 0.000000 0.040049
#
#
# Mechanical properties :
#
#
# Convention : Reuss Voigt Hill
#
# Bulk Modulus (GPa) = 66.22382 68.37743 67.30062
# Shear Modulus (GPa) = 22.30585 28.33391 25.31988
#
# Velocity S-wave (km/s) = 3.48077 3.92301 3.70849
# Velocity P-wave (km/s) = 7.21976 7.59344 7.40895
#
# Compressibility (1/GPa) = 0.01510031
#
# Stress axis : x y z
#
# Youngs Moduli (GPa) = 33.53634 39.09325 69.09436
#
# Poissons Ratio (x) = 0.79103 0.38749
# Poissons Ratio (y) = 0.67859 0.10659
# Poissons Ratio (z) = 0.18808 0.06031
#
# Static dielectric constant tensor:
#      x y z
#    x 1.597660 0.000000 0.000000 
#    y 0.000000 1.622810 0.000000 
#    z 0.000000 0.000000 1.642870 
# 
# From -- ./inp_files/28648.got.cif
#   From: 2010.05.17/outbox.cif.g08.bks.cpg/sg20_15_cif.got.tgz:28648.got - 2010.06.03 22:52:26.
