data_PCOD9319947
_publ_section_title
;
Structure prediction by ZEFSAII (Michael W. Deem and Ramdas Pophale) SiO2 
 PCOD9319947
Probable space group: C 2 2 21
;
_chemical_formula_sum "Si O2"
_cell_formula_units_Z 60
_cell_length_a 10.702302
_cell_length_b 10.957707
_cell_length_c 24.920345
_cell_angle_alpha 90.000000
_cell_angle_beta 90.000000
_cell_angle_gamma 90.000000
_cell_volume 2922.475882
_symmetry_space_group_name_H-M "C 2 2 21"
_symmetry_group_IT_number 20
_symmetry_cell_setting 'orthorhombic'
loop_
_space_group_symop_operation_xyz
x,y,z
-x,-y,1/2+z
x,-y,-z
-x,y,1/2-z
1/2+x,1/2+y,z
1/2-x,1/2-y,1/2+z
1/2+x,1/2-y,-z
1/2-x,1/2+y,1/2-z
loop_
_atom_site_type_symbol
_atom_site_label
_atom_site_fract_x
_atom_site_fract_y
_atom_site_fract_z
Si Si1 0.153065 0.170412 0.338204
Si Si2 0.500000 0.541784 0.250000
Si Si3 0.371307 0.975250 0.619865
Si Si4 0.662136 0.619416 0.821790
Si Si5 0.480721 0.873242 0.968685
Si Si6 0.967209 0.264903 0.421912
Si Si7 0.035205 0.306849 0.687549
Si Si8 0.240182 0.388964 0.617862
O O1 0.047128 0.123869 0.298576
O O2 0.236375 0.055685 0.357089
O O3 0.242843 0.270247 0.310562
O O4 0.091290 0.235262 0.389002
O O5 0.385450 0.459424 0.271317
O O6 0.397831 0.887716 0.568806
O O7 0.469886 0.929196 0.664461
O O8 0.406070 0.108911 0.599707
O O9 0.535502 0.691121 0.839586
O O10 0.726894 0.525901 0.862951
O O11 0.364594 0.867918 0.927953
O O12 0.501287 0.775333 0.015210
O O13 0.463607 0.000000 0.000000
O O14 0.866357 0.164595 0.405965
O O15 0.178653 0.319514 0.669425
O O16 0.000000 0.298842 0.750000
#
# Coordination Sequence:
#
# PCOD9319947 Si02
#       8
#     8   4   8   8   8   8   8   8
#     4  11  25  43  65  94 135 170 217 270 321 388
#     4  12  26  40  60 104 128 176 224 254 330 386
#     4   9  22  40  64  92 126 172 216 264 327 387
#     4  11  24  43  64  92 135 171 215 272 315 390
#     4   9  20  43  65  91 126 173 219 270 333 394
#     4  11  23  41  69  98 127 171 221 272 329 394
#     4  10  22  41  64  93 132 180 216 266 329 386
#     4  11  24  42  67  99 133 172 222 273 335 389
#
# _framework density 20.530536000000001
#
# number of rings (size 3 to 8) (size 9 to 14) (size 15 to 20)
#    0.000    1.600    2.000    2.400    7.467    1.067 
#    4.800    0.000    0.000    0.000    0.000    0.000 
#    0.000    0.000    0.000    0.000    0.000    0.000 
#
# Total GULP energy -167333.122784 kJ/mol
# GULP energy per Si atom -5577.770759 kJ/mol
# Density = 2.048381 g / cm^3
# Si number density = 20.530536 Si / 1000 Ang^3
#
#
#
# Elastic Constant Matrix: (Units=GPa)
#
#
# Indices 1 2 3 4 5 6 
#
# 1 62.1905 1.0748 14.5560 0.0000 0.0000 0.0000
# 2 1.0748 53.7209 5.7096 0.0000 0.0000 0.0000
# 3 14.5560 5.7096 77.4231 0.0000 0.0000 0.0000
# 4 0.0000 0.0000 0.0000 27.6989 0.0000 0.0000
# 5 0.0000 0.0000 0.0000 0.0000 36.0133 0.0000
# 6 0.0000 0.0000 0.0000 0.0000 0.0000 17.5890
#
#
#
# Elastic Compliance Matrix: (Units=1/GPa)
#
#
# Indices 1 2 3 4 5 6 
#
# 1 0.016820 0.000000 -0.003162 0.000000 0.000000 0.000000
# 2 0.000000 0.018762 -0.001384 0.000000 0.000000 0.000000
# 3 -0.003162 -0.001384 0.013613 0.000000 0.000000 0.000000
# 4 0.000000 0.000000 0.000000 0.036102 0.000000 0.000000
# 5 0.000000 0.000000 0.000000 0.000000 0.027768 0.000000
# 6 0.000000 0.000000 0.000000 0.000000 0.000000 0.056854
#
#
# Mechanical properties :
#
#
# Convention : Reuss Voigt Hill
#
# Bulk Modulus (GPa) = 24.93650 26.22393 25.58021
# Shear Modulus (GPa) = 25.99059 27.72652 26.85856
#
# Velocity S-wave (km/s) = 3.56188 3.67890 3.62086
# Velocity P-wave (km/s) = 5.39336 5.55398 5.47426
#
# Compressibility (1/GPa) = 0.04010187
#
# Stress axis : x y z
#
# Youngs Moduli (GPa) = 59.45392 53.29981 73.46145
#
# Poissons Ratio (x) = 0.00002 0.23230
# Poissons Ratio (y) = 0.00002 0.10164
# Poissons Ratio (z) = 0.18800 0.07374
#
# Static dielectric constant tensor:
#      x y z
#    x 1.777040 0.000000 0.000000 
#    y 0.000000 1.756280 0.000000 
#    z 0.000000 0.000000 1.770830 
# 
# From -- ./inp_files/27278.got.cif
#   From: 2010.05.17/outbox.cif.g08.bks.cpg/sg20_14_cif.got.tgz:27278.got - 2010.06.03 22:52:26.
