data_PCOD9319334
_publ_section_title
;
Structure prediction by ZEFSAII (Michael W. Deem and Ramdas Pophale) SiO2 
 PCOD9319334
Probable space group: C 2 2 21
;
_chemical_formula_sum "Si O2"
_cell_formula_units_Z 44
_cell_length_a 7.469490
_cell_length_b 12.112951
_cell_length_c 23.404221
_cell_angle_alpha 90.000000
_cell_angle_beta 90.000000
_cell_angle_gamma 90.000000
_cell_volume 2117.556959
_symmetry_space_group_name_H-M "C 2 2 21"
_symmetry_group_IT_number 20
_symmetry_cell_setting 'orthorhombic'
loop_
_space_group_symop_operation_xyz
x,y,z
-x,-y,1/2+z
x,-y,-z
-x,y,1/2-z
1/2+x,1/2+y,z
1/2-x,1/2-y,1/2+z
1/2+x,1/2-y,-z
1/2-x,1/2+y,1/2-z
loop_
_atom_site_type_symbol
_atom_site_label
_atom_site_fract_x
_atom_site_fract_y
_atom_site_fract_z
Si Si1 0.587233 0.349413 0.503938
Si Si2 0.995116 0.609798 0.028555
Si Si3 0.506212 0.505395 0.399189
Si Si4 0.500000 0.952030 0.250000
Si Si5 0.872652 0.609948 0.350409
Si Si6 0.353134 0.357024 0.300852
O O1 0.791257 0.383515 0.516282
O O2 0.582919 0.218998 0.499085
O O3 0.538683 0.404861 0.443627
O O4 0.461891 0.396574 0.555111
O O5 0.989122 0.606938 0.096737
O O6 0.921322 0.500000 0.000000
O O7 0.685295 0.555029 0.370179
O O8 0.390488 0.452625 0.348232
O O9 0.662878 0.878519 0.271970
O O10 0.440102 0.032675 0.300316
O O11 0.854550 0.736607 0.330403
O O12 0.500000 0.361141 0.250000
#
# Coordination Sequence:
#
# PCOD9319334 Si02
#       6
#     8   8   8   4   8   8
#     4  10  21  41  68 101 135 178 219 279 350 409
#     4  11  22  41  67  98 138 174 223 283 342 413
#     4  10  21  45  67  95 144 177 221 291 346 405
#     4  12  28  42  70 102 130 188 242 270 348 412
#     4  11  23  44  67  99 137 180 232 286 344 407
#     4  12  25  45  71  99 140 182 231 291 344 404
#
# _framework density 20.778661
#
# number of rings (size 3 to 8) (size 9 to 14) (size 15 to 20)
#    0.000    1.091    8.182    0.000    0.000    5.818 
#    3.273    0.000    0.000    0.000    0.000    0.000 
#    0.000    0.000    0.000    0.000    0.000    0.000 
#
# Total GULP energy -122881.395873 kJ/mol
# GULP energy per Si atom -5585.517994 kJ/mol
# Density = 2.073137 g / cm^3
# Si number density = 20.778661 Si / 1000 Ang^3
#
#
#
# Elastic Constant Matrix: (Units=GPa)
#
#
# Indices 1 2 3 4 5 6 
#
# 1 70.5592 28.9027 47.0055 0.0000 0.0000 0.0000
# 2 28.9027 174.4966 71.4698 0.0000 0.0000 0.0000
# 3 47.0055 71.4698 150.7354 0.0000 0.0000 0.0000
# 4 0.0000 0.0000 0.0000 35.4791 0.0000 0.0000
# 5 0.0000 0.0000 0.0000 0.0000 20.7531 0.0000
# 6 0.0000 0.0000 0.0000 0.0000 0.0000 63.2827
#
#
#
# Elastic Compliance Matrix: (Units=1/GPa)
#
#
# Indices 1 2 3 4 5 6 
#
# 1 0.017989 -0.000846 -0.005208 0.000000 0.000000 0.000000
# 2 -0.000846 0.007152 -0.003127 0.000000 0.000000 0.000000
# 3 -0.005208 -0.003127 0.009741 0.000000 0.000000 0.000000
# 4 0.000000 0.000000 0.000000 0.028186 0.000000 0.000000
# 5 0.000000 0.000000 0.000000 0.000000 0.048186 0.000000
# 6 0.000000 0.000000 0.000000 0.000000 0.000000 0.015802
#
#
# Mechanical properties :
#
#
# Convention : Reuss Voigt Hill
#
# Bulk Modulus (GPa) = 60.53954 76.72747 68.63351
# Shear Modulus (GPa) = 33.12914 40.46384 36.79649
#
# Velocity S-wave (km/s) = 3.99730 4.41769 4.21275
# Velocity P-wave (km/s) = 7.10657 7.93899 7.53428
#
# Compressibility (1/GPa) = 0.01651813
#
# Stress axis : x y z
#
# Youngs Moduli (GPa) = 55.58970 139.82701 102.65922
#
# Poissons Ratio (x) = 0.11834 0.53469
# Poissons Ratio (y) = 0.04705 0.32101
# Poissons Ratio (z) = 0.28953 0.43724
#
# Static dielectric constant tensor:
#      x y z
#    x 1.771560 0.000000 0.000000 
#    y 0.000000 1.721450 0.000000 
#    z 0.000000 0.000000 1.379300 
# 
# From -- ./inp_files/28659.got.cif
#   From: 2010.05.17/outbox.cif.g08.bks.cpg/sg20_15_cif.got.tgz:28659.got - 2010.06.03 22:52:26.
