data_PCOD9319678
_publ_section_title
;
Structure prediction by ZEFSAII (Michael W. Deem and Ramdas Pophale) SiO2 
 PCOD9319678
Probable space group: C 2 2 21
;
_chemical_formula_sum "Si O2"
_cell_formula_units_Z 60
_cell_length_a 16.648101
_cell_length_b 17.380859
_cell_length_c 10.069150
_cell_angle_alpha 90.000000
_cell_angle_beta 90.000000
_cell_angle_gamma 90.000000
_cell_volume 2913.592087
_symmetry_space_group_name_H-M "C 2 2 21"
_symmetry_group_IT_number 20
_symmetry_cell_setting 'orthorhombic'
loop_
_space_group_symop_operation_xyz
x,y,z
-x,-y,1/2+z
x,-y,-z
-x,y,1/2-z
1/2+x,1/2+y,z
1/2-x,1/2-y,1/2+z
1/2+x,1/2-y,-z
1/2-x,1/2+y,1/2-z
loop_
_atom_site_type_symbol
_atom_site_label
_atom_site_fract_x
_atom_site_fract_y
_atom_site_fract_z
Si Si1 0.029035 0.834750 0.616971
Si Si2 0.336928 0.786648 0.169640
Si Si3 0.177938 0.614140 0.406618
Si Si4 0.995294 0.564259 0.092864
Si Si5 0.555972 0.607596 0.864171
Si Si6 0.812614 0.000000 0.500000
Si Si7 0.838060 0.741591 0.316226
Si Si8 0.412297 0.191493 0.568069
O O1 0.114835 0.792765 0.637033
O O2 0.000000 0.877290 0.750000
O O3 0.006365 0.880720 0.486038
O O4 0.967207 0.763710 0.603648
O O5 0.248547 0.772407 0.224561
O O6 0.383675 0.834007 0.285477
O O7 0.322234 0.830479 0.033598
O O8 0.098954 0.565146 0.428180
O O9 0.255657 0.558454 0.414476
O O10 0.156181 0.666761 0.278200
O O11 0.000000 0.554370 0.250000
O O12 0.034607 0.500000 0.000000
O O13 0.033713 0.640449 0.029779
O O14 0.500000 0.574736 0.750000
O O15 0.629428 0.554165 0.911547
O O16 0.594965 0.690010 0.813763
O O17 0.839873 0.716439 0.471332
#
# Coordination Sequence:
#
# PCOD9319678 Si02
#       8
#     8   8   8   8   8   4   8   8
#     4   9  20  36  67 103 129 170 223 288 342 401
#     4  11  21  38  68 101 135 169 224 292 347 401
#     4  12  24  42  70  98 140 183 224 286 357 422
#     4  12  26  42  65  94 133 184 225 277 355 433
#     4  11  25  46  72  97 137 183 243 288 340 425
#     4  12  28  48  64 104 148 188 224 284 374 424
#     4  11  23  42  69 103 129 181 239 292 340 407
#     4  10  22  38  60  99 136 162 224 291 335 410
#
# _framework density 20.593136999999999
#
# number of rings (size 3 to 8) (size 9 to 14) (size 15 to 20)
#    0.000    1.067    4.667    1.600    7.467    0.533 
#    0.000    0.000    0.000    0.000    0.000    0.000 
#    0.000    0.000    0.000    0.000    0.000    0.000 
#
# Total GULP energy -167067.983612 kJ/mol
# GULP energy per Si atom -5568.932787 kJ/mol
# Density = 2.054627 g / cm^3
# Si number density = 20.593137 Si / 1000 Ang^3
#
#
#
# Elastic Constant Matrix: (Units=GPa)
#
#
# Indices 1 2 3 4 5 6 
#
# 1 86.4216 18.8838 20.5088 0.0000 0.0000 0.0000
# 2 18.8838 48.0887 25.9206 0.0000 0.0000 0.0000
# 3 20.5088 25.9206 85.6054 0.0000 0.0000 0.0000
# 4 0.0000 0.0000 0.0000 29.9021 0.0000 0.0000
# 5 0.0000 0.0000 0.0000 0.0000 28.4190 0.0000
# 6 0.0000 0.0000 0.0000 0.0000 0.0000 25.2812
#
#
#
# Elastic Compliance Matrix: (Units=1/GPa)
#
#
# Indices 1 2 3 4 5 6 
#
# 1 0.012900 -0.004063 -0.001860 0.000000 0.000000 0.000000
# 2 -0.004063 0.026131 -0.006939 0.000000 0.000000 0.000000
# 3 -0.001860 -0.006939 0.014228 0.000000 0.000000 0.000000
# 4 0.000000 0.000000 0.000000 0.033443 0.000000 0.000000
# 5 0.000000 0.000000 0.000000 0.000000 0.035188 0.000000
# 6 0.000000 0.000000 0.000000 0.000000 0.000000 0.039555
#
#
# Mechanical properties :
#
#
# Convention : Reuss Voigt Hill
#
# Bulk Modulus (GPa) = 36.31753 38.97134 37.64443
# Shear Modulus (GPa) = 25.46511 27.04062 26.25287
#
# Velocity S-wave (km/s) = 3.52032 3.62759 3.57436
# Velocity P-wave (km/s) = 5.84787 6.04246 5.94596
#
# Compressibility (1/GPa) = 0.02753491
#
# Stress axis : x y z
#
# Youngs Moduli (GPa) = 77.51650 38.26942 70.28307
#
# Poissons Ratio (x) = 0.15549 0.13075
# Poissons Ratio (y) = 0.31496 0.48767
# Poissons Ratio (z) = 0.14421 0.26554
#
# Static dielectric constant tensor:
#      x y z
#    x 1.723770 0.000000 0.000000 
#    y 0.000000 1.714980 0.000000 
#    z 0.000000 0.000000 0.257020 
# 
# From -- ./inp_files/9585.got.cif
#   From: 2010.05.17/outbox.cif.g08.bks.cpg/sg20_5_cif.got.tgz:9585.got - 2010.06.03 22:52:26.
