data_PCOD9319388
_publ_section_title
;
Structure prediction by ZEFSAII (Michael W. Deem and Ramdas Pophale) SiO2 
 PCOD9319388
Probable space group: C 2 2 21
;
_chemical_formula_sum "Si O2"
_cell_formula_units_Z 64
_cell_length_a 8.537076
_cell_length_b 18.876717
_cell_length_c 19.789903
_cell_angle_alpha 90.000000
_cell_angle_beta 90.000000
_cell_angle_gamma 90.000000
_cell_volume 3189.181808
_symmetry_space_group_name_H-M "C 2 2 21"
_symmetry_group_IT_number 20
_symmetry_cell_setting 'orthorhombic'
loop_
_space_group_symop_operation_xyz
x,y,z
-x,-y,1/2+z
x,-y,-z
-x,y,1/2-z
1/2+x,1/2+y,z
1/2-x,1/2-y,1/2+z
1/2+x,1/2-y,-z
1/2-x,1/2+y,1/2-z
loop_
_atom_site_type_symbol
_atom_site_label
_atom_site_fract_x
_atom_site_fract_y
_atom_site_fract_z
Si Si1 0.181329 0.924512 0.976773
Si Si2 0.970270 0.655357 0.959439
Si Si3 0.526626 0.687296 0.417677
Si Si4 0.871537 0.559080 0.161379
Si Si5 0.128835 0.339688 0.896243
Si Si6 0.338600 0.674763 0.284669
Si Si7 0.142503 0.787825 0.200658
Si Si8 0.083038 0.605861 0.680621
O O1 0.259306 0.938502 0.904000
O O2 0.049376 0.865377 0.971144
O O3 0.322607 0.893420 0.021132
O O4 0.120068 0.000000 0.000000
O O5 0.926915 0.737186 0.947827
O O6 0.018501 0.626500 0.885673
O O7 0.084466 0.655874 0.024236
O O8 0.685078 0.653727 0.388749
O O9 0.394640 0.697345 0.359859
O O10 0.782679 0.610159 0.213338
O O11 0.893921 0.478487 0.182302
O O12 0.030542 0.598836 0.140005
O O13 0.086415 0.264384 0.860242
O O14 0.500000 0.653386 0.250000
O O15 0.256980 0.738346 0.245372
O O16 0.251487 0.852194 0.175671
O O17 0.000000 0.808892 0.250000
O O18 0.000000 0.628270 0.750000
#
# Coordination Sequence:
#
# PCOD9319388 Si02
#       8
#     8   8   8   8   8   8   8   8
#     4  10  21  42  64  91 131 175 214 277 332 382
#     4  11  22  42  66  95 133 174 223 271 332 400
#     4  11  22  38  67  99 129 173 229 266 329 394
#     4  10  24  41  68  95 127 182 219 263 336 401
#     4  11  23  41  68  99 129 179 226 273 327 398
#     4  11  21  39  69  95 133 171 224 271 325 391
#     4  12  24  44  67  99 133 172 223 277 327 396
#     4  12  26  44  66  96 138 172 219 280 344 389
#
# _framework density 20.067841999999999
#
# number of rings (size 3 to 8) (size 9 to 14) (size 15 to 20)
#    0.000    1.000    5.000    1.875    1.750    0.500 
#    4.500    1.250    0.000    0.000    0.000    0.000 
#    0.000    0.000    0.000    0.000    0.000    0.000 
#
# Total GULP energy -178692.884752 kJ/mol
# GULP energy per Si atom -5584.152648 kJ/mol
# Density = 2.002217 g / cm^3
# Si number density = 20.067842 Si / 1000 Ang^3
#
#
#
# Elastic Constant Matrix: (Units=GPa)
#
#
# Indices 1 2 3 4 5 6 
#
# 1 58.5798 20.1358 20.6342 0.0000 0.0000 0.0000
# 2 20.1358 123.2063 23.8195 0.0000 0.0000 0.0000
# 3 20.6342 23.8195 91.8008 0.0000 0.0000 0.0000
# 4 0.0000 0.0000 0.0000 26.6542 0.0000 0.0000
# 5 0.0000 0.0000 0.0000 0.0000 21.2062 0.0000
# 6 0.0000 0.0000 0.0000 0.0000 0.0000 22.0933
#
#
#
# Elastic Compliance Matrix: (Units=1/GPa)
#
#
# Indices 1 2 3 4 5 6 
#
# 1 0.019203 -0.002426 -0.003687 0.000000 0.000000 0.000000
# 2 -0.002426 0.008852 -0.001751 0.000000 0.000000 0.000000
# 3 -0.003687 -0.001751 0.012176 0.000000 0.000000 0.000000
# 4 0.000000 0.000000 0.000000 0.037518 0.000000 0.000000
# 5 0.000000 0.000000 0.000000 0.000000 0.047156 0.000000
# 6 0.000000 0.000000 0.000000 0.000000 0.000000 0.045263
#
#
# Mechanical properties :
#
#
# Convention : Reuss Voigt Hill
#
# Bulk Modulus (GPa) = 40.81148 44.75178 42.78163
# Shear Modulus (GPa) = 25.76482 27.92389 26.84436
#
# Velocity S-wave (km/s) = 3.58702 3.73429 3.66140
# Velocity P-wave (km/s) = 6.12671 6.39859 6.26412
#
# Compressibility (1/GPa) = 0.02450291
#
# Stress axis : x y z
#
# Youngs Moduli (GPa) = 52.07468 112.97515 82.12654
#
# Poissons Ratio (x) = 0.27403 0.30280
# Poissons Ratio (y) = 0.12631 0.14384
# Poissons Ratio (z) = 0.19200 0.19787
#
# Static dielectric constant tensor:
#      x y z
#    x 1.690110 0.000000 0.000000 
#    y 0.000000 1.684730 0.000000 
#    z 0.000000 0.000000 1.788050 
# 
# From -- ./inp_files/26905.got.cif
#   From: 2010.05.17/outbox.cif.g08.bks.cpg/sg20_14_cif.got.tgz:26905.got - 2010.06.03 22:52:26.
