data_PCOD9319442
_publ_section_title
;
Structure prediction by ZEFSAII (Michael W. Deem and Ramdas Pophale) SiO2 
 PCOD9319442
Probable space group: C 2 2 21
;
_chemical_formula_sum "Si O2"
_cell_formula_units_Z 48
_cell_length_a 31.294741
_cell_length_b 8.066171
_cell_length_c 8.995776
_cell_angle_alpha 90.000000
_cell_angle_beta 90.000000
_cell_angle_gamma 90.000000
_cell_volume 2270.792332
_symmetry_space_group_name_H-M "C 2 2 21"
_symmetry_group_IT_number 20
_symmetry_cell_setting 'orthorhombic'
loop_
_space_group_symop_operation_xyz
x,y,z
-x,-y,1/2+z
x,-y,-z
-x,y,1/2-z
1/2+x,1/2+y,z
1/2-x,1/2-y,1/2+z
1/2+x,1/2-y,-z
1/2-x,1/2+y,1/2-z
loop_
_atom_site_type_symbol
_atom_site_label
_atom_site_fract_x
_atom_site_fract_y
_atom_site_fract_z
Si Si1 0.195356 0.409563 0.150132
Si Si2 0.086510 0.000000 0.000000
Si Si3 0.853156 0.157201 0.732781
Si Si4 0.550002 0.731140 0.258372
Si Si5 0.767512 0.047475 0.342216
Si Si6 0.378936 0.978705 0.175389
Si Si7 0.593092 0.500000 0.500000
O O1 0.217113 0.232678 0.127156
O O2 0.231592 0.528211 0.218520
O O3 0.158598 0.359747 0.268225
O O4 0.179777 0.500000 0.000000
O O5 0.117554 0.119164 0.908674
O O6 0.060923 0.890555 0.879989
O O7 0.859157 0.350976 0.762857
O O8 0.876122 0.076350 0.875436
O O9 0.807323 0.072870 0.701174
O O10 0.500000 0.766786 0.250000
O O11 0.564306 0.633323 0.409467
O O12 0.578075 0.899415 0.258163
O O13 0.747296 0.000000 0.500000
O O14 0.383736 0.000000 0.000000
#
# Coordination Sequence:
#
# PCOD9319442 Si02
#       7
#     8   4   8   8   8   8   4
#     4  12  27  44  72 101 143 186 238 297 345 413
#     4  10  23  44  70 104 134 184 228 288 353 418
#     4  11  23  42  71 100 142 183 231 285 341 419
#     4  11  24  46  72 104 139 179 237 294 358 428
#     4  12  25  45  67 105 138 188 239 286 348 410
#     4  12  26  46  67 103 141 189 231 289 362 417
#     4  10  21  42  70 100 138 184 230 278 357 418
#
# _framework density 21.137996999999999
#
# number of rings (size 3 to 8) (size 9 to 14) (size 15 to 20)
#    0.000    0.667    2.500    6.000    3.500    0.000 
#    3.000    0.833    0.000    0.000    0.000    0.000 
#    0.000    0.000    0.000    0.000    0.000    0.000 
#
# Total GULP energy -134066.219259 kJ/mol
# GULP energy per Si atom -5586.092469 kJ/mol
# Density = 2.108989 g / cm^3
# Si number density = 21.137997 Si / 1000 Ang^3
#
#
#
# Elastic Constant Matrix: (Units=GPa)
#
#
# Indices 1 2 3 4 5 6 
#
# 1 121.8985 14.2686 33.8082 0.0000 0.0000 0.0000
# 2 14.2686 71.8756 21.6791 0.0000 0.0000 0.0000
# 3 33.8082 21.6791 102.5894 0.0000 0.0000 0.0000
# 4 0.0000 0.0000 0.0000 21.5440 0.0000 0.0000
# 5 0.0000 0.0000 0.0000 0.0000 18.0554 0.0000
# 6 0.0000 0.0000 0.0000 0.0000 0.0000 17.0010
#
#
#
# Elastic Compliance Matrix: (Units=1/GPa)
#
#
# Indices 1 2 3 4 5 6 
#
# 1 0.009091 -0.000962 -0.002792 0.000000 0.000000 0.000000
# 2 -0.000962 0.014962 -0.002845 0.000000 0.000000 0.000000
# 3 -0.002792 -0.002845 0.011269 0.000000 0.000000 0.000000
# 4 0.000000 0.000000 0.000000 0.046417 0.000000 0.000000
# 5 0.000000 0.000000 0.000000 0.000000 0.055385 0.000000
# 6 0.000000 0.000000 0.000000 0.000000 0.000000 0.058820
#
#
# Mechanical properties :
#
#
# Convention : Reuss Voigt Hill
#
# Bulk Modulus (GPa) = 45.20239 48.43058 46.81649
# Shear Modulus (GPa) = 23.09292 26.42725 24.76009
#
# Velocity S-wave (km/s) = 3.30886 3.53969 3.42622
# Velocity P-wave (km/s) = 6.00241 6.29819 6.15208
#
# Compressibility (1/GPa) = 0.02212272
#
# Stress axis : x y z
#
# Youngs Moduli (GPa) = 110.00286 66.83610 88.73935
#
# Poissons Ratio (x) = 0.06432 0.24780
# Poissons Ratio (y) = 0.10587 0.25243
# Poissons Ratio (z) = 0.30718 0.19012
#
# Static dielectric constant tensor:
#      x y z
#    x 1.728550 0.000000 0.000000 
#    y 0.000000 1.876270 0.000000 
#    z 0.000000 0.000000 1.773170 
# 
# From -- ./inp_files/11521.got.cif
#   From: 2010.05.17/outbox.cif.g08.bks.cpg/sg20_6_cif.got.tgz:11521.got - 2010.06.03 22:52:26.
