data_PCOD9319582
_publ_section_title
;
Structure prediction by ZEFSAII (Michael W. Deem and Ramdas Pophale) SiO2 
 PCOD9319582
Probable space group: C 2 2 21
;
_chemical_formula_sum "Si O2"
_cell_formula_units_Z 48
_cell_length_a 10.327384
_cell_length_b 15.671132
_cell_length_c 12.751093
_cell_angle_alpha 90.000000
_cell_angle_beta 90.000000
_cell_angle_gamma 90.000000
_cell_volume 2063.659816
_symmetry_space_group_name_H-M "C 2 2 21"
_symmetry_group_IT_number 20
_symmetry_cell_setting 'orthorhombic'
loop_
_space_group_symop_operation_xyz
x,y,z
-x,-y,1/2+z
x,-y,-z
-x,y,1/2-z
1/2+x,1/2+y,z
1/2-x,1/2-y,1/2+z
1/2+x,1/2-y,-z
1/2-x,1/2+y,1/2-z
loop_
_atom_site_type_symbol
_atom_site_label
_atom_site_fract_x
_atom_site_fract_y
_atom_site_fract_z
Si Si1 0.878031 0.882558 0.078548
Si Si2 0.500000 0.501721 0.250000
Si Si3 0.899034 0.411827 0.451423
Si Si4 0.610303 0.290053 0.994187
Si Si5 0.248830 0.606003 0.313519
Si Si6 0.150412 0.764487 0.227515
Si Si7 0.000000 0.494648 0.250000
O O1 0.752409 0.916107 0.022583
O O2 0.821114 0.821869 0.171558
O O3 0.971684 0.836526 0.997151
O O4 0.960252 0.947740 0.147775
O O5 0.371915 0.551018 0.283266
O O6 0.958718 0.500000 0.500000
O O7 0.929013 0.432349 0.331195
O O8 0.923661 0.311387 0.478514
O O9 0.660792 0.303538 0.113143
O O10 0.709886 0.339769 0.917665
O O11 0.231921 0.679565 0.227988
O O12 0.114070 0.552366 0.304790
O O13 0.000000 0.741741 0.250000
#
# Coordination Sequence:
#
# PCOD9319582 Si02
#       7
#     8   4   8   8   8   8   4
#     4  11  24  52  73 108 162 195 252 327 390 448
#     4  12  26  48  74 112 156 206 250 326 384 448
#     4  12  28  50  76 111 152 203 255 326 389 452
#     4  11  26  45  77 114 143 212 259 303 391 479
#     4  12  26  47  78 113 149 212 258 314 387 470
#     4  10  21  48  75 101 157 202 244 323 390 443
#     4  12  28  54  74 110 164 194 260 326 390 448
#
# _framework density 23.259646
#
# number of rings (size 3 to 8) (size 9 to 14) (size 15 to 20)
#    0.000    0.667    6.667    1.000    4.667    0.667 
#   12.000    0.000    0.000    0.000    0.000    0.000 
#    0.000    0.000    0.000    0.000    0.000    0.000 
#
# Total GULP energy -133806.426958 kJ/mol
# GULP energy per Si atom -5575.267790 kJ/mol
# Density = 2.320671 g / cm^3
# Si number density = 23.259646 Si / 1000 Ang^3
#
#
#
# Elastic Constant Matrix: (Units=GPa)
#
#
# Indices 1 2 3 4 5 6 
#
# 1 116.2487 60.5188 28.3886 0.0000 0.0000 0.0000
# 2 60.5188 117.4206 18.1072 0.0000 0.0000 0.0000
# 3 28.3886 18.1072 62.6871 0.0000 0.0000 0.0000
# 4 0.0000 0.0000 0.0000 -300.5128 0.0000 0.0000
# 5 0.0000 0.0000 0.0000 0.0000 25.1695 0.0000
# 6 0.0000 0.0000 0.0000 0.0000 0.0000 -3.5687
#
#
#
# Elastic Compliance Matrix: (Units=1/GPa)
#
#
# Indices 1 2 3 4 5 6 
#
# 1 0.012659 -0.005903 -0.004028 0.000000 0.000000 0.000000
# 2 -0.005903 0.011666 -0.000696 0.000000 0.000000 0.000000
# 3 -0.004028 -0.000696 0.017977 0.000000 0.000000 0.000000
# 4 0.000000 0.000000 0.000000 -0.003328 0.000000 0.000000
# 5 0.000000 0.000000 0.000000 0.000000 0.039731 0.000000
# 6 0.000000 0.000000 0.000000 0.000000 0.000000 -0.280211
#
#
# Mechanical properties :
#
#
# Convention : Reuss Voigt Hill
#
# Bulk Modulus (GPa) = 47.51054 56.70953 52.11003
# Shear Modulus (GPa) = -28.86266 -43.15962 -36.01114
#
# Velocity S-wave (km/s) = -3.52645 -4.31229 -3.93902
# Velocity P-wave (km/s) = 1.97215 0.60040 1.32833
#
# Compressibility (1/GPa) = 0.02104796
#
# Stress axis : x y z
#
# Youngs Moduli (GPa) = 78.99430 85.71600 55.62551
#
# Poissons Ratio (x) = 0.50602 0.22404
# Poissons Ratio (y) = 0.46634 0.03874
# Poissons Ratio (z) = 0.31816 0.05969
#
# Static dielectric constant tensor:
#      x y z
#    x 1.972840 0.000000 0.000000 
#    y 0.000000 1.952500 0.000000 
#    z 0.000000 0.000000 1.979710 
# 
# From -- ./inp_files/18934.got.cif
#   From: 2010.05.17/outbox.cif.g08.bks.cpg/sg20_10_cif.got.tgz:18934.got - 2010.06.03 22:52:26.
