data_PCOD9319476
_publ_section_title
;
Structure prediction by ZEFSAII (Michael W. Deem and Ramdas Pophale) SiO2 
 PCOD9319476
Probable space group: C 2 2 21
;
_chemical_formula_sum "Si O2"
_cell_formula_units_Z 32
_cell_length_a 12.225129
_cell_length_b 5.182573
_cell_length_c 21.744772
_cell_angle_alpha 90.000000
_cell_angle_beta 90.000000
_cell_angle_gamma 90.000000
_cell_volume 1377.697077
_symmetry_space_group_name_H-M "C 2 2 21"
_symmetry_group_IT_number 20
_symmetry_cell_setting 'orthorhombic'
loop_
_space_group_symop_operation_xyz
x,y,z
-x,-y,1/2+z
x,-y,-z
-x,y,1/2-z
1/2+x,1/2+y,z
1/2-x,1/2-y,1/2+z
1/2+x,1/2-y,-z
1/2-x,1/2+y,1/2-z
loop_
_atom_site_type_symbol
_atom_site_label
_atom_site_fract_x
_atom_site_fract_y
_atom_site_fract_z
Si Si1 0.489478 0.555375 0.126598
Si Si2 0.773847 0.177356 0.831353
Si Si3 0.092304 0.434199 0.568897
Si Si4 0.109733 0.317388 0.787084
O O1 0.373265 0.528997 0.162243
O O2 0.477586 0.328884 0.075405
O O3 0.577735 0.440384 0.175003
O O4 0.479037 0.830836 0.095281
O O5 0.804113 0.373870 0.886383
O O6 0.799148 0.297339 0.765436
O O7 0.660497 0.028843 0.832251
O O8 0.125420 0.500000 0.500000
O O9 0.000000 0.398071 0.750000
#
# Coordination Sequence:
#
# PCOD9319476 Si02
#       4
#     8   8   8   8
#     4   9  22  41  66 103 135 188 234 299 353 434
#     4   9  23  37  69 109 141 188 232 302 363 429
#     4  10  21  43  71  99 142 192 244 290 360 423
#     4  10  21  43  66 113 144 187 234 303 371 435
#
# _framework density 23.227167000000001
#
# number of rings (size 3 to 8) (size 9 to 14) (size 15 to 20)
#    1.500    1.000    0.000    0.750    3.500    2.000 
#    9.000    0.000    5.500    0.000    6.500    0.000 
#    0.000    0.000    0.000    0.000    0.000    0.000 
#
# Total GULP energy -89166.143665 kJ/mol
# GULP energy per Si atom -5572.883979 kJ/mol
# Density = 2.317430 g / cm^3
# Si number density = 23.227167 Si / 1000 Ang^3
#
#
#
# Elastic Constant Matrix: (Units=GPa)
#
#
# Indices 1 2 3 4 5 6 
#
# 1 78.3017 73.0790 59.8832 0.0000 0.0000 0.0000
# 2 73.0790 141.7858 68.5989 0.0000 0.0000 0.0000
# 3 59.8832 68.5989 137.7420 0.0000 0.0000 0.0000
# 4 0.0000 0.0000 0.0000 23.3410 0.0000 0.0000
# 5 0.0000 0.0000 0.0000 0.0000 9.5289 0.0000
# 6 0.0000 0.0000 0.0000 0.0000 0.0000 22.7007
#
#
#
# Elastic Compliance Matrix: (Units=1/GPa)
#
#
# Indices 1 2 3 4 5 6 
#
# 1 0.028668 -0.011522 -0.006725 0.000000 0.000000 0.000000
# 2 -0.011522 0.013923 -0.001925 0.000000 0.000000 0.000000
# 3 -0.006725 -0.001925 0.011142 0.000000 0.000000 0.000000
# 4 0.000000 0.000000 0.000000 0.042843 0.000000 0.000000
# 5 0.000000 0.000000 0.000000 0.000000 0.104944 0.000000
# 6 0.000000 0.000000 0.000000 0.000000 0.000000 0.044052
#
#
# Mechanical properties :
#
#
# Convention : Reuss Voigt Hill
#
# Bulk Modulus (GPa) = 74.68724 84.55019 79.61871
# Shear Modulus (GPa) = 17.21887 21.53201 19.37544
#
# Velocity S-wave (km/s) = 2.72568 3.04800 2.89134
# Velocity P-wave (km/s) = 6.49082 6.99053 6.74530
#
# Compressibility (1/GPa) = 0.01338917
#
# Stress axis : x y z
#
# Youngs Moduli (GPa) = 34.88202 71.82418 89.74941
#
# Poissons Ratio (x) = 0.82758 0.60356
# Poissons Ratio (y) = 0.40192 0.17273
# Poissons Ratio (z) = 0.23458 0.13823
#
# Static dielectric constant tensor:
#      x y z
#    x 1.925570 0.000000 0.000000 
#    y 0.000000 2.025900 0.000000 
#    z 0.000000 0.000000 1.881730 
# 
# From -- ./inp_files/27015.got.cif
#   From: 2010.05.17/outbox.cif.g08.bks.cpg/sg20_14_cif.got.tgz:27015.got - 2010.06.03 22:52:26.
