data_PCOD9319136
_publ_section_title
;
Structure prediction by ZEFSAII (Michael W. Deem and Ramdas Pophale) SiO2 
 PCOD9319136
Probable space group: C 2 2 21
;
_chemical_formula_sum "Si O2"
_cell_formula_units_Z 28
_cell_length_a 28.603309
_cell_length_b 5.436649
_cell_length_c 7.472447
_cell_angle_alpha 90.000000
_cell_angle_beta 90.000000
_cell_angle_gamma 90.000000
_cell_volume 1162.011474
_symmetry_space_group_name_H-M "C 2 2 21"
_symmetry_group_IT_number 20
_symmetry_cell_setting 'orthorhombic'
loop_
_space_group_symop_operation_xyz
x,y,z
-x,-y,1/2+z
x,-y,-z
-x,y,1/2-z
1/2+x,1/2+y,z
1/2-x,1/2-y,1/2+z
1/2+x,1/2-y,-z
1/2-x,1/2+y,1/2-z
loop_
_atom_site_type_symbol
_atom_site_label
_atom_site_fract_x
_atom_site_fract_y
_atom_site_fract_z
Si Si1 0.445636 0.019890 0.285670
Si Si2 0.686349 0.187358 0.855499
Si Si3 0.769441 0.500000 0.000000
Si Si4 0.903289 0.981922 0.706561
O O1 0.500000 0.063642 0.250000
O O2 0.415682 0.252258 0.216505
O O3 0.440092 0.000000 0.500000
O O4 0.428928 0.755740 0.211554
O O5 0.733895 0.283004 0.945844
O O6 0.699818 0.059014 0.671534
O O7 0.651160 0.408197 0.807016
O O8 0.664279 0.000000 0.000000
O O9 0.919761 0.000000 0.500000
#
# Coordination Sequence:
#
# PCOD9319136 Si02
#       4
#     8   8   4   8
#     4  10  21  40  68  96 131 177 225 280 354 423
#     4  12  24  44  70 103 143 185 241 300 362 426
#     4  12  26  42  72 104 138 192 242 302 362 432
#     4  10  21  39  70  97 131 185 226 279 355 427
#
# _framework density 24.096147999999999
#
# number of rings (size 3 to 8) (size 9 to 14) (size 15 to 20)
#    0.000    1.143    4.286    3.429    0.000    0.000 
#    2.571    0.000   12.571    0.000    0.000    0.000 
#    0.000    0.000    0.000    0.000    0.000    0.000 
#
# Total GULP energy -78349.475214 kJ/mol
# GULP energy per Si atom -5596.391087 kJ/mol
# Density = 2.404130 g / cm^3
# Si number density = 24.096148 Si / 1000 Ang^3
#
#
#
# Elastic Constant Matrix: (Units=GPa)
#
#
# Indices 1 2 3 4 5 6 
#
# 1 132.7983 74.3251 32.5463 0.0000 0.0000 0.0000
# 2 74.3251 180.5061 38.0782 0.0000 0.0000 0.0000
# 3 32.5463 38.0782 117.7740 0.0000 0.0000 0.0000
# 4 0.0000 0.0000 0.0000 10.9558 0.0000 0.0000
# 5 0.0000 0.0000 0.0000 0.0000 20.7436 0.0000
# 6 0.0000 0.0000 0.0000 0.0000 0.0000 52.8759
#
#
#
# Elastic Compliance Matrix: (Units=1/GPa)
#
#
# Indices 1 2 3 4 5 6 
#
# 1 0.010040 -0.003809 -0.001543 0.000000 0.000000 0.000000
# 2 -0.003809 0.007390 -0.001337 0.000000 0.000000 0.000000
# 3 -0.001543 -0.001337 0.009350 0.000000 0.000000 0.000000
# 4 0.000000 0.000000 0.000000 0.091276 0.000000 0.000000
# 5 0.000000 0.000000 0.000000 0.000000 0.048208 0.000000
# 6 0.000000 0.000000 0.000000 0.000000 0.000000 0.018912
#
#
# Mechanical properties :
#
#
# Convention : Reuss Voigt Hill
#
# Bulk Modulus (GPa) = 74.61265 80.10863 77.36064
# Shear Modulus (GPa) = 24.62812 35.99032 30.30922
#
# Velocity S-wave (km/s) = 3.20046 3.86892 3.55046
# Velocity P-wave (km/s) = 6.68499 7.29902 6.99874
#
# Compressibility (1/GPa) = 0.01340255
#
# Stress axis : x y z
#
# Youngs Moduli (GPa) = 99.60173 135.31435 106.95738
#
# Poissons Ratio (x) = 0.51535 0.16505
# Poissons Ratio (y) = 0.37934 0.14299
# Poissons Ratio (z) = 0.15370 0.18090
#
# Static dielectric constant tensor:
#      x y z
#    x 1.872290 0.000000 0.000000 
#    y 0.000000 1.993450 0.000000 
#    z 0.000000 0.000000 1.880080 
# 
# From -- ./inp_files/5064.got.cif
#   From: 2010.05.17/outbox.cif.g08.bks.cpg/sg20_3_cif.got.tgz:5064.got - 2010.06.03 22:52:26.
