data_PCOD9319182
_publ_section_title
;
Structure prediction by ZEFSAII (Michael W. Deem and Ramdas Pophale) SiO2 
 PCOD9319182
Probable space group: C 2 2 21
;
_chemical_formula_sum "Si O2"
_cell_formula_units_Z 52
_cell_length_a 13.649985
_cell_length_b 7.001573
_cell_length_c 24.327588
_cell_angle_alpha 90.000000
_cell_angle_beta 90.000000
_cell_angle_gamma 90.000000
_cell_volume 2325.020827
_symmetry_space_group_name_H-M "C 2 2 21"
_symmetry_group_IT_number 20
_symmetry_cell_setting 'orthorhombic'
loop_
_space_group_symop_operation_xyz
x,y,z
-x,-y,1/2+z
x,-y,-z
-x,y,1/2-z
1/2+x,1/2+y,z
1/2-x,1/2-y,1/2+z
1/2+x,1/2-y,-z
1/2-x,1/2+y,1/2-z
loop_
_atom_site_type_symbol
_atom_site_label
_atom_site_fract_x
_atom_site_fract_y
_atom_site_fract_z
Si Si1 0.036894 0.222899 0.540432
Si Si2 0.300478 0.500000 0.000000
Si Si3 0.001926 0.622732 0.923098
Si Si4 0.898852 0.162013 0.776080
Si Si5 0.241829 0.813026 0.692507
Si Si6 0.061057 0.559927 0.694169
Si Si7 0.661665 0.180624 0.075370
O O1 0.128760 0.087157 0.546519
O O2 0.013491 0.239351 0.474686
O O3 0.062416 0.435568 0.561046
O O4 0.931715 0.180931 0.568111
O O5 0.236403 0.669463 0.025289
O O6 0.109967 0.529258 0.925242
O O7 0.979696 0.668541 0.859955
O O8 0.836028 0.280348 0.730955
O O9 0.934677 0.331335 0.816659
O O10 0.000000 0.081039 0.750000
O O11 0.825020 0.001439 0.798282
O O12 0.168593 0.639689 0.703493
O O13 0.281025 0.797049 0.631061
O O14 0.000000 0.589236 0.750000
#
# Coordination Sequence:
#
# PCOD9319182 Si02
#       7
#     8   4   8   8   8   8   8
#     4   9  21  39  64  92 129 166 216 271 328 389
#     4  12  20  38  70  92 122 174 210 266 336 386
#     4   9  19  44  61  87 134 164 206 278 325 378
#     4  11  25  44  64  98 135 169 223 276 322 403
#     4  12  24  42  68  97 132 179 225 264 342 406
#     4  11  23  42  69  98 136 181 215 283 339 394
#     4  10  21  40  63  93 131 166 216 276 320 398
#
# _framework density 22.365390999999999
#
# number of rings (size 3 to 8) (size 9 to 14) (size 15 to 20)
#    0.923    0.615    3.077    3.231    2.154    0.000 
#    0.000    6.154    0.000    0.000    0.000    0.000 
#    0.000    0.000    0.000    0.000    0.000    0.000 
#
# Total GULP energy -144900.076314 kJ/mol
# GULP energy per Si atom -5573.079858 kJ/mol
# Density = 2.231449 g / cm^3
# Si number density = 22.365391 Si / 1000 Ang^3
#
#
#
# Elastic Constant Matrix: (Units=GPa)
#
#
# Indices 1 2 3 4 5 6 
#
# 1 107.2260 3.2234 27.3114 0.0000 0.0000 0.0000
# 2 3.2234 25.6095 -2.7820 0.0000 0.0000 0.0000
# 3 27.3114 -2.7820 112.6912 0.0000 0.0000 0.0000
# 4 0.0000 0.0000 0.0000 17.2626 0.0000 0.0000
# 5 0.0000 0.0000 0.0000 0.0000 44.5565 0.0000
# 6 0.0000 0.0000 0.0000 0.0000 0.0000 29.1655
#
#
#
# Elastic Compliance Matrix: (Units=1/GPa)
#
#
# Indices 1 2 3 4 5 6 
#
# 1 0.009999 -0.001526 -0.002461 0.000000 0.000000 0.000000
# 2 -0.001526 0.039386 0.001342 0.000000 0.000000 0.000000
# 3 -0.002461 0.001342 0.009503 0.000000 0.000000 0.000000
# 4 0.000000 0.000000 0.000000 0.057929 0.000000 0.000000
# 5 0.000000 0.000000 0.000000 0.000000 0.022443 0.000000
# 6 0.000000 0.000000 0.000000 0.000000 0.000000 0.034287
#
#
# Mechanical properties :
#
#
# Convention : Reuss Voigt Hill
#
# Bulk Modulus (GPa) = 18.65718 33.44803 26.05261
# Shear Modulus (GPa) = 25.41906 32.71518 29.06712
#
# Velocity S-wave (km/s) = 3.37491 3.82875 3.60897
# Velocity P-wave (km/s) = 4.85250 5.87652 5.38889
#
# Compressibility (1/GPa) = 0.05359867
#
# Stress axis : x y z
#
# Youngs Moduli (GPa) = 100.01213 25.38983 105.22593
#
# Poissons Ratio (x) = 0.03874 0.25895
# Poissons Ratio (y) = 0.15260 -0.14123
# Poissons Ratio (z) = 0.24612 -0.03408
#
# Static dielectric constant tensor:
#      x y z
#    x 1.907540 0.000000 0.000000 
#    y 0.000000 1.863860 0.000000 
#    z 0.000000 0.000000 1.886890 
# 
# From -- ./inp_files/29281.got.cif
#   From: 2010.05.17/outbox.cif.g08.bks.cpg/sg20_15_cif.got.tgz:29281.got - 2010.06.03 22:52:26.
