data_PCOD9319814
_publ_section_title
;
Structure prediction by ZEFSAII (Michael W. Deem and Ramdas Pophale) SiO2 
 PCOD9319814
Probable space group: C 2 2 21
;
_chemical_formula_sum "Si O2"
_cell_formula_units_Z 44
_cell_length_a 11.293681
_cell_length_b 7.523409
_cell_length_c 20.728577
_cell_angle_alpha 90.000000
_cell_angle_beta 90.000000
_cell_angle_gamma 90.000000
_cell_volume 1761.244614
_symmetry_space_group_name_H-M "C 2 2 21"
_symmetry_group_IT_number 20
_symmetry_cell_setting 'orthorhombic'
loop_
_space_group_symop_operation_xyz
x,y,z
-x,-y,1/2+z
x,-y,-z
-x,y,1/2-z
1/2+x,1/2+y,z
1/2-x,1/2-y,1/2+z
1/2+x,1/2-y,-z
1/2-x,1/2+y,1/2-z
loop_
_atom_site_type_symbol
_atom_site_label
_atom_site_fract_x
_atom_site_fract_y
_atom_site_fract_z
Si Si1 0.000000 0.399395 0.250000
Si Si2 0.922315 0.867869 0.646434
Si Si3 0.331571 0.485714 0.172227
Si Si4 0.228497 0.601701 0.689942
Si Si5 0.682328 0.321435 0.462734
Si Si6 0.561059 0.289556 0.992741
O O1 0.922052 0.271010 0.295325
O O2 0.900575 0.485218 0.205138
O O3 0.962726 0.763757 0.583154
O O4 0.804059 0.983891 0.640629
O O5 0.027712 0.003227 0.663115
O O6 0.299587 0.413369 0.242539
O O7 0.287300 0.692564 0.169797
O O8 0.287741 0.372683 0.111102
O O9 0.649390 0.500000 0.500000
O O10 0.554928 0.219401 0.468755
O O11 0.802872 0.270636 0.500030
O O12 0.573988 0.500000 0.000000
#
# Coordination Sequence:
#
# PCOD9319814 Si02
#       6
#     4   8   8   8   8   8
#     4  10  22  40  62  96 136 176 214 284 342 404
#     4  11  20  42  68  92 135 178 221 279 348 405
#     4  11  23  44  70 100 139 182 233 287 350 421
#     4  11  22  41  70  99 137 181 223 287 348 405
#     4  11  25  46  70 104 141 184 236 291 352 423
#     4  11  25  44  72  97 136 187 231 284 351 419
#
# _framework density 24.982333000000001
#
# number of rings (size 3 to 8) (size 9 to 14) (size 15 to 20)
#    0.000    1.091    7.273    1.091    2.545    0.727 
#    3.273    1.818    0.000    0.000    0.000    0.000 
#    0.000    0.000    0.000    0.000    0.000    0.000 
#
# Total GULP energy -122777.854308 kJ/mol
# GULP energy per Si atom -5580.811559 kJ/mol
# Density = 2.492547 g / cm^3
# Si number density = 24.982333 Si / 1000 Ang^3
#
#
#
# Elastic Constant Matrix: (Units=GPa)
#
#
# Indices 1 2 3 4 5 6 
#
# 1 182.8622 29.5652 1.5889 0.0000 0.0000 0.0000
# 2 29.5652 54.9117 6.9730 0.0000 0.0000 0.0000
# 3 1.5889 6.9730 85.0152 0.0000 0.0000 0.0000
# 4 0.0000 0.0000 0.0000 20.7944 0.0000 0.0000
# 5 0.0000 0.0000 0.0000 0.0000 19.7593 0.0000
# 6 0.0000 0.0000 0.0000 0.0000 0.0000 117.0795
#
#
#
# Elastic Compliance Matrix: (Units=1/GPa)
#
#
# Indices 1 2 3 4 5 6 
#
# 1 0.005992 -0.003246 0.000154 0.000000 0.000000 0.000000
# 2 -0.003246 0.020161 -0.001593 0.000000 0.000000 0.000000
# 3 0.000154 -0.001593 0.011890 0.000000 0.000000 0.000000
# 4 0.000000 0.000000 0.000000 0.048090 0.000000 0.000000
# 5 0.000000 0.000000 0.000000 0.000000 0.050609 0.000000
# 6 0.000000 0.000000 0.000000 0.000000 0.000000 0.008541
#
#
# Mechanical properties :
#
#
# Convention : Reuss Voigt Hill
#
# Bulk Modulus (GPa) = 34.87440 44.33816 39.60628
# Shear Modulus (GPa) = 30.44870 50.50410 40.47640
#
# Velocity S-wave (km/s) = 3.49493 4.50109 4.02954
# Velocity P-wave (km/s) = 5.50236 6.69324 6.12680
#
# Compressibility (1/GPa) = 0.02867433
#
# Stress axis : x y z
#
# Youngs Moduli (GPa) = 166.88813 49.60091 84.10168
#
# Poissons Ratio (x) = 0.16099 -0.01297
# Poissons Ratio (y) = 0.54168 0.13397
# Poissons Ratio (z) = -0.02574 0.07901
#
# Static dielectric constant tensor:
#      x y z
#    x 2.122780 0.000000 0.000000 
#    y 0.000000 2.888930 0.000000 
#    z 0.000000 0.000000 1.653780 
# 
# From -- ./inp_files/29046.got.cif
#   From: 2010.05.17/outbox.cif.g08.bks.cpg/sg20_15_cif.got.tgz:29046.got - 2010.06.03 22:52:26.
