data_PCOD9319833
_publ_section_title
;
Structure prediction by ZEFSAII (Michael W. Deem and Ramdas Pophale) SiO2 
 PCOD9319833
Probable space group: C 2 2 21
;
_chemical_formula_sum "Si O2"
_cell_formula_units_Z 40
_cell_length_a 29.244378
_cell_length_b 5.038918
_cell_length_c 11.064014
_cell_angle_alpha 90.000000
_cell_angle_beta 90.000000
_cell_angle_gamma 90.000000
_cell_volume 1630.393354
_symmetry_space_group_name_H-M "C 2 2 21"
_symmetry_group_IT_number 20
_symmetry_cell_setting 'orthorhombic'
loop_
_space_group_symop_operation_xyz
x,y,z
-x,-y,1/2+z
x,-y,-z
-x,y,1/2-z
1/2+x,1/2+y,z
1/2-x,1/2-y,1/2+z
1/2+x,1/2-y,-z
1/2-x,1/2+y,1/2-z
loop_
_atom_site_type_symbol
_atom_site_label
_atom_site_fract_x
_atom_site_fract_y
_atom_site_fract_z
Si Si1 0.789444 0.500000 0.500000
Si Si2 0.405136 0.000000 0.000000
Si Si3 0.144523 0.767342 0.190111
Si Si4 0.975282 0.904771 0.129499
Si Si5 0.901089 0.278519 0.231981
Si Si6 0.267511 0.186864 0.184311
O O1 0.822991 0.332290 0.584888
O O2 0.757136 0.708291 0.566778
O O3 0.378933 0.828733 0.099461
O O4 0.437521 0.199751 0.077047
O O5 0.103704 0.555469 0.199830
O O6 0.178832 0.744673 0.304636
O O7 0.125212 0.060866 0.189586
O O8 0.000000 0.789867 0.250000
O O9 0.949194 0.154217 0.191832
O O10 0.998577 0.000000 0.000000
O O11 0.243447 0.383981 0.283246
#
# Coordination Sequence:
#
# PCOD9319833 Si02
#       6
#     4   4   8   8   8   8
#     4  10  24  44  65  98 140 190 230 310 370 431
#     4  10  22  44  73 100 150 178 248 286 360 439
#     4  11  23  42  67  95 144 180 240 298 357 431
#     4  10  23  47  76 107 149 191 242 302 363 450
#     4  11  23  43  67 106 136 185 233 288 358 427
#     4  10  22  40  64  93 128 179 234 283 356 428
#
# _framework density 24.533954999999999
#
# number of rings (size 3 to 8) (size 9 to 14) (size 15 to 20)
#    0.000    1.600    2.000    2.400    0.000   12.000 
#    3.600    0.000    0.000    0.000    0.000    0.000 
#    0.000    0.000    0.000    0.000    0.000    0.000 
#
# Total GULP energy -111581.250719 kJ/mol
# GULP energy per Si atom -5579.062536 kJ/mol
# Density = 2.447811 g / cm^3
# Si number density = 24.533955 Si / 1000 Ang^3
#
#
#
# Elastic Constant Matrix: (Units=GPa)
#
#
# Indices 1 2 3 4 5 6 
#
# 1 36.1559 7.8730 20.4468 0.0000 0.0000 0.0000
# 2 7.8730 102.0611 22.8493 0.0000 0.0000 0.0000
# 3 20.4468 22.8493 117.7332 0.0000 0.0000 0.0000
# 4 0.0000 0.0000 0.0000 40.0451 0.0000 0.0000
# 5 0.0000 0.0000 0.0000 0.0000 43.1916 0.0000
# 6 0.0000 0.0000 0.0000 0.0000 0.0000 38.7454
#
#
#
# Elastic Compliance Matrix: (Units=1/GPa)
#
#
# Indices 1 2 3 4 5 6 
#
# 1 0.030818 -0.001233 -0.005113 0.000000 0.000000 0.000000
# 2 -0.001233 0.010292 -0.001783 0.000000 0.000000 0.000000
# 3 -0.005113 -0.001783 0.009728 0.000000 0.000000 0.000000
# 4 0.000000 0.000000 0.000000 0.024972 0.000000 0.000000
# 5 0.000000 0.000000 0.000000 0.000000 0.023153 0.000000
# 6 0.000000 0.000000 0.000000 0.000000 0.000000 0.025809
#
#
# Mechanical properties :
#
#
# Convention : Reuss Voigt Hill
#
# Bulk Modulus (GPa) = 28.91834 39.80983 34.36409
# Shear Modulus (GPa) = 32.77467 38.04850 35.41158
#
# Velocity S-wave (km/s) = 3.65895 3.94236 3.80329
# Velocity P-wave (km/s) = 5.44639 6.08149 5.77268
#
# Compressibility (1/GPa) = 0.03458013
#
# Stress axis : x y z
#
# Youngs Moduli (GPa) = 32.44872 97.15889 102.79732
#
# Poissons Ratio (x) = 0.11976 0.52560
# Poissons Ratio (y) = 0.04000 0.18333
# Poissons Ratio (z) = 0.16591 0.17328
#
# Static dielectric constant tensor:
#      x y z
#    x 1.976340 0.000000 0.000000 
#    y 0.000000 1.970470 0.000000 
#    z 0.000000 0.000000 2.146510 
# 
# From -- ./inp_files/16883.got.cif
#   From: 2010.05.17/outbox.cif.g08.bks.cpg/sg20_9_cif.got.tgz:16883.got - 2010.06.03 22:52:26.
