data_PCOD9319383
_publ_section_title
;
Structure prediction by ZEFSAII (Michael W. Deem and Ramdas Pophale) SiO2 
 PCOD9319383
Probable space group: C 2 2 21
;
_chemical_formula_sum "Si O2"
_cell_formula_units_Z 60
_cell_length_a 6.322337
_cell_length_b 27.215218
_cell_length_c 16.422462
_cell_angle_alpha 90.000000
_cell_angle_beta 90.000000
_cell_angle_gamma 90.000000
_cell_volume 2825.710884
_symmetry_space_group_name_H-M "C 2 2 21"
_symmetry_group_IT_number 20
_symmetry_cell_setting 'orthorhombic'
loop_
_space_group_symop_operation_xyz
x,y,z
-x,-y,1/2+z
x,-y,-z
-x,y,1/2-z
1/2+x,1/2+y,z
1/2-x,1/2-y,1/2+z
1/2+x,1/2-y,-z
1/2-x,1/2+y,1/2-z
loop_
_atom_site_type_symbol
_atom_site_label
_atom_site_fract_x
_atom_site_fract_y
_atom_site_fract_z
Si Si1 0.175715 0.601675 0.461699
Si Si2 0.070230 0.852222 0.481778
Si Si3 0.383158 0.710220 0.666257
Si Si4 0.138487 0.320329 0.883145
Si Si5 0.898965 0.483304 0.590294
Si Si6 0.244010 0.091017 0.284941
Si Si7 0.593939 0.908784 0.116327
Si Si8 0.000000 0.666623 0.750000
O O1 0.412188 0.619070 0.459820
O O2 0.046867 0.643946 0.414935
O O3 0.111573 0.548754 0.426098
O O4 0.105328 0.600800 0.556693
O O5 0.957766 0.821758 0.410389
O O6 0.208945 0.816733 0.538413
O O7 0.213380 0.894169 0.441724
O O8 0.500000 0.696549 0.750000
O O9 0.424745 0.766931 0.646259
O O10 0.141102 0.699509 0.690379
O O11 0.246068 0.352262 0.812168
O O12 0.827248 0.500000 0.500000
O O13 0.752555 0.446018 0.638690
O O14 0.918212 0.534177 0.638760
O O15 0.500000 0.082967 0.250000
O O16 0.000000 0.083573 0.250000
O O17 0.615939 0.871548 0.190376
#
# Coordination Sequence:
#
# PCOD9319383 Si02
#       8
#     8   8   8   8   8   8   8   4
#     4   9  20  43  67  97 130 172 227 297 344 430
#     4  11  23  42  71 100 137 180 239 297 361 436
#     4  12  26  44  66 101 137 187 235 295 362 439
#     4  10  26  42  71  98 139 181 240 298 367 439
#     4   9  21  46  70 101 138 188 239 292 373 441
#     4  11  26  50  73 111 150 192 248 316 377 445
#     4  10  21  42  63  98 134 177 226 283 358 429
#     4  12  24  40  62  94 142 178 226 282 356 434
#
# _framework density 21.233594
#
# number of rings (size 3 to 8) (size 9 to 14) (size 15 to 20)
#    0.000    1.600    2.667    1.200    7.467    1.067 
#    7.200    2.667    0.000    0.000    0.000    0.000 
#    0.000    0.000    0.000    0.000    0.000    0.000 
#
# Total GULP energy -167065.748783 kJ/mol
# GULP energy per Si atom -5568.858293 kJ/mol
# Density = 2.118527 g / cm^3
# Si number density = 21.233594 Si / 1000 Ang^3
#
#
#
# Elastic Constant Matrix: (Units=GPa)
#
#
# Indices 1 2 3 4 5 6 
#
# 1 71.3425 6.6640 27.0095 0.0000 0.0000 0.0000
# 2 6.6640 100.2009 11.0172 0.0000 0.0000 0.0000
# 3 27.0095 11.0172 63.1823 0.0000 0.0000 0.0000
# 4 0.0000 0.0000 0.0000 34.1163 0.0000 0.0000
# 5 0.0000 0.0000 0.0000 0.0000 28.3667 0.0000
# 6 0.0000 0.0000 0.0000 0.0000 0.0000 -2.9765
#
#
#
# Elastic Compliance Matrix: (Units=1/GPa)
#
#
# Indices 1 2 3 4 5 6 
#
# 1 0.016734 -0.000333 -0.007096 0.000000 0.000000 0.000000
# 2 -0.000333 0.010182 -0.001633 0.000000 0.000000 0.000000
# 3 -0.007096 -0.001633 0.019145 0.000000 0.000000 0.000000
# 4 0.000000 0.000000 0.000000 0.029312 0.000000 0.000000
# 5 0.000000 0.000000 0.000000 0.000000 0.035253 0.000000
# 6 0.000000 0.000000 0.000000 0.000000 0.000000 -0.335967
#
#
# Mechanical properties :
#
#
# Convention : Reuss Voigt Hill
#
# Bulk Modulus (GPa) = 35.79338 36.01191 35.90264
# Shear Modulus (GPa) = -25.26448 24.57031 -0.34708
#
# Velocity S-wave (km/s) = -3.45314 3.40537 -0.40474
# Velocity P-wave (km/s) = 0.99732 5.69726 4.08983
#
# Compressibility (1/GPa) = 0.02793813
#
# Stress axis : x y z
#
# Youngs Moduli (GPa) = 59.75753 98.21598 52.23225
#
# Poissons Ratio (x) = 0.03268 0.37062
# Poissons Ratio (y) = 0.01988 0.08530
# Poissons Ratio (z) = 0.42402 0.16040
#
# Static dielectric constant tensor:
#      x y z
#    x 1.865990 0.000000 0.000000 
#    y 0.000000 1.714220 0.000000 
#    z 0.000000 0.000000 1.836610 
# 
# From -- ./inp_files/22909.got.cif
#   From: 2010.05.17/outbox.cif.g08.bks.cpg/sg20_12_cif.got.tgz:22909.got - 2010.06.03 22:52:26.
