data_PCOD9319088
_publ_section_title
;
Structure prediction by ZEFSAII (Michael W. Deem and Ramdas Pophale) SiO2 
 PCOD9319088
Probable space group: C 2 2 21
;
_chemical_formula_sum "Si O2"
_cell_formula_units_Z 40
_cell_length_a 22.718560
_cell_length_b 7.880590
_cell_length_c 9.487987
_cell_angle_alpha 90.000000
_cell_angle_beta 90.000000
_cell_angle_gamma 90.000000
_cell_volume 1698.687984
_symmetry_space_group_name_H-M "C 2 2 21"
_symmetry_group_IT_number 20
_symmetry_cell_setting 'orthorhombic'
loop_
_space_group_symop_operation_xyz
x,y,z
-x,-y,1/2+z
x,-y,-z
-x,y,1/2-z
1/2+x,1/2+y,z
1/2-x,1/2-y,1/2+z
1/2+x,1/2-y,-z
1/2-x,1/2+y,1/2-z
loop_
_atom_site_type_symbol
_atom_site_label
_atom_site_fract_x
_atom_site_fract_y
_atom_site_fract_z
Si Si1 0.762000 0.533911 0.352128
Si Si2 0.558584 0.197709 0.836787
Si Si3 0.831213 0.673176 0.842265
Si Si4 0.557937 0.214790 0.163077
Si Si5 0.141401 0.153894 0.603752
O O1 0.795327 0.500000 0.500000
O O2 0.805438 0.496975 0.225128
O O3 0.726664 0.708113 0.348082
O O4 0.707697 0.401750 0.359816
O O5 0.500000 0.248176 0.750000
O O6 0.619570 0.249413 0.762513
O O7 0.561406 0.991001 0.831974
O O8 0.555541 0.257856 0.998023
O O9 0.859417 0.687712 0.996068
O O10 0.500000 0.262542 0.250000
O O11 0.608426 0.305638 0.252867
O O12 0.119082 0.000000 0.500000
#
# Coordination Sequence:
#
# PCOD9319088 Si02
#       5
#     8   8   8   8   8
#     4   9  22  40  59  93 129 167 213 265 321 384
#     4  10  22  38  65  98 128 164 215 267 330 392
#     4  10  21  40  65  91 128 170 212 269 322 390
#     4  10  21  39  65  93 129 169 212 273 324 387
#     4   9  21  42  60  88 133 172 217 267 323 391
#
# _framework density 23.547585000000002
#
# number of rings (size 3 to 8) (size 9 to 14) (size 15 to 20)
#    0.000    2.800    0.000    1.200    5.600    4.000 
#    3.600   20.000    0.000    0.000    0.000    0.000 
#    0.000    0.000    0.000    0.000    0.000    0.000 
#
# Total GULP energy -111681.606849 kJ/mol
# GULP energy per Si atom -5584.080342 kJ/mol
# Density = 2.349399 g / cm^3
# Si number density = 23.547585 Si / 1000 Ang^3
#
#
#
# Elastic Constant Matrix: (Units=GPa)
#
#
# Indices 1 2 3 4 5 6 
#
# 1 49.1033 7.2185 57.1873 0.0000 0.0000 0.0000
# 2 7.2185 47.2842 33.5334 0.0000 0.0000 0.0000
# 3 57.1873 33.5334 220.7065 0.0000 0.0000 0.0000
# 4 0.0000 0.0000 0.0000 34.3126 0.0000 0.0000
# 5 0.0000 0.0000 0.0000 0.0000 50.0952 0.0000
# 6 0.0000 0.0000 0.0000 0.0000 0.0000 -30.6790
#
#
#
# Elastic Compliance Matrix: (Units=1/GPa)
#
#
# Indices 1 2 3 4 5 6 
#
# 1 0.029211 0.001018 -0.007723 0.000000 0.000000 0.000000
# 2 0.001018 0.023738 -0.003870 0.000000 0.000000 0.000000
# 3 -0.007723 -0.003870 0.007120 0.000000 0.000000 0.000000
# 4 0.000000 0.000000 0.000000 0.029144 0.000000 0.000000
# 5 0.000000 0.000000 0.000000 0.000000 0.019962 0.000000
# 6 0.000000 0.000000 0.000000 0.000000 0.000000 -0.032596
#
#
# Mechanical properties :
#
#
# Convention : Reuss Voigt Hill
#
# Bulk Modulus (GPa) = 25.69557 56.99693 41.34625
# Shear Modulus (GPa) = 45.16575 25.35608 35.26091
#
# Velocity S-wave (km/s) = 4.38432 3.28503 3.87386
# Velocity P-wave (km/s) = 6.04695 6.21660 6.13236
#
# Compressibility (1/GPa) = 0.03891721
#
# Stress axis : x y z
#
# Youngs Moduli (GPa) = 34.23421 42.12617 140.44563
#
# Poissons Ratio (x) = -0.04289 1.08472
# Poissons Ratio (y) = -0.03485 0.54359
# Poissons Ratio (z) = 0.26441 0.16305
#
# Static dielectric constant tensor:
#      x y z
#    x 1.872440 0.000000 0.000000 
#    y 0.000000 2.018470 0.000000 
#    z 0.000000 0.000000 2.041950 
# 
# From -- ./inp_files/10512.got.cif
#   From: 2010.05.17/outbox.cif.g08.bks.cpg/sg20_6_cif.got.tgz:10512.got - 2010.06.03 22:52:26.
