data_PCOD9319338
_publ_section_title
;
Structure prediction by ZEFSAII (Michael W. Deem and Ramdas Pophale) SiO2 
 PCOD9319338
Probable space group: C 2 2 21
;
_chemical_formula_sum "Si O2"
_cell_formula_units_Z 64
_cell_length_a 11.419789
_cell_length_b 17.560933
_cell_length_c 15.844737
_cell_angle_alpha 90.000000
_cell_angle_beta 90.000000
_cell_angle_gamma 90.000000
_cell_volume 3177.537616
_symmetry_space_group_name_H-M "C 2 2 21"
_symmetry_group_IT_number 20
_symmetry_cell_setting 'orthorhombic'
loop_
_space_group_symop_operation_xyz
x,y,z
-x,-y,1/2+z
x,-y,-z
-x,y,1/2-z
1/2+x,1/2+y,z
1/2-x,1/2-y,1/2+z
1/2+x,1/2-y,-z
1/2-x,1/2+y,1/2-z
loop_
_atom_site_type_symbol
_atom_site_label
_atom_site_fract_x
_atom_site_fract_y
_atom_site_fract_z
Si Si1 0.434185 0.450935 0.418041
Si Si2 0.440659 0.709613 0.343103
Si Si3 0.470140 0.149565 0.156114
Si Si4 0.674980 0.504923 0.656181
Si Si5 0.644391 0.070627 0.049680
Si Si6 0.720497 0.434485 0.835293
Si Si7 0.973176 0.791890 0.030850
Si Si8 0.222550 0.658973 0.899143
O O1 0.465133 0.500000 0.500000
O O2 0.540232 0.470871 0.353974
O O3 0.313006 0.488288 0.385869
O O4 0.440408 0.361402 0.440597
O O5 0.500000 0.711880 0.250000
O O6 0.377643 0.628596 0.355031
O O7 0.516655 0.719726 0.429470
O O8 0.341144 0.775039 0.348048
O O9 0.500000 0.177687 0.250000
O O10 0.569678 0.089595 0.130781
O O11 0.345196 0.106571 0.150709
O O12 0.485670 0.217355 0.089065
O O13 0.725806 0.454165 0.579299
O O14 0.701255 0.457780 0.738948
O O15 0.751067 0.582536 0.653321
O O16 0.647175 0.136176 0.980531
O O17 0.590507 0.000000 0.000000
O O18 0.844766 0.818176 0.059183
#
# Coordination Sequence:
#
# PCOD9319338 Si02
#       8
#     8   8   8   8   8   8   8   8
#     4  11  22  41  68 100 131 174 228 290 350 408
#     4  12  25  43  69 102 140 184 237 296 357 422
#     4  12  25  44  69  99 147 189 231 286 359 431
#     4  10  21  41  68  96 128 175 229 288 339 421
#     4  10  21  41  68  93 126 185 232 275 339 429
#     4  12  25  42  67 104 134 176 236 296 347 420
#     4  11  24  45  70 100 148 180 231 298 357 426
#     4  10  22  43  67  98 133 184 237 277 359 422
#
# _framework density 20.141382
#
# number of rings (size 3 to 8) (size 9 to 14) (size 15 to 20)
#    0.000    1.000    5.000    3.000    1.750    2.500 
#    4.500    1.250    0.000    0.000    0.000    0.000 
#    0.000    0.000    0.000    0.000    0.000    0.000 
#
# Total GULP energy -178437.563103 kJ/mol
# GULP energy per Si atom -5576.173847 kJ/mol
# Density = 2.009554 g / cm^3
# Si number density = 20.141382 Si / 1000 Ang^3
#
#
#
# Elastic Constant Matrix: (Units=GPa)
#
#
# Indices 1 2 3 4 5 6 
#
# 1 63.5067 30.5280 35.1209 0.0000 0.0000 0.0000
# 2 30.5280 77.1916 37.3802 0.0000 0.0000 0.0000
# 3 35.1209 37.3802 110.9913 0.0000 0.0000 0.0000
# 4 0.0000 0.0000 0.0000 38.6801 0.0000 0.0000
# 5 0.0000 0.0000 0.0000 0.0000 28.8635 0.0000
# 6 0.0000 0.0000 0.0000 0.0000 0.0000 241.5886
#
#
#
# Elastic Compliance Matrix: (Units=1/GPa)
#
#
# Indices 1 2 3 4 5 6 
#
# 1 0.021285 -0.006161 -0.004660 0.000000 0.000000 0.000000
# 2 -0.006161 0.017263 -0.003864 0.000000 0.000000 0.000000
# 3 -0.004660 -0.003864 0.011786 0.000000 0.000000 0.000000
# 4 0.000000 0.000000 0.000000 0.025853 0.000000 0.000000
# 5 0.000000 0.000000 0.000000 0.000000 0.034646 0.000000
# 6 0.000000 0.000000 0.000000 0.000000 0.000000 0.004139
#
#
# Mechanical properties :
#
#
# Convention : Reuss Voigt Hill
#
# Bulk Modulus (GPa) = 47.70462 50.86086 49.28274
# Shear Modulus (GPa) = 33.04014 71.73714 52.38864
#
# Velocity S-wave (km/s) = 4.05459 5.97446 5.10558
# Velocity P-wave (km/s) = 6.75692 8.53808 7.69918
#
# Compressibility (1/GPa) = 0.02096233
#
# Stress axis : x y z
#
# Youngs Moduli (GPa) = 46.98057 57.92841 84.84796
#
# Poissons Ratio (x) = 0.35691 0.39542
# Poissons Ratio (y) = 0.28946 0.32787
# Poissons Ratio (z) = 0.21894 0.22385
#
# Static dielectric constant tensor:
#      x y z
#    x 1.740490 0.000000 0.000000 
#    y 0.000000 1.819960 0.000000 
#    z 0.000000 0.000000 1.725320 
# 
# From -- ./inp_files/20270.got.cif
#   From: 2010.05.17/outbox.cif.g08.bks.cpg/sg20_11_cif.got.tgz:20270.got - 2010.06.03 22:52:26.
