data_PCOD9319976
_publ_section_title
;
Structure prediction by ZEFSAII (Michael W. Deem and Ramdas Pophale) SiO2 
 PCOD9319976
Probable space group: C 2 2 21
;
_chemical_formula_sum "Si O2"
_cell_formula_units_Z 32
_cell_length_a 18.614928
_cell_length_b 5.185095
_cell_length_c 13.063916
_cell_angle_alpha 90.000000
_cell_angle_beta 90.000000
_cell_angle_gamma 90.000000
_cell_volume 1260.931394
_symmetry_space_group_name_H-M "C 2 2 21"
_symmetry_group_IT_number 20
_symmetry_cell_setting 'orthorhombic'
loop_
_space_group_symop_operation_xyz
x,y,z
-x,-y,1/2+z
x,-y,-z
-x,y,1/2-z
1/2+x,1/2+y,z
1/2-x,1/2-y,1/2+z
1/2+x,1/2-y,-z
1/2-x,1/2+y,1/2-z
loop_
_atom_site_type_symbol
_atom_site_label
_atom_site_fract_x
_atom_site_fract_y
_atom_site_fract_z
Si Si1 0.604589 0.523260 0.663502
Si Si2 0.942746 0.109104 0.609654
Si Si3 0.803333 0.467069 0.164249
Si Si4 0.686839 0.105517 0.108875
O O1 0.528310 0.598964 0.615081
O O2 0.585894 0.487125 0.784359
O O3 0.642144 0.259767 0.629785
O O4 0.658190 0.761949 0.644406
O O5 0.899784 0.377906 0.613627
O O6 0.920268 0.000000 0.500000
O O7 0.726968 0.382618 0.118509
O O8 0.792386 0.458924 0.287484
O O9 0.708803 0.000000 0.000000
#
# Coordination Sequence:
#
# PCOD9319976 Si02
#       4
#     8   8   8   8
#     4  10  24  44  68  95 136 181 222 282 349 406
#     4  10  22  41  67  99 133 176 231 283 339 412
#     4  11  24  46  68  99 139 179 228 285 345 413
#     4  11  24  44  73 104 139 187 237 290 350 419
#
# _framework density 25.378064999999999
#
# number of rings (size 3 to 8) (size 9 to 14) (size 15 to 20)
#    0.000    1.500    0.000    4.500    0.000   13.000 
#    0.000    5.000    0.000    0.000    0.000    0.000 
#    0.000    0.000    0.000    0.000    0.000    0.000 
#
# Total GULP energy -89471.670090 kJ/mol
# GULP energy per Si atom -5591.979381 kJ/mol
# Density = 2.532030 g / cm^3
# Si number density = 25.378065 Si / 1000 Ang^3
#
#
#
# Elastic Constant Matrix: (Units=GPa)
#
#
# Indices 1 2 3 4 5 6 
#
# 1 173.8228 53.9127 19.3481 0.0000 0.0000 0.0000
# 2 53.9127 122.9960 15.2421 0.0000 0.0000 0.0000
# 3 19.3481 15.2421 135.8296 0.0000 0.0000 0.0000
# 4 0.0000 0.0000 0.0000 38.0572 0.0000 0.0000
# 5 0.0000 0.0000 0.0000 0.0000 24.0688 0.0000
# 6 0.0000 0.0000 0.0000 0.0000 0.0000 28.7642
#
#
#
# Elastic Compliance Matrix: (Units=1/GPa)
#
#
# Indices 1 2 3 4 5 6 
#
# 1 0.006712 -0.002863 -0.000635 0.000000 0.000000 0.000000
# 2 -0.002863 0.009467 -0.000654 0.000000 0.000000 0.000000
# 3 -0.000635 -0.000654 0.007526 0.000000 0.000000 0.000000
# 4 0.000000 0.000000 0.000000 0.026276 0.000000 0.000000
# 5 0.000000 0.000000 0.000000 0.000000 0.041548 0.000000
# 6 0.000000 0.000000 0.000000 0.000000 0.000000 0.034765
#
#
# Mechanical properties :
#
#
# Convention : Reuss Voigt Hill
#
# Bulk Modulus (GPa) = 64.93783 67.73935 66.33859
# Shear Modulus (GPa) = 35.78289 41.12106 38.45197
#
# Velocity S-wave (km/s) = 3.75906 4.02971 3.89674
# Velocity P-wave (km/s) = 6.66967 6.95711 6.81491
#
# Compressibility (1/GPa) = 0.01539935
#
# Stress axis : x y z
#
# Youngs Moduli (GPa) = 148.99338 105.63566 132.87240
#
# Poissons Ratio (x) = 0.30246 0.08434
# Poissons Ratio (y) = 0.42661 0.08695
# Poissons Ratio (z) = 0.09457 0.06913
#
# Static dielectric constant tensor:
#      x y z
#    x 1.992400 0.000000 0.000000 
#    y 0.000000 2.027180 0.000000 
#    z 0.000000 0.000000 2.017300 
# 
# From -- ./inp_files/21022.got.cif
#   From: 2010.05.17/outbox.cif.g08.bks.cpg/sg20_11_cif.got.tgz:21022.got - 2010.06.03 22:52:26.
