data_PCOD9319394
_publ_section_title
;
Structure prediction by ZEFSAII (Michael W. Deem and Ramdas Pophale) SiO2 
 PCOD9319394
Probable space group: C 2 2 21
;
_chemical_formula_sum "Si O2"
_cell_formula_units_Z 56
_cell_length_a 15.676232
_cell_length_b 5.607151
_cell_length_c 25.449856
_cell_angle_alpha 90.000000
_cell_angle_beta 90.000000
_cell_angle_gamma 90.000000
_cell_volume 2237.016891
_symmetry_space_group_name_H-M "C 2 2 21"
_symmetry_group_IT_number 20
_symmetry_cell_setting 'orthorhombic'
loop_
_space_group_symop_operation_xyz
x,y,z
-x,-y,1/2+z
x,-y,-z
-x,y,1/2-z
1/2+x,1/2+y,z
1/2-x,1/2-y,1/2+z
1/2+x,1/2-y,-z
1/2-x,1/2+y,1/2-z
loop_
_atom_site_type_symbol
_atom_site_label
_atom_site_fract_x
_atom_site_fract_y
_atom_site_fract_z
Si Si1 0.043292 0.418834 0.585564
Si Si2 0.211401 0.321765 0.406294
Si Si3 0.114699 0.050438 0.656558
Si Si4 0.517370 0.841447 0.192131
Si Si5 0.611476 0.678619 0.951834
Si Si6 0.149662 0.016653 0.154545
Si Si7 0.301641 0.763751 0.747694
O O1 0.122388 0.588792 0.569269
O O2 0.006693 0.508827 0.641283
O O3 0.961819 0.376510 0.549197
O O4 0.085770 0.169850 0.602227
O O5 0.188929 0.127418 0.362364
O O6 0.289306 0.240576 0.444062
O O7 0.257641 0.532928 0.372791
O O8 0.141773 0.238026 0.700498
O O9 0.043368 0.890418 0.685020
O O10 0.500000 0.940025 0.250000
O O11 0.612638 0.740162 0.184871
O O12 0.594726 0.534955 0.897387
O O13 0.605441 0.500000 0.000000
O O14 0.147637 0.791856 0.193906
O O15 0.255000 0.017664 0.750058
#
# Coordination Sequence:
#
# PCOD9319394 Si02
#       7
#     8   8   8   8   8   8   8
#     4  11  24  42  70  95 142 184 232 302 367 450
#     4   9  22  44  65 100 132 180 233 303 360 444
#     4  11  21  40  64  97 141 179 232 288 362 446
#     4  11  23  39  63 104 140 185 236 285 368 453
#     4  10  23  48  69  97 137 182 242 309 374 439
#     4  10  21  42  64  97 140 181 237 301 353 440
#     4  12  24  38  65 105 145 193 240 300 371 456
#
# _framework density 25.033339000000002
#
# number of rings (size 3 to 8) (size 9 to 14) (size 15 to 20)
#    0.857    0.571    4.286    0.857    2.000    5.143 
#    2.571    0.714    0.000    0.000    0.000    0.000 
#    0.000    0.000    0.000    0.000    0.000    0.000 
#
# Total GULP energy -156394.103924 kJ/mol
# GULP energy per Si atom -5585.503712 kJ/mol
# Density = 2.497636 g / cm^3
# Si number density = 25.033339 Si / 1000 Ang^3
#
#
#
# Elastic Constant Matrix: (Units=GPa)
#
#
# Indices 1 2 3 4 5 6 
#
# 1 139.9229 49.2750 38.4536 0.0000 0.0000 0.0000
# 2 49.2750 67.0620 24.8161 0.0000 0.0000 0.0000
# 3 38.4536 24.8161 117.1412 0.0000 0.0000 0.0000
# 4 0.0000 0.0000 0.0000 32.0081 0.0000 0.0000
# 5 0.0000 0.0000 0.0000 0.0000 -5.4216 0.0000
# 6 0.0000 0.0000 0.0000 0.0000 0.0000 91.7768
#
#
#
# Elastic Compliance Matrix: (Units=1/GPa)
#
#
# Indices 1 2 3 4 5 6 
#
# 1 0.010007 -0.006659 -0.001874 0.000000 0.000000 0.000000
# 2 -0.006659 0.020611 -0.002180 0.000000 0.000000 0.000000
# 3 -0.001874 -0.002180 0.009614 0.000000 0.000000 0.000000
# 4 0.000000 0.000000 0.000000 0.031242 0.000000 0.000000
# 5 0.000000 0.000000 0.000000 0.000000 -0.184447 0.000000
# 6 0.000000 0.000000 0.000000 0.000000 0.000000 0.010896
#
#
# Mechanical properties :
#
#
# Convention : Reuss Voigt Hill
#
# Bulk Modulus (GPa) = 53.17898 61.02396 57.10147
# Shear Modulus (GPa) = -67.22162 37.77807 -14.72178
#
# Velocity S-wave (km/s) = -5.18759 3.88894 -2.42768
# Velocity P-wave (km/s) = 3.81996 6.67796 3.87318
#
# Compressibility (1/GPa) = 0.01880442
#
# Stress axis : x y z
#
# Youngs Moduli (GPa) = 99.93022 48.51662 104.01624
#
# Poissons Ratio (x) = 0.32309 0.19495
# Poissons Ratio (y) = 0.66546 0.22681
# Poissons Ratio (z) = 0.18729 0.10579
#
# Static dielectric constant tensor:
#      x y z
#    x 2.098210 0.000000 0.000000 
#    y 0.000000 2.015950 0.000000 
#    z 0.000000 0.000000 1.895500 
# 
# From -- ./inp_files/31301.got.cif
#   From: 2010.05.17/outbox.cif.g08.bks.cpg/sg20_16_cif.got.tgz:31301.got - 2010.06.03 22:52:26.
