data_PCOD9319796
_publ_section_title
;
Structure prediction by ZEFSAII (Michael W. Deem and Ramdas Pophale) SiO2 
 PCOD9319796
Probable space group: C 2 2 21
;
_chemical_formula_sum "Si O2"
_cell_formula_units_Z 44
_cell_length_a 25.964703
_cell_length_b 8.953522
_cell_length_c 8.013562
_cell_angle_alpha 90.000000
_cell_angle_beta 90.000000
_cell_angle_gamma 90.000000
_cell_volume 1862.957150
_symmetry_space_group_name_H-M "C 2 2 21"
_symmetry_group_IT_number 20
_symmetry_cell_setting 'orthorhombic'
loop_
_space_group_symop_operation_xyz
x,y,z
-x,-y,1/2+z
x,-y,-z
-x,y,1/2-z
1/2+x,1/2+y,z
1/2-x,1/2-y,1/2+z
1/2+x,1/2-y,-z
1/2-x,1/2+y,1/2-z
loop_
_atom_site_type_symbol
_atom_site_label
_atom_site_fract_x
_atom_site_fract_y
_atom_site_fract_z
Si Si1 0.341129 0.093990 0.162126
Si Si2 0.675990 0.193365 0.874965
Si Si3 0.278084 0.327322 0.956241
Si Si4 0.509628 0.000000 0.500000
Si Si5 0.036334 0.000000 0.000000
Si Si6 0.578707 0.226518 0.107371
Si Si7 0.500000 0.761567 0.250000
O O1 0.303497 0.221389 0.095649
O O2 0.391114 0.168526 0.235064
O O3 0.320926 0.972531 0.295798
O O4 0.354259 0.000000 0.000000
O O5 0.694394 0.294904 0.720053
O O6 0.717699 0.214753 0.022085
O O7 0.618935 0.215038 0.950538
O O8 0.284323 0.500000 0.000000
O O9 0.469642 0.882060 0.583936
O O10 0.533356 0.885692 0.359176
O O11 0.066999 0.900392 0.132257
O O12 0.013541 0.861614 0.893573
#
# Coordination Sequence:
#
# PCOD9319796 Si02
#       7
#     8   8   8   4   4   8   4
#     4  10  22  40  60  91 135 180 240 282 331 402
#     4  11  21  39  61  90 133 185 238 285 336 405
#     4  11  23  36  58  91 131 186 238 295 341 389
#     4  10  22  46  80  98 136 180 232 260 362 428
#     4  10  26  46  74 106 148 164 218 286 370 404
#     4  11  21  42  68  97 135 183 215 286 338 415
#     4  10  24  50  74 114 134 180 216 280 344 462
#
# _framework density 23.618364
#
# number of rings (size 3 to 8) (size 9 to 14) (size 15 to 20)
#    0.000    1.455    1.818    3.273    2.545    2.909 
#    9.818    0.000    0.000    0.000    0.000    0.000 
#    0.000    0.000    0.000    0.000    0.000    0.000 
#
# Total GULP energy -122565.176372 kJ/mol
# GULP energy per Si atom -5571.144381 kJ/mol
# Density = 2.356461 g / cm^3
# Si number density = 23.618364 Si / 1000 Ang^3
#
#
#
# Elastic Constant Matrix: (Units=GPa)
#
#
# Indices 1 2 3 4 5 6 
#
# 1 27.3499 31.7535 8.2666 0.0000 0.0000 0.0000
# 2 31.7535 192.5835 45.1318 0.0000 0.0000 0.0000
# 3 8.2666 45.1318 93.5269 0.0000 0.0000 0.0000
# 4 0.0000 0.0000 0.0000 54.8409 0.0000 0.0000
# 5 0.0000 0.0000 0.0000 0.0000 31.1954 0.0000
# 6 0.0000 0.0000 0.0000 0.0000 0.0000 29.9448
#
#
#
# Elastic Compliance Matrix: (Units=1/GPa)
#
#
# Indices 1 2 3 4 5 6 
#
# 1 0.045236 -0.007353 -0.000450 0.000000 0.000000 0.000000
# 2 -0.007353 0.007050 -0.002752 0.000000 0.000000 0.000000
# 3 -0.000450 -0.002752 0.012060 0.000000 0.000000 0.000000
# 4 0.000000 0.000000 0.000000 0.018235 0.000000 0.000000
# 5 0.000000 0.000000 0.000000 0.000000 0.032056 0.000000
# 6 0.000000 0.000000 0.000000 0.000000 0.000000 0.033395
#
#
# Mechanical properties :
#
#
# Convention : Reuss Voigt Hill
#
# Bulk Modulus (GPa) = 23.12907 53.75158 38.44032
# Shear Modulus (GPa) = 27.23997 38.41677 32.82837
#
# Velocity S-wave (km/s) = 3.39977 4.03744 3.73225
# Velocity P-wave (km/s) = 5.02248 6.67401 5.90626
#
# Compressibility (1/GPa) = 0.04323564
#
# Stress axis : x y z
#
# Youngs Moduli (GPa) = 22.10613 141.84601 82.91943
#
# Poissons Ratio (x) = 1.04302 0.03732
# Poissons Ratio (y) = 0.16255 0.22820
# Poissons Ratio (z) = 0.00995 0.39036
#
# Static dielectric constant tensor:
#      x y z
#    x 2.035860 0.000000 0.000000 
#    y 0.000000 1.832370 0.000000 
#    z 0.000000 0.000000 2.104740 
# 
# From -- ./inp_files/11412.got.cif
#   From: 2010.05.17/outbox.cif.g08.bks.cpg/sg20_6_cif.got.tgz:11412.got - 2010.06.03 22:52:26.
