data_PCOD9319318
_publ_section_title
;
Structure prediction by ZEFSAII (Michael W. Deem and Ramdas Pophale) SiO2 
 PCOD9319318
Probable space group: C 2 2 21
;
_chemical_formula_sum "Si O2"
_cell_formula_units_Z 56
_cell_length_a 20.694399
_cell_length_b 7.787742
_cell_length_c 16.962069
_cell_angle_alpha 90.000000
_cell_angle_beta 90.000000
_cell_angle_gamma 90.000000
_cell_volume 2733.651824
_symmetry_space_group_name_H-M "C 2 2 21"
_symmetry_group_IT_number 20
_symmetry_cell_setting 'orthorhombic'
loop_
_space_group_symop_operation_xyz
x,y,z
-x,-y,1/2+z
x,-y,-z
-x,y,1/2-z
1/2+x,1/2+y,z
1/2-x,1/2-y,1/2+z
1/2+x,1/2-y,-z
1/2-x,1/2+y,1/2-z
loop_
_atom_site_type_symbol
_atom_site_label
_atom_site_fract_x
_atom_site_fract_y
_atom_site_fract_z
Si Si1 0.373253 0.466863 0.418678
Si Si2 0.277146 0.238337 0.614214
Si Si3 0.671487 0.898531 0.863310
Si Si4 0.802761 0.250448 0.199616
Si Si5 0.341678 0.061424 0.089307
Si Si6 0.929333 0.348850 0.777922
Si Si7 0.928334 0.053919 0.250084
O O1 0.409538 0.500000 0.500000
O O2 0.311047 0.591032 0.418913
O O3 0.353764 0.269307 0.408288
O O4 0.409653 0.529479 0.341258
O O5 0.282105 0.225481 0.709319
O O6 0.202584 0.266735 0.592152
O O7 0.319561 0.074570 0.589189
O O8 0.744758 0.860435 0.835987
O O9 0.623829 0.909521 0.787082
O O10 0.807400 0.418398 0.145181
O O11 0.872611 0.159703 0.205968
O O12 0.408157 0.089758 0.136075
O O13 0.348185 0.000000 0.000000
O O14 0.929366 0.141453 0.781066
O O15 0.000000 0.404900 0.750000
O O16 0.000000 0.130500 0.250000
#
# Coordination Sequence:
#
# PCOD9319318 Si02
#       7
#     8   8   8   8   8   8   8
#     4  10  22  39  59  95 132 161 206 278 328 370
#     4  11  20  37  62  92 125 169 213 255 322 401
#     4  11  21  37  65  92 122 175 221 256 322 407
#     4  11  20  37  63  91 126 170 213 266 324 396
#     4  12  24  40  63  98 138 167 215 293 343 379
#     4  10  21  41  66  89 128 177 229 270 324 407
#     4   9  21  41  68  92 120 176 230 261 318 412
#
# _framework density 20.485417000000002
#
# number of rings (size 3 to 8) (size 9 to 14) (size 15 to 20)
#    0.000    1.429    4.286    1.286    2.000    1.143 
#    0.000    6.429    0.000    0.000    0.000    0.000 
#    0.000    0.000    0.000    0.000    0.000    0.000 
#
# Total GULP energy -156267.905032 kJ/mol
# GULP energy per Si atom -5580.996608 kJ/mol
# Density = 2.043879 g / cm^3
# Si number density = 20.485417 Si / 1000 Ang^3
#
#
#
# Elastic Constant Matrix: (Units=GPa)
#
#
# Indices 1 2 3 4 5 6 
#
# 1 122.1972 26.4087 22.6908 0.0000 0.0000 0.0000
# 2 26.4087 85.1734 37.1429 0.0000 0.0000 0.0000
# 3 22.6908 37.1429 113.6030 0.0000 0.0000 0.0000
# 4 0.0000 0.0000 0.0000 22.5493 0.0000 0.0000
# 5 0.0000 0.0000 0.0000 0.0000 -0.5237 0.0000
# 6 0.0000 0.0000 0.0000 0.0000 0.0000 22.3544
#
#
#
# Elastic Compliance Matrix: (Units=1/GPa)
#
#
# Indices 1 2 3 4 5 6 
#
# 1 0.008871 -0.002307 -0.001018 0.000000 0.000000 0.000000
# 2 -0.002307 0.014293 -0.004212 0.000000 0.000000 0.000000
# 3 -0.001018 -0.004212 0.010383 0.000000 0.000000 0.000000
# 4 0.000000 0.000000 0.000000 0.044347 0.000000 0.000000
# 5 0.000000 0.000000 0.000000 0.000000 -1.909664 0.000000
# 6 0.000000 0.000000 0.000000 0.000000 0.000000 0.044734
#
#
# Mechanical properties :
#
#
# Convention : Reuss Voigt Hill
#
# Bulk Modulus (GPa) = 54.13171 54.82869 54.48020
# Shear Modulus (GPa) = -2.83157 24.52476 10.84660
#
# Velocity S-wave (km/s) = -1.17696 3.46378 2.30354
# Velocity P-wave (km/s) = 4.96336 6.54369 5.80753
#
# Compressibility (1/GPa) = 0.01847346
#
# Stress axis : x y z
#
# Youngs Moduli (GPa) = 112.72708 69.96463 96.31035
#
# Poissons Ratio (x) = 0.16139 0.09801
# Poissons Ratio (y) = 0.26003 0.40570
# Poissons Ratio (z) = 0.11472 0.29472
#
# Static dielectric constant tensor:
#      x y z
#    x 1.754780 0.000000 0.000000 
#    y 0.000000 1.809660 0.000000 
#    z 0.000000 0.000000 1.740320 
# 
# From -- ./inp_files/21751.got.cif
#   From: 2010.05.17/outbox.cif.g08.bks.cpg/sg20_11_cif.got.tgz:21751.got - 2010.06.03 22:52:26.
