data_PCOD9319058
_publ_section_title
;
Structure prediction by ZEFSAII (Michael W. Deem and Ramdas Pophale) SiO2 
 PCOD9319058
Probable space group: C 2 2 21
;
_chemical_formula_sum "Si O2"
_cell_formula_units_Z 56
_cell_length_a 19.753452
_cell_length_b 5.645098
_cell_length_c 22.936336
_cell_angle_alpha 90.000000
_cell_angle_beta 90.000000
_cell_angle_gamma 90.000000
_cell_volume 2557.634781
_symmetry_space_group_name_H-M "C 2 2 21"
_symmetry_group_IT_number 20
_symmetry_cell_setting 'orthorhombic'
loop_
_space_group_symop_operation_xyz
x,y,z
-x,-y,1/2+z
x,-y,-z
-x,y,1/2-z
1/2+x,1/2+y,z
1/2-x,1/2-y,1/2+z
1/2+x,1/2-y,-z
1/2-x,1/2+y,1/2-z
loop_
_atom_site_type_symbol
_atom_site_label
_atom_site_fract_x
_atom_site_fract_y
_atom_site_fract_z
Si Si1 0.693876 0.961509 0.694657
Si Si2 0.091612 0.907174 0.263535
Si Si3 0.561773 0.904389 0.845610
Si Si4 0.610683 0.746352 0.488334
Si Si5 0.567848 0.760716 0.355796
Si Si6 0.175524 0.727813 0.810888
Si Si7 0.461553 0.746790 0.530854
O O1 0.651141 0.722918 0.701804
O O2 0.764608 0.893012 0.665114
O O3 0.640849 0.138720 0.664948
O O4 0.707793 0.065239 0.759368
O O5 0.064438 0.714452 0.218006
O O6 0.049895 0.039694 0.313851
O O7 0.121876 0.107256 0.221951
O O8 0.560963 0.739732 0.902187
O O9 0.493358 0.056951 0.848362
O O10 0.629801 0.062637 0.850872
O O11 0.649055 0.500000 0.500000
O O12 0.579740 0.722523 0.423758
O O13 0.543744 0.753357 0.528987
O O14 0.645490 0.000000 0.500000
O O15 0.441072 0.500000 0.500000
O O16 0.441366 0.000000 0.500000
#
# Coordination Sequence:
#
# PCOD9319058 Si02
#       7
#     8   8   8   8   8   8   8
#     4  10  21  39  63  92 132 187 235 267 343 430
#     4  10  24  39  64  90 141 176 214 288 345 426
#     4  11  24  40  63 105 138 178 230 295 363 415
#     4  10  21  40  66  94 134 181 231 279 356 425
#     4  11  24  40  63 105 138 178 230 295 363 415
#     4  10  21  39  63  92 132 187 235 267 343 430
#     4  10  21  40  66  94 134 181 231 279 356 425
#
# _framework density 21.895230000000002
#
# number of rings (size 3 to 8) (size 9 to 14) (size 15 to 20)
#    0.000    1.714    4.286    0.000    4.000    7.429 
#    0.000    0.000    0.000    0.000    7.429    0.000 
#    0.000    0.000    0.000    0.000    0.000    0.000 
#
# Total GULP energy -156295.389883 kJ/mol
# GULP energy per Si atom -5581.978210 kJ/mol
# Density = 2.184540 g / cm^3
# Si number density = 21.895230 Si / 1000 Ang^3
#
#
#
# Elastic Constant Matrix: (Units=GPa)
#
#
# Indices 1 2 3 4 5 6 
#
# 1 70.8576 14.0095 16.9294 0.0000 0.0000 0.0000
# 2 14.0095 116.5989 21.9921 0.0000 0.0000 0.0000
# 3 16.9294 21.9921 54.2353 0.0000 0.0000 0.0000
# 4 0.0000 0.0000 0.0000 40.7047 0.0000 0.0000
# 5 0.0000 0.0000 0.0000 0.0000 -8.5908 0.0000
# 6 0.0000 0.0000 0.0000 0.0000 0.0000 21.6883
#
#
#
# Elastic Compliance Matrix: (Units=1/GPa)
#
#
# Indices 1 2 3 4 5 6 
#
# 1 0.015361 -0.001019 -0.004382 0.000000 0.000000 0.000000
# 2 -0.001019 0.009354 -0.003475 0.000000 0.000000 0.000000
# 3 -0.004382 -0.003475 0.021215 0.000000 0.000000 0.000000
# 4 0.000000 0.000000 0.000000 0.024567 0.000000 0.000000
# 5 0.000000 0.000000 0.000000 0.000000 -0.116404 0.000000
# 6 0.000000 0.000000 0.000000 0.000000 0.000000 0.046108
#
#
# Mechanical properties :
#
#
# Convention : Reuss Voigt Hill
#
# Bulk Modulus (GPa) = 35.48775 38.61712 37.05243
# Shear Modulus (GPa) = 182.84108 23.34450 103.09279
#
# Velocity S-wave (km/s) = 9.14814 3.26880 6.86927
# Velocity P-wave (km/s) = 11.30610 5.64998 8.93729
#
# Compressibility (1/GPa) = 0.02817874
#
# Stress axis : x y z
#
# Youngs Moduli (GPa) = 65.09909 106.90271 47.13650
#
# Poissons Ratio (x) = 0.10896 0.20654
# Poissons Ratio (y) = 0.06635 0.16380
# Poissons Ratio (z) = 0.28524 0.37148
#
# Static dielectric constant tensor:
#      x y z
#    x 1.802060 0.000000 0.000000 
#    y 0.000000 1.907070 0.000000 
#    z 0.000000 0.000000 1.812800 
# 
# From -- ./inp_files/27996.got.cif
#   From: 2010.05.17/outbox.cif.g08.bks.cpg/sg20_14_cif.got.tgz:27996.got - 2010.06.03 22:52:26.
