data_PCOD9319146
_publ_section_title
;
Structure prediction by ZEFSAII (Michael W. Deem and Ramdas Pophale) SiO2 
 PCOD9319146
Probable space group: C 2 2 21
;
_chemical_formula_sum "Si O2"
_cell_formula_units_Z 36
_cell_length_a 4.967137
_cell_length_b 13.458338
_cell_length_c 25.729410
_cell_angle_alpha 90.000000
_cell_angle_beta 90.000000
_cell_angle_gamma 90.000000
_cell_volume 1719.995843
_symmetry_space_group_name_H-M "C 2 2 21"
_symmetry_group_IT_number 20
_symmetry_cell_setting 'orthorhombic'
loop_
_space_group_symop_operation_xyz
x,y,z
-x,-y,1/2+z
x,-y,-z
-x,y,1/2-z
1/2+x,1/2+y,z
1/2-x,1/2-y,1/2+z
1/2+x,1/2-y,-z
1/2-x,1/2+y,1/2-z
loop_
_atom_site_type_symbol
_atom_site_label
_atom_site_fract_x
_atom_site_fract_y
_atom_site_fract_z
Si Si1 0.557147 0.085269 0.600041
Si Si2 0.665704 0.000000 0.000000
Si Si3 0.726003 0.795633 0.020975
Si Si4 0.060193 0.074954 0.668424
Si Si5 0.500000 0.752622 0.750000
Si Si6 0.500000 0.598773 0.250000
O O1 0.511704 0.010627 0.551942
O O2 0.429611 0.186219 0.575119
O O3 0.361722 0.059745 0.647700
O O4 0.858573 0.088217 0.619987
O O5 0.840921 0.901508 0.002184
O O6 0.981234 0.726317 0.018375
O O7 0.040456 0.175352 0.702395
O O8 0.976398 0.978343 0.701802
O O9 0.249756 0.826757 0.743700
#
# Coordination Sequence:
#
# PCOD9319146 Si02
#       6
#     8   4   8   8   4   4
#     4  10  22  42  62  91 126 168 196 258 301 350
#     4   8  24  40  60  88 136 154 212 246 298 350
#     4  10  21  40  59  85 126 167 200 248 293 347
#     4  11  23  44  63  91 129 150 208 261 303 366
#     4  11  24  45  62  94 118 159 198 263 306 386
#     4  11  24  45  70  90 120 161 202 255 330 356
#
# _framework density 20.930281000000001
#
# number of rings (size 3 to 8) (size 9 to 14) (size 15 to 20)
#    1.333    0.444    0.000    4.000    0.000    7.111 
#   24.000    0.000    0.000    0.000    0.000    0.000 
#    0.000    0.000    0.000    0.000    0.000    0.000 
#
# Total GULP energy -100272.537495 kJ/mol
# GULP energy per Si atom -5570.696528 kJ/mol
# Density = 2.088264 g / cm^3
# Si number density = 20.930281 Si / 1000 Ang^3
#
#
#
# Elastic Constant Matrix: (Units=GPa)
#
#
# Indices 1 2 3 4 5 6 
#
# 1 89.2758 27.2354 1.4571 0.0000 0.0000 0.0000
# 2 27.2354 107.2287 33.7063 0.0000 0.0000 0.0000
# 3 1.4571 33.7063 66.7325 0.0000 0.0000 0.0000
# 4 0.0000 0.0000 0.0000 25.4115 0.0000 0.0000
# 5 0.0000 0.0000 0.0000 0.0000 -106.6628 0.0000
# 6 0.0000 0.0000 0.0000 0.0000 0.0000 477.0644
#
#
#
# Elastic Compliance Matrix: (Units=1/GPa)
#
#
# Indices 1 2 3 4 5 6 
#
# 1 0.012276 -0.003606 0.001554 0.000000 0.000000 0.000000
# 2 -0.003606 0.012145 -0.006056 0.000000 0.000000 0.000000
# 3 0.001554 -0.006056 0.018010 0.000000 0.000000 0.000000
# 4 0.000000 0.000000 0.000000 0.039352 0.000000 0.000000
# 5 0.000000 0.000000 0.000000 0.000000 -0.009375 0.000000
# 6 0.000000 0.000000 0.000000 0.000000 0.000000 0.002096
#
#
# Mechanical properties :
#
#
# Convention : Reuss Voigt Hill
#
# Bulk Modulus (GPa) = 38.14731 43.11494 40.63113
# Shear Modulus (GPa) = 50.27137 92.55185 71.41161
#
# Velocity S-wave (km/s) = 4.90618 6.65696 5.84747
# Velocity P-wave (km/s) = 7.09645 8.92921 8.06506
#
# Compressibility (1/GPa) = 0.02621417
#
# Stress axis : x y z
#
# Youngs Moduli (GPa) = 81.45918 82.33533 55.52446
#
# Poissons Ratio (x) = 0.29693 -0.08626
# Poissons Ratio (y) = 0.29377 0.33625
# Poissons Ratio (z) = -0.12655 0.49861
#
# Static dielectric constant tensor:
#      x y z
#    x 1.704300 0.000000 0.000000 
#    y 0.000000 1.765410 0.000000 
#    z 0.000000 0.000000 1.505450 
# 
# From -- ./inp_files/30643.got.cif
#   From: 2010.05.17/outbox.cif.g08.bks.cpg/sg20_16_cif.got.tgz:30643.got - 2010.06.03 22:52:26.
