data_PCOD9319855
_publ_section_title
;
Structure prediction by ZEFSAII (Michael W. Deem and Ramdas Pophale) SiO2 
 PCOD9319855
Probable space group: C 2 2 21
;
_chemical_formula_sum "Si O2"
_cell_formula_units_Z 52
_cell_length_a 9.189755
_cell_length_b 18.934474
_cell_length_c 15.221068
_cell_angle_alpha 90.000000
_cell_angle_beta 90.000000
_cell_angle_gamma 90.000000
_cell_volume 2648.514191
_symmetry_space_group_name_H-M "C 2 2 21"
_symmetry_group_IT_number 20
_symmetry_cell_setting 'orthorhombic'
loop_
_space_group_symop_operation_xyz
x,y,z
-x,-y,1/2+z
x,-y,-z
-x,y,1/2-z
1/2+x,1/2+y,z
1/2-x,1/2-y,1/2+z
1/2+x,1/2-y,-z
1/2-x,1/2+y,1/2-z
loop_
_atom_site_type_symbol
_atom_site_label
_atom_site_fract_x
_atom_site_fract_y
_atom_site_fract_z
Si Si1 0.000000 0.231040 0.250000
Si Si2 0.602049 0.435647 0.070830
Si Si3 0.390020 0.687142 0.995249
Si Si4 0.067805 0.450487 0.416580
Si Si5 0.000000 0.450963 0.750000
Si Si6 0.213520 0.122124 0.317835
Si Si7 0.000000 0.996997 0.750000
Si Si8 0.420012 0.806156 0.424772
O O1 0.141441 0.181061 0.255240
O O2 0.981137 0.279124 0.333186
O O3 0.772322 0.416236 0.072979
O O4 0.566047 0.459485 0.169707
O O5 0.586049 0.500000 0.000000
O O6 0.496242 0.372824 0.042556
O O7 0.320729 0.653738 0.085499
O O8 0.487479 0.757082 0.009131
O O9 0.250866 0.705274 0.936758
O O10 0.047511 0.500000 0.500000
O O11 0.057147 0.497598 0.328242
O O12 0.950770 0.388987 0.425567
O O13 0.875650 0.401195 0.707200
O O14 0.118560 0.052684 0.297281
#
# Coordination Sequence:
#
# PCOD9319855 Si02
#       8
#     4   8   8   8   4   8   4   8
#     4   9  23  42  66  86 130 176 216 264 332 400
#     4  11  23  40  66  96 132 171 222 272 331 398
#     4  11  24  42  67  92 134 179 225 273 335 406
#     4  11  25  40  63  95 130 169 217 280 333 390
#     4  12  23  40  65  99 137 164 216 282 333 390
#     4  10  22  40  65  97 127 175 216 267 330 404
#     4  11  20  40  63  97 133 166 218 264 329 396
#     4  11  24  43  63  92 130 175 225 274 335 399
#
# _framework density 19.633648999999998
#
# number of rings (size 3 to 8) (size 9 to 14) (size 15 to 20)
#    0.000    1.231    3.077    2.308    2.154    4.308 
#    0.000    0.000    0.000    0.923    0.000    0.000 
#    0.000    0.000    0.000    0.000    0.000    0.000 
#
# Total GULP energy -145132.333069 kJ/mol
# GULP energy per Si atom -5582.012810 kJ/mol
# Density = 1.958896 g / cm^3
# Si number density = 19.633649 Si / 1000 Ang^3
#
#
#
# Elastic Constant Matrix: (Units=GPa)
#
#
# Indices 1 2 3 4 5 6 
#
# 1 96.7335 18.1316 -4.5877 0.0000 0.0000 0.0000
# 2 18.1316 36.0788 6.7766 0.0000 0.0000 0.0000
# 3 -4.5877 6.7766 54.7843 0.0000 0.0000 0.0000
# 4 0.0000 0.0000 0.0000 5.4915 0.0000 0.0000
# 5 0.0000 0.0000 0.0000 0.0000 25.7486 0.0000
# 6 0.0000 0.0000 0.0000 0.0000 0.0000 22.7828
#
#
#
# Elastic Compliance Matrix: (Units=1/GPa)
#
#
# Indices 1 2 3 4 5 6 
#
# 1 0.011570 -0.006139 0.001728 0.000000 0.000000 0.000000
# 2 -0.006139 0.031634 -0.004427 0.000000 0.000000 0.000000
# 3 0.001728 -0.004427 0.018946 0.000000 0.000000 0.000000
# 4 0.000000 0.000000 0.000000 0.182101 0.000000 0.000000
# 5 0.000000 0.000000 0.000000 0.000000 0.038837 0.000000
# 6 0.000000 0.000000 0.000000 0.000000 0.000000 0.043893
#
#
# Mechanical properties :
#
#
# Convention : Reuss Voigt Hill
#
# Bulk Modulus (GPa) = 22.48514 25.35973 23.92243
# Shear Modulus (GPa) = 13.90891 21.95633 17.93262
#
# Velocity S-wave (km/s) = 2.66451 3.34773 3.02547
# Velocity P-wave (km/s) = 4.57639 5.28087 4.94120
#
# Compressibility (1/GPa) = 0.04447382
#
# Stress axis : x y z
#
# Youngs Moduli (GPa) = 86.42739 31.61153 52.78225
#
# Poissons Ratio (x) = 0.19408 -0.09123
# Poissons Ratio (y) = 0.53061 0.23367
# Poissons Ratio (z) = -0.14938 0.13995
#
# Static dielectric constant tensor:
#      x y z
#    x 1.689150 0.000000 0.000000 
#    y 0.000000 1.657960 0.000000 
#    z 0.000000 0.000000 1.732820 
# 
# From -- ./inp_files/23733.got.cif
#   From: 2010.05.17/outbox.cif.g08.bks.cpg/sg20_12_cif.got.tgz:23733.got - 2010.06.03 22:52:26.
