data_PCOD9319282
_publ_section_title
;
Structure prediction by ZEFSAII (Michael W. Deem and Ramdas Pophale) SiO2 
 PCOD9319282
Probable space group: C 2 2 21
;
_chemical_formula_sum "Si O2"
_cell_formula_units_Z 48
_cell_length_a 8.559862
_cell_length_b 30.023172
_cell_length_c 9.353954
_cell_angle_alpha 90.000000
_cell_angle_beta 90.000000
_cell_angle_gamma 90.000000
_cell_volume 2403.912010
_symmetry_space_group_name_H-M "C 2 2 21"
_symmetry_group_IT_number 20
_symmetry_cell_setting 'orthorhombic'
loop_
_space_group_symop_operation_xyz
x,y,z
-x,-y,1/2+z
x,-y,-z
-x,y,1/2-z
1/2+x,1/2+y,z
1/2-x,1/2-y,1/2+z
1/2+x,1/2-y,-z
1/2-x,1/2+y,1/2-z
loop_
_atom_site_type_symbol
_atom_site_label
_atom_site_fract_x
_atom_site_fract_y
_atom_site_fract_z
Si Si1 0.680557 0.455651 0.919705
Si Si2 0.695055 0.458215 0.594480
Si Si3 0.330928 0.875625 0.430997
Si Si4 0.393534 0.789016 0.616887
Si Si5 0.881754 0.276486 0.118895
Si Si6 0.696828 0.125251 0.604789
O O1 0.746376 0.457330 0.759257
O O2 0.493171 0.459414 0.907977
O O3 0.737864 0.500000 0.000000
O O4 0.716547 0.410429 0.006315
O O5 0.751596 0.500000 0.500000
O O6 0.749865 0.413281 0.521739
O O7 0.330601 0.829513 0.519218
O O8 0.258281 0.875483 0.272210
O O9 0.513768 0.886458 0.410479
O O10 0.500000 0.804320 0.750000
O O11 0.247921 0.758922 0.662759
O O12 0.509228 0.761487 0.512251
O O13 0.798931 0.322240 0.067553
O O14 0.000000 0.287039 0.250000
#
# Coordination Sequence:
#
# PCOD9319282 Si02
#       6
#     8   8   8   8   8   8
#     4  10  22  40  63  91 124 165 204 257 318 381
#     4  10  22  40  62  93 126 157 208 262 314 380
#     4  10  22  40  60  89 122 163 208 259 315 376
#     4  11  24  39  67  93 129 174 218 274 329 382
#     4  11  22  45  62  93 131 171 220 271 322 395
#     4  10  21  41  63  84 124 165 208 257 314 381
#
# _framework density 19.967454
#
# number of rings (size 3 to 8) (size 9 to 14) (size 15 to 20)
#    0.000    1.667    3.333    2.000    4.667    4.000 
#    3.000    0.000    0.000    0.000    0.000    0.000 
#    0.000    0.000    0.000    0.000    0.000    0.000 
#
# Total GULP energy -133905.751552 kJ/mol
# GULP energy per Si atom -5579.406315 kJ/mol
# Density = 1.992201 g / cm^3
# Si number density = 19.967454 Si / 1000 Ang^3
#
#
#
# Elastic Constant Matrix: (Units=GPa)
#
#
# Indices 1 2 3 4 5 6 
#
# 1 18.3621 36.8117 26.3838 0.0000 0.0000 0.0000
# 2 36.8117 105.6888 56.0066 0.0000 0.0000 0.0000
# 3 26.3838 56.0066 129.8832 0.0000 0.0000 0.0000
# 4 0.0000 0.0000 0.0000 30.0323 0.0000 0.0000
# 5 0.0000 0.0000 0.0000 0.0000 33.0505 0.0000
# 6 0.0000 0.0000 0.0000 0.0000 0.0000 4.7252
#
#
#
# Elastic Compliance Matrix: (Units=1/GPa)
#
#
# Indices 1 2 3 4 5 6 
#
# 1 0.197293 -0.061543 -0.013539 0.000000 0.000000 0.000000
# 2 -0.061543 0.031462 -0.001065 0.000000 0.000000 0.000000
# 3 -0.013539 -0.001065 0.010909 0.000000 0.000000 0.000000
# 4 0.000000 0.000000 0.000000 0.033297 0.000000 0.000000
# 5 0.000000 0.000000 0.000000 0.000000 0.030257 0.000000
# 6 0.000000 0.000000 0.000000 0.000000 0.000000 0.211629
#
#
# Mechanical properties :
#
#
# Convention : Reuss Voigt Hill
#
# Bulk Modulus (GPa) = 11.44570 54.70425 33.07497
# Shear Modulus (GPa) = 7.18118 22.54374 14.86246
#
# Velocity S-wave (km/s) = 1.89849 3.36374 2.73121
# Velocity P-wave (km/s) = 3.24812 6.52246 5.15232
#
# Compressibility (1/GPa) = 0.08736903
#
# Stress axis : x y z
#
# Youngs Moduli (GPa) = 5.06860 31.78473 91.66932
#
# Poissons Ratio (x) = 1.95613 1.24115
# Poissons Ratio (y) = 0.31194 0.09762
# Poissons Ratio (z) = 0.06863 0.03385
#
# Static dielectric constant tensor:
#      x y z
#    x 1.703770 0.000000 0.000000 
#    y 0.000000 1.682660 0.000000 
#    z 0.000000 0.000000 2.043830 
# 
# From -- ./inp_files/6455.got.cif
#   From: 2010.05.17/outbox.cif.g08.bks.cpg/sg20_4_cif.got.tgz:6455.got - 2010.06.03 22:52:26.
