data_PCOD9319433
_publ_section_title
;
Structure prediction by ZEFSAII (Michael W. Deem and Ramdas Pophale) SiO2 
 PCOD9319433
Probable space group: C 2 2 21
;
_chemical_formula_sum "Si O2"
_cell_formula_units_Z 64
_cell_length_a 8.994175
_cell_length_b 21.052962
_cell_length_c 17.245692
_cell_angle_alpha 90.000000
_cell_angle_beta 90.000000
_cell_angle_gamma 90.000000
_cell_volume 3265.541185
_symmetry_space_group_name_H-M "C 2 2 21"
_symmetry_group_IT_number 20
_symmetry_cell_setting 'orthorhombic'
loop_
_space_group_symop_operation_xyz
x,y,z
-x,-y,1/2+z
x,-y,-z
-x,y,1/2-z
1/2+x,1/2+y,z
1/2-x,1/2-y,1/2+z
1/2+x,1/2-y,-z
1/2-x,1/2+y,1/2-z
loop_
_atom_site_type_symbol
_atom_site_label
_atom_site_fract_x
_atom_site_fract_y
_atom_site_fract_z
Si Si1 0.725868 0.718120 0.086401
Si Si2 0.871870 0.941506 0.951380
Si Si3 0.334671 0.903507 0.843623
Si Si4 0.615569 0.346999 0.180851
Si Si5 0.969057 0.189727 0.977432
Si Si6 0.596972 0.498192 0.170481
Si Si7 0.824650 0.747737 0.762125
Si Si8 0.818103 0.367190 0.672521
O O1 0.772621 0.644066 0.091395
O O2 0.831875 0.763678 0.037705
O O3 0.736038 0.741581 0.175037
O O4 0.564281 0.717295 0.048471
O O5 0.761780 0.908601 0.891347
O O6 0.001752 0.972681 0.899907
O O7 0.923671 0.882694 0.003998
O O8 0.805704 0.000000 0.000000
O O9 0.262742 0.973248 0.846577
O O10 0.271066 0.886397 0.758937
O O11 0.508048 0.884231 0.837647
O O12 0.500000 0.329891 0.250000
O O13 0.564579 0.314340 0.101217
O O14 0.609383 0.422439 0.170272
O O15 0.775323 0.321300 0.208416
O O16 0.500000 0.513663 0.250000
O O17 0.741905 0.795070 0.823049
O O18 0.000000 0.758270 0.750000
#
# Coordination Sequence:
#
# PCOD9319433 Si02
#       8
#     8   8   8   8   8   8   8   8
#     4  11  25  40  64  99 134 171 216 279 345 394
#     4  12  24  43  64 101 137 178 225 276 344 411
#     4  10  21  42  68  97 127 171 233 283 328 404
#     4  11  24  45  66  93 136 182 226 277 337 407
#     4  12  25  41  65  97 136 174 219 275 343 409
#     4  11  22  43  70  96 129 179 236 278 335 409
#     4  11  24  44  70 100 133 176 232 284 333 411
#     4  10  23  40  69  98 131 174 224 287 337 397
#
# _framework density 19.598589
#
# number of rings (size 3 to 8) (size 9 to 14) (size 15 to 20)
#    0.000    1.000    5.000    1.500    8.750    0.000 
#    2.250    1.875    0.000    0.000    0.000    0.000 
#    0.000    0.000    0.000    0.000    0.000    0.000 
#
# Total GULP energy -178290.433856 kJ/mol
# GULP energy per Si atom -5571.576058 kJ/mol
# Density = 1.955398 g / cm^3
# Si number density = 19.598589 Si / 1000 Ang^3
#
#
#
# Elastic Constant Matrix: (Units=GPa)
#
#
# Indices 1 2 3 4 5 6 
#
# 1 77.2325 50.3489 21.0664 0.0000 0.0000 0.0000
# 2 50.3489 101.5277 44.8151 0.0000 0.0000 0.0000
# 3 21.0664 44.8151 71.7270 0.0000 0.0000 0.0000
# 4 0.0000 0.0000 0.0000 30.3088 0.0000 0.0000
# 5 0.0000 0.0000 0.0000 0.0000 35.9116 0.0000
# 6 0.0000 0.0000 0.0000 0.0000 0.0000 28.7829
#
#
#
# Elastic Compliance Matrix: (Units=1/GPa)
#
#
# Indices 1 2 3 4 5 6 
#
# 1 0.019143 -0.009682 0.000427 0.000000 0.000000 0.000000
# 2 -0.009682 0.018497 -0.008713 0.000000 0.000000 0.000000
# 3 0.000427 -0.008713 0.019261 0.000000 0.000000 0.000000
# 4 0.000000 0.000000 0.000000 0.032994 0.000000 0.000000
# 5 0.000000 0.000000 0.000000 0.000000 0.027846 0.000000
# 6 0.000000 0.000000 0.000000 0.000000 0.000000 0.034743
#
#
# Mechanical properties :
#
#
# Convention : Reuss Voigt Hill
#
# Bulk Modulus (GPa) = 47.70083 53.66086 50.68085
# Shear Modulus (GPa) = 25.58749 27.95113 26.76931
#
# Velocity S-wave (km/s) = 3.61720 3.78058 3.69979
# Velocity P-wave (km/s) = 6.46817 6.81883 6.64581
#
# Compressibility (1/GPa) = 0.02096400
#
# Stress axis : x y z
#
# Youngs Moduli (GPa) = 52.23799 54.06295 51.91963
#
# Poissons Ratio (x) = 0.52342 -0.02216
# Poissons Ratio (y) = 0.50575 0.45240
# Poissons Ratio (z) = -0.02229 0.47107
#
# Static dielectric constant tensor:
#      x y z
#    x 1.722920 0.000000 0.000000 
#    y 0.000000 1.724000 0.000000 
#    z 0.000000 0.000000 1.703490 
# 
# From -- ./inp_files/23888.got.cif
#   From: 2010.05.17/outbox.cif.g08.bks.cpg/sg20_12_cif.got.tgz:23888.got - 2010.06.03 22:52:26.
