data_PCOD9319311
_publ_section_title
;
Structure prediction by ZEFSAII (Michael W. Deem and Ramdas Pophale) SiO2 
 PCOD9319311
Probable space group: C 2 2 21
;
_chemical_formula_sum "Si O2"
_cell_formula_units_Z 40
_cell_length_a 10.019021
_cell_length_b 18.229209
_cell_length_c 10.777826
_cell_angle_alpha 90.000000
_cell_angle_beta 90.000000
_cell_angle_gamma 90.000000
_cell_volume 1968.449507
_symmetry_space_group_name_H-M "C 2 2 21"
_symmetry_group_IT_number 20
_symmetry_cell_setting 'orthorhombic'
loop_
_space_group_symop_operation_xyz
x,y,z
-x,-y,1/2+z
x,-y,-z
-x,y,1/2-z
1/2+x,1/2+y,z
1/2-x,1/2-y,1/2+z
1/2+x,1/2-y,-z
1/2-x,1/2+y,1/2-z
loop_
_atom_site_type_symbol
_atom_site_label
_atom_site_fract_x
_atom_site_fract_y
_atom_site_fract_z
Si Si1 0.904227 0.510608 0.868710
Si Si2 0.138787 0.227229 0.678756
Si Si3 0.427449 0.332705 0.929501
Si Si4 0.120464 0.673057 0.656744
Si Si5 0.209900 0.875605 0.827046
O O1 0.847581 0.592351 0.890817
O O2 0.787531 0.451180 0.847342
O O3 0.000000 0.504083 0.750000
O O4 0.979585 0.500000 0.000000
O O5 0.126418 0.166629 0.569405
O O6 0.248171 0.200315 0.775493
O O7 0.195161 0.306901 0.637369
O O8 0.000000 0.236682 0.750000
O O9 0.436279 0.244082 0.914131
O O10 0.572903 0.366803 0.904897
O O11 0.334350 0.363297 0.818058
O O12 0.000000 0.658040 0.750000
#
# Coordination Sequence:
#
# PCOD9319311 Si02
#       5
#     8   8   8   8   8
#     4  11  25  42  68  95 135 173 222 273 336 398
#     4  11  23  35  66  98 124 167 229 276 327 391
#     4  10  21  41  65  90 134 169 222 271 334 394
#     4  10  21  42  63  92 130 176 212 269 332 392
#     4  10  22  42  63  96 125 180 212 280 330 397
#
# _framework density 20.320561999999999
#
# number of rings (size 3 to 8) (size 9 to 14) (size 15 to 20)
#    0.000    1.600    4.000    1.800    8.400    3.200 
#    3.600    0.000    0.000    0.000    0.000    0.000 
#    0.000    0.000    0.000    0.000    0.000    0.000 
#
# Total GULP energy -111419.077696 kJ/mol
# GULP energy per Si atom -5570.953885 kJ/mol
# Density = 2.027431 g / cm^3
# Si number density = 20.320562 Si / 1000 Ang^3
#
#
#
# Elastic Constant Matrix: (Units=GPa)
#
#
# Indices 1 2 3 4 5 6 
#
# 1 99.8577 23.5343 6.8604 0.0000 0.0000 0.0000
# 2 23.5343 108.3274 2.3902 0.0000 0.0000 0.0000
# 3 6.8604 2.3902 38.5172 0.0000 0.0000 0.0000
# 4 0.0000 0.0000 0.0000 14.8767 0.0000 0.0000
# 5 0.0000 0.0000 0.0000 0.0000 5.3926 0.0000
# 6 0.0000 0.0000 0.0000 0.0000 0.0000 -41.7044
#
#
#
# Elastic Compliance Matrix: (Units=1/GPa)
#
#
# Indices 1 2 3 4 5 6 
#
# 1 0.010672 -0.002280 -0.001759 0.000000 0.000000 0.000000
# 2 -0.002280 0.009731 -0.000198 0.000000 0.000000 0.000000
# 3 -0.001759 -0.000198 0.026288 0.000000 0.000000 0.000000
# 4 0.000000 0.000000 0.000000 0.067219 0.000000 0.000000
# 5 0.000000 0.000000 0.000000 0.000000 0.185441 0.000000
# 6 0.000000 0.000000 0.000000 0.000000 0.000000 -0.023978
#
#
# Mechanical properties :
#
#
# Convention : Reuss Voigt Hill
#
# Bulk Modulus (GPa) = 26.16608 34.69691 30.43149
# Shear Modulus (GPa) = 16.85851 9.97414 13.41632
#
# Velocity S-wave (km/s) = 2.88345 2.21789 2.57229
# Velocity P-wave (km/s) = 4.89799 4.86524 4.88164
#
# Compressibility (1/GPa) = 0.03821742
#
# Stress axis : x y z
#
# Youngs Moduli (GPa) = 93.69941 102.76515 38.04007
#
# Poissons Ratio (x) = 0.23428 0.06693
# Poissons Ratio (y) = 0.21361 0.00752
# Poissons Ratio (z) = 0.16486 0.02033
#
# Static dielectric constant tensor:
#      x y z
#    x 1.666730 0.000000 0.000000 
#    y 0.000000 1.753860 0.000000 
#    z 0.000000 0.000000 1.998040 
# 
# From -- ./inp_files/12685.got.cif
#   From: 2010.05.17/outbox.cif.g08.bks.cpg/sg20_7_cif.got.tgz:12685.got - 2010.06.03 22:52:26.
