data_PCOD9319469
_publ_section_title
;
Structure prediction by ZEFSAII (Michael W. Deem and Ramdas Pophale) SiO2 
 PCOD9319469
Probable space group: C 2 2 21
;
_chemical_formula_sum "Si O2"
_cell_formula_units_Z 56
_cell_length_a 14.110636
_cell_length_b 8.205803
_cell_length_c 22.483820
_cell_angle_alpha 90.000000
_cell_angle_beta 90.000000
_cell_angle_gamma 90.000000
_cell_volume 2603.381265
_symmetry_space_group_name_H-M "C 2 2 21"
_symmetry_group_IT_number 20
_symmetry_cell_setting 'orthorhombic'
loop_
_space_group_symop_operation_xyz
x,y,z
-x,-y,1/2+z
x,-y,-z
-x,y,1/2-z
1/2+x,1/2+y,z
1/2-x,1/2-y,1/2+z
1/2+x,1/2-y,-z
1/2-x,1/2+y,1/2-z
loop_
_atom_site_type_symbol
_atom_site_label
_atom_site_fract_x
_atom_site_fract_y
_atom_site_fract_z
Si Si1 0.670539 0.102174 0.820365
Si Si2 0.336861 0.000000 0.000000
Si Si3 0.305862 0.415461 0.393411
Si Si4 0.195590 0.244213 0.772504
Si Si5 0.000000 0.065079 0.750000
Si Si6 0.594469 0.334375 0.529976
Si Si7 0.972784 0.158279 0.354976
Si Si8 0.187893 0.423333 0.940612
O O1 0.742020 0.220327 0.786036
O O2 0.568496 0.185468 0.821286
O O3 0.682904 0.931982 0.787362
O O4 0.689263 0.057025 0.888922
O O5 0.269603 0.977892 0.058084
O O6 0.397491 0.834118 0.993725
O O7 0.262761 0.349123 0.330874
O O8 0.382570 0.553950 0.378945
O O9 0.354676 0.249854 0.419772
O O10 0.092106 0.168756 0.764130
O O11 0.975917 0.953885 0.806724
O O12 0.555015 0.500000 0.500000
O O13 0.537641 0.299633 0.589798
O O14 0.703005 0.378334 0.546035
O O15 0.144842 0.500000 0.000000
#
# Coordination Sequence:
#
# PCOD9319469 Si02
#       8
#     8   4   8   8   4   8   8   8
#     4  11  23  40  67  95 128 168 222 264 324 390
#     4  10  22  44  64  92 128 172 218 268 322 400
#     4   9  21  38  66  91 124 164 217 257 324 380
#     4  10  21  43  64  99 121 171 212 272 322 398
#     4  10  22  44  64  88 134 162 210 266 336 374
#     4  10  23  42  61  93 129 170 210 266 333 376
#     4  11  24  40  63  94 128 172 207 272 321 393
#     4   9  20  40  65  94 128 168 214 266 323 393
#
# _framework density 21.510487000000001
#
# number of rings (size 3 to 8) (size 9 to 14) (size 15 to 20)
#    0.000    2.000    0.000    2.571    7.000    2.857 
#   11.571    1.429    0.000    0.000    0.000    0.000 
#    0.000    0.000    0.000    0.000    0.000    0.000 
#
# Total GULP energy -156405.790758 kJ/mol
# GULP energy per Si atom -5585.921098 kJ/mol
# Density = 2.146153 g / cm^3
# Si number density = 21.510487 Si / 1000 Ang^3
#
#
#
# Elastic Constant Matrix: (Units=GPa)
#
#
# Indices 1 2 3 4 5 6 
#
# 1 20.3183 16.2224 14.8673 0.0000 0.0000 0.0000
# 2 16.2224 100.1111 51.1000 0.0000 0.0000 0.0000
# 3 14.8673 51.1000 110.4601 0.0000 0.0000 0.0000
# 4 0.0000 0.0000 0.0000 31.9968 0.0000 0.0000
# 5 0.0000 0.0000 0.0000 0.0000 35.0854 0.0000
# 6 0.0000 0.0000 0.0000 0.0000 0.0000-1296.8486
#
#
#
# Elastic Compliance Matrix: (Units=1/GPa)
#
#
# Indices 1 2 3 4 5 6 
#
# 1 0.058223 -0.007115 -0.004545 0.000000 0.000000 0.000000
# 2 -0.007115 0.013946 -0.005494 0.000000 0.000000 0.000000
# 3 -0.004545 -0.005494 0.012206 0.000000 0.000000 0.000000
# 4 0.000000 0.000000 0.000000 0.031253 0.000000 0.000000
# 5 0.000000 0.000000 0.000000 0.000000 0.028502 0.000000
# 6 0.000000 0.000000 0.000000 0.000000 0.000000 -0.000771
#
#
# Mechanical properties :
#
#
# Convention : Reuss Voigt Hill
#
# Bulk Modulus (GPa) = 19.97297 43.91877 31.94587
# Shear Modulus (GPa) = 25.72598 -236.03995 -105.15699
#
# Velocity S-wave (km/s) = 3.46204 -10.48669 -6.99946
# Velocity P-wave (km/s) = 5.02855 11.23236 7.10210
#
# Compressibility (1/GPa) = 0.05006766
#
# Stress axis : x y z
#
# Youngs Moduli (GPa) = 17.17540 71.70444 81.92433
#
# Poissons Ratio (x) = 0.51016 0.37235
# Poissons Ratio (y) = 0.12220 0.45010
# Poissons Ratio (z) = 0.07806 0.39395
#
# Static dielectric constant tensor:
#      x y z
#    x 1.741340 0.000000 0.000000 
#    y 0.000000 1.825340 0.000000 
#    z 0.000000 0.000000 6.404290 
# 
# From -- ./inp_files/27609.got.cif
#   From: 2010.05.17/outbox.cif.g08.bks.cpg/sg20_14_cif.got.tgz:27609.got - 2010.06.03 22:52:26.
