data_PCOD9319438
_publ_section_title
;
Structure prediction by ZEFSAII (Michael W. Deem and Ramdas Pophale) SiO2 
 PCOD9319438
Probable space group: C 2 2 21
;
_chemical_formula_sum "Si O2"
_cell_formula_units_Z 40
_cell_length_a 26.411262
_cell_length_b 8.619522
_cell_length_c 7.942340
_cell_angle_alpha 90.000000
_cell_angle_beta 90.000000
_cell_angle_gamma 90.000000
_cell_volume 1808.093190
_symmetry_space_group_name_H-M "C 2 2 21"
_symmetry_group_IT_number 20
_symmetry_cell_setting 'orthorhombic'
loop_
_space_group_symop_operation_xyz
x,y,z
-x,-y,1/2+z
x,-y,-z
-x,y,1/2-z
1/2+x,1/2+y,z
1/2-x,1/2-y,1/2+z
1/2+x,1/2-y,-z
1/2-x,1/2+y,1/2-z
loop_
_atom_site_type_symbol
_atom_site_label
_atom_site_fract_x
_atom_site_fract_y
_atom_site_fract_z
Si Si1 0.379156 0.315688 0.428332
Si Si2 0.984914 0.179576 0.443600
Si Si3 0.179607 0.833008 0.564255
Si Si4 0.913374 0.678745 0.060387
Si Si5 0.225813 0.829116 0.930429
O O1 0.376364 0.500000 0.500000
O O2 0.428690 0.255289 0.526218
O O3 0.391796 0.255481 0.237030
O O4 0.322572 0.259242 0.470232
O O5 0.029498 0.260911 0.546509
O O6 0.000000 0.189418 0.250000
O O7 0.984301 0.000000 0.500000
O O8 0.127146 0.744144 0.572998
O O9 0.206789 0.840378 0.741762
O O10 0.222273 0.763384 0.442927
O O11 0.165567 0.000000 0.500000
O O12 0.914999 0.500000 0.000000
O O13 0.236830 0.000000 0.000000
#
# Coordination Sequence:
#
# PCOD9319438 Si02
#       5
#     8   8   8   8   8
#     4  10  21  42  69  96 131 179 229 281 340 416
#     4  11  22  41  68  98 131 178 229 277 332 408
#     4  12  24  42  67  95 130 177 223 273 336 411
#     4  12  26  43  65  99 138 177 223 286 347 404
#     4  11  23  42  65  96 129 167 220 281 337 399
#
# _framework density 22.122755999999999
#
# number of rings (size 3 to 8) (size 9 to 14) (size 15 to 20)
#    0.000    0.800    0.000   10.200    0.000    3.200 
#    0.000    3.000    0.000    0.000    0.000    0.000 
#    0.000    0.000    0.000    0.000    0.000    0.000 
#
# Total GULP energy -111544.163844 kJ/mol
# GULP energy per Si atom -5577.208192 kJ/mol
# Density = 2.207240 g / cm^3
# Si number density = 22.122756 Si / 1000 Ang^3
#
#
#
# Elastic Constant Matrix: (Units=GPa)
#
#
# Indices 1 2 3 4 5 6 
#
# 1 130.9267 44.1588 -20.8865 0.0000 0.0000 0.0000
# 2 44.1588 89.9343 6.1080 0.0000 0.0000 0.0000
# 3 -20.8865 6.1080 81.8089 0.0000 0.0000 0.0000
# 4 0.0000 0.0000 0.0000 18.2370 0.0000 0.0000
# 5 0.0000 0.0000 0.0000 0.0000 84.6297 0.0000
# 6 0.0000 0.0000 0.0000 0.0000 0.0000 25.7870
#
#
#
# Elastic Compliance Matrix: (Units=1/GPa)
#
#
# Indices 1 2 3 4 5 6 
#
# 1 0.009781 -0.004998 0.002870 0.000000 0.000000 0.000000
# 2 -0.004998 0.013729 -0.002301 0.000000 0.000000 0.000000
# 3 0.002870 -0.002301 0.013128 0.000000 0.000000 0.000000
# 4 0.000000 0.000000 0.000000 0.054834 0.000000 0.000000
# 5 0.000000 0.000000 0.000000 0.000000 0.011816 0.000000
# 6 0.000000 0.000000 0.000000 0.000000 0.000000 0.038779
#
#
# Mechanical properties :
#
#
# Convention : Reuss Voigt Hill
#
# Bulk Modulus (GPa) = 35.99399 40.15894 38.07646
# Shear Modulus (GPa) = 31.21376 43.95003 37.58190
#
# Velocity S-wave (km/s) = 3.76032 4.46201 4.12611
# Velocity P-wave (km/s) = 5.92948 6.68867 6.32048
#
# Compressibility (1/GPa) = 0.02778242
#
# Stress axis : x y z
#
# Youngs Moduli (GPa) = 102.23485 72.83619 76.17159
#
# Poissons Ratio (x) = 0.36402 -0.21864
# Poissons Ratio (y) = 0.51094 0.17527
# Poissons Ratio (z) = -0.29346 0.16760
#
# Static dielectric constant tensor:
#      x y z
#    x 1.785270 0.000000 0.000000 
#    y 0.000000 1.843690 0.000000 
#    z 0.000000 0.000000 1.883190 
# 
# From -- ./inp_files/10480.got.cif
#   From: 2010.05.17/outbox.cif.g08.bks.cpg/sg20_6_cif.got.tgz:10480.got - 2010.06.03 22:52:26.
