data_PCOD9319619
_publ_section_title
;
Structure prediction by ZEFSAII (Michael W. Deem and Ramdas Pophale) SiO2 
 PCOD9319619
Probable space group: C 2 2 21
;
_chemical_formula_sum "Si O2"
_cell_formula_units_Z 48
_cell_length_a 10.105778
_cell_length_b 10.162004
_cell_length_c 22.333085
_cell_angle_alpha 90.000000
_cell_angle_beta 90.000000
_cell_angle_gamma 90.000000
_cell_volume 2293.495192
_symmetry_space_group_name_H-M "C 2 2 21"
_symmetry_group_IT_number 20
_symmetry_cell_setting 'orthorhombic'
loop_
_space_group_symop_operation_xyz
x,y,z
-x,-y,1/2+z
x,-y,-z
-x,y,1/2-z
1/2+x,1/2+y,z
1/2-x,1/2-y,1/2+z
1/2+x,1/2-y,-z
1/2-x,1/2+y,1/2-z
loop_
_atom_site_type_symbol
_atom_site_label
_atom_site_fract_x
_atom_site_fract_y
_atom_site_fract_z
Si Si1 0.368790 0.349595 0.388738
Si Si2 0.921072 0.763969 0.671264
Si Si3 0.210599 0.006684 0.229802
Si Si4 0.021403 0.000000 0.000000
Si Si5 0.662716 0.358652 0.353626
Si Si6 0.348928 0.366468 0.914042
Si Si7 0.000000 0.476101 0.250000
O O1 0.308137 0.425870 0.331613
O O2 0.393406 0.447738 0.444447
O O3 0.516584 0.306843 0.368381
O O4 0.272531 0.232606 0.408666
O O5 0.782846 0.741066 0.636921
O O6 0.037265 0.823375 0.632364
O O7 0.968376 0.623846 0.695858
O O8 0.875941 0.862745 0.723690
O O9 0.169221 0.914778 0.285436
O O10 0.363367 0.049251 0.238292
O O11 0.924843 0.883541 0.976769
O O12 0.689960 0.486853 0.394104
#
# Coordination Sequence:
#
# PCOD9319619 Si02
#       7
#     8   8   8   4   8   8   4
#     4  11  23  44  69  92 128 172 217 275 325 376
#     4  11  21  39  63  91 134 164 203 256 313 383
#     4  11  21  39  65  97 135 168 206 256 327 395
#     4  10  24  44  64  96 120 174 226 272 328 374
#     4  10  24  38  65 100 129 168 208 252 331 398
#     4  11  23  45  68  91 129 167 218 271 320 382
#     4  10  22  36  58 102 130 170 198 248 322 390
#
# _framework density 20.928754999999999
#
# number of rings (size 3 to 8) (size 9 to 14) (size 15 to 20)
#    0.000    1.333    5.000    1.500    2.333    5.333 
#    0.000    0.000    0.000    0.000    0.000    0.000 
#    0.000    0.000    0.000    0.000    0.000    0.000 
#
# Total GULP energy -134106.431422 kJ/mol
# GULP energy per Si atom -5587.767976 kJ/mol
# Density = 2.088112 g / cm^3
# Si number density = 20.928755 Si / 1000 Ang^3
#
#
#
# Elastic Constant Matrix: (Units=GPa)
#
#
# Indices 1 2 3 4 5 6 
#
# 1 163.2010 40.4128 13.6697 0.0000 0.0000 0.0000
# 2 40.4128 51.1125 0.5266 0.0000 0.0000 0.0000
# 3 13.6697 0.5266 76.5962 0.0000 0.0000 0.0000
# 4 0.0000 0.0000 0.0000 11.7330 0.0000 0.0000
# 5 0.0000 0.0000 0.0000 0.0000 13.1497 0.0000
# 6 0.0000 0.0000 0.0000 0.0000 0.0000 25.1199
#
#
#
# Elastic Compliance Matrix: (Units=1/GPa)
#
#
# Indices 1 2 3 4 5 6 
#
# 1 0.007755 -0.006118 -0.001342 0.000000 0.000000 0.000000
# 2 -0.006118 0.024392 0.000924 0.000000 0.000000 0.000000
# 3 -0.001342 0.000924 0.013289 0.000000 0.000000 0.000000
# 4 0.000000 0.000000 0.000000 0.085229 0.000000 0.000000
# 5 0.000000 0.000000 0.000000 0.000000 0.076047 0.000000
# 6 0.000000 0.000000 0.000000 0.000000 0.000000 0.039809
#
#
# Mechanical properties :
#
#
# Convention : Reuss Voigt Hill
#
# Bulk Modulus (GPa) = 30.89787 44.45867 37.67827
# Shear Modulus (GPa) = 18.49249 25.75390 22.12319
#
# Velocity S-wave (km/s) = 2.97575 3.51173 3.25479
# Velocity P-wave (km/s) = 5.15773 6.14263 5.67160
#
# Compressibility (1/GPa) = 0.03236469
#
# Stress axis : x y z
#
# Youngs Moduli (GPa) = 128.95463 40.99691 75.25249
#
# Poissons Ratio (x) = 0.25080 0.10098
# Poissons Ratio (y) = 0.78888 -0.06954
# Poissons Ratio (z) = 0.17304 -0.03788
#
# Static dielectric constant tensor:
#      x y z
#    x 1.775730 0.000000 0.000000 
#    y 0.000000 1.741370 0.000000 
#    z 0.000000 0.000000 1.786920 
# 
# From -- ./inp_files/28746.got.cif
#   From: 2010.05.17/outbox.cif.g08.bks.cpg/sg20_15_cif.got.tgz:28746.got - 2010.06.03 22:52:26.
