data_PCOD9319057
_publ_section_title
;
Structure prediction by ZEFSAII (Michael W. Deem and Ramdas Pophale) SiO2 
 PCOD9319057
Probable space group: C 2 2 21
;
_chemical_formula_sum "Si O2"
_cell_formula_units_Z 48
_cell_length_a 25.401937
_cell_length_b 9.003646
_cell_length_c 8.945734
_cell_angle_alpha 90.000000
_cell_angle_beta 90.000000
_cell_angle_gamma 90.000000
_cell_volume 2045.979257
_symmetry_space_group_name_H-M "C 2 2 21"
_symmetry_group_IT_number 20
_symmetry_cell_setting 'orthorhombic'
loop_
_space_group_symop_operation_xyz
x,y,z
-x,-y,1/2+z
x,-y,-z
-x,y,1/2-z
1/2+x,1/2+y,z
1/2-x,1/2-y,1/2+z
1/2+x,1/2-y,-z
1/2-x,1/2+y,1/2-z
loop_
_atom_site_type_symbol
_atom_site_label
_atom_site_fract_x
_atom_site_fract_y
_atom_site_fract_z
Si Si1 0.461476 0.620884 0.611751
Si Si2 0.187393 0.161007 0.426932
Si Si3 0.031544 0.612034 0.891420
Si Si4 0.358067 0.130179 0.714528
Si Si5 0.716198 0.147570 0.292096
Si Si6 0.843713 0.851616 0.433593
O O1 0.484950 0.500000 0.500000
O O2 0.500000 0.641463 0.750000
O O3 0.456298 0.761621 0.507120
O O4 0.399535 0.589221 0.637179
O O5 0.139276 0.250224 0.349468
O O6 0.228223 0.133791 0.291356
O O7 0.213797 0.279015 0.543362
O O8 0.176231 0.000000 0.500000
O O9 0.086531 0.551510 0.824643
O O10 0.000000 0.665958 0.750000
O O11 0.001208 0.500000 0.000000
O O12 0.346113 0.226928 0.565360
O O13 0.315627 0.006268 0.763275
O O14 0.686225 0.273326 0.198104
O O15 0.818027 0.000000 0.500000
#
# Coordination Sequence:
#
# PCOD9319057 Si02
#       6
#     8   8   8   8   8   8
#     4  10  21  39  63  93 129 173 219 270 330 389
#     4  12  26  42  66  97 129 168 212 262 322 389
#     4  11  24  42  67  96 130 172 219 272 330 393
#     4  11  24  44  65  93 130 169 214 265 323 386
#     4  12  24  42  66  93 128 169 211 264 319 385
#     4  10  21  39  63  90 126 171 215 263 321 380
#
# _framework density 23.460649
#
# number of rings (size 3 to 8) (size 9 to 14) (size 15 to 20)
#    0.000    1.000    0.000    8.000    0.000    4.000 
#    0.000    1.667    0.000    0.000    0.000    0.000 
#    0.000    0.000    0.000    0.000    0.000    0.000 
#
# Total GULP energy -134012.895368 kJ/mol
# GULP energy per Si atom -5583.870640 kJ/mol
# Density = 2.340725 g / cm^3
# Si number density = 23.460649 Si / 1000 Ang^3
#
#
#
# Elastic Constant Matrix: (Units=GPa)
#
#
# Indices 1 2 3 4 5 6 
#
# 1 46.1232 15.3027 43.4530 0.0000 0.0000 0.0000
# 2 15.3027 99.7462 32.1170 0.0000 0.0000 0.0000
# 3 43.4530 32.1170 132.5879 0.0000 0.0000 0.0000
# 4 0.0000 0.0000 0.0000 44.1410 0.0000 0.0000
# 5 0.0000 0.0000 0.0000 0.0000 28.9688 0.0000
# 6 0.0000 0.0000 0.0000 0.0000 0.0000 37.5129
#
#
#
# Elastic Compliance Matrix: (Units=1/GPa)
#
#
# Indices 1 2 3 4 5 6 
#
# 1 0.031611 -0.001642 -0.009962 0.000000 0.000000 0.000000
# 2 -0.001642 0.010959 -0.002116 0.000000 0.000000 0.000000
# 3 -0.009962 -0.002116 0.011320 0.000000 0.000000 0.000000
# 4 0.000000 0.000000 0.000000 0.022655 0.000000 0.000000
# 5 0.000000 0.000000 0.000000 0.000000 0.034520 0.000000
# 6 0.000000 0.000000 0.000000 0.000000 0.000000 0.026658
#
#
# Mechanical properties :
#
#
# Convention : Reuss Voigt Hill
#
# Bulk Modulus (GPa) = 37.80922 51.13364 44.47143
# Shear Modulus (GPa) = 28.73901 34.63016 31.68458
#
# Velocity S-wave (km/s) = 3.50378 3.84617 3.67896
# Velocity P-wave (km/s) = 5.70260 6.44723 6.08631
#
# Compressibility (1/GPa) = 0.02644858
#
# Stress axis : x y z
#
# Youngs Moduli (GPa) = 31.63424 91.25065 88.34106
#
# Poissons Ratio (x) = 0.14983 0.88007
# Poissons Ratio (y) = 0.05194 0.18697
# Poissons Ratio (z) = 0.31515 0.19313
#
# Static dielectric constant tensor:
#      x y z
#    x 1.917240 0.000000 0.000000 
#    y 0.000000 1.832550 0.000000 
#    z 0.000000 0.000000 1.844340 
# 
# From -- ./inp_files/11464.got.cif
#   From: 2010.05.17/outbox.cif.g08.bks.cpg/sg20_6_cif.got.tgz:11464.got - 2010.06.03 22:52:26.
