data_PCOD9319854
_publ_section_title
;
Structure prediction by ZEFSAII (Michael W. Deem and Ramdas Pophale) SiO2 
 PCOD9319854
Probable space group: C 2 2 21
;
_chemical_formula_sum "Si O2"
_cell_formula_units_Z 32
_cell_length_a 4.944641
_cell_length_b 17.298236
_cell_length_c 14.947819
_cell_angle_alpha 90.000000
_cell_angle_beta 90.000000
_cell_angle_gamma 90.000000
_cell_volume 1278.540277
_symmetry_space_group_name_H-M "C 2 2 21"
_symmetry_group_IT_number 20
_symmetry_cell_setting 'orthorhombic'
loop_
_space_group_symop_operation_xyz
x,y,z
-x,-y,1/2+z
x,-y,-z
-x,y,1/2-z
1/2+x,1/2+y,z
1/2-x,1/2-y,1/2+z
1/2+x,1/2-y,-z
1/2-x,1/2+y,1/2-z
loop_
_atom_site_type_symbol
_atom_site_label
_atom_site_fract_x
_atom_site_fract_y
_atom_site_fract_z
Si Si1 0.842673 0.350520 0.460508
Si Si2 0.484860 0.500000 0.500000
Si Si3 0.151819 0.219185 0.887638
Si Si4 0.265422 0.542707 0.311210
Si Si5 0.000000 0.195260 0.250000
O O1 0.692108 0.428249 0.488118
O O2 0.837780 0.290448 0.542615
O O3 0.147541 0.347454 0.425230
O O4 0.648425 0.313035 0.385502
O O5 0.300668 0.514357 0.412107
O O6 0.285548 0.253608 0.800748
O O7 0.500000 0.505432 0.250000
O O8 0.340716 0.634293 0.313500
O O9 0.000000 0.533555 0.250000
#
# Coordination Sequence:
#
# PCOD9319854 Si02
#       5
#     8   4   8   8   4
#     4  10  23  40  66  99 127 175 231 278 349 415
#     4  12  24  50  74 102 152 194 228 310 360 436
#     4  10  22  40  65  96 129 172 233 283 337 415
#     4  10  25  42  70 105 137 191 244 286 369 433
#     4  10  22  44  68  96 140 186 232 298 346 426
#
# _framework density 25.028544
#
# number of rings (size 3 to 8) (size 9 to 14) (size 15 to 20)
#    0.750    1.000    2.500    0.000    3.500    8.000 
#    6.750    0.000    0.000    0.000    0.000    0.000 
#    0.000    0.000    0.000    0.000    0.000    0.000 
#
# Total GULP energy -89565.383669 kJ/mol
# GULP energy per Si atom -5597.836479 kJ/mol
# Density = 2.497158 g / cm^3
# Si number density = 25.028544 Si / 1000 Ang^3
#
#
#
# Elastic Constant Matrix: (Units=GPa)
#
#
# Indices 1 2 3 4 5 6 
#
# 1 115.0836 11.7970 33.2880 0.0000 0.0000 0.0000
# 2 11.7970 117.7434 29.1098 0.0000 0.0000 0.0000
# 3 33.2880 29.1098 148.5588 0.0000 0.0000 0.0000
# 4 0.0000 0.0000 0.0000 27.2610 0.0000 0.0000
# 5 0.0000 0.0000 0.0000 0.0000 34.3048 0.0000
# 6 0.0000 0.0000 0.0000 0.0000 0.0000 21.8885
#
#
#
# Elastic Compliance Matrix: (Units=1/GPa)
#
#
# Indices 1 2 3 4 5 6 
#
# 1 0.009313 -0.000438 -0.002001 0.000000 0.000000 0.000000
# 2 -0.000438 0.008946 -0.001655 0.000000 0.000000 0.000000
# 3 -0.002001 -0.001655 0.007504 0.000000 0.000000 0.000000
# 4 0.000000 0.000000 0.000000 0.036682 0.000000 0.000000
# 5 0.000000 0.000000 0.000000 0.000000 0.029150 0.000000
# 6 0.000000 0.000000 0.000000 0.000000 0.000000 0.045686
#
#
# Mechanical properties :
#
#
# Convention : Reuss Voigt Hill
#
# Bulk Modulus (GPa) = 56.89911 58.86393 57.88152
# Shear Modulus (GPa) = 33.04075 37.17028 35.10551
#
# Velocity S-wave (km/s) = 3.63729 3.85790 3.74922
# Velocity P-wave (km/s) = 6.35790 6.58895 6.47446
#
# Compressibility (1/GPa) = 0.01757497
#
# Stress axis : x y z
#
# Youngs Moduli (GPa) = 107.37638 111.78091 133.26356
#
# Poissons Ratio (x) = 0.04901 0.26665
# Poissons Ratio (y) = 0.04708 0.22052
# Poissons Ratio (z) = 0.21485 0.18497
#
# Static dielectric constant tensor:
#      x y z
#    x 1.970150 0.000000 0.000000 
#    y 0.000000 1.978710 0.000000 
#    z 0.000000 0.000000 2.011090 
# 
# From -- ./inp_files/17456.got.cif
#   From: 2010.05.17/outbox.cif.g08.bks.cpg/sg20_9_cif.got.tgz:17456.got - 2010.06.03 22:52:26.
