data_PCOD9319364
_publ_section_title
;
Structure prediction by ZEFSAII (Michael W. Deem and Ramdas Pophale) SiO2 
 PCOD9319364
Probable space group: C 2 2 21
;
_chemical_formula_sum "Si O2"
_cell_formula_units_Z 40
_cell_length_a 9.901387
_cell_length_b 12.352211
_cell_length_c 13.388894
_cell_angle_alpha 90.000000
_cell_angle_beta 90.000000
_cell_angle_gamma 90.000000
_cell_volume 1637.515579
_symmetry_space_group_name_H-M "C 2 2 21"
_symmetry_group_IT_number 20
_symmetry_cell_setting 'orthorhombic'
loop_
_space_group_symop_operation_xyz
x,y,z
-x,-y,1/2+z
x,-y,-z
-x,y,1/2-z
1/2+x,1/2+y,z
1/2-x,1/2-y,1/2+z
1/2+x,1/2-y,-z
1/2-x,1/2+y,1/2-z
loop_
_atom_site_type_symbol
_atom_site_label
_atom_site_fract_x
_atom_site_fract_y
_atom_site_fract_z
Si Si1 0.820115 0.600856 0.287504
Si Si2 0.151385 0.164837 0.860468
Si Si3 0.792004 0.166009 0.417923
Si Si4 0.556386 0.519971 0.391156
Si Si5 0.129136 0.369548 0.193489
O O1 0.873342 0.709259 0.339185
O O2 0.808920 0.623087 0.168063
O O3 0.666115 0.575720 0.321579
O O4 0.897689 0.495163 0.326898
O O5 0.249404 0.127368 0.772741
O O6 0.015807 0.093246 0.862168
O O7 0.233278 0.151635 0.964702
O O8 0.823674 0.291397 0.394143
O O9 0.930635 0.100182 0.403072
O O10 0.620050 0.500000 0.500000
O O11 0.000000 0.321354 0.250000
#
# Coordination Sequence:
#
# PCOD9319364 Si02
#       5
#     8   8   8   8   8
#     4  11  23  42  67  99 139 176 232 290 352 410
#     4  10  23  43  67 103 132 175 241 282 346 422
#     4  10  21  42  68  93 130 179 228 290 343 412
#     4  10  21  41  72  99 129 180 234 287 345 417
#     4  11  24  43  65  96 140 183 220 288 361 416
#
# _framework density 24.427249
#
# number of rings (size 3 to 8) (size 9 to 14) (size 15 to 20)
#    0.000    1.600    2.000    3.000    2.800    0.000 
#    7.200    2.000    0.000    0.000    0.000    0.000 
#    0.000    0.000    0.000    0.000    0.000    0.000 
#
# Total GULP energy -111896.653370 kJ/mol
# GULP energy per Si atom -5594.832669 kJ/mol
# Density = 2.437165 g / cm^3
# Si number density = 24.427249 Si / 1000 Ang^3
#
#
#
# Elastic Constant Matrix: (Units=GPa)
#
#
# Indices 1 2 3 4 5 6 
#
# 1 66.2319 18.4944 10.4509 0.0000 0.0000 0.0000
# 2 18.4944 177.5024 19.3054 0.0000 0.0000 0.0000
# 3 10.4509 19.3054 102.6753 0.0000 0.0000 0.0000
# 4 0.0000 0.0000 0.0000 27.2077 0.0000 0.0000
# 5 0.0000 0.0000 0.0000 0.0000 16.0065 0.0000
# 6 0.0000 0.0000 0.0000 0.0000 0.0000 -228.1417
#
#
#
# Elastic Compliance Matrix: (Units=1/GPa)
#
#
# Indices 1 2 3 4 5 6 
#
# 1 0.015724 -0.001495 -0.001319 0.000000 0.000000 0.000000
# 2 -0.001495 0.005893 -0.000956 0.000000 0.000000 0.000000
# 3 -0.001319 -0.000956 0.010053 0.000000 0.000000 0.000000
# 4 0.000000 0.000000 0.000000 0.036754 0.000000 0.000000
# 5 0.000000 0.000000 0.000000 0.000000 0.062475 0.000000
# 6 0.000000 0.000000 0.000000 0.000000 0.000000 -0.004383
#
#
# Mechanical properties :
#
#
# Convention : Reuss Voigt Hill
#
# Bulk Modulus (GPa) = 41.44118 49.21232 45.32675
# Shear Modulus (GPa) = 35.18635 -17.10822 9.03906
#
# Velocity S-wave (km/s) = 3.79945 -2.64933 1.92573
# Velocity P-wave (km/s) = 6.02078 3.29114 4.85187
#
# Compressibility (1/GPa) = 0.02413059
#
# Stress axis : x y z
#
# Youngs Moduli (GPa) = 63.59681 169.67998 99.46797
#
# Poissons Ratio (x) = 0.25364 0.13124
# Poissons Ratio (y) = 0.09507 0.09509
# Poissons Ratio (z) = 0.08391 0.16221
#
# Static dielectric constant tensor:
#      x y z
#    x 1.917050 0.000000 0.000000 
#    y 0.000000 2.002640 0.000000 
#    z 0.000000 0.000000 1.993450 
# 
# From -- ./inp_files/19663.got.cif
#   From: 2010.05.17/outbox.cif.g08.bks.cpg/sg20_10_cif.got.tgz:19663.got - 2010.06.03 22:52:26.
