data_PCOD9319824
_publ_section_title
;
Structure prediction by ZEFSAII (Michael W. Deem and Ramdas Pophale) SiO2 
 PCOD9319824
Probable space group: C 2 2 21
;
_chemical_formula_sum "Si O2"
_cell_formula_units_Z 64
_cell_length_a 17.090887
_cell_length_b 9.352690
_cell_length_c 18.760383
_cell_angle_alpha 90.000000
_cell_angle_beta 90.000000
_cell_angle_gamma 90.000000
_cell_volume 2998.767827
_symmetry_space_group_name_H-M "C 2 2 21"
_symmetry_group_IT_number 20
_symmetry_cell_setting 'orthorhombic'
loop_
_space_group_symop_operation_xyz
x,y,z
-x,-y,1/2+z
x,-y,-z
-x,y,1/2-z
1/2+x,1/2+y,z
1/2-x,1/2-y,1/2+z
1/2+x,1/2-y,-z
1/2-x,1/2+y,1/2-z
loop_
_atom_site_type_symbol
_atom_site_label
_atom_site_fract_x
_atom_site_fract_y
_atom_site_fract_z
Si Si1 0.402235 0.355870 0.957897
Si Si2 0.633957 0.645329 0.038150
Si Si3 0.754130 0.317740 0.078842
Si Si4 0.490155 0.149831 0.468378
Si Si5 0.772856 0.078936 0.330928
Si Si6 0.478439 0.492843 0.832324
Si Si7 0.407589 0.244808 0.344383
Si Si8 0.667930 0.343827 0.284564
O O1 0.326618 0.286425 0.922438
O O2 0.437288 0.251948 0.017858
O O3 0.466715 0.378977 0.895219
O O4 0.384404 0.500000 0.000000
O O5 0.580789 0.775375 0.012271
O O6 0.651632 0.622480 0.121130
O O7 0.603118 0.500000 0.000000
O O8 0.718571 0.665969 0.000011
O O9 0.773129 0.468381 0.117013
O O10 0.678749 0.257760 0.121801
O O11 0.458492 0.133944 0.388160
O O12 0.510558 0.000000 0.500000
O O13 0.795209 0.973325 0.264447
O O14 0.730297 0.228548 0.312976
O O15 0.500000 0.449197 0.750000
O O16 0.542806 0.609890 0.853630
O O17 0.393442 0.570973 0.832765
O O18 0.390078 0.241006 0.261612
#
# Coordination Sequence:
#
# PCOD9319824 Si02
#       8
#     8   8   8   8   8   8   8   8
#     4  12  25  41  71  98 135 176 236 289 342 415
#     4   9  20  40  66  87 128 181 223 267 341 417
#     4   9  22  39  65  97 132 167 224 284 340 401
#     4  11  24  39  64  96 129 169 226 285 342 402
#     4  10  22  40  63  95 135 179 216 282 340 404
#     4  10  23  42  68  96 127 180 231 272 334 426
#     4   9  20  44  61  89 131 174 217 270 335 407
#     4  10  23  38  67  93 134 178 230 269 342 408
#
# _framework density 21.342098
#
# number of rings (size 3 to 8) (size 9 to 14) (size 15 to 20)
#    0.000    2.000    1.250    1.125   12.250    5.500 
#    0.000    1.250    0.000    0.000    0.000    0.000 
#    0.000    0.000    0.000    0.000    0.000    0.000 
#
# Total GULP energy -178343.504327 kJ/mol
# GULP energy per Si atom -5573.234510 kJ/mol
# Density = 2.129352 g / cm^3
# Si number density = 21.342098 Si / 1000 Ang^3
#
#
#
# Elastic Constant Matrix: (Units=GPa)
#
#
# Indices 1 2 3 4 5 6 
#
# 1 69.7050 16.3760 1.4055 0.0000 0.0000 0.0000
# 2 16.3760 59.6772 1.7634 0.0000 0.0000 0.0000
# 3 1.4055 1.7634 51.0028 0.0000 0.0000 0.0000
# 4 0.0000 0.0000 0.0000 31.0046 0.0000 0.0000
# 5 0.0000 0.0000 0.0000 0.0000 29.6281 0.0000
# 6 0.0000 0.0000 0.0000 0.0000 0.0000 39.4725
#
#
#
# Elastic Compliance Matrix: (Units=1/GPa)
#
#
# Indices 1 2 3 4 5 6 
#
# 1 0.015339 -0.004201 -0.000277 0.000000 0.000000 0.000000
# 2 -0.004201 0.017924 -0.000504 0.000000 0.000000 0.000000
# 3 -0.000277 -0.000504 0.019632 0.000000 0.000000 0.000000
# 4 0.000000 0.000000 0.000000 0.032253 0.000000 0.000000
# 5 0.000000 0.000000 0.000000 0.000000 0.033752 0.000000
# 6 0.000000 0.000000 0.000000 0.000000 0.000000 0.025334
#
#
# Mechanical properties :
#
#
# Convention : Reuss Voigt Hill
#
# Bulk Modulus (GPa) = 23.29350 24.38607 23.83979
# Shear Modulus (GPa) = 29.67204 30.74372 30.20788
#
# Velocity S-wave (km/s) = 3.73273 3.79954 3.76628
# Velocity P-wave (km/s) = 5.43283 5.54073 5.48705
#
# Compressibility (1/GPa) = 0.04293042
#
# Stress axis : x y z
#
# Youngs Moduli (GPa) = 65.19464 55.78967 50.93764
#
# Poissons Ratio (x) = 0.23437 0.01413
# Poissons Ratio (y) = 0.27387 0.02567
# Poissons Ratio (z) = 0.01809 0.02812
#
# Static dielectric constant tensor:
#      x y z
#    x 1.799750 0.000000 0.000000 
#    y 0.000000 1.780370 0.000000 
#    z 0.000000 0.000000 1.857890 
# 
# From -- ./inp_files/27764.got.cif
#   From: 2010.05.17/outbox.cif.g08.bks.cpg/sg20_14_cif.got.tgz:27764.got - 2010.06.03 22:52:26.
