data_PCOD9319455
_publ_section_title
;
Structure prediction by ZEFSAII (Michael W. Deem and Ramdas Pophale) SiO2 
 PCOD9319455
Probable space group: C 2 2 21
;
_chemical_formula_sum "Si O2"
_cell_formula_units_Z 52
_cell_length_a 18.047168
_cell_length_b 9.167086
_cell_length_c 14.521404
_cell_angle_alpha 90.000000
_cell_angle_beta 90.000000
_cell_angle_gamma 90.000000
_cell_volume 2402.420223
_symmetry_space_group_name_H-M "C 2 2 21"
_symmetry_group_IT_number 20
_symmetry_cell_setting 'orthorhombic'
loop_
_space_group_symop_operation_xyz
x,y,z
-x,-y,1/2+z
x,-y,-z
-x,y,1/2-z
1/2+x,1/2+y,z
1/2-x,1/2-y,1/2+z
1/2+x,1/2-y,-z
1/2-x,1/2+y,1/2-z
loop_
_atom_site_type_symbol
_atom_site_label
_atom_site_fract_x
_atom_site_fract_y
_atom_site_fract_z
Si Si1 0.874135 0.500000 0.000000
Si Si2 0.000000 0.915213 0.750000
Si Si3 0.851171 0.611636 0.582806
Si Si4 0.515292 0.171873 0.613075
Si Si5 0.848130 0.670616 0.303656
Si Si6 0.500000 0.907759 0.750000
Si Si7 0.255683 0.850319 0.867429
Si Si8 0.385375 0.453736 0.394382
O O1 0.820629 0.435099 0.921028
O O2 0.927062 0.632552 0.966332
O O3 0.958147 0.799172 0.818061
O O4 0.050118 0.007195 0.820954
O O5 0.857777 0.500000 0.500000
O O6 0.928947 0.699751 0.588296
O O7 0.842953 0.499138 0.668164
O O8 0.779626 0.713397 0.579199
O O9 0.507939 0.017064 0.664743
O O10 0.926318 0.684171 0.252143
O O11 0.783631 0.702205 0.231960
O O12 0.859277 0.785028 0.386157
O O13 0.186442 0.958159 0.860750
O O14 0.402463 0.500000 0.500000
#
# Coordination Sequence:
#
# PCOD9319455 Si02
#       8
#     4   4   8   8   8   4   8   8
#     4  12  24  42  74 110 152 194 250 320 382 458
#     4  11  25  46  76 106 150 196 260 308 388 454
#     4  11  23  44  72 102 136 193 252 299 370 462
#     4  10  21  42  72 103 139 191 248 303 366 463
#     4  11  24  42  71  96 147 188 247 304 374 455
#     4   9  19  38  64 100 124 184 240 292 350 442
#     4  12  25  45  69 108 147 190 248 315 386 439
#     4  12  26  47  72 107 150 199 244 322 392 448
#
# _framework density 21.644839000000001
#
# number of rings (size 3 to 8) (size 9 to 14) (size 15 to 20)
#    0.000    0.923    4.615    2.308    0.000    1.231 
#    5.538    0.000    0.000    0.000    0.000    0.000 
#    0.000    0.000    0.000    0.000    0.000    0.000 
#
# Total GULP energy -145090.098945 kJ/mol
# GULP energy per Si atom -5580.388421 kJ/mol
# Density = 2.159557 g / cm^3
# Si number density = 21.644839 Si / 1000 Ang^3
#
#
#
# Elastic Constant Matrix: (Units=GPa)
#
#
# Indices 1 2 3 4 5 6 
#
# 1 90.8662 22.5854 47.9377 0.0000 0.0000 0.0000
# 2 22.5854 87.6433 18.8298 0.0000 0.0000 0.0000
# 3 47.9377 18.8298 91.6074 0.0000 0.0000 0.0000
# 4 0.0000 0.0000 0.0000 30.4361 0.0000 0.0000
# 5 0.0000 0.0000 0.0000 0.0000 39.2293 0.0000
# 6 0.0000 0.0000 0.0000 0.0000 0.0000 18.3896
#
#
#
# Elastic Compliance Matrix: (Units=1/GPa)
#
#
# Indices 1 2 3 4 5 6 
#
# 1 0.015663 -0.002380 -0.007707 0.000000 0.000000 0.000000
# 2 -0.002380 0.012299 -0.001282 0.000000 0.000000 0.000000
# 3 -0.007707 -0.001282 0.015213 0.000000 0.000000 0.000000
# 4 0.000000 0.000000 0.000000 0.032856 0.000000 0.000000
# 5 0.000000 0.000000 0.000000 0.000000 0.025491 0.000000
# 6 0.000000 0.000000 0.000000 0.000000 0.000000 0.054379
#
#
# Mechanical properties :
#
#
# Convention : Reuss Voigt Hill
#
# Bulk Modulus (GPa) = 48.93594 49.86918 49.40256
# Shear Modulus (GPa) = 26.96129 29.66191 28.31160
#
# Velocity S-wave (km/s) = 3.53317 3.70590 3.62056
# Velocity P-wave (km/s) = 6.26913 6.43439 6.35230
#
# Compressibility (1/GPa) = 0.02043488
#
# Stress axis : x y z
#
# Youngs Moduli (GPa) = 63.84564 81.30859 65.73435
#
# Poissons Ratio (x) = 0.19355 0.50661
# Poissons Ratio (y) = 0.15198 0.08429
# Poissons Ratio (z) = 0.49206 0.10427
#
# Static dielectric constant tensor:
#      x y z
#    x 1.789810 0.000000 0.000000 
#    y 0.000000 1.855050 0.000000 
#    z 0.000000 0.000000 1.849480 
# 
# From -- ./inp_files/21741.got.cif
#   From: 2010.05.17/outbox.cif.g08.bks.cpg/sg20_11_cif.got.tgz:21741.got - 2010.06.03 22:52:26.
