data_PCOD9319271
_publ_section_title
;
Structure prediction by ZEFSAII (Michael W. Deem and Ramdas Pophale) SiO2 
 PCOD9319271
Probable space group: C 2 2 21
;
_chemical_formula_sum "Si O2"
_cell_formula_units_Z 48
_cell_length_a 9.760229
_cell_length_b 11.428964
_cell_length_c 21.053873
_cell_angle_alpha 90.000000
_cell_angle_beta 90.000000
_cell_angle_gamma 90.000000
_cell_volume 2348.544919
_symmetry_space_group_name_H-M "C 2 2 21"
_symmetry_group_IT_number 20
_symmetry_cell_setting 'orthorhombic'
loop_
_space_group_symop_operation_xyz
x,y,z
-x,-y,1/2+z
x,-y,-z
-x,y,1/2-z
1/2+x,1/2+y,z
1/2-x,1/2-y,1/2+z
1/2+x,1/2-y,-z
1/2-x,1/2+y,1/2-z
loop_
_atom_site_type_symbol
_atom_site_label
_atom_site_fract_x
_atom_site_fract_y
_atom_site_fract_z
Si Si1 0.563621 0.817338 0.317985
Si Si2 0.825099 0.268577 0.952463
Si Si3 0.263606 0.024401 0.144921
Si Si4 0.955732 0.970627 0.102249
Si Si5 0.654614 0.409047 0.721782
Si Si6 0.518399 0.721726 0.055767
O O1 0.500000 0.847919 0.250000
O O2 0.622121 0.926767 0.353897
O O3 0.681239 0.720976 0.304230
O O4 0.466877 0.754521 0.369602
O O5 0.812282 0.630183 0.100369
O O6 0.913022 0.296738 0.014814
O O7 0.895952 0.150063 0.925215
O O8 0.667162 0.257957 0.973371
O O9 0.883538 0.969962 0.376660
O O10 0.246376 0.060006 0.218739
O O11 0.860274 0.003305 0.163002
O O12 0.961387 0.087884 0.058180
O O13 0.500000 0.401207 0.750000
#
# Coordination Sequence:
#
# PCOD9319271 Si02
#       6
#     8   8   8   8   8   8
#     4  10  21  41  61  88 132 170 212 278 339 393
#     4  11  23  43  66  96 132 170 229 271 335 408
#     4  10  22  38  64  97 130 170 213 279 332 398
#     4   9  20  41  67  91 124 180 220 266 331 403
#     4   8  17  36  62  86 119 167 213 252 328 390
#     4  10  24  43  67  94 129 178 218 279 336 403
#
# _framework density 20.438186999999999
#
# number of rings (size 3 to 8) (size 9 to 14) (size 15 to 20)
#    0.000    2.333    0.000    3.500    7.000    0.667 
#    9.000    0.000    0.000    0.000    0.000    0.000 
#    0.000    0.000    0.000    0.000    0.000    0.000 
#
# Total GULP energy -133687.372690 kJ/mol
# GULP energy per Si atom -5570.307195 kJ/mol
# Density = 2.039167 g / cm^3
# Si number density = 20.438187 Si / 1000 Ang^3
#
#
#
# Elastic Constant Matrix: (Units=GPa)
#
#
# Indices 1 2 3 4 5 6 
#
# 1 58.2272 35.3270 46.4304 0.0000 0.0000 0.0000
# 2 35.3270 84.6958 39.5203 0.0000 0.0000 0.0000
# 3 46.4304 39.5203 117.5657 0.0000 0.0000 0.0000
# 4 0.0000 0.0000 0.0000 25.0649 0.0000 0.0000
# 5 0.0000 0.0000 0.0000 0.0000 31.6829 0.0000
# 6 0.0000 0.0000 0.0000 0.0000 0.0000 19.2287
#
#
#
# Elastic Compliance Matrix: (Units=1/GPa)
#
#
# Indices 1 2 3 4 5 6 
#
# 1 0.029032 -0.008017 -0.008771 0.000000 0.000000 0.000000
# 2 -0.008017 0.016217 -0.002285 0.000000 0.000000 0.000000
# 3 -0.008771 -0.002285 0.012738 0.000000 0.000000 0.000000
# 4 0.000000 0.000000 0.000000 0.039896 0.000000 0.000000
# 5 0.000000 0.000000 0.000000 0.000000 0.031563 0.000000
# 6 0.000000 0.000000 0.000000 0.000000 0.000000 0.052006
#
#
# Mechanical properties :
#
#
# Convention : Reuss Voigt Hill
#
# Bulk Modulus (GPa) = 50.40023 55.89379 53.14701
# Shear Modulus (GPa) = 22.10326 24.47603 23.28965
#
# Velocity S-wave (km/s) = 3.29214 3.46434 3.37933
# Velocity P-wave (km/s) = 6.25814 6.58857 6.42548
#
# Compressibility (1/GPa) = 0.01984118
#
# Stress axis : x y z
#
# Youngs Moduli (GPa) = 34.44517 61.66305 78.50550
#
# Poissons Ratio (x) = 0.49433 0.68855
# Poissons Ratio (y) = 0.27614 0.17942
# Poissons Ratio (z) = 0.30211 0.14093
#
# Static dielectric constant tensor:
#      x y z
#    x 1.729890 0.000000 0.000000 
#    y 0.000000 1.774490 0.000000 
#    z 0.000000 0.000000 1.763050 
# 
# From -- ./inp_files/24308.got.cif
#   From: 2010.05.17/outbox.cif.g08.bks.cpg/sg20_13_cif.got.tgz:24308.got - 2010.06.03 22:52:26.
