data_PCOD9319255
_publ_section_title
;
Structure prediction by ZEFSAII (Michael W. Deem and Ramdas Pophale) SiO2 
 PCOD9319255
Probable space group: C 2 2 21
;
_chemical_formula_sum "Si O2"
_cell_formula_units_Z 44
_cell_length_a 15.894919
_cell_length_b 8.196457
_cell_length_c 15.795904
_cell_angle_alpha 90.000000
_cell_angle_beta 90.000000
_cell_angle_gamma 90.000000
_cell_volume 2057.922282
_symmetry_space_group_name_H-M "C 2 2 21"
_symmetry_group_IT_number 20
_symmetry_cell_setting 'orthorhombic'
loop_
_space_group_symop_operation_xyz
x,y,z
-x,-y,1/2+z
x,-y,-z
-x,y,1/2-z
1/2+x,1/2+y,z
1/2-x,1/2-y,1/2+z
1/2+x,1/2-y,-z
1/2-x,1/2+y,1/2-z
loop_
_atom_site_type_symbol
_atom_site_label
_atom_site_fract_x
_atom_site_fract_y
_atom_site_fract_z
Si Si1 0.390901 0.868470 0.892795
Si Si2 0.788053 0.029806 0.363350
Si Si3 0.353356 0.654227 0.050791
Si Si4 0.324664 0.756343 0.508841
Si Si5 0.526006 0.000000 0.000000
Si Si6 0.591185 0.476716 0.292588
O O1 0.313227 0.974164 0.857596
O O2 0.472871 0.974983 0.913372
O O3 0.401382 0.702927 0.837497
O O4 0.370055 0.806036 0.989092
O O5 0.801946 0.199343 0.413704
O O6 0.825150 0.896712 0.428051
O O7 0.836090 0.001208 0.276884
O O8 0.251873 0.641866 0.050914
O O9 0.393763 0.624198 0.141162
O O10 0.388463 0.500000 0.000000
O O11 0.412395 0.845745 0.501459
O O12 0.500000 0.486473 0.250000
#
# Coordination Sequence:
#
# PCOD9319255 Si02
#       6
#     8   8   8   8   4   8
#     4  10  23  43  67  99 136 186 227 285 354 415
#     4  10  23  44  67  98 142 177 228 283 357 417
#     4   9  19  40  65  91 131 178 226 271 347 417
#     4  10  21  40  70 100 127 185 229 278 345 419
#     4  12  22  40  74  98 132 172 248 288 326 432
#     4  11  24  41  67 103 140 178 232 296 348 410
#
# _framework density 21.380787999999999
#
# number of rings (size 3 to 8) (size 9 to 14) (size 15 to 20)
#    0.000    1.818    0.909    3.273    5.091    0.000 
#    0.000    0.000    4.000    0.000    0.000    0.000 
#    0.000    0.000    0.000    0.000    0.000    0.000 
#
# Total GULP energy -122617.219672 kJ/mol
# GULP energy per Si atom -5573.509985 kJ/mol
# Density = 2.133212 g / cm^3
# Si number density = 21.380788 Si / 1000 Ang^3
#
#
#
# Elastic Constant Matrix: (Units=GPa)
#
#
# Indices 1 2 3 4 5 6 
#
# 1 144.9350 43.9629 62.4855 0.0000 0.0000 0.0000
# 2 43.9629 66.4018 33.6331 0.0000 0.0000 0.0000
# 3 62.4855 33.6331 120.1125 0.0000 0.0000 0.0000
# 4 0.0000 0.0000 0.0000 34.3202 0.0000 0.0000
# 5 0.0000 0.0000 0.0000 0.0000 44.2051 0.0000
# 6 0.0000 0.0000 0.0000 0.0000 0.0000 23.8615
#
#
#
# Elastic Compliance Matrix: (Units=1/GPa)
#
#
# Indices 1 2 3 4 5 6 
#
# 1 0.009986 -0.004638 -0.003896 0.000000 0.000000 0.000000
# 2 -0.004638 0.019703 -0.003104 0.000000 0.000000 0.000000
# 3 -0.003896 -0.003104 0.011222 0.000000 0.000000 0.000000
# 4 0.000000 0.000000 0.000000 0.029137 0.000000 0.000000
# 5 0.000000 0.000000 0.000000 0.000000 0.022622 0.000000
# 6 0.000000 0.000000 0.000000 0.000000 0.000000 0.041909
#
#
# Mechanical properties :
#
#
# Convention : Reuss Voigt Hill
#
# Bulk Modulus (GPa) = 56.71013 67.95692 62.33353
# Shear Modulus (GPa) = 30.53731 33.23522 31.88627
#
# Velocity S-wave (km/s) = 3.78333 3.94692 3.86599
# Velocity P-wave (km/s) = 6.75768 7.25424 7.01036
#
# Compressibility (1/GPa) = 0.01763353
#
# Stress axis : x y z
#
# Youngs Moduli (GPa) = 100.13636 50.75388 89.11258
#
# Poissons Ratio (x) = 0.23540 0.34722
# Poissons Ratio (y) = 0.46445 0.27662
# Poissons Ratio (z) = 0.39017 0.15755
#
# Static dielectric constant tensor:
#      x y z
#    x 1.852090 0.000000 0.000000 
#    y 0.000000 1.854810 0.000000 
#    z 0.000000 0.000000 1.788940 
# 
# From -- ./inp_files/24767.got.cif
#   From: 2010.05.17/outbox.cif.g08.bks.cpg/sg20_13_cif.got.tgz:24767.got - 2010.06.03 22:52:26.
