data_PCOD9319185
_publ_section_title
;
Structure prediction by ZEFSAII (Michael W. Deem and Ramdas Pophale) SiO2 
 PCOD9319185
Probable space group: C 2 2 21
;
_chemical_formula_sum "Si O2"
_cell_formula_units_Z 48
_cell_length_a 8.813896
_cell_length_b 26.242213
_cell_length_c 10.178706
_cell_angle_alpha 90.000000
_cell_angle_beta 90.000000
_cell_angle_gamma 90.000000
_cell_volume 2354.295369
_symmetry_space_group_name_H-M "C 2 2 21"
_symmetry_group_IT_number 20
_symmetry_cell_setting 'orthorhombic'
loop_
_space_group_symop_operation_xyz
x,y,z
-x,-y,1/2+z
x,-y,-z
-x,y,1/2-z
1/2+x,1/2+y,z
1/2-x,1/2-y,1/2+z
1/2+x,1/2-y,-z
1/2-x,1/2+y,1/2-z
loop_
_atom_site_type_symbol
_atom_site_label
_atom_site_fract_x
_atom_site_fract_y
_atom_site_fract_z
Si Si1 0.718517 0.414133 0.472777
Si Si2 0.830833 0.986093 0.793834
Si Si3 0.398588 0.971323 0.119212
Si Si4 0.937932 0.261835 0.396561
Si Si5 0.464069 0.867624 0.096232
Si Si6 0.911570 0.806839 0.110465
O O1 0.697815 0.461974 0.375714
O O2 0.694977 0.437036 0.616549
O O3 0.619276 0.365974 0.426691
O O4 0.889699 0.394051 0.465778
O O5 0.731774 0.990532 0.663108
O O6 0.000000 0.986221 0.750000
O O7 0.500000 0.967755 0.250000
O O8 0.344377 0.913654 0.087739
O O9 0.480300 0.000000 0.000000
O O10 0.759500 0.280160 0.389042
O O11 0.000000 0.249234 0.250000
O O12 0.039272 0.310036 0.450785
O O13 0.980307 0.217836 0.499110
O O14 0.500000 0.860140 0.250000
O O15 0.000000 0.802558 0.250000
#
# Coordination Sequence:
#
# PCOD9319185 Si02
#       6
#     8   8   8   8   8   8
#     4  10  21  40  64  85 129 167 212 266 327 386
#     4  11  23  38  58  92 129 166 212 266 317 397
#     4  11  21  37  62  91 124 170 217 261 322 384
#     4  10  22  41  65  95 130 165 221 282 328 395
#     4   9  17  36  63  88 114 163 211 257 311 379
#     4  11  23  43  69  96 126 177 223 274 341 406
#
# _framework density 20.388265000000001
#
# number of rings (size 3 to 8) (size 9 to 14) (size 15 to 20)
#    0.000    1.667    3.333    2.500    2.333    0.667 
#    3.000    5.833    0.000    0.000    0.000    0.000 
#    0.000    0.000    0.000    0.000    0.000    0.000 
#
# Total GULP energy -133676.883424 kJ/mol
# GULP energy per Si atom -5569.870143 kJ/mol
# Density = 2.034186 g / cm^3
# Si number density = 20.388265 Si / 1000 Ang^3
#
#
#
# Elastic Constant Matrix: (Units=GPa)
#
#
# Indices 1 2 3 4 5 6 
#
# 1 81.7535 24.5050 35.3752 0.0000 0.0000 0.0000
# 2 24.5050 103.9971 61.6740 0.0000 0.0000 0.0000
# 3 35.3752 61.6740 89.2160 0.0000 0.0000 0.0000
# 4 0.0000 0.0000 0.0000 28.9777 0.0000 0.0000
# 5 0.0000 0.0000 0.0000 0.0000 23.3591 0.0000
# 6 0.0000 0.0000 0.0000 0.0000 0.0000 4.9735
#
#
#
# Elastic Compliance Matrix: (Units=1/GPa)
#
#
# Indices 1 2 3 4 5 6 
#
# 1 0.014765 -0.000012 -0.005846 0.000000 0.000000 0.000000
# 2 -0.000012 0.016297 -0.011261 0.000000 0.000000 0.000000
# 3 -0.005846 -0.011261 0.021311 0.000000 0.000000 0.000000
# 4 0.000000 0.000000 0.000000 0.034509 0.000000 0.000000
# 5 0.000000 0.000000 0.000000 0.000000 0.042810 0.000000
# 6 0.000000 0.000000 0.000000 0.000000 0.000000 0.201067
#
#
# Mechanical properties :
#
#
# Convention : Reuss Voigt Hill
#
# Bulk Modulus (GPa) = 55.14263 57.56389 56.35326
# Shear Modulus (GPa) = 13.47555 21.68954 17.58255
#
# Velocity S-wave (km/s) = 2.57368 3.26517 2.93983
# Velocity P-wave (km/s) = 5.99472 6.51999 6.26287
#
# Compressibility (1/GPa) = 0.01813479
#
# Stress axis : x y z
#
# Youngs Moduli (GPa) = 67.72672 61.36261 46.92348
#
# Poissons Ratio (x) = 0.00075 0.27432
# Poissons Ratio (y) = 0.00082 0.52840
# Poissons Ratio (z) = 0.39594 0.69099
#
# Static dielectric constant tensor:
#      x y z
#    x 1.779510 0.000000 0.000000 
#    y 0.000000 1.928960 0.000000 
#    z 0.000000 0.000000 1.705620 
# 
# From -- ./inp_files/13101.got.cif
#   From: 2010.05.17/outbox.cif.g08.bks.cpg/sg20_7_cif.got.tgz:13101.got - 2010.06.03 22:52:26.
