data_PCOD9319092
_publ_section_title
;
Structure prediction by ZEFSAII (Michael W. Deem and Ramdas Pophale) SiO2 
 PCOD9319092
Probable space group: C 2 2 21
;
_chemical_formula_sum "Si O2"
_cell_formula_units_Z 64
_cell_length_a 17.063116
_cell_length_b 11.849716
_cell_length_c 15.916079
_cell_angle_alpha 90.000000
_cell_angle_beta 90.000000
_cell_angle_gamma 90.000000
_cell_volume 3218.121013
_symmetry_space_group_name_H-M "C 2 2 21"
_symmetry_group_IT_number 20
_symmetry_cell_setting 'orthorhombic'
loop_
_space_group_symop_operation_xyz
x,y,z
-x,-y,1/2+z
x,-y,-z
-x,y,1/2-z
1/2+x,1/2+y,z
1/2-x,1/2-y,1/2+z
1/2+x,1/2-y,-z
1/2-x,1/2+y,1/2-z
loop_
_atom_site_type_symbol
_atom_site_label
_atom_site_fract_x
_atom_site_fract_y
_atom_site_fract_z
Si Si1 0.256235 0.913570 0.319865
Si Si2 0.576573 0.745587 0.304038
Si Si3 0.197283 0.258211 0.960880
Si Si4 0.681120 0.704715 0.140752
Si Si5 0.655096 0.581571 0.427641
Si Si6 0.601633 0.955667 0.902407
Si Si7 0.248096 0.467762 0.370896
Si Si8 0.929049 0.513730 0.899329
O O1 0.243443 0.786426 0.351518
O O2 0.250505 0.915988 0.221095
O O3 0.196512 0.999821 0.360946
O O4 0.341692 0.961365 0.349404
O O5 0.500000 0.724942 0.250000
O O6 0.640280 0.733005 0.229274
O O7 0.594038 0.656347 0.377015
O O8 0.570761 0.864043 0.353459
O O9 0.275205 0.337585 0.963209
O O10 0.139642 0.330804 0.901438
O O11 0.227344 0.134733 0.932036
O O12 0.151464 0.244933 0.049312
O O13 0.694304 0.573285 0.130543
O O14 0.623607 0.500000 0.500000
O O15 0.511820 0.958402 0.871421
O O16 0.606398 0.000000 0.000000
O O17 0.161319 0.520220 0.383772
O O18 0.935093 0.500000 0.000000
#
# Coordination Sequence:
#
# PCOD9319092 Si02
#       8
#     8   8   8   8   8   8   8   8
#     4  11  20  39  64  93 126 177 233 280 337 418
#     4  12  26  43  69  98 138 185 238 286 357 434
#     4  11  21  40  66 103 138 177 229 291 351 420
#     4  12  22  41  67  96 133 182 228 288 339 427
#     4  11  21  42  69  97 130 183 239 285 343 418
#     4  10  21  39  65  95 132 176 227 279 353 429
#     4  12  25  38  66 104 141 177 232 295 352 413
#     4  11  24  40  65 102 139 172 222 293 362 414
#
# _framework density 19.88738
#
# number of rings (size 3 to 8) (size 9 to 14) (size 15 to 20)
#    0.000    0.750    6.250    2.625    3.500    0.000 
#    0.000    1.250    2.750    0.000    0.000    0.000 
#    0.000    0.000    0.000    0.000    0.000    0.000 
#
# Total GULP energy -178209.722721 kJ/mol
# GULP energy per Si atom -5569.053835 kJ/mol
# Density = 1.984212 g / cm^3
# Si number density = 19.887380 Si / 1000 Ang^3
#
#
#
# Elastic Constant Matrix: (Units=GPa)
#
#
# Indices 1 2 3 4 5 6 
#
# 1 47.4085 28.0579 20.5088 0.0000 0.0000 0.0000
# 2 28.0579 116.4326 30.6408 0.0000 0.0000 0.0000
# 3 20.5088 30.6408 106.3044 0.0000 0.0000 0.0000
# 4 0.0000 0.0000 0.0000 32.9126 0.0000 0.0000
# 5 0.0000 0.0000 0.0000 0.0000 15.8464 0.0000
# 6 0.0000 0.0000 0.0000 0.0000 0.0000 14.4573
#
#
#
# Elastic Compliance Matrix: (Units=1/GPa)
#
#
# Indices 1 2 3 4 5 6 
#
# 1 0.025711 -0.005292 -0.003435 0.000000 0.000000 0.000000
# 2 -0.005292 0.010383 -0.001972 0.000000 0.000000 0.000000
# 3 -0.003435 -0.001972 0.010638 0.000000 0.000000 0.000000
# 4 0.000000 0.000000 0.000000 0.030384 0.000000 0.000000
# 5 0.000000 0.000000 0.000000 0.000000 0.063106 0.000000
# 6 0.000000 0.000000 0.000000 0.000000 0.000000 0.069169
#
#
# Mechanical properties :
#
#
# Convention : Reuss Voigt Hill
#
# Bulk Modulus (GPa) = 39.47174 47.61784 43.54479
# Shear Modulus (GPa) = 20.90016 25.37246 23.13631
#
# Velocity S-wave (km/s) = 3.24532 3.57572 3.41452
# Velocity P-wave (km/s) = 5.82525 6.40651 6.12278
#
# Compressibility (1/GPa) = 0.02533458
#
# Stress axis : x y z
#
# Youngs Moduli (GPa) = 38.89362 96.31316 94.00275
#
# Poissons Ratio (x) = 0.50968 0.32290
# Poissons Ratio (y) = 0.20582 0.18535
# Poissons Ratio (z) = 0.13360 0.18991
#
# Static dielectric constant tensor:
#      x y z
#    x 1.759040 0.000000 0.000000 
#    y 0.000000 1.760310 0.000000 
#    z 0.000000 0.000000 1.745910 
# 
# From -- ./inp_files/21490.got.cif
#   From: 2010.05.17/outbox.cif.g08.bks.cpg/sg20_11_cif.got.tgz:21490.got - 2010.06.03 22:52:26.
