data_PCOD9319078
_publ_section_title
;
Structure prediction by ZEFSAII (Michael W. Deem and Ramdas Pophale) SiO2 
 PCOD9319078
Probable space group: C 2 2 21
;
_chemical_formula_sum "Si O2"
_cell_formula_units_Z 64
_cell_length_a 16.263844
_cell_length_b 10.361277
_cell_length_c 18.714784
_cell_angle_alpha 90.000000
_cell_angle_beta 90.000000
_cell_angle_gamma 90.000000
_cell_volume 3153.706719
_symmetry_space_group_name_H-M "C 2 2 21"
_symmetry_group_IT_number 20
_symmetry_cell_setting 'orthorhombic'
loop_
_space_group_symop_operation_xyz
x,y,z
-x,-y,1/2+z
x,-y,-z
-x,y,1/2-z
1/2+x,1/2+y,z
1/2-x,1/2-y,1/2+z
1/2+x,1/2-y,-z
1/2-x,1/2+y,1/2-z
loop_
_atom_site_type_symbol
_atom_site_label
_atom_site_fract_x
_atom_site_fract_y
_atom_site_fract_z
Si Si1 0.494963 0.234220 0.086561
Si Si2 0.309467 0.501509 0.382336
Si Si3 0.445706 0.217297 0.822026
Si Si4 0.026827 0.882896 0.949657
Si Si5 0.363835 0.773773 0.678729
Si Si6 0.802000 0.107911 0.223420
Si Si7 0.119977 0.514263 0.418166
Si Si8 0.931470 0.907080 0.201032
O O1 0.567027 0.162793 0.129585
O O2 0.411151 0.157565 0.097371
O O3 0.479303 0.364906 0.131199
O O4 0.522633 0.266275 0.007020
O O5 0.381926 0.568949 0.427530
O O6 0.332980 0.353361 0.364313
O O7 0.304279 0.575523 0.306879
O O8 0.218141 0.502585 0.413912
O O9 0.500000 0.199258 0.750000
O O10 0.483342 0.323742 0.878360
O O11 0.357872 0.269863 0.794976
O O12 0.424881 0.088127 0.866671
O O13 0.991127 0.000000 0.000000
O O14 0.289307 0.866255 0.697383
O O15 0.404453 0.714677 0.750385
O O16 0.850542 0.989066 0.187614
O O17 0.093090 0.500000 0.500000
O O18 0.000000 0.979346 0.250000
#
# Coordination Sequence:
#
# PCOD9319078 Si02
#       8
#     8   8   8   8   8   8   8   8
#     4  11  23  43  66  95 132 178 227 278 340 416
#     4  11  23  40  68  97 131 180 227 279 340 414
#     4  12  25  44  71 103 139 187 229 287 347 414
#     4  12  23  42  72  99 131 178 235 285 342 402
#     4  10  21  39  64  97 135 176 221 279 342 407
#     4  11  21  38  65 100 134 164 234 287 330 398
#     4  12  26  45  67  99 142 182 224 280 358 419
#     4   9  20  38  65  94 130 173 225 281 333 400
#
# _framework density 20.293579000000001
#
# number of rings (size 3 to 8) (size 9 to 14) (size 15 to 20)
#    0.000    1.000    5.000    2.250    1.750    2.500 
#    0.000    0.000    0.000    0.750    0.000    0.000 
#    0.000    0.000    0.000    0.000    0.000    0.000 
#
# Total GULP energy -178548.335026 kJ/mol
# GULP energy per Si atom -5579.635470 kJ/mol
# Density = 2.024739 g / cm^3
# Si number density = 20.293579 Si / 1000 Ang^3
#
#
#
# Elastic Constant Matrix: (Units=GPa)
#
#
# Indices 1 2 3 4 5 6 
#
# 1 86.6119 7.2303 23.5374 0.0000 0.0000 0.0000
# 2 7.2303 39.7422 20.6970 0.0000 0.0000 0.0000
# 3 23.5374 20.6970 110.9371 0.0000 0.0000 0.0000
# 4 0.0000 0.0000 0.0000 28.9259 0.0000 0.0000
# 5 0.0000 0.0000 0.0000 0.0000 30.7910 0.0000
# 6 0.0000 0.0000 0.0000 0.0000 0.0000 36.3820
#
#
#
# Elastic Compliance Matrix: (Units=1/GPa)
#
#
# Indices 1 2 3 4 5 6 
#
# 1 0.012286 -0.000972 -0.002425 0.000000 0.000000 0.000000
# 2 -0.000972 0.027947 -0.005008 0.000000 0.000000 0.000000
# 3 -0.002425 -0.005008 0.010463 0.000000 0.000000 0.000000
# 4 0.000000 0.000000 0.000000 0.034571 0.000000 0.000000
# 5 0.000000 0.000000 0.000000 0.000000 0.032477 0.000000
# 6 0.000000 0.000000 0.000000 0.000000 0.000000 0.027486
#
#
# Mechanical properties :
#
#
# Convention : Reuss Voigt Hill
#
# Bulk Modulus (GPa) = 29.51103 37.80228 33.65666
# Shear Modulus (GPa) = 28.84577 31.60822 30.22699
#
# Velocity S-wave (km/s) = 3.77427 3.95086 3.86357
# Velocity P-wave (km/s) = 5.79371 6.28335 6.04349
#
# Compressibility (1/GPa) = 0.03388563
#
# Stress axis : x y z
#
# Youngs Moduli (GPa) = 81.39333 35.78208 95.57523
#
# Poissons Ratio (x) = 0.03478 0.23180
# Poissons Ratio (y) = 0.07912 0.47861
# Poissons Ratio (z) = 0.19741 0.17919
#
# Static dielectric constant tensor:
#      x y z
#    x 1.709910 0.000000 0.000000 
#    y 0.000000 1.794900 0.000000 
#    z 0.000000 0.000000 1.763840 
# 
# From -- ./inp_files/24989.got.cif
#   From: 2010.05.17/outbox.cif.g08.bks.cpg/sg20_13_cif.got.tgz:24989.got - 2010.06.03 22:52:26.
