data_PCOD9319919
_publ_section_title
;
Structure prediction by ZEFSAII (Michael W. Deem and Ramdas Pophale) SiO2 
 PCOD9319919
Probable space group: C 2 2 21
;
_chemical_formula_sum "Si O2"
_cell_formula_units_Z 60
_cell_length_a 10.392010
_cell_length_b 9.597669
_cell_length_c 28.249079
_cell_angle_alpha 90.000000
_cell_angle_beta 90.000000
_cell_angle_gamma 90.000000
_cell_volume 2817.536931
_symmetry_space_group_name_H-M "C 2 2 21"
_symmetry_group_IT_number 20
_symmetry_cell_setting 'orthorhombic'
loop_
_space_group_symop_operation_xyz
x,y,z
-x,-y,1/2+z
x,-y,-z
-x,y,1/2-z
1/2+x,1/2+y,z
1/2-x,1/2-y,1/2+z
1/2+x,1/2-y,-z
1/2-x,1/2+y,1/2-z
loop_
_atom_site_type_symbol
_atom_site_label
_atom_site_fract_x
_atom_site_fract_y
_atom_site_fract_z
Si Si1 0.719581 0.694590 0.186841
Si Si2 0.587726 0.774307 0.088061
Si Si3 0.500000 0.630058 0.250000
Si Si4 0.676375 0.652447 0.397822
Si Si5 0.279070 0.585331 0.641234
Si Si6 0.208674 0.409354 0.547333
Si Si7 0.927797 0.079997 0.834188
Si Si8 0.422170 0.070309 0.449007
O O1 0.635950 0.729683 0.139854
O O2 0.622877 0.713674 0.230455
O O3 0.753260 0.530858 0.180717
O O4 0.844708 0.790772 0.184446
O O5 0.454601 0.697405 0.076881
O O6 0.694656 0.719376 0.051647
O O7 0.566189 0.937793 0.085752
O O8 0.546090 0.529602 0.292330
O O9 0.702441 0.770636 0.358285
O O10 0.652245 0.503019 0.374145
O O11 0.799213 0.654241 0.431818
O O12 0.244534 0.509917 0.591489
O O13 0.431222 0.616714 0.645730
O O14 0.219991 0.500000 0.500000
O O15 0.061330 0.358075 0.551559
O O16 0.403399 0.000000 0.500000
#
# Coordination Sequence:
#
# PCOD9319919 Si02
#       8
#     8   8   4   8   8   8   8   8
#     4  10  22  45  68  90 134 169 207 269 329 389
#     4  11  22  42  64  90 127 176 218 261 332 382
#     4  10  22  42  66 100 128 162 216 270 324 398
#     4  12  23  40  67  95 126 177 220 264 324 388
#     4  10  23  39  64  93 126 168 216 263 315 385
#     4  10  22  41  59  88 129 172 215 270 320 370
#     4  11  23  44  66  98 127 167 210 270 323 391
#     4  11  26  39  60  99 134 170 226 277 314 384
#
# _framework density 21.295193999999999
#
# number of rings (size 3 to 8) (size 9 to 14) (size 15 to 20)
#    0.000    1.333    6.667    0.000    5.600    2.667 
#    0.000    0.000    0.000    0.000    0.000    0.000 
#    0.000    0.000    0.000    0.000    0.000    0.000 
#
# Total GULP energy -167633.533208 kJ/mol
# GULP energy per Si atom -5587.784440 kJ/mol
# Density = 2.124673 g / cm^3
# Si number density = 21.295194 Si / 1000 Ang^3
#
#
#
# Elastic Constant Matrix: (Units=GPa)
#
#
# Indices 1 2 3 4 5 6 
#
# 1 140.0859 29.2954 14.2497 0.0000 0.0000 0.0000
# 2 29.2954 52.9041 -24.8102 0.0000 0.0000 0.0000
# 3 14.2497 -24.8102 38.8658 0.0000 0.0000 0.0000
# 4 0.0000 0.0000 0.0000 17.2824 0.0000 0.0000
# 5 0.0000 0.0000 0.0000 0.0000 17.6076 0.0000
# 6 0.0000 0.0000 0.0000 0.0000 0.0000 5.5619
#
#
#
# Elastic Compliance Matrix: (Units=1/GPa)
#
#
# Indices 1 2 3 4 5 6 
#
# 1 0.010516 -0.010892 -0.010808 0.000000 0.000000 0.000000
# 2 -0.010892 0.038260 0.028417 0.000000 0.000000 0.000000
# 3 -0.010808 0.028417 0.047832 0.000000 0.000000 0.000000
# 4 0.000000 0.000000 0.000000 0.057862 0.000000 0.000000
# 5 0.000000 0.000000 0.000000 0.000000 0.056794 0.000000
# 6 0.000000 0.000000 0.000000 0.000000 0.000000 0.179793
#
#
# Mechanical properties :
#
#
# Convention : Reuss Voigt Hill
#
# Bulk Modulus (GPa) = 9.08752 29.92504 19.50628
# Shear Modulus (GPa) = 12.06845 22.29845 17.18345
#
# Velocity S-wave (km/s) = 2.38317 3.23942 2.84371
# Velocity P-wave (km/s) = 3.44229 5.29857 4.46789
#
# Compressibility (1/GPa) = 0.11004100
#
# Stress axis : x y z
#
# Youngs Moduli (GPa) = 95.09697 26.13720 20.90647
#
# Poissons Ratio (x) = 0.28468 0.22596
# Poissons Ratio (y) = 1.03576 -0.59409
# Poissons Ratio (z) = 1.02782 -0.74273
#
# Static dielectric constant tensor:
#      x y z
#    x 1.778350 0.000000 0.000000 
#    y 0.000000 1.791130 0.000000 
#    z 0.000000 0.000000 1.777990 
# 
# From -- ./inp_files/31029.got.cif
#   From: 2010.05.17/outbox.cif.g08.bks.cpg/sg20_16_cif.got.tgz:31029.got - 2010.06.03 22:52:26.
