data_PCOD9319254
_publ_section_title
;
Structure prediction by ZEFSAII (Michael W. Deem and Ramdas Pophale) SiO2 
 PCOD9319254
Probable space group: C 2 2 21
;
_chemical_formula_sum "Si O2"
_cell_formula_units_Z 40
_cell_length_a 12.339931
_cell_length_b 7.382857
_cell_length_c 18.669059
_cell_angle_alpha 90.000000
_cell_angle_beta 90.000000
_cell_angle_gamma 90.000000
_cell_volume 1700.824942
_symmetry_space_group_name_H-M "C 2 2 21"
_symmetry_group_IT_number 20
_symmetry_cell_setting 'orthorhombic'
loop_
_space_group_symop_operation_xyz
x,y,z
-x,-y,1/2+z
x,-y,-z
-x,y,1/2-z
1/2+x,1/2+y,z
1/2-x,1/2-y,1/2+z
1/2+x,1/2-y,-z
1/2-x,1/2+y,1/2-z
loop_
_atom_site_type_symbol
_atom_site_label
_atom_site_fract_x
_atom_site_fract_y
_atom_site_fract_z
Si Si1 0.972703 0.772529 0.931103
Si Si2 0.165671 0.491117 0.920472
Si Si3 0.016699 0.201720 0.592017
Si Si4 0.387843 0.777046 0.216711
Si Si5 0.324611 0.603787 0.797616
O O1 0.894832 0.701604 0.868770
O O2 0.081547 0.657596 0.919886
O O3 0.995853 0.984284 0.915197
O O4 0.936749 0.743818 0.013344
O O5 0.258043 0.522125 0.864173
O O6 0.095153 0.312372 0.904098
O O7 0.213200 0.500000 0.000000
O O8 0.091314 0.236834 0.661969
O O9 0.500000 0.855452 0.250000
O O10 0.387647 0.563445 0.236241
O O11 0.271404 0.836068 0.245908
#
# Coordination Sequence:
#
# PCOD9319254 Si02
#       5
#     8   8   8   8   8
#     4   9  19  41  66  88 135 161 205 280 307 368
#     4  10  21  40  69  96 124 167 214 267 320 370
#     4   9  21  40  66  96 125 165 216 269 315 372
#     4  11  24  41  60  91 133 166 207 266 314 381
#     4  11  25  40  67  92 127 174 214 256 327 384
#
# _framework density 23.517997999999999
#
# number of rings (size 3 to 8) (size 9 to 14) (size 15 to 20)
#    0.000    2.000    2.000    0.000    8.400    3.200 
#    0.000    0.000   13.200    0.000    0.000    0.000 
#    0.000    0.000    0.000    0.000    0.000    0.000 
#
# Total GULP energy -111693.584159 kJ/mol
# GULP energy per Si atom -5584.679208 kJ/mol
# Density = 2.346447 g / cm^3
# Si number density = 23.517998 Si / 1000 Ang^3
#
#
#
# Elastic Constant Matrix: (Units=GPa)
#
#
# Indices 1 2 3 4 5 6 
#
# 1 65.3129 14.6318 1.7548 0.0000 0.0000 0.0000
# 2 14.6318 44.5937 -0.5563 0.0000 0.0000 0.0000
# 3 1.7548 -0.5563 41.8791 0.0000 0.0000 0.0000
# 4 0.0000 0.0000 0.0000 23.5984 0.0000 0.0000
# 5 0.0000 0.0000 0.0000 0.0000 37.0325 0.0000
# 6 0.0000 0.0000 0.0000 0.0000 0.0000 -231.8035
#
#
#
# Elastic Compliance Matrix: (Units=1/GPa)
#
#
# Indices 1 2 3 4 5 6 
#
# 1 0.016550 -0.005440 -0.000766 0.000000 0.000000 0.000000
# 2 -0.005440 0.024216 0.000550 0.000000 0.000000 0.000000
# 3 -0.000766 0.000550 0.023918 0.000000 0.000000 0.000000
# 4 0.000000 0.000000 0.000000 0.042376 0.000000 0.000000
# 5 0.000000 0.000000 0.000000 0.000000 0.027003 0.000000
# 6 0.000000 0.000000 0.000000 0.000000 0.000000 -0.004314
#
#
# Mechanical properties :
#
#
# Convention : Reuss Voigt Hill
#
# Bulk Modulus (GPa) = 18.73633 20.38292 19.55962
# Shear Modulus (GPa) = 31.47584 -25.17081 3.15252
#
# Velocity S-wave (km/s) = 3.66235 -3.27506 1.15904
# Velocity P-wave (km/s) = 5.08604 2.36973 3.18215
#
# Compressibility (1/GPa) = 0.05337224
#
# Stress axis : x y z
#
# Youngs Moduli (GPa) = 60.42237 41.29424 41.81014
#
# Poissons Ratio (x) = 0.22464 0.03202
# Poissons Ratio (y) = 0.32869 -0.02298
# Poissons Ratio (z) = 0.04627 -0.02269
#
# Static dielectric constant tensor:
#      x y z
#    x 1.940090 0.000000 0.000000 
#    y 0.000000 2.000390 0.000000 
#    z 0.000000 0.000000 2.240470 
# 
# From -- ./inp_files/23152.got.cif
#   From: 2010.05.17/outbox.cif.g08.bks.cpg/sg20_12_cif.got.tgz:23152.got - 2010.06.03 22:52:26.
