data_PCOD9319661
_publ_section_title
;
Structure prediction by ZEFSAII (Michael W. Deem and Ramdas Pophale) SiO2 
 PCOD9319661
Probable space group: C 2 2 21
;
_chemical_formula_sum "Si O2"
_cell_formula_units_Z 36
_cell_length_a 11.224252
_cell_length_b 26.420554
_cell_length_c 5.057332
_cell_angle_alpha 90.000000
_cell_angle_beta 90.000000
_cell_angle_gamma 90.000000
_cell_volume 1499.756640
_symmetry_space_group_name_H-M "C 2 2 21"
_symmetry_group_IT_number 20
_symmetry_cell_setting 'orthorhombic'
loop_
_space_group_symop_operation_xyz
x,y,z
-x,-y,1/2+z
x,-y,-z
-x,y,1/2-z
1/2+x,1/2+y,z
1/2-x,1/2-y,1/2+z
1/2+x,1/2-y,-z
1/2-x,1/2+y,1/2-z
loop_
_atom_site_type_symbol
_atom_site_label
_atom_site_fract_x
_atom_site_fract_y
_atom_site_fract_z
Si Si1 0.848943 0.000000 0.000000
Si Si2 0.198316 0.390106 0.421525
Si Si3 0.000000 0.181484 0.750000
Si Si4 0.175558 0.500000 0.500000
Si Si5 0.760737 0.780451 0.506749
Si Si6 0.857959 0.895498 0.921265
O O1 0.919851 0.948653 0.986937
O O2 0.760562 0.000670 0.247678
O O3 0.121177 0.441910 0.481979
O O4 0.174081 0.329963 0.473594
O O5 0.243192 0.392968 0.119222
O O6 0.309674 0.394798 0.625027
O O7 0.890469 0.209755 0.618047
O O8 0.942597 0.147613 0.978901
O O9 0.720294 0.735644 0.309608
#
# Coordination Sequence:
#
# PCOD9319661 Si02
#       6
#     4   8   4   4   8   8
#     4   8  14  26  41  68  98 132 173 196 225 292
#     4   9  17  31  49  73 101 136 174 209 253 302
#     4  10  22  38  54  74 104 142 180 218 262 304
#     4   8  14  26  47  68  98 134 167 206 245 298
#     4  11  23  37  55  77 105 142 181 220 260 309
#     4   9  17  29  48  69 100 138 172 204 240 300
#
# _framework density 24.003896000000001
#
# number of rings (size 3 to 8) (size 9 to 14) (size 15 to 20)
#    0.000    2.667    0.000    2.667    0.000    8.000 
#    0.000   14.444    0.000    0.000    0.000    0.000 
#    0.000    3.556    0.000    4.000    0.000    0.222 
#
# Total GULP energy -100233.303342 kJ/mol
# GULP energy per Si atom -5568.516852 kJ/mol
# Density = 2.394926 g / cm^3
# Si number density = 24.003896 Si / 1000 Ang^3
#
#
#
# Elastic Constant Matrix: (Units=GPa)
#
#
# Indices 1 2 3 4 5 6 
#
# 1 5.6548 -2.3316 -2.4969 0.0000 0.0000 0.0000
# 2 -2.3316 140.7701 4.0476 0.0000 0.0000 0.0000
# 3 -2.4969 4.0476 120.9009 0.0000 0.0000 0.0000
# 4 0.0000 0.0000 0.0000 38.0765 0.0000 0.0000
# 5 0.0000 0.0000 0.0000 0.0000 21.6152 0.0000
# 6 0.0000 0.0000 0.0000 0.0000 0.0000 -12.5545
#
#
#
# Elastic Compliance Matrix: (Units=1/GPa)
#
#
# Indices 1 2 3 4 5 6 
#
# 1 0.179621 0.002871 0.003613 0.000000 0.000000 0.000000
# 2 0.002871 0.007157 -0.000180 0.000000 0.000000 0.000000
# 3 0.003613 -0.000180 0.008352 0.000000 0.000000 0.000000
# 4 0.000000 0.000000 0.000000 0.026263 0.000000 0.000000
# 5 0.000000 0.000000 0.000000 0.000000 0.046264 0.000000
# 6 0.000000 0.000000 0.000000 0.000000 0.000000 -0.079652
#
#
# Mechanical properties :
#
#
# Convention : Reuss Voigt Hill
#
# Bulk Modulus (GPa) = 4.81376 29.52935 17.17156
# Shear Modulus (GPa) = 20.43814 27.30119 23.86966
#
# Velocity S-wave (km/s) = 2.92113 3.37614 3.15684
# Velocity P-wave (km/s) = 3.65884 5.24656 4.52291
#
# Compressibility (1/GPa) = 0.20773769
#
# Stress axis : x y z
#
# Youngs Moduli (GPa) = 5.56729 139.73269 119.73325
#
# Poissons Ratio (x) = -0.40119 -0.43265
# Poissons Ratio (y) = -0.01598 0.02159
# Poissons Ratio (z) = -0.02012 0.02519
#
# Static dielectric constant tensor:
#      x y z
#    x 1.899670 0.000000 0.000000 
#    y 0.000000 2.157970 0.000000 
#    z 0.000000 0.000000 1.889850 
# 
# From -- ./inp_files/1905.got.cif
#   From: 2010.05.17/outbox.cif.g08.bks.cpg/sg20_1_cif.got.tgz:1905.got - 2010.06.03 22:52:26.
