data_PCOD9319471
_publ_section_title
;
Structure prediction by ZEFSAII (Michael W. Deem and Ramdas Pophale) SiO2 
 PCOD9319471
Probable space group: C 2 2 21
;
_chemical_formula_sum "Si O2"
_cell_formula_units_Z 60
_cell_length_a 11.338017
_cell_length_b 20.043649
_cell_length_c 12.411457
_cell_angle_alpha 90.000000
_cell_angle_beta 90.000000
_cell_angle_gamma 90.000000
_cell_volume 2820.568554
_symmetry_space_group_name_H-M "C 2 2 21"
_symmetry_group_IT_number 20
_symmetry_cell_setting 'orthorhombic'
loop_
_space_group_symop_operation_xyz
x,y,z
-x,-y,1/2+z
x,-y,-z
-x,y,1/2-z
1/2+x,1/2+y,z
1/2-x,1/2-y,1/2+z
1/2+x,1/2-y,-z
1/2-x,1/2+y,1/2-z
loop_
_atom_site_type_symbol
_atom_site_label
_atom_site_fract_x
_atom_site_fract_y
_atom_site_fract_z
Si Si1 0.107097 0.078602 0.009534
Si Si2 0.138698 0.881131 0.220386
Si Si3 0.613318 0.084618 0.826021
Si Si4 0.667458 0.341577 0.788758
Si Si5 0.139939 0.868779 0.552444
Si Si6 0.615450 0.772351 0.808783
Si Si7 0.704280 0.000000 0.000000
Si Si8 0.659259 0.216131 0.949678
O O1 0.160924 0.098805 0.125059
O O2 0.982087 0.115152 0.995880
O O3 0.172674 0.102673 0.903077
O O4 0.090303 0.000000 0.000000
O O5 0.249838 0.911834 0.283849
O O6 0.147050 0.801417 0.233444
O O7 0.000000 0.900425 0.250000
O O8 0.500000 0.080455 0.750000
O O9 0.600540 0.152645 0.894004
O O10 0.620203 0.022236 0.904101
O O11 0.598552 0.354054 0.676161
O O12 0.789652 0.326198 0.727670
O O13 0.651178 0.276655 0.865388
O O14 0.217436 0.936483 0.538918
O O15 0.211518 0.809385 0.492965
O O16 0.500000 0.793863 0.750000
O O17 0.599603 0.766816 0.936627
#
# Coordination Sequence:
#
# PCOD9319471 Si02
#       8
#     8   8   8   8   8   8   4   8
#     4  12  26  41  66 108 141 182 233 305 354 421
#     4  11  23  42  70 102 138 184 230 288 356 423
#     4  11  25  45  71 100 135 188 234 290 355 424
#     4  11  23  40  65 103 139 172 234 287 353 418
#     4  10  23  43  71  95 140 188 232 288 361 432
#     4  10  22  42  68  98 137 180 227 287 357 424
#     4  10  22  48  70  92 134 192 238 274 356 436
#     4  10  21  43  65 101 136 178 228 289 351 418
#
# _framework density 21.272306
#
# number of rings (size 3 to 8) (size 9 to 14) (size 15 to 20)
#    0.000    1.333    3.333    2.000    3.733    2.133 
#    1.200    6.000    0.000    0.000    0.000    0.000 
#    0.000    0.000    0.000    0.000    0.000    0.000 
#
# Total GULP energy -167239.540283 kJ/mol
# GULP energy per Si atom -5574.651343 kJ/mol
# Density = 2.122389 g / cm^3
# Si number density = 21.272306 Si / 1000 Ang^3
#
#
#
# Elastic Constant Matrix: (Units=GPa)
#
#
# Indices 1 2 3 4 5 6 
#
# 1 65.2016 20.7238 34.3280 0.0000 0.0000 0.0000
# 2 20.7238 56.6260 28.4529 0.0000 0.0000 0.0000
# 3 34.3280 28.4529 157.4248 0.0000 0.0000 0.0000
# 4 0.0000 0.0000 0.0000 50.5350 0.0000 0.0000
# 5 0.0000 0.0000 0.0000 0.0000 38.4261 0.0000
# 6 0.0000 0.0000 0.0000 0.0000 0.0000 3.9367
#
#
#
# Elastic Compliance Matrix: (Units=1/GPa)
#
#
# Indices 1 2 3 4 5 6 
#
# 1 0.018649 -0.005260 -0.003116 0.000000 0.000000 0.000000
# 2 -0.005260 0.020907 -0.002632 0.000000 0.000000 0.000000
# 3 -0.003116 -0.002632 0.007507 0.000000 0.000000 0.000000
# 4 0.000000 0.000000 0.000000 0.019788 0.000000 0.000000
# 5 0.000000 0.000000 0.000000 0.000000 0.026024 0.000000
# 6 0.000000 0.000000 0.000000 0.000000 0.000000 0.254018
#
#
# Mechanical properties :
#
#
# Convention : Reuss Voigt Hill
#
# Bulk Modulus (GPa) = 39.92184 49.58463 44.75324
# Shear Modulus (GPa) = 13.25350 31.62942 22.44146
#
# Velocity S-wave (km/s) = 2.49879 3.86019 3.25154
# Velocity P-wave (km/s) = 5.20894 6.57482 5.93133
#
# Compressibility (1/GPa) = 0.02504894
#
# Stress axis : x y z
#
# Youngs Moduli (GPa) = 53.62124 47.83082 133.20190
#
# Poissons Ratio (x) = 0.25157 0.41507
# Poissons Ratio (y) = 0.28202 0.35057
# Poissons Ratio (z) = 0.16709 0.12588
#
# Static dielectric constant tensor:
#      x y z
#    x 1.685920 0.000000 0.000000 
#    y 0.000000 1.761840 0.000000 
#    z 0.000000 0.000000 2.459520 
# 
# From -- ./inp_files/14380.got.cif
#   From: 2010.05.17/outbox.cif.g08.bks.cpg/sg20_8_cif.got.tgz:14380.got - 2010.06.03 22:52:26.
