data_PCOD9319524
_publ_section_title
;
Structure prediction by ZEFSAII (Michael W. Deem and Ramdas Pophale) SiO2 
 PCOD9319524
Probable space group: C 2 2 21
;
_chemical_formula_sum "Si O2"
_cell_formula_units_Z 40
_cell_length_a 20.344557
_cell_length_b 10.394000
_cell_length_c 8.526998
_cell_angle_alpha 90.000000
_cell_angle_beta 90.000000
_cell_angle_gamma 90.000000
_cell_volume 1803.130299
_symmetry_space_group_name_H-M "C 2 2 21"
_symmetry_group_IT_number 20
_symmetry_cell_setting 'orthorhombic'
loop_
_space_group_symop_operation_xyz
x,y,z
-x,-y,1/2+z
x,-y,-z
-x,y,1/2-z
1/2+x,1/2+y,z
1/2-x,1/2-y,1/2+z
1/2+x,1/2-y,-z
1/2-x,1/2+y,1/2-z
loop_
_atom_site_type_symbol
_atom_site_label
_atom_site_fract_x
_atom_site_fract_y
_atom_site_fract_z
Si Si1 0.439905 0.891108 0.631883
Si Si2 0.313107 0.261745 0.827748
Si Si3 0.170762 0.718706 0.319782
Si Si4 0.560671 0.715796 0.143665
Si Si5 0.894294 0.007798 0.831101
O O1 0.500000 0.906780 0.750000
O O2 0.371844 0.885633 0.727306
O O3 0.449105 0.759242 0.532475
O O4 0.440418 0.000000 0.500000
O O5 0.241350 0.254735 0.756063
O O6 0.331396 0.412590 0.855237
O O7 0.319960 0.193197 0.995314
O O8 0.128732 0.277833 0.208800
O O9 0.128028 0.848755 0.304339
O O10 0.500000 0.761558 0.250000
O O11 0.570041 0.565791 0.189435
O O12 0.930336 0.000000 0.000000
#
# Coordination Sequence:
#
# PCOD9319524 Si02
#       5
#     8   8   8   8   8
#     4  12  28  46  69  98 139 194 253 307 367 438
#     4   9  21  39  67 105 144 184 232 289 364 443
#     4  11  21  43  69 101 142 190 236 299 363 434
#     4  10  21  44  70 101 141 177 231 301 359 441
#     4   8  20  40  67 102 136 171 225 288 368 432
#
# _framework density 22.183644000000001
#
# number of rings (size 3 to 8) (size 9 to 14) (size 15 to 20)
#    1.200    0.800    0.000    3.000    0.000    5.600 
#    0.000    2.000    0.000    0.000    0.000    0.000 
#    0.000    0.000    0.000    0.000    0.000    0.000 
#
# Total GULP energy -111592.937812 kJ/mol
# GULP energy per Si atom -5579.646891 kJ/mol
# Density = 2.213315 g / cm^3
# Si number density = 22.183644 Si / 1000 Ang^3
#
#
#
# Elastic Constant Matrix: (Units=GPa)
#
#
# Indices 1 2 3 4 5 6 
#
# 1 151.1944 8.0374 60.6010 0.0000 0.0000 0.0000
# 2 8.0374 54.1985 30.5779 0.0000 0.0000 0.0000
# 3 60.6010 30.5779 112.6907 0.0000 0.0000 0.0000
# 4 0.0000 0.0000 0.0000 45.6159 0.0000 0.0000
# 5 0.0000 0.0000 0.0000 0.0000 40.3969 0.0000
# 6 0.0000 0.0000 0.0000 0.0000 0.0000 9.5133
#
#
#
# Elastic Compliance Matrix: (Units=1/GPa)
#
#
# Indices 1 2 3 4 5 6 
#
# 1 0.008542 0.001564 -0.005018 0.000000 0.000000 0.000000
# 2 0.001564 0.022072 -0.006830 0.000000 0.000000 0.000000
# 3 -0.005018 -0.006830 0.013426 0.000000 0.000000 0.000000
# 4 0.000000 0.000000 0.000000 0.021922 0.000000 0.000000
# 5 0.000000 0.000000 0.000000 0.000000 0.024754 0.000000
# 6 0.000000 0.000000 0.000000 0.000000 0.000000 0.105116
#
#
# Mechanical properties :
#
#
# Convention : Reuss Voigt Hill
#
# Bulk Modulus (GPa) = 42.60417 57.39070 49.99743
# Shear Modulus (GPa) = 22.29896 33.69636 27.99766
#
# Velocity S-wave (km/s) = 3.17393 3.90163 3.55644
# Velocity P-wave (km/s) = 5.71652 6.79881 6.28102
#
# Compressibility (1/GPa) = 0.02347188
#
# Stress axis : x y z
#
# Youngs Moduli (GPa) = 117.06587 45.30558 74.48324
#
# Poissons Ratio (x) = -0.07088 0.37377
# Poissons Ratio (y) = -0.18314 0.50876
# Poissons Ratio (z) = 0.58746 0.30946
#
# Static dielectric constant tensor:
#      x y z
#    x 1.793370 0.000000 0.000000 
#    y 0.000000 1.861170 0.000000 
#    z 0.000000 0.000000 1.809550 
# 
# From -- ./inp_files/9980.got.cif
#   From: 2010.05.17/outbox.cif.g08.bks.cpg/sg20_5_cif.got.tgz:9980.got - 2010.06.03 22:52:26.
