data_PCOD9319993
_publ_section_title
;
Structure prediction by ZEFSAII (Michael W. Deem and Ramdas Pophale) SiO2 
 PCOD9319993
Probable space group: C 2 2 21
;
_chemical_formula_sum "Si O2"
_cell_formula_units_Z 56
_cell_length_a 14.916618
_cell_length_b 4.952544
_cell_length_c 31.586368
_cell_angle_alpha 90.000000
_cell_angle_beta 90.000000
_cell_angle_gamma 90.000000
_cell_volume 2333.449474
_symmetry_space_group_name_H-M "C 2 2 21"
_symmetry_group_IT_number 20
_symmetry_cell_setting 'orthorhombic'
loop_
_space_group_symop_operation_xyz
x,y,z
-x,-y,1/2+z
x,-y,-z
-x,y,1/2-z
1/2+x,1/2+y,z
1/2-x,1/2-y,1/2+z
1/2+x,1/2-y,-z
1/2-x,1/2+y,1/2-z
loop_
_atom_site_type_symbol
_atom_site_label
_atom_site_fract_x
_atom_site_fract_y
_atom_site_fract_z
Si Si1 0.898134 0.337440 0.115536
Si Si2 0.202840 0.068016 0.896512
Si Si3 0.755955 0.514872 0.721620
Si Si4 0.439698 0.001427 0.420156
Si Si5 0.423560 0.362300 0.168682
Si Si6 0.902953 0.814888 0.670248
Si Si7 0.701755 0.763626 0.027758
O O1 0.795581 0.283493 0.105736
O O2 0.912940 0.547034 0.155696
O O3 0.953810 0.484332 0.078869
O O4 0.930429 0.035925 0.125710
O O5 0.120059 0.228691 0.917366
O O6 0.171869 0.010906 0.849272
O O7 0.230823 0.809177 0.924627
O O8 0.760338 0.212962 0.738644
O O9 0.667740 0.554737 0.692341
O O10 0.849864 0.616471 0.701383
O O11 0.423770 0.856923 0.373548
O O12 0.399454 0.846357 0.459993
O O13 0.515642 0.496426 0.188259
O O14 0.708393 0.500000 0.000000
O O15 0.743748 0.000000 0.000000
#
# Coordination Sequence:
#
# PCOD9319993 Si02
#       7
#     8   8   8   8   8   8   8
#     4  11  23  38  70 104 126 160 234 277 327 384
#     4  11  21  40  73  96 128 175 217 282 324 393
#     4  12  27  44  67  97 140 182 224 279 354 412
#     4  10  22  41  70 100 125 177 223 276 332 399
#     4  11  23  43  66  97 131 170 219 285 327 402
#     4  10  23  41  69  97 127 172 229 276 335 392
#     4  11  23  41  66  92 136 176 212 260 335 402
#
# _framework density 23.998804
#
# number of rings (size 3 to 8) (size 9 to 14) (size 15 to 20)
#    0.000    1.143    4.286    1.714    4.000    0.571 
#    0.000    2.143    6.286    0.000    0.000    0.000 
#    0.000    0.000    0.000    0.000    0.000    0.000 
#
# Total GULP energy -155900.234792 kJ/mol
# GULP energy per Si atom -5567.865528 kJ/mol
# Density = 2.394418 g / cm^3
# Si number density = 23.998804 Si / 1000 Ang^3
#
#
#
# Elastic Constant Matrix: (Units=GPa)
#
#
# Indices 1 2 3 4 5 6 
#
# 1 72.7640 1.9912 -8.2512 0.0000 0.0000 0.0000
# 2 1.9912 105.7532 23.2508 0.0000 0.0000 0.0000
# 3 -8.2512 23.2508 30.7234 0.0000 0.0000 0.0000
# 4 0.0000 0.0000 0.0000 35.3512 0.0000 0.0000
# 5 0.0000 0.0000 0.0000 0.0000 12.7282 0.0000
# 6 0.0000 0.0000 0.0000 0.0000 0.0000 28.6996
#
#
#
# Elastic Compliance Matrix: (Units=1/GPa)
#
#
# Indices 1 2 3 4 5 6 
#
# 1 0.014331 -0.001339 0.004862 0.000000 0.000000 0.000000
# 2 -0.001339 0.011468 -0.009039 0.000000 0.000000 0.000000
# 3 0.004862 -0.009039 0.040695 0.000000 0.000000 0.000000
# 4 0.000000 0.000000 0.000000 0.028288 0.000000 0.000000
# 5 0.000000 0.000000 0.000000 0.000000 0.078566 0.000000
# 6 0.000000 0.000000 0.000000 0.000000 0.000000 0.034844
#
#
# Mechanical properties :
#
#
# Convention : Reuss Voigt Hill
#
# Bulk Modulus (GPa) = 18.03000 27.02470 22.52735
# Shear Modulus (GPa) = 21.03408 28.17244 24.60326
#
# Velocity S-wave (km/s) = 2.96372 3.42995 3.20533
# Velocity P-wave (km/s) = 4.38643 5.19340 4.80688
#
# Compressibility (1/GPa) = 0.05546313
#
# Stress axis : x y z
#
# Youngs Moduli (GPa) = 69.77868 87.19606 24.57332
#
# Poissons Ratio (x) = 0.11674 -0.11948
# Poissons Ratio (y) = 0.09342 0.22211
# Poissons Ratio (z) = -0.33926 0.78813
#
# Static dielectric constant tensor:
#      x y z
#    x 2.117950 0.000000 0.000000 
#    y 0.000000 1.998790 0.000000 
#    z 0.000000 0.000000 1.974020 
# 
# From -- ./inp_files/31300.got.cif
#   From: 2010.05.17/outbox.cif.g08.bks.cpg/sg20_16_cif.got.tgz:31300.got - 2010.06.03 22:52:26.
