data_PCOD9319056
_publ_section_title
;
Structure prediction by ZEFSAII (Michael W. Deem and Ramdas Pophale) SiO2 
 PCOD9319056
Probable space group: C 2 2 21
;
_chemical_formula_sum "Si O2"
_cell_formula_units_Z 60
_cell_length_a 8.568799
_cell_length_b 11.761109
_cell_length_c 29.982197
_cell_angle_alpha 90.000000
_cell_angle_beta 90.000000
_cell_angle_gamma 90.000000
_cell_volume 3021.563210
_symmetry_space_group_name_H-M "C 2 2 21"
_symmetry_group_IT_number 20
_symmetry_cell_setting 'orthorhombic'
loop_
_space_group_symop_operation_xyz
x,y,z
-x,-y,1/2+z
x,-y,-z
-x,y,1/2-z
1/2+x,1/2+y,z
1/2-x,1/2-y,1/2+z
1/2+x,1/2-y,-z
1/2-x,1/2+y,1/2-z
loop_
_atom_site_type_symbol
_atom_site_label
_atom_site_fract_x
_atom_site_fract_y
_atom_site_fract_z
Si Si1 0.924499 0.962380 0.668589
Si Si2 0.404198 0.794926 0.341593
Si Si3 0.119304 0.536062 0.714971
Si Si4 0.342808 0.662703 0.492967
Si Si5 0.162890 0.612268 0.938447
Si Si6 0.487603 0.530017 0.568967
Si Si7 0.132880 0.146223 0.720001
Si Si8 0.560726 0.000000 0.500000
O O1 0.748664 0.966254 0.687998
O O2 0.928075 0.015245 0.619123
O O3 0.041421 0.036870 0.699247
O O4 0.972013 0.830846 0.665544
O O5 0.513947 0.887382 0.317533
O O6 0.389739 0.827862 0.393085
O O7 0.229871 0.798197 0.320161
O O8 0.229973 0.614264 0.745761
O O9 0.000000 0.477880 0.750000
O O10 0.333698 0.790564 0.476491
O O11 0.409900 0.634341 0.541797
O O12 0.443173 0.583537 0.458967
O O13 0.171882 0.607605 0.492812
O O14 0.329201 0.553955 0.931490
O O15 0.042403 0.520262 0.956611
O O16 0.000000 0.206586 0.750000
#
# Coordination Sequence:
#
# PCOD9319056 Si02
#       8
#     8   8   8   8   8   8   8   4
#     4  11  21  41  65  90 123 164 200 254 307 369
#     4  11  23  37  65  93 124 158 206 250 303 361
#     4   9  22  40  61  91 123 157 203 255 302 366
#     4  10  23  42  60  88 123 162 201 256 304 355
#     4  12  22  40  63  91 123 165 205 252 301 361
#     4  10  21  39  63  88 125 159 203 246 307 365
#     4   9  20  41  63  87 122 157 199 250 307 364
#     4  10  24  38  62  86 122 162 204 248 302 360
#
# _framework density 19.857271999999998
#
# number of rings (size 3 to 8) (size 9 to 14) (size 15 to 20)
#    0.000    1.867    2.667    1.600    3.733    5.333 
#    0.000    5.333    0.000    0.000    0.000    0.000 
#    0.000    0.000    0.000    0.000    0.000    0.000 
#
# Total GULP energy -167348.138650 kJ/mol
# GULP energy per Si atom -5578.271288 kJ/mol
# Density = 1.981208 g / cm^3
# Si number density = 19.857272 Si / 1000 Ang^3
#
#
#
# Elastic Constant Matrix: (Units=GPa)
#
#
# Indices 1 2 3 4 5 6 
#
# 1 86.3830 21.0008 5.7439 0.0000 0.0000 0.0000
# 2 21.0008 37.8246 16.4821 0.0000 0.0000 0.0000
# 3 5.7439 16.4821 60.0752 0.0000 0.0000 0.0000
# 4 0.0000 0.0000 0.0000 2.0226 0.0000 0.0000
# 5 0.0000 0.0000 0.0000 0.0000 9.9030 0.0000
# 6 0.0000 0.0000 0.0000 0.0000 0.0000 -5.2316
#
#
#
# Elastic Compliance Matrix: (Units=1/GPa)
#
#
# Indices 1 2 3 4 5 6 
#
# 1 0.013422 -0.007829 0.000865 0.000000 0.000000 0.000000
# 2 -0.007829 0.034594 -0.008743 0.000000 0.000000 0.000000
# 3 0.000865 -0.008743 0.018962 0.000000 0.000000 0.000000
# 4 0.000000 0.000000 0.000000 0.494403 0.000000 0.000000
# 5 0.000000 0.000000 0.000000 0.000000 0.100980 0.000000
# 6 0.000000 0.000000 0.000000 0.000000 0.000000 -0.191147
#
#
# Mechanical properties :
#
#
# Convention : Reuss Voigt Hill
#
# Bulk Modulus (GPa) = 28.11823 30.08185 29.10004
# Shear Modulus (GPa) = 9.71851 10.74254 10.23053
#
# Velocity S-wave (km/s) = 2.21468 2.32844 2.27227
# Velocity P-wave (km/s) = 4.55309 4.73400 4.64443
#
# Compressibility (1/GPa) = 0.03556411
#
# Stress axis : x y z
#
# Youngs Moduli (GPa) = 74.50355 28.90658 52.73774
#
# Poissons Ratio (x) = 0.22631 -0.04560
# Poissons Ratio (y) = 0.58329 0.46107
# Poissons Ratio (z) = -0.06442 0.25272
#
# Static dielectric constant tensor:
#      x y z
#    x 1.701400 0.000000 0.000000 
#    y 0.000000 1.676990 0.000000 
#    z 0.000000 0.000000 1.697150 
# 
# From -- ./inp_files/31052.got.cif
#   From: 2010.05.17/outbox.cif.g08.bks.cpg/sg20_16_cif.got.tgz:31052.got - 2010.06.03 22:52:26.
