data_PCOD9319687
_publ_section_title
;
Structure prediction by ZEFSAII (Michael W. Deem and Ramdas Pophale) SiO2 
 PCOD9319687
Probable space group: C 2 2 21
;
_chemical_formula_sum "Si O2"
_cell_formula_units_Z 52
_cell_length_a 13.891715
_cell_length_b 15.138621
_cell_length_c 9.425688
_cell_angle_alpha 90.000000
_cell_angle_beta 90.000000
_cell_angle_gamma 90.000000
_cell_volume 1982.235462
_symmetry_space_group_name_H-M "C 2 2 21"
_symmetry_group_IT_number 20
_symmetry_cell_setting 'orthorhombic'
loop_
_space_group_symop_operation_xyz
x,y,z
-x,-y,1/2+z
x,-y,-z
-x,y,1/2-z
1/2+x,1/2+y,z
1/2-x,1/2-y,1/2+z
1/2+x,1/2-y,-z
1/2-x,1/2+y,1/2-z
loop_
_atom_site_type_symbol
_atom_site_label
_atom_site_fract_x
_atom_site_fract_y
_atom_site_fract_z
Si Si1 0.450182 0.649730 0.586887
Si Si2 0.000000 0.476541 0.750000
Si Si3 0.689745 0.082211 0.107559
Si Si4 0.384536 0.750675 0.855429
Si Si5 0.334004 0.240675 0.614130
Si Si6 0.612938 0.132787 0.631355
Si Si7 0.701555 0.521616 0.838199
O O1 0.419931 0.728677 0.695716
O O2 0.564375 0.663630 0.571082
O O3 0.390629 0.675911 0.448966
O O4 0.405905 0.561608 0.654798
O O5 0.911931 0.420203 0.691083
O O6 0.952493 0.546223 0.858460
O O7 0.771020 0.051685 0.221880
O O8 0.692434 0.167623 0.007192
O O9 0.686055 0.000000 0.000000
O O10 0.271673 0.765044 0.833593
O O11 0.404327 0.823249 0.978633
O O12 0.398838 0.199724 0.737719
O O13 0.720961 0.100964 0.675746
O O14 0.724027 0.500000 0.000000
#
# Coordination Sequence:
#
# PCOD9319687 Si02
#       7
#     8   4   8   8   8   8   8
#     4  11  25  44  67 102 134 177 235 284 340 414
#     4  10  22  38  62 100 140 172 224 274 360 416
#     4  11  23  42  66  97 138 185 223 285 347 419
#     4  11  23  42  72  98 133 178 231 286 342 404
#     4  12  22  44  71  98 142 181 229 282 353 416
#     4  11  22  43  65  98 135 177 217 290 339 422
#     4  11  24  44  65  95 140 181 227 284 343 405
#
# _framework density 26.233008999999999
#
# number of rings (size 3 to 8) (size 9 to 14) (size 15 to 20)
#    0.000    0.923    6.154    0.923    2.154    4.923 
#    0.000    3.846    0.000    0.000    0.000    0.000 
#    0.000    0.000    0.000    0.000    0.000    0.000 
#
# Total GULP energy -145107.767157 kJ/mol
# GULP energy per Si atom -5581.067968 kJ/mol
# Density = 2.617330 g / cm^3
# Si number density = 26.233009 Si / 1000 Ang^3
#
#
#
# Elastic Constant Matrix: (Units=GPa)
#
#
# Indices 1 2 3 4 5 6 
#
# 1 90.0895 -12.6598 -12.5487 0.0000 0.0000 0.0000
# 2 -12.6598 57.8524 20.1039 0.0000 0.0000 0.0000
# 3 -12.5487 20.1039 126.2157 0.0000 0.0000 0.0000
# 4 0.0000 0.0000 0.0000 30.9956 0.0000 0.0000
# 5 0.0000 0.0000 0.0000 0.0000 28.1628 0.0000
# 6 0.0000 0.0000 0.0000 0.0000 0.0000 2.8043
#
#
#
# Elastic Compliance Matrix: (Units=1/GPa)
#
#
# Indices 1 2 3 4 5 6 
#
# 1 0.011526 0.002248 0.000788 0.000000 0.000000 0.000000
# 2 0.002248 0.018737 -0.002761 0.000000 0.000000 0.000000
# 3 0.000788 -0.002761 0.008441 0.000000 0.000000 0.000000
# 4 0.000000 0.000000 0.000000 0.032263 0.000000 0.000000
# 5 0.000000 0.000000 0.000000 0.000000 0.035508 0.000000
# 6 0.000000 0.000000 0.000000 0.000000 0.000000 0.356593
#
#
# Mechanical properties :
#
#
# Convention : Reuss Voigt Hill
#
# Bulk Modulus (GPa) = 25.47500 29.32762 27.40131
# Shear Modulus (GPa) = 10.51300 31.01003 20.76152
#
# Velocity S-wave (km/s) = 2.00406 3.44190 2.81628
# Velocity P-wave (km/s) = 3.88421 5.19610 4.58730
#
# Compressibility (1/GPa) = 0.03925417
#
# Stress axis : x y z
#
# Youngs Moduli (GPa) = 86.76216 53.37093 118.46893
#
# Poissons Ratio (x) = -0.12000 -0.09333
# Poissons Ratio (y) = -0.19508 0.32708
# Poissons Ratio (z) = -0.06835 0.14735
#
# Static dielectric constant tensor:
#      x y z
#    x 2.193640 0.000000 0.000000 
#    y 0.000000 2.091720 0.000000 
#    z 0.000000 0.000000 2.113070 
# 
# From -- ./inp_files/9524.got.cif
#   From: 2010.05.17/outbox.cif.g08.bks.cpg/sg20_5_cif.got.tgz:9524.got - 2010.06.03 22:52:26.
