data_PCOD9319361
_publ_section_title
;
Structure prediction by ZEFSAII (Michael W. Deem and Ramdas Pophale) SiO2 
 PCOD9319361
Probable space group: C 2 2 21
;
_chemical_formula_sum "Si O2"
_cell_formula_units_Z 28
_cell_length_a 8.622503
_cell_length_b 11.189609
_cell_length_c 12.269994
_cell_angle_alpha 90.000000
_cell_angle_beta 90.000000
_cell_angle_gamma 90.000000
_cell_volume 1183.838925
_symmetry_space_group_name_H-M "C 2 2 21"
_symmetry_group_IT_number 20
_symmetry_cell_setting 'orthorhombic'
loop_
_space_group_symop_operation_xyz
x,y,z
-x,-y,1/2+z
x,-y,-z
-x,y,1/2-z
1/2+x,1/2+y,z
1/2-x,1/2-y,1/2+z
1/2+x,1/2-y,-z
1/2-x,1/2+y,1/2-z
loop_
_atom_site_type_symbol
_atom_site_label
_atom_site_fract_x
_atom_site_fract_y
_atom_site_fract_z
Si Si1 0.988313 0.500000 0.500000
Si Si2 0.892972 0.199520 0.654243
Si Si3 0.339509 0.119608 0.692076
Si Si4 0.337763 0.749607 0.980603
O O1 0.881331 0.518271 0.605471
O O2 0.092488 0.617579 0.486567
O O3 0.796598 0.099131 0.720303
O O4 0.756408 0.270257 0.591887
O O5 0.000000 0.257639 0.750000
O O6 0.016859 0.168819 0.559570
O O7 0.500000 0.147269 0.750000
O O8 0.283783 0.229041 0.616735
#
# Coordination Sequence:
#
# PCOD9319361 Si02
#       4
#     4   8   8   8
#     4  12  24  42  78 102 144 192 250 304 378 442
#     4  10  21  41  72 100 150 189 236 308 363 432
#     4  11  23  44  72 104 147 194 246 305 373 441
#     4  11  22  45  73 105 144 193 242 306 372 439
#
# _framework density 23.651865999999998
#
# number of rings (size 3 to 8) (size 9 to 14) (size 15 to 20)
#    0.000    1.143    5.714    0.000    0.000    3.429 
#    0.000    7.143    0.000    0.000    0.000    0.000 
#    0.000    0.000    0.000    0.000    0.000    0.000 
#
# Total GULP energy -77968.404699 kJ/mol
# GULP energy per Si atom -5569.171764 kJ/mol
# Density = 2.359803 g / cm^3
# Si number density = 23.651866 Si / 1000 Ang^3
#
#
#
# Elastic Constant Matrix: (Units=GPa)
#
#
# Indices 1 2 3 4 5 6 
#
# 1 169.0064 55.3361 100.1965 0.0000 0.0000 0.0000
# 2 55.3361 78.4850 35.6291 0.0000 0.0000 0.0000
# 3 100.1965 35.6291 132.8086 0.0000 0.0000 0.0000
# 4 0.0000 0.0000 0.0000 32.3375 0.0000 0.0000
# 5 0.0000 0.0000 0.0000 0.0000 107.5784 0.0000
# 6 0.0000 0.0000 0.0000 0.0000 0.0000 47.9816
#
#
#
# Elastic Compliance Matrix: (Units=1/GPa)
#
#
# Indices 1 2 3 4 5 6 
#
# 1 0.012245 -0.005055 -0.007882 0.000000 0.000000 0.000000
# 2 -0.005055 0.016595 -0.000638 0.000000 0.000000 0.000000
# 3 -0.007882 -0.000638 0.013647 0.000000 0.000000 0.000000
# 4 0.000000 0.000000 0.000000 0.030924 0.000000 0.000000
# 5 0.000000 0.000000 0.000000 0.000000 0.009296 0.000000
# 6 0.000000 0.000000 0.000000 0.000000 0.000000 0.020841
#
#
# Mechanical properties :
#
#
# Convention : Reuss Voigt Hill
#
# Bulk Modulus (GPa) = 65.20277 84.73595 74.96936
# Shear Modulus (GPa) = 36.81578 50.18872 43.50225
#
# Velocity S-wave (km/s) = 3.94962 4.61149 4.29333
# Velocity P-wave (km/s) = 6.95894 8.01614 7.50618
#
# Compressibility (1/GPa) = 0.01533677
#
# Stress axis : x y z
#
# Youngs Moduli (GPa) = 81.66591 60.25834 73.27444
#
# Poissons Ratio (x) = 0.30462 0.57755
# Poissons Ratio (y) = 0.41284 0.04676
# Poissons Ratio (z) = 0.64369 0.03845
#
# Static dielectric constant tensor:
#      x y z
#    x 1.962040 0.000000 0.000000 
#    y 0.000000 1.848950 0.000000 
#    z 0.000000 0.000000 1.915840 
# 
# From -- ./inp_files/12415.got.cif
#   From: 2010.05.17/outbox.cif.g08.bks.cpg/sg20_7_cif.got.tgz:12415.got - 2010.06.03 22:52:26.
