data_PCOD9319165
_publ_section_title
;
Structure prediction by ZEFSAII (Michael W. Deem and Ramdas Pophale) SiO2 
 PCOD9319165
Probable space group: C 2 2 21
;
_chemical_formula_sum "Si O2"
_cell_formula_units_Z 32
_cell_length_a 8.998599
_cell_length_b 15.135040
_cell_length_c 8.816487
_cell_angle_alpha 90.000000
_cell_angle_beta 90.000000
_cell_angle_gamma 90.000000
_cell_volume 1200.754004
_symmetry_space_group_name_H-M "C 2 2 21"
_symmetry_group_IT_number 20
_symmetry_cell_setting 'orthorhombic'
loop_
_space_group_symop_operation_xyz
x,y,z
-x,-y,1/2+z
x,-y,-z
-x,y,1/2-z
1/2+x,1/2+y,z
1/2-x,1/2-y,1/2+z
1/2+x,1/2-y,-z
1/2-x,1/2+y,1/2-z
loop_
_atom_site_type_symbol
_atom_site_label
_atom_site_fract_x
_atom_site_fract_y
_atom_site_fract_z
Si Si1 0.039807 0.000000 0.000000
Si Si2 0.772436 0.238183 0.217348
Si Si3 0.550211 0.000000 0.000000
Si Si4 0.959398 0.696957 0.525236
Si Si5 0.201798 0.041489 0.267611
O O1 0.148824 0.025509 0.862588
O O2 0.922869 0.946241 0.898579
O O3 0.824597 0.303487 0.350639
O O4 0.777756 0.140483 0.292287
O O5 0.905599 0.249082 0.095720
O O6 0.618455 0.237780 0.124005
O O7 0.481465 0.903007 0.005173
O O8 0.653624 0.008297 0.148441
#
# Coordination Sequence:
#
# PCOD9319165 Si02
#       5
#     4   8   4   8   8
#     4   9  14  26  50  77 114 149 192 241 288 337
#     4  10  22  40  62  87 121 159 202 247 298 357
#     4   9  20  36  54  81 120 155 196 247 298 349
#     4  10  21  40  62  88 121 160 200 248 298 356
#     4   9  18  31  52  85 117 152 196 246 293 349
#
# _framework density 26.649923000000001
#
# number of rings (size 3 to 8) (size 9 to 14) (size 15 to 20)
#    0.000    2.500    0.000    3.000    0.000    5.000 
#    0.000   15.000    0.000    7.500    0.000    0.000 
#    0.000    0.000    0.000    0.000    0.000    0.000 
#
# Total GULP energy -89283.803629 kJ/mol
# GULP energy per Si atom -5580.237727 kJ/mol
# Density = 2.658927 g / cm^3
# Si number density = 26.649923 Si / 1000 Ang^3
#
#
#
# Elastic Constant Matrix: (Units=GPa)
#
#
# Indices 1 2 3 4 5 6 
#
# 1 96.8964 29.1901 69.1031 0.0000 0.0000 0.0000
# 2 29.1901 124.4344 42.3371 0.0000 0.0000 0.0000
# 3 69.1031 42.3371 118.9486 0.0000 0.0000 0.0000
# 4 0.0000 0.0000 0.0000 25.2785 0.0000 0.0000
# 5 0.0000 0.0000 0.0000 0.0000 70.5404 0.0000
# 6 0.0000 0.0000 0.0000 0.0000 0.0000 57.0401
#
#
#
# Elastic Compliance Matrix: (Units=1/GPa)
#
#
# Indices 1 2 3 4 5 6 
#
# 1 0.017681 -0.000743 -0.010007 0.000000 0.000000 0.000000
# 2 -0.000743 0.009175 -0.002834 0.000000 0.000000 0.000000
# 3 -0.010007 -0.002834 0.015229 0.000000 0.000000 0.000000
# 4 0.000000 0.000000 0.000000 0.039559 0.000000 0.000000
# 5 0.000000 0.000000 0.000000 0.000000 0.014176 0.000000
# 6 0.000000 0.000000 0.000000 0.000000 0.000000 0.017532
#
#
# Mechanical properties :
#
#
# Convention : Reuss Voigt Hill
#
# Bulk Modulus (GPa) = 67.03813 69.06001 68.04907
# Shear Modulus (GPa) = 34.36590 43.88174 39.12382
#
# Velocity S-wave (km/s) = 3.59490 4.06223 3.83569
# Velocity P-wave (km/s) = 6.51466 6.92621 6.72358
#
# Compressibility (1/GPa) = 0.01491688
#
# Stress axis : x y z
#
# Youngs Moduli (GPa) = 56.55811 108.99344 65.66218
#
# Poissons Ratio (x) = 0.08096 0.65710
# Poissons Ratio (y) = 0.04201 0.18609
# Poissons Ratio (z) = 0.56600 0.30890
#
# Static dielectric constant tensor:
#      x y z
#    x 2.141870 0.000000 0.000000 
#    y 0.000000 2.016100 0.000000 
#    z 0.000000 0.000000 1.862860 
# 
# From -- ./inp_files/6854.got.cif
#   From: 2010.05.17/outbox.cif.g08.bks.cpg/sg20_4_cif.got.tgz:6854.got - 2010.06.03 22:52:26.
