data_PCOD9319958
_publ_section_title
;
Structure prediction by ZEFSAII (Michael W. Deem and Ramdas Pophale) SiO2 
 PCOD9319958
Probable space group: C 2 2 21
;
_chemical_formula_sum "Si O2"
_cell_formula_units_Z 56
_cell_length_a 34.456029
_cell_length_b 5.018324
_cell_length_c 14.948159
_cell_angle_alpha 90.000000
_cell_angle_beta 90.000000
_cell_angle_gamma 90.000000
_cell_volume 2584.708853
_symmetry_space_group_name_H-M "C 2 2 21"
_symmetry_group_IT_number 20
_symmetry_cell_setting 'orthorhombic'
loop_
_space_group_symop_operation_xyz
x,y,z
-x,-y,1/2+z
x,-y,-z
-x,y,1/2-z
1/2+x,1/2+y,z
1/2-x,1/2-y,1/2+z
1/2+x,1/2-y,-z
1/2-x,1/2+y,1/2-z
loop_
_atom_site_type_symbol
_atom_site_label
_atom_site_fract_x
_atom_site_fract_y
_atom_site_fract_z
Si Si1 0.390429 0.012480 0.391696
Si Si2 0.105615 0.093629 0.604157
Si Si3 0.859514 0.028359 0.292762
Si Si4 0.476465 0.149989 0.594665
Si Si5 0.816934 0.736496 0.060237
Si Si6 0.725076 0.595058 0.736007
Si Si7 0.016493 0.153417 0.655312
O O1 0.361906 0.806704 0.343906
O O2 0.433129 0.894212 0.369325
O O3 0.386142 0.000000 0.500000
O O4 0.383887 0.303220 0.347697
O O5 0.124924 0.939799 0.689977
O O6 0.138851 0.321518 0.593876
O O7 0.062026 0.138994 0.637048
O O8 0.100908 0.000000 0.500000
O O9 0.814920 0.936997 0.289756
O O10 0.492321 0.448397 0.593359
O O11 0.475861 0.000000 0.500000
O O12 0.505833 0.962347 0.647630
O O13 0.788842 0.791384 0.141364
O O14 0.802608 0.500000 0.000000
O O15 0.819728 0.000000 0.000000
O O16 0.745429 0.310413 0.724511
O O17 0.000000 0.061030 0.750000
#
# Coordination Sequence:
#
# PCOD9319958 Si02
#       7
#     8   8   8   8   8   8   8
#     4  11  23  43  67  92 128 174 220 267 323 387
#     4  10  23  40  65  95 131 175 224 275 329 392
#     4  11  24  43  67  96 129 167 219 271 323 394
#     4  11  23  39  59  84 120 165 210 259 317 372
#     4  10  22  41  65  95 129 172 219 265 321 394
#     4  11  23  43  68  96 131 168 205 260 334 398
#     4  12  24  39  59  90 128 167 217 273 327 379
#
# _framework density 21.665880999999999
#
# number of rings (size 3 to 8) (size 9 to 14) (size 15 to 20)
#    0.000    1.143    0.000    6.429    0.000   12.000 
#    0.000    7.143    0.000    0.000    0.000    0.000 
#    0.000    0.000    0.000    0.000    0.000    0.000 
#
# Total GULP energy -156229.037113 kJ/mol
# GULP energy per Si atom -5579.608468 kJ/mol
# Density = 2.161657 g / cm^3
# Si number density = 21.665881 Si / 1000 Ang^3
#
#
#
# Elastic Constant Matrix: (Units=GPa)
#
#
# Indices 1 2 3 4 5 6 
#
# 1 99.1105 0.3913 24.2620 0.0000 0.0000 0.0000
# 2 0.3913 85.3560 18.2795 0.0000 0.0000 0.0000
# 3 24.2620 18.2795 106.7884 0.0000 0.0000 0.0000
# 4 0.0000 0.0000 0.0000 35.1335 0.0000 0.0000
# 5 0.0000 0.0000 0.0000 0.0000 21.4477 0.0000
# 6 0.0000 0.0000 0.0000 0.0000 0.0000 5.3296
#
#
#
# Elastic Compliance Matrix: (Units=1/GPa)
#
#
# Indices 1 2 3 4 5 6 
#
# 1 0.010704 0.000490 -0.002516 0.000000 0.000000 0.000000
# 2 0.000490 0.012184 -0.002197 0.000000 0.000000 0.000000
# 3 -0.002516 -0.002197 0.010312 0.000000 0.000000 0.000000
# 4 0.000000 0.000000 0.000000 0.028463 0.000000 0.000000
# 5 0.000000 0.000000 0.000000 0.000000 0.046625 0.000000
# 6 0.000000 0.000000 0.000000 0.000000 0.000000 0.187630
#
#
# Mechanical properties :
#
#
# Convention : Reuss Voigt Hill
#
# Bulk Modulus (GPa) = 40.39786 41.90229 41.15007
# Shear Modulus (GPa) = 15.99416 28.93699 22.46558
#
# Velocity S-wave (km/s) = 2.71997 3.65855 3.22360
# Velocity P-wave (km/s) = 5.34328 6.10155 5.73496
#
# Compressibility (1/GPa) = 0.02475379
#
# Stress axis : x y z
#
# Youngs Moduli (GPa) = 93.42619 82.07581 96.97535
#
# Poissons Ratio (x) = -0.04019 0.24396
# Poissons Ratio (y) = -0.04575 0.21304
# Poissons Ratio (z) = 0.23503 0.18031
#
# Static dielectric constant tensor:
#      x y z
#    x 1.793990 0.000000 0.000000 
#    y 0.000000 1.773580 0.000000 
#    z 0.000000 0.000000 1.846010 
# 
# From -- ./inp_files/22272.got.cif
#   From: 2010.05.17/outbox.cif.g08.bks.cpg/sg20_12_cif.got.tgz:22272.got - 2010.06.03 22:52:26.
