data_PCOD9319426
_publ_section_title
;
Structure prediction by ZEFSAII (Michael W. Deem and Ramdas Pophale) SiO2 
 PCOD9319426
Probable space group: C 2 2 21
;
_chemical_formula_sum "Si O2"
_cell_formula_units_Z 64
_cell_length_a 12.079357
_cell_length_b 7.108933
_cell_length_c 31.562209
_cell_angle_alpha 90.000000
_cell_angle_beta 90.000000
_cell_angle_gamma 90.000000
_cell_volume 2710.289167
_symmetry_space_group_name_H-M "C 2 2 21"
_symmetry_group_IT_number 20
_symmetry_cell_setting 'orthorhombic'
loop_
_space_group_symop_operation_xyz
x,y,z
-x,-y,1/2+z
x,-y,-z
-x,y,1/2-z
1/2+x,1/2+y,z
1/2-x,1/2-y,1/2+z
1/2+x,1/2-y,-z
1/2-x,1/2+y,1/2-z
loop_
_atom_site_type_symbol
_atom_site_label
_atom_site_fract_x
_atom_site_fract_y
_atom_site_fract_z
Si Si1 0.499585 0.315119 0.050654
Si Si2 0.624054 0.743922 0.862556
Si Si3 0.731323 0.579983 0.548389
Si Si4 0.534019 0.233208 0.959061
Si Si5 0.975208 0.626432 0.675995
Si Si6 0.863956 0.250414 0.106215
Si Si7 0.851720 0.529810 0.751610
Si Si8 0.104305 0.899377 0.225038
O O1 0.561853 0.272889 0.093319
O O2 0.369227 0.274500 0.050893
O O3 0.518599 0.540431 0.045042
O O4 0.542575 0.207219 0.009528
O O5 0.588599 0.954398 0.847516
O O6 0.752735 0.685044 0.869770
O O7 0.584491 0.605527 0.825159
O O8 0.728871 0.500000 0.500000
O O9 0.849926 0.663861 0.558925
O O10 0.691554 0.429899 0.583237
O O11 0.428423 0.152798 0.933560
O O12 0.886530 0.672499 0.713357
O O13 0.035808 0.755057 0.640521
O O14 0.079073 0.568549 0.705935
O O15 0.885333 0.322402 0.736612
O O16 0.722491 0.528130 0.760229
O O17 0.000000 0.978940 0.250000
#
# Coordination Sequence:
#
# PCOD9319426 Si02
#       8
#     8   8   8   8   8   8   8   8
#     4  10  22  42  64  95 138 175 233 287 336 413
#     4  11  22  40  69  96 134 175 228 291 335 414
#     4  11  21  43  66  91 139 184 224 289 343 407
#     4  10  22  42  64  93 134 183 224 282 344 401
#     4  10  21  42  67  98 133 182 225 281 348 414
#     4  11  21  39  65  96 133 173 232 275 331 415
#     4  10  21  45  71  93 144 177 222 287 348 417
#     4  11  22  47  69  99 138 181 225 284 353 411
#
# _framework density 23.613714999999999
#
# number of rings (size 3 to 8) (size 9 to 14) (size 15 to 20)
#    0.000    1.500    6.250    1.500    0.000    1.000 
#   18.000    0.000    0.000    0.000    0.000    0.000 
#    0.000    0.000    0.000    0.000    0.000    0.000 
#
# Total GULP energy -178447.181456 kJ/mol
# GULP energy per Si atom -5576.474421 kJ/mol
# Density = 2.355997 g / cm^3
# Si number density = 23.613715 Si / 1000 Ang^3
#
#
#
# Elastic Constant Matrix: (Units=GPa)
#
#
# Indices 1 2 3 4 5 6 
#
# 1 216.2331 38.9151 75.8390 0.0000 0.0000 0.0000
# 2 38.9151 45.8079 37.3005 0.0000 0.0000 0.0000
# 3 75.8390 37.3005 168.4845 0.0000 0.0000 0.0000
# 4 0.0000 0.0000 0.0000 29.8358 0.0000 0.0000
# 5 0.0000 0.0000 0.0000 0.0000 45.9646 0.0000
# 6 0.0000 0.0000 0.0000 0.0000 0.0000 22.7836
#
#
#
# Elastic Compliance Matrix: (Units=1/GPa)
#
#
# Indices 1 2 3 4 5 6 
#
# 1 0.005915 -0.003485 -0.001891 0.000000 0.000000 0.000000
# 2 -0.003485 0.028685 -0.004782 0.000000 0.000000 0.000000
# 3 -0.001891 -0.004782 0.007845 0.000000 0.000000 0.000000
# 4 0.000000 0.000000 0.000000 0.033517 0.000000 0.000000
# 5 0.000000 0.000000 0.000000 0.000000 0.021756 0.000000
# 6 0.000000 0.000000 0.000000 0.000000 0.000000 0.043891
#
#
# Mechanical properties :
#
#
# Convention : Reuss Voigt Hill
#
# Bulk Modulus (GPa) = 45.18930 81.62610 63.40770
# Shear Modulus (GPa) = 29.53322 38.28152 33.90737
#
# Velocity S-wave (km/s) = 3.54033 4.03073 3.79346
# Velocity P-wave (km/s) = 5.99086 7.50364 6.78951
#
# Compressibility (1/GPa) = 0.02212913
#
# Stress axis : x y z
#
# Youngs Moduli (GPa) = 169.05946 34.86169 127.46936
#
# Poissons Ratio (x) = 0.12150 0.24103
# Poissons Ratio (y) = 0.58922 0.60952
# Poissons Ratio (z) = 0.31968 0.16670
#
# Static dielectric constant tensor:
#      x y z
#    x 1.891380 0.000000 0.000000 
#    y 0.000000 2.014830 0.000000 
#    z 0.000000 0.000000 1.981540 
# 
# From -- ./inp_files/31202.got.cif
#   From: 2010.05.17/outbox.cif.g08.bks.cpg/sg20_16_cif.got.tgz:31202.got - 2010.06.03 22:52:26.
