data_PCOD9319346
_publ_section_title
;
Structure prediction by ZEFSAII (Michael W. Deem and Ramdas Pophale) SiO2 
 PCOD9319346
Probable space group: C 2 2 21
;
_chemical_formula_sum "Si O2"
_cell_formula_units_Z 48
_cell_length_a 15.084531
_cell_length_b 9.895727
_cell_length_c 17.731383
_cell_angle_alpha 90.000000
_cell_angle_beta 90.000000
_cell_angle_gamma 90.000000
_cell_volume 2646.806108
_symmetry_space_group_name_H-M "C 2 2 21"
_symmetry_group_IT_number 20
_symmetry_cell_setting 'orthorhombic'
loop_
_space_group_symop_operation_xyz
x,y,z
-x,-y,1/2+z
x,-y,-z
-x,y,1/2-z
1/2+x,1/2+y,z
1/2-x,1/2-y,1/2+z
1/2+x,1/2-y,-z
1/2-x,1/2+y,1/2-z
loop_
_atom_site_type_symbol
_atom_site_label
_atom_site_fract_x
_atom_site_fract_y
_atom_site_fract_z
Si Si1 0.236209 0.774012 0.323342
Si Si2 0.028522 0.209066 0.665606
Si Si3 0.478798 0.029455 0.837772
Si Si4 0.272468 0.951651 0.175187
Si Si5 0.371634 0.869511 0.450274
Si Si6 0.882561 0.118326 0.559830
O O1 0.133500 0.801655 0.341692
O O2 0.261584 0.861592 0.250072
O O3 0.245623 0.611920 0.310387
O O4 0.296258 0.822258 0.392364
O O5 0.005125 0.368007 0.655203
O O6 0.000000 0.172670 0.750000
O O7 0.970979 0.119483 0.609804
O O8 0.500000 0.065358 0.750000
O O9 0.374800 0.056875 0.851097
O O10 0.542260 0.101021 0.898106
O O11 0.202318 0.896841 0.114322
O O12 0.384613 0.753518 0.511289
O O13 0.348702 0.000000 0.500000
O O14 0.880074 0.000000 0.500000
#
# Coordination Sequence:
#
# PCOD9319346 Si02
#       6
#     8   8   8   8   8   8
#     4  11  24  43  68  99 128 178 223 269 329 400
#     4  10  21  41  69  92 126 176 219 263 327 394
#     4  10  21  41  69  95 124 173 227 260 314 405
#     4  11  24  43  70  95 134 175 223 268 330 397
#     4  12  25  42  67  99 135 168 220 277 331 390
#     4  12  25  44  63  99 139 167 210 284 337 378
#
# _framework density 18.135065000000001
#
# number of rings (size 3 to 8) (size 9 to 14) (size 15 to 20)
#    0.000    1.000    6.667    0.000    2.333    2.667 
#    3.000    2.500    0.000    0.000    0.000    0.000 
#    0.000    0.000    0.000    0.000    0.000    0.000 
#
# Total GULP energy -134040.448968 kJ/mol
# GULP energy per Si atom -5585.018707 kJ/mol
# Density = 1.809379 g / cm^3
# Si number density = 18.135065 Si / 1000 Ang^3
#
#
#
# Elastic Constant Matrix: (Units=GPa)
#
#
# Indices 1 2 3 4 5 6 
#
# 1 96.5756 12.1723 44.0900 0.0000 0.0000 0.0000
# 2 12.1723 48.1792 20.4251 0.0000 0.0000 0.0000
# 3 44.0900 20.4251 98.8080 0.0000 0.0000 0.0000
# 4 0.0000 0.0000 0.0000 4.1102 0.0000 0.0000
# 5 0.0000 0.0000 0.0000 0.0000 44.5326 0.0000
# 6 0.0000 0.0000 0.0000 0.0000 0.0000 30.7513
#
#
#
# Elastic Compliance Matrix: (Units=1/GPa)
#
#
# Indices 1 2 3 4 5 6 
#
# 1 0.013040 -0.000907 -0.005631 0.000000 0.000000 0.000000
# 2 -0.000907 0.022813 -0.004311 0.000000 0.000000 0.000000
# 3 -0.005631 -0.004311 0.013524 0.000000 0.000000 0.000000
# 4 0.000000 0.000000 0.000000 0.243300 0.000000 0.000000
# 5 0.000000 0.000000 0.000000 0.000000 0.022455 0.000000
# 6 0.000000 0.000000 0.000000 0.000000 0.000000 0.032519
#
#
# Mechanical properties :
#
#
# Convention : Reuss Voigt Hill
#
# Bulk Modulus (GPa) = 36.12918 44.10418 40.11668
# Shear Modulus (GPa) = 13.20742 27.00384 20.10563
#
# Velocity S-wave (km/s) = 2.70160 3.86299 3.33327
# Velocity P-wave (km/s) = 5.44950 6.65354 6.08139
#
# Compressibility (1/GPa) = 0.02767846
#
# Stress axis : x y z
#
# Youngs Moduli (GPa) = 76.68900 43.83542 73.94024
#
# Poissons Ratio (x) = 0.03977 0.41636
# Poissons Ratio (y) = 0.06957 0.31875
# Poissons Ratio (z) = 0.43184 0.18897
#
# Static dielectric constant tensor:
#      x y z
#    x 1.616860 0.000000 0.000000 
#    y 0.000000 1.586460 0.000000 
#    z 0.000000 0.000000 1.591960 
# 
# From -- ./inp_files/23427.got.cif
#   From: 2010.05.17/outbox.cif.g08.bks.cpg/sg20_12_cif.got.tgz:23427.got - 2010.06.03 22:52:26.
