data_PCOD9319121
_publ_section_title
;
Structure prediction by ZEFSAII (Michael W. Deem and Ramdas Pophale) SiO2 
 PCOD9319121
Probable space group: C 2 2 21
;
_chemical_formula_sum "Si O2"
_cell_formula_units_Z 48
_cell_length_a 5.928707
_cell_length_b 23.473473
_cell_length_c 14.316587
_cell_angle_alpha 90.000000
_cell_angle_beta 90.000000
_cell_angle_gamma 90.000000
_cell_volume 1992.401383
_symmetry_space_group_name_H-M "C 2 2 21"
_symmetry_group_IT_number 20
_symmetry_cell_setting 'orthorhombic'
loop_
_space_group_symop_operation_xyz
x,y,z
-x,-y,1/2+z
x,-y,-z
-x,y,1/2-z
1/2+x,1/2+y,z
1/2-x,1/2-y,1/2+z
1/2+x,1/2-y,-z
1/2-x,1/2+y,1/2-z
loop_
_atom_site_type_symbol
_atom_site_label
_atom_site_fract_x
_atom_site_fract_y
_atom_site_fract_z
Si Si1 0.217018 0.313233 0.068873
Si Si2 0.641048 0.265505 0.614783
Si Si3 0.520425 0.418704 0.139047
Si Si4 0.500000 0.203082 0.250000
Si Si5 0.382361 0.622825 0.335477
Si Si6 0.600792 0.091464 0.500341
Si Si7 0.761812 0.000000 0.000000
O O1 0.393472 0.359493 0.108341
O O2 0.062131 0.277003 0.139264
O O3 0.031042 0.349702 0.011607
O O4 0.319104 0.267976 0.996029
O O5 0.562245 0.329702 0.635505
O O6 0.863196 0.258371 0.676536
O O7 0.500000 0.424479 0.250000
O O8 0.776609 0.418617 0.099729
O O9 0.399664 0.469891 0.082499
O O10 0.669590 0.160272 0.302384
O O11 0.500000 0.590088 0.250000
O O12 0.301810 0.589919 0.425786
O O13 0.411354 0.048259 0.466071
#
# Coordination Sequence:
#
# PCOD9319121 Si02
#       7
#     8   8   8   4   8   8   4
#     4  11  24  40  71  99 146 199 241 289 358 428
#     4  11  22  41  63 105 141 197 250 290 350 424
#     4  11  26  52  75 108 147 185 242 307 371 445
#     4  10  22  40  60  98 148 182 250 304 336 416
#     4  10  21  39  67  99 142 182 238 300 352 420
#     4  11  22  48  71  99 140 186 234 299 370 433
#     4  10  26  46  82 102 136 184 236 308 380 448
#
# _framework density 24.091532000000001
#
# number of rings (size 3 to 8) (size 9 to 14) (size 15 to 20)
#    0.000    1.333    3.333    1.500    0.000    2.667 
#   12.000    8.333    0.000    0.000    0.000    0.000 
#    0.000    0.000    0.000    0.000    0.000    0.000 
#
# Total GULP energy -134237.340376 kJ/mol
# GULP energy per Si atom -5593.222516 kJ/mol
# Density = 2.403670 g / cm^3
# Si number density = 24.091532 Si / 1000 Ang^3
#
#
#
# Elastic Constant Matrix: (Units=GPa)
#
#
# Indices 1 2 3 4 5 6 
#
# 1 89.1346 25.8708 38.2348 0.0000 0.0000 0.0000
# 2 25.8708 90.4006 27.9487 0.0000 0.0000 0.0000
# 3 38.2348 27.9487 123.7868 0.0000 0.0000 0.0000
# 4 0.0000 0.0000 0.0000 19.8915 0.0000 0.0000
# 5 0.0000 0.0000 0.0000 0.0000 47.1659 0.0000
# 6 0.0000 0.0000 0.0000 0.0000 0.0000 44.1077
#
#
#
# Elastic Compliance Matrix: (Units=1/GPa)
#
#
# Indices 1 2 3 4 5 6 
#
# 1 0.013552 -0.002778 -0.003559 0.000000 0.000000 0.000000
# 2 -0.002778 0.012461 -0.001955 0.000000 0.000000 0.000000
# 3 -0.003559 -0.001955 0.009619 0.000000 0.000000 0.000000
# 4 0.000000 0.000000 0.000000 0.050273 0.000000 0.000000
# 5 0.000000 0.000000 0.000000 0.000000 0.021202 0.000000
# 6 0.000000 0.000000 0.000000 0.000000 0.000000 0.022672
#
#
# Mechanical properties :
#
#
# Convention : Reuss Voigt Hill
#
# Bulk Modulus (GPa) = 52.49875 54.15894 53.32885
# Shear Modulus (GPa) = 32.74134 36.31754 34.52944
#
# Velocity S-wave (km/s) = 3.69051 3.88684 3.78995
# Velocity P-wave (km/s) = 6.32444 6.53243 6.42928
#
# Compressibility (1/GPa) = 0.01904807
#
# Stress axis : x y z
#
# Youngs Moduli (GPa) = 73.79112 80.24746 103.96010
#
# Poissons Ratio (x) = 0.22293 0.36995
# Poissons Ratio (y) = 0.20499 0.20329
# Poissons Ratio (z) = 0.26259 0.15692
#
# Static dielectric constant tensor:
#      x y z
#    x 1.973070 0.000000 0.000000 
#    y 0.000000 1.965340 0.000000 
#    z 0.000000 0.000000 2.025740 
# 
# From -- ./inp_files/17837.got.cif
#   From: 2010.05.17/outbox.cif.g08.bks.cpg/sg20_9_cif.got.tgz:17837.got - 2010.06.03 22:52:26.
