data_PCOD9319175
_publ_section_title
;
Structure prediction by ZEFSAII (Michael W. Deem and Ramdas Pophale) SiO2 
 PCOD9319175
Probable space group: C 2 2 21
;
_chemical_formula_sum "Si O2"
_cell_formula_units_Z 40
_cell_length_a 8.017684
_cell_length_b 27.515177
_cell_length_c 8.143942
_cell_angle_alpha 90.000000
_cell_angle_beta 90.000000
_cell_angle_gamma 90.000000
_cell_volume 1796.618711
_symmetry_space_group_name_H-M "C 2 2 21"
_symmetry_group_IT_number 20
_symmetry_cell_setting 'orthorhombic'
loop_
_space_group_symop_operation_xyz
x,y,z
-x,-y,1/2+z
x,-y,-z
-x,y,1/2-z
1/2+x,1/2+y,z
1/2-x,1/2-y,1/2+z
1/2+x,1/2-y,-z
1/2-x,1/2+y,1/2-z
loop_
_atom_site_type_symbol
_atom_site_label
_atom_site_fract_x
_atom_site_fract_y
_atom_site_fract_z
Si Si1 0.744443 0.000000 0.000000
Si Si2 0.500000 0.543884 0.250000
Si Si3 0.261617 0.805091 0.344213
Si Si4 0.908495 0.396968 0.492423
Si Si5 0.244521 0.120533 0.150771
Si Si6 0.593853 0.286665 0.997242
O O1 0.634525 0.047127 0.957971
O O2 0.865432 0.986908 0.848944
O O3 0.601454 0.580108 0.130091
O O4 0.334618 0.858888 0.363265
O O5 0.389851 0.766459 0.420309
O O6 0.205100 0.790850 0.162074
O O7 0.092739 0.799983 0.450992
O O8 0.816239 0.384928 0.665585
O O9 0.102629 0.388746 0.528275
O O10 0.168465 0.173432 0.124906
#
# Coordination Sequence:
#
# PCOD9319175 Si02
#       6
#     4   4   8   8   8   8
#     4  10  22  40  62  88 122 160 202 254 300 352
#     4  10  22  40  64  90 118 160 202 248 302 358
#     4  11  24  39  59  89 122 158 201 248 302 364
#     4  10  22  40  61  89 120 155 202 250 300 358
#     4  10  21  40  63  87 118 157 198 246 304 359
#     4  11  23  39  60  88 122 158 197 247 305 365
#
# _framework density 22.264046
#
# number of rings (size 3 to 8) (size 9 to 14) (size 15 to 20)
#    0.000    1.600    0.000    4.800    0.000   12.000 
#    0.000    6.000    0.000    0.000    0.000    0.000 
#    0.000    0.000    0.000    0.000    0.000    0.000 
#
# Total GULP energy -112024.424951 kJ/mol
# GULP energy per Si atom -5601.221248 kJ/mol
# Density = 2.221337 g / cm^3
# Si number density = 22.264046 Si / 1000 Ang^3
#
#
#
# Elastic Constant Matrix: (Units=GPa)
#
#
# Indices 1 2 3 4 5 6 
#
# 1 104.1028 32.9358 14.3156 0.0000 0.0000 0.0000
# 2 32.9358 152.3753 26.2835 0.0000 0.0000 0.0000
# 3 14.3156 26.2835 54.3595 0.0000 0.0000 0.0000
# 4 0.0000 0.0000 0.0000 31.8892 0.0000 0.0000
# 5 0.0000 0.0000 0.0000 0.0000 22.4252 0.0000
# 6 0.0000 0.0000 0.0000 0.0000 0.0000 -59.2104
#
#
#
# Elastic Compliance Matrix: (Units=1/GPa)
#
#
# Indices 1 2 3 4 5 6 
#
# 1 0.010473 -0.001951 -0.001815 0.000000 0.000000 0.000000
# 2 -0.001951 0.007523 -0.003124 0.000000 0.000000 0.000000
# 3 -0.001815 -0.003124 0.020384 0.000000 0.000000 0.000000
# 4 0.000000 0.000000 0.000000 0.031359 0.000000 0.000000
# 5 0.000000 0.000000 0.000000 0.000000 0.044593 0.000000
# 6 0.000000 0.000000 0.000000 0.000000 0.000000 -0.016889
#
#
# Mechanical properties :
#
#
# Convention : Reuss Voigt Hill
#
# Bulk Modulus (GPa) = 40.64773 50.87860 45.76317
# Shear Modulus (GPa) = 41.86846 14.84098 28.35472
#
# Velocity S-wave (km/s) = 4.34123 2.58464 3.57258
# Velocity P-wave (km/s) = 6.58977 5.63996 6.13328
#
# Compressibility (1/GPa) = 0.02460162
#
# Stress axis : x y z
#
# Youngs Moduli (GPa) = 95.48745 132.92201 49.05704
#
# Poissons Ratio (x) = 0.25928 0.08903
# Poissons Ratio (y) = 0.18626 0.15325
# Poissons Ratio (z) = 0.17329 0.41523
#
# Static dielectric constant tensor:
#      x y z
#    x 1.799380 0.000000 0.000000 
#    y 0.000000 1.779100 0.000000 
#    z 0.000000 0.000000 1.829170 
# 
# From -- ./inp_files/6132.got.cif
#   From: 2010.05.17/outbox.cif.g08.bks.cpg/sg20_4_cif.got.tgz:6132.got - 2010.06.03 22:52:26.
