data_PCOD9319937
_publ_section_title
;
Structure prediction by ZEFSAII (Michael W. Deem and Ramdas Pophale) SiO2 
 PCOD9319937
Probable space group: C 2 2 21
;
_chemical_formula_sum "Si O2"
_cell_formula_units_Z 40
_cell_length_a 5.285096
_cell_length_b 14.198898
_cell_length_c 25.589558
_cell_angle_alpha 90.000000
_cell_angle_beta 90.000000
_cell_angle_gamma 90.000000
_cell_volume 1920.305405
_symmetry_space_group_name_H-M "C 2 2 21"
_symmetry_group_IT_number 20
_symmetry_cell_setting 'orthorhombic'
loop_
_space_group_symop_operation_xyz
x,y,z
-x,-y,1/2+z
x,-y,-z
-x,y,1/2-z
1/2+x,1/2+y,z
1/2-x,1/2-y,1/2+z
1/2+x,1/2-y,-z
1/2-x,1/2+y,1/2-z
loop_
_atom_site_type_symbol
_atom_site_label
_atom_site_fract_x
_atom_site_fract_y
_atom_site_fract_z
Si Si1 0.995376 0.112033 0.993559
Si Si2 0.639785 0.699348 0.616608
Si Si3 0.494012 0.126706 0.055410
Si Si4 0.526437 0.040151 0.871445
Si Si5 0.979275 0.946546 0.311454
O O1 0.760452 0.149604 0.028256
O O2 0.265337 0.141838 0.015658
O O3 0.970192 0.143489 0.933790
O O4 0.980909 0.000000 0.000000
O O5 0.582527 0.806421 0.603818
O O6 0.513726 0.662004 0.669679
O O7 0.920255 0.651960 0.619407
O O8 0.498730 0.019446 0.075934
O O9 0.783726 0.007381 0.842149
O O10 0.286374 0.022871 0.835274
O O11 0.000000 0.958204 0.250000
#
# Coordination Sequence:
#
# PCOD9319937 Si02
#       5
#     8   8   8   8   8
#     4  12  23  39  61  93 130 174 211 254 322 391
#     4  10  25  38  65  93 128 164 220 261 320 392
#     4  12  24  39  63  93 134 166 210 263 319 388
#     4  10  22  41  63  91 123 166 209 260 322 381
#     4  10  22  43  67  88 123 166 216 268 330 372
#
# _framework density 20.830020000000001
#
# number of rings (size 3 to 8) (size 9 to 14) (size 15 to 20)
#    1.200    0.000    2.000    4.800    5.600    0.000 
#    0.000    2.000    0.000    0.000    0.000    0.000 
#    0.000    0.000    0.000    0.000    0.000    0.000 
#
# Total GULP energy -111554.127398 kJ/mol
# GULP energy per Si atom -5577.706370 kJ/mol
# Density = 2.078261 g / cm^3
# Si number density = 20.830020 Si / 1000 Ang^3
#
#
#
# Elastic Constant Matrix: (Units=GPa)
#
#
# Indices 1 2 3 4 5 6 
#
# 1 143.9818 4.7579 33.3629 0.0000 0.0000 0.0000
# 2 4.7579 51.7409 -21.1274 0.0000 0.0000 0.0000
# 3 33.3629 -21.1274 68.4114 0.0000 0.0000 0.0000
# 4 0.0000 0.0000 0.0000 19.5884 0.0000 0.0000
# 5 0.0000 0.0000 0.0000 0.0000 25.3383 0.0000
# 6 0.0000 0.0000 0.0000 0.0000 0.0000 7.9090
#
#
#
# Elastic Compliance Matrix: (Units=1/GPa)
#
#
# Indices 1 2 3 4 5 6 
#
# 1 0.008150 -0.002715 -0.004813 0.000000 0.000000 0.000000
# 2 -0.002715 0.023020 0.008433 0.000000 0.000000 0.000000
# 3 -0.004813 0.008433 0.019569 0.000000 0.000000 0.000000
# 4 0.000000 0.000000 0.000000 0.051051 0.000000 0.000000
# 5 0.000000 0.000000 0.000000 0.000000 0.039466 0.000000
# 6 0.000000 0.000000 0.000000 0.000000 0.000000 0.126438
#
#
# Mechanical properties :
#
#
# Convention : Reuss Voigt Hill
#
# Bulk Modulus (GPa) = 19.02933 33.12454 26.07693
# Shear Modulus (GPa) = 17.64288 27.04319 22.34303
#
# Velocity S-wave (km/s) = 2.91347 3.60707 3.27867
# Velocity P-wave (km/s) = 4.52472 5.76930 5.18449
#
# Compressibility (1/GPa) = 0.05255046
#
# Stress axis : x y z
#
# Youngs Moduli (GPa) = 122.69442 43.43987 51.10066
#
# Poissons Ratio (x) = 0.11793 0.24596
# Poissons Ratio (y) = 0.33310 -0.43095
# Poissons Ratio (z) = 0.59055 -0.36634
#
# Static dielectric constant tensor:
#      x y z
#    x 1.785800 0.000000 0.000000 
#    y 0.000000 1.802450 0.000000 
#    z 0.000000 0.000000 1.703780 
# 
# From -- ./inp_files/28262.got.cif
#   From: 2010.05.17/outbox.cif.g08.bks.cpg/sg20_15_cif.got.tgz:28262.got - 2010.06.03 22:52:26.
