data_PCOD9319007
_publ_section_title
;
Structure prediction by ZEFSAII (Michael W. Deem and Ramdas Pophale) SiO2 
 PCOD9319007
Probable space group: C 2 2 21
;
_chemical_formula_sum "Si O2"
_cell_formula_units_Z 48
_cell_length_a 5.137930
_cell_length_b 22.330517
_cell_length_c 17.658793
_cell_angle_alpha 90.000000
_cell_angle_beta 90.000000
_cell_angle_gamma 90.000000
_cell_volume 2026.039820
_symmetry_space_group_name_H-M "C 2 2 21"
_symmetry_group_IT_number 20
_symmetry_cell_setting 'orthorhombic'
loop_
_space_group_symop_operation_xyz
x,y,z
-x,-y,1/2+z
x,-y,-z
-x,y,1/2-z
1/2+x,1/2+y,z
1/2-x,1/2-y,1/2+z
1/2+x,1/2-y,-z
1/2-x,1/2+y,1/2-z
loop_
_atom_site_type_symbol
_atom_site_label
_atom_site_fract_x
_atom_site_fract_y
_atom_site_fract_z
Si Si1 0.626350 0.103550 0.674890
Si Si2 0.065890 0.999945 0.095616
Si Si3 0.829220 0.500000 0.500000
Si Si4 0.665566 0.788258 0.114738
Si Si5 0.367055 0.312836 0.950161
Si Si6 0.375645 0.106817 0.064465
Si Si7 0.500000 0.298787 0.250000
O O1 0.500000 0.075057 0.750000
O O2 0.415866 0.143016 0.629515
O O3 0.806464 0.157126 0.706058
O O4 0.809796 0.057522 0.631425
O O5 0.221257 0.059041 0.117733
O O6 0.755776 0.001010 0.093682
O O7 0.031121 0.000000 0.000000
O O8 0.999178 0.439186 0.503602
O O9 0.428780 0.742668 0.103809
O O10 0.835013 0.766117 0.185566
O O11 0.804327 0.788706 0.033710
O O12 0.122876 0.351236 0.919058
O O13 0.630887 0.352150 0.959363
#
# Coordination Sequence:
#
# PCOD9319007 Si02
#       7
#     8   8   4   8   8   8   4
#     4  10  24  47  71 107 151 197 253 309 384 461
#     4  10  21  38  70 106 142 188 239 304 359 439
#     4  10  22  36  60 104 144 188 232 300 366 440
#     4  11  27  45  72 109 145 205 247 331 377 463
#     4  12  27  43  74 108 154 181 263 311 384 435
#     4  12  24  41  65 114 142 194 224 318 369 439
#     4  10  26  44  74 104 150 206 250 308 402 456
#
# _framework density 23.691538000000001
#
# number of rings (size 3 to 8) (size 9 to 14) (size 15 to 20)
#    0.500    0.667    2.500    2.000   11.667    1.333 
#    0.000    0.000    1.833    2.000    0.000    0.000 
#    0.000    0.000    0.000    0.000    0.000    0.000 
#
# Total GULP energy -133732.066653 kJ/mol
# GULP energy per Si atom -5572.169444 kJ/mol
# Density = 2.363762 g / cm^3
# Si number density = 23.691538 Si / 1000 Ang^3
#
#
#
# Elastic Constant Matrix: (Units=GPa)
#
#
# Indices 1 2 3 4 5 6 
#
# 1 105.4667 23.1759 -2.6473 0.0000 0.0000 0.0000
# 2 23.1759 93.3103 10.3380 0.0000 0.0000 0.0000
# 3 -2.6473 10.3380 41.4070 0.0000 0.0000 0.0000
# 4 0.0000 0.0000 0.0000 25.9545 0.0000 0.0000
# 5 0.0000 0.0000 0.0000 0.0000 30.0768 0.0000
# 6 0.0000 0.0000 0.0000 0.0000 0.0000 53.7316
#
#
#
# Elastic Compliance Matrix: (Units=1/GPa)
#
#
# Indices 1 2 3 4 5 6 
#
# 1 0.010097 -0.002653 0.001308 0.000000 0.000000 0.000000
# 2 -0.002653 0.011719 -0.003095 0.000000 0.000000 0.000000
# 3 0.001308 -0.003095 0.025007 0.000000 0.000000 0.000000
# 4 0.000000 0.000000 0.000000 0.038529 0.000000 0.000000
# 5 0.000000 0.000000 0.000000 0.000000 0.033248 0.000000
# 6 0.000000 0.000000 0.000000 0.000000 0.000000 0.018611
#
#
# Mechanical properties :
#
#
# Convention : Reuss Voigt Hill
#
# Bulk Modulus (GPa) = 26.35569 33.54635 29.95102
# Shear Modulus (GPa) = 31.49813 35.90707 33.70260
#
# Velocity S-wave (km/s) = 3.65020 3.89730 3.77577
# Velocity P-wave (km/s) = 5.37717 5.86876 5.62833
#
# Compressibility (1/GPa) = 0.03794248
#
# Stress axis : x y z
#
# Youngs Moduli (GPa) = 99.03488 85.33312 39.98886
#
# Poissons Ratio (x) = 0.22638 -0.05230
# Poissons Ratio (y) = 0.26273 0.12378
# Poissons Ratio (z) = -0.12953 0.26414
#
# Static dielectric constant tensor:
#      x y z
#    x 2.043690 0.000000 0.000000 
#    y 0.000000 1.923240 0.000000 
#    z 0.000000 0.000000 2.022860 
# 
# From -- ./inp_files/22828.got.cif
#   From: 2010.05.17/outbox.cif.g08.bks.cpg/sg20_12_cif.got.tgz:22828.got - 2010.06.03 22:52:26.
