data_PCOD9319340
_publ_section_title
;
Structure prediction by ZEFSAII (Michael W. Deem and Ramdas Pophale) SiO2 
 PCOD9319340
Probable space group: C 2 2 21
;
_chemical_formula_sum "Si O2"
_cell_formula_units_Z 32
_cell_length_a 5.189292
_cell_length_b 33.294107
_cell_length_c 8.906678
_cell_angle_alpha 90.000000
_cell_angle_beta 90.000000
_cell_angle_gamma 90.000000
_cell_volume 1538.832081
_symmetry_space_group_name_H-M "C 2 2 21"
_symmetry_group_IT_number 20
_symmetry_cell_setting 'orthorhombic'
loop_
_space_group_symop_operation_xyz
x,y,z
-x,-y,1/2+z
x,-y,-z
-x,y,1/2-z
1/2+x,1/2+y,z
1/2-x,1/2-y,1/2+z
1/2+x,1/2-y,-z
1/2-x,1/2+y,1/2-z
loop_
_atom_site_type_symbol
_atom_site_label
_atom_site_fract_x
_atom_site_fract_y
_atom_site_fract_z
Si Si1 0.247348 0.378915 0.146906
Si Si2 0.748081 0.972502 0.146595
Si Si3 0.434431 0.314844 0.919259
Si Si4 0.247213 0.273255 0.353042
O O1 0.500000 0.374176 0.250000
O O2 0.234668 0.425562 0.099682
O O3 0.000000 0.370953 0.250000
O O4 0.282800 0.348639 0.009527
O O5 0.500000 0.981102 0.250000
O O6 0.000000 0.977901 0.250000
O O7 0.755618 0.000000 0.000000
O O8 0.500000 0.326812 0.750000
O O9 0.285098 0.272247 0.911641
O O10 0.694079 0.303085 0.010354
O O11 0.500000 0.275650 0.250000
O O12 0.000000 0.281424 0.250000
#
# Coordination Sequence:
#
# PCOD9319340 Si02
#       4
#     8   8   8   8
#     4  10  24  43  63  90 129 170 202 245 315 382
#     4  10  21  41  68  98 128 163 205 249 306 373
#     4  11  24  41  64  93 122 161 219 269 307 359
#     4  11  25  43  62  87 123 168 212 263 323 372
#
# _framework density 20.794989999999999
#
# number of rings (size 3 to 8) (size 9 to 14) (size 15 to 20)
#    0.000    1.500    0.000    4.500    0.000   14.000 
#    0.000    1.250    0.000    0.000    0.000    0.000 
#    0.000    0.000    0.000    0.000    0.000    0.000 
#
# Total GULP energy -89616.340259 kJ/mol
# GULP energy per Si atom -5601.021266 kJ/mol
# Density = 2.074766 g / cm^3
# Si number density = 20.794990 Si / 1000 Ang^3
#
#
#
# Elastic Constant Matrix: (Units=GPa)
#
#
# Indices 1 2 3 4 5 6 
#
# 1 180.3658 61.8382 90.4084 0.0000 0.0000 0.0000
# 2 61.8382 172.4905 120.3660 0.0000 0.0000 0.0000
# 3 90.4084 120.3660 198.8342 0.0000 0.0000 0.0000
# 4 0.0000 0.0000 0.0000 304.0494 0.0000 0.0000
# 5 0.0000 0.0000 0.0000 0.0000 24.7494 0.0000
# 6 0.0000 0.0000 0.0000 0.0000 0.0000 -12.7137
#
#
#
# Elastic Compliance Matrix: (Units=1/GPa)
#
#
# Indices 1 2 3 4 5 6 
#
# 1 0.007207 -0.000514 -0.002966 0.000000 0.000000 0.000000
# 2 -0.000514 0.010074 -0.005865 0.000000 0.000000 0.000000
# 3 -0.002966 -0.005865 0.009928 0.000000 0.000000 0.000000
# 4 0.000000 0.000000 0.000000 0.003289 0.000000 0.000000
# 5 0.000000 0.000000 0.000000 0.000000 0.040405 0.000000
# 6 0.000000 0.000000 0.000000 0.000000 0.000000 -0.078656
#
#
# Mechanical properties :
#
#
# Convention : Reuss Voigt Hill
#
# Bulk Modulus (GPa) = 117.36967 121.87951 119.62459
# Shear Modulus (GPa) = 362.91628 81.82221 222.36925
#
# Velocity S-wave (km/s) = 13.22497 6.27953 10.35211
# Velocity P-wave (km/s) = 17.02245 10.55054 14.16117
#
# Compressibility (1/GPa) = 0.00852009
#
# Stress axis : x y z
#
# Youngs Moduli (GPa) = 138.75050 99.26304 100.72463
#
# Poissons Ratio (x) = 0.05105 0.29872
# Poissons Ratio (y) = 0.07135 0.59072
# Poissons Ratio (z) = 0.41150 0.58215
#
# Static dielectric constant tensor:
#      x y z
#    x 1.759350 0.000000 0.000000 
#    y 0.000000 1.757900 0.000000 
#    z 0.000000 0.000000 1.749480 
# 
# From -- ./inp_files/5236.got.cif
#   From: 2010.05.17/outbox.cif.g08.bks.cpg/sg20_3_cif.got.tgz:5236.got - 2010.06.03 22:52:26.
