data_PCOD9319130
_publ_section_title
;
Structure prediction by ZEFSAII (Michael W. Deem and Ramdas Pophale) SiO2 
 PCOD9319130
Probable space group: C 2 2 21
;
_chemical_formula_sum "Si O2"
_cell_formula_units_Z 64
_cell_length_a 18.245954
_cell_length_b 15.746543
_cell_length_c 11.556599
_cell_angle_alpha 90.000000
_cell_angle_beta 90.000000
_cell_angle_gamma 90.000000
_cell_volume 3320.334539
_symmetry_space_group_name_H-M "C 2 2 21"
_symmetry_group_IT_number 20
_symmetry_cell_setting 'orthorhombic'
loop_
_space_group_symop_operation_xyz
x,y,z
-x,-y,1/2+z
x,-y,-z
-x,y,1/2-z
1/2+x,1/2+y,z
1/2-x,1/2-y,1/2+z
1/2+x,1/2-y,-z
1/2-x,1/2+y,1/2-z
loop_
_atom_site_type_symbol
_atom_site_label
_atom_site_fract_x
_atom_site_fract_y
_atom_site_fract_z
Si Si1 0.690835 0.140824 0.535506
Si Si2 0.584765 0.671262 0.751459
Si Si3 0.535591 0.683964 0.137490
Si Si4 0.281671 0.978951 0.831505
Si Si5 0.608076 0.490113 0.865965
Si Si6 0.114521 0.815005 0.514506
Si Si7 0.244618 0.583402 0.076916
Si Si8 0.160748 0.248890 0.970736
O O1 0.678830 0.084206 0.421088
O O2 0.635148 0.218372 0.546997
O O3 0.770583 0.184499 0.519131
O O4 0.691738 0.074739 0.641997
O O5 0.500000 0.697632 0.750000
O O6 0.588269 0.574250 0.796008
O O7 0.619667 0.676310 0.624276
O O8 0.626572 0.727903 0.845587
O O9 0.500000 0.727524 0.250000
O O10 0.570793 0.595239 0.178703
O O11 0.468151 0.666141 0.051583
O O12 0.599801 0.731229 0.067923
O O13 0.195520 0.980590 0.863201
O O14 0.283916 0.944038 0.702560
O O15 0.585644 0.500000 0.000000
O O16 0.173897 0.875601 0.576065
O O17 0.192996 0.656942 0.025964
O O18 0.246498 0.500000 0.000000
#
# Coordination Sequence:
#
# PCOD9319130 Si02
#       8
#     8   8   8   8   8   8   8   8
#     4  10  21  39  69  92 125 167 215 260 315 383
#     4  12  21  38  63  93 130 167 205 258 318 391
#     4  12  24  39  60  92 130 168 208 262 315 393
#     4  11  18  39  64  95 124 161 217 263 314 377
#     4  12  19  35  62  94 131 169 199 245 329 385
#     4  11  25  41  61  99 129 166 214 262 313 386
#     4  11  26  40  61  92 130 163 211 270 316 372
#     4  11  22  43  63  87 124 177 210 253 325 386
#
# _framework density 19.275167
#
# number of rings (size 3 to 8) (size 9 to 14) (size 15 to 20)
#    0.000    0.750    6.250    2.625    0.000    2.500 
#    0.000    0.000    2.750    0.750    0.000    0.000 
#    0.000    0.000    0.000    0.000    0.000    0.000 
#
# Total GULP energy -178860.094111 kJ/mol
# GULP energy per Si atom -5589.377941 kJ/mol
# Density = 1.923130 g / cm^3
# Si number density = 19.275167 Si / 1000 Ang^3
#
#
#
# Elastic Constant Matrix: (Units=GPa)
#
#
# Indices 1 2 3 4 5 6 
#
# 1 56.6955 32.3645 -5.2557 0.0000 0.0000 0.0000
# 2 32.3645 135.9967 20.6011 0.0000 0.0000 0.0000
# 3 -5.2557 20.6011 62.5425 0.0000 0.0000 0.0000
# 4 0.0000 0.0000 0.0000 23.3955 0.0000 0.0000
# 5 0.0000 0.0000 0.0000 0.0000 10.1140 0.0000
# 6 0.0000 0.0000 0.0000 0.0000 0.0000 16.9073
#
#
#
# Elastic Compliance Matrix: (Units=1/GPa)
#
#
# Indices 1 2 3 4 5 6 
#
# 1 0.021161 -0.005584 0.003618 0.000000 0.000000 0.000000
# 2 -0.005584 0.009213 -0.003504 0.000000 0.000000 0.000000
# 3 0.003618 -0.003504 0.017447 0.000000 0.000000 0.000000
# 4 0.000000 0.000000 0.000000 0.042743 0.000000 0.000000
# 5 0.000000 0.000000 0.000000 0.000000 0.098873 0.000000
# 6 0.000000 0.000000 0.000000 0.000000 0.000000 0.059146
#
#
# Mechanical properties :
#
#
# Convention : Reuss Voigt Hill
#
# Bulk Modulus (GPa) = 27.11453 38.96162 33.03808
# Shear Modulus (GPa) = 18.39468 23.91833 21.15650
#
# Velocity S-wave (km/s) = 3.09256 3.52645 3.31661
# Velocity P-wave (km/s) = 5.18165 6.06946 5.64304
#
# Compressibility (1/GPa) = 0.03688059
#
# Stress axis : x y z
#
# Youngs Moduli (GPa) = 47.25681 108.54528 57.31555
#
# Poissons Ratio (x) = 0.60610 -0.20734
# Poissons Ratio (y) = 0.26388 0.20083
# Poissons Ratio (z) = -0.17095 0.38033
#
# Static dielectric constant tensor:
#      x y z
#    x 1.653190 0.000000 0.000000 
#    y 0.000000 1.667200 0.000000 
#    z 0.000000 0.000000 1.710270 
# 
# From -- ./inp_files/15900.got.cif
#   From: 2010.05.17/outbox.cif.g08.bks.cpg/sg20_8_cif.got.tgz:15900.got - 2010.06.03 22:52:26.
