data_PCOD9319654
_publ_section_title
;
Structure prediction by ZEFSAII (Michael W. Deem and Ramdas Pophale) SiO2 
 PCOD9319654
Probable space group: C 2 2 21
;
_chemical_formula_sum "Si O2"
_cell_formula_units_Z 36
_cell_length_a 26.731745
_cell_length_b 8.008267
_cell_length_c 7.991903
_cell_angle_alpha 90.000000
_cell_angle_beta 90.000000
_cell_angle_gamma 90.000000
_cell_volume 1710.866246
_symmetry_space_group_name_H-M "C 2 2 21"
_symmetry_group_IT_number 20
_symmetry_cell_setting 'orthorhombic'
loop_
_space_group_symop_operation_xyz
x,y,z
-x,-y,1/2+z
x,-y,-z
-x,y,1/2-z
1/2+x,1/2+y,z
1/2-x,1/2-y,1/2+z
1/2+x,1/2-y,-z
1/2-x,1/2+y,1/2-z
loop_
_atom_site_type_symbol
_atom_site_label
_atom_site_fract_x
_atom_site_fract_y
_atom_site_fract_z
Si Si1 0.642799 0.535222 0.805197
Si Si2 0.453650 0.340366 0.123718
Si Si3 0.267611 0.663339 0.885111
Si Si4 0.328187 0.812836 0.168030
Si Si5 0.088953 0.500000 0.500000
O O1 0.596563 0.635004 0.731671
O O2 0.694695 0.629611 0.767774
O O3 0.644921 0.364541 0.697536
O O4 0.637169 0.500000 0.000000
O O5 0.500000 0.334371 0.250000
O O6 0.459279 0.500000 0.000000
O O7 0.444449 0.162887 0.033455
O O8 0.212073 0.682374 0.816584
O O9 0.267408 0.500000 0.000000
O O10 0.294212 0.801981 0.999799
O O11 0.371751 0.948347 0.147491
#
# Coordination Sequence:
#
# PCOD9319654 Si02
#       5
#     8   8   8   8   4
#     4  11  22  43  68 100 142 191 236 290 361 418
#     4  12  26  52  77 103 138 184 238 305 374 428
#     4  10  22  37  63 103 145 200 235 280 351 423
#     4  11  23  40  67 103 152 185 241 286 346 429
#     4  12  26  46  76 104 144 180 236 306 352 424
#
# _framework density 21.041972000000001
#
# number of rings (size 3 to 8) (size 9 to 14) (size 15 to 20)
#    0.000    0.889    4.444    2.667    7.778    2.667 
#    4.000    0.000    0.000    0.000    0.000    0.000 
#    0.000    0.000    0.000    0.000    0.000    0.000 
#
# Total GULP energy -100571.609165 kJ/mol
# GULP energy per Si atom -5587.311620 kJ/mol
# Density = 2.099408 g / cm^3
# Si number density = 21.041972 Si / 1000 Ang^3
#
#
#
# Elastic Constant Matrix: (Units=GPa)
#
#
# Indices 1 2 3 4 5 6 
#
# 1 105.5110 54.5423 21.8515 0.0000 0.0000 0.0000
# 2 54.5423 127.2223 39.0433 0.0000 0.0000 0.0000
# 3 21.8515 39.0433 86.4345 0.0000 0.0000 0.0000
# 4 0.0000 0.0000 0.0000 17.7145 0.0000 0.0000
# 5 0.0000 0.0000 0.0000 0.0000 37.3439 0.0000
# 6 0.0000 0.0000 0.0000 0.0000 0.0000 14.2074
#
#
#
# Elastic Compliance Matrix: (Units=1/GPa)
#
#
# Indices 1 2 3 4 5 6 
#
# 1 0.012228 -0.004985 -0.000840 0.000000 0.000000 0.000000
# 2 -0.004985 0.011157 -0.003780 0.000000 0.000000 0.000000
# 3 -0.000840 -0.003780 0.013489 0.000000 0.000000 0.000000
# 4 0.000000 0.000000 0.000000 0.056451 0.000000 0.000000
# 5 0.000000 0.000000 0.000000 0.000000 0.026778 0.000000
# 6 0.000000 0.000000 0.000000 0.000000 0.000000 0.070386
#
#
# Mechanical properties :
#
#
# Convention : Reuss Voigt Hill
#
# Bulk Modulus (GPa) = 56.60497 61.11579 58.86038
# Shear Modulus (GPa) = 23.19251 27.43521 25.31386
#
# Velocity S-wave (km/s) = 3.32355 3.61478 3.47222
# Velocity P-wave (km/s) = 6.45657 6.82129 6.64143
#
# Compressibility (1/GPa) = 0.01766629
#
# Stress axis : x y z
#
# Youngs Moduli (GPa) = 81.77667 89.62775 74.13419
#
# Poissons Ratio (x) = 0.44678 0.06226
# Poissons Ratio (y) = 0.40764 0.28020
# Poissons Ratio (z) = 0.06867 0.33876
#
# Static dielectric constant tensor:
#      x y z
#    x 1.739630 0.000000 0.000000 
#    y 0.000000 1.804260 0.000000 
#    z 0.000000 0.000000 1.787940 
# 
# From -- ./inp_files/9874.got.cif
#   From: 2010.05.17/outbox.cif.g08.bks.cpg/sg20_5_cif.got.tgz:9874.got - 2010.06.03 22:52:26.
