data_PCOD9319293
_publ_section_title
;
Structure prediction by ZEFSAII (Michael W. Deem and Ramdas Pophale) SiO2 
 PCOD9319293
Probable space group: C 2 2 21
;
_chemical_formula_sum "Si O2"
_cell_formula_units_Z 64
_cell_length_a 18.651636
_cell_length_b 9.021069
_cell_length_c 20.247641
_cell_angle_alpha 90.000000
_cell_angle_beta 90.000000
_cell_angle_gamma 90.000000
_cell_volume 3406.821410
_symmetry_space_group_name_H-M "C 2 2 21"
_symmetry_group_IT_number 20
_symmetry_cell_setting 'orthorhombic'
loop_
_space_group_symop_operation_xyz
x,y,z
-x,-y,1/2+z
x,-y,-z
-x,y,1/2-z
1/2+x,1/2+y,z
1/2-x,1/2-y,1/2+z
1/2+x,1/2-y,-z
1/2-x,1/2+y,1/2-z
loop_
_atom_site_type_symbol
_atom_site_label
_atom_site_fract_x
_atom_site_fract_y
_atom_site_fract_z
Si Si1 0.662140 0.639789 0.178072
Si Si2 0.914608 0.094037 0.057070
Si Si3 0.574152 0.455342 0.070274
Si Si4 0.570757 0.097720 0.063946
Si Si5 0.170360 0.663430 0.324174
Si Si6 0.409137 0.128498 0.038249
Si Si7 0.675847 0.487036 0.683277
Si Si8 0.843729 0.506492 0.690779
O O1 0.616413 0.542686 0.126992
O O2 0.747010 0.615752 0.166004
O O3 0.645697 0.585504 0.251211
O O4 0.650891 0.816331 0.181882
O O5 0.866673 0.080544 0.121611
O O6 0.924003 0.248261 0.018233
O O7 0.991619 0.016316 0.071660
O O8 0.875924 0.000000 0.000000
O O9 0.576581 0.277128 0.066141
O O10 0.606126 0.500000 0.000000
O O11 0.485854 0.069337 0.062926
O O12 0.607098 0.051875 0.132050
O O13 0.598394 0.000000 0.000000
O O14 0.131618 0.665836 0.394887
O O15 0.140108 0.561088 0.264056
O O16 0.168489 0.836712 0.305570
O O17 0.367700 0.000000 0.000000
O O18 0.761057 0.459176 0.677616
#
# Coordination Sequence:
#
# PCOD9319293 Si02
#       8
#     8   8   8   8   8   8   8   8
#     4  10  23  39  63  90 122 162 203 249 298 362
#     4  11  21  41  63  88 116 157 207 247 299 365
#     4  11  21  40  63  88 121 157 199 249 295 359
#     4  11  22  40  62  89 124 157 196 248 303 356
#     4  10  21  43  61  88 123 158 204 250 306 357
#     4  11  24  40  62  89 121 158 198 256 306 355
#     4  10  21  41  64  85 120 160 204 252 296 362
#     4  10  23  39  60  91 123 160 199 249 305 359
#
# _framework density 18.785838999999999
#
# number of rings (size 3 to 8) (size 9 to 14) (size 15 to 20)
#    0.000    1.500    3.750    1.500    3.500    3.000 
#    2.250    3.750    0.000    0.000    0.000    0.000 
#    0.000    0.000    0.000    0.000    0.000    0.000 
#
# Total GULP energy -178169.099815 kJ/mol
# GULP energy per Si atom -5567.784369 kJ/mol
# Density = 1.874308 g / cm^3
# Si number density = 18.785839 Si / 1000 Ang^3
#
#
#
# Elastic Constant Matrix: (Units=GPa)
#
#
# Indices 1 2 3 4 5 6 
#
# 1 46.7036 33.5719 63.7766 0.0000 0.0000 0.0000
# 2 33.5719 90.0055 59.9036 0.0000 0.0000 0.0000
# 3 63.7766 59.9036 157.3313 0.0000 0.0000 0.0000
# 4 0.0000 0.0000 0.0000 43.9678 0.0000 0.0000
# 5 0.0000 0.0000 0.0000 0.0000 28.0668 0.0000
# 6 0.0000 0.0000 0.0000 0.0000 0.0000 17.3921
#
#
#
# Elastic Compliance Matrix: (Units=1/GPa)
#
#
# Indices 1 2 3 4 5 6 
#
# 1 0.051107 -0.007065 -0.018027 0.000000 0.000000 0.000000
# 2 -0.007065 0.015858 -0.003174 0.000000 0.000000 0.000000
# 3 -0.018027 -0.003174 0.014872 0.000000 0.000000 0.000000
# 4 0.000000 0.000000 0.000000 0.022744 0.000000 0.000000
# 5 0.000000 0.000000 0.000000 0.000000 0.035629 0.000000
# 6 0.000000 0.000000 0.000000 0.000000 0.000000 0.057497
#
#
# Mechanical properties :
#
#
# Convention : Reuss Voigt Hill
#
# Bulk Modulus (GPa) = 39.51755 67.61606 53.56681
# Shear Modulus (GPa) = 19.03493 27.00457 23.01975
#
# Velocity S-wave (km/s) = 3.18663 3.79555 3.50434
# Velocity P-wave (km/s) = 5.88396 7.43502 6.70449
#
# Compressibility (1/GPa) = 0.02530521
#
# Stress axis : x y z
#
# Youngs Moduli (GPa) = 19.56678 63.05900 67.24010
#
# Poissons Ratio (x) = 0.44550 1.21214
# Poissons Ratio (y) = 0.13824 0.21343
# Poissons Ratio (z) = 0.35273 0.20016
#
# Static dielectric constant tensor:
#      x y z
#    x 1.646230 0.000000 0.000000 
#    y 0.000000 1.807080 0.000000 
#    z 0.000000 0.000000 1.658290 
# 
# From -- ./inp_files/27801.got.cif
#   From: 2010.05.17/outbox.cif.g08.bks.cpg/sg20_14_cif.got.tgz:27801.got - 2010.06.03 22:52:26.
