data_PCOD9319708
_publ_section_title
;
Structure prediction by ZEFSAII (Michael W. Deem and Ramdas Pophale) SiO2 
 PCOD9319708
Probable space group: C 2 2 21
;
_chemical_formula_sum "Si O2"
_cell_formula_units_Z 40
_cell_length_a 8.910873
_cell_length_b 23.536575
_cell_length_c 8.069330
_cell_angle_alpha 90.000000
_cell_angle_beta 90.000000
_cell_angle_gamma 90.000000
_cell_volume 1692.392126
_symmetry_space_group_name_H-M "C 2 2 21"
_symmetry_group_IT_number 20
_symmetry_cell_setting 'orthorhombic'
loop_
_space_group_symop_operation_xyz
x,y,z
-x,-y,1/2+z
x,-y,-z
-x,y,1/2-z
1/2+x,1/2+y,z
1/2-x,1/2-y,1/2+z
1/2+x,1/2-y,-z
1/2-x,1/2+y,1/2-z
loop_
_atom_site_type_symbol
_atom_site_label
_atom_site_fract_x
_atom_site_fract_y
_atom_site_fract_z
Si Si1 0.729189 0.424215 0.054691
Si Si2 0.735585 0.919304 0.839360
Si Si3 0.599306 0.197467 0.011439
Si Si4 0.021751 0.000000 0.500000
Si Si5 0.779895 0.698235 0.859057
Si Si6 0.001759 0.500000 0.500000
O O1 0.730172 0.415136 0.855458
O O2 0.601050 0.467142 0.112265
O O3 0.887924 0.454607 0.087772
O O4 0.708862 0.363840 0.135341
O O5 0.604721 0.963672 0.882297
O O6 0.878150 0.949115 0.926987
O O7 0.674528 0.859208 0.910531
O O8 0.418436 0.196389 0.992068
O O9 0.654256 0.204678 0.823319
O O10 0.663178 0.252159 0.104867
#
# Coordination Sequence:
#
# PCOD9319708 Si02
#       6
#     8   8   8   4   8   4
#     4  11  23  43  69  98 135 177 221 275 331 391
#     4  11  23  43  69  98 135 177 221 275 331 391
#     4  11  26  46  70 100 133 174 223 277 335 398
#     4  10  26  42  62 104 138 178 218 270 328 394
#     4  11  26  46  70 100 133 174 223 277 335 398
#     4  10  22  38  66 100 130 170 218 270 332 402
#
# _framework density 23.635185
#
# number of rings (size 3 to 8) (size 9 to 14) (size 15 to 20)
#    0.000    1.200    2.000    2.400    2.800   12.000 
#    0.000    0.000    0.000    0.000    0.000    0.000 
#    0.000    0.000    0.000    0.000    0.000    0.000 
#
# Total GULP energy -111941.300535 kJ/mol
# GULP energy per Si atom -5597.065027 kJ/mol
# Density = 2.358139 g / cm^3
# Si number density = 23.635185 Si / 1000 Ang^3
#
#
#
# Elastic Constant Matrix: (Units=GPa)
#
#
# Indices 1 2 3 4 5 6 
#
# 1 87.3038 0.8643 0.6510 0.0000 0.0000 0.0000
# 2 0.8643 118.1228 -0.6261 0.0000 0.0000 0.0000
# 3 0.6510 -0.6261 50.3693 0.0000 0.0000 0.0000
# 4 0.0000 0.0000 0.0000 39.8947 0.0000 0.0000
# 5 0.0000 0.0000 0.0000 0.0000 31.7317 0.0000
# 6 0.0000 0.0000 0.0000 0.0000 0.0000 43.9213
#
#
#
# Elastic Compliance Matrix: (Units=1/GPa)
#
#
# Indices 1 2 3 4 5 6 
#
# 1 0.011456 -0.000085 -0.000149 0.000000 0.000000 0.000000
# 2 -0.000085 0.008467 0.000106 0.000000 0.000000 0.000000
# 3 -0.000149 0.000106 0.019857 0.000000 0.000000 0.000000
# 4 0.000000 0.000000 0.000000 0.025066 0.000000 0.000000
# 5 0.000000 0.000000 0.000000 0.000000 0.031514 0.000000
# 6 0.000000 0.000000 0.000000 0.000000 0.000000 0.022768
#
#
# Mechanical properties :
#
#
# Convention : Reuss Voigt Hill
#
# Bulk Modulus (GPa) = 25.30047 28.61937 26.95992
# Shear Modulus (GPa) = 37.71940 40.10332 38.91136
#
# Velocity S-wave (km/s) = 3.99921 4.12365 4.06190
# Velocity P-wave (km/s) = 5.66151 5.89981 5.78189
#
# Compressibility (1/GPa) = 0.03952496
#
# Stress axis : x y z
#
# Youngs Moduli (GPa) = 87.28891 118.10634 50.36109
#
# Poissons Ratio (x) = 0.00999 0.00751
# Poissons Ratio (y) = 0.00739 -0.00536
# Poissons Ratio (z) = 0.01302 -0.01256
#
# Static dielectric constant tensor:
#      x y z
#    x 1.908860 0.000000 0.000000 
#    y 0.000000 1.838370 0.000000 
#    z 0.000000 0.000000 1.916770 
# 
# From -- ./inp_files/6153.got.cif
#   From: 2010.05.17/outbox.cif.g08.bks.cpg/sg20_4_cif.got.tgz:6153.got - 2010.06.03 22:52:26.
