data_PCOD9319691
_publ_section_title
;
Structure prediction by ZEFSAII (Michael W. Deem and Ramdas Pophale) SiO2 
 PCOD9319691
Probable space group: C 2 2 21
;
_chemical_formula_sum "Si O2"
_cell_formula_units_Z 32
_cell_length_a 19.234198
_cell_length_b 11.919342
_cell_length_c 5.976347
_cell_angle_alpha 90.000000
_cell_angle_beta 90.000000
_cell_angle_gamma 90.000000
_cell_volume 1370.131242
_symmetry_space_group_name_H-M "C 2 2 21"
_symmetry_group_IT_number 20
_symmetry_cell_setting 'orthorhombic'
loop_
_space_group_symop_operation_xyz
x,y,z
-x,-y,1/2+z
x,-y,-z
-x,y,1/2-z
1/2+x,1/2+y,z
1/2-x,1/2-y,1/2+z
1/2+x,1/2-y,-z
1/2-x,1/2+y,1/2-z
loop_
_atom_site_type_symbol
_atom_site_label
_atom_site_fract_x
_atom_site_fract_y
_atom_site_fract_z
Si Si1 0.661773 0.273902 0.879015
Si Si2 0.512560 0.673145 0.986408
Si Si3 0.402472 0.874872 0.992523
Si Si4 0.728868 0.895186 0.838315
O O1 0.594211 0.302469 0.018820
O O2 0.635482 0.177061 0.710199
O O3 0.696227 0.384604 0.776073
O O4 0.722933 0.219193 0.021528
O O5 0.500000 0.637904 0.250000
O O6 0.500000 0.608178 0.750000
O O7 0.463255 0.783287 0.960154
O O8 0.339293 0.891427 0.817045
O O9 0.434139 0.000000 0.000000
O O10 0.725766 0.000000 0.000000
#
# Coordination Sequence:
#
# PCOD9319691 Si02
#       4
#     8   8   8   8
#     4  11  23  40  60  96 149 191 236 299 373 451
#     4  10  22  38  62  96 137 187 227 294 369 437
#     4  11  22  37  62  98 139 181 238 302 375 449
#     4  12  23  38  66  98 144 197 245 296 372 458
#
# _framework density 23.355426000000001
#
# number of rings (size 3 to 8) (size 9 to 14) (size 15 to 20)
#    0.000    1.000    7.500    0.000    0.000    4.000 
#    0.000    0.000    0.000    0.000    0.000   68.250 
#    0.000    0.000    0.000    0.000    0.000    0.000 
#
# Total GULP energy -89167.041153 kJ/mol
# GULP energy per Si atom -5572.940072 kJ/mol
# Density = 2.330227 g / cm^3
# Si number density = 23.355426 Si / 1000 Ang^3
#
#
#
# Elastic Constant Matrix: (Units=GPa)
#
#
# Indices 1 2 3 4 5 6 
#
# 1 136.2360 47.2747 35.8156 0.0000 0.0000 0.0000
# 2 47.2747 88.3383 33.1254 0.0000 0.0000 0.0000
# 3 35.8156 33.1254 135.3072 0.0000 0.0000 0.0000
# 4 0.0000 0.0000 0.0000 -16.6679 0.0000 0.0000
# 5 0.0000 0.0000 0.0000 0.0000 51.6908 0.0000
# 6 0.0000 0.0000 0.0000 0.0000 0.0000 -58.2496
#
#
#
# Elastic Compliance Matrix: (Units=1/GPa)
#
#
# Indices 1 2 3 4 5 6 
#
# 1 0.009236 -0.004433 -0.001359 0.000000 0.000000 0.000000
# 2 -0.004433 0.014592 -0.002399 0.000000 0.000000 0.000000
# 3 -0.001359 -0.002399 0.008338 0.000000 0.000000 0.000000
# 4 0.000000 0.000000 0.000000 -0.059996 0.000000 0.000000
# 5 0.000000 0.000000 0.000000 0.000000 0.019346 0.000000
# 6 0.000000 0.000000 0.000000 0.000000 0.000000 -0.017167
#
#
# Mechanical properties :
#
#
# Convention : Reuss Voigt Hill
#
# Bulk Modulus (GPa) = 63.35949 65.81252 64.58601
# Shear Modulus (GPa) = -1247.41153 11.59904 -617.90624
#
# Velocity S-wave (km/s) = -23.13566 2.23094 -16.28314
# Velocity P-wave (km/s) = 26.20097 5.90559 18.05014
#
# Compressibility (1/GPa) = 0.01578296
#
# Stress axis : x y z
#
# Youngs Moduli (GPa) = 108.27417 68.53099 119.93641
#
# Poissons Ratio (x) = 0.30378 0.16305
# Poissons Ratio (y) = 0.47996 0.28773
# Poissons Ratio (z) = 0.14720 0.16440
#
# Static dielectric constant tensor:
#      x y z
#    x 1.869390 0.000000 0.000000 
#    y 0.000000 1.862640 0.000000 
#    z 0.000000 0.000000 2.080560 
# 
# From -- ./inp_files/1009.got.cif
#   From: 2010.05.17/outbox.cif.g08.bks.cpg/sg20_1_cif.got.tgz:1009.got - 2010.06.03 22:52:26.
