data_PCOD9319750
_publ_section_title
;
Structure prediction by ZEFSAII (Michael W. Deem and Ramdas Pophale) SiO2 
 PCOD9319750
Probable space group: C 2 2 21
;
_chemical_formula_sum "Si O2"
_cell_formula_units_Z 32
_cell_length_a 5.350697
_cell_length_b 21.227070
_cell_length_c 12.872133
_cell_angle_alpha 90.000000
_cell_angle_beta 90.000000
_cell_angle_gamma 90.000000
_cell_volume 1462.011972
_symmetry_space_group_name_H-M "C 2 2 21"
_symmetry_group_IT_number 20
_symmetry_cell_setting 'orthorhombic'
loop_
_space_group_symop_operation_xyz
x,y,z
-x,-y,1/2+z
x,-y,-z
-x,y,1/2-z
1/2+x,1/2+y,z
1/2-x,1/2-y,1/2+z
1/2+x,1/2-y,-z
1/2-x,1/2+y,1/2-z
loop_
_atom_site_type_symbol
_atom_site_label
_atom_site_fract_x
_atom_site_fract_y
_atom_site_fract_z
Si Si1 0.926044 0.964366 0.592346
Si Si2 0.995859 0.295867 0.125291
Si Si3 0.503822 0.667961 0.509950
Si Si4 0.747443 0.462069 0.278169
O O1 0.983049 0.894380 0.559911
O O2 0.769253 0.978991 0.696149
O O3 0.177610 0.005743 0.614384
O O4 0.788347 0.000000 0.500000
O O5 0.243326 0.330195 0.078926
O O6 0.000000 0.288936 0.250000
O O7 0.741878 0.327582 0.082335
O O8 0.996864 0.227509 0.068164
O O9 0.500000 0.423073 0.250000
O O10 0.000000 0.428735 0.250000
#
# Coordination Sequence:
#
# PCOD9319750 Si02
#       4
#     8   8   8   8
#     4   9  21  39  59  86 121 147 190 238 285 353
#     4  10  22  41  59  86 117 151 198 243 285 338
#     4  10  22  39  62  88 112 158 194 233 298 338
#     4   8  20  36  54  84 106 160 190 222 286 326
#
# _framework density 21.887644999999999
#
# number of rings (size 3 to 8) (size 9 to 14) (size 15 to 20)
#    1.500    1.000    0.000    0.750    7.000    1.000 
#    9.000    0.000    0.000    0.000    0.000    0.000 
#    0.000    0.000    0.000    0.000    0.000    0.000 
#
# Total GULP energy -89116.339939 kJ/mol
# GULP energy per Si atom -5569.771246 kJ/mol
# Density = 2.183783 g / cm^3
# Si number density = 21.887645 Si / 1000 Ang^3
#
#
#
# Elastic Constant Matrix: (Units=GPa)
#
#
# Indices 1 2 3 4 5 6 
#
# 1 157.8272 9.1969 28.3869 0.0000 0.0000 0.0000
# 2 9.1969 68.2972 8.9686 0.0000 0.0000 0.0000
# 3 28.3869 8.9686 139.5317 0.0000 0.0000 0.0000
# 4 0.0000 0.0000 0.0000 31.4218 0.0000 0.0000
# 5 0.0000 0.0000 0.0000 0.0000 30.6647 0.0000
# 6 0.0000 0.0000 0.0000 0.0000 0.0000 -10.4912
#
#
#
# Elastic Compliance Matrix: (Units=1/GPa)
#
#
# Indices 1 2 3 4 5 6 
#
# 1 0.006612 -0.000720 -0.001299 0.000000 0.000000 0.000000
# 2 -0.000720 0.014845 -0.000808 0.000000 0.000000 0.000000
# 3 -0.001299 -0.000808 0.007483 0.000000 0.000000 0.000000
# 4 0.000000 0.000000 0.000000 0.031825 0.000000 0.000000
# 5 0.000000 0.000000 0.000000 0.000000 0.032611 0.000000
# 6 0.000000 0.000000 0.000000 0.000000 0.000000 -0.095318
#
#
# Mechanical properties :
#
#
# Convention : Reuss Voigt Hill
#
# Bulk Modulus (GPa) = 42.94276 50.97341 46.95808
# Shear Modulus (GPa) = 435.84770 31.59266 233.72018
#
# Velocity S-wave (km/s) = 14.12664 3.80333 10.34474
# Velocity P-wave (km/s) = 16.90398 6.52889 12.81349
#
# Compressibility (1/GPa) = 0.02328681
#
# Stress axis : x y z
#
# Youngs Moduli (GPa) = 151.24949 67.36326 133.63646
#
# Poissons Ratio (x) = 0.04849 0.17357
# Poissons Ratio (y) = 0.10886 0.10794
# Poissons Ratio (z) = 0.19645 0.05441
#
# Static dielectric constant tensor:
#      x y z
#    x 1.917540 0.000000 0.000000 
#    y 0.000000 1.769980 0.000000 
#    z 0.000000 0.000000 2.185620 
# 
# From -- ./inp_files/11985.got.cif
#   From: 2010.05.17/outbox.cif.g08.bks.cpg/sg20_6_cif.got.tgz:11985.got - 2010.06.03 22:52:26.
