data_PCOD9319828
_publ_section_title
;
Structure prediction by ZEFSAII (Michael W. Deem and Ramdas Pophale) SiO2 
 PCOD9319828
Probable space group: C 2 2 21
;
_chemical_formula_sum "Si O2"
_cell_formula_units_Z 28
_cell_length_a 13.531653
_cell_length_b 8.682144
_cell_length_c 9.617697
_cell_angle_alpha 90.000000
_cell_angle_beta 90.000000
_cell_angle_gamma 90.000000
_cell_volume 1129.923205
_symmetry_space_group_name_H-M "C 2 2 21"
_symmetry_group_IT_number 20
_symmetry_cell_setting 'orthorhombic'
loop_
_space_group_symop_operation_xyz
x,y,z
-x,-y,1/2+z
x,-y,-z
-x,y,1/2-z
1/2+x,1/2+y,z
1/2-x,1/2-y,1/2+z
1/2+x,1/2-y,-z
1/2-x,1/2+y,1/2-z
loop_
_atom_site_type_symbol
_atom_site_label
_atom_site_fract_x
_atom_site_fract_y
_atom_site_fract_z
Si Si1 0.500000 0.994251 0.250000
Si Si2 0.648852 0.240729 0.220285
Si Si3 0.457008 0.289075 0.562476
Si Si4 0.845560 0.924864 0.812933
O O1 0.534627 0.881598 0.127139
O O2 0.591445 0.101502 0.295165
O O3 0.747434 0.169674 0.154327
O O4 0.669699 0.392010 0.310426
O O5 0.575029 0.287927 0.095833
O O6 0.375619 0.375725 0.655830
O O7 0.561111 0.369311 0.597584
#
# Coordination Sequence:
#
# PCOD9319828 Si02
#       4
#     4   8   8   8
#     4  10  22  40  64 100 134 172 224 268 328 410
#     4  12  23  43  73 101 138 181 222 284 339 395
#     4  10  23  45  68  99 139 175 219 283 343 398
#     4  10  23  43  67 103 135 176 233 273 332 417
#
# _framework density 24.780446999999999
#
# number of rings (size 3 to 8) (size 9 to 14) (size 15 to 20)
#    0.000    1.714    0.000    6.857    0.000    2.286 
#    0.000   25.714    0.000    0.000    0.000    0.000 
#    0.000    0.000    0.000    0.000    0.000    0.000 
#
# Total GULP energy -78474.407000 kJ/mol
# GULP energy per Si atom -5605.314786 kJ/mol
# Density = 2.472405 g / cm^3
# Si number density = 24.780447 Si / 1000 Ang^3
#
#
#
# Elastic Constant Matrix: (Units=GPa)
#
#
# Indices 1 2 3 4 5 6 
#
# 1 104.3195 48.2177 -7.0796 0.0000 0.0000 0.0000
# 2 48.2177 192.4897 10.9926 0.0000 0.0000 0.0000
# 3 -7.0796 10.9926 54.3816 0.0000 0.0000 0.0000
# 4 0.0000 0.0000 0.0000 33.3046 0.0000 0.0000
# 5 0.0000 0.0000 0.0000 0.0000 19.9340 0.0000
# 6 0.0000 0.0000 0.0000 0.0000 0.0000 40.6104
#
#
#
# Elastic Compliance Matrix: (Units=1/GPa)
#
#
# Indices 1 2 3 4 5 6 
#
# 1 0.011057 -0.002885 0.002023 0.000000 0.000000 0.000000
# 2 -0.002885 0.006009 -0.001590 0.000000 0.000000 0.000000
# 3 0.002023 -0.001590 0.018973 0.000000 0.000000 0.000000
# 4 0.000000 0.000000 0.000000 0.030026 0.000000 0.000000
# 5 0.000000 0.000000 0.000000 0.000000 0.050166 0.000000
# 6 0.000000 0.000000 0.000000 0.000000 0.000000 0.024624
#
#
# Mechanical properties :
#
#
# Convention : Reuss Voigt Hill
#
# Bulk Modulus (GPa) = 32.12002 50.60581 41.36291
# Shear Modulus (GPa) = 32.02306 38.70715 35.36510
#
# Velocity S-wave (km/s) = 3.59872 3.95651 3.78185
# Velocity P-wave (km/s) = 5.50070 6.42946 5.98313
#
# Compressibility (1/GPa) = 0.03113323
#
# Stress axis : x y z
#
# Youngs Moduli (GPa) = 90.44239 166.42766 52.70560
#
# Poissons Ratio (x) = 0.48017 -0.10660
# Poissons Ratio (y) = 0.26094 0.08381
# Poissons Ratio (z) = -0.18293 0.26465
#
# Static dielectric constant tensor:
#      x y z
#    x 1.957770 0.000000 0.000000 
#    y 0.000000 2.005830 0.000000 
#    z 0.000000 0.000000 1.972760 
# 
# From -- ./inp_files/12391.got.cif
#   From: 2010.05.17/outbox.cif.g08.bks.cpg/sg20_7_cif.got.tgz:12391.got - 2010.06.03 22:52:26.
