data_PCOD9319435
_publ_section_title
;
Structure prediction by ZEFSAII (Michael W. Deem and Ramdas Pophale) SiO2 
 PCOD9319435
Probable space group: C 2 2 21
;
_chemical_formula_sum "Si O2"
_cell_formula_units_Z 32
_cell_length_a 18.115538
_cell_length_b 4.998715
_cell_length_c 13.983857
_cell_angle_alpha 90.000000
_cell_angle_beta 90.000000
_cell_angle_gamma 90.000000
_cell_volume 1266.299942
_symmetry_space_group_name_H-M "C 2 2 21"
_symmetry_group_IT_number 20
_symmetry_cell_setting 'orthorhombic'
loop_
_space_group_symop_operation_xyz
x,y,z
-x,-y,1/2+z
x,-y,-z
-x,y,1/2-z
1/2+x,1/2+y,z
1/2-x,1/2-y,1/2+z
1/2+x,1/2-y,-z
1/2-x,1/2+y,1/2-z
loop_
_atom_site_type_symbol
_atom_site_label
_atom_site_fract_x
_atom_site_fract_y
_atom_site_fract_z
Si Si1 0.806269 0.254147 0.068327
Si Si2 0.855597 0.665809 0.401497
Si Si3 0.513211 0.264065 0.433526
Si Si4 0.580091 0.894026 0.279415
O O1 0.723586 0.304102 0.108908
O O2 0.865602 0.230279 0.152396
O O3 0.826743 0.500000 0.000000
O O4 0.801788 0.000000 0.000000
O O5 0.852588 0.500000 0.500000
O O6 0.929421 0.844862 0.405524
O O7 0.873933 0.472976 0.313449
O O8 0.542693 0.500000 0.500000
O O9 0.556898 0.158437 0.341290
O O10 0.507479 0.000000 0.500000
O O11 0.500000 0.775876 0.250000
#
# Coordination Sequence:
#
# PCOD9319435 Si02
#       4
#     8   8   8   8
#     4  11  25  47  73 104 142 187 237 294 353 420
#     4   9  21  44  72 104 144 189 238 292 350 416
#     4  10  21  42  69 101 139 181 230 287 345 410
#     4  10  23  45  74 107 143 187 236 291 356 422
#
# _framework density 25.270474
#
# number of rings (size 3 to 8) (size 9 to 14) (size 15 to 20)
#    0.000    2.000    0.000    1.500    0.000    9.000 
#    0.000   42.500    0.000    7.500    0.000    0.000 
#    0.000    0.000    0.000    0.000    0.000    0.000 
#
# Total GULP energy -89601.645418 kJ/mol
# GULP energy per Si atom -5600.102839 kJ/mol
# Density = 2.521296 g / cm^3
# Si number density = 25.270474 Si / 1000 Ang^3
#
#
#
# Elastic Constant Matrix: (Units=GPa)
#
#
# Indices 1 2 3 4 5 6 
#
# 1 193.3755 -0.9100 65.0867 0.0000 0.0000 0.0000
# 2 -0.9100 88.4802 32.3130 0.0000 0.0000 0.0000
# 3 65.0867 32.3130 173.6480 0.0000 0.0000 0.0000
# 4 0.0000 0.0000 0.0000 37.5264 0.0000 0.0000
# 5 0.0000 0.0000 0.0000 0.0000 -190.5540 0.0000
# 6 0.0000 0.0000 0.0000 0.0000 0.0000 28.3122
#
#
#
# Elastic Compliance Matrix: (Units=1/GPa)
#
#
# Indices 1 2 3 4 5 6 
#
# 1 0.005991 0.000946 -0.002421 0.000000 0.000000 0.000000
# 2 0.000946 0.012275 -0.002639 0.000000 0.000000 0.000000
# 3 -0.002421 -0.002639 0.007157 0.000000 0.000000 0.000000
# 4 0.000000 0.000000 0.000000 0.026648 0.000000 0.000000
# 5 0.000000 0.000000 0.000000 0.000000 -0.005248 0.000000
# 6 0.000000 0.000000 0.000000 0.000000 0.000000 0.035321
#
#
# Mechanical properties :
#
#
# Convention : Reuss Voigt Hill
#
# Bulk Modulus (GPa) = 58.15680 72.05367 65.10524
# Shear Modulus (GPa) = 52.02670 -1.00884 25.50893
#
# Velocity S-wave (km/s) = 4.54232 -0.63252 3.18061
# Velocity P-wave (km/s) = 7.11153 5.29542 6.26958
#
# Compressibility (1/GPa) = 0.01719489
#
# Stress axis : x y z
#
# Youngs Moduli (GPa) = 166.92361 81.46387 139.71491
#
# Poissons Ratio (x) = -0.07706 0.33832
# Poissons Ratio (y) = -0.15790 0.36868
# Poissons Ratio (z) = 0.40420 0.21497
#
# Static dielectric constant tensor:
#      x y z
#    x 2.039460 0.000000 0.000000 
#    y 0.000000 2.033930 0.000000 
#    z 0.000000 0.000000 1.971270 
# 
# From -- ./inp_files/21019.got.cif
#   From: 2010.05.17/outbox.cif.g08.bks.cpg/sg20_11_cif.got.tgz:21019.got - 2010.06.03 22:52:26.
