data_PCOD9319538
_publ_section_title
;
Structure prediction by ZEFSAII (Michael W. Deem and Ramdas Pophale) SiO2 
 PCOD9319538
Probable space group: C 2 2 21
;
_chemical_formula_sum "Si O2"
_cell_formula_units_Z 48
_cell_length_a 7.693391
_cell_length_b 32.648775
_cell_length_c 7.921954
_cell_angle_alpha 90.000000
_cell_angle_beta 90.000000
_cell_angle_gamma 90.000000
_cell_volume 1989.834756
_symmetry_space_group_name_H-M "C 2 2 21"
_symmetry_group_IT_number 20
_symmetry_cell_setting 'orthorhombic'
loop_
_space_group_symop_operation_xyz
x,y,z
-x,-y,1/2+z
x,-y,-z
-x,y,1/2-z
1/2+x,1/2+y,z
1/2-x,1/2-y,1/2+z
1/2+x,1/2-y,-z
1/2-x,1/2+y,1/2-z
loop_
_atom_site_type_symbol
_atom_site_label
_atom_site_fract_x
_atom_site_fract_y
_atom_site_fract_z
Si Si1 0.720570 0.500000 0.000000
Si Si2 0.500000 0.444442 0.250000
Si Si3 0.000000 0.123634 0.250000
Si Si4 0.375414 0.227827 0.093603
Si Si5 0.245634 0.875954 0.218109
Si Si6 0.519866 0.311837 0.001661
Si Si7 0.000000 0.686988 0.750000
Si Si8 0.152360 0.581909 0.379430
O O1 0.595043 0.527243 0.883543
O O2 0.836531 0.467075 0.901143
O O3 0.646161 0.412274 0.313537
O O4 0.076497 0.155917 0.384025
O O5 0.841281 0.096671 0.314706
O O6 0.500000 0.214505 0.250000
O O7 0.176470 0.212231 0.098684
O O8 0.400931 0.276880 0.083062
O O9 0.434415 0.212201 0.909270
O O10 0.359887 0.844971 0.322736
O O11 0.119921 0.843683 0.122810
O O12 0.353954 0.897822 0.066186
O O13 0.000000 0.593492 0.250000
#
# Coordination Sequence:
#
# PCOD9319538 Si02
#       8
#     4   4   4   8   8   8   4   8
#     4  10  22  46  70 112 144 172 244 280 370 460
#     4  10  21  44  72  97 140 178 218 299 342 434
#     4  10  22  44  72 102 140 186 244 288 360 436
#     4  11  26  43  67 100 141 189 242 306 363 416
#     4   9  22  43  64 101 136 176 242 285 355 425
#     4  10  24  42  64 101 136 184 242 292 351 429
#     4  10  23  46  64  95 144 186 238 297 356 434
#     4  10  22  47  72 107 143 184 233 296 359 442
#
# _framework density 24.122608
#
# number of rings (size 3 to 8) (size 9 to 14) (size 15 to 20)
#    0.000    2.000    0.000    1.000    8.167    6.000 
#   24.000    0.833    0.000    0.000    0.000    0.000 
#    0.000    0.000    0.000    0.000    0.000    0.000 
#
# Total GULP energy -134047.226182 kJ/mol
# GULP energy per Si atom -5585.301091 kJ/mol
# Density = 2.406770 g / cm^3
# Si number density = 24.122608 Si / 1000 Ang^3
#
#
#
# Elastic Constant Matrix: (Units=GPa)
#
#
# Indices 1 2 3 4 5 6 
#
# 1 53.1196 36.5321 29.4522 0.0000 0.0000 0.0000
# 2 36.5321 158.9979 30.1659 0.0000 0.0000 0.0000
# 3 29.4522 30.1659 55.2489 0.0000 0.0000 0.0000
# 4 0.0000 0.0000 0.0000 19.6159 0.0000 0.0000
# 5 0.0000 0.0000 0.0000 0.0000 34.5563 0.0000
# 6 0.0000 0.0000 0.0000 0.0000 0.0000 -9.2019
#
#
#
# Elastic Compliance Matrix: (Units=1/GPa)
#
#
# Indices 1 2 3 4 5 6 
#
# 1 0.028998 -0.004161 -0.013187 0.000000 0.000000 0.000000
# 2 -0.004161 0.007613 -0.001939 0.000000 0.000000 0.000000
# 3 -0.013187 -0.001939 0.026188 0.000000 0.000000 0.000000
# 4 0.000000 0.000000 0.000000 0.050979 0.000000 0.000000
# 5 0.000000 0.000000 0.000000 0.000000 0.028938 0.000000
# 6 0.000000 0.000000 0.000000 0.000000 0.000000 -0.108673
#
#
# Mechanical properties :
#
#
# Convention : Reuss Voigt Hill
#
# Bulk Modulus (GPa) = 41.27619 51.07408 46.17513
# Shear Modulus (GPa) = 61.96390 20.40848 41.18619
#
# Velocity S-wave (km/s) = 5.07374 2.91182 4.13651
# Velocity P-wave (km/s) = 7.17439 5.70294 6.48057
#
# Compressibility (1/GPa) = 0.02422704
#
# Stress axis : x y z
#
# Youngs Moduli (GPa) = 34.48470 131.34996 38.18549
#
# Poissons Ratio (x) = 0.54654 0.50354
# Poissons Ratio (y) = 0.14349 0.07403
# Poissons Ratio (z) = 0.45474 0.25465
#
# Static dielectric constant tensor:
#      x y z
#    x 2.014280 0.000000 0.000000 
#    y 0.000000 1.883640 0.000000 
#    z 0.000000 0.000000 2.070270 
# 
# From -- ./inp_files/6614.got.cif
#   From: 2010.05.17/outbox.cif.g08.bks.cpg/sg20_4_cif.got.tgz:6614.got - 2010.06.03 22:52:26.
