data_PCOD9319954
_publ_section_title
;
Structure prediction by ZEFSAII (Michael W. Deem and Ramdas Pophale) SiO2 
 PCOD9319954
Probable space group: C 2 2 21
;
_chemical_formula_sum "Si O2"
_cell_formula_units_Z 60
_cell_length_a 11.746733
_cell_length_b 21.295359
_cell_length_c 10.710763
_cell_angle_alpha 90.000000
_cell_angle_beta 90.000000
_cell_angle_gamma 90.000000
_cell_volume 2679.306965
_symmetry_space_group_name_H-M "C 2 2 21"
_symmetry_group_IT_number 20
_symmetry_cell_setting 'orthorhombic'
loop_
_space_group_symop_operation_xyz
x,y,z
-x,-y,1/2+z
x,-y,-z
-x,y,1/2-z
1/2+x,1/2+y,z
1/2-x,1/2-y,1/2+z
1/2+x,1/2-y,-z
1/2-x,1/2+y,1/2-z
loop_
_atom_site_type_symbol
_atom_site_label
_atom_site_fract_x
_atom_site_fract_y
_atom_site_fract_z
Si Si1 0.082430 0.146336 0.418956
Si Si2 0.774105 0.425220 0.713181
Si Si3 0.877015 0.326710 0.893894
Si Si4 0.000000 0.621257 0.750000
Si Si5 0.819785 0.281006 0.144848
Si Si6 0.896663 0.804503 0.182652
Si Si7 0.036550 0.435216 0.994437
Si Si8 0.578680 0.461997 0.869577
O O1 0.166299 0.095187 0.365193
O O2 0.113185 0.214191 0.357581
O O3 0.124032 0.155961 0.560047
O O4 0.960856 0.111437 0.397960
O O5 0.821497 0.362067 0.778282
O O6 0.865651 0.447312 0.609896
O O7 0.711136 0.464909 0.822684
O O8 0.943138 0.262885 0.864539
O O9 0.791897 0.302332 0.002477
O O10 0.964043 0.377873 0.943997
O O11 0.094391 0.666471 0.692820
O O12 0.059476 0.582536 0.861597
O O13 0.709754 0.286254 0.232065
O O14 0.000000 0.837991 0.250000
O O15 0.967693 0.500000 0.000000
O O16 0.500000 0.483390 0.750000
O O17 0.562878 0.500000 0.000000
#
# Coordination Sequence:
#
# PCOD9319954 Si02
#       8
#     8   8   8   4   8   8   8   8
#     4  10  23  41  67  99 132 187 227 287 367 427
#     4  11  22  42  68  98 134 178 233 285 360 424
#     4  10  23  41  64  98 137 176 223 286 346 427
#     4  10  24  44  68 102 144 178 242 296 336 434
#     4  10  22  41  65 103 137 179 230 288 354 426
#     4  11  22  39  68 101 140 176 226 293 359 435
#     4  11  25  44  69  99 136 189 233 289 357 423
#     4  10  25  47  69 100 137 189 246 302 360 430
#
# _framework density 22.393851000000002
#
# number of rings (size 3 to 8) (size 9 to 14) (size 15 to 20)
#    0.000    1.600    1.333    2.000    6.533    3.200 
#    7.200    0.000    0.000    0.000    0.000    0.000 
#    0.000    0.000    0.000    0.000    0.000    0.000 
#
# Total GULP energy -167040.080313 kJ/mol
# GULP energy per Si atom -5568.002677 kJ/mol
# Density = 2.234288 g / cm^3
# Si number density = 22.393851 Si / 1000 Ang^3
#
#
#
# Elastic Constant Matrix: (Units=GPa)
#
#
# Indices 1 2 3 4 5 6 
#
# 1 62.1754 23.1646 38.1462 0.0000 0.0000 0.0000
# 2 23.1646 73.8158 41.6910 0.0000 0.0000 0.0000
# 3 38.1462 41.6910 134.7733 0.0000 0.0000 0.0000
# 4 0.0000 0.0000 0.0000 16.3768 0.0000 0.0000
# 5 0.0000 0.0000 0.0000 0.0000 33.9041 0.0000
# 6 0.0000 0.0000 0.0000 0.0000 0.0000 246.7583
#
#
#
# Elastic Compliance Matrix: (Units=1/GPa)
#
#
# Indices 1 2 3 4 5 6 
#
# 1 0.020301 -0.003787 -0.004574 0.000000 0.000000 0.000000
# 2 -0.003787 0.017122 -0.004225 0.000000 0.000000 0.000000
# 3 -0.004574 -0.004225 0.010021 0.000000 0.000000 0.000000
# 4 0.000000 0.000000 0.000000 0.061062 0.000000 0.000000
# 5 0.000000 0.000000 0.000000 0.000000 0.029495 0.000000
# 6 0.000000 0.000000 0.000000 0.000000 0.000000 0.004053
#
#
# Mechanical properties :
#
#
# Convention : Reuss Voigt Hill
#
# Bulk Modulus (GPa) = 44.89967 52.97423 48.93695
# Shear Modulus (GPa) = 28.62867 70.59202 49.61034
#
# Velocity S-wave (km/s) = 3.57937 5.62062 4.71186
# Velocity P-wave (km/s) = 6.09722 8.11350 7.17652
#
# Compressibility (1/GPa) = 0.02227188
#
# Stress axis : x y z
#
# Youngs Moduli (GPa) = 49.25848 58.40539 99.78593
#
# Poissons Ratio (x) = 0.22119 0.45647
# Poissons Ratio (y) = 0.18655 0.42155
# Poissons Ratio (z) = 0.22533 0.24674
#
# Static dielectric constant tensor:
#      x y z
#    x 1.882960 0.000000 0.000000 
#    y 0.000000 1.810970 0.000000 
#    z 0.000000 0.000000 2.017480 
# 
# From -- ./inp_files/14392.got.cif
#   From: 2010.05.17/outbox.cif.g08.bks.cpg/sg20_8_cif.got.tgz:14392.got - 2010.06.03 22:52:26.
