data_PCOD9319764
_publ_section_title
;
Structure prediction by ZEFSAII (Michael W. Deem and Ramdas Pophale) SiO2 
 PCOD9319764
Probable space group: C 2 2 21
;
_chemical_formula_sum "Si O2"
_cell_formula_units_Z 48
_cell_length_a 22.890288
_cell_length_b 7.409183
_cell_length_c 12.321205
_cell_angle_alpha 90.000000
_cell_angle_beta 90.000000
_cell_angle_gamma 90.000000
_cell_volume 2089.655825
_symmetry_space_group_name_H-M "C 2 2 21"
_symmetry_group_IT_number 20
_symmetry_cell_setting 'orthorhombic'
loop_
_space_group_symop_operation_xyz
x,y,z
-x,-y,1/2+z
x,-y,-z
-x,y,1/2-z
1/2+x,1/2+y,z
1/2-x,1/2-y,1/2+z
1/2+x,1/2-y,-z
1/2-x,1/2+y,1/2-z
loop_
_atom_site_type_symbol
_atom_site_label
_atom_site_fract_x
_atom_site_fract_y
_atom_site_fract_z
Si Si1 0.968447 0.695226 0.511646
Si Si2 0.915044 0.802184 0.905761
Si Si3 0.127960 0.204178 0.849549
Si Si4 0.272624 0.713705 0.473382
Si Si5 0.628254 0.269515 0.822043
Si Si6 0.146863 0.805391 0.395242
O O1 0.996184 0.500000 0.500000
O O2 0.935268 0.748626 0.400833
O O3 0.914896 0.676945 0.594178
O O4 0.016056 0.820637 0.571333
O O5 0.894097 0.711606 0.795220
O O6 0.883067 0.996258 0.891427
O O7 0.891756 0.709703 0.014207
O O8 0.142637 0.266536 0.727330
O O9 0.124723 0.985648 0.843981
O O10 0.181215 0.263097 0.930183
O O11 0.262621 0.500000 0.500000
O O12 0.306167 0.761451 0.361101
O O13 0.210389 0.803155 0.450870
#
# Coordination Sequence:
#
# PCOD9319764 Si02
#       6
#     8   8   8   8   8   8
#     4  11  23  43  65  96 134 168 220 279 334 393
#     4  10  23  41  63  97 127 171 226 267 322 390
#     4   9  21  42  68  95 129 179 220 266 334 394
#     4   9  19  39  65  95 135 170 215 276 329 389
#     4   9  20  43  71  93 125 180 220 269 334 387
#     4  10  22  39  64  99 127 178 221 264 324 395
#
# _framework density 22.970289000000001
#
# number of rings (size 3 to 8) (size 9 to 14) (size 15 to 20)
#    0.000    2.333    0.000    2.000    7.000    1.333 
#   21.000    0.000    0.000    0.000    0.000    0.000 
#    0.000    0.000    0.000    0.000    0.000    0.000 
#
# Total GULP energy -133640.496674 kJ/mol
# GULP energy per Si atom -5568.354028 kJ/mol
# Density = 2.291801 g / cm^3
# Si number density = 22.970289 Si / 1000 Ang^3
#
#
#
# Elastic Constant Matrix: (Units=GPa)
#
#
# Indices 1 2 3 4 5 6 
#
# 1 114.8318 27.8421 6.7131 0.0000 0.0000 0.0000
# 2 27.8421 60.8779 6.7182 0.0000 0.0000 0.0000
# 3 6.7131 6.7182 133.5026 0.0000 0.0000 0.0000
# 4 0.0000 0.0000 0.0000 2.2024 0.0000 0.0000
# 5 0.0000 0.0000 0.0000 0.0000 86.7475 0.0000
# 6 0.0000 0.0000 0.0000 0.0000 0.0000 34.5620
#
#
#
# Elastic Compliance Matrix: (Units=1/GPa)
#
#
# Indices 1 2 3 4 5 6 
#
# 1 0.009804 -0.004454 -0.000269 0.000000 0.000000 0.000000
# 2 -0.004454 0.018542 -0.000709 0.000000 0.000000 0.000000
# 3 -0.000269 -0.000709 0.007540 0.000000 0.000000 0.000000
# 4 0.000000 0.000000 0.000000 0.454043 0.000000 0.000000
# 5 0.000000 0.000000 0.000000 0.000000 0.011528 0.000000
# 6 0.000000 0.000000 0.000000 0.000000 0.000000 0.028934
#
#
# Mechanical properties :
#
#
# Convention : Reuss Voigt Hill
#
# Bulk Modulus (GPa) = 39.96606 43.52879 41.74743
# Shear Modulus (GPa) = 9.09762 42.56497 25.83130
#
# Velocity S-wave (km/s) = 1.99229 4.30937 3.35707
# Velocity P-wave (km/s) = 4.76750 6.61454 5.76546
#
# Compressibility (1/GPa) = 0.02502123
#
# Stress axis : x y z
#
# Youngs Moduli (GPa) = 101.99855 53.93262 132.63141
#
# Poissons Ratio (x) = 0.24022 0.03566
# Poissons Ratio (y) = 0.45432 0.09405
# Poissons Ratio (z) = 0.02742 0.03824
#
# Static dielectric constant tensor:
#      x y z
#    x 1.855900 0.000000 0.000000 
#    y 0.000000 1.840940 0.000000 
#    z 0.000000 0.000000 1.868350 
# 
# From -- ./inp_files/21653.got.cif
#   From: 2010.05.17/outbox.cif.g08.bks.cpg/sg20_11_cif.got.tgz:21653.got - 2010.06.03 22:52:26.
