data_PCOD9319201
_publ_section_title
;
Structure prediction by ZEFSAII (Michael W. Deem and Ramdas Pophale) SiO2 
 PCOD9319201
Probable space group: C 2 2 21
;
_chemical_formula_sum "Si O2"
_cell_formula_units_Z 48
_cell_length_a 19.103942
_cell_length_b 8.379003
_cell_length_c 15.101086
_cell_angle_alpha 90.000000
_cell_angle_beta 90.000000
_cell_angle_gamma 90.000000
_cell_volume 2417.260847
_symmetry_space_group_name_H-M "C 2 2 21"
_symmetry_group_IT_number 20
_symmetry_cell_setting 'orthorhombic'
loop_
_space_group_symop_operation_xyz
x,y,z
-x,-y,1/2+z
x,-y,-z
-x,y,1/2-z
1/2+x,1/2+y,z
1/2-x,1/2-y,1/2+z
1/2+x,1/2-y,-z
1/2-x,1/2+y,1/2-z
loop_
_atom_site_type_symbol
_atom_site_label
_atom_site_fract_x
_atom_site_fract_y
_atom_site_fract_z
Si Si1 0.601028 0.381751 0.080573
Si Si2 0.596967 0.690761 0.176112
Si Si3 0.023587 0.691656 0.348980
Si Si4 0.201780 0.684303 0.971807
Si Si5 0.443395 0.182426 0.863290
Si Si6 0.863997 0.182739 0.969657
O O1 0.607725 0.501088 0.163436
O O2 0.541609 0.249686 0.092220
O O3 0.581491 0.500000 0.000000
O O4 0.671381 0.294352 0.050414
O O5 0.653744 0.776941 0.113420
O O6 0.597540 0.753892 0.276445
O O7 0.518875 0.731021 0.140521
O O8 0.040346 0.504931 0.356032
O O9 0.090798 0.787422 0.382252
O O10 0.000000 0.727521 0.250000
O O11 0.282876 0.723107 0.956235
O O12 0.195418 0.500000 0.000000
O O13 0.400555 0.217458 0.951863
O O14 0.868528 0.000000 0.000000
#
# Coordination Sequence:
#
# PCOD9319201 Si02
#       6
#     8   8   8   8   8   8
#     4  10  22  39  67  95 125 174 211 261 325 383
#     4  10  21  40  64  96 128 165 217 266 319 380
#     4  12  24  40  66 100 127 167 217 266 325 378
#     4  10  22  43  65  93 133 173 215 260 322 388
#     4  11  23  42  65  97 131 164 217 274 316 377
#     4  11  25  44  65  97 131 174 214 266 325 387
#
# _framework density 19.857187
#
# number of rings (size 3 to 8) (size 9 to 14) (size 15 to 20)
#    0.000    1.333    1.667    5.000    4.667    4.000 
#    3.000    0.000    0.000    0.000    0.000    0.000 
#    0.000    0.000    0.000    0.000    0.000    0.000 
#
# Total GULP energy -134142.814803 kJ/mol
# GULP energy per Si atom -5589.283950 kJ/mol
# Density = 1.981199 g / cm^3
# Si number density = 19.857187 Si / 1000 Ang^3
#
#
#
# Elastic Constant Matrix: (Units=GPa)
#
#
# Indices 1 2 3 4 5 6 
#
# 1 151.5139 44.4326 67.9767 0.0000 0.0000 0.0000
# 2 44.4326 87.9168 50.5494 0.0000 0.0000 0.0000
# 3 67.9767 50.5494 97.4699 0.0000 0.0000 0.0000
# 4 0.0000 0.0000 0.0000 31.9524 0.0000 0.0000
# 5 0.0000 0.0000 0.0000 0.0000 11.0679 0.0000
# 6 0.0000 0.0000 0.0000 0.0000 0.0000 30.5936
#
#
#
# Elastic Compliance Matrix: (Units=1/GPa)
#
#
# Indices 1 2 3 4 5 6 
#
# 1 0.009733 -0.001448 -0.006037 0.000000 0.000000 0.000000
# 2 -0.001448 0.016423 -0.007507 0.000000 0.000000 0.000000
# 3 -0.006037 -0.007507 0.018363 0.000000 0.000000 0.000000
# 4 0.000000 0.000000 0.000000 0.031297 0.000000 0.000000
# 5 0.000000 0.000000 0.000000 0.000000 0.090352 0.000000
# 6 0.000000 0.000000 0.000000 0.000000 0.000000 0.032687
#
#
# Mechanical properties :
#
#
# Convention : Reuss Voigt Hill
#
# Bulk Modulus (GPa) = 68.80159 73.64644 71.22402
# Shear Modulus (GPa) = 21.39648 26.31891 23.85770
#
# Velocity S-wave (km/s) = 3.28612 3.64457 3.46997
# Velocity P-wave (km/s) = 7.00867 7.40804 7.21112
#
# Compressibility (1/GPa) = 0.01453455
#
# Stress axis : x y z
#
# Youngs Moduli (GPa) = 102.74068 60.89185 54.45650
#
# Poissons Ratio (x) = 0.08817 0.32876
# Poissons Ratio (y) = 0.14876 0.40881
# Poissons Ratio (z) = 0.62026 0.45713
#
# Static dielectric constant tensor:
#      x y z
#    x 1.672260 0.000000 0.000000 
#    y 0.000000 1.706560 0.000000 
#    z 0.000000 0.000000 1.737100 
# 
# From -- ./inp_files/21269.got.cif
#   From: 2010.05.17/outbox.cif.g08.bks.cpg/sg20_11_cif.got.tgz:21269.got - 2010.06.03 22:52:26.
