data_PCOD9319622
_publ_section_title
;
Structure prediction by ZEFSAII (Michael W. Deem and Ramdas Pophale) SiO2 
 PCOD9319622
Probable space group: C 2 2 21
;
_chemical_formula_sum "Si O2"
_cell_formula_units_Z 52
_cell_length_a 5.140930
_cell_length_b 19.301172
_cell_length_c 26.167301
_cell_angle_alpha 90.000000
_cell_angle_beta 90.000000
_cell_angle_gamma 90.000000
_cell_volume 2596.475933
_symmetry_space_group_name_H-M "C 2 2 21"
_symmetry_group_IT_number 20
_symmetry_cell_setting 'orthorhombic'
loop_
_space_group_symop_operation_xyz
x,y,z
-x,-y,1/2+z
x,-y,-z
-x,y,1/2-z
1/2+x,1/2+y,z
1/2-x,1/2-y,1/2+z
1/2+x,1/2-y,-z
1/2-x,1/2+y,1/2-z
loop_
_atom_site_type_symbol
_atom_site_label
_atom_site_fract_x
_atom_site_fract_y
_atom_site_fract_z
Si Si1 0.098603 0.851846 0.648929
Si Si2 0.016496 0.182938 0.457249
Si Si3 0.599128 0.081690 0.308234
Si Si4 0.500000 0.657628 0.750000
Si Si5 0.323965 0.793969 0.336458
Si Si6 0.381744 0.924315 0.192387
Si Si7 0.018901 0.226079 0.563009
O O1 0.051539 0.870317 0.589116
O O2 0.394714 0.869383 0.662333
O O3 0.893448 0.893387 0.683694
O O4 0.010627 0.772213 0.657107
O O5 0.051185 0.169407 0.517628
O O6 0.234613 0.240913 0.442923
O O7 0.729958 0.214713 0.450899
O O8 0.500000 0.082981 0.250000
O O9 0.592803 0.001984 0.326727
O O10 0.295379 0.705637 0.779334
O O11 0.400676 0.606348 0.705480
O O12 0.479139 0.865801 0.340547
O O13 0.103251 0.793163 0.380057
O O14 0.500000 0.924072 0.250000
#
# Coordination Sequence:
#
# PCOD9319622 Si02
#       7
#     8   8   8   4   8   8   8
#     4  11  23  37  59  89 120 148 197 247 301 336
#     4   9  18  35  54  86 116 152 187 242 290 356
#     4  11  25  39  57  82 119 163 197 233 291 366
#     4  10  22  36  62  84 122 154 202 248 292 352
#     4  10  22  36  59  90 115 151 195 251 297 344
#     4   9  22  39  57  78 114 161 203 230 283 358
#     4   9  18  33  59  83 117 149 194 234 296 350
#
# _framework density 20.027144
#
# number of rings (size 3 to 8) (size 9 to 14) (size 15 to 20)
#    0.000    2.154    0.000    2.308   14.000    2.462 
#    0.000    0.000    0.000    0.923    0.000    0.000 
#    0.000    0.000    0.000    0.000    0.000    0.000 
#
# Total GULP energy -144873.785629 kJ/mol
# GULP energy per Si atom -5572.068678 kJ/mol
# Density = 1.998156 g / cm^3
# Si number density = 20.027144 Si / 1000 Ang^3
#
#
#
# Elastic Constant Matrix: (Units=GPa)
#
#
# Indices 1 2 3 4 5 6 
#
# 1 54.9801 6.5867 8.3953 0.0000 0.0000 0.0000
# 2 6.5867 65.4062 34.1212 0.0000 0.0000 0.0000
# 3 8.3953 34.1212 57.0883 0.0000 0.0000 0.0000
# 4 0.0000 0.0000 0.0000 -0.0225 0.0000 0.0000
# 5 0.0000 0.0000 0.0000 0.0000 23.1243 0.0000
# 6 0.0000 0.0000 0.0000 0.0000 0.0000 16.2361
#
#
#
# Elastic Compliance Matrix: (Units=1/GPa)
#
#
# Indices 1 2 3 4 5 6 
#
# 1 0.018625 -0.000649 -0.002351 0.000000 0.000000 0.000000
# 2 -0.000649 0.022239 -0.013196 0.000000 0.000000 0.000000
# 3 -0.002351 -0.013196 0.025750 0.000000 0.000000 0.000000
# 4 0.000000 0.000000 0.000000-44.378050 0.000000 0.000000
# 5 0.000000 0.000000 0.000000 0.000000 0.043245 0.000000
# 6 0.000000 0.000000 0.000000 0.000000 0.000000 0.061591
#
#
# Mechanical properties :
#
#
# Convention : Reuss Voigt Hill
#
# Bulk Modulus (GPa) = 29.22217 30.63121 29.92669
# Shear Modulus (GPa) = -0.11322 16.42567 8.15622
#
# Velocity S-wave (km/s) = -0.23802 2.86697 2.02025
# Velocity P-wave (km/s) = 3.81411 5.12712 4.51856
#
# Compressibility (1/GPa) = 0.03422060
#
# Stress axis : x y z
#
# Youngs Moduli (GPa) = 53.69077 44.96651 38.83514
#
# Poissons Ratio (x) = 0.02919 0.09130
# Poissons Ratio (y) = 0.03485 0.51249
# Poissons Ratio (z) = 0.12623 0.59340
#
# Static dielectric constant tensor:
#      x y z
#    x 1.790490 0.000000 0.000000 
#    y 0.000000 1.695090 0.000000 
#    z 0.000000 0.000000 1.785440 
# 
# From -- ./inp_files/29909.got.cif
#   From: 2010.05.17/outbox.cif.g08.bks.cpg/sg20_15_cif.got.tgz:29909.got - 2010.06.03 22:52:26.
