data_PCOD9319257
_publ_section_title
;
Structure prediction by ZEFSAII (Michael W. Deem and Ramdas Pophale) SiO2 
 PCOD9319257
Probable space group: C 2 2 21
;
_chemical_formula_sum "Si O2"
_cell_formula_units_Z 56
_cell_length_a 20.633193
_cell_length_b 8.858925
_cell_length_c 14.592808
_cell_angle_alpha 90.000000
_cell_angle_beta 90.000000
_cell_angle_gamma 90.000000
_cell_volume 2667.388865
_symmetry_space_group_name_H-M "C 2 2 21"
_symmetry_group_IT_number 20
_symmetry_cell_setting 'orthorhombic'
loop_
_space_group_symop_operation_xyz
x,y,z
-x,-y,1/2+z
x,-y,-z
-x,y,1/2-z
1/2+x,1/2+y,z
1/2-x,1/2-y,1/2+z
1/2+x,1/2-y,-z
1/2-x,1/2+y,1/2-z
loop_
_atom_site_type_symbol
_atom_site_label
_atom_site_fract_x
_atom_site_fract_y
_atom_site_fract_z
Si Si1 0.036275 0.854737 0.445641
Si Si2 0.826090 0.413219 0.761123
Si Si3 0.691181 0.734972 0.237948
Si Si4 0.427204 0.521174 0.237942
Si Si5 0.092626 0.249312 0.879133
Si Si6 0.702381 0.679685 0.020098
Si Si7 0.654592 0.828312 0.529771
O O1 0.094894 0.775372 0.498107
O O2 0.978590 0.740448 0.422001
O O3 0.009925 0.000000 0.500000
O O4 0.065613 0.918044 0.351438
O O5 0.759207 0.334968 0.728620
O O6 0.814059 0.591212 0.765992
O O7 0.884580 0.373697 0.693212
O O8 0.840570 0.342528 0.860104
O O9 0.629352 0.641524 0.271748
O O10 0.691516 0.716100 0.126978
O O11 0.500000 0.586639 0.250000
O O12 0.409854 0.409656 0.322746
O O13 0.146201 0.247007 0.958043
O O14 0.775602 0.729701 0.996009
O O15 0.701652 0.500000 0.000000
O O16 0.644666 0.000000 0.500000
#
# Coordination Sequence:
#
# PCOD9319257 Si02
#       7
#     8   8   8   8   8   8   8
#     4  11  25  43  70 101 133 181 228 281 349 414
#     4  11  25  42  70  98 134 182 225 287 348 412
#     4  11  24  42  67 102 132 176 233 281 346 412
#     4  10  22  41  68  98 132 182 229 276 341 415
#     4  11  22  45  70  95 137 180 223 281 344 412
#     4  10  21  40  70  96 130 173 224 284 337 401
#     4  10  24  44  63  99 134 176 222 287 351 395
#
# _framework density 20.994313999999999
#
# number of rings (size 3 to 8) (size 9 to 14) (size 15 to 20)
#    0.000    1.429    2.857    1.286   10.000    0.571 
#    5.143    0.000    0.000    0.000    0.000    0.000 
#    0.000    0.000    0.000    0.000    0.000    0.000 
#
# Total GULP energy -156510.080130 kJ/mol
# GULP energy per Si atom -5589.645719 kJ/mol
# Density = 2.094653 g / cm^3
# Si number density = 20.994314 Si / 1000 Ang^3
#
#
#
# Elastic Constant Matrix: (Units=GPa)
#
#
# Indices 1 2 3 4 5 6 
#
# 1 127.9611 42.6102 20.5699 0.0000 0.0000 0.0000
# 2 42.6102 41.6715 -17.3871 0.0000 0.0000 0.0000
# 3 20.5699 -17.3871 59.0759 0.0000 0.0000 0.0000
# 4 0.0000 0.0000 0.0000 26.0014 0.0000 0.0000
# 5 0.0000 0.0000 0.0000 0.0000 29.7267 0.0000
# 6 0.0000 0.0000 0.0000 0.0000 0.0000 25.6597
#
#
#
# Elastic Compliance Matrix: (Units=1/GPa)
#
#
# Indices 1 2 3 4 5 6 
#
# 1 0.017853 -0.023768 -0.013212 0.000000 0.000000 0.000000
# 2 -0.023768 0.058999 0.025640 0.000000 0.000000 0.000000
# 3 -0.013212 0.025640 0.029074 0.000000 0.000000 0.000000
# 4 0.000000 0.000000 0.000000 0.038460 0.000000 0.000000
# 5 0.000000 0.000000 0.000000 0.000000 0.033640 0.000000
# 6 0.000000 0.000000 0.000000 0.000000 0.000000 0.038972
#
#
# Mechanical properties :
#
#
# Convention : Reuss Voigt Hill
#
# Bulk Modulus (GPa) = 12.01241 35.58827 23.80034
# Shear Modulus (GPa) = 18.69685 28.47192 23.58438
#
# Velocity S-wave (km/s) = 2.98747 3.68662 3.35531
# Velocity P-wave (km/s) = 4.19931 5.92535 5.13536
#
# Compressibility (1/GPa) = 0.08324727
#
# Stress axis : x y z
#
# Youngs Moduli (GPa) = 56.01228 16.94952 34.39495
#
# Poissons Ratio (x) = 0.40285 0.45442
# Poissons Ratio (y) = 1.33129 -0.88190
# Poissons Ratio (z) = 0.74002 -0.43459
#
# Static dielectric constant tensor:
#      x y z
#    x 1.759230 0.000000 0.000000 
#    y 0.000000 1.703730 0.000000 
#    z 0.000000 0.000000 1.798690 
# 
# From -- ./inp_files/21766.got.cif
#   From: 2010.05.17/outbox.cif.g08.bks.cpg/sg20_11_cif.got.tgz:21766.got - 2010.06.03 22:52:26.
