data_PCOD9319793
_publ_section_title
;
Structure prediction by ZEFSAII (Michael W. Deem and Ramdas Pophale) SiO2 
 PCOD9319793
Probable space group: C 2 2 21
;
_chemical_formula_sum "Si O2"
_cell_formula_units_Z 64
_cell_length_a 8.194576
_cell_length_b 17.370771
_cell_length_c 20.993860
_cell_angle_alpha 90.000000
_cell_angle_beta 90.000000
_cell_angle_gamma 90.000000
_cell_volume 2988.394161
_symmetry_space_group_name_H-M "C 2 2 21"
_symmetry_group_IT_number 20
_symmetry_cell_setting 'orthorhombic'
loop_
_space_group_symop_operation_xyz
x,y,z
-x,-y,1/2+z
x,-y,-z
-x,y,1/2-z
1/2+x,1/2+y,z
1/2-x,1/2-y,1/2+z
1/2+x,1/2-y,-z
1/2-x,1/2+y,1/2-z
loop_
_atom_site_type_symbol
_atom_site_label
_atom_site_fract_x
_atom_site_fract_y
_atom_site_fract_z
Si Si1 0.381117 0.465648 0.189250
Si Si2 0.176341 0.658224 0.981763
Si Si3 0.689923 0.309615 0.897259
Si Si4 0.699047 0.247121 0.107665
Si Si5 0.102241 0.794989 0.314165
Si Si6 0.837294 0.622207 0.980340
Si Si7 0.901128 0.864825 0.815573
Si Si8 0.012566 0.937498 0.450289
O O1 0.500000 0.465449 0.250000
O O2 0.306646 0.378480 0.190239
O O3 0.308482 0.552391 0.188600
O O4 0.471362 0.463328 0.121974
O O5 0.145159 0.735444 0.940492
O O6 0.357146 0.630347 0.964590
O O7 0.025577 0.599954 0.969564
O O8 0.164163 0.681759 0.055449
O O9 0.779287 0.273165 0.835934
O O10 0.536568 0.358609 0.872422
O O11 0.805393 0.356115 0.945655
O O12 0.540205 0.291979 0.132143
O O13 0.808766 0.305771 0.067420
O O14 0.784020 0.205853 0.167201
O O15 0.000000 0.783498 0.250000
O O16 0.678191 0.573702 0.963514
O O17 0.000000 0.855432 0.750000
O O18 0.073952 0.000000 0.500000
#
# Coordination Sequence:
#
# PCOD9319793 Si02
#       8
#     8   8   8   8   8   8   8   8
#     4  10  22  40  60  88 130 170 204 261 332 387
#     4  11  22  37  63  92 128 164 206 271 322 368
#     4  11  20  38  59  91 123 160 215 261 317 379
#     4  11  20  38  59  91 123 160 215 261 317 379
#     4  11  21  37  63  88 123 170 213 257 321 392
#     4  11  22  37  63  92 128 164 206 271 322 368
#     4  11  23  39  63  90 121 164 212 261 311 376
#     4  12  24  42  66  98 126 173 221 258 326 398
#
# _framework density 21.416184000000001
#
# number of rings (size 3 to 8) (size 9 to 14) (size 15 to 20)
#    0.000    1.000    5.000    3.000    3.500    0.500 
#    0.000    0.000    0.000    0.000    0.000    0.000 
#    0.000    0.000    0.000    0.000    0.000    0.000 
#
# Total GULP energy -178227.941050 kJ/mol
# GULP energy per Si atom -5569.623158 kJ/mol
# Density = 2.136744 g / cm^3
# Si number density = 21.416184 Si / 1000 Ang^3
#
#
#
# Elastic Constant Matrix: (Units=GPa)
#
#
# Indices 1 2 3 4 5 6 
#
# 1 45.6811 -15.1640 12.9178 0.0000 0.0000 0.0000
# 2 -15.1640 34.0850 12.1407 0.0000 0.0000 0.0000
# 3 12.9178 12.1407 103.1017 0.0000 0.0000 0.0000
# 4 0.0000 0.0000 0.0000 20.7017 0.0000 0.0000
# 5 0.0000 0.0000 0.0000 0.0000 13.6956 0.0000
# 6 0.0000 0.0000 0.0000 0.0000 0.0000 18.7864
#
#
#
# Elastic Compliance Matrix: (Units=1/GPa)
#
#
# Indices 1 2 3 4 5 6 
#
# 1 0.028139 0.014378 -0.005219 0.000000 0.000000 0.000000
# 2 0.014378 0.037969 -0.006272 0.000000 0.000000 0.000000
# 3 -0.005219 -0.006272 0.011092 0.000000 0.000000 0.000000
# 4 0.000000 0.000000 0.000000 0.048305 0.000000 0.000000
# 5 0.000000 0.000000 0.000000 0.000000 0.073016 0.000000
# 6 0.000000 0.000000 0.000000 0.000000 0.000000 0.053230
#
#
# Mechanical properties :
#
#
# Convention : Reuss Voigt Hill
#
# Bulk Modulus (GPa) = 12.05209 22.51743 17.28476
# Shear Modulus (GPa) = 18.27245 22.16830 20.22037
#
# Velocity S-wave (km/s) = 2.92414 3.22082 3.07606
# Velocity P-wave (km/s) = 4.12802 4.93645 4.55023
#
# Compressibility (1/GPa) = 0.08297317
#
# Stress axis : x y z
#
# Youngs Moduli (GPa) = 35.53745 26.33722 90.15813
#
# Poissons Ratio (x) = -0.37867 0.47050
# Poissons Ratio (y) = -0.51095 0.56551
# Poissons Ratio (z) = 0.18546 0.16520
#
# Static dielectric constant tensor:
#      x y z
#    x 1.787750 0.000000 0.000000 
#    y 0.000000 1.846770 0.000000 
#    z 0.000000 0.000000 1.775550 
# 
# From -- ./inp_files/26911.got.cif
#   From: 2010.05.17/outbox.cif.g08.bks.cpg/sg20_14_cif.got.tgz:26911.got - 2010.06.03 22:52:26.
