data_PCOD9319670
_publ_section_title
;
Structure prediction by ZEFSAII (Michael W. Deem and Ramdas Pophale) SiO2 
 PCOD9319670
Probable space group: C 2 2 21
;
_chemical_formula_sum "Si O2"
_cell_formula_units_Z 64
_cell_length_a 28.585801
_cell_length_b 18.626639
_cell_length_c 6.202611
_cell_angle_alpha 90.000000
_cell_angle_beta 90.000000
_cell_angle_gamma 90.000000
_cell_volume 3302.626100
_symmetry_space_group_name_H-M "C 2 2 21"
_symmetry_group_IT_number 20
_symmetry_cell_setting 'orthorhombic'
loop_
_space_group_symop_operation_xyz
x,y,z
-x,-y,1/2+z
x,-y,-z
-x,y,1/2-z
1/2+x,1/2+y,z
1/2-x,1/2-y,1/2+z
1/2+x,1/2-y,-z
1/2-x,1/2+y,1/2-z
loop_
_atom_site_type_symbol
_atom_site_label
_atom_site_fract_x
_atom_site_fract_y
_atom_site_fract_z
Si Si1 0.801028 0.939667 0.155666
Si Si2 0.603771 0.306827 0.895974
Si Si3 0.311929 0.206705 0.742057
Si Si4 0.402747 0.557114 0.685546
Si Si5 0.717901 0.079445 0.507799
Si Si6 0.462674 0.613989 0.071946
Si Si7 0.246188 0.166024 0.390277
Si Si8 0.988446 0.734086 0.495184
O O1 0.852332 0.965403 0.222099
O O2 0.763634 0.929408 0.342110
O O3 0.797610 0.865635 0.024139
O O4 0.781111 0.000000 0.000000
O O5 0.647049 0.261814 0.808700
O O6 0.581049 0.354924 0.706204
O O7 0.566425 0.249776 0.986216
O O8 0.610056 0.365817 0.081619
O O9 0.317309 0.140831 0.905949
O O10 0.293250 0.170405 0.526703
O O11 0.268235 0.255096 0.818066
O O12 0.416702 0.500000 0.500000
O O13 0.441947 0.568897 0.871208
O O14 0.741199 0.112027 0.297187
O O15 0.696497 0.000000 0.500000
O O16 0.500000 0.583146 0.250000
O O17 0.487796 0.686700 0.990304
O O18 0.000000 0.706986 0.750000
O O19 0.000000 0.702751 0.250000
#
# Coordination Sequence:
#
# PCOD9319670 Si02
#       8
#     8   8   8   8   8   8   8   8
#     4  11  24  37  58  81 114 163 214 255 314 370
#     4  10  22  38  59  82 119 150 200 264 321 380
#     4  11  23  35  58  90 116 159 206 258 313 367
#     4  12  25  34  58  87 115 152 218 275 327 384
#     4  11  22  41  59  81 122 170 206 253 318 378
#     4   9  21  40  65  79 114 159 200 258 331 393
#     4  11  22  38  56  82 121 156 206 257 308 370
#     4   9  17  37  64  82 110 160 199 250 323 389
#
# _framework density 19.378519000000001
#
# number of rings (size 3 to 8) (size 9 to 14) (size 15 to 20)
#    0.000    1.750    3.750    1.875    5.250    1.000 
#    0.000    0.000   22.000    3.000    0.000    0.000 
#    0.000    0.000   68.000    0.000    0.000    0.000 
#
# Total GULP energy -178219.682336 kJ/mol
# GULP energy per Si atom -5569.365073 kJ/mol
# Density = 1.933441 g / cm^3
# Si number density = 19.378519 Si / 1000 Ang^3
#
#
#
# Elastic Constant Matrix: (Units=GPa)
#
#
# Indices 1 2 3 4 5 6 
#
# 1 64.7248 15.6287 35.9504 0.0000 0.0000 0.0000
# 2 15.6287 81.4760 37.9401 0.0000 0.0000 0.0000
# 3 35.9504 37.9401 122.6255 0.0000 0.0000 0.0000
# 4 0.0000 0.0000 0.0000 31.1657 0.0000 0.0000
# 5 0.0000 0.0000 0.0000 0.0000 24.5920 0.0000
# 6 0.0000 0.0000 0.0000 0.0000 0.0000 16.3904
#
#
#
# Elastic Compliance Matrix: (Units=1/GPa)
#
#
# Indices 1 2 3 4 5 6 
#
# 1 0.018555 -0.001199 -0.005069 0.000000 0.000000 0.000000
# 2 -0.001199 0.014417 -0.004109 0.000000 0.000000 0.000000
# 3 -0.005069 -0.004109 0.010912 0.000000 0.000000 0.000000
# 4 0.000000 0.000000 0.000000 0.032087 0.000000 0.000000
# 5 0.000000 0.000000 0.000000 0.000000 0.040664 0.000000
# 6 0.000000 0.000000 0.000000 0.000000 0.000000 0.061011
#
#
# Mechanical properties :
#
#
# Convention : Reuss Voigt Hill
#
# Bulk Modulus (GPa) = 43.23282 49.76275 46.49779
# Shear Modulus (GPa) = 24.25893 26.38341 25.32117
#
# Velocity S-wave (km/s) = 3.54198 3.69382 3.61870
# Velocity P-wave (km/s) = 6.25185 6.62778 6.44256
#
# Compressibility (1/GPa) = 0.02313057
#
# Stress axis : x y z
#
# Youngs Moduli (GPa) = 53.89400 69.36268 91.63948
#
# Poissons Ratio (x) = 0.08315 0.46451
# Poissons Ratio (y) = 0.06461 0.37656
# Poissons Ratio (z) = 0.27318 0.28502
#
# Static dielectric constant tensor:
#      x y z
#    x 1.683520 0.000000 0.000000 
#    y 0.000000 1.659420 0.000000 
#    z 0.000000 0.000000 1.809570 
# 
# From -- ./inp_files/4795.got.cif
#   From: 2010.05.17/outbox.cif.g08.bks.cpg/sg20_3_cif.got.tgz:4795.got - 2010.06.03 22:52:26.
