data_PCOD9319065
_publ_section_title
;
Structure prediction by ZEFSAII (Michael W. Deem and Ramdas Pophale) SiO2 
 PCOD9319065
Probable space group: C 2 2 21
;
_chemical_formula_sum "Si O2"
_cell_formula_units_Z 52
_cell_length_a 8.794502
_cell_length_b 11.484743
_cell_length_c 26.538949
_cell_angle_alpha 90.000000
_cell_angle_beta 90.000000
_cell_angle_gamma 90.000000
_cell_volume 2680.502725
_symmetry_space_group_name_H-M "C 2 2 21"
_symmetry_group_IT_number 20
_symmetry_cell_setting 'orthorhombic'
loop_
_space_group_symop_operation_xyz
x,y,z
-x,-y,1/2+z
x,-y,-z
-x,y,1/2-z
1/2+x,1/2+y,z
1/2-x,1/2-y,1/2+z
1/2+x,1/2-y,-z
1/2-x,1/2+y,1/2-z
loop_
_atom_site_type_symbol
_atom_site_label
_atom_site_fract_x
_atom_site_fract_y
_atom_site_fract_z
Si Si1 0.207607 0.663813 0.012145
Si Si2 0.647303 0.455280 0.423731
Si Si3 0.572637 0.000000 0.500000
Si Si4 0.766963 0.788463 0.318064
Si Si5 0.766553 0.482333 0.682919
Si Si6 0.500000 0.122609 0.750000
Si Si7 0.000000 0.072065 0.750000
Si Si8 0.295769 0.399751 0.425501
O O1 0.296371 0.573504 0.048804
O O2 0.201529 0.789600 0.036567
O O3 0.291911 0.649685 0.958691
O O4 0.039988 0.609923 0.004533
O O5 0.722344 0.454556 0.368966
O O6 0.465533 0.450366 0.421304
O O7 0.678279 0.987959 0.451121
O O8 0.796701 0.652865 0.327459
O O9 0.745120 0.854527 0.370885
O O10 0.621145 0.804129 0.282080
O O11 0.907425 0.847552 0.288940
O O12 0.906212 0.542826 0.711117
O O13 0.622311 0.496291 0.719884
#
# Coordination Sequence:
#
# PCOD9319065 Si02
#       8
#     8   8   4   8   8   4   4   8
#     4  10  23  42  60  87 126 158 199 253 297 363
#     4  10  21  39  64  89 121 159 198 250 308 353
#     4  10  24  38  60  90 122 154 206 244 296 366
#     4  11  23  39  66  90 120 163 201 249 308 363
#     4  11  21  43  63  89 124 160 200 257 306 360
#     4  10  26  40  62  92 124 156 210 252 302 360
#     4  10  22  42  62  90 122 156 206 254 300 368
#     4  12  22  40  64  91 121 163 203 245 305 365
#
# _framework density 19.399346000000001
#
# number of rings (size 3 to 8) (size 9 to 14) (size 15 to 20)
#    0.000    1.538    3.077    2.769    4.308    0.000 
#    0.000    1.538    0.000    0.000    0.000    0.000 
#    0.000    0.000    0.000    0.000    0.000    0.000 
#
# Total GULP energy -145297.190253 kJ/mol
# GULP energy per Si atom -5588.353471 kJ/mol
# Density = 1.935519 g / cm^3
# Si number density = 19.399346 Si / 1000 Ang^3
#
#
#
# Elastic Constant Matrix: (Units=GPa)
#
#
# Indices 1 2 3 4 5 6 
#
# 1 80.3481 10.5407 11.3768 0.0000 0.0000 0.0000
# 2 10.5407 28.2488 8.2434 0.0000 0.0000 0.0000
# 3 11.3768 8.2434 97.0201 0.0000 0.0000 0.0000
# 4 0.0000 0.0000 0.0000 31.1999 0.0000 0.0000
# 5 0.0000 0.0000 0.0000 0.0000 25.4437 0.0000
# 6 0.0000 0.0000 0.0000 0.0000 0.0000 2.5068
#
#
#
# Elastic Compliance Matrix: (Units=1/GPa)
#
#
# Indices 1 2 3 4 5 6 
#
# 1 0.013212 -0.004592 -0.001159 0.000000 0.000000 0.000000
# 2 -0.004592 0.037896 -0.002681 0.000000 0.000000 0.000000
# 3 -0.001159 -0.002681 0.010671 0.000000 0.000000 0.000000
# 4 0.000000 0.000000 0.000000 0.032051 0.000000 0.000000
# 5 0.000000 0.000000 0.000000 0.000000 0.039303 0.000000
# 6 0.000000 0.000000 0.000000 0.000000 0.000000 0.398911
#
#
# Mechanical properties :
#
#
# Convention : Reuss Voigt Hill
#
# Bulk Modulus (GPa) = 22.26467 29.54875 25.90671
# Shear Modulus (GPa) = 8.86715 23.52716 16.19715
#
# Velocity S-wave (km/s) = 2.14027 3.48628 2.89266
# Velocity P-wave (km/s) = 4.19638 5.60985 4.95379
#
# Compressibility (1/GPa) = 0.04491420
#
# Stress axis : x y z
#
# Youngs Moduli (GPa) = 75.68674 26.38830 93.71281
#
# Poissons Ratio (x) = 0.12117 0.10863
# Poissons Ratio (y) = 0.34754 0.25128
# Poissons Ratio (z) = 0.08773 0.07076
#
# Static dielectric constant tensor:
#      x y z
#    x 1.663080 0.000000 0.000000 
#    y 0.000000 1.651850 0.000000 
#    z 0.000000 0.000000 1.669700 
# 
# From -- ./inp_files/30131.got.cif
#   From: 2010.05.17/outbox.cif.g08.bks.cpg/sg20_16_cif.got.tgz:30131.got - 2010.06.03 22:52:26.
