data_PCOD9319568
_publ_section_title
;
Structure prediction by ZEFSAII (Michael W. Deem and Ramdas Pophale) SiO2 
 PCOD9319568
Probable space group: C 2 2 21
;
_chemical_formula_sum "Si O2"
_cell_formula_units_Z 40
_cell_length_a 15.656830
_cell_length_b 12.593621
_cell_length_c 9.051722
_cell_angle_alpha 90.000000
_cell_angle_beta 90.000000
_cell_angle_gamma 90.000000
_cell_volume 1784.783994
_symmetry_space_group_name_H-M "C 2 2 21"
_symmetry_group_IT_number 20
_symmetry_cell_setting 'orthorhombic'
loop_
_space_group_symop_operation_xyz
x,y,z
-x,-y,1/2+z
x,-y,-z
-x,y,1/2-z
1/2+x,1/2+y,z
1/2-x,1/2-y,1/2+z
1/2+x,1/2-y,-z
1/2-x,1/2+y,1/2-z
loop_
_atom_site_type_symbol
_atom_site_label
_atom_site_fract_x
_atom_site_fract_y
_atom_site_fract_z
Si Si1 0.702570 0.642007 0.436256
Si Si2 0.204031 0.825275 0.212670
Si Si3 0.515314 0.660297 0.405452
Si Si4 0.451515 0.174920 0.385683
Si Si5 0.842411 0.500000 0.500000
Si Si6 0.368627 0.500000 0.500000
O O1 0.719870 0.752739 0.353130
O O2 0.715318 0.658854 0.612402
O O3 0.606878 0.604239 0.407185
O O4 0.773803 0.555337 0.389030
O O5 0.121206 0.751827 0.180767
O O6 0.186598 0.931406 0.116290
O O7 0.500000 0.715398 0.250000
O O8 0.515796 0.746092 0.533706
O O9 0.435207 0.582062 0.425277
O O10 0.500000 0.118654 0.250000
O O11 0.407669 0.098455 0.505704
#
# Coordination Sequence:
#
# PCOD9319568 Si02
#       6
#     8   8   8   8   4   4
#     4  11  24  44  66  95 134 173 218 272 331 393
#     4  10  24  42  66  94 135 172 214 277 333 392
#     4  11  25  40  70  94 128 171 223 270 332 391
#     4  10  21  46  63  91 131 174 211 274 328 386
#     4  10  25  38  67  94 128 168 218 264 327 388
#     4  10  25  40  67  98 130 162 226 274 331 388
#
# _framework density 22.411674999999999
#
# number of rings (size 3 to 8) (size 9 to 14) (size 15 to 20)
#    0.000    1.600    2.000    0.600   14.000    2.400 
#    0.000    0.000    0.000    0.000    0.000    0.000 
#    0.000    0.000    0.000    0.000    0.000    0.000 
#
# Total GULP energy -111431.968385 kJ/mol
# GULP energy per Si atom -5571.598419 kJ/mol
# Density = 2.236066 g / cm^3
# Si number density = 22.411675 Si / 1000 Ang^3
#
#
#
# Elastic Constant Matrix: (Units=GPa)
#
#
# Indices 1 2 3 4 5 6 
#
# 1 56.9856 17.8741 11.7632 0.0000 0.0000 0.0000
# 2 17.8741 81.2944 32.0487 0.0000 0.0000 0.0000
# 3 11.7632 32.0487 112.1476 0.0000 0.0000 0.0000
# 4 0.0000 0.0000 0.0000 14.1976 0.0000 0.0000
# 5 0.0000 0.0000 0.0000 0.0000 21.1128 0.0000
# 6 0.0000 0.0000 0.0000 0.0000 0.0000 18.9308
#
#
#
# Elastic Compliance Matrix: (Units=1/GPa)
#
#
# Indices 1 2 3 4 5 6 
#
# 1 0.018928 -0.003808 -0.000897 0.000000 0.000000 0.000000
# 2 -0.003808 0.014629 -0.003781 0.000000 0.000000 0.000000
# 3 -0.000897 -0.003781 0.010091 0.000000 0.000000 0.000000
# 4 0.000000 0.000000 0.000000 0.070434 0.000000 0.000000
# 5 0.000000 0.000000 0.000000 0.000000 0.047365 0.000000
# 6 0.000000 0.000000 0.000000 0.000000 0.000000 0.052824
#
#
# Mechanical properties :
#
#
# Convention : Reuss Voigt Hill
#
# Bulk Modulus (GPa) = 37.48720 41.53328 39.51024
# Shear Modulus (GPa) = 20.82156 23.43101 22.12629
#
# Velocity S-wave (km/s) = 3.05134 3.23690 3.14549
# Velocity P-wave (km/s) = 5.40159 5.70458 5.55515
#
# Compressibility (1/GPa) = 0.02667577
#
# Stress axis : x y z
#
# Youngs Moduli (GPa) = 52.83211 68.35808 99.09370
#
# Poissons Ratio (x) = 0.26030 0.08890
# Poissons Ratio (y) = 0.20118 0.37468
# Poissons Ratio (z) = 0.04740 0.25847
#
# Static dielectric constant tensor:
#      x y z
#    x 1.831910 0.000000 0.000000 
#    y 0.000000 1.845910 0.000000 
#    z 0.000000 0.000000 1.832520 
# 
# From -- ./inp_files/7117.got.cif
#   From: 2010.05.17/outbox.cif.g08.bks.cpg/sg20_4_cif.got.tgz:7117.got - 2010.06.03 22:52:26.
