data_PCOD9319988
_publ_section_title
;
Structure prediction by ZEFSAII (Michael W. Deem and Ramdas Pophale) SiO2 
 PCOD9319988
Probable space group: C 2 2 21
;
_chemical_formula_sum "Si O2"
_cell_formula_units_Z 32
_cell_length_a 23.229757
_cell_length_b 5.155646
_cell_length_c 10.329740
_cell_angle_alpha 90.000000
_cell_angle_beta 90.000000
_cell_angle_gamma 90.000000
_cell_volume 1237.135152
_symmetry_space_group_name_H-M "C 2 2 21"
_symmetry_group_IT_number 20
_symmetry_cell_setting 'orthorhombic'
loop_
_space_group_symop_operation_xyz
x,y,z
-x,-y,1/2+z
x,-y,-z
-x,y,1/2-z
1/2+x,1/2+y,z
1/2-x,1/2-y,1/2+z
1/2+x,1/2-y,-z
1/2-x,1/2+y,1/2-z
loop_
_atom_site_type_symbol
_atom_site_label
_atom_site_fract_x
_atom_site_fract_y
_atom_site_fract_z
Si Si1 0.097503 0.933234 0.742567
Si Si2 0.999230 0.311808 0.384769
Si Si3 0.697384 0.250052 0.908223
Si Si4 0.327562 0.755296 0.909429
O O1 0.061251 0.822419 0.621119
O O2 0.151314 0.766495 0.793512
O O3 0.049554 0.903564 0.855119
O O4 0.125030 0.203077 0.699972
O O5 0.987757 0.500000 0.500000
O O6 0.000000 0.473151 0.250000
O O7 0.762514 0.268953 0.855164
O O8 0.688002 0.500000 0.000000
O O9 0.691061 0.000000 0.000000
O O10 0.327205 0.500000 0.000000
O O11 0.337223 0.000000 0.000000
#
# Coordination Sequence:
#
# PCOD9319988 Si02
#       4
#     8   8   8   8
#     4   9  21  40  74 109 157 207 261 334 406 478
#     4   8  19  41  77 119 159 215 269 341 404 487
#     4  10  22  41  69 108 156 206 263 326 404 491
#     4  10  23  42  66 106 153 205 259 324 403 489
#
# _framework density 25.866211
#
# number of rings (size 3 to 8) (size 9 to 14) (size 15 to 20)
#    1.500    1.000    0.000    0.750    0.000    9.000 
#    0.000    7.500    0.000   30.000    6.500    0.000 
#    0.000    0.000    0.000    0.000    0.000    0.000 
#
# Total GULP energy -89513.490803 kJ/mol
# GULP energy per Si atom -5594.593175 kJ/mol
# Density = 2.580734 g / cm^3
# Si number density = 25.866211 Si / 1000 Ang^3
#
#
#
# Elastic Constant Matrix: (Units=GPa)
#
#
# Indices 1 2 3 4 5 6 
#
# 1 234.2495 74.7655 63.4683 0.0000 0.0000 0.0000
# 2 74.7655 177.6561 66.4075 0.0000 0.0000 0.0000
# 3 63.4683 66.4075 121.1588 0.0000 0.0000 0.0000
# 4 0.0000 0.0000 0.0000 58.0855 0.0000 0.0000
# 5 0.0000 0.0000 0.0000 0.0000 32.3862 0.0000
# 6 0.0000 0.0000 0.0000 0.0000 0.0000 32.8161
#
#
#
# Elastic Compliance Matrix: (Units=1/GPa)
#
#
# Indices 1 2 3 4 5 6 
#
# 1 0.005272 -0.001492 -0.001944 0.000000 0.000000 0.000000
# 2 -0.001492 0.007502 -0.003330 0.000000 0.000000 0.000000
# 3 -0.001944 -0.003330 0.011097 0.000000 0.000000 0.000000
# 4 0.000000 0.000000 0.000000 0.017216 0.000000 0.000000
# 5 0.000000 0.000000 0.000000 0.000000 0.030877 0.000000
# 6 0.000000 0.000000 0.000000 0.000000 0.000000 0.030473
#
#
# Mechanical properties :
#
#
# Convention : Reuss Voigt Hill
#
# Bulk Modulus (GPa) = 96.72404 104.70522 100.71463
# Shear Modulus (GPa) = 41.87094 46.55244 44.21169
#
# Velocity S-wave (km/s) = 4.02773 4.24694 4.13879
# Velocity P-wave (km/s) = 7.68800 8.03841 7.86516
#
# Compressibility (1/GPa) = 0.01033869
#
# Stress axis : x y z
#
# Youngs Moduli (GPa) = 189.68752 133.30641 90.11372
#
# Poissons Ratio (x) = 0.19890 0.17517
# Poissons Ratio (y) = 0.28302 0.30008
# Poissons Ratio (z) = 0.36872 0.44391
#
# Static dielectric constant tensor:
#      x y z
#    x 2.028940 0.000000 0.000000 
#    y 0.000000 2.011090 0.000000 
#    z 0.000000 0.000000 2.101600 
# 
# From -- ./inp_files/16487.got.cif
#   From: 2010.05.17/outbox.cif.g08.bks.cpg/sg20_9_cif.got.tgz:16487.got - 2010.06.03 22:52:26.
