data_PCOD9319658
_publ_section_title
;
Structure prediction by ZEFSAII (Michael W. Deem and Ramdas Pophale) SiO2 
 PCOD9319658
Probable space group: C 2 2 21
;
_chemical_formula_sum "Si O2"
_cell_formula_units_Z 56
_cell_length_a 5.573308
_cell_length_b 27.547766
_cell_length_c 14.826019
_cell_angle_alpha 90.000000
_cell_angle_beta 90.000000
_cell_angle_gamma 90.000000
_cell_volume 2276.271086
_symmetry_space_group_name_H-M "C 2 2 21"
_symmetry_group_IT_number 20
_symmetry_cell_setting 'orthorhombic'
loop_
_space_group_symop_operation_xyz
x,y,z
-x,-y,1/2+z
x,-y,-z
-x,y,1/2-z
1/2+x,1/2+y,z
1/2-x,1/2-y,1/2+z
1/2+x,1/2-y,-z
1/2-x,1/2+y,1/2-z
loop_
_atom_site_type_symbol
_atom_site_label
_atom_site_fract_x
_atom_site_fract_y
_atom_site_fract_z
Si Si1 0.291235 0.197268 0.538551
Si Si2 0.889951 0.852859 0.343679
Si Si3 0.852379 0.251909 0.143418
Si Si4 0.873737 0.604761 0.991847
Si Si5 0.806093 0.891175 0.676619
Si Si6 0.748767 0.997294 0.296798
Si Si7 0.500000 0.186352 0.250000
Si Si8 0.603745 0.000000 0.500000
O O1 0.078155 0.167191 0.583271
O O2 0.238342 0.229825 0.451628
O O3 0.375688 0.235711 0.615324
O O4 0.481028 0.155395 0.511374
O O5 0.000000 0.868553 0.250000
O O6 0.733615 0.805020 0.326886
O O7 0.739257 0.894124 0.392161
O O8 0.723315 0.217156 0.214129
O O9 0.016456 0.553935 0.008247
O O10 0.663610 0.604439 0.068572
O O11 0.742651 0.943910 0.714390
O O12 0.596081 0.851675 0.677230
O O13 0.000000 0.873461 0.750000
O O14 0.500000 0.978857 0.250000
O O15 0.745039 0.994081 0.405886
O O16 0.000000 0.981588 0.250000
#
# Coordination Sequence:
#
# PCOD9319658 Si02
#       8
#     8   8   8   8   8   8   4   4
#     4  11  23  43  67  94 135 183 223 289 345 419
#     4  11  25  46  64  97 137 183 235 285 346 431
#     4  11  23  37  64  97 134 174 223 275 340 412
#     4  10  24  45  68  98 136 182 232 289 355 428
#     4  10  22  37  64  99 136 174 224 289 361 420
#     4  10  22  45  72 105 146 187 241 311 380 452
#     4  12  22  36  60  98 128 170 222 276 336 424
#     4  10  24  50  70 110 140 188 250 310 382 444
#
# _framework density 24.601641000000001
#
# number of rings (size 3 to 8) (size 9 to 14) (size 15 to 20)
#    0.000    1.429    4.286    0.000    2.000    4.571 
#   12.857    0.000    0.000    0.000    0.000    0.000 
#    0.000    0.000    0.000    0.000    0.000    0.000 
#
# Total GULP energy -155982.216482 kJ/mol
# GULP energy per Si atom -5570.793446 kJ/mol
# Density = 2.454565 g / cm^3
# Si number density = 24.601641 Si / 1000 Ang^3
#
#
#
# Elastic Constant Matrix: (Units=GPa)
#
#
# Indices 1 2 3 4 5 6 
#
# 1 44.2794 10.0528 28.7314 0.0000 0.0000 0.0000
# 2 10.0528 133.7817 11.1208 0.0000 0.0000 0.0000
# 3 28.7314 11.1208 136.2278 0.0000 0.0000 0.0000
# 4 0.0000 0.0000 0.0000 29.5914 0.0000 0.0000
# 5 0.0000 0.0000 0.0000 0.0000 22.1401 0.0000
# 6 0.0000 0.0000 0.0000 0.0000 0.0000 20.7718
#
#
#
# Elastic Compliance Matrix: (Units=1/GPa)
#
#
# Indices 1 2 3 4 5 6 
#
# 1 0.026474 -0.001536 -0.005458 0.000000 0.000000 0.000000
# 2 -0.001536 0.007615 -0.000298 0.000000 0.000000 0.000000
# 3 -0.005458 -0.000298 0.008516 0.000000 0.000000 0.000000
# 4 0.000000 0.000000 0.000000 0.033794 0.000000 0.000000
# 5 0.000000 0.000000 0.000000 0.000000 0.045167 0.000000
# 6 0.000000 0.000000 0.000000 0.000000 0.000000 0.048142
#
#
# Mechanical properties :
#
#
# Convention : Reuss Voigt Hill
#
# Bulk Modulus (GPa) = 35.68616 46.01100 40.84858
# Shear Modulus (GPa) = 25.82218 32.12625 28.97421
#
# Velocity S-wave (km/s) = 3.24329 3.61759 3.43554
# Velocity P-wave (km/s) = 5.34437 6.01600 5.69010
#
# Compressibility (1/GPa) = 0.02802207
#
# Stress axis : x y z
#
# Youngs Moduli (GPa) = 37.77262 131.31967 117.42411
#
# Poissons Ratio (x) = 0.20166 0.64093
# Poissons Ratio (y) = 0.05800 0.03497
# Poissons Ratio (z) = 0.20617 0.03910
#
# Static dielectric constant tensor:
#      x y z
#    x 2.011380 0.000000 0.000000 
#    y 0.000000 1.922120 0.000000 
#    z 0.000000 0.000000 1.997490 
# 
# From -- ./inp_files/18032.got.cif
#   From: 2010.05.17/outbox.cif.g08.bks.cpg/sg20_10_cif.got.tgz:18032.got - 2010.06.03 22:52:26.
