data_PCOD9319155
_publ_section_title
;
Structure prediction by ZEFSAII (Michael W. Deem and Ramdas Pophale) SiO2 
 PCOD9319155
Probable space group: C 2 2 21
;
_chemical_formula_sum "Si O2"
_cell_formula_units_Z 32
_cell_length_a 12.124384
_cell_length_b 8.033299
_cell_length_c 14.454168
_cell_angle_alpha 90.000000
_cell_angle_beta 90.000000
_cell_angle_gamma 90.000000
_cell_volume 1407.818645
_symmetry_space_group_name_H-M "C 2 2 21"
_symmetry_group_IT_number 20
_symmetry_cell_setting 'orthorhombic'
loop_
_space_group_symop_operation_xyz
x,y,z
-x,-y,1/2+z
x,-y,-z
-x,y,1/2-z
1/2+x,1/2+y,z
1/2-x,1/2-y,1/2+z
1/2+x,1/2-y,-z
1/2-x,1/2+y,1/2-z
loop_
_atom_site_type_symbol
_atom_site_label
_atom_site_fract_x
_atom_site_fract_y
_atom_site_fract_z
Si Si1 0.647742 0.721525 0.354897
Si Si2 0.427372 0.120764 0.585882
Si Si3 0.280619 0.390714 0.204724
Si Si4 0.731630 0.182018 0.461491
O O1 0.535109 0.823263 0.360355
O O2 0.639596 0.547351 0.300963
O O3 0.743245 0.826292 0.303657
O O4 0.683229 0.695027 0.460921
O O5 0.333406 0.049197 0.654175
O O6 0.361922 0.282574 0.547361
O O7 0.450597 0.000000 0.500000
O O8 0.316248 0.237663 0.137941
O O9 0.708650 0.000000 0.500000
#
# Coordination Sequence:
#
# PCOD9319155 Si02
#       4
#     8   8   8   8
#     4  12  21  41  73  90 143 186 214 297 345 393
#     4  10  22  43  67  97 138 175 231 285 345 409
#     4  10  23  41  65 104 135 175 242 275 341 426
#     4  10  21  40  61  97 137 174 230 282 332 420
#
# _framework density 22.730201000000001
#
# number of rings (size 3 to 8) (size 9 to 14) (size 15 to 20)
#    1.500    0.000    2.500    3.750    0.000    2.000 
#    0.000    0.000    0.000    0.000    0.000    0.000 
#    0.000    0.000    0.000    0.000    0.000    0.000 
#
# Total GULP energy -89247.538875 kJ/mol
# GULP energy per Si atom -5577.971180 kJ/mol
# Density = 2.267847 g / cm^3
# Si number density = 22.730201 Si / 1000 Ang^3
#
#
#
# Elastic Constant Matrix: (Units=GPa)
#
#
# Indices 1 2 3 4 5 6 
#
# 1 39.7137 8.8588 10.3687 0.0000 0.0000 0.0000
# 2 8.8588 86.8111 -6.2557 0.0000 0.0000 0.0000
# 3 10.3687 -6.2557 72.2232 0.0000 0.0000 0.0000
# 4 0.0000 0.0000 0.0000 40.3108 0.0000 0.0000
# 5 0.0000 0.0000 0.0000 0.0000 25.5723 0.0000
# 6 0.0000 0.0000 0.0000 0.0000 0.0000 27.4817
#
#
#
# Elastic Compliance Matrix: (Units=1/GPa)
#
#
# Indices 1 2 3 4 5 6 
#
# 1 0.026938 -0.003047 -0.004131 0.000000 0.000000 0.000000
# 2 -0.003047 0.011936 0.001471 0.000000 0.000000 0.000000
# 3 -0.004131 0.001471 0.014567 0.000000 0.000000 0.000000
# 4 0.000000 0.000000 0.000000 0.024807 0.000000 0.000000
# 5 0.000000 0.000000 0.000000 0.000000 0.039105 0.000000
# 6 0.000000 0.000000 0.000000 0.000000 0.000000 0.036388
#
#
# Mechanical properties :
#
#
# Convention : Reuss Voigt Hill
#
# Bulk Modulus (GPa) = 23.79383 24.96574 24.37979
# Shear Modulus (GPa) = 27.90742 31.05805 29.48273
#
# Velocity S-wave (km/s) = 3.50775 3.70047 3.60540
# Velocity P-wave (km/s) = 5.18618 5.40974 5.29914
#
# Compressibility (1/GPa) = 0.04202770
#
# Stress axis : x y z
#
# Youngs Moduli (GPa) = 37.12163 83.77887 68.65065
#
# Poissons Ratio (x) = 0.25525 0.28362
# Poissons Ratio (y) = 0.11310 -0.10100
# Poissons Ratio (z) = 0.15336 -0.12326
#
# Static dielectric constant tensor:
#      x y z
#    x 1.839520 0.000000 0.000000 
#    y 0.000000 1.887260 0.000000 
#    z 0.000000 0.000000 1.856090 
# 
# From -- ./inp_files/18368.got.cif
#   From: 2010.05.17/outbox.cif.g08.bks.cpg/sg20_10_cif.got.tgz:18368.got - 2010.06.03 22:52:26.
