data_PCOD9319997
_publ_section_title
;
Structure prediction by ZEFSAII (Michael W. Deem and Ramdas Pophale) SiO2 
 PCOD9319997
Probable space group: C 2 2 21
;
_chemical_formula_sum "Si O2"
_cell_formula_units_Z 60
_cell_length_a 8.448188
_cell_length_b 22.147842
_cell_length_c 15.887796
_cell_angle_alpha 90.000000
_cell_angle_beta 90.000000
_cell_angle_gamma 90.000000
_cell_volume 2972.751735
_symmetry_space_group_name_H-M "C 2 2 21"
_symmetry_group_IT_number 20
_symmetry_cell_setting 'orthorhombic'
loop_
_space_group_symop_operation_xyz
x,y,z
-x,-y,1/2+z
x,-y,-z
-x,y,1/2-z
1/2+x,1/2+y,z
1/2-x,1/2-y,1/2+z
1/2+x,1/2-y,-z
1/2-x,1/2+y,1/2-z
loop_
_atom_site_type_symbol
_atom_site_label
_atom_site_fract_x
_atom_site_fract_y
_atom_site_fract_z
Si Si1 0.781507 0.637395 0.641811
Si Si2 0.191440 0.495027 0.401137
Si Si3 0.985292 0.315504 0.010290
Si Si4 0.939206 0.113684 0.582954
Si Si5 0.291066 0.259979 0.388807
Si Si6 0.301840 0.626578 0.408182
Si Si7 0.000000 0.558431 0.750000
Si Si8 0.173264 0.235511 0.216915
O O1 0.911818 0.639970 0.567765
O O2 0.617435 0.608228 0.614046
O O3 0.758052 0.708025 0.664928
O O4 0.858339 0.601431 0.718646
O O5 0.138218 0.500000 0.500000
O O6 0.325348 0.442905 0.400393
O O7 0.270008 0.559032 0.377926
O O8 0.060616 0.478790 0.331156
O O9 0.101344 0.276321 0.953436
O O10 0.858409 0.350825 0.954297
O O11 0.880239 0.272059 0.069615
O O12 0.863765 0.173509 0.624167
O O13 0.931658 0.124993 0.482353
O O14 0.276559 0.226831 0.300360
O O15 0.339231 0.675618 0.337933
O O16 0.000000 0.254017 0.250000
#
# Coordination Sequence:
#
# PCOD9319997 Si02
#       8
#     8   8   8   8   8   8   4   8
#     4  12  22  41  67 100 125 164 223 277 337 389
#     4  10  23  47  68  94 136 179 228 279 335 395
#     4  11  22  38  65  92 132 171 217 271 333 411
#     4  10  22  41  70  92 127 176 230 277 326 397
#     4  11  22  38  61  97 129 170 215 270 340 401
#     4  10  24  45  63  91 133 177 215 270 337 403
#     4  12  24  42  72  98 132 172 220 288 338 396
#     4  12  24  37  61  93 135 165 204 271 340 399
#
# _framework density 20.183319000000001
#
# number of rings (size 3 to 8) (size 9 to 14) (size 15 to 20)
#    0.000    1.067    2.000    6.400    1.867    4.800 
#    2.400    6.000    0.000    0.000    0.000    0.000 
#    0.000    0.000    0.000    0.000    0.000    0.000 
#
# Total GULP energy -167775.617428 kJ/mol
# GULP energy per Si atom -5592.520581 kJ/mol
# Density = 2.013738 g / cm^3
# Si number density = 20.183319 Si / 1000 Ang^3
#
#
#
# Elastic Constant Matrix: (Units=GPa)
#
#
# Indices 1 2 3 4 5 6 
#
# 1 83.0693 9.9987 57.4007 0.0000 0.0000 0.0000
# 2 9.9987 88.6286 45.4966 0.0000 0.0000 0.0000
# 3 57.4007 45.4966 95.6936 0.0000 0.0000 0.0000
# 4 0.0000 0.0000 0.0000 34.9140 0.0000 0.0000
# 5 0.0000 0.0000 0.0000 0.0000 17.9224 0.0000
# 6 0.0000 0.0000 0.0000 0.0000 0.0000 20.1021
#
#
#
# Elastic Compliance Matrix: (Units=1/GPa)
#
#
# Indices 1 2 3 4 5 6 
#
# 1 0.022637 0.005843 -0.016356 0.000000 0.000000 0.000000
# 2 0.005843 0.016434 -0.011318 0.000000 0.000000 0.000000
# 3 -0.016356 -0.011318 0.025642 0.000000 0.000000 0.000000
# 4 0.000000 0.000000 0.000000 0.028642 0.000000 0.000000
# 5 0.000000 0.000000 0.000000 0.000000 0.055796 0.000000
# 6 0.000000 0.000000 0.000000 0.000000 0.000000 0.049746
#
#
# Mechanical properties :
#
#
# Convention : Reuss Voigt Hill
#
# Bulk Modulus (GPa) = 47.50660 54.79816 51.15238
# Shear Modulus (GPa) = 20.03388 24.88742 22.46065
#
# Velocity S-wave (km/s) = 3.15397 3.51532 3.33953
# Velocity P-wave (km/s) = 6.07058 6.60952 6.34578
#
# Compressibility (1/GPa) = 0.02104970
#
# Stress axis : x y z
#
# Youngs Moduli (GPa) = 44.17511 60.84996 38.99810
#
# Poissons Ratio (x) = -0.35552 0.63787
# Poissons Ratio (y) = -0.25810 0.44138
# Poissons Ratio (z) = 0.72255 0.68870
#
# Static dielectric constant tensor:
#      x y z
#    x 1.713240 0.000000 0.000000 
#    y 0.000000 1.701210 0.000000 
#    z 0.000000 0.000000 1.748670 
# 
# From -- ./inp_files/19320.got.cif
#   From: 2010.05.17/outbox.cif.g08.bks.cpg/sg20_10_cif.got.tgz:19320.got - 2010.06.03 22:52:26.
