data_PCOD9319675
_publ_section_title
;
Structure prediction by ZEFSAII (Michael W. Deem and Ramdas Pophale) SiO2 
 PCOD9319675
Probable space group: C 2 2 21
;
_chemical_formula_sum "Si O2"
_cell_formula_units_Z 64
_cell_length_a 25.617132
_cell_length_b 12.941636
_cell_length_c 10.183903
_cell_angle_alpha 90.000000
_cell_angle_beta 90.000000
_cell_angle_gamma 90.000000
_cell_volume 3376.244897
_symmetry_space_group_name_H-M "C 2 2 21"
_symmetry_group_IT_number 20
_symmetry_cell_setting 'orthorhombic'
loop_
_space_group_symop_operation_xyz
x,y,z
-x,-y,1/2+z
x,-y,-z
-x,y,1/2-z
1/2+x,1/2+y,z
1/2-x,1/2-y,1/2+z
1/2+x,1/2-y,-z
1/2-x,1/2+y,1/2-z
loop_
_atom_site_type_symbol
_atom_site_label
_atom_site_fract_x
_atom_site_fract_y
_atom_site_fract_z
Si Si1 0.377613 0.311618 0.988840
Si Si2 0.769518 0.839665 0.402459
Si Si3 0.730482 0.660336 0.597544
Si Si4 0.561605 0.582535 0.250004
Si Si5 0.156946 0.583802 0.897234
Si Si6 0.622388 0.311620 0.988834
Si Si7 0.939425 0.166175 0.749998
Si Si8 0.343054 0.083802 0.897234
O O1 0.325184 0.370617 0.037509
O O2 0.411859 0.295472 0.118410
O O3 0.409439 0.372695 0.878156
O O4 0.360714 0.199871 0.932650
O O5 0.750000 0.750001 0.500002
O O6 0.777402 0.805422 0.250002
O O7 0.825183 0.870618 0.462495
O O8 0.720460 0.916324 0.398899
O O9 0.779540 0.583677 0.601102
O O10 0.500000 0.610441 0.250000
O O11 0.590563 0.627304 0.121856
O O12 0.564975 0.458710 0.250004
O O13 0.139286 0.699871 0.932650
O O14 0.139851 0.559346 0.750000
O O15 0.137605 0.500000 0.000000
O O16 0.588139 0.295479 0.118401
O O17 0.000000 0.193617 0.750000
O O18 0.362395 0.000000 0.000000
#
# Coordination Sequence:
#
# PCOD9319675 Si02
#       8
#     8   8   8   8   8   8   8   8
#     4  11  21  41  63  89 126 161 199 248 304 361
#     4   9  19  35  56  87 121 157 198 240 290 349
#     4   9  19  35  56  87 121 157 198 240 290 349
#     4  11  24  42  64  89 119 157 202 256 312 363
#     4  10  22  38  60  91 125 163 201 241 291 357
#     4  11  21  41  63  89 126 161 199 248 304 361
#     4  11  24  40  64  93 117 151 204 256 310 367
#     4  10  22  38  60  91 125 163 201 241 291 357
#
# _framework density 18.955970000000001
#
# number of rings (size 3 to 8) (size 9 to 14) (size 15 to 20)
#    0.000    1.750    2.500    1.500    3.500    5.000 
#    0.000    0.000    0.000    4.500    0.000    0.000 
#    0.000    0.000    0.000    0.000    0.000    0.000 
#
# Total GULP energy -178525.071887 kJ/mol
# GULP energy per Si atom -5578.908496 kJ/mol
# Density = 1.891283 g / cm^3
# Si number density = 18.955970 Si / 1000 Ang^3
#
#
#
# Elastic Constant Matrix: (Units=GPa)
#
#
# Indices 1 2 3 4 5 6 
#
# 1 109.9477 7.8625 50.0291 0.0000 0.0000 0.0000
# 2 7.8625 41.7190 31.8456 0.0000 0.0000 0.0000
# 3 50.0291 31.8456 178.0423 0.0000 0.0000 0.0000
# 4 0.0000 0.0000 0.0000 29.2840 0.0000 0.0000
# 5 0.0000 0.0000 0.0000 0.0000 26.3611 0.0000
# 6 0.0000 0.0000 0.0000 0.0000 0.0000 13.2779
#
#
#
# Elastic Compliance Matrix: (Units=1/GPa)
#
#
# Indices 1 2 3 4 5 6 
#
# 1 0.010432 0.000314 -0.002988 0.000000 0.000000 0.000000
# 2 0.000314 0.027770 -0.005055 0.000000 0.000000 0.000000
# 3 -0.002988 -0.005055 0.007360 0.000000 0.000000 0.000000
# 4 0.000000 0.000000 0.000000 0.034148 0.000000 0.000000
# 5 0.000000 0.000000 0.000000 0.000000 0.037935 0.000000
# 6 0.000000 0.000000 0.000000 0.000000 0.000000 0.075313
#
#
# Mechanical properties :
#
#
# Convention : Reuss Voigt Hill
#
# Bulk Modulus (GPa) = 33.21698 56.57595 44.89646
# Shear Modulus (GPa) = 22.88847 29.78271 26.33559
#
# Velocity S-wave (km/s) = 3.47861 3.96808 3.73138
# Velocity P-wave (km/s) = 5.80479 7.13477 6.50387
#
# Compressibility (1/GPa) = 0.03010509
#
# Stress axis : x y z
#
# Youngs Moduli (GPa) = 95.85698 36.01060 135.86226
#
# Poissons Ratio (x) = -0.01132 0.40591
# Poissons Ratio (y) = -0.03015 0.68684
# Poissons Ratio (z) = 0.28639 0.18205
#
# Static dielectric constant tensor:
#      x y z
#    x 1.674850 0.000000 0.000000 
#    y 0.000000 1.633840 0.000000 
#    z 0.000000 0.000000 1.653140 
# 
# From -- ./inp_files/10818.got.cif
#   From: 2010.05.17/outbox.cif.g08.bks.cpg/sg20_6_cif.got.tgz:10818.got - 2010.06.03 22:52:26.
