data_PCOD9319864
_publ_section_title
;
Structure prediction by ZEFSAII (Michael W. Deem and Ramdas Pophale) SiO2 
 PCOD9319864
Probable space group: C 2 2 21
;
_chemical_formula_sum "Si O2"
_cell_formula_units_Z 36
_cell_length_a 5.094621
_cell_length_b 21.793868
_cell_length_c 15.690059
_cell_angle_alpha 90.000000
_cell_angle_beta 90.000000
_cell_angle_gamma 90.000000
_cell_volume 1742.090748
_symmetry_space_group_name_H-M "C 2 2 21"
_symmetry_group_IT_number 20
_symmetry_cell_setting 'orthorhombic'
loop_
_space_group_symop_operation_xyz
x,y,z
-x,-y,1/2+z
x,-y,-z
-x,y,1/2-z
1/2+x,1/2+y,z
1/2-x,1/2-y,1/2+z
1/2+x,1/2-y,-z
1/2-x,1/2+y,1/2-z
loop_
_atom_site_type_symbol
_atom_site_label
_atom_site_fract_x
_atom_site_fract_y
_atom_site_fract_z
Si Si1 0.336475 0.403704 0.380825
Si Si2 0.000000 0.003915 0.250000
Si Si3 0.500000 0.300104 0.250000
Si Si4 0.500000 0.283087 0.750000
Si Si5 0.653273 0.927052 0.011647
Si Si6 0.803085 0.385034 0.671569
O O1 0.345870 0.460060 0.314133
O O2 0.417612 0.343718 0.328173
O O3 0.551425 0.416315 0.454504
O O4 0.047545 0.401598 0.418724
O O5 0.175124 0.049547 0.305673
O O6 0.248548 0.258699 0.227673
O O7 0.592674 0.330169 0.676326
O O8 0.591412 0.893228 0.922882
O O9 0.611151 0.000000 0.000000
O O10 0.000000 0.372786 0.750000
#
# Coordination Sequence:
#
# PCOD9319864 Si02
#       6
#     8   4   4   4   8   8
#     4  11  25  42  69 102 138 178 220 276 339 400
#     4  10  22  40  66 104 134 184 216 268 342 418
#     4  11  24  49  72  93 136 183 238 272 330 393
#     4  11  24  45  74  93 126 191 236 282 316 399
#     4  12  24  41  67 108 144 166 215 280 348 408
#     4  11  24  42  71  97 137 176 228 272 343 400
#
# _framework density 20.664826000000001
#
# number of rings (size 3 to 8) (size 9 to 14) (size 15 to 20)
#    0.000    0.889    3.333    3.333    6.222    1.778 
#    0.000    4.444    0.000    0.000    0.000    0.000 
#    0.000    0.000    0.000    0.000    0.000    0.000 
#
# Total GULP energy -100658.942332 kJ/mol
# GULP energy per Si atom -5592.163463 kJ/mol
# Density = 2.061779 g / cm^3
# Si number density = 20.664826 Si / 1000 Ang^3
#
#
#
# Elastic Constant Matrix: (Units=GPa)
#
#
# Indices 1 2 3 4 5 6 
#
# 1 57.3190 29.0097 -13.6346 0.0000 0.0000 0.0000
# 2 29.0097 128.6818 26.2523 0.0000 0.0000 0.0000
# 3 -13.6346 26.2523 62.4230 0.0000 0.0000 0.0000
# 4 0.0000 0.0000 0.0000 0.7540 0.0000 0.0000
# 5 0.0000 0.0000 0.0000 0.0000 38.8187 0.0000
# 6 0.0000 0.0000 0.0000 0.0000 0.0000 32.7860
#
#
#
# Elastic Compliance Matrix: (Units=1/GPa)
#
#
# Indices 1 2 3 4 5 6 
#
# 1 0.022686 -0.006700 0.007773 0.000000 0.000000 0.000000
# 2 -0.006700 0.010479 -0.005871 0.000000 0.000000 0.000000
# 3 0.007773 -0.005871 0.020186 0.000000 0.000000 0.000000
# 4 0.000000 0.000000 0.000000 1.326328 0.000000 0.000000
# 5 0.000000 0.000000 0.000000 0.000000 0.025761 0.000000
# 6 0.000000 0.000000 0.000000 0.000000 0.000000 0.030501
#
#
# Mechanical properties :
#
#
# Convention : Reuss Voigt Hill
#
# Bulk Modulus (GPa) = 22.85379 36.85318 29.85349
# Shear Modulus (GPa) = 3.42437 28.25816 15.84126
#
# Velocity S-wave (km/s) = 1.28868 3.70192 2.77172
# Velocity P-wave (km/s) = 3.64658 6.01205 4.97204
#
# Compressibility (1/GPa) = 0.04375642
#
# Stress axis : x y z
#
# Youngs Moduli (GPa) = 44.07975 95.42716 49.53827
#
# Poissons Ratio (x) = 0.63937 -0.38506
# Poissons Ratio (y) = 0.29534 0.29082
# Poissons Ratio (z) = -0.34263 0.56021
#
# Static dielectric constant tensor:
#      x y z
#    x 1.760250 0.000000 0.000000 
#    y 0.000000 1.720910 0.000000 
#    z 0.000000 0.000000 1.714600 
# 
# From -- ./inp_files/17559.got.cif
#   From: 2010.05.17/outbox.cif.g08.bks.cpg/sg20_9_cif.got.tgz:17559.got - 2010.06.03 22:52:26.
