data_PCOD9319628
_publ_section_title
;
Structure prediction by ZEFSAII (Michael W. Deem and Ramdas Pophale) SiO2 
 PCOD9319628
Probable space group: C 2 2 21
;
_chemical_formula_sum "Si O2"
_cell_formula_units_Z 56
_cell_length_a 11.737928
_cell_length_b 19.058303
_cell_length_c 14.188497
_cell_angle_alpha 90.000000
_cell_angle_beta 90.000000
_cell_angle_gamma 90.000000
_cell_volume 3174.037557
_symmetry_space_group_name_H-M "C 2 2 21"
_symmetry_group_IT_number 20
_symmetry_cell_setting 'orthorhombic'
loop_
_space_group_symop_operation_xyz
x,y,z
-x,-y,1/2+z
x,-y,-z
-x,y,1/2-z
1/2+x,1/2+y,z
1/2-x,1/2-y,1/2+z
1/2+x,1/2-y,-z
1/2-x,1/2+y,1/2-z
loop_
_atom_site_type_symbol
_atom_site_label
_atom_site_fract_x
_atom_site_fract_y
_atom_site_fract_z
Si Si1 0.914544 0.618485 0.066432
Si Si2 0.245521 0.813485 0.067657
Si Si3 0.265920 0.680916 0.937584
Si Si4 0.636374 0.144604 0.747560
Si Si5 0.003523 0.225648 0.637119
Si Si6 0.635363 0.983172 0.733107
Si Si7 0.166235 0.565750 0.061279
O O1 0.964175 0.694822 0.101530
O O2 0.855513 0.571722 0.147797
O O3 0.032369 0.579904 0.039576
O O4 0.822386 0.626287 0.983052
O O5 0.312548 0.805155 0.166681
O O6 0.113284 0.808074 0.098071
O O7 0.250737 0.756116 0.985046
O O8 0.183053 0.665036 0.850283
O O9 0.392681 0.677758 0.897504
O O10 0.238269 0.629680 0.022917
O O11 0.500000 0.147905 0.750000
O O12 0.674491 0.064045 0.724126
O O13 0.000000 0.229000 0.750000
O O14 0.500000 0.989096 0.750000
O O15 0.682319 0.949618 0.829033
O O16 0.202057 0.500000 0.000000
#
# Coordination Sequence:
#
# PCOD9319628 Si02
#       7
#     8   8   8   8   8   8   8
#     4  10  22  36  61  92 119 148 201 248 307 349
#     4  11  24  37  60  84 124 163 193 245 293 360
#     4  11  23  37  59  87 119 159 199 239 296 362
#     4  11  22  38  60  94 121 146 191 254 310 347
#     4  11  21  40  58  81 121 166 198 231 292 371
#     4   9  20  34  61  92 119 145 189 255 311 350
#     4  11  19  35  63  91 118 152 192 251 305 356
#
# _framework density 17.643143999999999
#
# number of rings (size 3 to 8) (size 9 to 14) (size 15 to 20)
#    0.000    1.429    4.286    2.143    6.000    0.000 
#    0.000    0.000    3.143    0.000    0.000    0.000 
#    0.000    0.000    0.000    0.000    0.000    0.000 
#
# Total GULP energy -155890.416258 kJ/mol
# GULP energy per Si atom -5567.514866 kJ/mol
# Density = 1.760299 g / cm^3
# Si number density = 17.643144 Si / 1000 Ang^3
#
#
#
# Elastic Constant Matrix: (Units=GPa)
#
#
# Indices 1 2 3 4 5 6 
#
# 1 102.8314 9.5484 31.7659 0.0000 0.0000 0.0000
# 2 9.5484 31.6959 10.8689 0.0000 0.0000 0.0000
# 3 31.7659 10.8689 85.0783 0.0000 0.0000 0.0000
# 4 0.0000 0.0000 0.0000 34.4374 0.0000 0.0000
# 5 0.0000 0.0000 0.0000 0.0000 42.5446 0.0000
# 6 0.0000 0.0000 0.0000 0.0000 0.0000 -18.0397
#
#
#
# Elastic Compliance Matrix: (Units=1/GPa)
#
#
# Indices 1 2 3 4 5 6 
#
# 1 0.011114 -0.002013 -0.003892 0.000000 0.000000 0.000000
# 2 -0.002013 0.033360 -0.003510 0.000000 0.000000 0.000000
# 3 -0.003892 -0.003510 0.013656 0.000000 0.000000 0.000000
# 4 0.000000 0.000000 0.000000 0.029038 0.000000 0.000000
# 5 0.000000 0.000000 0.000000 0.000000 0.023505 0.000000
# 6 0.000000 0.000000 0.000000 0.000000 0.000000 -0.055433
#
#
# Mechanical properties :
#
#
# Convention : Reuss Voigt Hill
#
# Bulk Modulus (GPa) = 25.44665 35.99690 30.72177
# Shear Modulus (GPa) = 57.35887 22.94994 40.15441
#
# Velocity S-wave (km/s) = 5.70799 3.61055 4.77584
# Velocity P-wave (km/s) = 7.60893 6.15049 6.91825
#
# Compressibility (1/GPa) = 0.03929791
#
# Stress axis : x y z
#
# Youngs Moduli (GPa) = 89.97632 29.97603 73.22984
#
# Poissons Ratio (x) = 0.06035 0.28504
# Poissons Ratio (y) = 0.18115 0.25704
# Poissons Ratio (z) = 0.35023 0.10522
#
# Static dielectric constant tensor:
#      x y z
#    x 1.594830 0.000000 0.000000 
#    y 0.000000 1.565100 0.000000 
#    z 0.000000 0.000000 1.617230 
# 
# From -- ./inp_files/19183.got.cif
#   From: 2010.05.17/outbox.cif.g08.bks.cpg/sg20_10_cif.got.tgz:19183.got - 2010.06.03 22:52:26.
