data_PCOD9319722
_publ_section_title
;
Structure prediction by ZEFSAII (Michael W. Deem and Ramdas Pophale) SiO2 
 PCOD9319722
Probable space group: C 2 2 21
;
_chemical_formula_sum "Si O2"
_cell_formula_units_Z 64
_cell_length_a 9.105172
_cell_length_b 17.079286
_cell_length_c 19.781960
_cell_angle_alpha 90.000000
_cell_angle_beta 90.000000
_cell_angle_gamma 90.000000
_cell_volume 3076.289369
_symmetry_space_group_name_H-M "C 2 2 21"
_symmetry_group_IT_number 20
_symmetry_cell_setting 'orthorhombic'
loop_
_space_group_symop_operation_xyz
x,y,z
-x,-y,1/2+z
x,-y,-z
-x,y,1/2-z
1/2+x,1/2+y,z
1/2-x,1/2-y,1/2+z
1/2+x,1/2-y,-z
1/2-x,1/2+y,1/2-z
loop_
_atom_site_type_symbol
_atom_site_label
_atom_site_fract_x
_atom_site_fract_y
_atom_site_fract_z
Si Si1 0.596539 0.838640 0.685245
Si Si2 0.101249 0.745422 0.080032
Si Si3 0.390670 0.405966 0.349922
Si Si4 0.714096 0.422397 0.302388
Si Si5 0.391258 0.240635 0.685339
Si Si6 0.417330 0.247489 0.951806
Si Si7 0.513209 0.989101 0.177558
Si Si8 0.848193 0.568199 0.947439
O O1 0.500000 0.811392 0.750000
O O2 0.510917 0.810007 0.619002
O O3 0.761220 0.805796 0.688527
O O4 0.579686 0.932171 0.683381
O O5 0.134560 0.814698 0.133231
O O6 0.259429 0.711204 0.058749
O O7 0.016985 0.776728 0.013671
O O8 0.561977 0.419939 0.341994
O O9 0.320684 0.426745 0.277578
O O10 0.310089 0.446196 0.412747
O O11 0.801138 0.341358 0.315745
O O12 0.811729 0.495471 0.327208
O O13 0.500000 0.244946 0.750000
O O14 0.488150 0.248762 0.617129
O O15 0.370793 0.157411 0.970577
O O16 0.500000 0.947207 0.250000
O O17 0.456870 0.940407 0.115571
O O18 0.879421 0.500000 0.000000
#
# Coordination Sequence:
#
# PCOD9319722 Si02
#       8
#     8   8   8   8   8   8   8   8
#     4  11  23  40  62  95 133 172 209 285 346 399
#     4  11  22  41  59  97 131 171 225 278 347 396
#     4  10  22  38  68  97 127 169 229 284 334 398
#     4  11  20  40  70  99 126 170 235 287 324 403
#     4  12  22  39  68 100 131 173 234 283 336 400
#     4  11  24  38  65  91 130 177 225 281 333 410
#     4  11  22  40  65  91 132 174 227 272 337 405
#     4  11  22  41  61  95 131 183 222 271 339 413
#
# _framework density 20.804283999999999
#
# number of rings (size 3 to 8) (size 9 to 14) (size 15 to 20)
#    0.000    1.000    3.750    4.875    0.000    1.000 
#    0.000    6.875    0.000    0.000    0.000    0.000 
#    0.000    0.000    0.000    0.000    0.000    0.000 
#
# Total GULP energy -178608.063264 kJ/mol
# GULP energy per Si atom -5581.501977 kJ/mol
# Density = 2.075693 g / cm^3
# Si number density = 20.804284 Si / 1000 Ang^3
#
#
#
# Elastic Constant Matrix: (Units=GPa)
#
#
# Indices 1 2 3 4 5 6 
#
# 1 155.8871 22.4047 32.5345 0.0000 0.0000 0.0000
# 2 22.4047 49.4890 2.9840 0.0000 0.0000 0.0000
# 3 32.5345 2.9840 87.1036 0.0000 0.0000 0.0000
# 4 0.0000 0.0000 0.0000 12.5570 0.0000 0.0000
# 5 0.0000 0.0000 0.0000 0.0000 32.4919 0.0000
# 6 0.0000 0.0000 0.0000 0.0000 0.0000 27.8659
#
#
#
# Elastic Compliance Matrix: (Units=1/GPa)
#
#
# Indices 1 2 3 4 5 6 
#
# 1 0.007432 -0.003204 -0.002666 0.000000 0.000000 0.000000
# 2 -0.003204 0.021629 0.000456 0.000000 0.000000 0.000000
# 3 -0.002666 0.000456 0.012461 0.000000 0.000000 0.000000
# 4 0.000000 0.000000 0.000000 0.079637 0.000000 0.000000
# 5 0.000000 0.000000 0.000000 0.000000 0.030777 0.000000
# 6 0.000000 0.000000 0.000000 0.000000 0.000000 0.035886
#
#
# Mechanical properties :
#
#
# Convention : Reuss Voigt Hill
#
# Bulk Modulus (GPa) = 32.58006 45.36954 38.97480
# Shear Modulus (GPa) = 23.93703 30.22008 27.07856
#
# Velocity S-wave (km/s) = 3.39570 3.81542 3.61166
# Velocity P-wave (km/s) = 5.57393 6.42379 6.01389
#
# Compressibility (1/GPa) = 0.03069362
#
# Stress axis : x y z
#
# Youngs Moduli (GPa) = 134.55706 46.23328 80.25156
#
# Poissons Ratio (x) = 0.14812 0.21396
# Poissons Ratio (y) = 0.43109 -0.03657
# Poissons Ratio (z) = 0.35875 -0.02107
#
# Static dielectric constant tensor:
#      x y z
#    x 1.852380 0.000000 0.000000 
#    y 0.000000 1.763620 0.000000 
#    z 0.000000 0.000000 1.763130 
# 
# From -- ./inp_files/26916.got.cif
#   From: 2010.05.17/outbox.cif.g08.bks.cpg/sg20_14_cif.got.tgz:26916.got - 2010.06.03 22:52:26.
