data_PCOD9319799
_publ_section_title
;
Structure prediction by ZEFSAII (Michael W. Deem and Ramdas Pophale) SiO2 
 PCOD9319799
Probable space group: C 2 2 21
;
_chemical_formula_sum "Si O2"
_cell_formula_units_Z 48
_cell_length_a 5.043904
_cell_length_b 28.777077
_cell_length_c 16.005613
_cell_angle_alpha 90.000000
_cell_angle_beta 90.000000
_cell_angle_gamma 90.000000
_cell_volume 2323.195741
_symmetry_space_group_name_H-M "C 2 2 21"
_symmetry_group_IT_number 20
_symmetry_cell_setting 'orthorhombic'
loop_
_space_group_symop_operation_xyz
x,y,z
-x,-y,1/2+z
x,-y,-z
-x,y,1/2-z
1/2+x,1/2+y,z
1/2-x,1/2-y,1/2+z
1/2+x,1/2-y,-z
1/2-x,1/2+y,1/2-z
loop_
_atom_site_type_symbol
_atom_site_label
_atom_site_fract_x
_atom_site_fract_y
_atom_site_fract_z
Si Si1 0.999912 0.470518 0.350111
Si Si2 0.582539 0.124172 0.945410
Si Si3 0.758146 0.697175 0.192348
Si Si4 0.917461 0.124172 0.445411
Si Si5 0.000087 0.029482 0.149889
Si Si6 0.241854 0.802824 0.307652
O O1 0.905273 0.425197 0.398676
O O2 0.794536 0.511917 0.370282
O O3 0.000000 0.461815 0.250000
O O4 0.294536 0.488083 0.370282
O O5 0.681383 0.163885 0.882924
O O6 0.280676 0.127758 0.976284
O O7 0.780677 0.127758 0.023715
O O8 0.500000 0.699412 0.250000
O O9 0.681384 0.663885 0.117076
O O10 0.825865 0.750000 0.164760
O O11 0.000000 0.679785 0.250000
O O12 0.905275 0.074803 0.398677
O O13 0.000000 0.038185 0.250000
O O14 0.500000 0.800587 0.250000
O O15 0.000000 0.820214 0.250000
#
# Coordination Sequence:
#
# PCOD9319799 Si02
#       6
#     8   8   8   8   8   8
#     4  10  22  40  61  84 115 160 207 246 288 349
#     4  12  25  38  60  93 126 158 193 249 313 361
#     4  10  22  42  66  88 116 159 205 246 292 357
#     4  12  25  38  60  93 126 158 193 249 313 361
#     4  10  22  40  61  84 115 160 207 246 288 349
#     4  10  22  42  66  88 116 159 205 246 292 357
#
# _framework density 20.661196
#
# number of rings (size 3 to 8) (size 9 to 14) (size 15 to 20)
#    0.000    1.333    0.000    5.000    0.000    9.333 
#    0.000    0.000    0.000    0.000    0.000    0.000 
#    0.000    0.000    0.000    0.000    0.000    0.000 
#
# Total GULP energy -134177.049168 kJ/mol
# GULP energy per Si atom -5590.710382 kJ/mol
# Density = 2.061417 g / cm^3
# Si number density = 20.661196 Si / 1000 Ang^3
#
#
#
# Elastic Constant Matrix: (Units=GPa)
#
#
# Indices 1 2 3 4 5 6 
#
# 1 89.9281 -12.3145 4.3756 0.0000 0.0000 0.0000
# 2 -12.3145 78.7655 49.0084 0.0000 0.0000 0.0000
# 3 4.3756 49.0084 53.7048 0.0000 0.0000 0.0000
# 4 0.0000 0.0000 0.0000 112.7544 0.0000 0.0000
# 5 0.0000 0.0000 0.0000 0.0000 47.1031 0.0000
# 6 0.0000 0.0000 0.0000 0.0000 0.0000 30.2674
#
#
#
# Elastic Compliance Matrix: (Units=1/GPa)
#
#
# Indices 1 2 3 4 5 6 
#
# 1 0.012231 0.005859 -0.006343 0.000000 0.000000 0.000000
# 2 0.005859 0.032181 -0.029844 0.000000 0.000000 0.000000
# 3 -0.006343 -0.029844 0.046372 0.000000 0.000000 0.000000
# 4 0.000000 0.000000 0.000000 0.008869 0.000000 0.000000
# 5 0.000000 0.000000 0.000000 0.000000 0.021230 0.000000
# 6 0.000000 0.000000 0.000000 0.000000 0.000000 0.033039
#
#
# Mechanical properties :
#
#
# Convention : Reuss Voigt Hill
#
# Bulk Modulus (GPa) = 33.19313 33.83751 33.51532
# Shear Modulus (GPa) = 22.25969 50.11358 36.18664
#
# Velocity S-wave (km/s) = 3.28589 4.93027 4.18955
# Velocity P-wave (km/s) = 5.52235 6.98734 6.29759
#
# Compressibility (1/GPa) = 0.03012671
#
# Stress axis : x y z
#
# Youngs Moduli (GPa) = 81.75990 31.07391 21.56486
#
# Poissons Ratio (x) = -0.18206 0.13679
# Poissons Ratio (y) = -0.47903 0.64359
# Poissons Ratio (z) = 0.51861 0.92738
#
# Static dielectric constant tensor:
#      x y z
#    x 1.694740 0.000000 0.000000 
#    y 0.000000 1.729500 0.000000 
#    z 0.000000 0.000000 1.725090 
# 
# From -- ./inp_files/17800.got.cif
#   From: 2010.05.17/outbox.cif.g08.bks.cpg/sg20_9_cif.got.tgz:17800.got - 2010.06.03 22:52:26.
