data_PCOD9319314
_publ_section_title
;
Structure prediction by ZEFSAII (Michael W. Deem and Ramdas Pophale) SiO2 
 PCOD9319314
Probable space group: C 2 2 21
;
_chemical_formula_sum "Si O2"
_cell_formula_units_Z 40
_cell_length_a 13.359717
_cell_length_b 13.869269
_cell_length_c 10.996175
_cell_angle_alpha 90.000000
_cell_angle_beta 90.000000
_cell_angle_gamma 90.000000
_cell_volume 2037.475865
_symmetry_space_group_name_H-M "C 2 2 21"
_symmetry_group_IT_number 20
_symmetry_cell_setting 'orthorhombic'
loop_
_space_group_symop_operation_xyz
x,y,z
-x,-y,1/2+z
x,-y,-z
-x,y,1/2-z
1/2+x,1/2+y,z
1/2-x,1/2-y,1/2+z
1/2+x,1/2-y,-z
1/2-x,1/2+y,1/2-z
loop_
_atom_site_type_symbol
_atom_site_label
_atom_site_fract_x
_atom_site_fract_y
_atom_site_fract_z
Si Si1 0.385421 0.848749 0.116390
Si Si2 0.780678 0.895667 0.565039
Si Si3 0.864422 0.000000 0.000000
Si Si4 0.538284 0.000000 0.000000
Si Si5 0.696877 0.996868 0.799181
Si Si6 0.500878 0.349563 0.619820
O O1 0.342809 0.906481 0.232569
O O2 0.439508 0.748975 0.141542
O O3 0.294664 0.838342 0.021495
O O4 0.466527 0.918391 0.053419
O O5 0.885691 0.842297 0.581343
O O6 0.798453 0.000000 0.500000
O O7 0.727923 0.922455 0.693058
O O8 0.936042 0.910000 0.976145
O O9 0.792774 0.014383 0.883928
O O10 0.609326 0.963562 0.890728
O O11 0.500000 0.403498 0.750000
#
# Coordination Sequence:
#
# PCOD9319314 Si02
#       6
#     8   8   4   4   8   8
#     4  11  24  40  68  99 131 175 218 280 335 398
#     4  10  21  42  67  90 132 172 217 271 331 394
#     4  11  24  41  70  96 132 179 220 275 332 402
#     4  11  20  37  70  92 132 171 220 271 336 398
#     4  10  21  41  65  96 128 170 222 269 333 397
#     4  12  24  41  68  94 135 177 223 275 338 397
#
# _framework density 19.632135999999999
#
# number of rings (size 3 to 8) (size 9 to 14) (size 15 to 20)
#    0.000    1.200    6.000    1.800    0.000    4.800 
#    0.000    0.000   13.200    0.000    0.000    0.000 
#    0.000    0.000    0.000    0.000    0.000    0.000 
#
# Total GULP energy -111729.958364 kJ/mol
# GULP energy per Si atom -5586.497918 kJ/mol
# Density = 1.958745 g / cm^3
# Si number density = 19.632136 Si / 1000 Ang^3
#
#
#
# Elastic Constant Matrix: (Units=GPa)
#
#
# Indices 1 2 3 4 5 6 
#
# 1 152.8341 26.5740 52.7926 0.0000 0.0000 0.0000
# 2 26.5740 50.9246 9.5137 0.0000 0.0000 0.0000
# 3 52.7926 9.5137 106.2216 0.0000 0.0000 0.0000
# 4 0.0000 0.0000 0.0000 13.5387 0.0000 0.0000
# 5 0.0000 0.0000 0.0000 0.0000 31.5941 0.0000
# 6 0.0000 0.0000 0.0000 0.0000 0.0000 22.2813
#
#
#
# Elastic Compliance Matrix: (Units=1/GPa)
#
#
# Indices 1 2 3 4 5 6 
#
# 1 0.008542 -0.003727 -0.003912 0.000000 0.000000 0.000000
# 2 -0.003727 0.021597 -0.000082 0.000000 0.000000 0.000000
# 3 -0.003912 -0.000082 0.011366 0.000000 0.000000 0.000000
# 4 0.000000 0.000000 0.000000 0.073862 0.000000 0.000000
# 5 0.000000 0.000000 0.000000 0.000000 0.031651 0.000000
# 6 0.000000 0.000000 0.000000 0.000000 0.000000 0.044881
#
#
# Mechanical properties :
#
#
# Convention : Reuss Voigt Hill
#
# Bulk Modulus (GPa) = 38.36746 54.19341 46.28044
# Shear Modulus (GPa) = 23.14507 28.22282 25.68394
#
# Velocity S-wave (km/s) = 3.43729 3.79566 3.62091
# Velocity P-wave (km/s) = 5.94465 6.84644 6.41142
#
# Compressibility (1/GPa) = 0.02606375
#
# Stress axis : x y z
#
# Youngs Moduli (GPa) = 117.06516 46.30277 87.98331
#
# Poissons Ratio (x) = 0.17256 0.34417
# Poissons Ratio (y) = 0.43628 0.00722
# Poissons Ratio (z) = 0.45793 0.00380
#
# Static dielectric constant tensor:
#      x y z
#    x 1.684200 0.000000 0.000000 
#    y 0.000000 1.685440 0.000000 
#    z 0.000000 0.000000 1.716430 
# 
# From -- ./inp_files/13913.got.cif
#   From: 2010.05.17/outbox.cif.g08.bks.cpg/sg20_7_cif.got.tgz:13913.got - 2010.06.03 22:52:26.
