data_PCOD9319186
_publ_section_title
;
Structure prediction by ZEFSAII (Michael W. Deem and Ramdas Pophale) SiO2 
 PCOD9319186
Probable space group: C 2 2 21
;
_chemical_formula_sum "Si O2"
_cell_formula_units_Z 56
_cell_length_a 14.298164
_cell_length_b 19.891374
_cell_length_c 9.613839
_cell_angle_alpha 90.000000
_cell_angle_beta 90.000000
_cell_angle_gamma 90.000000
_cell_volume 2734.273177
_symmetry_space_group_name_H-M "C 2 2 21"
_symmetry_group_IT_number 20
_symmetry_cell_setting 'orthorhombic'
loop_
_space_group_symop_operation_xyz
x,y,z
-x,-y,1/2+z
x,-y,-z
-x,y,1/2-z
1/2+x,1/2+y,z
1/2-x,1/2-y,1/2+z
1/2+x,1/2-y,-z
1/2-x,1/2+y,1/2-z
loop_
_atom_site_type_symbol
_atom_site_label
_atom_site_fract_x
_atom_site_fract_y
_atom_site_fract_z
Si Si1 0.399042 0.820715 0.518931
Si Si2 0.094600 0.641207 0.412706
Si Si3 0.781997 0.482496 0.836504
Si Si4 0.927313 0.196728 0.367370
Si Si5 0.824912 0.632531 0.774955
Si Si6 0.924959 0.957010 0.638812
Si Si7 0.275304 0.231332 0.255956
O O1 0.482575 0.859851 0.592996
O O2 0.437288 0.745274 0.497327
O O3 0.380861 0.849015 0.365033
O O4 0.303943 0.808618 0.603994
O O5 0.143005 0.577725 0.334991
O O6 0.121919 0.639519 0.577160
O O7 0.142372 0.707840 0.347859
O O8 0.800676 0.553655 0.763642
O O9 0.678950 0.457967 0.796810
O O10 0.777248 0.500000 0.000000
O O11 0.946354 0.119816 0.399048
O O12 0.822391 0.205731 0.308301
O O13 0.000000 0.219132 0.250000
O O14 0.741895 0.688909 0.779936
O O15 0.000000 0.981220 0.750000
O O16 0.926906 0.000000 0.500000
#
# Coordination Sequence:
#
# PCOD9319186 Si02
#       7
#     8   8   8   8   8   8   8
#     4  11  23  38  63  97 127 160 220 264 305 381
#     4  11  21  42  62  89 130 171 206 259 328 378
#     4   9  20  39  67  86 125 175 210 254 324 389
#     4  10  21  40  64  88 123 169 201 256 329 374
#     4  10  21  40  66  90 121 171 221 260 313 386
#     4  10  21  41  64  91 125 167 211 259 321 386
#     4  11  22  38  62  94 126 164 206 266 318 371
#
# _framework density 20.480761999999999
#
# number of rings (size 3 to 8) (size 9 to 14) (size 15 to 20)
#    0.000    1.714    1.429    4.286    4.000    0.000 
#    7.714    9.286    0.000    0.000    0.000    0.000 
#    0.000    0.000    0.000    0.000    0.000    0.000 
#
# Total GULP energy -156177.053411 kJ/mol
# GULP energy per Si atom -5577.751908 kJ/mol
# Density = 2.043415 g / cm^3
# Si number density = 20.480762 Si / 1000 Ang^3
#
#
#
# Elastic Constant Matrix: (Units=GPa)
#
#
# Indices 1 2 3 4 5 6 
#
# 1 96.2945 43.6666 24.5276 0.0000 0.0000 0.0000
# 2 43.6666 103.4119 37.1214 0.0000 0.0000 0.0000
# 3 24.5276 37.1214 69.3698 0.0000 0.0000 0.0000
# 4 0.0000 0.0000 0.0000 28.3547 0.0000 0.0000
# 5 0.0000 0.0000 0.0000 0.0000 31.3764 0.0000
# 6 0.0000 0.0000 0.0000 0.0000 0.0000 16.9874
#
#
#
# Elastic Compliance Matrix: (Units=1/GPa)
#
#
# Indices 1 2 3 4 5 6 
#
# 1 0.013079 -0.004781 -0.002066 0.000000 0.000000 0.000000
# 2 -0.004781 0.013717 -0.005650 0.000000 0.000000 0.000000
# 3 -0.002066 -0.005650 0.018169 0.000000 0.000000 0.000000
# 4 0.000000 0.000000 0.000000 0.035268 0.000000 0.000000
# 5 0.000000 0.000000 0.000000 0.000000 0.031871 0.000000
# 6 0.000000 0.000000 0.000000 0.000000 0.000000 0.058867
#
#
# Mechanical properties :
#
#
# Convention : Reuss Voigt Hill
#
# Bulk Modulus (GPa) = 50.07103 53.30082 51.68593
# Shear Modulus (GPa) = 24.67644 26.26107 25.46876
#
# Velocity S-wave (km/s) = 3.47487 3.58471 3.53022
# Velocity P-wave (km/s) = 6.37186 6.57380 6.47362
#
# Compressibility (1/GPa) = 0.01997163
#
# Stress axis : x y z
#
# Youngs Moduli (GPa) = 76.45745 72.90196 55.03783
#
# Poissons Ratio (x) = 0.34856 0.11371
# Poissons Ratio (y) = 0.36556 0.31095
# Poissons Ratio (z) = 0.15796 0.41188
#
# Static dielectric constant tensor:
#      x y z
#    x 1.742310 0.000000 0.000000 
#    y 0.000000 1.777650 0.000000 
#    z 0.000000 0.000000 1.763020 
# 
# From -- ./inp_files/8756.got.cif
#   From: 2010.05.17/outbox.cif.g08.bks.cpg/sg20_5_cif.got.tgz:8756.got - 2010.06.03 22:52:26.
