data_PCOD9319369
_publ_section_title
;
Structure prediction by ZEFSAII (Michael W. Deem and Ramdas Pophale) SiO2 
 PCOD9319369
Probable space group: C 2 2 21
;
_chemical_formula_sum "Si O2"
_cell_formula_units_Z 36
_cell_length_a 22.207066
_cell_length_b 7.656036
_cell_length_c 8.923766
_cell_angle_alpha 90.000000
_cell_angle_beta 90.000000
_cell_angle_gamma 90.000000
_cell_volume 1517.201711
_symmetry_space_group_name_H-M "C 2 2 21"
_symmetry_group_IT_number 20
_symmetry_cell_setting 'orthorhombic'
loop_
_space_group_symop_operation_xyz
x,y,z
-x,-y,1/2+z
x,-y,-z
-x,y,1/2-z
1/2+x,1/2+y,z
1/2-x,1/2-y,1/2+z
1/2+x,1/2-y,-z
1/2-x,1/2+y,1/2-z
loop_
_atom_site_type_symbol
_atom_site_label
_atom_site_fract_x
_atom_site_fract_y
_atom_site_fract_z
Si Si1 0.423957 0.500000 0.000000
Si Si2 0.193627 0.500000 0.500000
Si Si3 0.353488 0.236834 0.786707
Si Si4 0.265481 0.180313 0.409649
Si Si5 0.500000 0.300141 0.250000
Si Si6 0.105341 0.206494 0.960183
O O1 0.286915 0.326658 0.783611
O O2 0.386772 0.647799 0.087933
O O3 0.155011 0.455919 0.354548
O O4 0.233378 0.328424 0.509802
O O5 0.462460 0.586243 0.868471
O O6 0.385177 0.221153 0.627821
O O7 0.331260 0.257641 0.376882
O O8 0.270763 0.000000 0.500000
O O9 0.449105 0.218882 0.359916
O O10 0.096690 0.000000 0.000000
#
# Coordination Sequence:
#
# PCOD9319369 Si02
#       6
#     4   4   8   8   4   8
#     4  12  20  43  74 102 151 206 274 318 396 458
#     4   8  20  43  66 120 159 186 246 316 414 488
#     4  10  21  41  74 111 153 203 250 329 404 473
#     4  10  22  42  73 122 156 199 251 328 414 482
#     4  12  26  42  72 110 150 220 278 330 380 476
#     4  12  23  44  72 108 159 212 269 324 395 479
#
# _framework density 23.727893999999999
#
# number of rings (size 3 to 8) (size 9 to 14) (size 15 to 20)
#    1.333    0.000    5.556    0.000    0.000    5.333 
#    4.000    0.000    2.444    2.667    0.000    0.000 
#    0.000    0.000    0.000    0.000    0.000    0.000 
#
# Total GULP energy -100365.858259 kJ/mol
# GULP energy per Si atom -5575.881014 kJ/mol
# Density = 2.367389 g / cm^3
# Si number density = 23.727894 Si / 1000 Ang^3
#
#
#
# Elastic Constant Matrix: (Units=GPa)
#
#
# Indices 1 2 3 4 5 6 
#
# 1 151.9517 29.9019 78.5327 0.0000 0.0000 0.0000
# 2 29.9019 84.1568 24.5306 0.0000 0.0000 0.0000
# 3 78.5327 24.5306 149.1231 0.0000 0.0000 0.0000
# 4 0.0000 0.0000 0.0000 35.2988 0.0000 0.0000
# 5 0.0000 0.0000 0.0000 0.0000 275.1846 0.0000
# 6 0.0000 0.0000 0.0000 0.0000 0.0000 -16.1964
#
#
#
# Elastic Compliance Matrix: (Units=1/GPa)
#
#
# Indices 1 2 3 4 5 6 
#
# 1 0.009346 -0.001981 -0.004596 0.000000 0.000000 0.000000
# 2 -0.001981 0.012901 -0.001079 0.000000 0.000000 0.000000
# 3 -0.004596 -0.001079 0.009304 0.000000 0.000000 0.000000
# 4 0.000000 0.000000 0.000000 0.028330 0.000000 0.000000
# 5 0.000000 0.000000 0.000000 0.000000 0.003634 0.000000
# 6 0.000000 0.000000 0.000000 0.000000 0.000000 -0.061742
#
#
# Mechanical properties :
#
#
# Convention : Reuss Voigt Hill
#
# Bulk Modulus (GPa) = 61.58100 72.35134 66.96617
# Shear Modulus (GPa) = 222.24339 75.67515 148.95927
#
# Velocity S-wave (km/s) = 9.68848 5.65351 7.93186
# Velocity P-wave (km/s) = 12.29491 8.55421 10.59102
#
# Compressibility (1/GPa) = 0.01623878
#
# Stress axis : x y z
#
# Youngs Moduli (GPa) = 106.99412 77.51355 107.48282
#
# Poissons Ratio (x) = 0.15356 0.49401
# Poissons Ratio (y) = 0.21197 0.11596
# Poissons Ratio (z) = 0.49176 0.08363
#
# Static dielectric constant tensor:
#      x y z
#    x 1.965090 0.000000 0.000000 
#    y 0.000000 1.855040 0.000000 
#    z 0.000000 0.000000 2.066810 
# 
# From -- ./inp_files/9901.got.cif
#   From: 2010.05.17/outbox.cif.g08.bks.cpg/sg20_5_cif.got.tgz:9901.got - 2010.06.03 22:52:26.
