data_PCOD9319980
_publ_section_title
;
Structure prediction by ZEFSAII (Michael W. Deem and Ramdas Pophale) SiO2 
 PCOD9319980
Probable space group: C 2 2 21
;
_chemical_formula_sum "Si O2"
_cell_formula_units_Z 64
_cell_length_a 30.723101
_cell_length_b 11.935752
_cell_length_c 8.214049
_cell_angle_alpha 90.000000
_cell_angle_beta 90.000000
_cell_angle_gamma 90.000000
_cell_volume 3012.118991
_symmetry_space_group_name_H-M "C 2 2 21"
_symmetry_group_IT_number 20
_symmetry_cell_setting 'orthorhombic'
loop_
_space_group_symop_operation_xyz
x,y,z
-x,-y,1/2+z
x,-y,-z
-x,y,1/2-z
1/2+x,1/2+y,z
1/2-x,1/2-y,1/2+z
1/2+x,1/2-y,-z
1/2-x,1/2+y,1/2-z
loop_
_atom_site_type_symbol
_atom_site_label
_atom_site_fract_x
_atom_site_fract_y
_atom_site_fract_z
Si Si1 0.449949 0.390593 0.289751
Si Si2 0.201088 0.828462 0.860285
Si Si3 0.383878 0.181155 0.612864
Si Si4 0.450635 0.640015 0.316429
Si Si5 0.239312 0.364164 0.328230
Si Si6 0.651055 0.008932 0.325585
Si Si7 0.679016 0.545361 0.679135
Si Si8 0.621817 0.241577 0.238558
O O1 0.500000 0.381541 0.250000
O O2 0.435932 0.518342 0.249337
O O3 0.447856 0.375250 0.486372
O O4 0.422267 0.297879 0.192642
O O5 0.162904 0.742549 0.904205
O O6 0.225815 0.762053 0.717461
O O7 0.178266 0.939781 0.797899
O O8 0.233747 0.858771 0.004914
O O9 0.417053 0.258742 0.715132
O O10 0.375476 0.061725 0.692979
O O11 0.396944 0.184401 0.425414
O O12 0.500000 0.659380 0.250000
O O13 0.197463 0.445287 0.336263
O O14 0.271218 0.410553 0.188016
O O15 0.628387 0.000000 0.500000
O O16 0.652114 0.141989 0.302586
O O17 0.667429 0.500000 0.500000
O O18 0.651198 0.646569 0.754891
#
# Coordination Sequence:
#
# PCOD9319980 Si02
#       8
#     8   8   8   8   8   8   8   8
#     4   9  19  38  62  95 130 169 203 263 334 398
#     4  11  23  42  62  91 121 167 215 265 329 395
#     4  10  22  41  68  89 125 174 213 265 337 401
#     4   9  18  36  65  99 131 162 212 265 330 410
#     4  11  25  41  67  87 129 170 219 276 333 399
#     4  11  26  42  63  92 127 168 224 280 332 391
#     4  12  26  39  61  92 126 164 214 269 327 387
#     4  11  24  43  64  91 130 170 224 268 330 410
#
# _framework density 21.247501
#
# number of rings (size 3 to 8) (size 9 to 14) (size 15 to 20)
#    0.000    1.500    1.250    3.000    7.000    4.000 
#    4.500    0.625    0.000    0.000    0.000    0.000 
#    0.000    0.000    0.000    0.000    0.000    0.000 
#
# Total GULP energy -178377.484795 kJ/mol
# GULP energy per Si atom -5574.296400 kJ/mol
# Density = 2.119914 g / cm^3
# Si number density = 21.247501 Si / 1000 Ang^3
#
#
#
# Elastic Constant Matrix: (Units=GPa)
#
#
# Indices 1 2 3 4 5 6 
#
# 1 52.7177 36.9981 3.9546 0.0000 0.0000 0.0000
# 2 36.9981 130.6684 6.3629 0.0000 0.0000 0.0000
# 3 3.9546 6.3629 24.4985 0.0000 0.0000 0.0000
# 4 0.0000 0.0000 0.0000 9.8564 0.0000 0.0000
# 5 0.0000 0.0000 0.0000 0.0000 22.2533 0.0000
# 6 0.0000 0.0000 0.0000 0.0000 0.0000 35.6041
#
#
#
# Elastic Compliance Matrix: (Units=1/GPa)
#
#
# Indices 1 2 3 4 5 6 
#
# 1 0.023781 -0.006630 -0.002117 0.000000 0.000000 0.000000
# 2 -0.006630 0.009600 -0.001423 0.000000 0.000000 0.000000
# 3 -0.002117 -0.001423 0.041530 0.000000 0.000000 0.000000
# 4 0.000000 0.000000 0.000000 0.101457 0.000000 0.000000
# 5 0.000000 0.000000 0.000000 0.000000 0.044937 0.000000
# 6 0.000000 0.000000 0.000000 0.000000 0.000000 0.028087
#
#
# Mechanical properties :
#
#
# Convention : Reuss Voigt Hill
#
# Bulk Modulus (GPa) = 18.32490 33.61289 25.96889
# Shear Modulus (GPa) = 17.36582 24.24735 20.80659
#
# Velocity S-wave (km/s) = 2.86197 3.38181 3.13269
# Velocity P-wave (km/s) = 4.42316 5.57700 5.03325
#
# Compressibility (1/GPa) = 0.05457057
#
# Stress axis : x y z
#
# Youngs Moduli (GPa) = 42.05026 104.17072 24.07897
#
# Poissons Ratio (x) = 0.69070 0.05097
# Poissons Ratio (y) = 0.27881 0.03426
# Poissons Ratio (z) = 0.08901 0.14823
#
# Static dielectric constant tensor:
#      x y z
#    x 1.808920 0.000000 0.000000 
#    y 0.000000 1.822120 0.000000 
#    z 0.000000 0.000000 1.881360 
# 
# From -- ./inp_files/11622.got.cif
#   From: 2010.05.17/outbox.cif.g08.bks.cpg/sg20_6_cif.got.tgz:11622.got - 2010.06.03 22:52:26.
