data_PCOD9319200
_publ_section_title
;
Structure prediction by ZEFSAII (Michael W. Deem and Ramdas Pophale) SiO2 
 PCOD9319200
Probable space group: C 2 2 21
;
_chemical_formula_sum "Si O2"
_cell_formula_units_Z 40
_cell_length_a 8.269130
_cell_length_b 17.735867
_cell_length_c 12.315897
_cell_angle_alpha 90.000000
_cell_angle_beta 90.000000
_cell_angle_gamma 90.000000
_cell_volume 1806.251793
_symmetry_space_group_name_H-M "C 2 2 21"
_symmetry_group_IT_number 20
_symmetry_cell_setting 'orthorhombic'
loop_
_space_group_symop_operation_xyz
x,y,z
-x,-y,1/2+z
x,-y,-z
-x,y,1/2-z
1/2+x,1/2+y,z
1/2-x,1/2-y,1/2+z
1/2+x,1/2-y,-z
1/2-x,1/2+y,1/2-z
loop_
_atom_site_type_symbol
_atom_site_label
_atom_site_fract_x
_atom_site_fract_y
_atom_site_fract_z
Si Si1 0.820413 0.940538 0.202153
Si Si2 0.319538 0.029759 0.109662
Si Si3 0.748719 0.314968 0.469996
Si Si4 0.969766 0.907828 0.874234
Si Si5 0.547423 0.190293 0.367386
O O1 0.746726 0.877311 0.125388
O O2 0.000000 0.919838 0.250000
O O3 0.706997 0.964863 0.301998
O O4 0.853668 0.018998 0.137944
O O5 0.139432 0.060973 0.082756
O O6 0.409172 0.103350 0.150295
O O7 0.397951 0.000000 0.000000
O O8 0.608894 0.345994 0.550216
O O9 0.696263 0.236765 0.416113
O O10 0.905026 0.306562 0.544618
O O11 0.000000 0.881566 0.750000
O O12 0.500000 0.222973 0.250000
#
# Coordination Sequence:
#
# PCOD9319200 Si02
#       5
#     8   8   8   8   8
#     4   9  19  38  69  98 127 169 221 269 317 390
#     4  10  21  40  64  95 131 169 215 270 327 388
#     4  12  24  42  66  94 132 178 218 266 331 397
#     4   9  18  36  64  94 127 169 217 267 322 388
#     4  12  28  44  63  93 133 171 218 280 330 387
#
# _framework density 22.145306000000001
#
# number of rings (size 3 to 8) (size 9 to 14) (size 15 to 20)
#    0.000    2.000    0.000    7.200    0.000    4.800 
#    0.000    2.000    0.000    0.000    0.000    0.000 
#    0.000    0.000    0.000    0.000    0.000    0.000 
#
# Total GULP energy -111861.256392 kJ/mol
# GULP energy per Si atom -5593.062820 kJ/mol
# Density = 2.209490 g / cm^3
# Si number density = 22.145306 Si / 1000 Ang^3
#
#
#
# Elastic Constant Matrix: (Units=GPa)
#
#
# Indices 1 2 3 4 5 6 
#
# 1 55.5431 22.2500 44.2490 0.0000 0.0000 0.0000
# 2 22.2500 81.0751 71.5313 0.0000 0.0000 0.0000
# 3 44.2490 71.5313 128.4505 0.0000 0.0000 0.0000
# 4 0.0000 0.0000 0.0000 11.2761 0.0000 0.0000
# 5 0.0000 0.0000 0.0000 0.0000 20.8584 0.0000
# 6 0.0000 0.0000 0.0000 0.0000 0.0000 -4.5690
#
#
#
# Elastic Compliance Matrix: (Units=1/GPa)
#
#
# Indices 1 2 3 4 5 6 
#
# 1 0.024899 0.001444 -0.009381 0.000000 0.000000 0.000000
# 2 0.001444 0.024332 -0.014047 0.000000 0.000000 0.000000
# 3 -0.009381 -0.014047 0.018839 0.000000 0.000000 0.000000
# 4 0.000000 0.000000 0.000000 0.088683 0.000000 0.000000
# 5 0.000000 0.000000 0.000000 0.000000 0.047942 0.000000
# 6 0.000000 0.000000 0.000000 0.000000 0.000000 -0.218864
#
#
# Mechanical properties :
#
#
# Convention : Reuss Voigt Hill
#
# Bulk Modulus (GPa) = 41.49223 60.12547 50.80885
# Shear Modulus (GPa) = 132.15424 13.98232 73.06828
#
# Velocity S-wave (km/s) = 7.73340 2.51547 5.75035
# Velocity P-wave (km/s) = 9.92561 5.97044 8.19036
#
# Compressibility (1/GPa) = 0.02410090
#
# Stress axis : x y z
#
# Youngs Moduli (GPa) = 40.16147 41.09893 53.08039
#
# Poissons Ratio (x) = -0.05934 0.49797
# Poissons Ratio (y) = -0.05798 0.74562
# Poissons Ratio (z) = 0.37677 0.57732
#
# Static dielectric constant tensor:
#      x y z
#    x 1.839400 0.000000 0.000000 
#    y 0.000000 1.778210 0.000000 
#    z 0.000000 0.000000 1.894520 
# 
# From -- ./inp_files/12709.got.cif
#   From: 2010.05.17/outbox.cif.g08.bks.cpg/sg20_7_cif.got.tgz:12709.got - 2010.06.03 22:52:26.
