data_PCOD9319655
_publ_section_title
;
Structure prediction by ZEFSAII (Michael W. Deem and Ramdas Pophale) SiO2 
 PCOD9319655
Probable space group: C 2 2 21
;
_chemical_formula_sum "Si O2"
_cell_formula_units_Z 64
_cell_length_a 14.838977
_cell_length_b 7.550891
_cell_length_c 23.315058
_cell_angle_alpha 90.000000
_cell_angle_beta 90.000000
_cell_angle_gamma 90.000000
_cell_volume 2612.393912
_symmetry_space_group_name_H-M "C 2 2 21"
_symmetry_group_IT_number 20
_symmetry_cell_setting 'orthorhombic'
loop_
_space_group_symop_operation_xyz
x,y,z
-x,-y,1/2+z
x,-y,-z
-x,y,1/2-z
1/2+x,1/2+y,z
1/2-x,1/2-y,1/2+z
1/2+x,1/2-y,-z
1/2-x,1/2+y,1/2-z
loop_
_atom_site_type_symbol
_atom_site_label
_atom_site_fract_x
_atom_site_fract_y
_atom_site_fract_z
Si Si1 0.854813 0.273973 0.431064
Si Si2 0.520881 0.296982 0.027004
Si Si3 0.671538 0.288694 0.493905
Si Si4 0.241703 0.485108 0.169808
Si Si5 0.895641 0.962143 0.247931
Si Si6 0.100576 0.608587 0.735182
Si Si7 0.635290 0.565147 0.875911
Si Si8 0.675826 0.843265 0.382779
O O1 0.931518 0.318291 0.477582
O O2 0.769054 0.226501 0.472525
O O3 0.809977 0.398829 0.383556
O O4 0.904295 0.126339 0.391268
O O5 0.583243 0.300053 0.083440
O O6 0.522021 0.500000 0.000000
O O7 0.417977 0.253957 0.043325
O O8 0.681809 0.500000 0.500000
O O9 0.641676 0.210318 0.555238
O O10 0.332405 0.395168 0.196370
O O11 0.174133 0.485030 0.224203
O O12 0.278431 0.668018 0.144635
O O13 0.862099 0.898373 0.309315
O O14 0.000000 0.914041 0.250000
O O15 0.890304 0.178177 0.246501
O O16 0.114998 0.581453 0.667436
O O17 0.000000 0.553548 0.750000
O O18 0.738191 0.535722 0.893284
#
# Coordination Sequence:
#
# PCOD9319655 Si02
#       8
#     8   8   8   8   8   8   8   8
#     4  11  22  38  64  87 121 159 202 251 299 361
#     4   9  22  36  62  89 119 159 206 250 296 359
#     4  11  22  39  62  94 120 158 209 253 302 363
#     4  11  22  38  62  91 117 159 200 252 307 352
#     4  10  22  37  63  90 119 159 207 248 299 366
#     4  10  22  39  62  90 119 159 206 247 303 367
#     4  11  21  41  61  88 126 161 201 254 302 363
#     4  11  23  39  64  85 127 160 196 254 311 356
#
# _framework density 24.498601000000001
#
# number of rings (size 3 to 8) (size 9 to 14) (size 15 to 20)
#    0.000    1.500    5.000    0.000    3.500    3.000 
#    0.000    1.875    5.500    0.000    0.000    0.000 
#    0.000    0.000    0.000    0.000    0.000    0.000 
#
# Total GULP energy -178638.969270 kJ/mol
# GULP energy per Si atom -5582.467790 kJ/mol
# Density = 2.444284 g / cm^3
# Si number density = 24.498601 Si / 1000 Ang^3
#
#
#
# Elastic Constant Matrix: (Units=GPa)
#
#
# Indices 1 2 3 4 5 6 
#
# 1 88.4499 -14.4041 5.4686 0.0000 0.0000 0.0000
# 2 -14.4041 22.9032 18.2666 0.0000 0.0000 0.0000
# 3 5.4686 18.2666 79.9644 0.0000 0.0000 0.0000
# 4 0.0000 0.0000 0.0000 15.3632 0.0000 0.0000
# 5 0.0000 0.0000 0.0000 0.0000 33.7283 0.0000
# 6 0.0000 0.0000 0.0000 0.0000 0.0000 -22.3547
#
#
#
# Elastic Compliance Matrix: (Units=1/GPa)
#
#
# Indices 1 2 3 4 5 6 
#
# 1 0.013334 0.011144 -0.003458 0.000000 0.000000 0.000000
# 2 0.011144 0.062702 -0.015085 0.000000 0.000000 0.000000
# 3 -0.003458 -0.015085 0.016188 0.000000 0.000000 0.000000
# 4 0.000000 0.000000 0.000000 0.065091 0.000000 0.000000
# 5 0.000000 0.000000 0.000000 0.000000 0.029649 0.000000
# 6 0.000000 0.000000 0.000000 0.000000 0.000000 -0.044733
#
#
# Mechanical properties :
#
#
# Convention : Reuss Voigt Hill
#
# Bulk Modulus (GPa) = 12.91557 23.33108 18.12333
# Shear Modulus (GPa) = 27.34674 17.47980 22.41327
#
# Velocity S-wave (km/s) = 3.34467 2.67404 3.02798
# Velocity P-wave (km/s) = 4.49435 4.36785 4.43155
#
# Compressibility (1/GPa) = 0.07742594
#
# Stress axis : x y z
#
# Youngs Moduli (GPa) = 74.99421 15.94849 61.77401
#
# Poissons Ratio (x) = -0.17773 0.21359
# Poissons Ratio (y) = -0.83571 0.93188
# Poissons Ratio (z) = 0.25929 0.24059
#
# Static dielectric constant tensor:
#      x y z
#    x 2.066740 0.000000 0.000000 
#    y 0.000000 2.087360 0.000000 
#    z 0.000000 0.000000 2.070650 
# 
# From -- ./inp_files/29374.got.cif
#   From: 2010.05.17/outbox.cif.g08.bks.cpg/sg20_15_cif.got.tgz:29374.got - 2010.06.03 22:52:26.
