data_PCOD9319710
_publ_section_title
;
Structure prediction by ZEFSAII (Michael W. Deem and Ramdas Pophale) SiO2 
 PCOD9319710
Probable space group: C 2 2 21
;
_chemical_formula_sum "Si O2"
_cell_formula_units_Z 52
_cell_length_a 12.688922
_cell_length_b 7.481767
_cell_length_c 27.577719
_cell_angle_alpha 90.000000
_cell_angle_beta 90.000000
_cell_angle_gamma 90.000000
_cell_volume 2618.106138
_symmetry_space_group_name_H-M "C 2 2 21"
_symmetry_group_IT_number 20
_symmetry_cell_setting 'orthorhombic'
loop_
_space_group_symop_operation_xyz
x,y,z
-x,-y,1/2+z
x,-y,-z
-x,y,1/2-z
1/2+x,1/2+y,z
1/2-x,1/2-y,1/2+z
1/2+x,1/2-y,-z
1/2-x,1/2+y,1/2-z
loop_
_atom_site_type_symbol
_atom_site_label
_atom_site_fract_x
_atom_site_fract_y
_atom_site_fract_z
Si Si1 0.853809 0.000000 0.500000
Si Si2 0.373253 0.701624 0.109291
Si Si3 0.387298 0.298024 0.230644
Si Si4 0.654477 0.799574 0.501829
Si Si5 0.007254 0.540809 0.347792
Si Si6 0.010050 0.130643 0.581281
Si Si7 0.283569 0.067107 0.314381
O O1 0.775938 0.838516 0.513781
O O2 0.919304 0.941663 0.453655
O O3 0.354873 0.722283 0.051838
O O4 0.449165 0.530244 0.114559
O O5 0.267787 0.663082 0.139167
O O6 0.427458 0.880009 0.129182
O O7 0.500000 0.374716 0.250000
O O8 0.425029 0.140407 0.194020
O O9 0.321802 0.209762 0.274495
O O10 0.307558 0.437684 0.206055
O O11 0.600854 0.687279 0.543423
O O12 0.605129 0.000000 0.500000
O O13 0.984800 0.696483 0.386987
O O14 0.893914 0.473613 0.328678
#
# Coordination Sequence:
#
# PCOD9319710 Si02
#       7
#     4   8   8   8   8   8   8
#     4  10  22  38  66  88 124 182 214 272 334 378
#     4  12  23  42  67  98 132 177 220 274 331 395
#     4  10  23  45  67  97 135 167 218 281 330 403
#     4  10  22  42  64  93 134 175 223 273 321 389
#     4  11  24  43  65  96 135 166 223 273 326 403
#     4  12  22  42  66  94 134 174 223 275 328 391
#     4  11  24  43  70 100 128 178 216 272 344 393
#
# _framework density 19.861684
#
# number of rings (size 3 to 8) (size 9 to 14) (size 15 to 20)
#    0.462    0.615    4.615    1.846    0.000    2.462 
#    5.538    1.538    0.000    0.000    0.000    0.000 
#    0.000    0.000    0.000    0.000    0.000    0.000 
#
# Total GULP energy -145128.714889 kJ/mol
# GULP energy per Si atom -5581.873650 kJ/mol
# Density = 1.981648 g / cm^3
# Si number density = 19.861684 Si / 1000 Ang^3
#
#
#
# Elastic Constant Matrix: (Units=GPa)
#
#
# Indices 1 2 3 4 5 6 
#
# 1 102.8252 23.0126 13.8191 0.0000 0.0000 0.0000
# 2 23.0126 61.4682 2.7276 0.0000 0.0000 0.0000
# 3 13.8191 2.7276 57.9502 0.0000 0.0000 0.0000
# 4 0.0000 0.0000 0.0000 28.3226 0.0000 0.0000
# 5 0.0000 0.0000 0.0000 0.0000 -152.8797 0.0000
# 6 0.0000 0.0000 0.0000 0.0000 0.0000 34.7747
#
#
#
# Elastic Compliance Matrix: (Units=1/GPa)
#
#
# Indices 1 2 3 4 5 6 
#
# 1 0.010944 -0.003990 -0.002422 0.000000 0.000000 0.000000
# 2 -0.003990 0.017757 0.000116 0.000000 0.000000 0.000000
# 3 -0.002422 0.000116 0.017828 0.000000 0.000000 0.000000
# 4 0.000000 0.000000 0.000000 0.035307 0.000000 0.000000
# 5 0.000000 0.000000 0.000000 0.000000 -0.006541 0.000000
# 6 0.000000 0.000000 0.000000 0.000000 0.000000 0.028757
#
#
# Mechanical properties :
#
#
# Convention : Reuss Voigt Hill
#
# Bulk Modulus (GPa) = 29.46623 33.48469 31.47546
# Shear Modulus (GPa) = 39.07589 -5.77752 16.64919
#
# Velocity S-wave (km/s) = 4.44035 -1.70739 2.89841
# Velocity P-wave (km/s) = 6.41536 3.60675 5.20411
#
# Compressibility (1/GPa) = 0.03393716
#
# Stress axis : x y z
#
# Youngs Moduli (GPa) = 91.37746 56.31548 56.09068
#
# Poissons Ratio (x) = 0.22468 0.13584
# Poissons Ratio (y) = 0.36456 -0.00648
# Poissons Ratio (z) = 0.22131 -0.00651
#
# Static dielectric constant tensor:
#      x y z
#    x 1.694390 0.000000 0.000000 
#    y 0.000000 1.716000 0.000000 
#    z 0.000000 0.000000 1.698000 
# 
# From -- ./inp_files/30284.got.cif
#   From: 2010.05.17/outbox.cif.g08.bks.cpg/sg20_16_cif.got.tgz:30284.got - 2010.06.03 22:52:26.
