data_PCOD9319819
_publ_section_title
;
Structure prediction by ZEFSAII (Michael W. Deem and Ramdas Pophale) SiO2 
 PCOD9319819
Probable space group: C 2 2 21
;
_chemical_formula_sum "Si O2"
_cell_formula_units_Z 40
_cell_length_a 11.388431
_cell_length_b 9.307581
_cell_length_c 15.301609
_cell_angle_alpha 90.000000
_cell_angle_beta 90.000000
_cell_angle_gamma 90.000000
_cell_volume 1621.951335
_symmetry_space_group_name_H-M "C 2 2 21"
_symmetry_group_IT_number 20
_symmetry_cell_setting 'orthorhombic'
loop_
_space_group_symop_operation_xyz
x,y,z
-x,-y,1/2+z
x,-y,-z
-x,y,1/2-z
1/2+x,1/2+y,z
1/2-x,1/2-y,1/2+z
1/2+x,1/2-y,-z
1/2-x,1/2+y,1/2-z
loop_
_atom_site_type_symbol
_atom_site_label
_atom_site_fract_x
_atom_site_fract_y
_atom_site_fract_z
Si Si1 0.920016 0.500001 0.663031
Si Si2 0.926767 0.255954 0.097404
Si Si3 0.771785 0.999999 0.403885
Si Si4 0.573232 0.755957 0.597404
Si Si5 0.647482 0.499999 0.284753
O O1 0.784862 0.500001 0.687803
O O2 0.000000 0.500002 0.750000
O O3 0.960160 0.642557 0.611765
O O4 0.960159 0.357445 0.611765
O O5 0.815503 0.363853 0.101565
O O6 0.929128 0.192871 0.999999
O O7 0.908590 0.139941 0.171919
O O8 0.853405 0.999999 0.319852
O O9 0.827989 0.000000 0.500000
O O10 0.684495 0.136142 0.398435
O O11 0.591410 0.639945 0.671920
#
# Coordination Sequence:
#
# PCOD9319819 Si02
#       5
#     8   8   8   8   8
#     4  11  23  41  70  94 131 179 223 267 334 397
#     4  10  22  40  63 101 138 167 221 284 320 391
#     4   9  19  37  62  92 134 172 217 281 325 380
#     4  10  22  40  63 101 138 167 221 284 320 391
#     4  12  22  41  75  94 130 186 221 260 350 400
#
# _framework density 24.661652
#
# number of rings (size 3 to 8) (size 9 to 14) (size 15 to 20)
#    0.000    1.600    4.000    3.600    0.000    3.200 
#    0.000    5.000    0.000   12.000    0.000    0.000 
#    0.000    0.000    0.000    0.000    0.000    0.000 
#
# Total GULP energy -112213.273304 kJ/mol
# GULP energy per Si atom -5610.663665 kJ/mol
# Density = 2.460552 g / cm^3
# Si number density = 24.661652 Si / 1000 Ang^3
#
#
#
# Elastic Constant Matrix: (Units=GPa)
#
#
# Indices 1 2 3 4 5 6 
#
# 1 146.9940 50.3496 51.9567 0.0000 0.0000 0.0000
# 2 50.3496 126.2032 70.7970 0.0000 0.0000 0.0000
# 3 51.9567 70.7970 235.4687 0.0000 0.0000 0.0000
# 4 0.0000 0.0000 0.0000 23.7577 0.0000 0.0000
# 5 0.0000 0.0000 0.0000 0.0000 20.5718 0.0000
# 6 0.0000 0.0000 0.0000 0.0000 0.0000 28.2018
#
#
#
# Elastic Compliance Matrix: (Units=1/GPa)
#
#
# Indices 1 2 3 4 5 6 
#
# 1 0.008062 -0.002669 -0.000977 0.000000 0.000000 0.000000
# 2 -0.002669 0.010415 -0.002542 0.000000 0.000000 0.000000
# 3 -0.000977 -0.002542 0.005227 0.000000 0.000000 0.000000
# 4 0.000000 0.000000 0.000000 0.042092 0.000000 0.000000
# 5 0.000000 0.000000 0.000000 0.000000 0.048610 0.000000
# 6 0.000000 0.000000 0.000000 0.000000 0.000000 0.035459
#
#
# Mechanical properties :
#
#
# Convention : Reuss Voigt Hill
#
# Bulk Modulus (GPa) = 88.27468 94.98585 91.63027
# Shear Modulus (GPa) = 30.11762 36.87711 33.49736
#
# Velocity S-wave (km/s) = 3.49841 3.87113 3.68948
# Velocity P-wave (km/s) = 7.22430 7.65377 7.44213
#
# Compressibility (1/GPa) = 0.01132828
#
# Stress axis : x y z
#
# Youngs Moduli (GPa) = 124.03446 96.01837 191.32286
#
# Poissons Ratio (x) = 0.25624 0.18684
# Poissons Ratio (y) = 0.33101 0.48643
# Poissons Ratio (z) = 0.12113 0.24412
#
# Static dielectric constant tensor:
#      x y z
#    x 1.914900 0.000000 0.000000 
#    y 0.000000 1.919380 0.000000 
#    z 0.000000 0.000000 1.932120 
# 
# From -- ./inp_files/23301.got.cif
#   From: 2010.05.17/outbox.cif.g08.bks.cpg/sg20_12_cif.got.tgz:23301.got - 2010.06.03 22:52:26.
