data_PCOD9319022
_publ_section_title
;
Structure prediction by ZEFSAII (Michael W. Deem and Ramdas Pophale) SiO2 
 PCOD9319022
Probable space group: C 2 2 21
;
_chemical_formula_sum "Si O2"
_cell_formula_units_Z 60
_cell_length_a 27.826471
_cell_length_b 12.281422
_cell_length_c 8.688530
_cell_angle_alpha 90.000000
_cell_angle_beta 90.000000
_cell_angle_gamma 90.000000
_cell_volume 2969.293251
_symmetry_space_group_name_H-M "C 2 2 21"
_symmetry_group_IT_number 20
_symmetry_cell_setting 'orthorhombic'
loop_
_space_group_symop_operation_xyz
x,y,z
-x,-y,1/2+z
x,-y,-z
-x,y,1/2-z
1/2+x,1/2+y,z
1/2-x,1/2-y,1/2+z
1/2+x,1/2-y,-z
1/2-x,1/2+y,1/2-z
loop_
_atom_site_type_symbol
_atom_site_label
_atom_site_fract_x
_atom_site_fract_y
_atom_site_fract_z
Si Si1 0.430108 0.500000 0.500000
Si Si2 0.805074 0.761103 0.215749
Si Si3 0.617121 0.371002 0.491136
Si Si4 0.469007 0.894132 0.601643
Si Si5 0.363183 0.124422 0.444898
Si Si6 0.493495 0.317450 0.074108
Si Si7 0.759544 0.877017 0.497180
Si Si8 0.640799 0.667338 0.164218
O O1 0.467423 0.588031 0.564205
O O2 0.396679 0.427126 0.610726
O O3 0.851672 0.822259 0.148128
O O4 0.822044 0.665252 0.330142
O O5 0.774212 0.840875 0.324917
O O6 0.775845 0.709513 0.075364
O O7 0.624953 0.500000 0.500000
O O8 0.560166 0.350612 0.468497
O O9 0.635076 0.322170 0.653280
O O10 0.500000 0.922806 0.750000
O O11 0.414053 0.866204 0.642819
O O12 0.490348 0.795335 0.498052
O O13 0.466174 0.000000 0.500000
O O14 0.366482 0.215959 0.579874
O O15 0.355955 0.000000 0.500000
O O16 0.500000 0.283404 0.250000
O O17 0.807711 0.873334 0.602274
O O18 0.740320 0.000000 0.500000
#
# Coordination Sequence:
#
# PCOD9319022 Si02
#       8
#     4   8   8   8   8   8   8   8
#     4  12  22  40  66  96 138 174 208 276 314 398
#     4  11  25  43  67  97 129 169 222 271 334 395
#     4  12  25  41  66 101 136 172 219 272 330 401
#     4  10  21  39  60  86 125 173 216 263 317 377
#     4  10  23  44  66  89 130 174 218 272 326 388
#     4  11  23  38  62  95 133 172 216 256 326 386
#     4  11  24  44  69  94 130 171 215 278 334 392
#     4  11  24  42  68  98 132 173 221 268 337 389
#
# _framework density 20.206828000000002
#
# number of rings (size 3 to 8) (size 9 to 14) (size 15 to 20)
#    0.000    1.067    2.667    4.000    3.733    5.333 
#    0.000    2.667    0.000    0.000    0.000    0.000 
#    0.000    0.000    0.000    0.000    0.000    0.000 
#
# Total GULP energy -167429.523221 kJ/mol
# GULP energy per Si atom -5580.984107 kJ/mol
# Density = 2.016084 g / cm^3
# Si number density = 20.206828 Si / 1000 Ang^3
#
#
#
# Elastic Constant Matrix: (Units=GPa)
#
#
# Indices 1 2 3 4 5 6 
#
# 1 60.5671 24.8255 -1.2657 0.0000 0.0000 0.0000
# 2 24.8255 119.0402 17.4231 0.0000 0.0000 0.0000
# 3 -1.2657 17.4231 60.6754 0.0000 0.0000 0.0000
# 4 0.0000 0.0000 0.0000 19.1828 0.0000 0.0000
# 5 0.0000 0.0000 0.0000 0.0000 23.9410 0.0000
# 6 0.0000 0.0000 0.0000 0.0000 0.0000 29.2956
#
#
#
# Elastic Compliance Matrix: (Units=1/GPa)
#
#
# Indices 1 2 3 4 5 6 
#
# 1 0.018189 -0.004018 0.001533 0.000000 0.000000 0.000000
# 2 -0.004018 0.009657 -0.002857 0.000000 0.000000 0.000000
# 3 0.001533 -0.002857 0.017333 0.000000 0.000000 0.000000
# 4 0.000000 0.000000 0.000000 0.052130 0.000000 0.000000
# 5 0.000000 0.000000 0.000000 0.000000 0.041769 0.000000
# 6 0.000000 0.000000 0.000000 0.000000 0.000000 0.034135
#
#
# Mechanical properties :
#
#
# Convention : Reuss Voigt Hill
#
# Bulk Modulus (GPa) = 28.98821 35.80538 32.39680
# Shear Modulus (GPa) = 25.58918 27.77055 26.67986
#
# Velocity S-wave (km/s) = 3.56246 3.71120 3.63759
# Velocity P-wave (km/s) = 5.59450 6.01015 5.80604
#
# Compressibility (1/GPa) = 0.03449679
#
# Stress axis : x y z
#
# Youngs Moduli (GPa) = 54.97690 103.55682 57.69196
#
# Poissons Ratio (x) = 0.41607 -0.08845
# Poissons Ratio (y) = 0.22088 0.16481
# Poissons Ratio (z) = -0.08429 0.29583
#
# Static dielectric constant tensor:
#      x y z
#    x 1.731500 0.000000 0.000000 
#    y 0.000000 2.465000 0.000000 
#    z 0.000000 0.000000 1.849250 
# 
# From -- ./inp_files/11153.got.cif
#   From: 2010.05.17/outbox.cif.g08.bks.cpg/sg20_6_cif.got.tgz:11153.got - 2010.06.03 22:52:26.
