data_PCOD9319886
_publ_section_title
;
Structure prediction by ZEFSAII (Michael W. Deem and Ramdas Pophale) SiO2 
 PCOD9319886
Probable space group: C 2 2 21
;
_chemical_formula_sum "Si O2"
_cell_formula_units_Z 36
_cell_length_a 8.509310
_cell_length_b 19.683290
_cell_length_c 10.812245
_cell_angle_alpha 90.000000
_cell_angle_beta 90.000000
_cell_angle_gamma 90.000000
_cell_volume 1810.956067
_symmetry_space_group_name_H-M "C 2 2 21"
_symmetry_group_IT_number 20
_symmetry_cell_setting 'orthorhombic'
loop_
_space_group_symop_operation_xyz
x,y,z
-x,-y,1/2+z
x,-y,-z
-x,y,1/2-z
1/2+x,1/2+y,z
1/2-x,1/2-y,1/2+z
1/2+x,1/2-y,-z
1/2-x,1/2+y,1/2-z
loop_
_atom_site_type_symbol
_atom_site_label
_atom_site_fract_x
_atom_site_fract_y
_atom_site_fract_z
Si Si1 0.500000 0.656271 0.750000
Si Si2 0.477163 0.945194 0.106813
Si Si3 0.521316 0.307933 0.608022
Si Si4 0.739347 0.185001 0.573610
Si Si5 0.670278 0.421931 0.470179
O O1 0.358002 0.698341 0.688796
O O2 0.569867 0.608732 0.642455
O O3 0.500000 0.970040 0.250000
O O4 0.350969 0.884732 0.103458
O O5 0.647417 0.917340 0.065606
O O6 0.435089 0.000000 0.000000
O O7 0.500000 0.292570 0.750000
O O8 0.614644 0.244300 0.551671
O O9 0.354801 0.319564 0.542835
O O10 0.625993 0.374563 0.585138
O O11 0.634204 0.500000 0.500000
#
# Coordination Sequence:
#
# PCOD9319886 Si02
#       5
#     4   8   8   8   8
#     4  10  22  40  68  90 130 178 204 274 336 388
#     4  11  23  43  70  99 136 181 224 274 334 403
#     4  11  26  42  66  99 130 171 224 281 326 397
#     4  11  24  42  69  94 133 175 219 270 341 397
#     4  10  23  42  66  96 130 172 220 269 331 395
#
# _framework density 19.879002
#
# number of rings (size 3 to 8) (size 9 to 14) (size 15 to 20)
#    0.000    1.333    2.222    2.000    7.778    7.111 
#    0.000    0.000    0.000    0.000    0.000    0.000 
#    0.000    0.000    0.000    0.000    0.000    0.000 
#
# Total GULP energy -100516.218520 kJ/mol
# GULP energy per Si atom -5584.234362 kJ/mol
# Density = 1.983376 g / cm^3
# Si number density = 19.879002 Si / 1000 Ang^3
#
#
#
# Elastic Constant Matrix: (Units=GPa)
#
#
# Indices 1 2 3 4 5 6 
#
# 1 53.3104 27.5238 10.9401 0.0000 0.0000 0.0000
# 2 27.5238 70.8894 11.1893 0.0000 0.0000 0.0000
# 3 10.9401 11.1893 51.6775 0.0000 0.0000 0.0000
# 4 0.0000 0.0000 0.0000 22.4125 0.0000 0.0000
# 5 0.0000 0.0000 0.0000 0.0000 30.2948 0.0000
# 6 0.0000 0.0000 0.0000 0.0000 0.0000 19.2411
#
#
#
# Elastic Compliance Matrix: (Units=1/GPa)
#
#
# Indices 1 2 3 4 5 6 
#
# 1 0.023951 -0.008800 -0.003165 0.000000 0.000000 0.000000
# 2 -0.008800 0.017839 -0.002000 0.000000 0.000000 0.000000
# 3 -0.003165 -0.002000 0.020454 0.000000 0.000000 0.000000
# 4 0.000000 0.000000 0.000000 0.044618 0.000000 0.000000
# 5 0.000000 0.000000 0.000000 0.000000 0.033009 0.000000
# 6 0.000000 0.000000 0.000000 0.000000 0.000000 0.051972
#
#
# Mechanical properties :
#
#
# Convention : Reuss Voigt Hill
#
# Bulk Modulus (GPa) = 29.14208 30.57599 29.85904
# Shear Modulus (GPa) = 21.62548 22.80465 22.21506
#
# Velocity S-wave (km/s) = 3.30184 3.39067 3.34655
# Velocity P-wave (km/s) = 5.40627 5.54466 5.47590
#
# Compressibility (1/GPa) = 0.03431464
#
# Stress axis : x y z
#
# Youngs Moduli (GPa) = 41.75232 56.05795 48.89074
#
# Poissons Ratio (x) = 0.49329 0.15474
# Poissons Ratio (y) = 0.36741 0.09776
# Poissons Ratio (z) = 0.13215 0.11209
#
# Static dielectric constant tensor:
#      x y z
#    x 1.694280 0.000000 0.000000 
#    y 0.000000 1.666310 0.000000 
#    z 0.000000 0.000000 1.721810 
# 
# From -- ./inp_files/5895.got.cif
#   From: 2010.05.17/outbox.cif.g08.bks.cpg/sg20_3_cif.got.tgz:5895.got - 2010.06.03 22:52:26.
