data_PCOD9319798
_publ_section_title
;
Structure prediction by ZEFSAII (Michael W. Deem and Ramdas Pophale) SiO2 
 PCOD9319798
Probable space group: C 2 2 21
;
_chemical_formula_sum "Si O2"
_cell_formula_units_Z 24
_cell_length_a 13.612241
_cell_length_b 10.041424
_cell_length_c 8.529605
_cell_angle_alpha 90.000000
_cell_angle_beta 90.000000
_cell_angle_gamma 90.000000
_cell_volume 1165.880007
_symmetry_space_group_name_H-M "C 2 2 21"
_symmetry_group_IT_number 20
_symmetry_cell_setting 'orthorhombic'
loop_
_space_group_symop_operation_xyz
x,y,z
-x,-y,1/2+z
x,-y,-z
-x,y,1/2-z
1/2+x,1/2+y,z
1/2-x,1/2-y,1/2+z
1/2+x,1/2-y,-z
1/2-x,1/2+y,1/2-z
loop_
_atom_site_type_symbol
_atom_site_label
_atom_site_fract_x
_atom_site_fract_y
_atom_site_fract_z
Si Si1 0.495055 0.500000 0.000000
Si Si2 0.500000 0.703709 0.250000
Si Si3 0.801470 0.887126 0.117618
Si Si4 0.174195 0.635698 0.582985
O O1 0.543893 0.391946 0.887235
O O2 0.417638 0.581084 0.889979
O O3 0.415320 0.791977 0.172975
O O4 0.756229 0.896018 0.287820
O O5 0.786957 0.742575 0.042592
O O6 0.758378 0.000000 0.000000
O O7 0.142713 0.500000 0.500000
#
# Coordination Sequence:
#
# PCOD9319798 Si02
#       4
#     4   4   8   8
#     4   8  20  40  60  86 118 170 214 236 302 380
#     4  10  22  40  60  94 130 158 208 258 322 360
#     4   9  20  39  60  91 120 170 220 238 308 380
#     4  11  22  38  64  95 129 161 206 269 315 367
#
# _framework density 20.58531
#
# number of rings (size 3 to 8) (size 9 to 14) (size 15 to 20)
#    1.000    1.333    0.000    2.000    0.000    4.000 
#    0.000    6.667    0.000    0.000    0.000    0.000 
#    0.000    0.000    0.000    0.000    0.000    0.000 
#
# Total GULP energy -66924.868335 kJ/mol
# GULP energy per Si atom -5577.072361 kJ/mol
# Density = 2.053846 g / cm^3
# Si number density = 20.585310 Si / 1000 Ang^3
#
#
#
# Elastic Constant Matrix: (Units=GPa)
#
#
# Indices 1 2 3 4 5 6 
#
# 1 35.2585 27.8680 37.2059 0.0000 0.0000 0.0000
# 2 27.8680 161.2784 66.2356 0.0000 0.0000 0.0000
# 3 37.2059 66.2356 97.8354 0.0000 0.0000 0.0000
# 4 0.0000 0.0000 0.0000 64.9464 0.0000 0.0000
# 5 0.0000 0.0000 0.0000 0.0000 34.2926 0.0000
# 6 0.0000 0.0000 0.0000 0.0000 0.0000 -2.8419
#
#
#
# Elastic Compliance Matrix: (Units=1/GPa)
#
#
# Indices 1 2 3 4 5 6 
#
# 1 0.047511 -0.001093 -0.017328 0.000000 0.000000 0.000000
# 2 -0.001093 0.008614 -0.005416 0.000000 0.000000 0.000000
# 3 -0.017328 -0.005416 0.020477 0.000000 0.000000 0.000000
# 4 0.000000 0.000000 0.000000 0.015397 0.000000 0.000000
# 5 0.000000 0.000000 0.000000 0.000000 0.029161 0.000000
# 6 0.000000 0.000000 0.000000 0.000000 0.000000 -0.351874
#
#
# Mechanical properties :
#
#
# Convention : Reuss Voigt Hill
#
# Bulk Modulus (GPa) = 34.56830 61.88793 48.22811
# Shear Modulus (GPa) = -28.83537 30.15028 0.65745
#
# Velocity S-wave (km/s) = -3.74675 3.83123 0.56575
# Velocity P-wave (km/s) = 1.37418 7.04985 4.88938
#
# Compressibility (1/GPa) = 0.02892824
#
# Stress axis : x y z
#
# Youngs Moduli (GPa) = 21.04784 116.09610 48.83446
#
# Poissons Ratio (x) = 0.12692 0.84619
# Poissons Ratio (y) = 0.02301 0.26447
# Poissons Ratio (z) = 0.36471 0.62874
#
# Static dielectric constant tensor:
#      x y z
#    x 1.751330 0.000000 0.000000 
#    y 0.000000 1.738380 0.000000 
#    z 0.000000 0.000000 1.745320 
# 
# From -- ./inp_files/880.got.cif
#   From: 2010.05.17/outbox.cif.g08.bks.cpg/sg20_1_cif.got.tgz:880.got - 2010.06.03 22:52:26.
