data_PCOD9319070
_publ_section_title
;
Structure prediction by ZEFSAII (Michael W. Deem and Ramdas Pophale) SiO2 
 PCOD9319070
Probable space group: C 2 2 21
;
_chemical_formula_sum "Si O2"
_cell_formula_units_Z 40
_cell_length_a 27.632851
_cell_length_b 8.180831
_cell_length_c 8.145054
_cell_angle_alpha 90.000000
_cell_angle_beta 90.000000
_cell_angle_gamma 90.000000
_cell_volume 1841.268334
_symmetry_space_group_name_H-M "C 2 2 21"
_symmetry_group_IT_number 20
_symmetry_cell_setting 'orthorhombic'
loop_
_space_group_symop_operation_xyz
x,y,z
-x,-y,1/2+z
x,-y,-z
-x,y,1/2-z
1/2+x,1/2+y,z
1/2-x,1/2-y,1/2+z
1/2+x,1/2-y,-z
1/2-x,1/2+y,1/2-z
loop_
_atom_site_type_symbol
_atom_site_label
_atom_site_fract_x
_atom_site_fract_y
_atom_site_fract_z
Si Si1 0.051577 0.570594 0.181884
Si Si2 0.217700 0.338118 0.901043
Si Si3 0.185924 0.859004 0.800650
Si Si4 0.618167 0.149206 0.608986
Si Si5 0.633579 0.309605 0.283764
O O1 0.070907 0.427778 0.305360
O O2 0.090754 0.717036 0.187058
O O3 0.000000 0.627042 0.250000
O O4 0.047787 0.500000 0.000000
O O5 0.210897 0.186765 0.026984
O O6 0.204027 0.500000 0.000000
O O7 0.271168 0.367512 0.832083
O O8 0.181936 0.295443 0.752700
O O9 0.153042 0.705635 0.751650
O O10 0.149985 0.013130 0.780574
O O11 0.616896 0.293962 0.473560
O O12 0.637428 0.000000 0.500000
#
# Coordination Sequence:
#
# PCOD9319070 Si02
#       5
#     8   8   8   8   8
#     4  11  23  44  72 101 131 174 224 274 340 416
#     4  12  24  39  60  90 131 180 225 273 337 414
#     4  12  24  40  63  95 133 176 225 283 341 403
#     4  10  21  39  64  93 129 172 217 272 334 405
#     4  11  23  40  63  95 133 174 226 286 340 398
#
# _framework density 21.724157000000002
#
# number of rings (size 3 to 8) (size 9 to 14) (size 15 to 20)
#    0.000    0.800    0.000   10.800    0.000    1.600 
#    0.000    1.000    0.000    7.200    0.000    0.000 
#    0.000    0.000    0.000    0.000    0.000    0.000 
#
# Total GULP energy -111677.821610 kJ/mol
# GULP energy per Si atom -5583.891080 kJ/mol
# Density = 2.167471 g / cm^3
# Si number density = 21.724157 Si / 1000 Ang^3
#
#
#
# Elastic Constant Matrix: (Units=GPa)
#
#
# Indices 1 2 3 4 5 6 
#
# 1 113.7010 40.4679 21.1352 0.0000 0.0000 0.0000
# 2 40.4679 90.5637 34.7953 0.0000 0.0000 0.0000
# 3 21.1352 34.7953 99.4257 0.0000 0.0000 0.0000
# 4 0.0000 0.0000 0.0000 29.2088 0.0000 0.0000
# 5 0.0000 0.0000 0.0000 0.0000 39.8884 0.0000
# 6 0.0000 0.0000 0.0000 0.0000 0.0000 20.1951
#
#
#
# Elastic Compliance Matrix: (Units=1/GPa)
#
#
# Indices 1 2 3 4 5 6 
#
# 1 0.010498 -0.004429 -0.000682 0.000000 0.000000 0.000000
# 2 -0.004429 0.014626 -0.004177 0.000000 0.000000 0.000000
# 3 -0.000682 -0.004177 0.011664 0.000000 0.000000 0.000000
# 4 0.000000 0.000000 0.000000 0.034236 0.000000 0.000000
# 5 0.000000 0.000000 0.000000 0.000000 0.025070 0.000000
# 6 0.000000 0.000000 0.000000 0.000000 0.000000 0.049517
#
#
# Mechanical properties :
#
#
# Convention : Reuss Voigt Hill
#
# Bulk Modulus (GPa) = 54.90584 55.16524 55.03554
# Shear Modulus (GPa) = 29.36719 31.67793 30.52256
#
# Velocity S-wave (km/s) = 3.68070 3.82277 3.75241
# Velocity P-wave (km/s) = 6.58729 6.70323 6.64551
#
# Compressibility (1/GPa) = 0.01821300
#
# Stress axis : x y z
#
# Youngs Moduli (GPa) = 95.25543 68.37165 85.73062
#
# Poissons Ratio (x) = 0.30283 0.05843
# Poissons Ratio (y) = 0.42190 0.35810
# Poissons Ratio (z) = 0.06492 0.28559
#
# Static dielectric constant tensor:
#      x y z
#    x 1.753740 0.000000 0.000000 
#    y 0.000000 1.938550 0.000000 
#    z 0.000000 0.000000 1.861270 
# 
# From -- ./inp_files/10505.got.cif
#   From: 2010.05.17/outbox.cif.g08.bks.cpg/sg20_6_cif.got.tgz:10505.got - 2010.06.03 22:52:26.
