data_PCOD9319902
_publ_section_title
;
Structure prediction by ZEFSAII (Michael W. Deem and Ramdas Pophale) SiO2 
 PCOD9319902
Probable space group: C 2 2 21
;
_chemical_formula_sum "Si O2"
_cell_formula_units_Z 44
_cell_length_a 14.130395
_cell_length_b 6.768084
_cell_length_c 17.514468
_cell_angle_alpha 90.000000
_cell_angle_beta 90.000000
_cell_angle_gamma 90.000000
_cell_volume 1675.008413
_symmetry_space_group_name_H-M "C 2 2 21"
_symmetry_group_IT_number 20
_symmetry_cell_setting 'orthorhombic'
loop_
_space_group_symop_operation_xyz
x,y,z
-x,-y,1/2+z
x,-y,-z
-x,y,1/2-z
1/2+x,1/2+y,z
1/2-x,1/2-y,1/2+z
1/2+x,1/2-y,-z
1/2-x,1/2+y,1/2-z
loop_
_atom_site_type_symbol
_atom_site_label
_atom_site_fract_x
_atom_site_fract_y
_atom_site_fract_z
Si Si1 0.500000 0.539783 0.250000
Si Si2 0.944390 0.765940 0.510074
Si Si3 0.836097 0.808171 0.656580
Si Si4 0.132000 0.294836 0.699197
Si Si5 0.676307 0.218320 0.131783
Si Si6 0.145188 0.622978 0.570773
O O1 0.576547 0.683106 0.213419
O O2 0.443572 0.383768 0.195709
O O3 0.869664 0.724931 0.576843
O O4 0.902059 0.682387 0.432253
O O5 0.048087 0.702311 0.535559
O O6 0.947819 0.000000 0.500000
O O7 0.738136 0.717156 0.683019
O O8 0.820714 0.044069 0.646875
O O9 0.118491 0.470165 0.638711
O O10 0.858874 0.366109 0.712677
O O11 0.783775 0.204769 0.099906
O O12 0.192003 0.500000 0.500000
#
# Coordination Sequence:
#
# PCOD9319902 Si02
#       6
#     4   8   8   8   8   8
#     4  10  22  40  70  98 142 190 234 300 370 426
#     4  10  22  44  69  98 143 188 233 294 370 446
#     4   9  20  40  67  95 134 185 241 283 360 435
#     4  10  22  42  68 100 138 183 240 302 362 425
#     4   9  20  43  66  94 134 183 227 295 352 425
#     4  11  24  42  70 105 137 182 241 302 361 432
#
# _framework density 26.268526999999999
#
# number of rings (size 3 to 8) (size 9 to 14) (size 15 to 20)
#    0.000    2.182    0.000    2.727   10.182    0.000 
#    9.818    0.909    0.000    0.000    0.000    0.000 
#    0.000    0.000    0.000    0.000    0.000    0.000 
#
# Total GULP energy -123224.717183 kJ/mol
# GULP energy per Si atom -5601.123508 kJ/mol
# Density = 2.620874 g / cm^3
# Si number density = 26.268527 Si / 1000 Ang^3
#
#
#
# Elastic Constant Matrix: (Units=GPa)
#
#
# Indices 1 2 3 4 5 6 
#
# 1 146.9859 51.7677 59.8909 0.0000 0.0000 0.0000
# 2 51.7677 113.8294 41.2846 0.0000 0.0000 0.0000
# 3 59.8909 41.2846 173.7060 0.0000 0.0000 0.0000
# 4 0.0000 0.0000 0.0000 20.4586 0.0000 0.0000
# 5 0.0000 0.0000 0.0000 0.0000 52.4724 0.0000
# 6 0.0000 0.0000 0.0000 0.0000 0.0000 27.8148
#
#
#
# Elastic Compliance Matrix: (Units=1/GPa)
#
#
# Indices 1 2 3 4 5 6 
#
# 1 0.008866 -0.003199 -0.002296 0.000000 0.000000 0.000000
# 2 -0.003199 0.010768 -0.001456 0.000000 0.000000 0.000000
# 3 -0.002296 -0.001456 0.006895 0.000000 0.000000 0.000000
# 4 0.000000 0.000000 0.000000 0.048879 0.000000 0.000000
# 5 0.000000 0.000000 0.000000 0.000000 0.019058 0.000000
# 6 0.000000 0.000000 0.000000 0.000000 0.000000 0.035952
#
#
# Mechanical properties :
#
#
# Convention : Reuss Voigt Hill
#
# Bulk Modulus (GPa) = 79.20769 82.26754 80.73761
# Shear Modulus (GPa) = 33.66332 38.92104 36.29218
#
# Velocity S-wave (km/s) = 3.58370 3.85341 3.72100
# Velocity P-wave (km/s) = 6.88058 7.15432 7.01878
#
# Compressibility (1/GPa) = 0.01262504
#
# Stress axis : x y z
#
# Youngs Moduli (GPa) = 112.79297 92.86644 145.03814
#
# Poissons Ratio (x) = 0.29709 0.33307
# Poissons Ratio (y) = 0.36084 0.21121
# Poissons Ratio (z) = 0.25902 0.13524
#
# Static dielectric constant tensor:
#      x y z
#    x 2.114130 0.000000 0.000000 
#    y 0.000000 2.123930 0.000000 
#    z 0.000000 0.000000 2.089770 
# 
# From -- ./inp_files/29040.got.cif
#   From: 2010.05.17/outbox.cif.g08.bks.cpg/sg20_15_cif.got.tgz:29040.got - 2010.06.03 22:52:26.
