data_PCOD9319520
_publ_section_title
;
Structure prediction by ZEFSAII (Michael W. Deem and Ramdas Pophale) SiO2 
 PCOD9319520
Probable space group: C 2 2 21
;
_chemical_formula_sum "Si O2"
_cell_formula_units_Z 40
_cell_length_a 15.686868
_cell_length_b 5.245729
_cell_length_c 19.704585
_cell_angle_alpha 90.000000
_cell_angle_beta 90.000000
_cell_angle_gamma 90.000000
_cell_volume 1621.471746
_symmetry_space_group_name_H-M "C 2 2 21"
_symmetry_group_IT_number 20
_symmetry_cell_setting 'orthorhombic'
loop_
_space_group_symop_operation_xyz
x,y,z
-x,-y,1/2+z
x,-y,-z
-x,y,1/2-z
1/2+x,1/2+y,z
1/2-x,1/2-y,1/2+z
1/2+x,1/2-y,-z
1/2-x,1/2+y,1/2-z
loop_
_atom_site_type_symbol
_atom_site_label
_atom_site_fract_x
_atom_site_fract_y
_atom_site_fract_z
Si Si1 0.429642 0.182688 0.700053
Si Si2 0.528130 0.837627 0.930161
Si Si3 0.816922 0.025918 0.604985
Si Si4 0.275604 0.250067 0.778792
Si Si5 0.160806 0.754711 0.455149
O O1 0.500000 0.291404 0.750000
O O2 0.380835 0.389972 0.656488
O O3 0.458717 0.985496 0.641801
O O4 0.361073 0.098022 0.757045
O O5 0.614485 0.672322 0.940525
O O6 0.434080 0.708316 0.923057
O O7 0.524674 0.000000 0.000000
O O8 0.756406 0.223635 0.644911
O O9 0.748764 0.813916 0.582761
O O10 0.215291 0.049244 0.737430
O O11 0.151546 0.500000 0.500000
O O12 0.176558 0.000000 0.500000
#
# Coordination Sequence:
#
# PCOD9319520 Si02
#       5
#     8   8   8   8   8
#     4  11  25  46  76 115 157 210 272 339 415 502
#     4  11  27  50  81 118 162 217 279 352 420 505
#     4  11  26  47  79 111 160 213 273 338 427 491
#     4  10  21  44  69 108 148 198 256 321 393 483
#     4  11  29  49  75 114 161 209 273 340 408 495
#
# _framework density 24.668949999999999
#
# number of rings (size 3 to 8) (size 9 to 14) (size 15 to 20)
#    0.000    1.200    2.000    1.200   11.200    0.800 
#   14.400    0.000    0.000    0.000    0.000    0.000 
#    0.000    0.000    0.000    0.000    0.000    0.000 
#
# Total GULP energy -111340.942240 kJ/mol
# GULP energy per Si atom -5567.047112 kJ/mol
# Density = 2.461280 g / cm^3
# Si number density = 24.668950 Si / 1000 Ang^3
#
#
#
# Elastic Constant Matrix: (Units=GPa)
#
#
# Indices 1 2 3 4 5 6 
#
# 1 134.2465 39.0670 92.1756 0.0000 0.0000 0.0000
# 2 39.0670 98.6034 32.3877 0.0000 0.0000 0.0000
# 3 92.1756 32.3877 85.2209 0.0000 0.0000 0.0000
# 4 0.0000 0.0000 0.0000 219.4066 0.0000 0.0000
# 5 0.0000 0.0000 0.0000 0.0000 35.5800 0.0000
# 6 0.0000 0.0000 0.0000 0.0000 0.0000 21.0977
#
#
#
# Elastic Compliance Matrix: (Units=1/GPa)
#
#
# Indices 1 2 3 4 5 6 
#
# 1 0.029104 -0.001361 -0.030961 0.000000 0.000000 0.000000
# 2 -0.001361 0.011652 -0.002956 0.000000 0.000000 0.000000
# 3 -0.030961 -0.002956 0.046346 0.000000 0.000000 0.000000
# 4 0.000000 0.000000 0.000000 0.004558 0.000000 0.000000
# 5 0.000000 0.000000 0.000000 0.000000 0.028106 0.000000
# 6 0.000000 0.000000 0.000000 0.000000 0.000000 0.047398
#
#
# Mechanical properties :
#
#
# Convention : Reuss Voigt Hill
#
# Bulk Modulus (GPa) = 60.44440 71.70347 66.07393
# Shear Modulus (GPa) = 20.55624 65.51291 43.03457
#
# Velocity S-wave (km/s) = 2.88980 5.15892 4.18123
# Velocity P-wave (km/s) = 5.97411 8.03837 7.08186
#
# Compressibility (1/GPa) = 0.01654413
#
# Stress axis : x y z
#
# Youngs Moduli (GPa) = 34.35988 85.82316 21.57694
#
# Poissons Ratio (x) = 0.11683 0.66805
# Poissons Ratio (y) = 0.04677 0.06378
# Poissons Ratio (z) = 1.06383 0.25368
#
# Static dielectric constant tensor:
#      x y z
#    x 1.909340 0.000000 0.000000 
#    y 0.000000 2.015400 0.000000 
#    z 0.000000 0.000000 2.064190 
# 
# From -- ./inp_files/29215.got.cif
#   From: 2010.05.17/outbox.cif.g08.bks.cpg/sg20_15_cif.got.tgz:29215.got - 2010.06.03 22:52:26.
