data_PCOD9319863
_publ_section_title
;
Structure prediction by ZEFSAII (Michael W. Deem and Ramdas Pophale) SiO2 
 PCOD9319863
Probable space group: C 2 2 21
;
_chemical_formula_sum "Si O2"
_cell_formula_units_Z 52
_cell_length_a 20.185950
_cell_length_b 20.927214
_cell_length_c 5.451341
_cell_angle_alpha 90.000000
_cell_angle_beta 90.000000
_cell_angle_gamma 90.000000
_cell_volume 2302.841026
_symmetry_space_group_name_H-M "C 2 2 21"
_symmetry_group_IT_number 20
_symmetry_cell_setting 'orthorhombic'
loop_
_space_group_symop_operation_xyz
x,y,z
-x,-y,1/2+z
x,-y,-z
-x,y,1/2-z
1/2+x,1/2+y,z
1/2-x,1/2-y,1/2+z
1/2+x,1/2-y,-z
1/2-x,1/2+y,1/2-z
loop_
_atom_site_type_symbol
_atom_site_label
_atom_site_fract_x
_atom_site_fract_y
_atom_site_fract_z
Si Si1 0.630676 0.392930 0.069958
Si Si2 0.263410 0.500000 0.500000
Si Si3 0.676908 0.335053 0.552077
Si Si4 0.500000 0.200134 0.250000
Si Si5 0.000000 0.963185 0.250000
Si Si6 0.129015 0.703757 0.487527
Si Si7 0.435134 0.104553 0.637253
Si Si8 0.690385 0.096154 0.146169
O O1 0.685951 0.447893 0.106820
O O2 0.643706 0.343205 0.286409
O O3 0.559610 0.423038 0.129903
O O4 0.641132 0.366207 0.792713
O O5 0.217886 0.538747 0.311721
O O6 0.675670 0.258757 0.595182
O O7 0.745989 0.372352 0.518309
O O8 0.561469 0.234867 0.376387
O O9 0.468046 0.152904 0.446330
O O10 0.025540 0.000000 0.500000
O O11 0.101048 0.651570 0.674454
O O12 0.166003 0.658333 0.297111
O O13 0.500000 0.068820 0.750000
O O14 0.372927 0.072165 0.506239
#
# Coordination Sequence:
#
# PCOD9319863 Si02
#       8
#     8   4   8   4   4   8   8   8
#     4  11  26  47  67 103 143 193 240 304 350 423
#     4  10  24  48  66 102 138 180 254 290 376 418
#     4  11  27  42  67 104 151 179 241 293 357 426
#     4   8  18  39  62  94 132 180 213 270 348 412
#     4  12  24  45  76  98 140 204 251 300 346 400
#     4  10  22  40  66 101 138 182 228 282 354 424
#     4   9  19  39  66 100 130 176 225 276 356 429
#     4  10  24  39  69 100 135 192 228 299 353 432
#
# _framework density 22.580804000000001
#
# number of rings (size 3 to 8) (size 9 to 14) (size 15 to 20)
#    0.000    1.846    0.769    0.923   12.923    0.615 
#    5.538    0.000    0.000    0.000   62.000    0.000 
#    0.000    0.000    0.000    0.000    0.000    0.000 
#
# Total GULP energy -144917.800525 kJ/mol
# GULP energy per Si atom -5573.761559 kJ/mol
# Density = 2.252941 g / cm^3
# Si number density = 22.580804 Si / 1000 Ang^3
#
#
#
# Elastic Constant Matrix: (Units=GPa)
#
#
# Indices 1 2 3 4 5 6 
#
# 1 115.7107 36.8538 27.3335 0.0000 0.0000 0.0000
# 2 36.8538 76.9912 3.7792 0.0000 0.0000 0.0000
# 3 27.3335 3.7792 56.0278 0.0000 0.0000 0.0000
# 4 0.0000 0.0000 0.0000 19.0901 0.0000 0.0000
# 5 0.0000 0.0000 0.0000 0.0000 -27.5642 0.0000
# 6 0.0000 0.0000 0.0000 0.0000 0.0000 17.1256
#
#
#
# Elastic Compliance Matrix: (Units=1/GPa)
#
#
# Indices 1 2 3 4 5 6 
#
# 1 0.011574 -0.005280 -0.005290 0.000000 0.000000 0.000000
# 2 -0.005280 0.015441 0.001535 0.000000 0.000000 0.000000
# 3 -0.005290 0.001535 0.020326 0.000000 0.000000 0.000000
# 4 0.000000 0.000000 0.000000 0.052383 0.000000 0.000000
# 5 0.000000 0.000000 0.000000 0.000000 -0.036279 0.000000
# 6 0.000000 0.000000 0.000000 0.000000 0.000000 0.058392
#
#
# Mechanical properties :
#
#
# Convention : Reuss Voigt Hill
#
# Bulk Modulus (GPa) = 34.16685 42.74031 38.45358
# Shear Modulus (GPa) = 33.40808 13.78117 23.59463
#
# Velocity S-wave (km/s) = 3.85059 2.47311 3.23599
# Velocity P-wave (km/s) = 5.91043 5.20806 5.57032
#
# Compressibility (1/GPa) = 0.02926814
#
# Stress axis : x y z
#
# Youngs Moduli (GPa) = 86.40294 64.76365 49.19907
#
# Poissons Ratio (x) = 0.34198 0.26027
# Poissons Ratio (y) = 0.45624 -0.07550
# Poissons Ratio (z) = 0.45708 -0.09938
#
# Static dielectric constant tensor:
#      x y z
#    x 1.857760 0.000000 0.000000 
#    y 0.000000 1.822410 0.000000 
#    z 0.000000 0.000000 1.916490 
# 
# From -- ./inp_files/3260.got.cif
#   From: 2010.05.17/outbox.cif.g08.bks.cpg/sg20_2_cif.got.tgz:3260.got - 2010.06.03 22:52:26.
