data_PCOD9319986
_publ_section_title
;
Structure prediction by ZEFSAII (Michael W. Deem and Ramdas Pophale) SiO2 
 PCOD9319986
Probable space group: C 2 2 21
;
_chemical_formula_sum "Si O2"
_cell_formula_units_Z 52
_cell_length_a 7.127694
_cell_length_b 18.538566
_cell_length_c 19.258235
_cell_angle_alpha 90.000000
_cell_angle_beta 90.000000
_cell_angle_gamma 90.000000
_cell_volume 2544.729744
_symmetry_space_group_name_H-M "C 2 2 21"
_symmetry_group_IT_number 20
_symmetry_cell_setting 'orthorhombic'
loop_
_space_group_symop_operation_xyz
x,y,z
-x,-y,1/2+z
x,-y,-z
-x,y,1/2-z
1/2+x,1/2+y,z
1/2-x,1/2-y,1/2+z
1/2+x,1/2-y,-z
1/2-x,1/2+y,1/2-z
loop_
_atom_site_type_symbol
_atom_site_label
_atom_site_fract_x
_atom_site_fract_y
_atom_site_fract_z
Si Si1 0.500000 0.521356 0.250000
Si Si2 0.793238 0.315870 0.540074
Si Si3 0.248057 0.673922 0.613824
Si Si4 0.928908 0.123722 0.379903
Si Si5 0.273819 0.109965 0.739859
Si Si6 0.860688 0.420381 0.989454
Si Si7 0.189186 0.281741 0.117881
O O1 0.472069 0.574107 0.314804
O O2 0.326039 0.467293 0.235484
O O3 0.848232 0.244575 0.583698
O O4 0.617208 0.352718 0.578663
O O5 0.742226 0.291648 0.461367
O O6 0.969155 0.368423 0.531704
O O7 0.300224 0.647933 0.689959
O O8 0.243692 0.610252 0.557707
O O9 0.030995 0.697947 0.616371
O O10 0.794378 0.079682 0.430341
O O11 0.816655 0.197725 0.361259
O O12 0.500000 0.102542 0.750000
O O13 0.232996 0.161699 0.674002
O O14 0.937335 0.500000 0.000000
#
# Coordination Sequence:
#
# PCOD9319986 Si02
#       7
#     4   8   8   8   8   8   8
#     4  12  28  42  62 104 130 174 220 258 342 396
#     4  10  22  41  68  98 126 166 222 269 324 383
#     4   9  19  39  67  94 122 167 218 260 315 390
#     4  11  25  41  65  95 136 165 214 279 320 386
#     4  10  23  44  69  89 135 174 216 266 325 396
#     4  11  23  39  63  96 128 166 209 264 330 382
#     4   9  20  40  69  94 120 173 216 266 321 380
#
# _framework density 20.43439
#
# number of rings (size 3 to 8) (size 9 to 14) (size 15 to 20)
#    0.000    1.846    1.538    0.923    5.385    9.231 
#    0.000    0.000    1.692    0.000    0.000    0.000 
#    0.000    0.000    0.000    0.000    0.000    0.000 
#
# Total GULP energy -145239.948423 kJ/mol
# GULP energy per Si atom -5586.151862 kJ/mol
# Density = 2.038788 g / cm^3
# Si number density = 20.434390 Si / 1000 Ang^3
#
#
#
# Elastic Constant Matrix: (Units=GPa)
#
#
# Indices 1 2 3 4 5 6 
#
# 1 -1136.3453 -500.9846 -232.8567 0.0000 0.0000 0.0000
# 2 -500.9846 -72.5191 -19.1657 0.0000 0.0000 0.0000
# 3 -232.8567 -19.1657 110.9340 0.0000 0.0000 0.0000
# 4 0.0000 0.0000 0.0000 -69.9721 0.0000 0.0000
# 5 0.0000 0.0000 0.0000 0.0000 22.8042 0.0000
# 6 0.0000 0.0000 0.0000 0.0000 0.0000 36.5234
#
#
#
# Elastic Compliance Matrix: (Units=1/GPa)
#
#
# Indices 1 2 3 4 5 6 
#
# 1 0.000447 -0.003190 0.000387 0.000000 0.000000 0.000000
# 2 -0.003190 0.009578 -0.005041 0.000000 0.000000 0.000000
# 3 0.000387 -0.005041 0.008956 0.000000 0.000000 0.000000
# 4 0.000000 0.000000 0.000000 -0.014291 0.000000 0.000000
# 5 0.000000 0.000000 0.000000 0.000000 0.043852 0.000000
# 6 0.000000 0.000000 0.000000 0.000000 0.000000 0.027380
#
#
# Mechanical properties :
#
#
# Convention : Reuss Voigt Hill
#
# Bulk Modulus (GPa) = 303.56841 -289.32716 7.12062
# Shear Modulus (GPa) = 53.93472 -25.12380 14.40546
#
# Velocity S-wave (km/s) = 5.14309 -3.51021 2.65799
# Velocity P-wave (km/s) = 13.57014 12.58270 3.59334
#
# Compressibility (1/GPa) = 0.00329415
#
# Stress axis : x y z
#
# Youngs Moduli (GPa) = 2237.61938 104.41008 111.65829
#
# Poissons Ratio (x) = 0.33303 -0.04321
# Poissons Ratio (y) = 7.13718 0.56282
# Poissons Ratio (z) = -0.86599 0.52628
#
# Static dielectric constant tensor:
#      x y z
#    x 1.766350 0.000000 0.000000 
#    y 0.000000 1.724870 0.000000 
#    z 0.000000 0.000000 1.721340 
# 
# From -- ./inp_files/23713.got.cif
#   From: 2010.05.17/outbox.cif.g08.bks.cpg/sg20_12_cif.got.tgz:23713.got - 2010.06.03 22:52:26.
