data_PCOD9319676
_publ_section_title
;
Structure prediction by ZEFSAII (Michael W. Deem and Ramdas Pophale) SiO2 
 PCOD9319676
Probable space group: C 2 2 21
;
_chemical_formula_sum "Si O2"
_cell_formula_units_Z 60
_cell_length_a 25.884971
_cell_length_b 13.222655
_cell_length_c 9.077119
_cell_angle_alpha 90.000000
_cell_angle_beta 90.000000
_cell_angle_gamma 90.000000
_cell_volume 3106.807740
_symmetry_space_group_name_H-M "C 2 2 21"
_symmetry_group_IT_number 20
_symmetry_cell_setting 'orthorhombic'
loop_
_space_group_symop_operation_xyz
x,y,z
-x,-y,1/2+z
x,-y,-z
-x,y,1/2-z
1/2+x,1/2+y,z
1/2-x,1/2-y,1/2+z
1/2+x,1/2-y,-z
1/2-x,1/2+y,1/2-z
loop_
_atom_site_type_symbol
_atom_site_label
_atom_site_fract_x
_atom_site_fract_y
_atom_site_fract_z
Si Si1 0.279919 0.054483 0.315139
Si Si2 0.556357 0.928055 0.312194
Si Si3 0.862423 0.818424 0.176811
Si Si4 0.550904 0.849381 0.643272
Si Si5 0.206802 0.658858 0.479787
Si Si6 0.656302 0.855699 0.215769
Si Si7 0.685205 0.737663 0.953274
Si Si8 0.180937 0.000000 0.500000
O O1 0.281897 0.073232 0.139855
O O2 0.309706 0.149742 0.385187
O O3 0.222234 0.048344 0.383081
O O4 0.309648 0.949714 0.340823
O O5 0.500000 0.941032 0.250000
O O6 0.545379 0.873557 0.468730
O O7 0.595113 0.869808 0.205226
O O8 0.578549 0.043447 0.315292
O O9 0.912649 0.748403 0.155557
O O10 0.813900 0.754032 0.113083
O O11 0.853779 0.824857 0.352267
O O12 0.855323 0.921642 0.087661
O O13 0.500000 0.838403 0.750000
O O14 0.165657 0.643732 0.608698
O O15 0.259565 0.686078 0.559811
O O16 0.672661 0.757256 0.124323
#
# Coordination Sequence:
#
# PCOD9319676 Si02
#       8
#     8   8   8   8   8   8   8   4
#     4  11  21  35  54  86 126 166 206 253 304 383
#     4  10  22  38  60  93 126 163 202 260 329 392
#     4  11  23  39  61  87 121 170 209 263 319 376
#     4  10  22  41  62  90 125 158 208 261 324 395
#     4  11  21  35  56  84 125 164 206 249 308 379
#     4  12  21  35  58  87 126 165 204 253 317 390
#     4  11  22  35  55  87 126 164 204 253 313 377
#     4  12  22  42  62  90 126 168 232 266 318 372
#
# _framework density 19.312429000000002
#
# number of rings (size 3 to 8) (size 9 to 14) (size 15 to 20)
#    0.000    1.067    4.000    4.400    3.733    0.000 
#    2.400    0.000    0.000    0.800    0.000    0.000 
#    0.000    0.000    0.000    0.000    0.000    0.000 
#
# Total GULP energy -167184.593955 kJ/mol
# GULP energy per Si atom -5572.819798 kJ/mol
# Density = 1.926847 g / cm^3
# Si number density = 19.312429 Si / 1000 Ang^3
#
#
#
# Elastic Constant Matrix: (Units=GPa)
#
#
# Indices 1 2 3 4 5 6 
#
# 1 68.1276 27.2448 16.0755 0.0000 0.0000 0.0000
# 2 27.2448 59.5966 34.3151 0.0000 0.0000 0.0000
# 3 16.0755 34.3151 84.6281 0.0000 0.0000 0.0000
# 4 0.0000 0.0000 0.0000 22.2135 0.0000 0.0000
# 5 0.0000 0.0000 0.0000 0.0000 24.4252 0.0000
# 6 0.0000 0.0000 0.0000 0.0000 0.0000 21.9112
#
#
#
# Elastic Compliance Matrix: (Units=1/GPa)
#
#
# Indices 1 2 3 4 5 6 
#
# 1 0.017963 -0.008150 -0.000108 0.000000 0.000000 0.000000
# 2 -0.008150 0.025588 -0.008827 0.000000 0.000000 0.000000
# 3 -0.000108 -0.008827 0.015416 0.000000 0.000000 0.000000
# 4 0.000000 0.000000 0.000000 0.045018 0.000000 0.000000
# 5 0.000000 0.000000 0.000000 0.000000 0.040941 0.000000
# 6 0.000000 0.000000 0.000000 0.000000 0.000000 0.045639
#
#
# Mechanical properties :
#
#
# Convention : Reuss Voigt Hill
#
# Bulk Modulus (GPa) = 40.32661 40.84701 40.58681
# Shear Modulus (GPa) = 21.45922 22.69110 22.07516
#
# Velocity S-wave (km/s) = 3.33702 3.43147 3.38458
# Velocity P-wave (km/s) = 5.98115 6.07425 6.02788
#
# Compressibility (1/GPa) = 0.02479752
#
# Stress axis : x y z
#
# Youngs Moduli (GPa) = 55.67017 39.08097 64.86712
#
# Poissons Ratio (x) = 0.31851 0.00697
# Poissons Ratio (y) = 0.45371 0.57260
# Poissons Ratio (z) = 0.00598 0.34498
#
# Static dielectric constant tensor:
#      x y z
#    x 1.645250 0.000000 0.000000 
#    y 0.000000 1.696100 0.000000 
#    z 0.000000 0.000000 1.780620 
# 
# From -- ./inp_files/10766.got.cif
#   From: 2010.05.17/outbox.cif.g08.bks.cpg/sg20_6_cif.got.tgz:10766.got - 2010.06.03 22:52:26.
