data_PCOD9319027
_publ_section_title
;
Structure prediction by ZEFSAII (Michael W. Deem and Ramdas Pophale) SiO2 
 PCOD9319027
Probable space group: C 2 2 21
;
_chemical_formula_sum "Si O2"
_cell_formula_units_Z 44
_cell_length_a 15.251589
_cell_length_b 8.722795
_cell_length_c 17.538283
_cell_angle_alpha 90.000000
_cell_angle_beta 90.000000
_cell_angle_gamma 90.000000
_cell_volume 2333.231510
_symmetry_space_group_name_H-M "C 2 2 21"
_symmetry_group_IT_number 20
_symmetry_cell_setting 'orthorhombic'
loop_
_space_group_symop_operation_xyz
x,y,z
-x,-y,1/2+z
x,-y,-z
-x,y,1/2-z
1/2+x,1/2+y,z
1/2-x,1/2-y,1/2+z
1/2+x,1/2-y,-z
1/2-x,1/2+y,1/2-z
loop_
_atom_site_type_symbol
_atom_site_label
_atom_site_fract_x
_atom_site_fract_y
_atom_site_fract_z
Si Si1 0.000000 0.282272 0.250000
Si Si2 0.713676 0.745557 0.073426
Si Si3 0.960909 0.535800 0.128213
Si Si4 0.319380 0.000000 0.000000
Si Si5 0.664289 0.575660 0.215975
Si Si6 0.406814 0.000000 0.500000
Si Si7 0.165193 0.245914 0.710362
O O1 0.996780 0.394846 0.177418
O O2 0.913401 0.177687 0.249222
O O3 0.762019 0.651596 0.008122
O O4 0.664829 0.619622 0.126462
O O5 0.786619 0.810952 0.132376
O O6 0.651742 0.874364 0.041462
O O7 0.878056 0.489373 0.075750
O O8 0.921914 0.664849 0.184489
O O9 0.033031 0.578918 0.065122
O O10 0.761238 0.635009 0.242132
O O11 0.652113 0.398732 0.235729
#
# Coordination Sequence:
#
# PCOD9319027 Si02
#       7
#     4   8   8   4   8   4   8
#     4  12  22  38  58  96 126 156 210 256 318 342
#     4   9  21  39  61  92 116 164 205 254 306 366
#     4  10  21  39  63  87 120 169 197 260 304 379
#     4   9  20  40  62  83 122 160 214 245 312 368
#     4  10  21  39  60  93 120 159 204 260 298 369
#     4  11  20  42  62  91 128 158 204 249 320 366
#     4   9  20  40  61  90 117 162 210 242 317 352
#
# _framework density 18.857966000000001
#
# number of rings (size 3 to 8) (size 9 to 14) (size 15 to 20)
#    1.091    1.091    1.818    1.091    0.000    2.182 
#    6.545    0.000    0.000    0.000    0.000    0.000 
#    0.000    0.000    0.000    0.000    0.000    0.000 
#
# Total GULP energy -122539.961005 kJ/mol
# GULP energy per Si atom -5569.998227 kJ/mol
# Density = 1.881504 g / cm^3
# Si number density = 18.857966 Si / 1000 Ang^3
#
#
#
# Elastic Constant Matrix: (Units=GPa)
#
#
# Indices 1 2 3 4 5 6 
#
# 1 69.4294 31.5385 18.1888 0.0000 0.0000 0.0000
# 2 31.5385 84.5343 31.9170 0.0000 0.0000 0.0000
# 3 18.1888 31.9170 47.1119 0.0000 0.0000 0.0000
# 4 0.0000 0.0000 0.0000 39.6295 0.0000 0.0000
# 5 0.0000 0.0000 0.0000 0.0000 38.9606 0.0000
# 6 0.0000 0.0000 0.0000 0.0000 0.0000 17.3131
#
#
#
# Elastic Compliance Matrix: (Units=1/GPa)
#
#
# Indices 1 2 3 4 5 6 
#
# 1 0.017687 -0.005403 -0.003169 0.000000 0.000000 0.000000
# 2 -0.005403 0.017546 -0.009801 0.000000 0.000000 0.000000
# 3 -0.003169 -0.009801 0.029089 0.000000 0.000000 0.000000
# 4 0.000000 0.000000 0.000000 0.025234 0.000000 0.000000
# 5 0.000000 0.000000 0.000000 0.000000 0.025667 0.000000
# 6 0.000000 0.000000 0.000000 0.000000 0.000000 0.057760
#
#
# Mechanical properties :
#
#
# Convention : Reuss Voigt Hill
#
# Bulk Modulus (GPa) = 36.26065 40.48494 38.37280
# Shear Modulus (GPa) = 22.83947 27.14272 24.99110
#
# Velocity S-wave (km/s) = 3.48391 3.79796 3.64432
# Velocity P-wave (km/s) = 5.95429 6.38338 6.17256
#
# Compressibility (1/GPa) = 0.02757810
#
# Stress axis : x y z
#
# Youngs Moduli (GPa) = 56.53764 56.99450 34.37707
#
# Poissons Ratio (x) = 0.30792 0.10893
# Poissons Ratio (y) = 0.30545 0.33692
# Poissons Ratio (z) = 0.17915 0.55859
#
# Static dielectric constant tensor:
#      x y z
#    x 1.682100 0.000000 0.000000 
#    y 0.000000 1.582880 0.000000 
#    z 0.000000 0.000000 1.673730 
# 
# From -- ./inp_files/24778.got.cif
#   From: 2010.05.17/outbox.cif.g08.bks.cpg/sg20_13_cif.got.tgz:24778.got - 2010.06.03 22:52:26.
