data_PCOD9319935
_publ_section_title
;
Structure prediction by ZEFSAII (Michael W. Deem and Ramdas Pophale) SiO2 
 PCOD9319935
Probable space group: C 2 2 21
;
_chemical_formula_sum "Si O2"
_cell_formula_units_Z 32
_cell_length_a 5.030747
_cell_length_b 24.131028
_cell_length_c 11.893037
_cell_angle_alpha 90.000000
_cell_angle_beta 90.000000
_cell_angle_gamma 90.000000
_cell_volume 1443.780163
_symmetry_space_group_name_H-M "C 2 2 21"
_symmetry_group_IT_number 20
_symmetry_cell_setting 'orthorhombic'
loop_
_space_group_symop_operation_xyz
x,y,z
-x,-y,1/2+z
x,-y,-z
-x,y,1/2-z
1/2+x,1/2+y,z
1/2-x,1/2-y,1/2+z
1/2+x,1/2-y,-z
1/2-x,1/2+y,1/2-z
loop_
_atom_site_type_symbol
_atom_site_label
_atom_site_fract_x
_atom_site_fract_y
_atom_site_fract_z
Si Si1 0.250628 0.349721 0.168706
Si Si2 0.818915 0.063100 0.027834
Si Si3 0.748918 0.727448 0.168175
Si Si4 0.823295 0.608583 0.135880
O O1 0.500000 0.345890 0.250000
O O2 0.207662 0.288110 0.115285
O O3 0.000000 0.362269 0.250000
O O4 0.325628 0.395678 0.077966
O O5 0.513234 0.069419 0.063948
O O6 0.027054 0.084567 0.122087
O O7 0.881792 0.000000 0.000000
O O8 0.500000 0.715485 0.250000
O O9 0.795361 0.672549 0.094847
O O10 0.000000 0.731909 0.250000
O O11 0.000000 0.611941 0.250000
#
# Coordination Sequence:
#
# PCOD9319935 Si02
#       4
#     8   8   8   8
#     4  10  22  41  63  89 125 162 200 258 316 368
#     4  12  26  41  61  93 125 166 221 252 301 389
#     4   9  18  36  62  91 119 153 201 251 314 382
#     4  11  23  42  65  91 124 161 204 267 322 367
#
# _framework density 22.164041000000001
#
# number of rings (size 3 to 8) (size 9 to 14) (size 15 to 20)
#    0.000    1.500    0.000    6.000    0.000    5.000 
#    0.000    0.000    0.000    0.000    0.000    0.000 
#    0.000    0.000    0.000    0.000    0.000    0.000 
#
# Total GULP energy -89228.465704 kJ/mol
# GULP energy per Si atom -5576.779107 kJ/mol
# Density = 2.211359 g / cm^3
# Si number density = 22.164041 Si / 1000 Ang^3
#
#
#
# Elastic Constant Matrix: (Units=GPa)
#
#
# Indices 1 2 3 4 5 6 
#
# 1 157.8443 22.1661 19.9194 0.0000 0.0000 0.0000
# 2 22.1661 184.9200 54.3468 0.0000 0.0000 0.0000
# 3 19.9194 54.3468 42.2931 0.0000 0.0000 0.0000
# 4 0.0000 0.0000 0.0000 28.2235 0.0000 0.0000
# 5 0.0000 0.0000 0.0000 0.0000 29.8506 0.0000
# 6 0.0000 0.0000 0.0000 0.0000 0.0000 25.7517
#
#
#
# Elastic Compliance Matrix: (Units=1/GPa)
#
#
# Indices 1 2 3 4 5 6 
#
# 1 0.006740 0.000201 -0.003433 0.000000 0.000000 0.000000
# 2 0.000201 0.008695 -0.011268 0.000000 0.000000 0.000000
# 3 -0.003433 -0.011268 0.039741 0.000000 0.000000 0.000000
# 4 0.000000 0.000000 0.000000 0.035431 0.000000 0.000000
# 5 0.000000 0.000000 0.000000 0.000000 0.033500 0.000000
# 6 0.000000 0.000000 0.000000 0.000000 0.000000 0.038832
#
#
# Mechanical properties :
#
#
# Convention : Reuss Voigt Hill
#
# Bulk Modulus (GPa) = 38.20209 64.21358 51.20783
# Shear Modulus (GPa) = 24.91702 36.00683 30.46193
#
# Velocity S-wave (km/s) = 3.35656 4.03496 3.71129
# Velocity P-wave (km/s) = 5.68291 7.12339 6.44353
#
# Compressibility (1/GPa) = 0.02617658
#
# Stress axis : x y z
#
# Youngs Moduli (GPa) = 148.36035 115.00476 25.16298
#
# Poissons Ratio (x) = -0.02311 0.08638
# Poissons Ratio (y) = -0.02981 0.28354
# Poissons Ratio (z) = 0.50929 1.29589
#
# Static dielectric constant tensor:
#      x y z
#    x 1.760120 0.000000 0.000000 
#    y 0.000000 1.817290 0.000000 
#    z 0.000000 0.000000 1.840420 
# 
# From -- ./inp_files/11915.got.cif
#   From: 2010.05.17/outbox.cif.g08.bks.cpg/sg20_6_cif.got.tgz:11915.got - 2010.06.03 22:52:26.
