data_PCOD9319704
_publ_section_title
;
Structure prediction by ZEFSAII (Michael W. Deem and Ramdas Pophale) SiO2 
 PCOD9319704
Probable space group: C 2 2 21
;
_chemical_formula_sum "Si O2"
_cell_formula_units_Z 48
_cell_length_a 19.324499
_cell_length_b 13.503585
_cell_length_c 8.361244
_cell_angle_alpha 90.000000
_cell_angle_beta 90.000000
_cell_angle_gamma 90.000000
_cell_volume 2181.866746
_symmetry_space_group_name_H-M "C 2 2 21"
_symmetry_group_IT_number 20
_symmetry_cell_setting 'orthorhombic'
loop_
_space_group_symop_operation_xyz
x,y,z
-x,-y,1/2+z
x,-y,-z
-x,y,1/2-z
1/2+x,1/2+y,z
1/2-x,1/2-y,1/2+z
1/2+x,1/2-y,-z
1/2-x,1/2+y,1/2-z
loop_
_atom_site_type_symbol
_atom_site_label
_atom_site_fract_x
_atom_site_fract_y
_atom_site_fract_z
Si Si1 0.757704 0.977250 0.682273
Si Si2 0.247107 0.217438 0.353861
Si Si3 0.658637 0.905809 0.089416
Si Si4 0.906407 0.800768 0.916353
Si Si5 0.133156 0.127261 0.763230
Si Si6 0.438968 0.283808 0.571201
O O1 0.695991 0.037518 0.766337
O O2 0.830445 0.021152 0.740675
O O3 0.753073 0.000000 0.500000
O O4 0.757140 0.860224 0.708587
O O5 0.278468 0.145742 0.490693
O O6 0.169358 0.250193 0.396840
O O7 0.302350 0.299319 0.305795
O O8 0.604935 0.816632 0.096723
O O9 0.625799 0.000000 0.000000
O O10 0.922159 0.842730 0.736571
O O11 0.981124 0.750309 0.942078
O O12 0.896790 0.856922 0.085608
O O13 0.082634 0.154372 0.912423
#
# Coordination Sequence:
#
# PCOD9319704 Si02
#       6
#     8   8   8   8   8   8
#     4  11  22  35  65 103 129 163 225 278 327 392
#     4  10  22  38  64  97 125 166 218 272 334 377
#     4   9  19  39  62  91 134 167 211 285 326 387
#     4  11  22  39  68  89 132 172 214 273 328 395
#     4  11  23  41  68  96 131 173 219 277 330 395
#     4  10  23  40  65  95 129 178 224 253 342 416
#
# _framework density 21.999509
#
# number of rings (size 3 to 8) (size 9 to 14) (size 15 to 20)
#    0.000    1.667    1.667    2.500    7.000    0.000 
#    0.000    0.000   47.667    0.000    0.000    0.000 
#    0.000    0.000    0.000    0.000    0.000    0.000 
#
# Total GULP energy -133687.330182 kJ/mol
# GULP energy per Si atom -5570.305424 kJ/mol
# Density = 2.194944 g / cm^3
# Si number density = 21.999509 Si / 1000 Ang^3
#
#
#
# Elastic Constant Matrix: (Units=GPa)
#
#
# Indices 1 2 3 4 5 6 
#
# 1 136.6508 16.1579 19.1216 0.0000 0.0000 0.0000
# 2 16.1579 41.7237 -4.1059 0.0000 0.0000 0.0000
# 3 19.1216 -4.1059 124.1377 0.0000 0.0000 0.0000
# 4 0.0000 0.0000 0.0000 0.6107 0.0000 0.0000
# 5 0.0000 0.0000 0.0000 0.0000 28.9387 0.0000
# 6 0.0000 0.0000 0.0000 0.0000 0.0000 9.4313
#
#
#
# Elastic Compliance Matrix: (Units=1/GPa)
#
#
# Indices 1 2 3 4 5 6 
#
# 1 0.007879 -0.003181 -0.001319 0.000000 0.000000 0.000000
# 2 -0.003181 0.025330 0.001328 0.000000 0.000000 0.000000
# 3 -0.001319 0.001328 0.008303 0.000000 0.000000 0.000000
# 4 0.000000 0.000000 0.000000 1.637398 0.000000 0.000000
# 5 0.000000 0.000000 0.000000 0.000000 0.034556 0.000000
# 6 0.000000 0.000000 0.000000 0.000000 0.000000 0.106030
#
#
# Mechanical properties :
#
#
# Convention : Reuss Voigt Hill
#
# Bulk Modulus (GPa) = 28.43565 40.53993 34.48779
# Shear Modulus (GPa) = 2.72100 25.88539 14.30320
#
# Velocity S-wave (km/s) = 1.11334 3.43393 2.55259
# Velocity P-wave (km/s) = 3.82183 5.84724 4.93946
#
# Compressibility (1/GPa) = 0.03516712
#
# Stress axis : x y z
#
# Youngs Moduli (GPa) = 126.92657 39.47941 120.44381
#
# Poissons Ratio (x) = 0.12558 0.15884
# Poissons Ratio (y) = 0.40373 -0.15992
# Poissons Ratio (z) = 0.16739 -0.05242
#
# Static dielectric constant tensor:
#      x y z
#    x 2.003750 0.000000 0.000000 
#    y 0.000000 1.873160 0.000000 
#    z 0.000000 0.000000 1.905410 
# 
# From -- ./inp_files/8437.got.cif
#   From: 2010.05.17/outbox.cif.g08.bks.cpg/sg20_5_cif.got.tgz:8437.got - 2010.06.03 22:52:26.
