data_PCOD9319971
_publ_section_title
;
Structure prediction by ZEFSAII (Michael W. Deem and Ramdas Pophale) SiO2 
 PCOD9319971
Probable space group: C 2 2 21
;
_chemical_formula_sum "Si O2"
_cell_formula_units_Z 32
_cell_length_a 30.694037
_cell_length_b 9.896498
_cell_length_c 4.955192
_cell_angle_alpha 90.000000
_cell_angle_beta 90.000000
_cell_angle_gamma 90.000000
_cell_volume 1505.206345
_symmetry_space_group_name_H-M "C 2 2 21"
_symmetry_group_IT_number 20
_symmetry_cell_setting 'orthorhombic'
loop_
_space_group_symop_operation_xyz
x,y,z
-x,-y,1/2+z
x,-y,-z
-x,y,1/2-z
1/2+x,1/2+y,z
1/2-x,1/2-y,1/2+z
1/2+x,1/2-y,-z
1/2-x,1/2+y,1/2-z
loop_
_atom_site_type_symbol
_atom_site_label
_atom_site_fract_x
_atom_site_fract_y
_atom_site_fract_z
Si Si1 0.371703 0.639661 0.657878
Si Si2 0.604191 0.793397 0.334951
Si Si3 0.530500 0.000000 0.500000
Si Si4 0.321387 0.000000 0.000000
Si Si5 0.778493 0.724626 0.347086
O O1 0.377716 0.500000 0.500000
O O2 0.396964 0.747906 0.472881
O O3 0.320712 0.679379 0.648003
O O4 0.387415 0.667442 0.962317
O O5 0.562048 0.877010 0.418406
O O6 0.646129 0.890844 0.366392
O O7 0.500000 0.036447 0.250000
O O8 0.293619 0.083357 0.216565
O O9 0.757301 0.716605 0.640443
#
# Coordination Sequence:
#
# PCOD9319971 Si02
#       5
#     8   8   4   4   8
#     4  11  23  42  61  87 121 169 220 244 300 386
#     4  10  22  41  67  90 121 166 199 248 312 373
#     4  11  22  40  72 108 130 148 196 262 310 368
#     4   9  22  42  58  80 118 158 210 252 318 374
#     4  11  24  39  57  86 116 160 211 281 323 350
#
# _framework density 21.259543000000001
#
# number of rings (size 3 to 8) (size 9 to 14) (size 15 to 20)
#    0.000    1.500    0.000    5.250    1.750   13.000 
#    4.500    0.000    0.000   15.000    0.000    0.000 
#    0.000    0.000    0.000    0.000    0.000    0.000 
#
# Total GULP energy -89535.576125 kJ/mol
# GULP energy per Si atom -5595.973508 kJ/mol
# Density = 2.121116 g / cm^3
# Si number density = 21.259543 Si / 1000 Ang^3
#
#
#
# Elastic Constant Matrix: (Units=GPa)
#
#
# Indices 1 2 3 4 5 6 
#
# 1 99.9581 8.5685 10.5812 0.0000 0.0000 0.0000
# 2 8.5685 69.1772 -14.0592 0.0000 0.0000 0.0000
# 3 10.5812 -14.0592 76.2875 0.0000 0.0000 0.0000
# 4 0.0000 0.0000 0.0000 32.1700 0.0000 0.0000
# 5 0.0000 0.0000 0.0000 0.0000 38.1163 0.0000
# 6 0.0000 0.0000 0.0000 0.0000 0.0000 -1.4980
#
#
#
# Elastic Compliance Matrix: (Units=1/GPa)
#
#
# Indices 1 2 3 4 5 6 
#
# 1 0.010327 -0.001631 -0.001733 0.000000 0.000000 0.000000
# 2 -0.001631 0.015276 0.003041 0.000000 0.000000 0.000000
# 3 -0.001733 0.003041 0.013909 0.000000 0.000000 0.000000
# 4 0.000000 0.000000 0.000000 0.031085 0.000000 0.000000
# 5 0.000000 0.000000 0.000000 0.000000 0.026235 0.000000
# 6 0.000000 0.000000 0.000000 0.000000 0.000000 -0.667570
#
#
# Mechanical properties :
#
#
# Convention : Reuss Voigt Hill
#
# Bulk Modulus (GPa) = 25.72911 28.40045 27.06478
# Shear Modulus (GPa) = -8.97447 29.77983 10.40268
#
# Velocity S-wave (km/s) = -2.05683 3.74675 2.21445
# Velocity P-wave (km/s) = 2.54714 5.66617 4.39280
#
# Compressibility (1/GPa) = 0.03886649
#
# Stress axis : x y z
#
# Youngs Moduli (GPa) = 96.82890 65.46283 71.89480
#
# Poissons Ratio (x) = 0.10680 0.12460
# Poissons Ratio (y) = 0.15797 -0.21867
# Poissons Ratio (z) = 0.16781 -0.19911
#
# Static dielectric constant tensor:
#      x y z
#    x 1.720030 0.000000 0.000000 
#    y 0.000000 1.795220 0.000000 
#    z 0.000000 0.000000 1.757370 
# 
# From -- ./inp_files/614.got.cif
#   From: 2010.05.17/outbox.cif.g08.bks.cpg/sg20_1_cif.got.tgz:614.got - 2010.06.03 22:52:26.
