data_PCOD9319172
_publ_section_title
;
Structure prediction by ZEFSAII (Michael W. Deem and Ramdas Pophale) SiO2 
 PCOD9319172
Probable space group: C 2 2 21
;
_chemical_formula_sum "Si O2"
_cell_formula_units_Z 44
_cell_length_a 7.793294
_cell_length_b 7.913552
_cell_length_c 27.029605
_cell_angle_alpha 90.000000
_cell_angle_beta 90.000000
_cell_angle_gamma 90.000000
_cell_volume 1666.987026
_symmetry_space_group_name_H-M "C 2 2 21"
_symmetry_group_IT_number 20
_symmetry_cell_setting 'orthorhombic'
loop_
_space_group_symop_operation_xyz
x,y,z
-x,-y,1/2+z
x,-y,-z
-x,y,1/2-z
1/2+x,1/2+y,z
1/2-x,1/2-y,1/2+z
1/2+x,1/2-y,-z
1/2-x,1/2+y,1/2-z
loop_
_atom_site_type_symbol
_atom_site_label
_atom_site_fract_x
_atom_site_fract_y
_atom_site_fract_z
Si Si1 0.458219 0.911100 0.689569
Si Si2 0.112167 0.500000 0.000000
Si Si3 0.958008 0.833730 0.899975
Si Si4 0.297007 0.668648 0.871922
Si Si5 0.804710 0.675545 0.000137
Si Si6 0.139541 0.268730 0.288954
O O1 0.561148 0.783561 0.654369
O O2 0.327987 0.050487 0.663556
O O3 0.331551 0.790256 0.720751
O O4 0.605140 0.032225 0.711893
O O5 0.971895 0.390177 0.969333
O O6 0.225191 0.652077 0.981965
O O7 0.160171 0.797037 0.896510
O O8 0.872780 0.729553 0.945203
O O9 0.901704 0.027647 0.902555
O O10 0.890957 0.777310 0.846224
O O11 0.696032 0.500000 0.000000
O O12 0.000000 0.195313 0.250000
#
# Coordination Sequence:
#
# PCOD9319172 Si02
#       6
#     8   4   8   8   8   8
#     4  10  22  40  61  88 127 166 213 264 319 378
#     4  10  24  44  70 100 138 174 226 278 346 406
#     4  10  21  44  66  98 129 176 216 273 333 396
#     4  10  21  40  62  94 122 167 213 262 320 390
#     4  10  24  46  69 102 136 179 225 284 340 410
#     4  10  23  41  66  96 132 172 221 271 328 396
#
# _framework density 26.394926000000002
#
# number of rings (size 3 to 8) (size 9 to 14) (size 15 to 20)
#    0.545    1.455    0.000    2.182    1.273    5.818 
#   19.636    0.909    0.000    0.000    0.000    0.000 
#    0.000    0.000    0.000    0.000    0.000    0.000 
#
# Total GULP energy -122616.034393 kJ/mol
# GULP energy per Si atom -5573.456109 kJ/mol
# Density = 2.633485 g / cm^3
# Si number density = 26.394926 Si / 1000 Ang^3
#
#
#
# Elastic Constant Matrix: (Units=GPa)
#
#
# Indices 1 2 3 4 5 6 
#
# 1 154.0825 101.1214 35.8497 0.0000 0.0000 0.0000
# 2 101.1214 211.0961 17.3669 0.0000 0.0000 0.0000
# 3 35.8497 17.3669 82.7310 0.0000 0.0000 0.0000
# 4 0.0000 0.0000 0.0000 40.0614 0.0000 0.0000
# 5 0.0000 0.0000 0.0000 0.0000 17.5458 0.0000
# 6 0.0000 0.0000 0.0000 0.0000 0.0000 62.7299
#
#
#
# Elastic Compliance Matrix: (Units=1/GPa)
#
#
# Indices 1 2 3 4 5 6 
#
# 1 0.010382 -0.004684 -0.003516 0.000000 0.000000 0.000000
# 2 -0.004684 0.006934 0.000574 0.000000 0.000000 0.000000
# 3 -0.003516 0.000574 0.013490 0.000000 0.000000 0.000000
# 4 0.000000 0.000000 0.000000 0.024962 0.000000 0.000000
# 5 0.000000 0.000000 0.000000 0.000000 0.056994 0.000000
# 6 0.000000 0.000000 0.000000 0.000000 0.000000 0.015941
#
#
# Mechanical properties :
#
#
# Convention : Reuss Voigt Hill
#
# Bulk Modulus (GPa) = 64.28728 84.06504 74.17616
# Shear Modulus (GPa) = 33.52583 43.63887 38.58235
#
# Velocity S-wave (km/s) = 3.56780 4.07050 3.82741
# Velocity P-wave (km/s) = 6.43281 7.34915 6.90620
#
# Compressibility (1/GPa) = 0.01555518
#
# Stress axis : x y z
#
# Youngs Moduli (GPa) = 96.32001 144.22186 74.12777
#
# Poissons Ratio (x) = 0.67555 0.26060
# Poissons Ratio (y) = 0.45117 -0.04257
# Poissons Ratio (z) = 0.33862 -0.08281
#
# Static dielectric constant tensor:
#      x y z
#    x 2.213080 0.000000 0.000000 
#    y 0.000000 2.155710 0.000000 
#    z 0.000000 0.000000 2.391650 
# 
# From -- ./inp_files/30929.got.cif
#   From: 2010.05.17/outbox.cif.g08.bks.cpg/sg20_16_cif.got.tgz:30929.got - 2010.06.03 22:52:26.
