data_PCOD9319800
_publ_section_title
;
Structure prediction by ZEFSAII (Michael W. Deem and Ramdas Pophale) SiO2 
 PCOD9319800
Probable space group: C 2 2 21
;
_chemical_formula_sum "Si O2"
_cell_formula_units_Z 40
_cell_length_a 16.447457
_cell_length_b 10.347492
_cell_length_c 10.011353
_cell_angle_alpha 90.000000
_cell_angle_beta 90.000000
_cell_angle_gamma 90.000000
_cell_volume 1703.831464
_symmetry_space_group_name_H-M "C 2 2 21"
_symmetry_group_IT_number 20
_symmetry_cell_setting 'orthorhombic'
loop_
_space_group_symop_operation_xyz
x,y,z
-x,-y,1/2+z
x,-y,-z
-x,y,1/2-z
1/2+x,1/2+y,z
1/2-x,1/2-y,1/2+z
1/2+x,1/2-y,-z
1/2-x,1/2+y,1/2-z
loop_
_atom_site_type_symbol
_atom_site_label
_atom_site_fract_x
_atom_site_fract_y
_atom_site_fract_z
Si Si1 0.000000 0.182135 0.250000
Si Si2 0.224923 0.355225 0.319484
Si Si3 0.500000 0.234914 0.250000
Si Si4 0.578965 0.807639 0.490386
Si Si5 0.235343 0.149704 0.527618
Si Si6 0.610809 0.530463 0.846998
O O1 0.011888 0.262326 0.384291
O O2 0.075936 0.085498 0.241164
O O3 0.142728 0.387849 0.399014
O O4 0.262852 0.236634 0.403819
O O5 0.217894 0.319064 0.164710
O O6 0.292833 0.464414 0.327410
O O7 0.536267 0.152365 0.372494
O O8 0.433044 0.335585 0.308346
O O9 0.640017 0.690893 0.537379
O O10 0.243550 0.000000 0.500000
O O11 0.591053 0.500000 0.000000
#
# Coordination Sequence:
#
# PCOD9319800 Si02
#       6
#     4   8   4   8   8   8
#     4  11  22  34  62  98 129 169 210 296 362 404
#     4  10  23  38  58  95 137 183 225 268 354 424
#     4  11  20  38  54  92 133 179 206 286 362 392
#     4  10  23  37  58  91 139 173 218 274 356 417
#     4  10  22  40  61  91 144 182 224 288 347 408
#     4  11  21  32  60  94 132 163 218 278 346 405
#
# _framework density 23.476500999999999
#
# number of rings (size 3 to 8) (size 9 to 14) (size 15 to 20)
#    1.200    0.400    4.000    1.200    5.600    0.000 
#    0.000    0.000    0.000    0.000    0.000   15.400 
#    0.000    0.000    0.000    0.000    0.000    0.000 
#
# Total GULP energy -111663.076420 kJ/mol
# GULP energy per Si atom -5583.153821 kJ/mol
# Density = 2.342307 g / cm^3
# Si number density = 23.476501 Si / 1000 Ang^3
#
#
#
# Elastic Constant Matrix: (Units=GPa)
#
#
# Indices 1 2 3 4 5 6 
#
# 1 98.3825 22.3126 35.7431 0.0000 0.0000 0.0000
# 2 22.3126 41.1326 35.7645 0.0000 0.0000 0.0000
# 3 35.7431 35.7645 162.2651 0.0000 0.0000 0.0000
# 4 0.0000 0.0000 0.0000 15.0376 0.0000 0.0000
# 5 0.0000 0.0000 0.0000 0.0000 51.2930 0.0000
# 6 0.0000 0.0000 0.0000 0.0000 0.0000 29.1399
#
#
#
# Elastic Compliance Matrix: (Units=1/GPa)
#
#
# Indices 1 2 3 4 5 6 
#
# 1 0.011870 -0.005153 -0.001479 0.000000 0.000000 0.000000
# 2 -0.005153 0.032312 -0.005987 0.000000 0.000000 0.000000
# 3 -0.001479 -0.005987 0.007808 0.000000 0.000000 0.000000
# 4 0.000000 0.000000 0.000000 0.066500 0.000000 0.000000
# 5 0.000000 0.000000 0.000000 0.000000 0.019496 0.000000
# 6 0.000000 0.000000 0.000000 0.000000 0.000000 0.034317
#
#
# Mechanical properties :
#
#
# Convention : Reuss Voigt Hill
#
# Bulk Modulus (GPa) = 37.37897 54.38007 45.87952
# Shear Modulus (GPa) = 24.21781 32.95811 28.58796
#
# Velocity S-wave (km/s) = 3.21530 3.75090 3.49338
# Velocity P-wave (km/s) = 5.45350 6.47865 5.98805
#
# Compressibility (1/GPa) = 0.02675301
#
# Stress axis : x y z
#
# Youngs Moduli (GPa) = 84.24286 30.94784 128.07268
#
# Poissons Ratio (x) = 0.15948 0.18941
# Poissons Ratio (y) = 0.43412 0.76674
# Poissons Ratio (z) = 0.12459 0.18528
#
# Static dielectric constant tensor:
#      x y z
#    x 1.926110 0.000000 0.000000 
#    y 0.000000 1.866630 0.000000 
#    z 0.000000 0.000000 1.270390 
# 
# From -- ./inp_files/10004.got.cif
#   From: 2010.05.17/outbox.cif.g08.bks.cpg/sg20_6_cif.got.tgz:10004.got - 2010.06.03 22:52:26.
