data_PCOD9319740
_publ_section_title
;
Structure prediction by ZEFSAII (Michael W. Deem and Ramdas Pophale) SiO2 
 PCOD9319740
Probable space group: C 2 2 21
;
_chemical_formula_sum "Si O2"
_cell_formula_units_Z 64
_cell_length_a 9.656106
_cell_length_b 17.816884
_cell_length_c 20.647629
_cell_angle_alpha 90.000000
_cell_angle_beta 90.000000
_cell_angle_gamma 90.000000
_cell_volume 3552.253617
_symmetry_space_group_name_H-M "C 2 2 21"
_symmetry_group_IT_number 20
_symmetry_cell_setting 'orthorhombic'
loop_
_space_group_symop_operation_xyz
x,y,z
-x,-y,1/2+z
x,-y,-z
-x,y,1/2-z
1/2+x,1/2+y,z
1/2-x,1/2-y,1/2+z
1/2+x,1/2-y,-z
1/2-x,1/2+y,1/2-z
loop_
_atom_site_type_symbol
_atom_site_label
_atom_site_fract_x
_atom_site_fract_y
_atom_site_fract_z
Si Si1 0.962578 0.668686 0.074902
Si Si2 0.462578 0.168686 0.925098
Si Si3 0.345560 0.362744 0.243378
Si Si4 0.849301 0.500000 0.717672
Si Si5 0.959006 0.500000 0.423894
Si Si6 0.154440 0.862744 0.743378
Si Si7 0.276038 0.754084 0.356575
Si Si8 0.223962 0.745916 0.143425
O O1 0.958960 0.578400 0.084000
O O2 0.089914 0.703888 0.115246
O O3 0.819365 0.708169 0.093972
O O4 0.992768 0.682820 0.000000
O O5 0.458960 0.078400 0.916000
O O6 0.589914 0.203888 0.884754
O O7 0.319365 0.208169 0.906028
O O8 0.500000 0.393578 0.250000
O O9 0.232070 0.427260 0.242017
O O10 0.321879 0.315254 0.178075
O O11 0.322423 0.304544 0.301638
O O12 0.857437 0.500000 0.638754
O O13 0.767930 0.427260 0.742017
O O14 0.000000 0.500000 0.750000
O O15 0.906593 0.500000 0.500000
O O16 0.177577 0.804544 0.801638
O O17 0.178121 0.815254 0.678075
O O18 0.000000 0.893578 0.750000
#
# Coordination Sequence:
#
# PCOD9319740 Si02
#       8
#     8   8   8   8   8   8   8   8
#     4  11  22  40  63  88 122 164 210 256 310 378
#     4  11  22  40  63  88 122 164 210 256 310 378
#     4  11  23  38  60  88 128 160 199 260 316 365
#     4  12  23  39  66  95 121 166 216 257 314 383
#     4  10  22  39  60  89 124 160 202 257 310 372
#     4  11  23  38  60  88 128 160 199 260 316 365
#     4  11  22  38  61  89 121 160 207 255 314 367
#     4  11  22  38  61  89 121 160 207 255 314 367
#
# _framework density 18.016732000000001
#
# number of rings (size 3 to 8) (size 9 to 14) (size 15 to 20)
#    0.000    1.000    5.000    2.625    0.000    0.000 
#    0.000    0.000    0.000    0.000    0.000    7.000 
#    0.000    0.000    0.000    0.000    0.000    0.000 
#
# Total GULP energy -178557.036953 kJ/mol
# GULP energy per Si atom -5579.907405 kJ/mol
# Density = 1.797572 g / cm^3
# Si number density = 18.016732 Si / 1000 Ang^3
#
#
#
# Elastic Constant Matrix: (Units=GPa)
#
#
# Indices 1 2 3 4 5 6 
#
# 1 97.1888 42.8112 10.3982 0.0000 0.0000 0.0000
# 2 42.8112 120.8148 29.2009 0.0000 0.0000 0.0000
# 3 10.3982 29.2009 58.8602 0.0000 0.0000 0.0000
# 4 0.0000 0.0000 0.0000 28.3649 0.0000 0.0000
# 5 0.0000 0.0000 0.0000 0.0000 23.0001 0.0000
# 6 0.0000 0.0000 0.0000 0.0000 0.0000 25.2271
#
#
#
# Elastic Compliance Matrix: (Units=1/GPa)
#
#
# Indices 1 2 3 4 5 6 
#
# 1 0.012192 -0.004318 -0.000012 0.000000 0.000000 0.000000
# 2 -0.004318 0.010934 -0.004662 0.000000 0.000000 0.000000
# 3 -0.000012 -0.004662 0.019304 0.000000 0.000000 0.000000
# 4 0.000000 0.000000 0.000000 0.035255 0.000000 0.000000
# 5 0.000000 0.000000 0.000000 0.000000 0.043478 0.000000
# 6 0.000000 0.000000 0.000000 0.000000 0.000000 0.039640
#
#
# Mechanical properties :
#
#
# Convention : Reuss Voigt Hill
#
# Bulk Modulus (GPa) = 40.90281 49.07604 44.98943
# Shear Modulus (GPa) = 26.74731 28.28198 27.51464
#
# Velocity S-wave (km/s) = 3.85721 3.96632 3.91214
# Velocity P-wave (km/s) = 6.52605 6.94794 6.74030
#
# Compressibility (1/GPa) = 0.02444820
#
# Stress axis : x y z
#
# Youngs Moduli (GPa) = 82.01847 91.45977 51.80231
#
# Poissons Ratio (x) = 0.39488 0.00062
# Poissons Ratio (y) = 0.35412 0.24148
# Poissons Ratio (z) = 0.00098 0.42635
#
# Static dielectric constant tensor:
#      x y z
#    x 1.592600 0.000000 0.000000 
#    y 0.000000 1.613650 0.000000 
#    z 0.000000 0.000000 1.632400 
# 
# From -- ./inp_files/26917.got.cif
#   From: 2010.05.17/outbox.cif.g08.bks.cpg/sg20_14_cif.got.tgz:26917.got - 2010.06.03 22:52:26.
