data_PCOD9319625
_publ_section_title
;
Structure prediction by ZEFSAII (Michael W. Deem and Ramdas Pophale) SiO2 
 PCOD9319625
Probable space group: C 2 2 21
;
_chemical_formula_sum "Si O2"
_cell_formula_units_Z 60
_cell_length_a 27.009401
_cell_length_b 13.582217
_cell_length_c 7.792606
_cell_angle_alpha 90.000000
_cell_angle_beta 90.000000
_cell_angle_gamma 90.000000
_cell_volume 2858.698384
_symmetry_space_group_name_H-M "C 2 2 21"
_symmetry_group_IT_number 20
_symmetry_cell_setting 'orthorhombic'
loop_
_space_group_symop_operation_xyz
x,y,z
-x,-y,1/2+z
x,-y,-z
-x,y,1/2-z
1/2+x,1/2+y,z
1/2-x,1/2-y,1/2+z
1/2+x,1/2-y,-z
1/2-x,1/2+y,1/2-z
loop_
_atom_site_type_symbol
_atom_site_label
_atom_site_fract_x
_atom_site_fract_y
_atom_site_fract_z
Si Si1 0.414013 0.461859 0.817931
Si Si2 0.950032 0.587208 0.136344
Si Si3 0.261061 0.094825 0.688493
Si Si4 0.762081 0.702895 0.057910
Si Si5 0.973304 0.769301 0.920940
Si Si6 0.159313 0.551386 0.311587
Si Si7 0.810448 0.054685 0.324724
Si Si8 0.000000 0.883654 0.250000
O O1 0.441435 0.359541 0.849641
O O2 0.368430 0.444959 0.696195
O O3 0.452978 0.544242 0.759942
O O4 0.394263 0.500000 0.000000
O O5 0.898020 0.570723 0.235745
O O6 0.000000 0.595140 0.250000
O O7 0.957358 0.500000 0.000000
O O8 0.943938 0.685015 0.020634
O O9 0.245789 0.180210 0.556495
O O10 0.310517 0.026515 0.693216
O O11 0.217617 0.014461 0.691634
O O12 0.263092 0.156416 0.867909
O O13 0.808660 0.651937 0.158454
O O14 0.713801 0.660249 0.154622
O O15 0.000000 0.728632 0.750000
O O16 0.004550 0.819169 0.076802
O O17 0.157875 0.500000 0.500000
O O18 0.797465 0.000000 0.500000
#
# Coordination Sequence:
#
# PCOD9319625 Si02
#       8
#     8   8   8   8   8   8   8   4
#     4  10  22  36  60  88 123 164 207 247 322 388
#     4  11  23  43  64  89 125 169 223 279 321 379
#     4   9  18  36  57  85 115 155 202 253 315 374
#     4   9  18  35  57  82 114 152 197 247 307 376
#     4  11  23  40  64  94 124 172 218 263 330 390
#     4   8  18  37  62  80 116 167 202 249 321 378
#     4   9  20  34  52  83 117 153 196 250 307 370
#     4  10  22  42  60  90 130 174 208 272 322 394
#
# _framework density 20.988572000000001
#
# number of rings (size 3 to 8) (size 9 to 14) (size 15 to 20)
#    0.000    2.400    1.333    2.000    1.867    6.400 
#    0.000    3.333    0.000    0.000    0.000    0.000 
#    0.000    0.000    0.000    0.000    0.000    0.000 
#
# Total GULP energy -167232.981172 kJ/mol
# GULP energy per Si atom -5574.432706 kJ/mol
# Density = 2.094080 g / cm^3
# Si number density = 20.988572 Si / 1000 Ang^3
#
#
#
# Elastic Constant Matrix: (Units=GPa)
#
#
# Indices 1 2 3 4 5 6 
#
# 1 103.0056 10.5876 28.8892 0.0000 0.0000 0.0000
# 2 10.5876 87.9225 25.7402 0.0000 0.0000 0.0000
# 3 28.8892 25.7402 72.0471 0.0000 0.0000 0.0000
# 4 0.0000 0.0000 0.0000 38.4162 0.0000 0.0000
# 5 0.0000 0.0000 0.0000 0.0000 -0.6116 0.0000
# 6 0.0000 0.0000 0.0000 0.0000 0.0000 0.9077
#
#
#
# Elastic Compliance Matrix: (Units=1/GPa)
#
#
# Indices 1 2 3 4 5 6 
#
# 1 0.010938 -0.000037 -0.004373 0.000000 0.000000 0.000000
# 2 -0.000037 0.012702 -0.004523 0.000000 0.000000 0.000000
# 3 -0.004373 -0.004523 0.017249 0.000000 0.000000 0.000000
# 4 0.000000 0.000000 0.000000 0.026031 0.000000 0.000000
# 5 0.000000 0.000000 0.000000 0.000000 -1.635105 0.000000
# 6 0.000000 0.000000 0.000000 0.000000 0.000000 1.101626
#
#
# Mechanical properties :
#
#
# Convention : Reuss Voigt Hill
#
# Bulk Modulus (GPa) = 43.43348 43.71214 43.57281
# Shear Modulus (GPa) = -11.33742 20.92636 4.79447
#
# Velocity S-wave (km/s) = -2.32668 3.16101 1.51304
# Velocity P-wave (km/s) = 3.67707 5.84761 4.88443
#
# Compressibility (1/GPa) = 0.02302371
#
# Stress axis : x y z
#
# Youngs Moduli (GPa) = 91.42085 78.72557 57.97358
#
# Poissons Ratio (x) = 0.00291 0.25351
# Poissons Ratio (y) = 0.00338 0.26223
# Poissons Ratio (z) = 0.39977 0.35610
#
# Static dielectric constant tensor:
#      x y z
#    x 1.594260 0.000000 0.000000 
#    y 0.000000 1.774810 0.000000 
#    z 0.000000 0.000000 1.826330 
# 
# From -- ./inp_files/11146.got.cif
#   From: 2010.05.17/outbox.cif.g08.bks.cpg/sg20_6_cif.got.tgz:11146.got - 2010.06.03 22:52:26.
