data_PCOD9319870
_publ_section_title
;
Structure prediction by ZEFSAII (Michael W. Deem and Ramdas Pophale) SiO2 
 PCOD9319870
Probable space group: C 2 2 21
;
_chemical_formula_sum "Si O2"
_cell_formula_units_Z 48
_cell_length_a 32.388980
_cell_length_b 14.285841
_cell_length_c 5.438995
_cell_angle_alpha 90.000000
_cell_angle_beta 90.000000
_cell_angle_gamma 90.000000
_cell_volume 2516.643755
_symmetry_space_group_name_H-M "C 2 2 21"
_symmetry_group_IT_number 20
_symmetry_cell_setting 'orthorhombic'
loop_
_space_group_symop_operation_xyz
x,y,z
-x,-y,1/2+z
x,-y,-z
-x,y,1/2-z
1/2+x,1/2+y,z
1/2-x,1/2-y,1/2+z
1/2+x,1/2-y,-z
1/2-x,1/2+y,1/2-z
loop_
_atom_site_type_symbol
_atom_site_label
_atom_site_fract_x
_atom_site_fract_y
_atom_site_fract_z
Si Si1 0.643046 0.266751 0.992642
Si Si2 0.298202 0.671949 0.083726
Si Si3 0.345640 0.000000 0.000000
Si Si4 0.590967 0.096134 0.839247
Si Si5 0.710423 0.150109 0.276960
Si Si6 0.350601 0.556414 0.757386
Si Si7 0.000000 0.560626 0.750000
O O1 0.683773 0.211166 0.085145
O O2 0.627198 0.347082 0.177304
O O3 0.660753 0.318216 0.750056
O O4 0.608641 0.187970 0.966030
O O5 0.257504 0.632772 0.210233
O O6 0.288804 0.778482 0.006099
O O7 0.308033 0.602362 0.858173
O O8 0.376333 0.925919 0.124633
O O9 0.315634 0.056837 0.178865
O O10 0.543943 0.112288 0.757582
O O11 0.591532 0.000000 0.000000
O O12 0.346735 0.500000 0.500000
O O13 0.366219 0.500000 0.000000
O O14 0.001612 0.500000 0.500000
#
# Coordination Sequence:
#
# PCOD9319870 Si02
#       7
#     8   8   4   8   8   8   4
#     4  11  22  39  61  87 123 170 210 269 320 383
#     4  11  22  39  60  81 123 162 219 270 324 364
#     4  12  22  36  60  92 126 174 220 256 326 378
#     4  11  22  40  62  96 134 170 215 255 326 391
#     4  11  23  36  56  83 121 171 213 269 313 376
#     4  11  24  44  62  88 118 159 219 277 326 374
#     4  10  22  40  66  96 134 174 204 258 314 390
#
# _framework density 19.073022999999999
#
# number of rings (size 3 to 8) (size 9 to 14) (size 15 to 20)
#    0.000    1.000    7.500    0.000    0.000    1.333 
#    3.000    0.000    0.000    0.000    0.000    0.000 
#    5.000    0.000    0.000    0.000    0.000    0.000 
#
# Total GULP energy -133720.485969 kJ/mol
# GULP energy per Si atom -5571.686915 kJ/mol
# Density = 1.902961 g / cm^3
# Si number density = 19.073023 Si / 1000 Ang^3
#
#
#
# Elastic Constant Matrix: (Units=GPa)
#
#
# Indices 1 2 3 4 5 6 
#
# 1 112.0316 44.1674 27.5270 0.0000 0.0000 0.0000
# 2 44.1674 112.4177 46.4382 0.0000 0.0000 0.0000
# 3 27.5270 46.4382 88.2495 0.0000 0.0000 0.0000
# 4 0.0000 0.0000 0.0000 17.2403 0.0000 0.0000
# 5 0.0000 0.0000 0.0000 0.0000 17.6193 0.0000
# 6 0.0000 0.0000 0.0000 0.0000 0.0000 11.3547
#
#
#
# Elastic Compliance Matrix: (Units=1/GPa)
#
#
# Indices 1 2 3 4 5 6 
#
# 1 0.010703 -0.003611 -0.001438 0.000000 0.000000 0.000000
# 2 -0.003611 0.012584 -0.005496 0.000000 0.000000 0.000000
# 3 -0.001438 -0.005496 0.014672 0.000000 0.000000 0.000000
# 4 0.000000 0.000000 0.000000 0.058004 0.000000 0.000000
# 5 0.000000 0.000000 0.000000 0.000000 0.056756 0.000000
# 6 0.000000 0.000000 0.000000 0.000000 0.000000 0.088069
#
#
# Mechanical properties :
#
#
# Convention : Reuss Voigt Hill
#
# Bulk Modulus (GPa) = 59.27900 60.99601 60.13751
# Shear Modulus (GPa) = 18.69148 22.21394 20.45271
#
# Velocity S-wave (km/s) = 3.13388 3.41644 3.27821
# Velocity P-wave (km/s) = 6.65150 6.90018 6.77698
#
# Compressibility (1/GPa) = 0.01686938
#
# Stress axis : x y z
#
# Youngs Moduli (GPa) = 93.43142 79.46428 68.15649
#
# Poissons Ratio (x) = 0.28694 0.09804
# Poissons Ratio (y) = 0.33737 0.37457
# Poissons Ratio (z) = 0.13439 0.43671
#
# Static dielectric constant tensor:
#      x y z
#    x 1.624000 0.000000 0.000000 
#    y 0.000000 1.699070 0.000000 
#    z 0.000000 0.000000 1.806400 
# 
# From -- ./inp_files/4651.got.cif
#   From: 2010.05.17/outbox.cif.g08.bks.cpg/sg20_3_cif.got.tgz:4651.got - 2010.06.03 22:52:26.
