data_PCOD9319135
_publ_section_title
;
Structure prediction by ZEFSAII (Michael W. Deem and Ramdas Pophale) SiO2 
 PCOD9319135
Probable space group: C 2 2 21
;
_chemical_formula_sum "Si O2"
_cell_formula_units_Z 48
_cell_length_a 16.455385
_cell_length_b 11.142068
_cell_length_c 13.362589
_cell_angle_alpha 90.000000
_cell_angle_beta 90.000000
_cell_angle_gamma 90.000000
_cell_volume 2449.990854
_symmetry_space_group_name_H-M "C 2 2 21"
_symmetry_group_IT_number 20
_symmetry_cell_setting 'orthorhombic'
loop_
_space_group_symop_operation_xyz
x,y,z
-x,-y,1/2+z
x,-y,-z
-x,y,1/2-z
1/2+x,1/2+y,z
1/2-x,1/2-y,1/2+z
1/2+x,1/2-y,-z
1/2-x,1/2+y,1/2-z
loop_
_atom_site_type_symbol
_atom_site_label
_atom_site_fract_x
_atom_site_fract_y
_atom_site_fract_z
Si Si1 0.562114 0.231073 0.341279
Si Si2 0.143255 0.699913 0.640928
Si Si3 0.169171 0.764866 0.859605
Si Si4 0.701692 0.040941 0.387499
Si Si5 0.979459 0.634957 0.537056
Si Si6 0.817009 0.870674 0.048865
O O1 0.500000 0.235761 0.250000
O O2 0.634149 0.129353 0.338307
O O3 0.509550 0.196849 0.436745
O O4 0.609399 0.351584 0.373025
O O5 0.146419 0.773974 0.742834
O O6 0.202328 0.587690 0.664071
O O7 0.170069 0.776228 0.543641
O O8 0.055244 0.642134 0.614835
O O9 0.213620 0.888644 0.890297
O O10 0.091280 0.715274 0.917000
O O11 0.237290 0.667246 0.890846
O O12 0.676841 0.000000 0.500000
O O13 0.958092 0.500000 0.500000
O O14 0.812967 0.000000 0.000000
#
# Coordination Sequence:
#
# PCOD9319135 Si02
#       6
#     8   8   8   8   8   8
#     4  10  21  39  70  93 123 175 224 269 330 390
#     4  11  22  42  68  91 137 178 219 273 334 383
#     4  11  25  35  67 102 124 172 225 268 336 396
#     4  11  20  46  64  94 136 173 210 290 329 378
#     4  11  21  40  63 100 131 170 226 281 316 394
#     4  10  23  45  61  92 139 172 211 282 335 384
#
# _framework density 19.591911
#
# number of rings (size 3 to 8) (size 9 to 14) (size 15 to 20)
#    0.000    1.333    6.667    1.000    4.667    2.667 
#    0.000    6.667    0.000    0.000    0.000    0.000 
#    0.000    0.000    0.000    0.000    0.000    0.000 
#
# Total GULP energy -133732.154379 kJ/mol
# GULP energy per Si atom -5572.173099 kJ/mol
# Density = 1.954732 g / cm^3
# Si number density = 19.591911 Si / 1000 Ang^3
#
#
#
# Elastic Constant Matrix: (Units=GPa)
#
#
# Indices 1 2 3 4 5 6 
#
# 1 93.4483 40.4536 33.4955 0.0000 0.0000 0.0000
# 2 40.4536 89.5654 14.8392 0.0000 0.0000 0.0000
# 3 33.4955 14.8392 71.0311 0.0000 0.0000 0.0000
# 4 0.0000 0.0000 0.0000 19.1176 0.0000 0.0000
# 5 0.0000 0.0000 0.0000 0.0000 24.6861 0.0000
# 6 0.0000 0.0000 0.0000 0.0000 0.0000 22.1002
#
#
#
# Elastic Compliance Matrix: (Units=1/GPa)
#
#
# Indices 1 2 3 4 5 6 
#
# 1 0.015454 -0.005980 -0.006038 0.000000 0.000000 0.000000
# 2 -0.005980 0.013879 -0.000080 0.000000 0.000000 0.000000
# 3 -0.006038 -0.000080 0.016942 0.000000 0.000000 0.000000
# 4 0.000000 0.000000 0.000000 0.052308 0.000000 0.000000
# 5 0.000000 0.000000 0.000000 0.000000 0.040509 0.000000
# 6 0.000000 0.000000 0.000000 0.000000 0.000000 0.045249
#
#
# Mechanical properties :
#
#
# Convention : Reuss Voigt Hill
#
# Bulk Modulus (GPa) = 45.28952 47.95794 46.62373
# Shear Modulus (GPa) = 23.15933 24.19788 23.67860
#
# Velocity S-wave (km/s) = 3.44188 3.51821 3.48025
# Velocity P-wave (km/s) = 6.24195 6.40588 6.32445
#
# Compressibility (1/GPa) = 0.02208016
#
# Stress axis : x y z
#
# Youngs Moduli (GPa) = 64.70801 72.05115 59.02338
#
# Poissons Ratio (x) = 0.43084 0.35640
# Poissons Ratio (y) = 0.38693 0.00471
# Poissons Ratio (z) = 0.39073 0.00574
#
# Static dielectric constant tensor:
#      x y z
#    x 1.719840 0.000000 0.000000 
#    y 0.000000 1.797110 0.000000 
#    z 0.000000 0.000000 1.706730 
# 
# From -- ./inp_files/20665.got.cif
#   From: 2010.05.17/outbox.cif.g08.bks.cpg/sg20_11_cif.got.tgz:20665.got - 2010.06.03 22:52:26.
