data_PCOD9319758
_publ_section_title
;
Structure prediction by ZEFSAII (Michael W. Deem and Ramdas Pophale) SiO2 
 PCOD9319758
Probable space group: C 2 2 21
;
_chemical_formula_sum "Si O2"
_cell_formula_units_Z 48
_cell_length_a 18.861430
_cell_length_b 8.449317
_cell_length_c 13.246145
_cell_angle_alpha 90.000000
_cell_angle_beta 90.000000
_cell_angle_gamma 90.000000
_cell_volume 2110.987808
_symmetry_space_group_name_H-M "C 2 2 21"
_symmetry_group_IT_number 20
_symmetry_cell_setting 'orthorhombic'
loop_
_space_group_symop_operation_xyz
x,y,z
-x,-y,1/2+z
x,-y,-z
-x,y,1/2-z
1/2+x,1/2+y,z
1/2-x,1/2-y,1/2+z
1/2+x,1/2-y,-z
1/2-x,1/2+y,1/2-z
loop_
_atom_site_type_symbol
_atom_site_label
_atom_site_fract_x
_atom_site_fract_y
_atom_site_fract_z
Si Si1 0.662989 0.404732 0.409746
Si Si2 0.740827 0.679920 0.970247
Si Si3 0.363374 0.706457 0.371585
Si Si4 0.075454 0.887466 0.203264
Si Si5 0.736703 0.128236 0.215809
Si Si6 0.079239 0.535689 0.202198
O O1 0.623988 0.500000 0.500000
O O2 0.693021 0.258145 0.472508
O O3 0.621022 0.374300 0.307560
O O4 0.729332 0.508248 0.367127
O O5 0.670796 0.747610 0.021990
O O6 0.742634 0.500000 0.000000
O O7 0.732889 0.712523 0.852204
O O8 0.402157 0.536925 0.364262
O O9 0.295075 0.671715 0.298856
O O10 0.408871 0.859828 0.342118
O O11 0.072670 0.712800 0.153436
O O12 0.000000 0.927220 0.250000
O O13 0.659930 0.062597 0.249842
O O14 0.000000 0.524770 0.250000
#
# Coordination Sequence:
#
# PCOD9319758 Si02
#       6
#     8   8   8   8   8   8
#     4   9  19  38  60  90 129 168 215 288 335 384
#     4  11  22  35  64 102 125 167 225 278 338 397
#     4  11  23  41  68  95 132 176 227 278 333 400
#     4  10  22  40  62  93 131 176 224 273 339 407
#     4  10  22  39  63  95 131 168 221 280 328 391
#     4  11  23  39  65  95 131 172 218 277 342 398
#
# _framework density 22.738171000000001
#
# number of rings (size 3 to 8) (size 9 to 14) (size 15 to 20)
#    0.000    1.667    1.667    2.500    7.000    0.000 
#    0.000    4.167    0.000   16.000    0.000    0.000 
#    0.000    0.000    0.000    0.000    0.000    0.000 
#
# Total GULP energy -133607.454381 kJ/mol
# GULP energy per Si atom -5566.977266 kJ/mol
# Density = 2.268642 g / cm^3
# Si number density = 22.738171 Si / 1000 Ang^3
#
#
#
# Elastic Constant Matrix: (Units=GPa)
#
#
# Indices 1 2 3 4 5 6 
#
# 1 100.0479 17.6884 17.7514 0.0000 0.0000 0.0000
# 2 17.6884 122.6458 6.3504 0.0000 0.0000 0.0000
# 3 17.7514 6.3504 76.2803 0.0000 0.0000 0.0000
# 4 0.0000 0.0000 0.0000 19.8355 0.0000 0.0000
# 5 0.0000 0.0000 0.0000 0.0000 25.0674 0.0000
# 6 0.0000 0.0000 0.0000 0.0000 0.0000 38.2976
#
#
#
# Elastic Compliance Matrix: (Units=1/GPa)
#
#
# Indices 1 2 3 4 5 6 
#
# 1 0.010665 -0.001416 -0.002364 0.000000 0.000000 0.000000
# 2 -0.001416 0.008377 -0.000368 0.000000 0.000000 0.000000
# 3 -0.002364 -0.000368 0.013690 0.000000 0.000000 0.000000
# 4 0.000000 0.000000 0.000000 0.050415 0.000000 0.000000
# 5 0.000000 0.000000 0.000000 0.000000 0.039892 0.000000
# 6 0.000000 0.000000 0.000000 0.000000 0.000000 0.026111
#
#
# Mechanical properties :
#
#
# Convention : Reuss Voigt Hill
#
# Bulk Modulus (GPa) = 40.92198 42.50604 41.71401
# Shear Modulus (GPa) = 30.19480 33.78568 31.99024
#
# Velocity S-wave (km/s) = 3.64804 3.85886 3.75493
# Velocity P-wave (km/s) = 5.98167 6.21198 6.09791
#
# Compressibility (1/GPa) = 0.02443675
#
# Stress axis : x y z
#
# Youngs Moduli (GPa) = 93.76498 119.37748 73.04434
#
# Poissons Ratio (x) = 0.16901 0.17268
# Poissons Ratio (y) = 0.13275 0.02687
# Poissons Ratio (z) = 0.22166 0.04392
#
# Static dielectric constant tensor:
#      x y z
#    x 1.893330 0.000000 0.000000 
#    y 0.000000 1.940700 0.000000 
#    z 0.000000 0.000000 1.916210 
# 
# From -- ./inp_files/21283.got.cif
#   From: 2010.05.17/outbox.cif.g08.bks.cpg/sg20_11_cif.got.tgz:21283.got - 2010.06.03 22:52:26.
