data_PCOD9319447
_publ_section_title
;
Structure prediction by ZEFSAII (Michael W. Deem and Ramdas Pophale) SiO2 
 PCOD9319447
Probable space group: C 2 2 21
;
_chemical_formula_sum "Si O2"
_cell_formula_units_Z 40
_cell_length_a 14.382380
_cell_length_b 15.428000
_cell_length_c 8.057375
_cell_angle_alpha 90.000000
_cell_angle_beta 90.000000
_cell_angle_gamma 90.000000
_cell_volume 1787.861886
_symmetry_space_group_name_H-M "C 2 2 21"
_symmetry_group_IT_number 20
_symmetry_cell_setting 'orthorhombic'
loop_
_space_group_symop_operation_xyz
x,y,z
-x,-y,1/2+z
x,-y,-z
-x,y,1/2-z
1/2+x,1/2+y,z
1/2-x,1/2-y,1/2+z
1/2+x,1/2-y,-z
1/2-x,1/2+y,1/2-z
loop_
_atom_site_type_symbol
_atom_site_label
_atom_site_fract_x
_atom_site_fract_y
_atom_site_fract_z
Si Si1 0.787733 0.738005 0.050595
Si Si2 0.321511 0.938276 0.140364
Si Si3 0.334616 0.580194 0.896401
Si Si4 0.500000 0.661189 0.750000
Si Si5 0.000000 0.456307 0.750000
Si Si6 0.893033 0.297181 0.598326
O O1 0.828022 0.831612 0.999569
O O2 0.830152 0.716326 0.232846
O O3 0.815885 0.658127 0.934574
O O4 0.677898 0.763038 0.042055
O O5 0.262368 0.940013 0.308197
O O6 0.421445 0.981055 0.174874
O O7 0.276859 0.000000 0.000000
O O8 0.410322 0.602684 0.759895
O O9 0.366215 0.500000 0.000000
O O10 0.477509 0.728879 0.603619
O O11 0.056878 0.390747 0.875727
#
# Coordination Sequence:
#
# PCOD9319447 Si02
#       6
#     8   8   8   4   4   8
#     4  11  21  45  65  98 137 185 222 284 357 423
#     4  12  25  44  69 105 140 182 236 296 363 419
#     4  11  25  44  70  99 136 185 240 286 356 427
#     4   9  20  42  61  92 130 180 225 282 345 414
#     4  11  24  40  67 106 140 182 237 300 349 412
#     4  10  21  42  70  92 142 184 229 285 356 420
#
# _framework density 22.373092
#
# number of rings (size 3 to 8) (size 9 to 14) (size 15 to 20)
#    0.000    1.200    6.000    1.200    0.000    3.200 
#    0.000    1.000    0.000    0.000    0.000    0.000 
#    0.000    0.000    0.000    0.000    0.000    0.000 
#
# Total GULP energy -111448.386829 kJ/mol
# GULP energy per Si atom -5572.419341 kJ/mol
# Density = 2.232217 g / cm^3
# Si number density = 22.373092 Si / 1000 Ang^3
#
#
#
# Elastic Constant Matrix: (Units=GPa)
#
#
# Indices 1 2 3 4 5 6 
#
# 1 128.0926 40.0594 10.1248 0.0000 0.0000 0.0000
# 2 40.0594 150.2469 9.9231 0.0000 0.0000 0.0000
# 3 10.1248 9.9231 21.5073 0.0000 0.0000 0.0000
# 4 0.0000 0.0000 0.0000 17.2759 0.0000 0.0000
# 5 0.0000 0.0000 0.0000 0.0000 31.4771 0.0000
# 6 0.0000 0.0000 0.0000 0.0000 0.0000 44.7679
#
#
#
# Elastic Compliance Matrix: (Units=1/GPa)
#
#
# Indices 1 2 3 4 5 6 
#
# 1 0.008716 -0.002117 -0.003126 0.000000 0.000000 0.000000
# 2 -0.002117 0.007379 -0.002408 0.000000 0.000000 0.000000
# 3 -0.003126 -0.002408 0.049079 0.000000 0.000000 0.000000
# 4 0.000000 0.000000 0.000000 0.057884 0.000000 0.000000
# 5 0.000000 0.000000 0.000000 0.000000 0.031769 0.000000
# 6 0.000000 0.000000 0.000000 0.000000 0.000000 0.022337
#
#
# Mechanical properties :
#
#
# Convention : Reuss Voigt Hill
#
# Bulk Modulus (GPa) = 20.05182 46.67350 33.36266
# Shear Modulus (GPa) = 23.91297 34.68682 29.29989
#
# Velocity S-wave (km/s) = 3.27284 3.94176 3.62277
# Velocity P-wave (km/s) = 4.82327 6.45162 5.69593
#
# Compressibility (1/GPa) = 0.04987078
#
# Stress axis : x y z
#
# Youngs Moduli (GPa) = 114.72922 135.51405 20.37551
#
# Poissons Ratio (x) = 0.28695 0.06370
# Poissons Ratio (y) = 0.24294 0.04906
# Poissons Ratio (z) = 0.35867 0.32630
#
# Static dielectric constant tensor:
#      x y z
#    x 1.906860 0.000000 0.000000 
#    y 0.000000 1.821370 0.000000 
#    z 0.000000 0.000000 1.946270 
# 
# From -- ./inp_files/8148.got.cif
#   From: 2010.05.17/outbox.cif.g08.bks.cpg/sg20_5_cif.got.tgz:8148.got - 2010.06.03 22:52:26.
