data_PCOD9319459
_publ_section_title
;
Structure prediction by ZEFSAII (Michael W. Deem and Ramdas Pophale) SiO2 
 PCOD9319459
Probable space group: C 2 2 21
;
_chemical_formula_sum "Si O2"
_cell_formula_units_Z 60
_cell_length_a 11.308519
_cell_length_b 14.486222
_cell_length_c 18.126527
_cell_angle_alpha 90.000000
_cell_angle_beta 90.000000
_cell_angle_gamma 90.000000
_cell_volume 2969.446265
_symmetry_space_group_name_H-M "C 2 2 21"
_symmetry_group_IT_number 20
_symmetry_cell_setting 'orthorhombic'
loop_
_space_group_symop_operation_xyz
x,y,z
-x,-y,1/2+z
x,-y,-z
-x,y,1/2-z
1/2+x,1/2+y,z
1/2-x,1/2-y,1/2+z
1/2+x,1/2-y,-z
1/2-x,1/2+y,1/2-z
loop_
_atom_site_type_symbol
_atom_site_label
_atom_site_fract_x
_atom_site_fract_y
_atom_site_fract_z
Si Si1 0.000000 0.034171 0.250000
Si Si2 0.569046 0.306652 0.851845
Si Si3 0.266264 0.227856 0.243422
Si Si4 0.593961 0.074383 0.560908
Si Si5 0.302789 0.268447 0.906322
Si Si6 0.200831 0.916380 0.316199
Si Si7 0.169078 0.340425 0.045762
Si Si8 0.125050 0.466586 0.713636
O O1 0.088235 0.978528 0.301473
O O2 0.069508 0.095150 0.189286
O O3 0.630536 0.250632 0.783664
O O4 0.435396 0.297027 0.880886
O O5 0.645907 0.261723 0.918050
O O6 0.270461 0.222842 0.331006
O O7 0.334051 0.316108 0.214454
O O8 0.310960 0.132832 0.207922
O O9 0.678656 0.163412 0.566618
O O10 0.460767 0.112078 0.543438
O O11 0.628712 0.000000 0.500000
O O12 0.601801 0.020802 0.638170
O O13 0.238433 0.326978 0.969564
O O14 0.251246 0.899638 0.397683
O O15 0.300869 0.965876 0.266846
O O16 0.000000 0.446576 0.750000
#
# Coordination Sequence:
#
# PCOD9319459 Si02
#       8
#     4   8   8   8   8   8   8   8
#     4  12  22  42  70  98 132 176 242 284 338 410
#     4  10  21  42  73  93 124 184 234 278 343 412
#     4  11  23  42  72  99 134 178 239 289 343 407
#     4  11  26  41  66 101 138 175 231 289 348 417
#     4  11  22  44  69  98 135 183 226 283 355 414
#     4  11  24  43  67 101 134 178 237 289 338 418
#     4  10  25  43  66  97 139 178 227 284 352 420
#     4  12  24  43  72 102 134 183 238 290 341 409
#
# _framework density 20.205787999999998
#
# number of rings (size 3 to 8) (size 9 to 14) (size 15 to 20)
#    0.000    1.067    5.333    0.000    6.533    1.067 
#    4.800    0.000    2.933    0.000    0.000    0.000 
#    0.000    0.000    0.000    0.000    0.000    0.000 
#
# Total GULP energy -167165.173601 kJ/mol
# GULP energy per Si atom -5572.172453 kJ/mol
# Density = 2.015980 g / cm^3
# Si number density = 20.205788 Si / 1000 Ang^3
#
#
#
# Elastic Constant Matrix: (Units=GPa)
#
#
# Indices 1 2 3 4 5 6 
#
# 1 54.8302 24.3903 7.3619 0.0000 0.0000 0.0000
# 2 24.3903 98.0203 7.8139 0.0000 0.0000 0.0000
# 3 7.3619 7.8139 77.2858 0.0000 0.0000 0.0000
# 4 0.0000 0.0000 0.0000 32.4161 0.0000 0.0000
# 5 0.0000 0.0000 0.0000 0.0000 28.0729 0.0000
# 6 0.0000 0.0000 0.0000 0.0000 0.0000 22.8273
#
#
#
# Elastic Compliance Matrix: (Units=1/GPa)
#
#
# Indices 1 2 3 4 5 6 
#
# 1 0.020670 -0.005027 -0.001461 0.000000 0.000000 0.000000
# 2 -0.005027 0.011507 -0.000685 0.000000 0.000000 0.000000
# 3 -0.001461 -0.000685 0.013147 0.000000 0.000000 0.000000
# 4 0.000000 0.000000 0.000000 0.030849 0.000000 0.000000
# 5 0.000000 0.000000 0.000000 0.000000 0.035622 0.000000
# 6 0.000000 0.000000 0.000000 0.000000 0.000000 0.043807
#
#
# Mechanical properties :
#
#
# Convention : Reuss Voigt Hill
#
# Bulk Modulus (GPa) = 32.27827 34.36316 33.32071
# Shear Modulus (GPa) = 27.73554 29.36795 28.55174
#
# Velocity S-wave (km/s) = 3.70895 3.81654 3.76313
# Velocity P-wave (km/s) = 5.86099 6.03861 5.95046
#
# Compressibility (1/GPa) = 0.03098060
#
# Stress axis : x y z
#
# Youngs Moduli (GPa) = 48.37832 86.90070 76.06095
#
# Poissons Ratio (x) = 0.43685 0.11111
# Poissons Ratio (y) = 0.24320 0.05207
# Poissons Ratio (z) = 0.07067 0.05949
#
# Static dielectric constant tensor:
#      x y z
#    x 1.833940 0.000000 0.000000 
#    y 0.000000 1.769230 0.000000 
#    z 0.000000 0.000000 1.719600 
# 
# From -- ./inp_files/24407.got.cif
#   From: 2010.05.17/outbox.cif.g08.bks.cpg/sg20_13_cif.got.tgz:24407.got - 2010.06.03 22:52:26.
