data_PCOD9319220
_publ_section_title
;
Structure prediction by ZEFSAII (Michael W. Deem and Ramdas Pophale) SiO2 
 PCOD9319220
Probable space group: C 2 2 21
;
_chemical_formula_sum "Si O2"
_cell_formula_units_Z 40
_cell_length_a 15.688594
_cell_length_b 8.952059
_cell_length_c 11.375388
_cell_angle_alpha 90.000000
_cell_angle_beta 90.000000
_cell_angle_gamma 90.000000
_cell_volume 1597.618860
_symmetry_space_group_name_H-M "C 2 2 21"
_symmetry_group_IT_number 20
_symmetry_cell_setting 'orthorhombic'
loop_
_space_group_symop_operation_xyz
x,y,z
-x,-y,1/2+z
x,-y,-z
-x,y,1/2-z
1/2+x,1/2+y,z
1/2-x,1/2-y,1/2+z
1/2+x,1/2-y,-z
1/2-x,1/2+y,1/2-z
loop_
_atom_site_type_symbol
_atom_site_label
_atom_site_fract_x
_atom_site_fract_y
_atom_site_fract_z
Si Si1 0.843702 0.769554 0.581518
Si Si2 0.549926 0.000000 0.500000
Si Si3 0.832132 0.042377 0.749691
Si Si4 0.718793 0.500000 0.500000
Si Si5 0.422387 0.791386 0.650929
Si Si6 0.643765 0.083129 0.723358
O O1 0.820167 0.918041 0.649472
O O2 0.776350 0.644580 0.533523
O O3 0.891334 0.799579 0.462016
O O4 0.901368 0.685911 0.679272
O O5 0.495924 0.892206 0.588272
O O6 0.608641 0.912396 0.407115
O O7 0.831701 0.971692 0.879893
O O8 0.911007 0.156498 0.743849
O O9 0.742595 0.131030 0.730909
O O10 0.366845 0.919698 0.716832
#
# Coordination Sequence:
#
# PCOD9319220 Si02
#       6
#     8   4   8   4   8   8
#     4  11  21  41  71 106 151 186 247 312 375 425
#     4  12  27  44  80 104 152 209 252 294 383 478
#     4  11  25  41  77 116 149 188 251 331 378 422
#     4  10  21  40  66 114 156 187 248 314 373 454
#     4  12  23  46  69 106 154 191 244 319 376 440
#     4  11  23  44  74 103 146 203 255 291 371 470
#
# _framework density 25.037261000000001
#
# number of rings (size 3 to 8) (size 9 to 14) (size 15 to 20)
#    0.000    0.800    6.000    3.600    2.800    1.600 
#    0.000    0.000   17.600    0.000    0.000    0.000 
#    0.000    0.000    0.000    0.000    0.000    0.000 
#
# Total GULP energy -111369.878367 kJ/mol
# GULP energy per Si atom -5568.493918 kJ/mol
# Density = 2.498028 g / cm^3
# Si number density = 25.037261 Si / 1000 Ang^3
#
#
#
# Elastic Constant Matrix: (Units=GPa)
#
#
# Indices 1 2 3 4 5 6 
#
# 1 86.1913 27.0267 44.2644 0.0000 0.0000 0.0000
# 2 27.0267 93.2633 21.1030 0.0000 0.0000 0.0000
# 3 44.2644 21.1030 113.3856 0.0000 0.0000 0.0000
# 4 0.0000 0.0000 0.0000 45.3574 0.0000 0.0000
# 5 0.0000 0.0000 0.0000 0.0000 40.3832 0.0000
# 6 0.0000 0.0000 0.0000 0.0000 0.0000 -3.6639
#
#
#
# Elastic Compliance Matrix: (Units=1/GPa)
#
#
# Indices 1 2 3 4 5 6 
#
# 1 0.015394 -0.003238 -0.005407 0.000000 0.000000 0.000000
# 2 -0.003238 0.011875 -0.000946 0.000000 0.000000 0.000000
# 3 -0.005407 -0.000946 0.011106 0.000000 0.000000 0.000000
# 4 0.000000 0.000000 0.000000 0.022047 0.000000 0.000000
# 5 0.000000 0.000000 0.000000 0.000000 0.024763 0.000000
# 6 0.000000 0.000000 0.000000 0.000000 0.000000 -0.272931
#
#
# Mechanical properties :
#
#
# Convention : Reuss Voigt Hill
#
# Bulk Modulus (GPa) = 52.10095 53.06983 52.58539
# Shear Modulus (GPa) = -30.83256 29.77840 -0.52708
#
# Velocity S-wave (km/s) = -3.51303 3.45246 -0.45932
# Velocity P-wave (km/s) = 2.09746 6.09385 4.55710
#
# Compressibility (1/GPa) = 0.01919351
#
# Stress axis : x y z
#
# Youngs Moduli (GPa) = 64.95955 84.21311 90.03780
#
# Poissons Ratio (x) = 0.27265 0.48685
# Poissons Ratio (y) = 0.21031 0.08519
# Poissons Ratio (z) = 0.35125 0.07968
#
# Static dielectric constant tensor:
#      x y z
#    x 2.143600 0.000000 0.000000 
#    y 0.000000 2.031540 0.000000 
#    z 0.000000 0.000000 2.092870 
# 
# From -- ./inp_files/15599.got.cif
#   From: 2010.05.17/outbox.cif.g08.bks.cpg/sg20_8_cif.got.tgz:15599.got - 2010.06.03 22:52:26.
