data_PCOD9319694
_publ_section_title
;
Structure prediction by ZEFSAII (Michael W. Deem and Ramdas Pophale) SiO2 
 PCOD9319694
Probable space group: C 2 2 21
;
_chemical_formula_sum "Si O2"
_cell_formula_units_Z 60
_cell_length_a 9.103711
_cell_length_b 27.619603
_cell_length_c 11.673154
_cell_angle_alpha 90.000000
_cell_angle_beta 90.000000
_cell_angle_gamma 90.000000
_cell_volume 2935.108157
_symmetry_space_group_name_H-M "C 2 2 21"
_symmetry_group_IT_number 20
_symmetry_cell_setting 'orthorhombic'
loop_
_space_group_symop_operation_xyz
x,y,z
-x,-y,1/2+z
x,-y,-z
-x,y,1/2-z
1/2+x,1/2+y,z
1/2-x,1/2-y,1/2+z
1/2+x,1/2-y,-z
1/2-x,1/2+y,1/2-z
loop_
_atom_site_type_symbol
_atom_site_label
_atom_site_fract_x
_atom_site_fract_y
_atom_site_fract_z
Si Si1 0.129973 0.850074 0.939909
Si Si2 0.585001 0.451404 0.859713
Si Si3 0.920991 0.301196 0.849143
Si Si4 0.345024 0.500000 0.000000
Si Si5 0.822205 0.485530 0.254288
Si Si6 0.992534 0.746938 0.928455
Si Si7 0.343263 0.388331 0.303342
Si Si8 0.265828 0.216893 0.753444
O O1 0.101527 0.894030 0.854275
O O2 0.287198 0.829122 0.905475
O O3 0.018398 0.804612 0.936457
O O4 0.137567 0.874331 0.064196
O O5 0.500000 0.471273 0.750000
O O6 0.740848 0.478761 0.839305
O O7 0.468844 0.460071 0.963518
O O8 0.855057 0.255228 0.782479
O O9 0.000000 0.331347 0.750000
O O10 0.014893 0.279506 0.951873
O O11 0.243768 0.492661 0.114480
O O12 0.770512 0.431648 0.217332
O O13 0.000000 0.490665 0.250000
O O14 0.835433 0.732390 0.875135
O O15 0.108791 0.725530 0.840147
O O16 0.500000 0.402320 0.250000
O O17 0.289070 0.337708 0.249559
#
# Coordination Sequence:
#
# PCOD9319694 Si02
#       8
#     8   8   8   4   8   8   8   8
#     4  11  23  38  65  93 129 181 225 282 353 405
#     4  10  22  42  68  94 133 178 233 278 346 442
#     4  11  23  38  59  90 130 175 223 286 349 412
#     4  10  22  48  70 104 132 186 226 298 354 428
#     4  11  26  44  73 105 145 178 233 306 372 425
#     4  10  22  40  58  91 132 174 229 291 340 412
#     4  12  23  42  69 101 130 184 240 287 353 433
#     4  10  22  38  63  85 132 172 234 281 348 413
#
# _framework density 20.442177000000001
#
# number of rings (size 3 to 8) (size 9 to 14) (size 15 to 20)
#    0.000    1.333    1.333    4.800    7.467    2.133 
#    0.000    4.000    0.000    0.000    0.000    0.000 
#    0.000    0.000    0.000    0.000    0.000    0.000 
#
# Total GULP energy -167226.189750 kJ/mol
# GULP energy per Si atom -5574.206325 kJ/mol
# Density = 2.039565 g / cm^3
# Si number density = 20.442177 Si / 1000 Ang^3
#
#
#
# Elastic Constant Matrix: (Units=GPa)
#
#
# Indices 1 2 3 4 5 6 
#
# 1 127.2048 37.8253 41.4571 0.0000 0.0000 0.0000
# 2 37.8253 90.4536 21.5268 0.0000 0.0000 0.0000
# 3 41.4571 21.5268 112.4436 0.0000 0.0000 0.0000
# 4 0.0000 0.0000 0.0000 34.3531 0.0000 0.0000
# 5 0.0000 0.0000 0.0000 0.0000 22.7087 0.0000
# 6 0.0000 0.0000 0.0000 0.0000 0.0000 241.3419
#
#
#
# Elastic Compliance Matrix: (Units=1/GPa)
#
#
# Indices 1 2 3 4 5 6 
#
# 1 0.009845 -0.003408 -0.002977 0.000000 0.000000 0.000000
# 2 -0.003408 0.012763 -0.001187 0.000000 0.000000 0.000000
# 3 -0.002977 -0.001187 0.010218 0.000000 0.000000 0.000000
# 4 0.000000 0.000000 0.000000 0.029109 0.000000 0.000000
# 5 0.000000 0.000000 0.000000 0.000000 0.044036 0.000000
# 6 0.000000 0.000000 0.000000 0.000000 0.000000 0.004143
#
#
# Mechanical properties :
#
#
# Convention : Reuss Voigt Hill
#
# Bulk Modulus (GPa) = 56.55618 59.08006 57.81812
# Shear Modulus (GPa) = 38.12299 74.96693 56.54496
#
# Velocity S-wave (km/s) = 4.32315 6.06237 5.26507
# Velocity P-wave (km/s) = 7.25576 8.82988 8.08124
#
# Compressibility (1/GPa) = 0.01768153
#
# Stress axis : x y z
#
# Youngs Moduli (GPa) = 101.57235 78.35062 97.86391
#
# Poissons Ratio (x) = 0.26705 0.29137
# Poissons Ratio (y) = 0.34620 0.11614
# Poissons Ratio (z) = 0.30241 0.09298
#
# Static dielectric constant tensor:
#      x y z
#    x 1.737100 0.000000 0.000000 
#    y 0.000000 1.711470 0.000000 
#    z 0.000000 0.000000 1.223540 
# 
# From -- ./inp_files/13284.got.cif
#   From: 2010.05.17/outbox.cif.g08.bks.cpg/sg20_7_cif.got.tgz:13284.got - 2010.06.03 22:52:26.
