data_PCOD9319396
_publ_section_title
;
Structure prediction by ZEFSAII (Michael W. Deem and Ramdas Pophale) SiO2 
 PCOD9319396
Probable space group: C 2 2 21
;
_chemical_formula_sum "Si O2"
_cell_formula_units_Z 56
_cell_length_a 9.454681
_cell_length_b 20.353763
_cell_length_c 14.759136
_cell_angle_alpha 90.000000
_cell_angle_beta 90.000000
_cell_angle_gamma 90.000000
_cell_volume 2840.223577
_symmetry_space_group_name_H-M "C 2 2 21"
_symmetry_group_IT_number 20
_symmetry_cell_setting 'orthorhombic'
loop_
_space_group_symop_operation_xyz
x,y,z
-x,-y,1/2+z
x,-y,-z
-x,y,1/2-z
1/2+x,1/2+y,z
1/2-x,1/2-y,1/2+z
1/2+x,1/2-y,-z
1/2-x,1/2+y,1/2-z
loop_
_atom_site_type_symbol
_atom_site_label
_atom_site_fract_x
_atom_site_fract_y
_atom_site_fract_z
Si Si1 0.296348 0.478705 0.598450
Si Si2 0.987097 0.138512 0.352108
Si Si3 0.441495 0.880137 0.970253
Si Si4 0.666372 0.288873 0.245570
Si Si5 0.123348 0.598703 0.674692
Si Si6 0.704256 0.171771 0.107044
Si Si7 0.735808 0.737068 0.065757
O O1 0.357790 0.500000 0.500000
O O2 0.407699 0.431222 0.647200
O O3 0.164306 0.433778 0.569268
O O4 0.230733 0.537566 0.657438
O O5 0.894124 0.189247 0.409967
O O6 0.000000 0.164242 0.250000
O O7 0.145275 0.137121 0.387817
O O8 0.582561 0.880308 0.911930
O O9 0.367824 0.809808 0.955726
O O10 0.453177 0.890492 0.077690
O O11 0.500000 0.308331 0.250000
O O12 0.772483 0.340074 0.197141
O O13 0.676392 0.218828 0.193187
O O14 0.724097 0.279143 0.346717
O O15 0.000000 0.590564 0.750000
O O16 0.702376 0.219139 0.020137
#
# Coordination Sequence:
#
# PCOD9319396 Si02
#       7
#     8   8   8   8   8   8   8
#     4   9  23  46  66  85 124 178 220 270 333 383
#     4  11  24  40  66  96 129 174 222 272 327 393
#     4  10  21  42  65  90 129 175 214 264 334 393
#     4  12  25  38  63 100 132 168 218 270 337 402
#     4  11  24  44  66  93 131 176 225 278 331 400
#     4  12  23  38  64 100 132 164 216 269 330 397
#     4  11  22  39  60  95 138 169 204 267 336 397
#
# _framework density 19.716759
#
# number of rings (size 3 to 8) (size 9 to 14) (size 15 to 20)
#    0.000    1.143    4.286    1.714    2.000    1.714 
#    0.000    3.571    0.000    0.000    0.000    0.000 
#    0.000    0.000    0.000    0.000    0.000    0.000 
#
# Total GULP energy -156436.985391 kJ/mol
# GULP energy per Si atom -5587.035193 kJ/mol
# Density = 1.967188 g / cm^3
# Si number density = 19.716759 Si / 1000 Ang^3
#
#
#
# Elastic Constant Matrix: (Units=GPa)
#
#
# Indices 1 2 3 4 5 6 
#
# 1 101.6275 10.9960 25.8701 0.0000 0.0000 0.0000
# 2 10.9960 43.1108 1.5326 0.0000 0.0000 0.0000
# 3 25.8701 1.5326 54.8949 0.0000 0.0000 0.0000
# 4 0.0000 0.0000 0.0000 15.5334 0.0000 0.0000
# 5 0.0000 0.0000 0.0000 0.0000 33.3055 0.0000
# 6 0.0000 0.0000 0.0000 0.0000 0.0000 -3.1635
#
#
#
# Elastic Compliance Matrix: (Units=1/GPa)
#
#
# Indices 1 2 3 4 5 6 
#
# 1 0.011496 -0.002742 -0.005341 0.000000 0.000000 0.000000
# 2 -0.002742 0.023873 0.000626 0.000000 0.000000 0.000000
# 3 -0.005341 0.000626 0.020716 0.000000 0.000000 0.000000
# 4 0.000000 0.000000 0.000000 0.064377 0.000000 0.000000
# 5 0.000000 0.000000 0.000000 0.000000 0.030025 0.000000
# 6 0.000000 0.000000 0.000000 0.000000 0.000000 -0.316107
#
#
# Mechanical properties :
#
#
# Convention : Reuss Voigt Hill
#
# Bulk Modulus (GPa) = 24.28932 30.71450 27.50191
# Shear Modulus (GPa) = -36.50176 19.88405 -8.30886
#
# Velocity S-wave (km/s) = -4.30735 3.17911 -2.05506
# Velocity P-wave (km/s) = 3.52020 5.39327 2.88925
#
# Compressibility (1/GPa) = 0.04117036
#
# Stress axis : x y z
#
# Youngs Moduli (GPa) = 86.98500 41.88786 48.27118
#
# Poissons Ratio (x) = 0.11487 0.25783
# Poissons Ratio (y) = 0.23855 -0.03021
# Poissons Ratio (z) = 0.46461 -0.02622
#
# Static dielectric constant tensor:
#      x y z
#    x 1.715450 0.000000 0.000000 
#    y 0.000000 1.698580 0.000000 
#    z 0.000000 0.000000 1.704200 
# 
# From -- ./inp_files/19221.got.cif
#   From: 2010.05.17/outbox.cif.g08.bks.cpg/sg20_10_cif.got.tgz:19221.got - 2010.06.03 22:52:26.
