data_PCOD9319665
_publ_section_title
;
Structure prediction by ZEFSAII (Michael W. Deem and Ramdas Pophale) SiO2 
 PCOD9319665
Probable space group: C 2 2 21
;
_chemical_formula_sum "Si O2"
_cell_formula_units_Z 36
_cell_length_a 15.812456
_cell_length_b 21.286273
_cell_length_c 5.225957
_cell_angle_alpha 90.000000
_cell_angle_beta 90.000000
_cell_angle_gamma 90.000000
_cell_volume 1758.995748
_symmetry_space_group_name_H-M "C 2 2 21"
_symmetry_group_IT_number 20
_symmetry_cell_setting 'orthorhombic'
loop_
_space_group_symop_operation_xyz
x,y,z
-x,-y,1/2+z
x,-y,-z
-x,y,1/2-z
1/2+x,1/2+y,z
1/2-x,1/2-y,1/2+z
1/2+x,1/2-y,-z
1/2-x,1/2+y,1/2-z
loop_
_atom_site_type_symbol
_atom_site_label
_atom_site_fract_x
_atom_site_fract_y
_atom_site_fract_z
Si Si1 0.557939 0.714144 0.000951
Si Si2 0.787095 0.500000 0.000000
Si Si3 0.713804 0.634270 0.994554
Si Si4 0.577332 0.060953 0.116289
Si Si5 0.814386 0.330433 0.484960
O O1 0.500000 0.713639 0.750000
O O2 0.616184 0.652201 0.021296
O O3 0.625616 0.770780 0.989339
O O4 0.500000 0.721496 0.250000
O O5 0.730687 0.439216 0.066264
O O6 0.849661 0.529005 0.213187
O O7 0.752478 0.672813 0.755730
O O8 0.763484 0.654708 0.253450
O O9 0.500000 0.096926 0.250000
O O10 0.624081 0.109732 0.934894
O O11 0.533127 0.000000 0.000000
#
# Coordination Sequence:
#
# PCOD9319665 Si02
#       5
#     8   4   8   8   8
#     4  12  25  43  64  93 123 160 209 266 308 353
#     4  10  22  38  58  88 122 168 206 248 296 374
#     4  11  23  42  66  90 124 164 209 249 307 371
#     4  11  20  33  55  89 127 162 195 245 302 371
#     4  11  23  40  64  91 125 167 201 247 309 379
#
# _framework density 20.466224
#
# number of rings (size 3 to 8) (size 9 to 14) (size 15 to 20)
#    0.000    0.889    3.333    4.667    0.000    2.667 
#    0.000    1.111    0.000    0.000    0.000    0.000 
#    0.000    0.000    0.000    0.000    0.000    0.000 
#
# Total GULP energy -100520.080702 kJ/mol
# GULP energy per Si atom -5584.448928 kJ/mol
# Density = 2.041964 g / cm^3
# Si number density = 20.466224 Si / 1000 Ang^3
#
#
#
# Elastic Constant Matrix: (Units=GPa)
#
#
# Indices 1 2 3 4 5 6 
#
# 1 95.5856 53.4975 51.6186 0.0000 0.0000 0.0000
# 2 53.4975 98.8959 17.5630 0.0000 0.0000 0.0000
# 3 51.6186 17.5630 124.1871 0.0000 0.0000 0.0000
# 4 0.0000 0.0000 0.0000 12.6245 0.0000 0.0000
# 5 0.0000 0.0000 0.0000 0.0000 23.8005 0.0000
# 6 0.0000 0.0000 0.0000 0.0000 0.0000 55.0022
#
#
#
# Elastic Compliance Matrix: (Units=1/GPa)
#
#
# Indices 1 2 3 4 5 6 
#
# 1 0.019233 -0.009216 -0.006691 0.000000 0.000000 0.000000
# 2 -0.009216 0.014788 0.001739 0.000000 0.000000 0.000000
# 3 -0.006691 0.001739 0.010587 0.000000 0.000000 0.000000
# 4 0.000000 0.000000 0.000000 0.079211 0.000000 0.000000
# 5 0.000000 0.000000 0.000000 0.000000 0.042016 0.000000
# 6 0.000000 0.000000 0.000000 0.000000 0.000000 0.018181
#
#
# Mechanical properties :
#
#
# Convention : Reuss Voigt Hill
#
# Bulk Modulus (GPa) = 61.44962 62.66966 62.05964
# Shear Modulus (GPa) = 22.95935 31.35140 27.15537
#
# Velocity S-wave (km/s) = 3.35299 3.91815 3.64653
# Velocity P-wave (km/s) = 6.71417 7.15239 6.93674
#
# Compressibility (1/GPa) = 0.01627349
#
# Stress axis : x y z
#
# Youngs Moduli (GPa) = 51.99402 67.62223 94.45116
#
# Poissons Ratio (x) = 0.62319 0.63196
# Poissons Ratio (y) = 0.47917 -0.16427
# Poissons Ratio (z) = 0.34789 -0.11761
#
# Static dielectric constant tensor:
#      x y z
#    x 1.705240 0.000000 0.000000 
#    y 0.000000 1.762140 0.000000 
#    z 0.000000 0.000000 -0.885380 
# 
# From -- ./inp_files/1192.got.cif
#   From: 2010.05.17/outbox.cif.g08.bks.cpg/sg20_1_cif.got.tgz:1192.got - 2010.06.03 22:52:26.
