data_PCOD9319974
_publ_section_title
;
Structure prediction by ZEFSAII (Michael W. Deem and Ramdas Pophale) SiO2 
 PCOD9319974
Probable space group: C 2 2 21
;
_chemical_formula_sum "Si O2"
_cell_formula_units_Z 40
_cell_length_a 11.573565
_cell_length_b 10.451834
_cell_length_c 14.452527
_cell_angle_alpha 90.000000
_cell_angle_beta 90.000000
_cell_angle_gamma 90.000000
_cell_volume 1748.249642
_symmetry_space_group_name_H-M "C 2 2 21"
_symmetry_group_IT_number 20
_symmetry_cell_setting 'orthorhombic'
loop_
_space_group_symop_operation_xyz
x,y,z
-x,-y,1/2+z
x,-y,-z
-x,y,1/2-z
1/2+x,1/2+y,z
1/2-x,1/2-y,1/2+z
1/2+x,1/2-y,-z
1/2-x,1/2+y,1/2-z
loop_
_atom_site_type_symbol
_atom_site_label
_atom_site_fract_x
_atom_site_fract_y
_atom_site_fract_z
Si Si1 0.185855 0.125049 0.745003
Si Si2 0.212278 0.717150 0.081439
Si Si3 0.852922 0.768689 0.625171
Si Si4 0.558012 0.448796 0.605181
Si Si5 0.903822 0.497690 0.682331
O O1 0.061729 0.886305 0.862352
O O2 0.094965 0.061574 0.675268
O O3 0.289907 0.023094 0.743410
O O4 0.168324 0.174871 0.847692
O O5 0.340522 0.660238 0.102079
O O6 0.129605 0.596094 0.100440
O O7 0.197615 0.763597 0.977584
O O8 0.745744 0.746568 0.693461
O O9 0.929015 0.639430 0.643166
O O10 0.549866 0.500000 0.500000
O O11 0.000000 0.445945 0.750000
#
# Coordination Sequence:
#
# PCOD9319974 Si02
#       5
#     8   8   8   8   8
#     4   9  22  40  65  98 137 182 234 290 349 417
#     4  11  20  42  68  96 144 181 239 292 348 427
#     4  10  22  41  67  97 136 190 232 285 362 415
#     4  11  21  43  69  95 147 189 228 302 354 409
#     4   9  19  38  63  93 127 176 228 284 344 411
#
# _framework density 22.880026999999998
#
# number of rings (size 3 to 8) (size 9 to 14) (size 15 to 20)
#    1.200    0.800    2.000    1.800    0.000    1.600 
#   10.800    0.000    0.000    0.000    0.000    0.000 
#    0.000    0.000    0.000    0.000    0.000    0.000 
#
# Total GULP energy -111672.225768 kJ/mol
# GULP energy per Si atom -5583.611288 kJ/mol
# Density = 2.282795 g / cm^3
# Si number density = 22.880027 Si / 1000 Ang^3
#
#
#
# Elastic Constant Matrix: (Units=GPa)
#
#
# Indices 1 2 3 4 5 6 
#
# 1 72.7728 28.2370 9.5947 0.0000 0.0000 0.0000
# 2 28.2370 85.8642 4.0276 0.0000 0.0000 0.0000
# 3 9.5947 4.0276 75.1436 0.0000 0.0000 0.0000
# 4 0.0000 0.0000 0.0000 48.3427 0.0000 0.0000
# 5 0.0000 0.0000 0.0000 0.0000 22.5938 0.0000
# 6 0.0000 0.0000 0.0000 0.0000 0.0000 40.6141
#
#
#
# Elastic Compliance Matrix: (Units=1/GPa)
#
#
# Indices 1 2 3 4 5 6 
#
# 1 0.015981 -0.005173 -0.001763 0.000000 0.000000 0.000000
# 2 -0.005173 0.013350 -0.000055 0.000000 0.000000 0.000000
# 3 -0.001763 -0.000055 0.013536 0.000000 0.000000 0.000000
# 4 0.000000 0.000000 0.000000 0.020686 0.000000 0.000000
# 5 0.000000 0.000000 0.000000 0.000000 0.044260 0.000000
# 6 0.000000 0.000000 0.000000 0.000000 0.000000 0.024622
#
#
# Mechanical properties :
#
#
# Convention : Reuss Voigt Hill
#
# Bulk Modulus (GPa) = 34.62037 35.27770 34.94903
# Shear Modulus (GPa) = 32.04206 35.10488 33.57347
#
# Velocity S-wave (km/s) = 3.74630 3.92127 3.83478
# Velocity P-wave (km/s) = 5.82041 5.99615 5.90893
#
# Compressibility (1/GPa) = 0.02888473
#
# Stress axis : x y z
#
# Youngs Moduli (GPa) = 62.57440 74.90655 73.87734
#
# Poissons Ratio (x) = 0.38747 0.13027
# Poissons Ratio (y) = 0.32368 0.00407
# Poissons Ratio (z) = 0.11034 0.00412
#
# Static dielectric constant tensor:
#      x y z
#    x 1.870280 0.000000 0.000000 
#    y 0.000000 1.902440 0.000000 
#    z 0.000000 0.000000 1.807060 
# 
# From -- ./inp_files/21156.got.cif
#   From: 2010.05.17/outbox.cif.g08.bks.cpg/sg20_11_cif.got.tgz:21156.got - 2010.06.03 22:52:26.
