data_PCOD9319683
_publ_section_title
;
Structure prediction by ZEFSAII (Michael W. Deem and Ramdas Pophale) SiO2 
 PCOD9319683
Probable space group: C 2 2 21
;
_chemical_formula_sum "Si O2"
_cell_formula_units_Z 60
_cell_length_a 11.444793
_cell_length_b 14.554272
_cell_length_c 18.113543
_cell_angle_alpha 90.000000
_cell_angle_beta 90.000000
_cell_angle_gamma 90.000000
_cell_volume 3017.184275
_symmetry_space_group_name_H-M "C 2 2 21"
_symmetry_group_IT_number 20
_symmetry_cell_setting 'orthorhombic'
loop_
_space_group_symop_operation_xyz
x,y,z
-x,-y,1/2+z
x,-y,-z
-x,y,1/2-z
1/2+x,1/2+y,z
1/2-x,1/2-y,1/2+z
1/2+x,1/2-y,-z
1/2-x,1/2+y,1/2-z
loop_
_atom_site_type_symbol
_atom_site_label
_atom_site_fract_x
_atom_site_fract_y
_atom_site_fract_z
Si Si1 0.070649 0.506414 0.416917
Si Si2 0.357539 0.860851 0.429320
Si Si3 0.373878 0.179251 0.724259
Si Si4 0.686813 0.796725 0.766232
Si Si5 0.551187 0.201201 0.083302
Si Si6 0.500000 0.524682 0.750000
Si Si7 0.262735 0.003399 0.219218
Si Si8 0.111984 0.157840 0.632530
O O1 0.117908 0.500000 0.500000
O O2 0.172435 0.485249 0.358626
O O3 0.955386 0.440239 0.416891
O O4 0.022979 0.608636 0.403403
O O5 0.381709 0.792064 0.361185
O O6 0.374377 0.819810 0.510176
O O7 0.222753 0.883992 0.411369
O O8 0.500000 0.151066 0.750000
O O9 0.319250 0.260486 0.771750
O O10 0.294124 0.088238 0.734653
O O11 0.622687 0.777146 0.842524
O O12 0.643080 0.736087 0.695878
O O13 0.679424 0.904413 0.751028
O O14 0.465305 0.286795 0.073811
O O15 0.376861 0.480327 0.723645
O O16 0.539489 0.584653 0.679284
#
# Coordination Sequence:
#
# PCOD9319683 Si02
#       8
#     8   8   8   8   8   4   8   8
#     4  10  22  40  64  97 122 159 215 266 312 383
#     4  10  22  38  61  94 125 159 205 267 316 370
#     4  11  22  40  63  93 126 161 215 260 308 380
#     4  11  23  38  63  94 122 164 217 258 304 389
#     4  11  21  38  64  91 127 165 209 261 322 371
#     4  12  24  42  64  90 120 170 216 264 320 384
#     4  12  23  40  68  88 124 170 212 261 323 367
#     4  11  21  43  62  93 126 160 218 263 308 392
#
# _framework density 19.886092000000001
#
# number of rings (size 3 to 8) (size 9 to 14) (size 15 to 20)
#    0.000    1.067    6.667    0.800    0.933    1.067 
#    4.800    0.000    2.933    0.000    0.000    0.000 
#    0.000    0.000    0.000    0.000    0.000    0.000 
#
# Total GULP energy -167119.742828 kJ/mol
# GULP energy per Si atom -5570.658094 kJ/mol
# Density = 1.984083 g / cm^3
# Si number density = 19.886092 Si / 1000 Ang^3
#
#
#
# Elastic Constant Matrix: (Units=GPa)
#
#
# Indices 1 2 3 4 5 6 
#
# 1 93.0754 9.6652 43.7113 0.0000 0.0000 0.0000
# 2 9.6652 49.1554 17.3320 0.0000 0.0000 0.0000
# 3 43.7113 17.3320 100.7306 0.0000 0.0000 0.0000
# 4 0.0000 0.0000 0.0000 22.1562 0.0000 0.0000
# 5 0.0000 0.0000 0.0000 0.0000 33.9948 0.0000
# 6 0.0000 0.0000 0.0000 0.0000 0.0000 18.1016
#
#
#
# Elastic Compliance Matrix: (Units=1/GPa)
#
#
# Indices 1 2 3 4 5 6 
#
# 1 0.013512 -0.000627 -0.005756 0.000000 0.000000 0.000000
# 2 -0.000627 0.021687 -0.003459 0.000000 0.000000 0.000000
# 3 -0.005756 -0.003459 0.013020 0.000000 0.000000 0.000000
# 4 0.000000 0.000000 0.000000 0.045134 0.000000 0.000000
# 5 0.000000 0.000000 0.000000 0.000000 0.029416 0.000000
# 6 0.000000 0.000000 0.000000 0.000000 0.000000 0.055244
#
#
# Mechanical properties :
#
#
# Convention : Reuss Voigt Hill
#
# Bulk Modulus (GPa) = 35.04503 42.70874 38.87688
# Shear Modulus (GPa) = 24.13019 26.33403 25.23211
#
# Velocity S-wave (km/s) = 3.48720 3.64296 3.56593
# Velocity P-wave (km/s) = 5.82024 6.26245 6.04539
#
# Compressibility (1/GPa) = 0.02853472
#
# Stress axis : x y z
#
# Youngs Moduli (GPa) = 74.00756 46.11111 76.80349
#
# Poissons Ratio (x) = 0.02893 0.44204
# Poissons Ratio (y) = 0.04644 0.26568
# Poissons Ratio (z) = 0.42595 0.15951
#
# Static dielectric constant tensor:
#      x y z
#    x 1.808680 0.000000 0.000000 
#    y 0.000000 1.695980 0.000000 
#    z 0.000000 0.000000 1.714100 
# 
# From -- ./inp_files/24412.got.cif
#   From: 2010.05.17/outbox.cif.g08.bks.cpg/sg20_13_cif.got.tgz:24412.got - 2010.06.03 22:52:26.
