data_PCOD9319711
_publ_section_title
;
Structure prediction by ZEFSAII (Michael W. Deem and Ramdas Pophale) SiO2 
 PCOD9319711
Probable space group: C 2 2 21
;
_chemical_formula_sum "Si O2"
_cell_formula_units_Z 52
_cell_length_a 22.059194
_cell_length_b 8.472795
_cell_length_c 14.899168
_cell_angle_alpha 90.000000
_cell_angle_beta 90.000000
_cell_angle_gamma 90.000000
_cell_volume 2784.699623
_symmetry_space_group_name_H-M "C 2 2 21"
_symmetry_group_IT_number 20
_symmetry_cell_setting 'orthorhombic'
loop_
_space_group_symop_operation_xyz
x,y,z
-x,-y,1/2+z
x,-y,-z
-x,y,1/2-z
1/2+x,1/2+y,z
1/2-x,1/2-y,1/2+z
1/2+x,1/2-y,-z
1/2-x,1/2+y,1/2-z
loop_
_atom_site_type_symbol
_atom_site_label
_atom_site_fract_x
_atom_site_fract_y
_atom_site_fract_z
Si Si1 0.135581 0.000000 0.500000
Si Si2 0.466214 0.269317 0.073890
Si Si3 0.118667 0.151402 0.201649
Si Si4 0.000000 0.045074 0.750000
Si Si5 0.815796 0.259521 0.121914
Si Si6 0.893353 0.500000 0.000000
Si Si7 0.686569 0.607779 0.914040
Si Si8 0.912663 0.312765 0.482602
O O1 0.089543 0.879943 0.453091
O O2 0.175696 0.906643 0.571072
O O3 0.491750 0.339991 0.165283
O O4 0.522078 0.264967 0.004534
O O5 0.436678 0.096488 0.067968
O O6 0.153726 0.239277 0.281240
O O7 0.103911 0.268057 0.119176
O O8 0.158004 0.009340 0.159028
O O9 0.057915 0.068173 0.238209
O O10 0.745971 0.308317 0.123698
O O11 0.852260 0.385344 0.060544
O O12 0.703965 0.500000 0.000000
O O13 0.636443 0.729667 0.951943
O O14 0.914743 0.500000 0.500000
#
# Coordination Sequence:
#
# PCOD9319711 Si02
#       8
#     4   8   8   4   8   4   8   8
#     4  10  22  38  66  92 122 176 208 256 326 390
#     4  11  21  40  64  94 130 161 215 263 331 380
#     4  11  25  42  67  96 128 172 221 267 325 392
#     4  12  22  40  68  98 124 172 220 268 320 406
#     4  11  23  45  65  93 132 170 222 268 320 393
#     4  10  24  42  64  94 128 168 206 278 330 372
#     4  10  23  46  65  90 131 176 214 266 330 390
#     4  11  24  41  68  97 131 174 213 274 331 391
#
# _framework density 18.673468
#
# number of rings (size 3 to 8) (size 9 to 14) (size 15 to 20)
#    0.000    1.231    4.615    0.923    4.308    2.462 
#    5.538    0.000    0.000    0.000    0.000    0.000 
#    0.000    0.000    0.000    0.000    0.000    0.000 
#
# Total GULP energy -145181.739864 kJ/mol
# GULP energy per Si atom -5583.913072 kJ/mol
# Density = 1.863097 g / cm^3
# Si number density = 18.673468 Si / 1000 Ang^3
#
#
#
# Elastic Constant Matrix: (Units=GPa)
#
#
# Indices 1 2 3 4 5 6 
#
# 1 123.1312 40.1892 42.6572 0.0000 0.0000 0.0000
# 2 40.1892 91.6166 37.9801 0.0000 0.0000 0.0000
# 3 42.6572 37.9801 102.0421 0.0000 0.0000 0.0000
# 4 0.0000 0.0000 0.0000 26.4014 0.0000 0.0000
# 5 0.0000 0.0000 0.0000 0.0000 109.8588 0.0000
# 6 0.0000 0.0000 0.0000 0.0000 0.0000 34.5382
#
#
#
# Elastic Compliance Matrix: (Units=1/GPa)
#
#
# Indices 1 2 3 4 5 6 
#
# 1 0.010239 -0.003213 -0.003084 0.000000 0.000000 0.000000
# 2 -0.003213 0.013915 -0.003836 0.000000 0.000000 0.000000
# 3 -0.003084 -0.003836 0.012517 0.000000 0.000000 0.000000
# 4 0.000000 0.000000 0.000000 0.037877 0.000000 0.000000
# 5 0.000000 0.000000 0.000000 0.000000 0.009103 0.000000
# 6 0.000000 0.000000 0.000000 0.000000 0.000000 0.028953
#
#
# Mechanical properties :
#
#
# Convention : Reuss Voigt Hill
#
# Bulk Modulus (GPa) = 60.96030 62.04921 61.50475
# Shear Modulus (GPa) = 36.14364 47.22391 41.68377
#
# Velocity S-wave (km/s) = 4.40427 5.03430 4.72979
# Velocity P-wave (km/s) = 7.65374 8.19103 7.92694
#
# Compressibility (1/GPa) = 0.01640412
#
# Stress axis : x y z
#
# Youngs Moduli (GPa) = 97.67018 71.86702 79.89151
#
# Poissons Ratio (x) = 0.23089 0.24641
# Poissons Ratio (y) = 0.31379 0.30646
# Poissons Ratio (z) = 0.30124 0.27568
#
# Static dielectric constant tensor:
#      x y z
#    x 1.633170 0.000000 0.000000 
#    y 0.000000 1.383600 0.000000 
#    z 0.000000 0.000000 1.629850 
# 
# From -- ./inp_files/21740.got.cif
#   From: 2010.05.17/outbox.cif.g08.bks.cpg/sg20_11_cif.got.tgz:21740.got - 2010.06.03 22:52:26.
