data_PCOD9319149
_publ_section_title
;
Structure prediction by ZEFSAII (Michael W. Deem and Ramdas Pophale) SiO2 
 PCOD9319149
Probable space group: C 2 2 21
;
_chemical_formula_sum "Si O2"
_cell_formula_units_Z 36
_cell_length_a 18.113219
_cell_length_b 5.424586
_cell_length_c 13.511693
_cell_angle_alpha 90.000000
_cell_angle_beta 90.000000
_cell_angle_gamma 90.000000
_cell_volume 1327.614557
_symmetry_space_group_name_H-M "C 2 2 21"
_symmetry_group_IT_number 20
_symmetry_cell_setting 'orthorhombic'
loop_
_space_group_symop_operation_xyz
x,y,z
-x,-y,1/2+z
x,-y,-z
-x,y,1/2-z
1/2+x,1/2+y,z
1/2-x,1/2-y,1/2+z
1/2+x,1/2-y,-z
1/2-x,1/2+y,1/2-z
loop_
_atom_site_type_symbol
_atom_site_label
_atom_site_fract_x
_atom_site_fract_y
_atom_site_fract_z
Si Si1 0.307052 0.933134 0.865669
Si Si2 0.772925 0.083976 0.161279
Si Si3 0.082265 0.653458 0.084564
Si Si4 0.443165 0.000000 0.000000
Si Si5 0.580475 0.643811 0.205256
O O1 0.288008 0.925529 0.747893
O O2 0.261530 0.169383 0.899356
O O3 0.388158 0.016495 0.092555
O O4 0.279891 0.666762 0.896099
O O5 0.852783 0.118641 0.215534
O O6 0.073405 0.425140 0.163215
O O7 0.099675 0.918762 0.130111
O O8 0.127173 0.500000 0.000000
O O9 0.003840 0.704441 0.027656
O O10 0.500000 0.584026 0.250000
#
# Coordination Sequence:
#
# PCOD9319149 Si02
#       5
#     8   8   8   4   8
#     4  10  21  40  60  90 114 158 196 246 285 353
#     4  10  22  38  64  85 121 150 205 240 289 347
#     4  10  24  37  57  85 122 152 192 246 293 351
#     4  10  22  40  60  84 120 156 194 242 302 346
#     4  12  21  38  62  90 116 160 195 242 299 354
#
# _framework density 27.116302000000001
#
# number of rings (size 3 to 8) (size 9 to 14) (size 15 to 20)
#    0.667    0.889    0.000    5.333    0.000    2.667 
#    4.000    0.000    0.000    0.000    0.000    0.000 
#    0.000    0.000    0.000    0.000    0.000    0.000 
#
# Total GULP energy -100309.984958 kJ/mol
# GULP energy per Si atom -5572.776942 kJ/mol
# Density = 2.705458 g / cm^3
# Si number density = 27.116302 Si / 1000 Ang^3
#
#
#
# Elastic Constant Matrix: (Units=GPa)
#
#
# Indices 1 2 3 4 5 6 
#
# 1 181.9782 18.8548 38.8379 0.0000 0.0000 0.0000
# 2 18.8548 248.7136 41.1049 0.0000 0.0000 0.0000
# 3 38.8379 41.1049 66.0687 0.0000 0.0000 0.0000
# 4 0.0000 0.0000 0.0000 27.7641 0.0000 0.0000
# 5 0.0000 0.0000 0.0000 0.0000 47.8465 0.0000
# 6 0.0000 0.0000 0.0000 0.0000 0.0000 123.8014
#
#
#
# Elastic Compliance Matrix: (Units=1/GPa)
#
#
# Indices 1 2 3 4 5 6 
#
# 1 0.006288 0.000150 -0.003790 0.000000 0.000000 0.000000
# 2 0.000150 0.004485 -0.002878 0.000000 0.000000 0.000000
# 3 -0.003790 -0.002878 0.019154 0.000000 0.000000 0.000000
# 4 0.000000 0.000000 0.000000 0.036018 0.000000 0.000000
# 5 0.000000 0.000000 0.000000 0.000000 0.020900 0.000000
# 6 0.000000 0.000000 0.000000 0.000000 0.000000 0.008077
#
#
# Mechanical properties :
#
#
# Convention : Reuss Voigt Hill
#
# Bulk Modulus (GPa) = 59.20341 77.15066 68.17704
# Shear Modulus (GPa) = 44.01786 66.41326 55.21556
#
# Velocity S-wave (km/s) = 4.03339 4.95431 4.51738
# Velocity P-wave (km/s) = 6.60087 7.82563 7.23920
#
# Compressibility (1/GPa) = 0.01689092
#
# Stress axis : x y z
#
# Youngs Moduli (GPa) = 159.02147 222.96295 52.20775
#
# Poissons Ratio (x) = -0.03335 0.19785
# Poissons Ratio (y) = -0.02379 0.15027
# Poissons Ratio (z) = 0.60264 0.64176
#
# Static dielectric constant tensor:
#      x y z
#    x 2.117100 0.000000 0.000000 
#    y 0.000000 2.181120 0.000000 
#    z 0.000000 0.000000 2.140030 
# 
# From -- ./inp_files/21602.got.cif
#   From: 2010.05.17/outbox.cif.g08.bks.cpg/sg20_11_cif.got.tgz:21602.got - 2010.06.03 22:52:26.
