data_PCOD9319621
_publ_section_title
;
Structure prediction by ZEFSAII (Michael W. Deem and Ramdas Pophale) SiO2 
 PCOD9319621
Probable space group: C 2 2 21
;
_chemical_formula_sum "Si O2"
_cell_formula_units_Z 44
_cell_length_a 11.266618
_cell_length_b 8.622138
_cell_length_c 20.783981
_cell_angle_alpha 90.000000
_cell_angle_beta 90.000000
_cell_angle_gamma 90.000000
_cell_volume 2019.004449
_symmetry_space_group_name_H-M "C 2 2 21"
_symmetry_group_IT_number 20
_symmetry_cell_setting 'orthorhombic'
loop_
_space_group_symop_operation_xyz
x,y,z
-x,-y,1/2+z
x,-y,-z
-x,y,1/2-z
1/2+x,1/2+y,z
1/2-x,1/2-y,1/2+z
1/2+x,1/2-y,-z
1/2-x,1/2+y,1/2-z
loop_
_atom_site_type_symbol
_atom_site_label
_atom_site_fract_x
_atom_site_fract_y
_atom_site_fract_z
Si Si1 0.411267 0.748892 0.902938
Si Si2 0.807755 0.017299 0.424651
Si Si3 0.833110 0.000000 0.000000
Si Si4 0.271819 0.578566 0.794632
Si Si5 0.893524 0.875022 0.699481
Si Si6 0.181176 0.668750 0.108400
O O1 0.306052 0.871483 0.915792
O O2 0.407957 0.628859 0.962205
O O3 0.376219 0.652823 0.838606
O O4 0.538715 0.827468 0.896611
O O5 0.907628 0.090225 0.376677
O O6 0.836698 0.000000 0.500000
O O7 0.779758 0.845708 0.399575
O O8 0.745780 0.921861 0.948704
O O9 0.173925 0.712186 0.793690
O O10 0.315881 0.518410 0.726393
O O11 0.221664 0.424396 0.828887
O O12 0.000000 0.870360 0.750000
#
# Coordination Sequence:
#
# PCOD9319621 Si02
#       6
#     8   8   4   8   8   8
#     4  10  23  41  64  97 133 175 219 275 338 393
#     4  11  23  43  67 102 135 173 228 278 337 417
#     4  10  22  36  58  96 134 166 224 262 322 404
#     4  10  24  43  64 101 128 171 234 275 325 417
#     4  11  24  45  71  96 135 182 226 283 346 403
#     4  11  23  40  65  94 135 177 215 278 331 397
#
# _framework density 21.792916999999999
#
# number of rings (size 3 to 8) (size 9 to 14) (size 15 to 20)
#    0.000    1.455    1.818    2.182    2.545    4.364 
#    0.000    4.545    0.000    0.000    0.000    0.000 
#    0.000    0.000    0.000    0.000    0.000    0.000 
#
# Total GULP energy -122994.978497 kJ/mol
# GULP energy per Si atom -5590.680841 kJ/mol
# Density = 2.174332 g / cm^3
# Si number density = 21.792917 Si / 1000 Ang^3
#
#
#
# Elastic Constant Matrix: (Units=GPa)
#
#
# Indices 1 2 3 4 5 6 
#
# 1 60.8549 2.9534 27.3947 0.0000 0.0000 0.0000
# 2 2.9534 75.1516 29.7163 0.0000 0.0000 0.0000
# 3 27.3947 29.7163 143.8603 0.0000 0.0000 0.0000
# 4 0.0000 0.0000 0.0000 24.5880 0.0000 0.0000
# 5 0.0000 0.0000 0.0000 0.0000 16.6088 0.0000
# 6 0.0000 0.0000 0.0000 0.0000 0.0000 15.5371
#
#
#
# Elastic Compliance Matrix: (Units=1/GPa)
#
#
# Indices 1 2 3 4 5 6 
#
# 1 0.018008 0.000706 -0.003575 0.000000 0.000000 0.000000
# 2 0.000706 0.014518 -0.003133 0.000000 0.000000 0.000000
# 3 -0.003575 -0.003133 0.008279 0.000000 0.000000 0.000000
# 4 0.000000 0.000000 0.000000 0.040670 0.000000 0.000000
# 5 0.000000 0.000000 0.000000 0.000000 0.060209 0.000000
# 6 0.000000 0.000000 0.000000 0.000000 0.000000 0.064362
#
#
# Mechanical properties :
#
#
# Convention : Reuss Voigt Hill
#
# Bulk Modulus (GPa) = 34.72238 44.44394 39.58316
# Shear Modulus (GPa) = 21.96351 26.00027 23.98189
#
# Velocity S-wave (km/s) = 3.17807 3.45782 3.32089
# Velocity P-wave (km/s) = 5.42534 6.03159 5.73648
#
# Compressibility (1/GPa) = 0.02879987
#
# Stress axis : x y z
#
# Youngs Moduli (GPa) = 55.53220 68.88174 120.78527
#
# Poissons Ratio (x) = -0.04862 0.43180
# Poissons Ratio (y) = -0.03920 0.37845
# Poissons Ratio (z) = 0.19852 0.21582
#
# Static dielectric constant tensor:
#      x y z
#    x 1.809210 0.000000 0.000000 
#    y 0.000000 1.758010 0.000000 
#    z 0.000000 0.000000 1.832380 
# 
# From -- ./inp_files/29060.got.cif
#   From: 2010.05.17/outbox.cif.g08.bks.cpg/sg20_15_cif.got.tgz:29060.got - 2010.06.03 22:52:26.
