data_PCOD9319527
_publ_section_title
;
Structure prediction by ZEFSAII (Michael W. Deem and Ramdas Pophale) SiO2 
 PCOD9319527
Probable space group: C 2 2 21
;
_chemical_formula_sum "Si O2"
_cell_formula_units_Z 48
_cell_length_a 16.873377
_cell_length_b 13.206737
_cell_length_c 11.028191
_cell_angle_alpha 90.000000
_cell_angle_beta 90.000000
_cell_angle_gamma 90.000000
_cell_volume 2457.546922
_symmetry_space_group_name_H-M "C 2 2 21"
_symmetry_group_IT_number 20
_symmetry_cell_setting 'orthorhombic'
loop_
_space_group_symop_operation_xyz
x,y,z
-x,-y,1/2+z
x,-y,-z
-x,y,1/2-z
1/2+x,1/2+y,z
1/2-x,1/2-y,1/2+z
1/2+x,1/2-y,-z
1/2-x,1/2+y,1/2-z
loop_
_atom_site_type_symbol
_atom_site_label
_atom_site_fract_x
_atom_site_fract_y
_atom_site_fract_z
Si Si1 0.647377 0.657609 0.677118
Si Si2 0.425242 0.500000 0.500000
Si Si3 0.188822 0.189604 0.944824
Si Si4 0.915116 0.540526 0.806893
Si Si5 0.866501 0.353288 0.965338
Si Si6 0.000000 0.020114 0.750000
Si Si7 0.187170 0.598996 0.920949
O O1 0.684358 0.704440 0.800145
O O2 0.614013 0.746500 0.593563
O O3 0.576365 0.585730 0.714294
O O4 0.719271 0.601791 0.609844
O O5 0.370629 0.402047 0.474803
O O6 0.475079 0.471501 0.621050
O O7 0.276337 0.155084 0.986791
O O8 0.169310 0.295334 0.011099
O O9 0.875404 0.440600 0.864697
O O10 0.860747 0.588650 0.703544
O O11 0.000000 0.516476 0.750000
O O12 0.920778 0.616091 0.921217
O O13 0.168251 0.500000 0.000000
#
# Coordination Sequence:
#
# PCOD9319527 Si02
#       7
#     8   4   8   8   8   4   8
#     4  10  22  42  66  92 124 169 216 261 329 379
#     4  10  22  44  64  94 132 168 222 258 336 390
#     4  10  21  44  70  92 124 174 212 271 328 390
#     4  11  24  39  62  93 132 171 215 263 327 385
#     4  10  22  41  64  90 129 169 217 271 317 388
#     4  10  24  40  64  94 128 168 212 268 318 388
#     4  11  24  41  66  97 126 163 218 265 317 386
#
# _framework density 19.531672
#
# number of rings (size 3 to 8) (size 9 to 14) (size 15 to 20)
#    0.000    1.667    1.667    2.000    7.000    2.667 
#    4.500    0.000    0.000    0.000    0.000    0.000 
#    0.000    0.000    0.000    0.000    0.000    0.000 
#
# Total GULP energy -133978.764880 kJ/mol
# GULP energy per Si atom -5582.448537 kJ/mol
# Density = 1.948722 g / cm^3
# Si number density = 19.531672 Si / 1000 Ang^3
#
#
#
# Elastic Constant Matrix: (Units=GPa)
#
#
# Indices 1 2 3 4 5 6 
#
# 1 28.1988 18.1759 8.2120 0.0000 0.0000 0.0000
# 2 18.1759 70.5541 35.0951 0.0000 0.0000 0.0000
# 3 8.2120 35.0951 99.0741 0.0000 0.0000 0.0000
# 4 0.0000 0.0000 0.0000 32.4603 0.0000 0.0000
# 5 0.0000 0.0000 0.0000 0.0000 26.2006 0.0000
# 6 0.0000 0.0000 0.0000 0.0000 0.0000 -5.0201
#
#
#
# Elastic Compliance Matrix: (Units=1/GPa)
#
#
# Indices 1 2 3 4 5 6 
#
# 1 0.042539 -0.011174 0.000432 0.000000 0.000000 0.000000
# 2 -0.011174 0.020140 -0.006208 0.000000 0.000000 0.000000
# 3 0.000432 -0.006208 0.012257 0.000000 0.000000 0.000000
# 4 0.000000 0.000000 0.000000 0.030807 0.000000 0.000000
# 5 0.000000 0.000000 0.000000 0.000000 0.038167 0.000000
# 6 0.000000 0.000000 0.000000 0.000000 0.000000 -0.199198
#
#
# Mechanical properties :
#
#
# Convention : Reuss Voigt Hill
#
# Bulk Modulus (GPa) = 24.36863 35.64368 30.00616
# Shear Modulus (GPa) = -648.48375 19.81775 -314.33300
#
# Velocity S-wave (km/s) = -18.24109 3.18881 -12.69978
# Velocity P-wave (km/s) = 20.76406 5.64330 14.12974
#
# Compressibility (1/GPa) = 0.04103636
#
# Stress axis : x y z
#
# Youngs Moduli (GPa) = 23.50798 49.65233 81.58788
#
# Poissons Ratio (x) = 0.55480 -0.03525
# Poissons Ratio (y) = 0.26267 0.50650
# Poissons Ratio (z) = -0.01016 0.30824
#
# Static dielectric constant tensor:
#      x y z
#    x 1.663910 0.000000 0.000000 
#    y 0.000000 1.680330 0.000000 
#    z 0.000000 0.000000 1.753580 
# 
# From -- ./inp_files/15738.got.cif
#   From: 2010.05.17/outbox.cif.g08.bks.cpg/sg20_8_cif.got.tgz:15738.got - 2010.06.03 22:52:26.
