data_PCOD9319414
_publ_section_title
;
Structure prediction by ZEFSAII (Michael W. Deem and Ramdas Pophale) SiO2 
 PCOD9319414
Probable space group: C 2 2 21
;
_chemical_formula_sum "Si O2"
_cell_formula_units_Z 48
_cell_length_a 16.972576
_cell_length_b 8.438899
_cell_length_c 14.575333
_cell_angle_alpha 90.000000
_cell_angle_beta 90.000000
_cell_angle_gamma 90.000000
_cell_volume 2087.622827
_symmetry_space_group_name_H-M "C 2 2 21"
_symmetry_group_IT_number 20
_symmetry_cell_setting 'orthorhombic'
loop_
_space_group_symop_operation_xyz
x,y,z
-x,-y,1/2+z
x,-y,-z
-x,y,1/2-z
1/2+x,1/2+y,z
1/2-x,1/2-y,1/2+z
1/2+x,1/2-y,-z
1/2-x,1/2+y,1/2-z
loop_
_atom_site_type_symbol
_atom_site_label
_atom_site_fract_x
_atom_site_fract_y
_atom_site_fract_z
Si Si1 0.697594 0.071282 0.596649
Si Si2 0.442213 0.849689 0.440196
Si Si3 0.982895 0.060211 0.143598
Si Si4 0.690469 0.450349 0.602935
Si Si5 0.153686 0.530419 0.209888
Si Si6 0.370954 0.340788 0.400502
O O1 0.687809 0.259884 0.604347
O O2 0.653806 0.993291 0.682175
O O3 0.792887 0.052906 0.603511
O O4 0.672165 0.000000 0.500000
O O5 0.507436 0.722254 0.413334
O O6 0.403091 0.914843 0.347276
O O7 0.378655 0.759187 0.504987
O O8 0.469442 0.000000 0.500000
O O9 0.000000 0.091839 0.250000
O O10 0.896187 0.991105 0.129113
O O11 0.050860 0.942963 0.109655
O O12 0.711372 0.500000 0.500000
O O13 0.758193 0.503830 0.672324
O O14 0.133561 0.708276 0.178593
#
# Coordination Sequence:
#
# PCOD9319414 Si02
#       6
#     8   8   8   8   8   8
#     4  11  23  39  64  94 128 166 209 263 323 382
#     4  10  21  42  67  88 123 173 217 254 311 391
#     4  12  24  40  63  94 130 168 208 260 322 381
#     4  11  24  40  63  96 128 160 208 271 319 366
#     4  10  22  43  65  91 123 167 218 264 314 380
#     4  10  22  40  65  93 124 172 217 256 314 392
#
# _framework density 22.992657999999999
#
# number of rings (size 3 to 8) (size 9 to 14) (size 15 to 20)
#    0.000    1.333    0.000    7.000    0.000    8.667 
#    0.000    6.667    0.000    0.000    0.000    0.000 
#    0.000    0.000    0.000    0.000    0.000    0.000 
#
# Total GULP energy -134440.856045 kJ/mol
# GULP energy per Si atom -5601.702335 kJ/mol
# Density = 2.294033 g / cm^3
# Si number density = 22.992658 Si / 1000 Ang^3
#
#
#
# Elastic Constant Matrix: (Units=GPa)
#
#
# Indices 1 2 3 4 5 6 
#
# 1 100.6016 15.4435 -0.2202 0.0000 0.0000 0.0000
# 2 15.4435 59.8757 27.1242 0.0000 0.0000 0.0000
# 3 -0.2202 27.1242 151.3589 0.0000 0.0000 0.0000
# 4 0.0000 0.0000 0.0000 35.5434 0.0000 0.0000
# 5 0.0000 0.0000 0.0000 0.0000 22.0246 0.0000
# 6 0.0000 0.0000 0.0000 0.0000 0.0000 27.6330
#
#
#
# Elastic Compliance Matrix: (Units=1/GPa)
#
#
# Indices 1 2 3 4 5 6 
#
# 1 0.010390 -0.002924 0.000539 0.000000 0.000000 0.000000
# 2 -0.002924 0.019000 -0.003409 0.000000 0.000000 0.000000
# 3 0.000539 -0.003409 0.007219 0.000000 0.000000 0.000000
# 4 0.000000 0.000000 0.000000 0.028135 0.000000 0.000000
# 5 0.000000 0.000000 0.000000 0.000000 0.045404 0.000000
# 6 0.000000 0.000000 0.000000 0.000000 0.000000 0.036189
#
#
# Mechanical properties :
#
#
# Convention : Reuss Voigt Hill
#
# Bulk Modulus (GPa) = 39.96743 44.05903 42.01323
# Shear Modulus (GPa) = 30.07267 35.00613 32.53940
#
# Velocity S-wave (km/s) = 3.62045 3.90614 3.76601
# Velocity P-wave (km/s) = 5.90739 6.28870 6.10103
#
# Compressibility (1/GPa) = 0.02502037
#
# Stress axis : x y z
#
# Youngs Moduli (GPa) = 96.24389 52.63208 138.53251
#
# Poissons Ratio (x) = 0.15390 -0.07469
# Poissons Ratio (y) = 0.28143 0.47227
# Poissons Ratio (z) = -0.05189 0.17943
#
# Static dielectric constant tensor:
#      x y z
#    x 1.858490 0.000000 0.000000 
#    y 0.000000 1.837890 0.000000 
#    z 0.000000 0.000000 1.837470 
# 
# From -- ./inp_files/21268.got.cif
#   From: 2010.05.17/outbox.cif.g08.bks.cpg/sg20_11_cif.got.tgz:21268.got - 2010.06.03 22:52:26.
