data_PCOD9319453
_publ_section_title
;
Structure prediction by ZEFSAII (Michael W. Deem and Ramdas Pophale) SiO2 
 PCOD9319453
Probable space group: C 2 2 21
;
_chemical_formula_sum "Si O2"
_cell_formula_units_Z 64
_cell_length_a 19.291253
_cell_length_b 15.945128
_cell_length_c 10.125086
_cell_angle_alpha 90.000000
_cell_angle_beta 90.000000
_cell_angle_gamma 90.000000
_cell_volume 3114.491625
_symmetry_space_group_name_H-M "C 2 2 21"
_symmetry_group_IT_number 20
_symmetry_cell_setting 'orthorhombic'
loop_
_space_group_symop_operation_xyz
x,y,z
-x,-y,1/2+z
x,-y,-z
-x,y,1/2-z
1/2+x,1/2+y,z
1/2-x,1/2-y,1/2+z
1/2+x,1/2-y,-z
1/2-x,1/2+y,1/2-z
loop_
_atom_site_type_symbol
_atom_site_label
_atom_site_fract_x
_atom_site_fract_y
_atom_site_fract_z
Si Si1 0.013157 0.718415 0.892891
Si Si2 0.992985 0.059674 0.890642
Si Si3 0.283657 0.989041 0.341869
Si Si4 0.943037 0.471248 0.350081
Si Si5 0.392040 0.700221 0.971972
Si Si6 0.720659 0.690806 0.745216
Si Si7 0.378928 0.657069 0.509526
Si Si8 0.187536 0.144376 0.272026
O O1 0.940467 0.725483 0.970881
O O2 0.000000 0.761719 0.750000
O O3 0.043077 0.627983 0.858964
O O4 0.071338 0.764390 0.978039
O O5 0.068909 0.088039 0.934428
O O6 0.000000 0.017289 0.750000
O O7 0.943391 0.140242 0.888207
O O8 0.962318 0.000000 0.000000
O O9 0.364926 0.990044 0.305043
O O10 0.251986 0.899350 0.298078
O O11 0.280322 0.000000 0.500000
O O12 0.241547 0.068346 0.287252
O O13 0.952235 0.500000 0.500000
O O14 0.000000 0.507602 0.250000
O O15 0.361575 0.650984 0.099154
O O16 0.330130 0.721172 0.872789
O O17 0.678330 0.678377 0.881238
O O18 0.776504 0.763976 0.765112
O O19 0.349545 0.631250 0.367773
#
# Coordination Sequence:
#
# PCOD9319453 Si02
#       8
#     8   8   8   8   8   8   8   8
#     4  10  21  42  71  97 137 187 239 283 354 426
#     4  11  26  42  67  99 140 179 231 283 350 421
#     4  11  26  46  74 103 143 199 235 284 370 440
#     4  10  24  46  72  97 137 181 239 299 342 417
#     4  11  24  43  69 102 135 192 228 289 354 429
#     4  12  26  45  70 107 146 180 241 296 357 431
#     4  11  25  42  67 101 139 177 233 295 347 409
#     4  12  26  44  74 102 142 193 235 290 360 436
#
# _framework density 20.549099999999999
#
# number of rings (size 3 to 8) (size 9 to 14) (size 15 to 20)
#    0.000    1.000    3.750    1.500   10.500    1.000 
#    2.250    0.000    0.000    0.000    0.000    0.000 
#    0.000    0.000    0.000    0.000    0.000    0.000 
#
# Total GULP energy -178782.189688 kJ/mol
# GULP energy per Si atom -5586.943428 kJ/mol
# Density = 2.050233 g / cm^3
# Si number density = 20.549100 Si / 1000 Ang^3
#
#
#
# Elastic Constant Matrix: (Units=GPa)
#
#
# Indices 1 2 3 4 5 6 
#
# 1 111.1941 27.7067 49.4823 0.0000 0.0000 0.0000
# 2 27.7067 73.1823 6.9522 0.0000 0.0000 0.0000
# 3 49.4823 6.9522 114.8005 0.0000 0.0000 0.0000
# 4 0.0000 0.0000 0.0000 5.7584 0.0000 0.0000
# 5 0.0000 0.0000 0.0000 0.0000 48.4350 0.0000
# 6 0.0000 0.0000 0.0000 0.0000 0.0000 10.4785
#
#
#
# Elastic Compliance Matrix: (Units=1/GPa)
#
#
# Indices 1 2 3 4 5 6 
#
# 1 0.012274 -0.004168 -0.005038 0.000000 0.000000 0.000000
# 2 -0.004168 0.015159 0.000879 0.000000 0.000000 0.000000
# 3 -0.005038 0.000879 0.010829 0.000000 0.000000 0.000000
# 4 0.000000 0.000000 0.000000 0.173659 0.000000 0.000000
# 5 0.000000 0.000000 0.000000 0.000000 0.020646 0.000000
# 6 0.000000 0.000000 0.000000 0.000000 0.000000 0.095433
#
#
# Mechanical properties :
#
#
# Convention : Reuss Voigt Hill
#
# Bulk Modulus (GPa) = 46.28162 51.93993 49.11078
# Shear Modulus (GPa) = 14.21028 27.27008 20.74018
#
# Velocity S-wave (km/s) = 2.63255 3.64685 3.18039
# Velocity P-wave (km/s) = 5.64019 6.56228 6.11863
#
# Compressibility (1/GPa) = 0.02160685
#
# Stress axis : x y z
#
# Youngs Moduli (GPa) = 81.47407 65.96677 92.34411
#
# Poissons Ratio (x) = 0.27497 0.46523
# Poissons Ratio (y) = 0.33961 -0.08114
# Poissons Ratio (z) = 0.41046 -0.05796
#
# Static dielectric constant tensor:
#      x y z
#    x 1.740320 0.000000 0.000000 
#    y 0.000000 1.482460 0.000000 
#    z 0.000000 0.000000 1.773400 
# 
# From -- ./inp_files/15899.got.cif
#   From: 2010.05.17/outbox.cif.g08.bks.cpg/sg20_8_cif.got.tgz:15899.got - 2010.06.03 22:52:26.
