data_PCOD9319848
_publ_section_title
;
Structure prediction by ZEFSAII (Michael W. Deem and Ramdas Pophale) SiO2 
 PCOD9319848
Probable space group: C 2 2 21
;
_chemical_formula_sum "Si O2"
_cell_formula_units_Z 48
_cell_length_a 8.105998
_cell_length_b 15.756450
_cell_length_c 18.629069
_cell_angle_alpha 90.000000
_cell_angle_beta 90.000000
_cell_angle_gamma 90.000000
_cell_volume 2379.337334
_symmetry_space_group_name_H-M "C 2 2 21"
_symmetry_group_IT_number 20
_symmetry_cell_setting 'orthorhombic'
loop_
_space_group_symop_operation_xyz
x,y,z
-x,-y,1/2+z
x,-y,-z
-x,y,1/2-z
1/2+x,1/2+y,z
1/2-x,1/2-y,1/2+z
1/2+x,1/2-y,-z
1/2-x,1/2+y,1/2-z
loop_
_atom_site_type_symbol
_atom_site_label
_atom_site_fract_x
_atom_site_fract_y
_atom_site_fract_z
Si Si1 0.460149 0.721946 0.438911
Si Si2 0.127414 0.038128 0.421905
Si Si3 0.072499 0.281314 0.591222
Si Si4 0.534311 0.950834 0.835493
Si Si5 0.064820 0.113959 0.670120
Si Si6 0.962814 0.363401 0.332338
O O1 0.537275 0.627993 0.434506
O O2 0.266751 0.722721 0.423175
O O3 0.486543 0.764756 0.515647
O O4 0.529837 0.787204 0.379964
O O5 0.278213 0.052868 0.366174
O O6 0.180475 0.000000 0.500000
O O7 0.021837 0.963719 0.383166
O O8 0.007730 0.205755 0.642342
O O9 0.046076 0.372069 0.625704
O O10 0.500000 0.943503 0.750000
O O11 0.468540 0.044635 0.855177
O O12 0.264148 0.123928 0.665641
O O13 0.000000 0.097265 0.750000
O O14 0.000000 0.346649 0.250000
#
# Coordination Sequence:
#
# PCOD9319848 Si02
#       6
#     8   8   8   8   8   8
#     4  11  24  41  63  96 127 175 216 270 327 395
#     4  11  23  44  66  93 134 174 214 272 333 385
#     4  11  23  40  64  94 132 166 223 264 332 388
#     4  10  23  42  67  95 126 172 215 267 332 393
#     4  10  22  40  65  89 127 170 210 263 325 384
#     4   9  22  41  61  91 127 164 213 261 323 379
#
# _framework density 20.173684000000002
#
# number of rings (size 3 to 8) (size 9 to 14) (size 15 to 20)
#    0.000    1.667    1.667    1.500    4.667   10.000 
#    3.000    0.000    0.000    0.000    0.000    0.000 
#    0.000    0.000    0.000    0.000    0.000    0.000 
#
# Total GULP energy -133867.654636 kJ/mol
# GULP energy per Si atom -5577.818943 kJ/mol
# Density = 2.012777 g / cm^3
# Si number density = 20.173684 Si / 1000 Ang^3
#
#
#
# Elastic Constant Matrix: (Units=GPa)
#
#
# Indices 1 2 3 4 5 6 
#
# 1 30.1426 27.8637 20.0676 0.0000 0.0000 0.0000
# 2 27.8637 161.3657 89.2477 0.0000 0.0000 0.0000
# 3 20.0676 89.2477 110.8388 0.0000 0.0000 0.0000
# 4 0.0000 0.0000 0.0000 52.5843 0.0000 0.0000
# 5 0.0000 0.0000 0.0000 0.0000 34.2590 0.0000
# 6 0.0000 0.0000 0.0000 0.0000 0.0000 17.0666
#
#
#
# Elastic Compliance Matrix: (Units=1/GPa)
#
#
# Indices 1 2 3 4 5 6 
#
# 1 0.040034 -0.005236 -0.003033 0.000000 0.000000 0.000000
# 2 -0.005236 0.011858 -0.008600 0.000000 0.000000 0.000000
# 3 -0.003033 -0.008600 0.016496 0.000000 0.000000 0.000000
# 4 0.000000 0.000000 0.000000 0.019017 0.000000 0.000000
# 5 0.000000 0.000000 0.000000 0.000000 0.029189 0.000000
# 6 0.000000 0.000000 0.000000 0.000000 0.000000 0.058594
#
#
# Mechanical properties :
#
#
# Convention : Reuss Voigt Hill
#
# Bulk Modulus (GPa) = 28.85860 64.07834 46.46847
# Shear Modulus (GPa) = 22.67833 31.79318 27.23576
#
# Velocity S-wave (km/s) = 3.35648 3.97416 3.67831
# Velocity P-wave (km/s) = 5.41825 7.27261 6.41281
#
# Compressibility (1/GPa) = 0.03465171
#
# Stress axis : x y z
#
# Youngs Moduli (GPa) = 24.97847 84.33479 60.62186
#
# Poissons Ratio (x) = 0.44155 0.18384
# Poissons Ratio (y) = 0.13078 0.52133
# Poissons Ratio (z) = 0.07575 0.72526
#
# Static dielectric constant tensor:
#      x y z
#    x 1.393830 0.000000 0.000000 
#    y 0.000000 1.744880 0.000000 
#    z 0.000000 0.000000 1.690910 
# 
# From -- ./inp_files/23457.got.cif
#   From: 2010.05.17/outbox.cif.g08.bks.cpg/sg20_12_cif.got.tgz:23457.got - 2010.06.03 22:52:26.
