data_PCOD9319204
_publ_section_title
;
Structure prediction by ZEFSAII (Michael W. Deem and Ramdas Pophale) SiO2 
 PCOD9319204
Probable space group: C 2 2 21
;
_chemical_formula_sum "Si O2"
_cell_formula_units_Z 28
_cell_length_a 7.948593
_cell_length_b 31.658407
_cell_length_c 5.069510
_cell_angle_alpha 90.000000
_cell_angle_beta 90.000000
_cell_angle_gamma 90.000000
_cell_volume 1275.690443
_symmetry_space_group_name_H-M "C 2 2 21"
_symmetry_group_IT_number 20
_symmetry_cell_setting 'orthorhombic'
loop_
_space_group_symop_operation_xyz
x,y,z
-x,-y,1/2+z
x,-y,-z
-x,y,1/2-z
1/2+x,1/2+y,z
1/2-x,1/2-y,1/2+z
1/2+x,1/2-y,-z
1/2-x,1/2+y,1/2-z
loop_
_atom_site_type_symbol
_atom_site_label
_atom_site_fract_x
_atom_site_fract_y
_atom_site_fract_z
Si Si1 0.294889 0.368336 0.751528
Si Si2 0.297198 0.579369 0.751971
Si Si3 0.198713 0.774121 0.714691
Si Si4 0.891983 0.500000 0.500000
O O1 0.500000 0.367192 0.750000
O O2 0.244506 0.402491 0.531475
O O3 0.233324 0.320627 0.712367
O O4 0.247928 0.384914 0.038075
O O5 0.500000 0.574378 0.750000
O O6 0.216823 0.536503 0.860048
O O7 0.233218 0.760772 0.415759
O O8 0.000000 0.775613 0.750000
O O9 0.000000 0.483243 0.750000
#
# Coordination Sequence:
#
# PCOD9319204 Si02
#       4
#     8   8   8   4
#     4   9  19  37  62  88 116 154 206 254 289 338
#     4  10  21  40  65  87 111 159 213 246 282 356
#     4  11  22  39  62  91 125 161 201 250 302 355
#     4  12  26  42  60  92 132 158 184 248 324 364
#
# _framework density 21.948899000000001
#
# number of rings (size 3 to 8) (size 9 to 14) (size 15 to 20)
#    0.000    1.714    0.000    4.286    0.000    9.143 
#    0.000   14.286    0.000    0.000    0.000    0.000 
#    0.000    0.000    0.000    0.000    0.000    0.000 
#
# Total GULP energy -78228.677871 kJ/mol
# GULP energy per Si atom -5587.762705 kJ/mol
# Density = 2.189894 g / cm^3
# Si number density = 21.948899 Si / 1000 Ang^3
#
#
#
# Elastic Constant Matrix: (Units=GPa)
#
#
# Indices 1 2 3 4 5 6 
#
# 1 34.5094 24.6574 13.2103 0.0000 0.0000 0.0000
# 2 24.6574 121.1068 13.5173 0.0000 0.0000 0.0000
# 3 13.2103 13.5173 99.3845 0.0000 0.0000 0.0000
# 4 0.0000 0.0000 0.0000 23.9373 0.0000 0.0000
# 5 0.0000 0.0000 0.0000 0.0000 28.0289 0.0000
# 6 0.0000 0.0000 0.0000 0.0000 0.0000 17.2560
#
#
#
# Elastic Compliance Matrix: (Units=1/GPa)
#
#
# Indices 1 2 3 4 5 6 
#
# 1 0.035246 -0.006756 -0.003766 0.000000 0.000000 0.000000
# 2 -0.006756 0.009679 -0.000418 0.000000 0.000000 0.000000
# 3 -0.003766 -0.000418 0.010619 0.000000 0.000000 0.000000
# 4 0.000000 0.000000 0.000000 0.041776 0.000000 0.000000
# 5 0.000000 0.000000 0.000000 0.000000 0.035677 0.000000
# 6 0.000000 0.000000 0.000000 0.000000 0.000000 0.057951
#
#
# Mechanical properties :
#
#
# Convention : Reuss Voigt Hill
#
# Bulk Modulus (GPa) = 29.70504 39.75228 34.72866
# Shear Modulus (GPa) = 22.31626 27.41881 24.86754
#
# Velocity S-wave (km/s) = 3.19209 3.53825 3.36962
# Velocity P-wave (km/s) = 5.21047 5.90279 5.56740
#
# Compressibility (1/GPa) = 0.03366432
#
# Stress axis : x y z
#
# Youngs Moduli (GPa) = 28.37169 103.31244 94.16682
#
# Poissons Ratio (x) = 0.69796 0.35464
# Poissons Ratio (y) = 0.19167 0.03941
# Poissons Ratio (z) = 0.10685 0.04324
#
# Static dielectric constant tensor:
#      x y z
#    x 1.839050 0.000000 0.000000 
#    y 0.000000 1.793020 0.000000 
#    z 0.000000 0.000000 1.739340 
# 
# From -- ./inp_files/440.got.cif
#   From: 2010.05.17/outbox.cif.g08.bks.cpg/sg20_1_cif.got.tgz:440.got - 2010.06.03 22:52:26.
