data_PCOD9319013
_publ_section_title
;
Structure prediction by ZEFSAII (Michael W. Deem and Ramdas Pophale) SiO2 
 PCOD9319013
Probable space group: C 2 2 21
;
_chemical_formula_sum "Si O2"
_cell_formula_units_Z 48
_cell_length_a 20.255928
_cell_length_b 13.069758
_cell_length_c 8.685195
_cell_angle_alpha 90.000000
_cell_angle_beta 90.000000
_cell_angle_gamma 90.000000
_cell_volume 2299.319193
_symmetry_space_group_name_H-M "C 2 2 21"
_symmetry_group_IT_number 20
_symmetry_cell_setting 'orthorhombic'
loop_
_space_group_symop_operation_xyz
x,y,z
-x,-y,1/2+z
x,-y,-z
-x,y,1/2-z
1/2+x,1/2+y,z
1/2-x,1/2-y,1/2+z
1/2+x,1/2-y,-z
1/2-x,1/2+y,1/2-z
loop_
_atom_site_type_symbol
_atom_site_label
_atom_site_fract_x
_atom_site_fract_y
_atom_site_fract_z
Si Si1 0.928068 0.979467 0.179304
Si Si2 0.255789 0.734336 0.579622
Si Si3 0.851894 0.769598 0.153076
Si Si4 0.303993 0.029486 0.817340
Si Si5 0.433846 0.066594 0.152567
Si Si6 0.822331 0.078179 0.358662
O O1 0.888201 0.873336 0.201663
O O2 0.000000 0.970127 0.250000
O O3 0.887257 0.071536 0.258045
O O4 0.933341 0.000000 0.000000
O O5 0.198534 0.792861 0.487574
O O6 0.308932 0.772291 0.702461
O O7 0.215774 0.647220 0.675886
O O8 0.298096 0.679565 0.443679
O O9 0.902005 0.677496 0.112359
O O10 0.374994 0.004721 0.241872
O O11 0.239525 0.967978 0.762504
O O12 0.307691 0.000000 0.000000
O O13 0.500000 0.078882 0.250000
O O14 0.448340 0.000000 0.000000
O O15 0.834274 0.000000 0.500000
#
# Coordination Sequence:
#
# PCOD9319013 Si02
#       6
#     8   8   8   8   8   8
#     4  12  27  42  65  95 137 181 229 269 338 404
#     4  10  21  38  72  96 130 165 216 280 342 381
#     4  12  23  42  67 102 129 170 220 286 328 404
#     4   8  14  36  64  81 121 168 198 257 330 371
#     4  11  22  43  66  90 135 180 216 267 336 390
#     4   9  16  40  65  85 124 173 209 272 330 379
#
# _framework density 20.875744000000001
#
# number of rings (size 3 to 8) (size 9 to 14) (size 15 to 20)
#    0.000    2.000    8.333    1.000    2.333    0.000 
#    3.000    1.667    0.000    0.000    0.000    0.000 
#    0.000    0.000    0.000    0.000    0.000    0.000 
#
# Total GULP energy -133814.608184 kJ/mol
# GULP energy per Si atom -5575.608674 kJ/mol
# Density = 2.082823 g / cm^3
# Si number density = 20.875744 Si / 1000 Ang^3
#
#
#
# Elastic Constant Matrix: (Units=GPa)
#
#
# Indices 1 2 3 4 5 6 
#
# 1 142.8115 24.4344 54.8245 0.0000 0.0000 0.0000
# 2 24.4344 49.0832 21.3061 0.0000 0.0000 0.0000
# 3 54.8245 21.3061 69.8720 0.0000 0.0000 0.0000
# 4 0.0000 0.0000 0.0000 20.9731 0.0000 0.0000
# 5 0.0000 0.0000 0.0000 0.0000 39.0283 0.0000
# 6 0.0000 0.0000 0.0000 0.0000 0.0000 16.3861
#
#
#
# Elastic Compliance Matrix: (Units=1/GPa)
#
#
# Indices 1 2 3 4 5 6 
#
# 1 0.010163 -0.001842 -0.007413 0.000000 0.000000 0.000000
# 2 -0.001842 0.023815 -0.005817 0.000000 0.000000 0.000000
# 3 -0.007413 -0.005817 0.021902 0.000000 0.000000 0.000000
# 4 0.000000 0.000000 0.000000 0.047680 0.000000 0.000000
# 5 0.000000 0.000000 0.000000 0.000000 0.025622 0.000000
# 6 0.000000 0.000000 0.000000 0.000000 0.000000 0.061027
#
#
# Mechanical properties :
#
#
# Convention : Reuss Voigt Hill
#
# Bulk Modulus (GPa) = 38.85359 51.43298 45.14328
# Shear Modulus (GPa) = 21.84048 26.02428 23.93238
#
# Velocity S-wave (km/s) = 3.23803 3.53459 3.38956
# Velocity P-wave (km/s) = 5.71245 6.43031 6.08198
#
# Compressibility (1/GPa) = 0.02573765
#
# Stress axis : x y z
#
# Youngs Moduli (GPa) = 98.39560 41.98958 45.65770
#
# Poissons Ratio (x) = 0.07733 0.33845
# Poissons Ratio (y) = 0.18120 0.26560
# Poissons Ratio (z) = 0.72939 0.24426
#
# Static dielectric constant tensor:
#      x y z
#    x 1.774830 0.000000 0.000000 
#    y 0.000000 1.807260 0.000000 
#    z 0.000000 0.000000 1.789990 
# 
# From -- ./inp_files/10074.got.cif
#   From: 2010.05.17/outbox.cif.g08.bks.cpg/sg20_6_cif.got.tgz:10074.got - 2010.06.03 22:52:26.
