data_PCOD9319878
_publ_section_title
;
Structure prediction by ZEFSAII (Michael W. Deem and Ramdas Pophale) SiO2 
 PCOD9319878
Probable space group: C 2 2 21
;
_chemical_formula_sum "Si O2"
_cell_formula_units_Z 64
_cell_length_a 18.900576
_cell_length_b 18.304426
_cell_length_c 8.864764
_cell_angle_alpha 90.000000
_cell_angle_beta 90.000000
_cell_angle_gamma 90.000000
_cell_volume 3066.890939
_symmetry_space_group_name_H-M "C 2 2 21"
_symmetry_group_IT_number 20
_symmetry_cell_setting 'orthorhombic'
loop_
_space_group_symop_operation_xyz
x,y,z
-x,-y,1/2+z
x,-y,-z
-x,y,1/2-z
1/2+x,1/2+y,z
1/2-x,1/2-y,1/2+z
1/2+x,1/2-y,-z
1/2-x,1/2+y,1/2-z
loop_
_atom_site_type_symbol
_atom_site_label
_atom_site_fract_x
_atom_site_fract_y
_atom_site_fract_z
Si Si1 0.796862 0.813125 0.913132
Si Si2 0.575888 0.316835 0.801785
Si Si3 0.167406 0.587267 0.473090
Si Si4 0.926685 0.832614 0.338890
Si Si5 0.695052 0.559857 0.875913
Si Si6 0.709172 0.932916 0.097629
Si Si7 0.079824 0.356330 0.260878
Si Si8 0.830016 0.716298 0.205140
O O1 0.859641 0.842661 0.804668
O O2 0.740630 0.773221 0.803704
O O3 0.757191 0.877367 0.002407
O O4 0.822372 0.757586 0.044115
O O5 0.500000 0.345922 0.750000
O O6 0.578107 0.229495 0.774828
O O7 0.575745 0.331790 0.979540
O O8 0.161554 0.500000 0.500000
O O9 0.246829 0.606831 0.530658
O O10 0.107993 0.624992 0.573777
O O11 0.161028 0.629158 0.315685
O O12 0.868949 0.895197 0.305475
O O13 0.895087 0.755388 0.285572
O O14 0.000000 0.845151 0.250000
O O15 0.743544 0.535107 0.735775
O O16 0.671722 0.500000 0.000000
O O17 0.640231 0.891766 0.158161
O O18 0.685117 0.000000 0.000000
O O19 0.000000 0.384809 0.250000
#
# Coordination Sequence:
#
# PCOD9319878 Si02
#       8
#     8   8   8   8   8   8   8   8
#     4  12  23  40  69 102 137 182 236 299 353 432
#     4  11  24  43  68  98 137 183 224 292 369 418
#     4  10  22  40  67  97 132 182 229 280 350 426
#     4  12  26  44  69 104 135 179 240 298 363 440
#     4  10  23  46  69  96 138 184 225 294 360 430
#     4  11  25  41  68 105 133 178 243 288 346 422
#     4  10  22  42  65  93 139 183 222 279 347 418
#     4  12  23  40  67 100 137 176 232 291 353 418
#
# _framework density 20.868037000000001
#
# number of rings (size 3 to 8) (size 9 to 14) (size 15 to 20)
#    0.000    1.000    2.500    4.500    8.750    0.500 
#    0.000    1.875    0.000    0.000    0.000    0.000 
#    0.000    0.000    0.000    0.000    0.000    0.000 
#
# Total GULP energy -178609.938913 kJ/mol
# GULP energy per Si atom -5581.560591 kJ/mol
# Density = 2.082054 g / cm^3
# Si number density = 20.868037 Si / 1000 Ang^3
#
#
#
# Elastic Constant Matrix: (Units=GPa)
#
#
# Indices 1 2 3 4 5 6 
#
# 1 122.7380 14.0027 34.6947 0.0000 0.0000 0.0000
# 2 14.0027 49.4084 6.9892 0.0000 0.0000 0.0000
# 3 34.6947 6.9892 101.1467 0.0000 0.0000 0.0000
# 4 0.0000 0.0000 0.0000 30.0409 0.0000 0.0000
# 5 0.0000 0.0000 0.0000 0.0000 37.7345 0.0000
# 6 0.0000 0.0000 0.0000 0.0000 0.0000 -1.5575
#
#
#
# Elastic Compliance Matrix: (Units=1/GPa)
#
#
# Indices 1 2 3 4 5 6 
#
# 1 0.009252 -0.002195 -0.003022 0.000000 0.000000 0.000000
# 2 -0.002195 0.020960 -0.000696 0.000000 0.000000 0.000000
# 3 -0.003022 -0.000696 0.010971 0.000000 0.000000 0.000000
# 4 0.000000 0.000000 0.000000 0.033288 0.000000 0.000000
# 5 0.000000 0.000000 0.000000 0.000000 0.026501 0.000000
# 6 0.000000 0.000000 0.000000 0.000000 0.000000 -0.642048
#
#
# Mechanical properties :
#
#
# Convention : Reuss Voigt Hill
#
# Bulk Modulus (GPa) = 34.06113 42.74069 38.40091
# Shear Modulus (GPa) = -9.62528 27.75069 9.06271
#
# Velocity S-wave (km/s) = -2.14999 3.65062 2.08622
# Velocity P-wave (km/s) = 3.19285 6.18832 4.92390
#
# Compressibility (1/GPa) = 0.02935898
#
# Stress axis : x y z
#
# Youngs Moduli (GPa) = 108.08441 47.71029 91.14728
#
# Poissons Ratio (x) = 0.10471 0.27544
# Poissons Ratio (y) = 0.23720 0.06340
# Poissons Ratio (z) = 0.32662 0.03318
#
# Static dielectric constant tensor:
#      x y z
#    x 1.741130 0.000000 0.000000 
#    y 0.000000 1.775040 0.000000 
#    z 0.000000 0.000000 1.811890 
# 
# From -- ./inp_files/9664.got.cif
#   From: 2010.05.17/outbox.cif.g08.bks.cpg/sg20_5_cif.got.tgz:9664.got - 2010.06.03 22:52:26.
