data_PCOD9319422
_publ_section_title
;
Structure prediction by ZEFSAII (Michael W. Deem and Ramdas Pophale) SiO2 
 PCOD9319422
Probable space group: C 2 2 21
;
_chemical_formula_sum "Si O2"
_cell_formula_units_Z 44
_cell_length_a 11.765293
_cell_length_b 16.481315
_cell_length_c 12.005903
_cell_angle_alpha 90.000000
_cell_angle_beta 90.000000
_cell_angle_gamma 90.000000
_cell_volume 2328.034636
_symmetry_space_group_name_H-M "C 2 2 21"
_symmetry_group_IT_number 20
_symmetry_cell_setting 'orthorhombic'
loop_
_space_group_symop_operation_xyz
x,y,z
-x,-y,1/2+z
x,-y,-z
-x,y,1/2-z
1/2+x,1/2+y,z
1/2-x,1/2-y,1/2+z
1/2+x,1/2-y,-z
1/2-x,1/2+y,1/2-z
loop_
_atom_site_type_symbol
_atom_site_label
_atom_site_fract_x
_atom_site_fract_y
_atom_site_fract_z
Si Si1 0.965301 0.404463 0.972134
Si Si2 0.911184 0.292135 0.346265
Si Si3 0.206831 0.846505 0.986778
Si Si4 0.817030 0.181005 0.733688
Si Si5 0.955922 0.000000 0.500000
Si Si6 0.500000 0.540870 0.750000
Si Si7 0.500000 0.182204 0.250000
O O1 0.832084 0.380396 0.962323
O O2 0.023922 0.349825 0.067154
O O3 0.975907 0.500000 0.000000
O O4 0.020005 0.375042 0.855977
O O5 0.854285 0.213577 0.401793
O O6 0.800667 0.334837 0.294963
O O7 0.000000 0.269953 0.250000
O O8 0.211310 0.801467 0.105326
O O9 0.122829 0.921530 0.999998
O O10 0.892327 0.100646 0.742765
O O11 0.894818 0.256280 0.774297
O O12 0.011542 0.001062 0.373715
#
# Coordination Sequence:
#
# PCOD9319422 Si02
#       7
#     8   8   8   8   4   4   4
#     4  12  26  43  67 100 135 177 220 278 343 399
#     4  12  25  41  70 103 133 170 233 279 329 406
#     4  11  22  41  66  97 135 175 221 272 337 399
#     4  10  21  42  67  96 129 180 220 277 328 403
#     4  10  22  42  64 100 134 174 222 282 332 400
#     4   9  22  42  68  91 138 174 224 273 342 392
#     4  11  22  42  68  95 134 178 224 267 344 402
#
# _framework density 18.900062999999999
#
# number of rings (size 3 to 8) (size 9 to 14) (size 15 to 20)
#    0.000    1.091    6.364    0.000    2.545    0.000 
#    1.636    0.000    0.000    0.000    0.000    0.000 
#    0.000    0.000    0.000    0.000    0.000    0.000 
#
# Total GULP energy -122575.034278 kJ/mol
# GULP energy per Si atom -5571.592467 kJ/mol
# Density = 1.885705 g / cm^3
# Si number density = 18.900063 Si / 1000 Ang^3
#
#
#
# Elastic Constant Matrix: (Units=GPa)
#
#
# Indices 1 2 3 4 5 6 
#
# 1 91.3486 27.7532 39.7526 0.0000 0.0000 0.0000
# 2 27.7532 80.4185 40.6762 0.0000 0.0000 0.0000
# 3 39.7526 40.6762 138.7329 0.0000 0.0000 0.0000
# 4 0.0000 0.0000 0.0000 30.5391 0.0000 0.0000
# 5 0.0000 0.0000 0.0000 0.0000 9.9824 0.0000
# 6 0.0000 0.0000 0.0000 0.0000 0.0000 14.5571
#
#
#
# Elastic Compliance Matrix: (Units=1/GPa)
#
#
# Indices 1 2 3 4 5 6 
#
# 1 0.013128 -0.003085 -0.002857 0.000000 0.000000 0.000000
# 2 -0.003085 0.015325 -0.003609 0.000000 0.000000 0.000000
# 3 -0.002857 -0.003609 0.009085 0.000000 0.000000 0.000000
# 4 0.000000 0.000000 0.000000 0.032745 0.000000 0.000000
# 5 0.000000 0.000000 0.000000 0.000000 0.100176 0.000000
# 6 0.000000 0.000000 0.000000 0.000000 0.000000 0.068695
#
#
# Mechanical properties :
#
#
# Convention : Reuss Voigt Hill
#
# Bulk Modulus (GPa) = 54.24550 58.54044 56.39297
# Shear Modulus (GPa) = 18.91059 24.50359 21.70709
#
# Velocity S-wave (km/s) = 3.16659 3.60458 3.39266
# Velocity P-wave (km/s) = 6.49101 6.95449 6.72674
#
# Compressibility (1/GPa) = 0.01843471
#
# Stress axis : x y z
#
# Youngs Moduli (GPa) = 76.17432 65.25142 110.07192
#
# Poissons Ratio (x) = 0.20133 0.31448
# Poissons Ratio (y) = 0.23503 0.39728
# Poissons Ratio (z) = 0.21763 0.23551
#
# Static dielectric constant tensor:
#      x y z
#    x 1.640920 0.000000 0.000000 
#    y 0.000000 1.668770 0.000000 
#    z 0.000000 0.000000 1.641380 
# 
# From -- ./inp_files/14075.got.cif
#   From: 2010.05.17/outbox.cif.g08.bks.cpg/sg20_8_cif.got.tgz:14075.got - 2010.06.03 22:52:26.
