data_PCOD9319110
_publ_section_title
;
Structure prediction by ZEFSAII (Michael W. Deem and Ramdas Pophale) SiO2 
 PCOD9319110
Probable space group: C 2 2 21
;
_chemical_formula_sum "Si O2"
_cell_formula_units_Z 56
_cell_length_a 14.142804
_cell_length_b 13.952956
_cell_length_c 12.115525
_cell_angle_alpha 90.000000
_cell_angle_beta 90.000000
_cell_angle_gamma 90.000000
_cell_volume 2390.804064
_symmetry_space_group_name_H-M "C 2 2 21"
_symmetry_group_IT_number 20
_symmetry_cell_setting 'orthorhombic'
loop_
_space_group_symop_operation_xyz
x,y,z
-x,-y,1/2+z
x,-y,-z
-x,y,1/2-z
1/2+x,1/2+y,z
1/2-x,1/2-y,1/2+z
1/2+x,1/2-y,-z
1/2-x,1/2+y,1/2-z
loop_
_atom_site_type_symbol
_atom_site_label
_atom_site_fract_x
_atom_site_fract_y
_atom_site_fract_z
Si Si1 0.746249 0.740471 0.159380
Si Si2 0.089680 0.231234 0.004075
Si Si3 0.282248 0.609939 0.649346
Si Si4 0.422867 0.065971 0.400972
Si Si5 0.596172 0.514513 0.313650
Si Si6 0.886887 0.148472 0.995191
Si Si7 0.140311 0.541957 0.342044
O O1 0.760423 0.800108 0.271209
O O2 0.800782 0.797423 0.061486
O O3 0.794380 0.636460 0.155825
O O4 0.637649 0.739898 0.123137
O O5 0.146765 0.145471 0.944604
O O6 0.103102 0.325312 0.929365
O O7 0.978892 0.212838 0.011733
O O8 0.334462 0.531028 0.724686
O O9 0.189484 0.553416 0.610016
O O10 0.536785 0.061606 0.391210
O O11 0.379630 0.027098 0.288208
O O12 0.389020 0.000000 0.500000
O O13 0.500000 0.539986 0.250000
O O14 0.580402 0.430839 0.404637
O O15 0.636948 0.599801 0.388161
#
# Coordination Sequence:
#
# PCOD9319110 Si02
#       7
#     8   8   8   8   8   8   8
#     4  11  25  43  68 104 143 189 246 298 364 435
#     4  12  24  43  73 100 145 188 243 296 366 433
#     4  11  25  43  70 102 141 183 240 297 360 432
#     4  11  25  47  75 101 143 197 242 293 365 443
#     4  10  21  39  66  95 138 174 229 290 362 430
#     4  10  23  41  65 102 135 188 233 298 363 434
#     4  11  25  44  73 106 146 192 242 300 368 431
#
# _framework density 23.423082000000001
#
# number of rings (size 3 to 8) (size 9 to 14) (size 15 to 20)
#    0.000    1.143    4.286    0.857    6.000    0.000 
#    0.000    0.000    3.143    0.000    0.000    0.000 
#    0.000    0.000    0.000    0.000    0.000    0.000 
#
# Total GULP energy -156823.621973 kJ/mol
# GULP energy per Si atom -5600.843642 kJ/mol
# Density = 2.336977 g / cm^3
# Si number density = 23.423082 Si / 1000 Ang^3
#
#
#
# Elastic Constant Matrix: (Units=GPa)
#
#
# Indices 1 2 3 4 5 6 
#
# 1 67.9133 15.9621 -3.0350 0.0000 0.0000 0.0000
# 2 15.9621 90.9398 12.4740 0.0000 0.0000 0.0000
# 3 -3.0350 12.4740 67.2889 0.0000 0.0000 0.0000
# 4 0.0000 0.0000 0.0000 25.3486 0.0000 0.0000
# 5 0.0000 0.0000 0.0000 0.0000 30.3896 0.0000
# 6 0.0000 0.0000 0.0000 0.0000 0.0000 39.9017
#
#
#
# Elastic Compliance Matrix: (Units=1/GPa)
#
#
# Indices 1 2 3 4 5 6 
#
# 1 0.015457 -0.002882 0.001231 0.000000 0.000000 0.000000
# 2 -0.002882 0.011821 -0.002321 0.000000 0.000000 0.000000
# 3 0.001231 -0.002321 0.015347 0.000000 0.000000 0.000000
# 4 0.000000 0.000000 0.000000 0.039450 0.000000 0.000000
# 5 0.000000 0.000000 0.000000 0.000000 0.032906 0.000000
# 6 0.000000 0.000000 0.000000 0.000000 0.000000 0.025062
#
#
# Mechanical properties :
#
#
# Convention : Reuss Voigt Hill
#
# Bulk Modulus (GPa) = 28.83415 30.77158 29.80287
# Shear Modulus (GPa) = 31.33887 32.51071 31.92479
#
# Velocity S-wave (km/s) = 3.66177 3.72960 3.69584
# Velocity P-wave (km/s) = 5.49681 5.63137 5.56450
#
# Compressibility (1/GPa) = 0.03468109
#
# Stress axis : x y z
#
# Youngs Moduli (GPa) = 64.69531 84.59843 65.15869
#
# Poissons Ratio (x) = 0.24381 -0.08024
# Poissons Ratio (y) = 0.18645 0.15125
# Poissons Ratio (z) = -0.07967 0.19638
#
# Static dielectric constant tensor:
#      x y z
#    x 1.854790 0.000000 0.000000 
#    y 0.000000 1.873240 0.000000 
#    z 0.000000 0.000000 1.858820 
# 
# From -- ./inp_files/15124.got.cif
#   From: 2010.05.17/outbox.cif.g08.bks.cpg/sg20_8_cif.got.tgz:15124.got - 2010.06.03 22:52:26.
