data_PCOD9319490
_publ_section_title
;
Structure prediction by ZEFSAII (Michael W. Deem and Ramdas Pophale) SiO2 
 PCOD9319490
Probable space group: C 2 2 21
;
_chemical_formula_sum "Si O2"
_cell_formula_units_Z 64
_cell_length_a 8.498977
_cell_length_b 15.574825
_cell_length_c 23.240488
_cell_angle_alpha 90.000000
_cell_angle_beta 90.000000
_cell_angle_gamma 90.000000
_cell_volume 3076.345243
_symmetry_space_group_name_H-M "C 2 2 21"
_symmetry_group_IT_number 20
_symmetry_cell_setting 'orthorhombic'
loop_
_space_group_symop_operation_xyz
x,y,z
-x,-y,1/2+z
x,-y,-z
-x,y,1/2-z
1/2+x,1/2+y,z
1/2-x,1/2-y,1/2+z
1/2+x,1/2-y,-z
1/2-x,1/2+y,1/2-z
loop_
_atom_site_type_symbol
_atom_site_label
_atom_site_fract_x
_atom_site_fract_y
_atom_site_fract_z
Si Si1 0.068916 0.304130 0.604288
Si Si2 0.827538 0.617245 0.224701
Si Si3 0.859912 0.061388 0.705376
Si Si4 0.647001 0.768541 0.292128
Si Si5 0.273942 0.408091 0.524534
Si Si6 0.300388 0.326182 0.900111
Si Si7 0.538754 0.491883 0.599146
Si Si8 0.072868 0.150104 0.528654
O O1 0.146620 0.338035 0.662513
O O2 0.126039 0.363646 0.551984
O O3 0.881891 0.305980 0.608785
O O4 0.119283 0.211511 0.580836
O O5 0.729951 0.528606 0.218584
O O6 0.743363 0.688682 0.264358
O O7 0.000000 0.597993 0.250000
O O8 0.746931 0.143826 0.705067
O O9 0.000000 0.075570 0.750000
O O10 0.950858 0.048955 0.645539
O O11 0.500000 0.781826 0.250000
O O12 0.606454 0.737385 0.357132
O O13 0.228365 0.500000 0.500000
O O14 0.402301 0.431723 0.573024
O O15 0.382245 0.352264 0.481456
O O16 0.334382 0.423909 0.879270
O O17 0.348241 0.324646 0.967776
O O18 0.607138 0.554221 0.550514
#
# Coordination Sequence:
#
# PCOD9319490 Si02
#       8
#     8   8   8   8   8   8   8   8
#     4  12  23  40  66 100 137 173 228 280 336 399
#     4  12  25  46  70 103 141 181 229 289 345 413
#     4  12  26  45  74 100 133 184 231 288 351 405
#     4  12  27  47  71 102 137 177 234 287 347 416
#     4   9  20  40  65  91 128 176 223 276 335 399
#     4  11  23  43  69 100 138 179 224 284 341 406
#     4  10  21  43  68  94 132 179 225 274 344 410
#     4  10  23  41  66  96 135 182 229 272 338 411
#
# _framework density 20.803906000000001
#
# number of rings (size 3 to 8) (size 9 to 14) (size 15 to 20)
#    0.000    1.000    2.500    5.250    3.500    2.000 
#    0.000    0.000    0.000    0.000    0.000    0.000 
#    0.000    0.000    0.000    0.000    0.000    0.000 
#
# Total GULP energy -178671.578507 kJ/mol
# GULP energy per Si atom -5583.486828 kJ/mol
# Density = 2.075656 g / cm^3
# Si number density = 20.803906 Si / 1000 Ang^3
#
#
#
# Elastic Constant Matrix: (Units=GPa)
#
#
# Indices 1 2 3 4 5 6 
#
# 1 28.5933 29.9300 22.2406 0.0000 0.0000 0.0000
# 2 29.9300 123.3552 57.6554 0.0000 0.0000 0.0000
# 3 22.2406 57.6554 81.0433 0.0000 0.0000 0.0000
# 4 0.0000 0.0000 0.0000 34.5154 0.0000 0.0000
# 5 0.0000 0.0000 0.0000 0.0000 32.9005 0.0000
# 6 0.0000 0.0000 0.0000 0.0000 0.0000 29.9325
#
#
#
# Elastic Compliance Matrix: (Units=1/GPa)
#
#
# Indices 1 2 3 4 5 6 
#
# 1 0.049819 -0.008536 -0.007599 0.000000 0.000000 0.000000
# 2 -0.008536 0.013608 -0.007338 0.000000 0.000000 0.000000
# 3 -0.007599 -0.007338 0.019645 0.000000 0.000000 0.000000
# 4 0.000000 0.000000 0.000000 0.028973 0.000000 0.000000
# 5 0.000000 0.000000 0.000000 0.000000 0.030395 0.000000
# 6 0.000000 0.000000 0.000000 0.000000 0.000000 0.033409
#
#
# Mechanical properties :
#
#
# Convention : Reuss Voigt Hill
#
# Bulk Modulus (GPa) = 27.68162 50.29376 38.98769
# Shear Modulus (GPa) = 21.29152 27.68073 24.48613
#
# Velocity S-wave (km/s) = 3.20259 3.65163 3.43446
# Velocity P-wave (km/s) = 5.19715 6.48127 5.87440
#
# Compressibility (1/GPa) = 0.03612506
#
# Stress axis : x y z
#
# Youngs Moduli (GPa) = 20.07269 73.48868 50.90368
#
# Poissons Ratio (x) = 0.62729 0.38683
# Poissons Ratio (y) = 0.17134 0.37354
# Poissons Ratio (z) = 0.15254 0.53927
#
# Static dielectric constant tensor:
#      x y z
#    x 1.735560 0.000000 0.000000 
#    y 0.000000 1.771410 0.000000 
#    z 0.000000 0.000000 1.882070 
# 
# From -- ./inp_files/28887.got.cif
#   From: 2010.05.17/outbox.cif.g08.bks.cpg/sg20_15_cif.got.tgz:28887.got - 2010.06.03 22:52:26.
