data_PCOD9319839
_publ_section_title
;
Structure prediction by ZEFSAII (Michael W. Deem and Ramdas Pophale) SiO2 
 PCOD9319839
Probable space group: C 2 2 21
;
_chemical_formula_sum "Si O2"
_cell_formula_units_Z 40
_cell_length_a 7.242895
_cell_length_b 18.376227
_cell_length_c 13.704532
_cell_angle_alpha 90.000000
_cell_angle_beta 90.000000
_cell_angle_gamma 90.000000
_cell_volume 1824.033228
_symmetry_space_group_name_H-M "C 2 2 21"
_symmetry_group_IT_number 20
_symmetry_cell_setting 'orthorhombic'
loop_
_space_group_symop_operation_xyz
x,y,z
-x,-y,1/2+z
x,-y,-z
-x,y,1/2-z
1/2+x,1/2+y,z
1/2-x,1/2-y,1/2+z
1/2+x,1/2-y,-z
1/2-x,1/2+y,1/2-z
loop_
_atom_site_type_symbol
_atom_site_label
_atom_site_fract_x
_atom_site_fract_y
_atom_site_fract_z
Si Si1 0.000000 0.364128 0.250000
Si Si2 0.225512 0.117878 0.229109
Si Si3 0.808429 0.155840 0.063090
Si Si4 0.773048 0.000000 0.000000
Si Si5 0.341555 0.752461 0.386981
Si Si6 0.092584 0.488216 0.389064
O O1 0.856980 0.310918 0.301673
O O2 0.103084 0.412351 0.331672
O O3 0.296893 0.137793 0.336742
O O4 0.270333 0.184163 0.155499
O O5 0.312332 0.047046 0.180310
O O6 0.000000 0.109198 0.250000
O O7 0.968133 0.211241 0.091960
O O8 0.871614 0.077096 0.018866
O O9 0.702016 0.200298 0.981339
O O10 0.628788 0.992485 0.090151
O O11 0.167547 0.500000 0.500000
#
# Coordination Sequence:
#
# PCOD9319839 Si02
#       6
#     4   8   8   4   8   8
#     4  12  20  44  64  96 134 178 212 276 336 394
#     4  10  23  44  65  95 140 178 219 283 337 395
#     4  11  23  44  66  98 130 183 216 277 343 399
#     4  10  22  40  64  96 126 176 210 284 326 404
#     4  11  24  43  68  96 138 173 223 280 341 398
#     4  10  23  39  69  97 128 179 229 265 328 409
#
# _framework density 21.929425999999999
#
# number of rings (size 3 to 8) (size 9 to 14) (size 15 to 20)
#    0.600    0.800    5.000    1.200    5.600    0.000 
#    7.200    0.000    0.000    0.000    0.000    0.000 
#    0.000    0.000    0.000    0.000    0.000    0.000 
#
# Total GULP energy -111390.822827 kJ/mol
# GULP energy per Si atom -5569.541141 kJ/mol
# Density = 2.187951 g / cm^3
# Si number density = 21.929426 Si / 1000 Ang^3
#
#
#
# Elastic Constant Matrix: (Units=GPa)
#
#
# Indices 1 2 3 4 5 6 
#
# 1 26.4188 20.5068 8.5349 0.0000 0.0000 0.0000
# 2 20.5068 138.0725 25.6936 0.0000 0.0000 0.0000
# 3 8.5349 25.6936 96.8828 0.0000 0.0000 0.0000
# 4 0.0000 0.0000 0.0000 37.0896 0.0000 0.0000
# 5 0.0000 0.0000 0.0000 0.0000 22.6973 0.0000
# 6 0.0000 0.0000 0.0000 0.0000 0.0000 29.3945
#
#
#
# Elastic Compliance Matrix: (Units=1/GPa)
#
#
# Indices 1 2 3 4 5 6 
#
# 1 0.043231 -0.006009 -0.002215 0.000000 0.000000 0.000000
# 2 -0.006009 0.008454 -0.001713 0.000000 0.000000 0.000000
# 3 -0.002215 -0.001713 0.010971 0.000000 0.000000 0.000000
# 4 0.000000 0.000000 0.000000 0.026962 0.000000 0.000000
# 5 0.000000 0.000000 0.000000 0.000000 0.044058 0.000000
# 6 0.000000 0.000000 0.000000 0.000000 0.000000 0.034020
#
#
# Mechanical properties :
#
#
# Convention : Reuss Voigt Hill
#
# Bulk Modulus (GPa) = 23.37337 41.20498 32.28918
# Shear Modulus (GPa) = 24.77335 31.61218 28.19277
#
# Velocity S-wave (km/s) = 3.36473 3.80088 3.58944
# Velocity P-wave (km/s) = 5.07708 6.17194 5.65109
#
# Compressibility (1/GPa) = 0.04278373
#
# Stress axis : x y z
#
# Youngs Moduli (GPa) = 23.13132 118.29158 91.14880
#
# Poissons Ratio (x) = 0.71077 0.20189
# Poissons Ratio (y) = 0.13899 0.15610
# Poissons Ratio (z) = 0.05124 0.20259
#
# Static dielectric constant tensor:
#      x y z
#    x 1.896240 0.000000 0.000000 
#    y 0.000000 1.794290 0.000000 
#    z 0.000000 0.000000 1.818310 
# 
# From -- ./inp_files/12933.got.cif
#   From: 2010.05.17/outbox.cif.g08.bks.cpg/sg20_7_cif.got.tgz:12933.got - 2010.06.03 22:52:26.
