data_PCOD9319537
_publ_section_title
;
Structure prediction by ZEFSAII (Michael W. Deem and Ramdas Pophale) SiO2 
 PCOD9319537
Probable space group: C 2 2 21
;
_chemical_formula_sum "Si O2"
_cell_formula_units_Z 40
_cell_length_a 14.198768
_cell_length_b 20.123204
_cell_length_c 5.527924
_cell_angle_alpha 90.000000
_cell_angle_beta 90.000000
_cell_angle_gamma 90.000000
_cell_volume 1579.464454
_symmetry_space_group_name_H-M "C 2 2 21"
_symmetry_group_IT_number 20
_symmetry_cell_setting 'orthorhombic'
loop_
_space_group_symop_operation_xyz
x,y,z
-x,-y,1/2+z
x,-y,-z
-x,y,1/2-z
1/2+x,1/2+y,z
1/2-x,1/2-y,1/2+z
1/2+x,1/2-y,-z
1/2-x,1/2+y,1/2-z
loop_
_atom_site_type_symbol
_atom_site_label
_atom_site_fract_x
_atom_site_fract_y
_atom_site_fract_z
Si Si1 0.106568 0.068152 0.404918
Si Si2 0.587211 0.703700 0.512690
Si Si3 0.730873 0.500000 0.000000
Si Si4 0.616851 0.754138 0.025863
Si Si5 0.054510 0.500000 0.000000
Si Si6 0.305287 0.100926 0.631789
O O1 0.041591 0.130231 0.479675
O O2 0.198142 0.092656 0.551720
O O3 0.062870 0.000000 0.500000
O O4 0.158947 0.044104 0.162091
O O5 0.643095 0.709634 0.259684
O O6 0.497623 0.753163 0.493424
O O7 0.639925 0.723552 0.760669
O O8 0.798185 0.555123 0.872346
O O9 0.658627 0.824613 0.104369
O O10 0.124059 0.438441 0.958036
O O11 0.000000 0.487821 0.250000
#
# Coordination Sequence:
#
# PCOD9319537 Si02
#       6
#     8   8   4   8   4   8
#     4  10  23  43  74 101 138 182 238 300 354 423
#     4  10  24  46  67 104 139 187 233 291 354 431
#     4  10  21  44  72 106 143 184 244 296 355 424
#     4  10  25  43  69  97 148 182 232 287 356 429
#     4  12  27  38  66  98 141 184 232 282 341 420
#     4  11  24  43  68 104 141 188 233 292 355 421
#
# _framework density 25.325040000000001
#
# number of rings (size 3 to 8) (size 9 to 14) (size 15 to 20)
#    0.000    1.600    3.000    0.600   14.000    1.600 
#    0.000    4.000    0.000    0.000    0.000    0.000 
#    0.000    0.000    0.000    0.000    0.000    0.000 
#
# Total GULP energy -111353.294732 kJ/mol
# GULP energy per Si atom -5567.664737 kJ/mol
# Density = 2.526740 g / cm^3
# Si number density = 25.325040 Si / 1000 Ang^3
#
#
#
# Elastic Constant Matrix: (Units=GPa)
#
#
# Indices 1 2 3 4 5 6 
#
# 1 83.8847 19.3358 12.2664 0.0000 0.0000 0.0000
# 2 19.3358 188.5695 67.6874 0.0000 0.0000 0.0000
# 3 12.2664 67.6874 191.5676 0.0000 0.0000 0.0000
# 4 0.0000 0.0000 0.0000 33.0306 0.0000 0.0000
# 5 0.0000 0.0000 0.0000 0.0000 103.8980 0.0000
# 6 0.0000 0.0000 0.0000 0.0000 0.0000 61.2040
#
#
#
# Elastic Compliance Matrix: (Units=1/GPa)
#
#
# Indices 1 2 3 4 5 6 
#
# 1 0.012235 -0.001115 -0.000390 0.000000 0.000000 0.000000
# 2 -0.001115 0.006175 -0.002110 0.000000 0.000000 0.000000
# 3 -0.000390 -0.002110 0.005991 0.000000 0.000000 0.000000
# 4 0.000000 0.000000 0.000000 0.030275 0.000000 0.000000
# 5 0.000000 0.000000 0.000000 0.000000 0.009625 0.000000
# 6 0.000000 0.000000 0.000000 0.000000 0.000000 0.016339
#
#
# Mechanical properties :
#
#
# Convention : Reuss Voigt Hill
#
# Bulk Modulus (GPa) = 58.23695 73.62235 65.92965
# Shear Modulus (GPa) = 53.42311 63.94202 58.68256
#
# Velocity S-wave (km/s) = 4.59791 5.03024 4.81893
# Velocity P-wave (km/s) = 7.15775 7.92918 7.55332
#
# Compressibility (1/GPa) = 0.01717123
#
# Stress axis : x y z
#
# Youngs Moduli (GPa) = 81.73246 161.94504 166.92471
#
# Poissons Ratio (x) = 0.18053 0.06503
# Poissons Ratio (y) = 0.09111 0.35228
# Poissons Ratio (z) = 0.03184 0.34178
#
# Static dielectric constant tensor:
#      x y z
#    x 2.093590 0.000000 0.000000 
#    y 0.000000 1.501360 0.000000 
#    z 0.000000 0.000000 2.204880 
# 
# From -- ./inp_files/2515.got.cif
#   From: 2010.05.17/outbox.cif.g08.bks.cpg/sg20_2_cif.got.tgz:2515.got - 2010.06.03 22:52:26.
