data_PCOD9319605
_publ_section_title
;
Structure prediction by ZEFSAII (Michael W. Deem and Ramdas Pophale) SiO2 
 PCOD9319605
Probable space group: C 2 2 21
;
_chemical_formula_sum "Si O2"
_cell_formula_units_Z 40
_cell_length_a 32.551114
_cell_length_b 6.457882
_cell_length_c 10.982933
_cell_angle_alpha 90.000000
_cell_angle_beta 90.000000
_cell_angle_gamma 90.000000
_cell_volume 2308.736110
_symmetry_space_group_name_H-M "C 2 2 21"
_symmetry_group_IT_number 20
_symmetry_cell_setting 'orthorhombic'
loop_
_space_group_symop_operation_xyz
x,y,z
-x,-y,1/2+z
x,-y,-z
-x,y,1/2-z
1/2+x,1/2+y,z
1/2-x,1/2-y,1/2+z
1/2+x,1/2-y,-z
1/2-x,1/2+y,1/2-z
loop_
_atom_site_type_symbol
_atom_site_label
_atom_site_fract_x
_atom_site_fract_y
_atom_site_fract_z
Si Si1 0.298653 0.500000 0.000000
Si Si2 0.748666 0.126861 0.616710
Si Si3 0.936150 0.000000 0.500000
Si Si4 0.316022 0.792805 0.794323
Si Si5 0.526134 0.117261 0.874148
Si Si6 0.110386 0.378195 0.882490
O O1 0.269298 0.653713 0.075093
O O2 0.324109 0.350417 0.088477
O O3 0.785449 0.161331 0.709048
O O4 0.764135 0.000000 0.500000
O O5 0.710888 0.992011 0.668062
O O6 0.964028 0.852397 0.584861
O O7 0.907272 0.843483 0.424735
O O8 0.356277 0.855205 0.721599
O O9 0.500000 0.103405 0.750000
O O10 0.570190 0.010486 0.847532
O O11 0.511009 0.000000 0.000000
O O12 0.128408 0.500000 0.000000
#
# Coordination Sequence:
#
# PCOD9319605 Si02
#       6
#     4   8   4   8   8   8
#     4  10  22  38  50  77 108 148 192 242 283 342
#     4  10  22  35  53  78 105 146 193 237 283 330
#     4   8  18  36  56  91 110 146 190 230 271 348
#     4  11  21  37  55  79 114 148 191 239 285 332
#     4   9  19  39  61  88 120 147 186 233 286 347
#     4   9  21  35  56  85 114 144 188 237 278 332
#
# _framework density 17.325496000000001
#
# number of rings (size 3 to 8) (size 9 to 14) (size 15 to 20)
#    0.000    2.800    2.000    0.000    2.800    6.400 
#    0.000    5.000    0.000    1.200    0.000    0.000 
#    0.000    0.000    0.000    0.000    0.000    0.000 
#
# Total GULP energy -111432.050871 kJ/mol
# GULP energy per Si atom -5571.602544 kJ/mol
# Density = 1.728606 g / cm^3
# Si number density = 17.325496 Si / 1000 Ang^3
#
#
#
# Elastic Constant Matrix: (Units=GPa)
#
#
# Indices 1 2 3 4 5 6 
#
# 1 67.9954 37.2142 64.6553 0.0000 0.0000 0.0000
# 2 37.2142 105.2002 46.4877 0.0000 0.0000 0.0000
# 3 64.6553 46.4877 119.5318 0.0000 0.0000 0.0000
# 4 0.0000 0.0000 0.0000 21.4204 0.0000 0.0000
# 5 0.0000 0.0000 0.0000 0.0000 84.1215 0.0000
# 6 0.0000 0.0000 0.0000 0.0000 0.0000 6.5478
#
#
#
# Elastic Compliance Matrix: (Units=1/GPa)
#
#
# Indices 1 2 3 4 5 6 
#
# 1 0.031897 -0.004419 -0.015535 0.000000 0.000000 0.000000
# 2 -0.004419 0.012090 -0.002312 0.000000 0.000000 0.000000
# 3 -0.015535 -0.002312 0.017668 0.000000 0.000000 0.000000
# 4 0.000000 0.000000 0.000000 0.046684 0.000000 0.000000
# 5 0.000000 0.000000 0.000000 0.000000 0.011888 0.000000
# 6 0.000000 0.000000 0.000000 0.000000 0.000000 0.152724
#
#
# Mechanical properties :
#
#
# Convention : Reuss Voigt Hill
#
# Bulk Modulus (GPa) = 58.39615 65.49354 61.94485
# Shear Modulus (GPa) = 15.47080 32.04263 23.75671
#
# Velocity S-wave (km/s) = 2.99147 4.30519 3.70699
# Velocity P-wave (km/s) = 6.76094 7.91181 7.35891
#
# Compressibility (1/GPa) = 0.01712442
#
# Stress axis : x y z
#
# Youngs Moduli (GPa) = 31.35118 82.70977 56.59976
#
# Poissons Ratio (x) = 0.36547 0.87926
# Poissons Ratio (y) = 0.13853 0.13086
# Poissons Ratio (z) = 0.48703 0.19123
#
# Static dielectric constant tensor:
#      x y z
#    x 1.546420 0.000000 0.000000 
#    y 0.000000 1.602150 0.000000 
#    z 0.000000 0.000000 1.630340 
# 
# From -- ./inp_files/12192.got.cif
#   From: 2010.05.17/outbox.cif.g08.bks.cpg/sg20_7_cif.got.tgz:12192.got - 2010.06.03 22:52:26.
