data_PCOD9319231
_publ_section_title
;
Structure prediction by ZEFSAII (Michael W. Deem and Ramdas Pophale) SiO2 
 PCOD9319231
Probable space group: C 2 2 21
;
_chemical_formula_sum "Si O2"
_cell_formula_units_Z 20
_cell_length_a 19.248104
_cell_length_b 9.133020
_cell_length_c 5.113414
_cell_angle_alpha 90.000000
_cell_angle_beta 90.000000
_cell_angle_gamma 90.000000
_cell_volume 898.904017
_symmetry_space_group_name_H-M "C 2 2 21"
_symmetry_group_IT_number 20
_symmetry_cell_setting 'orthorhombic'
loop_
_space_group_symop_operation_xyz
x,y,z
-x,-y,1/2+z
x,-y,-z
-x,y,1/2-z
1/2+x,1/2+y,z
1/2-x,1/2-y,1/2+z
1/2+x,1/2-y,-z
1/2-x,1/2+y,1/2-z
loop_
_atom_site_type_symbol
_atom_site_label
_atom_site_fract_x
_atom_site_fract_y
_atom_site_fract_z
Si Si1 0.210841 0.395803 0.248440
Si Si2 0.141921 0.827995 0.435729
Si Si3 0.500000 0.606064 0.750000
O O1 0.212691 0.500000 0.500000
O O2 0.153990 0.272481 0.311592
O O3 0.286016 0.317382 0.222875
O O4 0.198855 0.500000 0.000000
O O5 0.069119 0.799034 0.297290
O O6 0.138552 0.000000 0.500000
O O7 0.488023 0.500000 0.500000
#
# Coordination Sequence:
#
# PCOD9319231 Si02
#       3
#     8   8   4
#     4  11  23  38  63  98 134 173 219 272 328 389
#     4  10  21  40  66  97 133 172 220 270 327 392
#     4  10  22  38  64 100 132 166 218 278 326 380
#
# _framework density 22.249314999999999
#
# number of rings (size 3 to 8) (size 9 to 14) (size 15 to 20)
#    0.000    1.600    0.000    6.000    0.000    9.600 
#    0.000    0.000    0.000   19.200    0.000    2.800 
#    0.000    0.000    0.000    0.000    0.000    0.000 
#
# Total GULP energy -55903.195485 kJ/mol
# GULP energy per Si atom -5590.319548 kJ/mol
# Density = 2.219867 g / cm^3
# Si number density = 22.249315 Si / 1000 Ang^3
#
#
#
# Elastic Constant Matrix: (Units=GPa)
#
#
# Indices 1 2 3 4 5 6 
#
# 1 175.2428 52.7878 59.8200 0.0000 0.0000 0.0000
# 2 52.7878 112.3552 56.9559 0.0000 0.0000 0.0000
# 3 59.8200 56.9559 165.8269 0.0000 0.0000 0.0000
# 4 0.0000 0.0000 0.0000 45.4186 0.0000 0.0000
# 5 0.0000 0.0000 0.0000 0.0000 33.4660 0.0000
# 6 0.0000 0.0000 0.0000 0.0000 0.0000 14.4046
#
#
#
# Elastic Compliance Matrix: (Units=1/GPa)
#
#
# Indices 1 2 3 4 5 6 
#
# 1 0.007019 -0.002439 -0.001694 0.000000 0.000000 0.000000
# 2 -0.002439 0.011624 -0.003113 0.000000 0.000000 0.000000
# 3 -0.001694 -0.003113 0.007711 0.000000 0.000000 0.000000
# 4 0.000000 0.000000 0.000000 0.022017 0.000000 0.000000
# 5 0.000000 0.000000 0.000000 0.000000 0.029881 0.000000
# 6 0.000000 0.000000 0.000000 0.000000 0.000000 0.069422
#
#
# Mechanical properties :
#
#
# Convention : Reuss Voigt Hill
#
# Bulk Modulus (GPa) = 84.30203 88.06133 86.18168
# Shear Modulus (GPa) = 30.09847 37.58191 33.84019
#
# Velocity S-wave (km/s) = 3.68201 4.11436 3.90417
# Velocity P-wave (km/s) = 7.48654 7.88897 7.69039
#
# Compressibility (1/GPa) = 0.01186211
#
# Stress axis : x y z
#
# Youngs Moduli (GPa) = 142.46082 86.02786 129.68916
#
# Poissons Ratio (x) = 0.20982 0.21976
# Poissons Ratio (y) = 0.34746 0.40368
# Poissons Ratio (z) = 0.24140 0.26778
#
# Static dielectric constant tensor:
#      x y z
#    x 1.848810 0.000000 0.000000 
#    y 0.000000 1.825040 0.000000 
#    z 0.000000 0.000000 1.889950 
# 
# From -- ./inp_files/260.got.cif
#   From: 2010.05.17/outbox.cif.g08.bks.cpg/sg20_1_cif.got.tgz:260.got - 2010.06.03 22:52:26.
