data_PCOD9319234
_publ_section_title
;
Structure prediction by ZEFSAII (Michael W. Deem and Ramdas Pophale) SiO2 
 PCOD9319234
Probable space group: C 2 2 21
;
_chemical_formula_sum "Si O2"
_cell_formula_units_Z 44
_cell_length_a 8.739334
_cell_length_b 28.326048
_cell_length_c 8.441468
_cell_angle_alpha 90.000000
_cell_angle_beta 90.000000
_cell_angle_gamma 90.000000
_cell_volume 2089.692109
_symmetry_space_group_name_H-M "C 2 2 21"
_symmetry_group_IT_number 20
_symmetry_cell_setting 'orthorhombic'
loop_
_space_group_symop_operation_xyz
x,y,z
-x,-y,1/2+z
x,-y,-z
-x,y,1/2-z
1/2+x,1/2+y,z
1/2-x,1/2-y,1/2+z
1/2+x,1/2-y,-z
1/2-x,1/2+y,1/2-z
loop_
_atom_site_type_symbol
_atom_site_label
_atom_site_fract_x
_atom_site_fract_y
_atom_site_fract_z
Si Si1 0.889874 0.461481 0.880823
Si Si2 0.582754 0.699267 0.960704
Si Si3 0.760713 0.892172 0.373479
Si Si4 0.731547 0.734874 0.640647
Si Si5 0.000000 0.672335 0.750000
Si Si6 0.165020 0.976647 0.327693
O O1 0.781628 0.493341 0.774663
O O2 0.000000 0.437924 0.750000
O O3 0.968888 0.500000 0.000000
O O4 0.785277 0.427403 0.985901
O O5 0.604046 0.644200 0.918048
O O6 0.656855 0.728371 0.813418
O O7 0.406388 0.715789 0.971274
O O8 0.697729 0.714248 0.100793
O O9 0.612083 0.860080 0.350246
O O10 0.790066 0.922171 0.212635
O O11 0.884577 0.702921 0.643146
O O12 0.000000 0.981637 0.250000
O O13 0.161148 0.000000 0.500000
#
# Coordination Sequence:
#
# PCOD9319234 Si02
#       6
#     8   8   8   8   4   8
#     4  10  22  40  62  92 128 172 216 277 334 400
#     4  10  21  41  64  97 126 180 215 275 326 401
#     4  10  23  39  62  94 133 166 231 268 331 402
#     4  10  21  40  67  89 133 168 223 265 341 384
#     4  10  22  38  62  98 122 178 218 276 324 396
#     4  11  24  42  67  90 130 171 215 277 344 404
#
# _framework density 21.055734000000001
#
# number of rings (size 3 to 8) (size 9 to 14) (size 15 to 20)
#    0.000    1.818    0.000    4.364   12.727    0.000 
#    6.545    0.000   10.000    0.000    0.000    0.000 
#    0.000    0.000    0.000    0.000    0.000    0.000 
#
# Total GULP energy -122610.699118 kJ/mol
# GULP energy per Si atom -5573.213596 kJ/mol
# Density = 2.100781 g / cm^3
# Si number density = 21.055734 Si / 1000 Ang^3
#
#
#
# Elastic Constant Matrix: (Units=GPa)
#
#
# Indices 1 2 3 4 5 6 
#
# 1 121.8619 37.0699 25.6041 0.0000 0.0000 0.0000
# 2 37.0699 103.9655 38.5596 0.0000 0.0000 0.0000
# 3 25.6041 38.5596 76.4146 0.0000 0.0000 0.0000
# 4 0.0000 0.0000 0.0000 23.1601 0.0000 0.0000
# 5 0.0000 0.0000 0.0000 0.0000 26.6464 0.0000
# 6 0.0000 0.0000 0.0000 0.0000 0.0000 -13.6615
#
#
#
# Elastic Compliance Matrix: (Units=1/GPa)
#
#
# Indices 1 2 3 4 5 6 
#
# 1 0.009400 -0.002686 -0.001794 0.000000 0.000000 0.000000
# 2 -0.002686 0.012601 -0.005458 0.000000 0.000000 0.000000
# 3 -0.001794 -0.005458 0.016442 0.000000 0.000000 0.000000
# 4 0.000000 0.000000 0.000000 0.043178 0.000000 0.000000
# 5 0.000000 0.000000 0.000000 0.000000 0.037528 0.000000
# 6 0.000000 0.000000 0.000000 0.000000 0.000000 -0.073199
#
#
# Mechanical properties :
#
#
# Convention : Reuss Voigt Hill
#
# Bulk Modulus (GPa) = 53.86394 56.07879 54.97137
# Shear Modulus (GPa) = 69.42818 20.62957 45.02888
#
# Velocity S-wave (km/s) = 5.74849 3.13351 4.62947
# Velocity P-wave (km/s) = 8.34849 6.30739 7.39866
#
# Compressibility (1/GPa) = 0.01856530
#
# Stress axis : x y z
#
# Youngs Moduli (GPa) = 106.38155 79.35966 60.81967
#
# Poissons Ratio (x) = 0.21318 0.10912
# Poissons Ratio (y) = 0.28577 0.33198
# Poissons Ratio (z) = 0.19087 0.43318
#
# Static dielectric constant tensor:
#      x y z
#    x 1.846710 0.000000 0.000000 
#    y 0.000000 1.829150 0.000000 
#    z 0.000000 0.000000 1.835690 
# 
# From -- ./inp_files/6373.got.cif
#   From: 2010.05.17/outbox.cif.g08.bks.cpg/sg20_4_cif.got.tgz:6373.got - 2010.06.03 22:52:26.
