data_PCOD9319035
_publ_section_title
;
Structure prediction by ZEFSAII (Michael W. Deem and Ramdas Pophale) SiO2 
 PCOD9319035
Probable space group: C 2 2 21
;
_chemical_formula_sum "Si O2"
_cell_formula_units_Z 48
_cell_length_a 12.425642
_cell_length_b 16.750569
_cell_length_c 11.106651
_cell_angle_alpha 90.000000
_cell_angle_beta 90.000000
_cell_angle_gamma 90.000000
_cell_volume 2311.700284
_symmetry_space_group_name_H-M "C 2 2 21"
_symmetry_group_IT_number 20
_symmetry_cell_setting 'orthorhombic'
loop_
_space_group_symop_operation_xyz
x,y,z
-x,-y,1/2+z
x,-y,-z
-x,y,1/2-z
1/2+x,1/2+y,z
1/2-x,1/2-y,1/2+z
1/2+x,1/2-y,-z
1/2-x,1/2+y,1/2-z
loop_
_atom_site_type_symbol
_atom_site_label
_atom_site_fract_x
_atom_site_fract_y
_atom_site_fract_z
Si Si1 0.913860 0.078598 0.919043
Si Si2 0.386423 0.632006 0.319228
Si Si3 0.155384 0.649509 0.643540
Si Si4 0.766385 0.178234 0.087343
Si Si5 0.648931 0.453489 0.145236
Si Si6 0.085051 0.311662 0.089019
O O1 0.862145 0.060237 0.789795
O O2 0.041148 0.091380 0.900349
O O3 0.855374 0.148857 0.990876
O O4 0.899812 0.000000 0.000000
O O5 0.500000 0.622506 0.250000
O O6 0.295612 0.640983 0.216132
O O7 0.364911 0.547454 0.381194
O O8 0.399276 0.715715 0.389983
O O9 0.221725 0.728162 0.609136
O O10 0.234026 0.577985 0.610053
O O11 0.131906 0.651639 0.786828
O O12 0.038789 0.661648 0.583527
O O13 0.652884 0.161018 0.025673
#
# Coordination Sequence:
#
# PCOD9319035 Si02
#       6
#     8   8   8   8   8   8
#     4  11  21  35  60  95 125 156 209 268 327 378
#     4  11  19  39  64  95 126 165 212 277 336 370
#     4  10  22  37  58  91 126 166 210 262 317 385
#     4  11  21  36  63  89 121 171 216 257 321 400
#     4  11  22  36  61  97 125 156 205 285 322 370
#     4  10  21  39  61  87 128 173 214 249 324 395
#
# _framework density 20.763938
#
# number of rings (size 3 to 8) (size 9 to 14) (size 15 to 20)
#    0.000    1.333    8.333    0.000    2.333    0.000 
#    0.000    0.000    0.000   17.000    0.000    0.000 
#    0.000    0.000    0.000    0.000    0.000    0.000 
#
# Total GULP energy -134065.364784 kJ/mol
# GULP energy per Si atom -5586.056866 kJ/mol
# Density = 2.071668 g / cm^3
# Si number density = 20.763938 Si / 1000 Ang^3
#
#
#
# Elastic Constant Matrix: (Units=GPa)
#
#
# Indices 1 2 3 4 5 6 
#
# 1 122.0256 20.7478 20.8308 0.0000 0.0000 0.0000
# 2 20.7478 60.9732 -5.1615 0.0000 0.0000 0.0000
# 3 20.8308 -5.1615 49.1472 0.0000 0.0000 0.0000
# 4 0.0000 0.0000 0.0000 13.9617 0.0000 0.0000
# 5 0.0000 0.0000 0.0000 0.0000 38.5491 0.0000
# 6 0.0000 0.0000 0.0000 0.0000 0.0000 35.6233
#
#
#
# Elastic Compliance Matrix: (Units=1/GPa)
#
#
# Indices 1 2 3 4 5 6 
#
# 1 0.009570 -0.003632 -0.004438 0.000000 0.000000 0.000000
# 2 -0.003632 0.017926 0.003422 0.000000 0.000000 0.000000
# 3 -0.004438 0.003422 0.022587 0.000000 0.000000 0.000000
# 4 0.000000 0.000000 0.000000 0.071624 0.000000 0.000000
# 5 0.000000 0.000000 0.000000 0.000000 0.025941 0.000000
# 6 0.000000 0.000000 0.000000 0.000000 0.000000 0.028072
#
#
# Mechanical properties :
#
#
# Convention : Reuss Voigt Hill
#
# Bulk Modulus (GPa) = 24.51685 33.88667 29.20176
# Shear Modulus (GPa) = 25.17468 30.67542 27.92505
#
# Velocity S-wave (km/s) = 3.48576 3.84779 3.67124
# Velocity P-wave (km/s) = 5.29469 6.00800 5.66259
#
# Compressibility (1/GPa) = 0.04078827
#
# Stress axis : x y z
#
# Youngs Moduli (GPa) = 104.49182 55.78398 44.27262
#
# Poissons Ratio (x) = 0.20262 0.19647
# Poissons Ratio (y) = 0.37953 -0.15151
# Poissons Ratio (z) = 0.46370 -0.19090
#
# Static dielectric constant tensor:
#      x y z
#    x 1.739280 0.000000 0.000000 
#    y 0.000000 1.734020 0.000000 
#    z 0.000000 0.000000 1.812420 
# 
# From -- ./inp_files/14111.got.cif
#   From: 2010.05.17/outbox.cif.g08.bks.cpg/sg20_8_cif.got.tgz:14111.got - 2010.06.03 22:52:26.
