data_PCOD9319989
_publ_section_title
;
Structure prediction by ZEFSAII (Michael W. Deem and Ramdas Pophale) SiO2 
 PCOD9319989
Probable space group: C 2 2 21
;
_chemical_formula_sum "Si O2"
_cell_formula_units_Z 40
_cell_length_a 5.193131
_cell_length_b 28.398610
_cell_length_c 13.315743
_cell_angle_alpha 90.000000
_cell_angle_beta 90.000000
_cell_angle_gamma 90.000000
_cell_volume 1963.775177
_symmetry_space_group_name_H-M "C 2 2 21"
_symmetry_group_IT_number 20
_symmetry_cell_setting 'orthorhombic'
loop_
_space_group_symop_operation_xyz
x,y,z
-x,-y,1/2+z
x,-y,-z
-x,y,1/2-z
1/2+x,1/2+y,z
1/2-x,1/2-y,1/2+z
1/2+x,1/2-y,-z
1/2-x,1/2+y,1/2-z
loop_
_atom_site_type_symbol
_atom_site_label
_atom_site_fract_x
_atom_site_fract_y
_atom_site_fract_z
Si Si1 0.500000 0.738863 0.750000
Si Si2 0.140192 0.601438 0.892659
Si Si3 0.000000 0.046223 0.250000
Si Si4 0.359916 0.345781 0.387542
Si Si5 0.500000 0.299397 0.750000
Si Si6 0.500000 0.018556 0.750000
Si Si7 0.910789 0.124582 0.087020
O O1 0.575935 0.704595 0.842245
O O2 0.754398 0.767987 0.719052
O O3 0.417467 0.617818 0.852055
O O4 0.924413 0.638531 0.861187
O O5 0.048805 0.552460 0.846083
O O6 0.184109 0.606165 0.012926
O O7 0.995013 0.080130 0.152829
O O8 0.749690 0.013844 0.258358
O O9 0.390525 0.352740 0.507232
O O10 0.626002 0.333582 0.666049
#
# Coordination Sequence:
#
# PCOD9319989 Si02
#       7
#     4   8   4   8   4   4   8
#     4  12  24  40  68 103 128 167 232 278 320 380
#     4  10  22  42  69  92 129 178 213 268 334 400
#     4  11  26  43  66  99 134 175 220 281 322 397
#     4  10  22  41  69  91 133 173 217 268 332 402
#     4  11  26  41  68  95 134 175 220 277 324 399
#     4  12  24  42  68 101 130 165 232 280 318 382
#     4   9  26  45  66  89 139 181 214 259 354 393
#
# _framework density 20.368929000000001
#
# number of rings (size 3 to 8) (size 9 to 14) (size 15 to 20)
#    1.200    0.400    0.000    3.600    5.600    4.000 
#    0.000    0.000    0.000    0.000    0.000    0.000 
#    0.000    0.000    0.000    0.000    0.000    0.000 
#
# Total GULP energy -111414.340568 kJ/mol
# GULP energy per Si atom -5570.717028 kJ/mol
# Density = 2.032257 g / cm^3
# Si number density = 20.368929 Si / 1000 Ang^3
#
#
#
# Elastic Constant Matrix: (Units=GPa)
#
#
# Indices 1 2 3 4 5 6 
#
# 1 95.4212 48.0957 51.0263 0.0000 0.0000 0.0000
# 2 48.0957 134.8776 70.3651 0.0000 0.0000 0.0000
# 3 51.0263 70.3651 131.3281 0.0000 0.0000 0.0000
# 4 0.0000 0.0000 0.0000 161.6748 0.0000 0.0000
# 5 0.0000 0.0000 0.0000 0.0000 24.9968 0.0000
# 6 0.0000 0.0000 0.0000 0.0000 0.0000 15.6637
#
#
#
# Elastic Compliance Matrix: (Units=1/GPa)
#
#
# Indices 1 2 3 4 5 6 
#
# 1 0.014052 -0.003001 -0.003852 0.000000 0.000000 0.000000
# 2 -0.003001 0.010932 -0.004691 0.000000 0.000000 0.000000
# 3 -0.003852 -0.004691 0.011624 0.000000 0.000000 0.000000
# 4 0.000000 0.000000 0.000000 0.006185 0.000000 0.000000
# 5 0.000000 0.000000 0.000000 0.000000 0.040005 0.000000
# 6 0.000000 0.000000 0.000000 0.000000 0.000000 0.063842
#
#
# Mechanical properties :
#
#
# Convention : Reuss Voigt Hill
#
# Bulk Modulus (GPa) = 73.96343 77.84457 75.90400
# Shear Modulus (GPa) = 28.69671 53.27637 40.98654
#
# Velocity S-wave (km/s) = 3.75753 5.11981 4.49063
# Velocity P-wave (km/s) = 7.43076 8.55864 8.01456
#
# Compressibility (1/GPa) = 0.01352020
#
# Stress axis : x y z
#
# Youngs Moduli (GPa) = 71.16215 91.47738 86.02536
#
# Poissons Ratio (x) = 0.27457 0.33135
# Poissons Ratio (y) = 0.21359 0.40354
# Poissons Ratio (z) = 0.27410 0.42912
#
# Static dielectric constant tensor:
#      x y z
#    x 1.503500 0.000000 0.000000 
#    y 0.000000 1.692750 0.000000 
#    z 0.000000 0.000000 1.794460 
# 
# From -- ./inp_files/17682.got.cif
#   From: 2010.05.17/outbox.cif.g08.bks.cpg/sg20_9_cif.got.tgz:17682.got - 2010.06.03 22:52:26.
