data_PCOD9319403
_publ_section_title
;
Structure prediction by ZEFSAII (Michael W. Deem and Ramdas Pophale) SiO2 
 PCOD9319403
Probable space group: C 2 2 21
;
_chemical_formula_sum "Si O2"
_cell_formula_units_Z 48
_cell_length_a 23.317876
_cell_length_b 10.638371
_cell_length_c 8.672694
_cell_angle_alpha 90.000000
_cell_angle_beta 90.000000
_cell_angle_gamma 90.000000
_cell_volume 2151.385036
_symmetry_space_group_name_H-M "C 2 2 21"
_symmetry_group_IT_number 20
_symmetry_cell_setting 'orthorhombic'
loop_
_space_group_symop_operation_xyz
x,y,z
-x,-y,1/2+z
x,-y,-z
-x,y,1/2-z
1/2+x,1/2+y,z
1/2-x,1/2-y,1/2+z
1/2+x,1/2-y,-z
1/2-x,1/2+y,1/2-z
loop_
_atom_site_type_symbol
_atom_site_label
_atom_site_fract_x
_atom_site_fract_y
_atom_site_fract_z
Si Si1 0.296792 0.873584 0.899829
Si Si2 0.030392 0.765118 0.411864
Si Si3 0.926613 0.314164 0.431417
Si Si4 0.835395 0.879529 0.611504
Si Si5 0.590860 0.950680 0.752523
Si Si6 0.355600 0.631086 0.042840
O O1 0.231216 0.852235 0.853147
O O2 0.343315 0.909132 0.770168
O O3 0.318845 0.753131 0.995486
O O4 0.297033 0.000000 0.000000
O O5 0.056804 0.624483 0.379998
O O6 0.084821 0.850377 0.452279
O O7 0.000000 0.802720 0.250000
O O8 0.984789 0.764952 0.551076
O O9 0.869729 0.234157 0.462761
O O10 0.918757 0.400863 0.279740
O O11 0.931123 0.395179 0.587395
O O12 0.866117 0.885531 0.776357
O O13 0.839139 0.000000 0.500000
O O14 0.325679 0.500000 0.000000
#
# Coordination Sequence:
#
# PCOD9319403 Si02
#       6
#     8   8   8   8   8   8
#     4  10  23  45  69  97 142 178 237 298 350 419
#     4   9  21  44  66  99 142 183 227 297 354 433
#     4  10  21  42  66 100 133 178 229 284 359 419
#     4  11  27  43  68 101 144 185 234 299 357 431
#     4   9  20  41  67  98 130 177 230 284 346 417
#     4  11  26  45  72 103 136 195 237 285 367 436
#
# _framework density 22.311209000000002
#
# number of rings (size 3 to 8) (size 9 to 14) (size 15 to 20)
#    0.000    2.000    0.000    1.000    9.333    4.000 
#   48.000    0.000    0.000    0.000    0.000    0.000 
#    0.000    0.000    0.000    0.000    0.000    0.000 
#
# Total GULP energy -133871.217187 kJ/mol
# GULP energy per Si atom -5577.967383 kJ/mol
# Density = 2.226043 g / cm^3
# Si number density = 22.311209 Si / 1000 Ang^3
#
#
#
# Elastic Constant Matrix: (Units=GPa)
#
#
# Indices 1 2 3 4 5 6 
#
# 1 129.0084 40.4120 22.7453 0.0000 0.0000 0.0000
# 2 40.4120 94.9215 23.2787 0.0000 0.0000 0.0000
# 3 22.7453 23.2787 72.8773 0.0000 0.0000 0.0000
# 4 0.0000 0.0000 0.0000 26.4589 0.0000 0.0000
# 5 0.0000 0.0000 0.0000 0.0000 27.4338 0.0000
# 6 0.0000 0.0000 0.0000 0.0000 0.0000 15.0615
#
#
#
# Elastic Compliance Matrix: (Units=1/GPa)
#
#
# Indices 1 2 3 4 5 6 
#
# 1 0.009145 -0.003465 -0.001747 0.000000 0.000000 0.000000
# 2 -0.003465 0.012743 -0.002989 0.000000 0.000000 0.000000
# 3 -0.001747 -0.002989 0.015222 0.000000 0.000000 0.000000
# 4 0.000000 0.000000 0.000000 0.037794 0.000000 0.000000
# 5 0.000000 0.000000 0.000000 0.000000 0.036451 0.000000
# 6 0.000000 0.000000 0.000000 0.000000 0.000000 0.066394
#
#
# Mechanical properties :
#
#
# Convention : Reuss Voigt Hill
#
# Bulk Modulus (GPa) = 48.29218 52.18657 50.23938
# Shear Modulus (GPa) = 24.86879 27.81559 26.34219
#
# Velocity S-wave (km/s) = 3.34223 3.53471 3.43982
# Velocity P-wave (km/s) = 6.04862 6.33245 6.19216
#
# Compressibility (1/GPa) = 0.02070729
#
# Stress axis : x y z
#
# Youngs Moduli (GPa) = 109.35093 78.47335 65.69507
#
# Poissons Ratio (x) = 0.27189 0.11480
# Poissons Ratio (y) = 0.37888 0.19637
# Poissons Ratio (z) = 0.19108 0.23456
#
# Static dielectric constant tensor:
#      x y z
#    x 1.833560 0.000000 0.000000 
#    y 0.000000 1.756720 0.000000 
#    z 0.000000 0.000000 2.211530 
# 
# From -- ./inp_files/10639.got.cif
#   From: 2010.05.17/outbox.cif.g08.bks.cpg/sg20_6_cif.got.tgz:10639.got - 2010.06.03 22:52:26.
