data_PCOD9319956
_publ_section_title
;
Structure prediction by ZEFSAII (Michael W. Deem and Ramdas Pophale) SiO2 
 PCOD9319956
Probable space group: C 2 2 21
;
_chemical_formula_sum "Si O2"
_cell_formula_units_Z 52
_cell_length_a 4.864687
_cell_length_b 25.238702
_cell_length_c 18.791998
_cell_angle_alpha 90.000000
_cell_angle_beta 90.000000
_cell_angle_gamma 90.000000
_cell_volume 2307.251175
_symmetry_space_group_name_H-M "C 2 2 21"
_symmetry_group_IT_number 20
_symmetry_cell_setting 'orthorhombic'
loop_
_space_group_symop_operation_xyz
x,y,z
-x,-y,1/2+z
x,-y,-z
-x,y,1/2-z
1/2+x,1/2+y,z
1/2-x,1/2-y,1/2+z
1/2+x,1/2-y,-z
1/2-x,1/2+y,1/2-z
loop_
_atom_site_type_symbol
_atom_site_label
_atom_site_fract_x
_atom_site_fract_y
_atom_site_fract_z
Si Si1 0.065082 0.946237 0.828166
Si Si2 0.771265 0.793429 0.117009
Si Si3 0.056621 0.481144 0.171568
Si Si4 0.500000 0.252312 0.750000
Si Si5 0.966752 0.604021 0.945302
Si Si6 0.080030 0.881038 0.536490
Si Si7 0.204684 0.774208 0.603578
O O1 0.020516 0.904893 0.889975
O O2 0.000000 0.924582 0.750000
O O3 0.375128 0.966034 0.830779
O O4 0.867840 0.998206 0.836797
O O5 0.697900 0.783705 0.200473
O O6 0.645743 0.848716 0.091581
O O7 0.585507 0.749153 0.078555
O O8 0.077035 0.773553 0.102076
O O9 0.943469 0.440984 0.113458
O O10 0.000000 0.457744 0.250000
O O11 0.661409 0.284736 0.688777
O O12 0.179856 0.582889 0.004253
O O13 0.680631 0.620636 0.982594
O O14 0.236569 0.826305 0.557132
#
# Coordination Sequence:
#
# PCOD9319956 Si02
#       7
#     8   8   8   4   8   8   8
#     4  10  23  44  69 100 133 174 225 283 337 399
#     4  10  22  41  65  92 130 171 226 277 335 391
#     4  10  23  44  69 100 133 174 225 283 337 399
#     4   8  22  40  66  92 122 176 224 276 346 368
#     4  12  26  42  66 101 135 182 223 272 348 409
#     4  12  26  42  66 101 135 182 223 272 348 409
#     4  10  22  41  65  92 130 171 226 277 335 391
#
# _framework density 22.537638999999999
#
# number of rings (size 3 to 8) (size 9 to 14) (size 15 to 20)
#    0.923    0.615    0.000    4.154    2.154    6.154 
#    0.000    3.077    0.000    0.000    0.000    0.000 
#    0.000    0.000    0.000    0.000    0.000    0.000 
#
# Total GULP energy -144983.488486 kJ/mol
# GULP energy per Si atom -5576.288019 kJ/mol
# Density = 2.248634 g / cm^3
# Si number density = 22.537639 Si / 1000 Ang^3
#
#
#
# Elastic Constant Matrix: (Units=GPa)
#
#
# Indices 1 2 3 4 5 6 
#
# 1 98.1067 -0.3127 26.8344 0.0000 0.0000 0.0000
# 2 -0.3127 31.5296 34.5973 0.0000 0.0000 0.0000
# 3 26.8344 34.5973 118.4425 0.0000 0.0000 0.0000
# 4 0.0000 0.0000 0.0000 39.0820 0.0000 0.0000
# 5 0.0000 0.0000 0.0000 0.0000 30.9207 0.0000
# 6 0.0000 0.0000 0.0000 0.0000 0.0000 17.3578
#
#
#
# Elastic Compliance Matrix: (Units=1/GPa)
#
#
# Indices 1 2 3 4 5 6 
#
# 1 0.011245 0.004279 -0.003798 0.000000 0.000000 0.000000
# 2 0.004279 0.048305 -0.015079 0.000000 0.000000 0.000000
# 3 -0.003798 -0.015079 0.013708 0.000000 0.000000 0.000000
# 4 0.000000 0.000000 0.000000 0.025587 0.000000 0.000000
# 5 0.000000 0.000000 0.000000 0.000000 0.032341 0.000000
# 6 0.000000 0.000000 0.000000 0.000000 0.000000 0.057611
#
#
# Mechanical properties :
#
#
# Convention : Reuss Voigt Hill
#
# Bulk Modulus (GPa) = 22.69542 41.14632 31.92087
# Shear Modulus (GPa) = 21.48861 29.93610 25.71235
#
# Velocity S-wave (km/s) = 3.09116 3.64850 3.38133
# Velocity P-wave (km/s) = 4.77830 6.00376 5.42574
#
# Compressibility (1/GPa) = 0.04406176
#
# Stress axis : x y z
#
# Youngs Moduli (GPa) = 88.92587 20.70171 72.95012
#
# Poissons Ratio (x) = -0.08857 0.27703
# Poissons Ratio (y) = -0.38047 1.10004
# Poissons Ratio (z) = 0.33770 0.31217
#
# Static dielectric constant tensor:
#      x y z
#    x 1.799100 0.000000 0.000000 
#    y 0.000000 1.794610 0.000000 
#    z 0.000000 0.000000 1.909310 
# 
# From -- ./inp_files/26125.got.cif
#   From: 2010.05.17/outbox.cif.g08.bks.cpg/sg20_14_cif.got.tgz:26125.got - 2010.06.03 22:52:26.
