data_PCOD9319133
_publ_section_title
;
Structure prediction by ZEFSAII (Michael W. Deem and Ramdas Pophale) SiO2 
 PCOD9319133
Probable space group: C 2 2 21
;
_chemical_formula_sum "Si O2"
_cell_formula_units_Z 40
_cell_length_a 17.706705
_cell_length_b 5.477184
_cell_length_c 17.967362
_cell_angle_alpha 90.000000
_cell_angle_beta 90.000000
_cell_angle_gamma 90.000000
_cell_volume 1742.526536
_symmetry_space_group_name_H-M "C 2 2 21"
_symmetry_group_IT_number 20
_symmetry_cell_setting 'orthorhombic'
loop_
_space_group_symop_operation_xyz
x,y,z
-x,-y,1/2+z
x,-y,-z
-x,y,1/2-z
1/2+x,1/2+y,z
1/2-x,1/2-y,1/2+z
1/2+x,1/2-y,-z
1/2-x,1/2+y,1/2-z
loop_
_atom_site_type_symbol
_atom_site_label
_atom_site_fract_x
_atom_site_fract_y
_atom_site_fract_z
Si Si1 0.217068 0.245788 0.047556
Si Si2 0.061461 0.725701 0.693935
Si Si3 0.937339 0.469773 0.414748
Si Si4 0.811027 0.970047 0.163596
Si Si5 0.648690 0.170168 0.202012
O O1 0.133883 0.280206 0.084358
O O2 0.283191 0.255898 0.109453
O O3 0.226235 0.500000 0.000000
O O4 0.220779 0.000000 0.000000
O O5 0.110490 0.543401 0.747051
O O6 0.000000 0.852820 0.750000
O O7 0.007423 0.589018 0.636393
O O8 0.118528 0.870160 0.639878
O O9 0.958072 0.500000 0.500000
O O10 0.899197 0.699761 0.372736
O O11 0.733640 0.110857 0.177853
O O12 0.843185 0.893634 0.243550
#
# Coordination Sequence:
#
# PCOD9319133 Si02
#       5
#     8   8   8   8   8
#     4  10  24  46  73 103 142 191 241 292 356 425
#     4  10  22  42  64 102 136 174 234 292 361 423
#     4   9  21  45  68  97 141 188 229 289 365 435
#     4  11  22  40  72  98 135 183 237 299 348 422
#     4  10  21  39  69  99 130 178 236 291 349 425
#
# _framework density 22.955172999999998
#
# number of rings (size 3 to 8) (size 9 to 14) (size 15 to 20)
#    0.000    2.000    2.000    0.000    2.800    4.000 
#   10.800    0.000    0.000    0.000    0.000    0.000 
#    0.000    0.000    0.000    0.000    0.000    0.000 
#
# Total GULP energy -111533.042502 kJ/mol
# GULP energy per Si atom -5576.652125 kJ/mol
# Density = 2.290293 g / cm^3
# Si number density = 22.955173 Si / 1000 Ang^3
#
#
#
# Elastic Constant Matrix: (Units=GPa)
#
#
# Indices 1 2 3 4 5 6 
#
# 1 124.3274 12.8458 13.4345 0.0000 0.0000 0.0000
# 2 12.8458 40.3446 4.2496 0.0000 0.0000 0.0000
# 3 13.4345 4.2496 80.3413 0.0000 0.0000 0.0000
# 4 0.0000 0.0000 0.0000 31.9371 0.0000 0.0000
# 5 0.0000 0.0000 0.0000 0.0000 -20.6318 0.0000
# 6 0.0000 0.0000 0.0000 0.0000 0.0000 8.1107
#
#
#
# Elastic Compliance Matrix: (Units=1/GPa)
#
#
# Indices 1 2 3 4 5 6 
#
# 1 0.008445 -0.002554 -0.001277 0.000000 0.000000 0.000000
# 2 -0.002554 0.025698 -0.000932 0.000000 0.000000 0.000000
# 3 -0.001277 -0.000932 0.012710 0.000000 0.000000 0.000000
# 4 0.000000 0.000000 0.000000 0.031312 0.000000 0.000000
# 5 0.000000 0.000000 0.000000 0.000000 -0.048469 0.000000
# 6 0.000000 0.000000 0.000000 0.000000 0.000000 0.123294
#
#
# Mechanical properties :
#
#
# Convention : Reuss Voigt Hill
#
# Bulk Modulus (GPa) = 26.79123 34.00811 30.39967
# Shear Modulus (GPa) = 28.57819 18.18211 23.38015
#
# Velocity S-wave (km/s) = 3.53222 2.81743 3.19488
# Velocity P-wave (km/s) = 5.32277 5.04292 5.18473
#
# Compressibility (1/GPa) = 0.03732565
#
# Stress axis : x y z
#
# Youngs Moduli (GPa) = 118.41031 38.91357 78.67978
#
# Poissons Ratio (x) = 0.09940 0.10048
# Poissons Ratio (y) = 0.30247 0.07334
# Poissons Ratio (z) = 0.15122 0.03627
#
# Static dielectric constant tensor:
#      x y z
#    x 1.861130 0.000000 0.000000 
#    y 0.000000 1.961510 0.000000 
#    z 0.000000 0.000000 1.935480 
# 
# From -- ./inp_files/22620.got.cif
#   From: 2010.05.17/outbox.cif.g08.bks.cpg/sg20_12_cif.got.tgz:22620.got - 2010.06.03 22:52:26.
