data_PCOD9319727
_publ_section_title
;
Structure prediction by ZEFSAII (Michael W. Deem and Ramdas Pophale) SiO2 
 PCOD9319727
Probable space group: C 2 2 21
;
_chemical_formula_sum "Si O2"
_cell_formula_units_Z 44
_cell_length_a 5.069237
_cell_length_b 24.117716
_cell_length_c 14.368557
_cell_angle_alpha 90.000000
_cell_angle_beta 90.000000
_cell_angle_gamma 90.000000
_cell_volume 1756.677052
_symmetry_space_group_name_H-M "C 2 2 21"
_symmetry_group_IT_number 20
_symmetry_cell_setting 'orthorhombic'
loop_
_space_group_symop_operation_xyz
x,y,z
-x,-y,1/2+z
x,-y,-z
-x,y,1/2-z
1/2+x,1/2+y,z
1/2-x,1/2-y,1/2+z
1/2+x,1/2-y,-z
1/2-x,1/2+y,1/2-z
loop_
_atom_site_type_symbol
_atom_site_label
_atom_site_fract_x
_atom_site_fract_y
_atom_site_fract_z
Si Si1 0.000000 0.426676 0.250000
Si Si2 0.885803 0.062104 0.597999
Si Si3 0.959854 0.947174 0.884555
Si Si4 0.019057 0.714753 0.510148
Si Si5 0.556561 0.124303 0.349903
Si Si6 0.633726 0.333795 0.335899
O O1 0.876604 0.452406 0.156402
O O2 0.775990 0.385199 0.285515
O O3 0.916843 0.054842 0.488306
O O4 0.930375 0.128551 0.605704
O O5 0.068984 0.012174 0.638887
O O6 0.186074 0.913293 0.831489
O O7 0.685100 0.915461 0.879089
O O8 0.795559 0.755699 0.465504
O O9 0.080992 0.668247 0.433124
O O10 0.852813 0.694504 0.600017
O O11 0.500000 0.151865 0.250000
O O12 0.500000 0.301211 0.250000
#
# Coordination Sequence:
#
# PCOD9319727 Si02
#       6
#     4   8   8   8   8   8
#     4  10  22  38  70 102 150 174 246 296 362 432
#     4  10  23  40  70 108 145 197 237 288 364 452
#     4  11  25  43  74 103 154 197 236 286 368 447
#     4  12  28  50  78 100 140 191 248 318 383 434
#     4  12  27  48  72 106 150 193 247 302 369 455
#     4  10  23  43  71 105 140 178 238 305 366 435
#
# _framework density 25.047288999999999
#
# number of rings (size 3 to 8) (size 9 to 14) (size 15 to 20)
#    0.000    1.091    1.818    2.727    8.909    5.091 
#    0.000    0.000    0.000    0.000    0.000    0.000 
#    0.000    0.000    0.000    0.000    0.000    0.000 
#
# Total GULP energy -122778.049104 kJ/mol
# GULP energy per Si atom -5580.820414 kJ/mol
# Density = 2.499028 g / cm^3
# Si number density = 25.047289 Si / 1000 Ang^3
#
#
#
# Elastic Constant Matrix: (Units=GPa)
#
#
# Indices 1 2 3 4 5 6 
#
# 1 125.8676 25.8730 7.7213 0.0000 0.0000 0.0000
# 2 25.8730 93.0586 14.5468 0.0000 0.0000 0.0000
# 3 7.7213 14.5468 116.8634 0.0000 0.0000 0.0000
# 4 0.0000 0.0000 0.0000 -40.2157 0.0000 0.0000
# 5 0.0000 0.0000 0.0000 0.0000 23.5848 0.0000
# 6 0.0000 0.0000 0.0000 0.0000 0.0000 129.3376
#
#
#
# Elastic Compliance Matrix: (Units=1/GPa)
#
#
# Indices 1 2 3 4 5 6 
#
# 1 0.008435 -0.002303 -0.000271 0.000000 0.000000 0.000000
# 2 -0.002303 0.011588 -0.001290 0.000000 0.000000 0.000000
# 3 -0.000271 -0.001290 0.008735 0.000000 0.000000 0.000000
# 4 0.000000 0.000000 0.000000 -0.024866 0.000000 0.000000
# 5 0.000000 0.000000 0.000000 0.000000 0.042400 0.000000
# 6 0.000000 0.000000 0.000000 0.000000 0.000000 0.007732
#
#
# Mechanical properties :
#
#
# Convention : Reuss Voigt Hill
#
# Bulk Modulus (GPa) = 47.54954 48.00797 47.77875
# Shear Modulus (GPa) = 72.71478 41.71792 57.21635
#
# Velocity S-wave (km/s) = 5.39389 4.08556 4.78465
# Velocity P-wave (km/s) = 7.60376 6.43928 7.04562
#
# Compressibility (1/GPa) = 0.02103070
#
# Stress axis : x y z
#
# Youngs Moduli (GPa) = 118.55617 86.29716 114.47554
#
# Poissons Ratio (x) = 0.19873 0.03098
# Poissons Ratio (y) = 0.27301 0.14770
# Poissons Ratio (z) = 0.03209 0.11135
#
# Static dielectric constant tensor:
#      x y z
#    x 2.258810 0.000000 0.000000 
#    y 0.000000 2.037640 0.000000 
#    z 0.000000 0.000000 0.539890 
# 
# From -- ./inp_files/17719.got.cif
#   From: 2010.05.17/outbox.cif.g08.bks.cpg/sg20_9_cif.got.tgz:17719.got - 2010.06.03 22:52:26.
