data_PCOD9319920
_publ_section_title
;
Structure prediction by ZEFSAII (Michael W. Deem and Ramdas Pophale) SiO2 
 PCOD9319920
Probable space group: C 2 2 21
;
_chemical_formula_sum "Si O2"
_cell_formula_units_Z 44
_cell_length_a 15.095852
_cell_length_b 26.556147
_cell_length_c 5.118507
_cell_angle_alpha 90.000000
_cell_angle_beta 90.000000
_cell_angle_gamma 90.000000
_cell_volume 2051.946319
_symmetry_space_group_name_H-M "C 2 2 21"
_symmetry_group_IT_number 20
_symmetry_cell_setting 'orthorhombic'
loop_
_space_group_symop_operation_xyz
x,y,z
-x,-y,1/2+z
x,-y,-z
-x,y,1/2-z
1/2+x,1/2+y,z
1/2-x,1/2-y,1/2+z
1/2+x,1/2-y,-z
1/2-x,1/2+y,1/2-z
loop_
_atom_site_type_symbol
_atom_site_label
_atom_site_fract_x
_atom_site_fract_y
_atom_site_fract_z
Si Si1 0.170669 0.798803 0.698757
Si Si2 0.763608 0.582587 0.869971
Si Si3 0.000000 0.365776 0.750000
Si Si4 0.156010 0.312808 0.491153
Si Si5 0.398443 0.357002 0.312408
Si Si6 0.136726 0.550535 0.109958
O O1 0.156631 0.739768 0.655451
O O2 0.274246 0.806799 0.769090
O O3 0.142115 0.830168 0.444900
O O4 0.115068 0.818701 0.946276
O O5 0.659880 0.594339 0.894657
O O6 0.785899 0.556250 0.601224
O O7 0.804920 0.638613 0.847465
O O8 0.815766 0.555616 0.107578
O O9 0.059320 0.329699 0.575010
O O10 0.066794 0.403781 0.897251
O O11 0.500000 0.367943 0.250000
O O12 0.089982 0.500000 0.000000
#
# Coordination Sequence:
#
# PCOD9319920 Si02
#       6
#     8   8   4   8   8   8
#     4  11  23  39  62  87 133 178 217 276 313 381
#     4  10  22  42  66  87 126 172 207 261 331 394
#     4  10  24  40  66  94 128 172 212 276 312 384
#     4  10  22  41  61  87 129 170 223 255 322 368
#     4  11  23  41  62  96 126 168 225 269 325 379
#     4  11  24  43  66  97 127 163 212 263 335 401
#
# _framework density 21.443057
#
# number of rings (size 3 to 8) (size 9 to 14) (size 15 to 20)
#    0.000    1.455    0.000    6.545    1.273    8.727 
#    6.545    0.000    0.000    2.182    0.000    0.000 
#    0.000    0.000    0.000    0.000    0.000    0.000 
#
# Total GULP energy -122908.969439 kJ/mol
# GULP energy per Si atom -5586.771338 kJ/mol
# Density = 2.139425 g / cm^3
# Si number density = 21.443057 Si / 1000 Ang^3
#
#
#
# Elastic Constant Matrix: (Units=GPa)
#
#
# Indices 1 2 3 4 5 6 
#
# 1 116.6495 26.4482 40.5429 0.0000 0.0000 0.0000
# 2 26.4482 81.5564 30.3667 0.0000 0.0000 0.0000
# 3 40.5429 30.3667 113.1794 0.0000 0.0000 0.0000
# 4 0.0000 0.0000 0.0000 36.5825 0.0000 0.0000
# 5 0.0000 0.0000 0.0000 0.0000 30.5775 0.0000
# 6 0.0000 0.0000 0.0000 0.0000 0.0000 9.1428
#
#
#
# Elastic Compliance Matrix: (Units=1/GPa)
#
#
# Indices 1 2 3 4 5 6 
#
# 1 0.010119 -0.002146 -0.003049 0.000000 0.000000 0.000000
# 2 -0.002146 0.014078 -0.003008 0.000000 0.000000 0.000000
# 3 -0.003049 -0.003008 0.010735 0.000000 0.000000 0.000000
# 4 0.000000 0.000000 0.000000 0.027336 0.000000 0.000000
# 5 0.000000 0.000000 0.000000 0.000000 0.032704 0.000000
# 6 0.000000 0.000000 0.000000 0.000000 0.000000 0.109376
#
#
# Mechanical properties :
#
#
# Convention : Reuss Voigt Hill
#
# Bulk Modulus (GPa) = 53.98268 56.23342 55.10805
# Shear Modulus (GPa) = 22.03341 29.52905 25.78123
#
# Velocity S-wave (km/s) = 3.20899 3.71494 3.47120
# Velocity P-wave (km/s) = 6.24177 6.68450 6.46693
#
# Compressibility (1/GPa) = 0.01852446
#
# Stress axis : x y z
#
# Youngs Moduli (GPa) = 98.82379 71.03498 93.15456
#
# Poissons Ratio (x) = 0.15246 0.28402
# Poissons Ratio (y) = 0.21210 0.28023
# Poissons Ratio (z) = 0.30131 0.21369
#
# Static dielectric constant tensor:
#      x y z
#    x 1.825670 0.000000 0.000000 
#    y 0.000000 1.850800 0.000000 
#    z 0.000000 0.000000 1.803250 
# 
# From -- ./inp_files/1949.got.cif
#   From: 2010.05.17/outbox.cif.g08.bks.cpg/sg20_1_cif.got.tgz:1949.got - 2010.06.03 22:52:26.
