data_PCOD9319873
_publ_section_title
;
Structure prediction by ZEFSAII (Michael W. Deem and Ramdas Pophale) SiO2 
 PCOD9319873
Probable space group: C 2 2 21
;
_chemical_formula_sum "Si O2"
_cell_formula_units_Z 44
_cell_length_a 5.343599
_cell_length_b 27.537915
_cell_length_c 13.138101
_cell_angle_alpha 90.000000
_cell_angle_beta 90.000000
_cell_angle_gamma 90.000000
_cell_volume 1933.292255
_symmetry_space_group_name_H-M "C 2 2 21"
_symmetry_group_IT_number 20
_symmetry_cell_setting 'orthorhombic'
loop_
_space_group_symop_operation_xyz
x,y,z
-x,-y,1/2+z
x,-y,-z
-x,y,1/2-z
1/2+x,1/2+y,z
1/2-x,1/2-y,1/2+z
1/2+x,1/2-y,-z
1/2-x,1/2+y,1/2-z
loop_
_atom_site_type_symbol
_atom_site_label
_atom_site_fract_x
_atom_site_fract_y
_atom_site_fract_z
Si Si1 0.892943 0.124199 0.351929
Si Si2 0.530856 0.132314 0.529469
Si Si3 0.500000 0.948555 0.750000
Si Si4 0.176490 0.725704 0.038850
Si Si5 0.500000 0.173297 0.750000
Si Si6 0.262395 0.044772 0.443243
Si Si7 0.500000 0.736479 0.750000
O O1 0.750189 0.146985 0.448990
O O2 0.693639 0.088239 0.300660
O O3 0.000000 0.151753 0.250000
O O4 0.086943 0.086498 0.399932
O O5 0.314504 0.169890 0.494488
O O6 0.571262 0.143267 0.648163
O O7 0.456947 0.076460 0.509944
O O8 0.610200 0.977937 0.843193
O O9 0.081826 0.731969 0.153727
O O10 0.447524 0.750124 0.025041
O O11 0.751425 0.204532 0.773621
O O12 0.138220 0.000000 0.500000
#
# Coordination Sequence:
#
# PCOD9319873 Si02
#       7
#     8   8   4   8   4   8   4
#     4   9  20  40  66  96 134 178 233 296 344 420
#     4  11  25  43  70 100 141 186 234 291 359 436
#     4   8  18  40  62  88 134 170 226 286 346 408
#     4  12  25  45  71 101 138 186 234 289 354 427
#     4  12  26  45  72 103 148 189 230 294 365 448
#     4  10  22  40  67 100 135 181 231 291 351 415
#     4  12  24  47  70 103 144 189 234 296 361 434
#
# _framework density 22.759107
#
# number of rings (size 3 to 8) (size 9 to 14) (size 15 to 20)
#    0.000    1.455    3.636    0.000    5.091    8.000 
#    1.636    3.636    0.000    0.000    0.000    0.000 
#    0.000    0.000    0.000    0.000    0.000    0.000 
#
# Total GULP energy -122698.887095 kJ/mol
# GULP energy per Si atom -5577.222141 kJ/mol
# Density = 2.270731 g / cm^3
# Si number density = 22.759107 Si / 1000 Ang^3
#
#
#
# Elastic Constant Matrix: (Units=GPa)
#
#
# Indices 1 2 3 4 5 6 
#
# 1 87.5949 18.2803 25.0088 0.0000 0.0000 0.0000
# 2 18.2803 68.5156 42.8054 0.0000 0.0000 0.0000
# 3 25.0088 42.8054 172.2188 0.0000 0.0000 0.0000
# 4 0.0000 0.0000 0.0000 23.7729 0.0000 0.0000
# 5 0.0000 0.0000 0.0000 0.0000 40.7014 0.0000
# 6 0.0000 0.0000 0.0000 0.0000 0.0000 66.2762
#
#
#
# Elastic Compliance Matrix: (Units=1/GPa)
#
#
# Indices 1 2 3 4 5 6 
#
# 1 0.012278 -0.002559 -0.001147 0.000000 0.000000 0.000000
# 2 -0.002559 0.017812 -0.004056 0.000000 0.000000 0.000000
# 3 -0.001147 -0.004056 0.006981 0.000000 0.000000 0.000000
# 4 0.000000 0.000000 0.000000 0.042065 0.000000 0.000000
# 5 0.000000 0.000000 0.000000 0.000000 0.024569 0.000000
# 6 0.000000 0.000000 0.000000 0.000000 0.000000 0.015088
#
#
# Mechanical properties :
#
#
# Convention : Reuss Voigt Hill
#
# Bulk Modulus (GPa) = 46.40936 55.61313 51.01124
# Shear Modulus (GPa) = 35.33606 42.29907 38.81757
#
# Velocity S-wave (km/s) = 3.94459 4.31577 4.13435
# Velocity P-wave (km/s) = 6.41734 7.02304 6.72701
#
# Compressibility (1/GPa) = 0.02154738
#
# Stress axis : x y z
#
# Youngs Moduli (GPa) = 81.44844 56.14275 143.24386
#
# Poissons Ratio (x) = 0.14369 0.16427
# Poissons Ratio (y) = 0.20845 0.58093
# Poissons Ratio (z) = 0.09340 0.22769
#
# Static dielectric constant tensor:
#      x y z
#    x 2.030050 0.000000 0.000000 
#    y 0.000000 1.809880 0.000000 
#    z 0.000000 0.000000 1.597390 
# 
# From -- ./inp_files/17745.got.cif
#   From: 2010.05.17/outbox.cif.g08.bks.cpg/sg20_9_cif.got.tgz:17745.got - 2010.06.03 22:52:26.
