data_PCOD9319736
_publ_section_title
;
Structure prediction by ZEFSAII (Michael W. Deem and Ramdas Pophale) SiO2 
 PCOD9319736
Probable space group: C 2 2 21
;
_chemical_formula_sum "Si O2"
_cell_formula_units_Z 52
_cell_length_a 19.912605
_cell_length_b 14.483544
_cell_length_c 8.807795
_cell_angle_alpha 90.000000
_cell_angle_beta 90.000000
_cell_angle_gamma 90.000000
_cell_volume 2540.212916
_symmetry_space_group_name_H-M "C 2 2 21"
_symmetry_group_IT_number 20
_symmetry_cell_setting 'orthorhombic'
loop_
_space_group_symop_operation_xyz
x,y,z
-x,-y,1/2+z
x,-y,-z
-x,y,1/2-z
1/2+x,1/2+y,z
1/2-x,1/2-y,1/2+z
1/2+x,1/2-y,-z
1/2-x,1/2+y,1/2-z
loop_
_atom_site_type_symbol
_atom_site_label
_atom_site_fract_x
_atom_site_fract_y
_atom_site_fract_z
Si Si1 0.633116 0.093052 0.075527
Si Si2 0.500000 0.884764 0.750000
Si Si3 0.853205 0.724188 0.699020
Si Si4 0.697219 0.742545 0.753921
Si Si5 0.986336 0.914805 0.926831
Si Si6 0.586680 0.770349 0.507893
Si Si7 0.365156 0.394953 0.501266
O O1 0.564545 0.068845 0.167616
O O2 0.684229 0.154184 0.177609
O O3 0.617837 0.164663 0.939550
O O4 0.660776 0.000000 0.000000
O O5 0.536885 0.825795 0.618035
O O6 0.773155 0.717623 0.715901
O O7 0.862355 0.832676 0.654560
O O8 0.887096 0.686171 0.851724
O O9 0.651337 0.741894 0.605391
O O10 0.669259 0.668336 0.874477
O O11 0.055278 0.905793 0.023021
O O12 0.000000 0.931599 0.750000
O O13 0.950086 0.819858 0.950219
O O14 0.947151 0.000000 0.000000
O O15 0.337736 0.500000 0.500000
#
# Coordination Sequence:
#
# PCOD9319736 Si02
#       7
#     8   4   8   8   8   8   8
#     4  10  23  43  64  91 126 161 207 262 316 367
#     4  10  24  38  62  92 120 160 206 264 314 366
#     4  11  22  41  64  90 121 165 213 249 299 373
#     4  10  23  41  62  90 125 162 208 256 300 364
#     4  11  23  35  57  91 126 159 201 252 309 373
#     4  11  21  37  62  86 122 165 201 252 314 358
#     4  10  22  39  60  87 126 159 203 252 301 366
#
# _framework density 20.470727
#
# number of rings (size 3 to 8) (size 9 to 14) (size 15 to 20)
#    0.000    1.538    1.538    4.615    5.385    2.462 
#    0.000    3.846    0.000    0.000    0.000    0.000 
#    0.000    0.000    0.000    0.000    0.000    0.000 
#
# Total GULP energy -144959.751763 kJ/mol
# GULP energy per Si atom -5575.375068 kJ/mol
# Density = 2.042413 g / cm^3
# Si number density = 20.470727 Si / 1000 Ang^3
#
#
#
# Elastic Constant Matrix: (Units=GPa)
#
#
# Indices 1 2 3 4 5 6 
#
# 1 49.2269 -3.8874 -0.5908 0.0000 0.0000 0.0000
# 2 -3.8874 73.9309 11.6462 0.0000 0.0000 0.0000
# 3 -0.5908 11.6462 87.4433 0.0000 0.0000 0.0000
# 4 0.0000 0.0000 0.0000 24.9497 0.0000 0.0000
# 5 0.0000 0.0000 0.0000 0.0000 540.8212 0.0000
# 6 0.0000 0.0000 0.0000 0.0000 0.0000 17.0583
#
#
#
# Elastic Compliance Matrix: (Units=1/GPa)
#
#
# Indices 1 2 3 4 5 6 
#
# 1 0.020399 0.001073 -0.000005 0.000000 0.000000 0.000000
# 2 0.001073 0.013873 -0.001840 0.000000 0.000000 0.000000
# 3 -0.000005 -0.001840 0.011681 0.000000 0.000000 0.000000
# 4 0.000000 0.000000 0.000000 0.040081 0.000000 0.000000
# 5 0.000000 0.000000 0.000000 0.000000 0.001849 0.000000
# 6 0.000000 0.000000 0.000000 0.000000 0.000000 0.058622
#
#
# Mechanical properties :
#
#
# Convention : Reuss Voigt Hill
#
# Bulk Modulus (GPa) = 22.51840 24.99303 23.75572
# Shear Modulus (GPa) = 30.70282 130.12803 80.41542
#
# Velocity S-wave (km/s) = 3.87698 7.98160 6.27443
# Velocity P-wave (km/s) = 5.57364 9.85783 8.00757
#
# Compressibility (1/GPa) = 0.04440813
#
# Stress axis : x y z
#
# Youngs Moduli (GPa) = 49.02247 72.08504 85.60868
#
# Poissons Ratio (x) = -0.07738 0.00044
# Poissons Ratio (y) = -0.05262 0.15755
# Poissons Ratio (z) = 0.00025 0.13266
#
# Static dielectric constant tensor:
#      x y z
#    x 1.735030 0.000000 0.000000 
#    y 0.000000 1.753040 0.000000 
#    z 0.000000 0.000000 1.763510 
# 
# From -- ./inp_files/10141.got.cif
#   From: 2010.05.17/outbox.cif.g08.bks.cpg/sg20_6_cif.got.tgz:10141.got - 2010.06.03 22:52:26.
