data_PCOD9319446
_publ_section_title
;
Structure prediction by ZEFSAII (Michael W. Deem and Ramdas Pophale) SiO2 
 PCOD9319446
Probable space group: C 2 2 21
;
_chemical_formula_sum "Si O2"
_cell_formula_units_Z 56
_cell_length_a 14.064784
_cell_length_b 12.279614
_cell_length_c 15.382756
_cell_angle_alpha 90.000000
_cell_angle_beta 90.000000
_cell_angle_gamma 90.000000
_cell_volume 2656.757612
_symmetry_space_group_name_H-M "C 2 2 21"
_symmetry_group_IT_number 20
_symmetry_cell_setting 'orthorhombic'
loop_
_space_group_symop_operation_xyz
x,y,z
-x,-y,1/2+z
x,-y,-z
-x,y,1/2-z
1/2+x,1/2+y,z
1/2-x,1/2-y,1/2+z
1/2+x,1/2-y,-z
1/2-x,1/2+y,1/2-z
loop_
_atom_site_type_symbol
_atom_site_label
_atom_site_fract_x
_atom_site_fract_y
_atom_site_fract_z
Si Si1 0.459791 0.932843 0.661588
Si Si2 0.489129 0.604661 0.349356
Si Si3 0.717105 0.052326 0.770760
Si Si4 0.718953 0.559279 0.094157
Si Si5 0.077515 0.343012 0.348638
Si Si6 0.899413 0.687494 0.043336
Si Si7 0.637292 0.434965 0.423377
O O1 0.500000 0.878994 0.750000
O O2 0.502798 0.864091 0.581580
O O3 0.350307 0.961380 0.682118
O O4 0.510496 0.051068 0.655156
O O5 0.500000 0.566327 0.250000
O O6 0.384068 0.609624 0.388446
O O7 0.528716 0.726756 0.348648
O O8 0.552832 0.518298 0.401130
O O9 0.648239 0.146413 0.733039
O O10 0.795607 0.082778 0.840483
O O11 0.763225 0.012181 0.680650
O O12 0.808933 0.640490 0.094713
O O13 0.716362 0.500000 0.000000
O O14 0.120682 0.349327 0.444811
O O15 0.900462 0.817354 0.048524
O O16 0.692056 0.500000 0.500000
#
# Coordination Sequence:
#
# PCOD9319446 Si02
#       7
#     8   8   8   8   8   8   8
#     4  10  21  42  70 103 134 176 236 295 349 413
#     4  12  26  47  71  99 147 193 239 289 366 433
#     4  11  24  47  73 107 143 181 245 299 361 423
#     4  12  24  46  74 105 138 193 243 287 356 443
#     4  11  23  45  74 102 142 186 237 299 354 429
#     4  12  24  45  76 101 147 184 240 299 357 432
#     4  12  28  49  65 105 151 188 232 304 354 427
#
# _framework density 21.078326000000001
#
# number of rings (size 3 to 8) (size 9 to 14) (size 15 to 20)
#    0.000    0.571    7.143    2.143    4.000    1.714 
#    0.000    0.000    0.000    0.000    0.000    0.000 
#    0.000    0.000    0.000    0.000    0.000    0.000 
#
# Total GULP energy -156273.074596 kJ/mol
# GULP energy per Si atom -5581.181236 kJ/mol
# Density = 2.103035 g / cm^3
# Si number density = 21.078326 Si / 1000 Ang^3
#
#
#
# Elastic Constant Matrix: (Units=GPa)
#
#
# Indices 1 2 3 4 5 6 
#
# 1 66.5931 10.2874 33.9597 0.0000 0.0000 0.0000
# 2 10.2874 85.0268 44.0798 0.0000 0.0000 0.0000
# 3 33.9597 44.0798 132.7660 0.0000 0.0000 0.0000
# 4 0.0000 0.0000 0.0000 28.0307 0.0000 0.0000
# 5 0.0000 0.0000 0.0000 0.0000 43.5083 0.0000
# 6 0.0000 0.0000 0.0000 0.0000 0.0000 20.6288
#
#
#
# Elastic Compliance Matrix: (Units=1/GPa)
#
#
# Indices 1 2 3 4 5 6 
#
# 1 0.017273 0.000242 -0.004499 0.000000 0.000000 0.000000
# 2 0.000242 0.014210 -0.004780 0.000000 0.000000 0.000000
# 3 -0.004499 -0.004780 0.010270 0.000000 0.000000 0.000000
# 4 0.000000 0.000000 0.000000 0.035675 0.000000 0.000000
# 5 0.000000 0.000000 0.000000 0.000000 0.022984 0.000000
# 6 0.000000 0.000000 0.000000 0.000000 0.000000 0.048476
#
#
# Mechanical properties :
#
#
# Convention : Reuss Voigt Hill
#
# Bulk Modulus (GPa) = 42.22913 51.22664 46.72789
# Shear Modulus (GPa) = 28.59536 31.50415 30.04976
#
# Velocity S-wave (km/s) = 3.68723 3.87023 3.77984
# Velocity P-wave (km/s) = 6.18106 6.65788 6.42389
#
# Compressibility (1/GPa) = 0.02368034
#
# Stress axis : x y z
#
# Youngs Moduli (GPa) = 57.89285 70.37497 97.37399
#
# Poissons Ratio (x) = -0.01705 0.43806
# Poissons Ratio (y) = -0.01403 0.46542
# Poissons Ratio (z) = 0.26044 0.33637
#
# Static dielectric constant tensor:
#      x y z
#    x 1.794560 0.000000 0.000000 
#    y 0.000000 1.729370 0.000000 
#    z 0.000000 0.000000 1.842920 
# 
# From -- ./inp_files/20752.got.cif
#   From: 2010.05.17/outbox.cif.g08.bks.cpg/sg20_11_cif.got.tgz:20752.got - 2010.06.03 22:52:26.
