data_PCOD9319565
_publ_section_title
;
Structure prediction by ZEFSAII (Michael W. Deem and Ramdas Pophale) SiO2 
 PCOD9319565
Probable space group: C 2 2 21
;
_chemical_formula_sum "Si O2"
_cell_formula_units_Z 56
_cell_length_a 15.367012
_cell_length_b 9.064730
_cell_length_c 18.517104
_cell_angle_alpha 90.000000
_cell_angle_beta 90.000000
_cell_angle_gamma 90.000000
_cell_volume 2579.392122
_symmetry_space_group_name_H-M "C 2 2 21"
_symmetry_group_IT_number 20
_symmetry_cell_setting 'orthorhombic'
loop_
_space_group_symop_operation_xyz
x,y,z
-x,-y,1/2+z
x,-y,-z
-x,y,1/2-z
1/2+x,1/2+y,z
1/2-x,1/2-y,1/2+z
1/2+x,1/2-y,-z
1/2-x,1/2+y,1/2-z
loop_
_atom_site_type_symbol
_atom_site_label
_atom_site_fract_x
_atom_site_fract_y
_atom_site_fract_z
Si Si1 0.879133 0.021777 0.189232
Si Si2 0.277306 0.975910 0.217360
Si Si3 0.510200 0.658183 0.084358
Si Si4 0.949951 0.651538 0.457602
Si Si5 0.085549 0.270588 0.215472
Si Si6 0.662602 0.576361 0.927018
Si Si7 0.937077 0.685806 0.181675
O O1 0.915105 0.098808 0.262065
O O2 0.921528 0.121253 0.126462
O O3 0.778535 0.019629 0.211765
O O4 0.910708 0.857204 0.175062
O O5 0.331548 0.837553 0.246930
O O6 0.219298 0.941797 0.145990
O O7 0.348686 0.096225 0.195231
O O8 0.570697 0.770576 0.130974
O O9 0.571544 0.514642 0.079823
O O10 0.494855 0.740303 0.010112
O O11 0.931703 0.500000 0.500000
O O12 0.865493 0.753459 0.439494
O O13 0.007916 0.629182 0.386538
O O14 0.000000 0.341784 0.250000
O O15 0.702757 0.500000 0.000000
O O16 0.000000 0.676268 0.250000
#
# Coordination Sequence:
#
# PCOD9319565 Si02
#       7
#     8   8   8   8   8   8   8
#     4  11  22  42  70 102 138 188 242 283 349 423
#     4  12  25  41  69 110 146 179 235 307 348 407
#     4  10  21  45  73  97 136 193 232 281 352 432
#     4  11  26  45  75 105 136 186 243 293 350 430
#     4  10  22  41  67  99 138 187 234 283 350 418
#     4  10  22  47  71  96 140 188 233 290 363 421
#     4  12  26  45  74 106 141 186 243 289 351 422
#
# _framework density 21.710540000000002
#
# number of rings (size 3 to 8) (size 9 to 14) (size 15 to 20)
#    0.000    1.143    2.857    3.429    6.000    0.571 
#    0.000    0.000    0.000    1.714    0.000    0.000 
#    0.000    0.000    0.000    0.000    0.000    0.000 
#
# Total GULP energy -156185.571894 kJ/mol
# GULP energy per Si atom -5578.056139 kJ/mol
# Density = 2.166113 g / cm^3
# Si number density = 21.710540 Si / 1000 Ang^3
#
#
#
# Elastic Constant Matrix: (Units=GPa)
#
#
# Indices 1 2 3 4 5 6 
#
# 1 104.3314 42.4797 50.5352 0.0000 0.0000 0.0000
# 2 42.4797 104.6283 33.1468 0.0000 0.0000 0.0000
# 3 50.5352 33.1468 125.9495 0.0000 0.0000 0.0000
# 4 0.0000 0.0000 0.0000 28.9296 0.0000 0.0000
# 5 0.0000 0.0000 0.0000 0.0000 23.5027 0.0000
# 6 0.0000 0.0000 0.0000 0.0000 0.0000 15.6086
#
#
#
# Elastic Compliance Matrix: (Units=1/GPa)
#
#
# Indices 1 2 3 4 5 6 
#
# 1 0.013302 -0.004047 -0.004272 0.000000 0.000000 0.000000
# 2 -0.004047 0.011658 -0.001444 0.000000 0.000000 0.000000
# 3 -0.004272 -0.001444 0.010034 0.000000 0.000000 0.000000
# 4 0.000000 0.000000 0.000000 0.034567 0.000000 0.000000
# 5 0.000000 0.000000 0.000000 0.000000 0.042548 0.000000
# 6 0.000000 0.000000 0.000000 0.000000 0.000000 0.064067
#
#
# Mechanical properties :
#
#
# Convention : Reuss Voigt Hill
#
# Bulk Modulus (GPa) = 64.65371 65.24808 64.95090
# Shear Modulus (GPa) = 24.89302 27.52467 26.20884
#
# Velocity S-wave (km/s) = 3.38980 3.56448 3.47824
# Velocity P-wave (km/s) = 6.72053 6.86000 6.79062
#
# Compressibility (1/GPa) = 0.01546702
#
# Stress axis : x y z
#
# Youngs Moduli (GPa) = 75.17665 85.77484 99.66221
#
# Poissons Ratio (x) = 0.34715 0.42576
# Poissons Ratio (y) = 0.30426 0.14394
# Poissons Ratio (z) = 0.32116 0.12389
#
# Static dielectric constant tensor:
#      x y z
#    x 1.821170 0.000000 0.000000 
#    y 0.000000 1.869100 0.000000 
#    z 0.000000 0.000000 1.822580 
# 
# From -- ./inp_files/27571.got.cif
#   From: 2010.05.17/outbox.cif.g08.bks.cpg/sg20_14_cif.got.tgz:27571.got - 2010.06.03 22:52:26.
