data_PCOD9319393
_publ_section_title
;
Structure prediction by ZEFSAII (Michael W. Deem and Ramdas Pophale) SiO2 
 PCOD9319393
Probable space group: C 2 2 21
;
_chemical_formula_sum "Si O2"
_cell_formula_units_Z 60
_cell_length_a 8.388914
_cell_length_b 11.696681
_cell_length_c 28.451368
_cell_angle_alpha 90.000000
_cell_angle_beta 90.000000
_cell_angle_gamma 90.000000
_cell_volume 2791.717962
_symmetry_space_group_name_H-M "C 2 2 21"
_symmetry_group_IT_number 20
_symmetry_cell_setting 'orthorhombic'
loop_
_space_group_symop_operation_xyz
x,y,z
-x,-y,1/2+z
x,-y,-z
-x,y,1/2-z
1/2+x,1/2+y,z
1/2-x,1/2-y,1/2+z
1/2+x,1/2-y,-z
1/2-x,1/2+y,1/2-z
loop_
_atom_site_type_symbol
_atom_site_label
_atom_site_fract_x
_atom_site_fract_y
_atom_site_fract_z
Si Si1 0.690734 0.322507 0.743547
Si Si2 0.261404 0.264914 0.864130
Si Si3 0.670371 0.580794 0.724889
Si Si4 0.994593 0.791258 0.432464
Si Si5 0.819714 0.011872 0.884078
Si Si6 0.175472 0.788932 0.972873
Si Si7 0.776464 0.500000 0.000000
Si Si8 0.016036 0.605706 0.583099
O O1 0.500000 0.327583 0.750000
O O2 0.737422 0.286439 0.690883
O O3 0.742265 0.459393 0.747528
O O4 0.747728 0.207696 0.771893
O O5 0.084413 0.256786 0.885384
O O6 0.344145 0.376782 0.886284
O O7 0.359034 0.151766 0.878613
O O8 0.500000 0.594396 0.750000
O O9 0.653918 0.551472 0.669694
O O10 0.857100 0.773542 0.471606
O O11 0.144365 0.731131 0.456721
O O12 0.068383 0.913219 0.417824
O O13 0.633444 0.035435 0.896758
O O14 0.065702 0.714486 0.941010
O O15 0.156891 0.922691 0.970042
O O16 0.892217 0.452664 0.040235
#
# Coordination Sequence:
#
# PCOD9319393 Si02
#       8
#     8   8   8   8   8   8   4   8
#     4  10  22  40  67  94 131 163 211 258 323 387
#     4  11  22  41  63  91 121 162 205 257 312 376
#     4  10  21  42  64  97 128 166 206 264 317 387
#     4  11  21  42  58  87 119 157 206 253 303 363
#     4  10  24  39  64  89 122 163 204 253 318 369
#     4  11  23  39  58  83 116 157 203 250 298 357
#     4  12  22  38  58  80 118 156 198 252 302 348
#     4  11  24  40  59  86 122 157 206 254 299 366
#
# _framework density 21.492139999999999
#
# number of rings (size 3 to 8) (size 9 to 14) (size 15 to 20)
#    0.000    1.333    2.667    2.400    1.867    0.533 
#    0.000    4.000    0.000    0.000    0.000    0.000 
#    0.000    0.000    0.000    0.000    0.000    0.000 
#
# Total GULP energy -167030.659322 kJ/mol
# GULP energy per Si atom -5567.688644 kJ/mol
# Density = 2.144322 g / cm^3
# Si number density = 21.492140 Si / 1000 Ang^3
#
#
#
# Elastic Constant Matrix: (Units=GPa)
#
#
# Indices 1 2 3 4 5 6 
#
# 1 -971.8093 -2.7516 1.1406 0.0000 0.0000 0.0000
# 2 -2.7516 75.3793 6.9450 0.0000 0.0000 0.0000
# 3 1.1406 6.9450 32.0163 0.0000 0.0000 0.0000
# 4 0.0000 0.0000 0.0000 43.7694 0.0000 0.0000
# 5 0.0000 0.0000 0.0000 0.0000 20.7955 0.0000
# 6 0.0000 0.0000 0.0000 0.0000 0.0000 49.9167
#
#
#
# Elastic Compliance Matrix: (Units=1/GPa)
#
#
# Indices 1 2 3 4 5 6 
#
# 1 -0.001029 -0.000042 0.000046 0.000000 0.000000 0.000000
# 2 -0.000042 0.013535 -0.002935 0.000000 0.000000 0.000000
# 3 0.000046 -0.002935 0.031869 0.000000 0.000000 0.000000
# 4 0.000000 0.000000 0.000000 0.022847 0.000000 0.000000
# 5 0.000000 0.000000 0.000000 0.000000 0.048087 0.000000
# 6 0.000000 0.000000 0.000000 0.000000 0.000000 0.020033
#
#
# Mechanical properties :
#
#
# Convention : Reuss Voigt Hill
#
# Bulk Modulus (GPa) = 25.96456 -94.86064 -34.44804
# Shear Modulus (GPa) = 32.45864 -35.08685 -1.31411
#
# Velocity S-wave (km/s) = 3.89042 -4.04486 -0.78279
# Velocity P-wave (km/s) = 5.68222 8.12697 4.10853
#
# Compressibility (1/GPa) = 0.03851404
#
# Stress axis : x y z
#
# Youngs Moduli (GPa) = -971.97165 73.88208 31.37848
#
# Poissons Ratio (x) = 0.00309 -0.00143
# Poissons Ratio (y) = -0.04060 0.09208
# Poissons Ratio (z) = 0.04443 0.21681
#
# Static dielectric constant tensor:
#      x y z
#    x 1.766250 0.000000 0.000000 
#    y 0.000000 1.935700 0.000000 
#    z 0.000000 0.000000 1.792060 
# 
# From -- ./inp_files/31037.got.cif
#   From: 2010.05.17/outbox.cif.g08.bks.cpg/sg20_16_cif.got.tgz:31037.got - 2010.06.03 22:52:26.
