data_PCOD9319763
_publ_section_title
;
Structure prediction by ZEFSAII (Michael W. Deem and Ramdas Pophale) SiO2 
 PCOD9319763
Probable space group: C 2 2 21
;
_chemical_formula_sum "Si O2"
_cell_formula_units_Z 60
_cell_length_a 27.591104
_cell_length_b 7.751441
_cell_length_c 12.121333
_cell_angle_alpha 90.000000
_cell_angle_beta 90.000000
_cell_angle_gamma 90.000000
_cell_volume 2592.399365
_symmetry_space_group_name_H-M "C 2 2 21"
_symmetry_group_IT_number 20
_symmetry_cell_setting 'orthorhombic'
loop_
_space_group_symop_operation_xyz
x,y,z
-x,-y,1/2+z
x,-y,-z
-x,y,1/2-z
1/2+x,1/2+y,z
1/2-x,1/2-y,1/2+z
1/2+x,1/2-y,-z
1/2-x,1/2+y,1/2-z
loop_
_atom_site_type_symbol
_atom_site_label
_atom_site_fract_x
_atom_site_fract_y
_atom_site_fract_z
Si Si1 0.000000 0.395594 0.250000
Si Si2 0.073460 0.696028 0.196122
Si Si3 0.290500 0.783302 0.225632
Si Si4 0.186722 0.649831 0.162928
Si Si5 0.486326 0.290568 0.515835
Si Si6 0.580337 0.343012 0.413548
Si Si7 0.786895 0.811854 0.551102
Si Si8 0.679231 0.205173 0.489449
O O1 0.953871 0.528640 0.251952
O O2 0.988751 0.277216 0.358353
O O3 0.131158 0.681398 0.191391
O O4 0.052936 0.720520 0.072310
O O5 0.065074 0.852352 0.284807
O O6 0.233657 0.765053 0.196611
O O7 0.307200 0.668266 0.327297
O O8 0.319133 0.733393 0.115795
O O9 0.300294 0.972145 0.275012
O O10 0.187918 0.679346 0.030720
O O11 0.483079 0.500000 0.500000
O O12 0.537903 0.229486 0.466726
O O13 0.582136 0.500000 0.500000
O O14 0.633742 0.267036 0.422596
O O15 0.731180 0.748783 0.561464
O O16 0.787008 0.000000 0.500000
O O17 0.677728 0.000000 0.500000
#
# Coordination Sequence:
#
# PCOD9319763 Si02
#       8
#     4   8   8   8   8   8   8   8
#     4  12  28  48  82 108 152 194 252 314 376 454
#     4  12  26  50  75 113 150 201 260 309 378 462
#     4  11  22  41  65 101 142 190 242 305 362 445
#     4  11  25  42  70 103 148 197 247 308 372 437
#     4  11  28  50  76 109 152 193 247 316 383 447
#     4  11  25  42  71 104 143 188 240 309 371 436
#     4  10  22  41  62  95 141 188 242 306 366 440
#     4  10  22  39  64  98 136 185 247 300 366 442
#
# _framework density 23.144583000000001
#
# number of rings (size 3 to 8) (size 9 to 14) (size 15 to 20)
#    0.000    1.067    1.333    4.800    7.467    8.000 
#    0.000    1.333    0.000    0.000    0.000    0.000 
#    0.000    0.000    0.000    0.000    0.000    0.000 
#
# Total GULP energy -167269.086944 kJ/mol
# GULP energy per Si atom -5575.636231 kJ/mol
# Density = 2.309191 g / cm^3
# Si number density = 23.144583 Si / 1000 Ang^3
#
#
#
# Elastic Constant Matrix: (Units=GPa)
#
#
# Indices 1 2 3 4 5 6 
#
# 1 121.2951 22.2735 41.3607 0.0000 0.0000 0.0000
# 2 22.2735 59.4190 40.7332 0.0000 0.0000 0.0000
# 3 41.3607 40.7332 200.5256 0.0000 0.0000 0.0000
# 4 0.0000 0.0000 0.0000 40.6024 0.0000 0.0000
# 5 0.0000 0.0000 0.0000 0.0000 29.4527 0.0000
# 6 0.0000 0.0000 0.0000 0.0000 0.0000 0.2308
#
#
#
# Elastic Compliance Matrix: (Units=1/GPa)
#
#
# Indices 1 2 3 4 5 6 
#
# 1 0.009174 -0.002488 -0.001387 0.000000 0.000000 0.000000
# 2 -0.002488 0.020227 -0.003596 0.000000 0.000000 0.000000
# 3 -0.001387 -0.003596 0.006003 0.000000 0.000000 0.000000
# 4 0.000000 0.000000 0.000000 0.024629 0.000000 0.000000
# 5 0.000000 0.000000 0.000000 0.000000 0.033953 0.000000
# 6 0.000000 0.000000 0.000000 0.000000 0.000000 4.332162
#
#
# Mechanical properties :
#
#
# Convention : Reuss Voigt Hill
#
# Bulk Modulus (GPa) = 48.86780 65.55273 57.21027
# Shear Modulus (GPa) = 1.12412 32.51534 16.81973
#
# Velocity S-wave (km/s) = 0.69768 3.75224 2.69871
# Velocity P-wave (km/s) = 4.67001 6.86710 5.87222
#
# Compressibility (1/GPa) = 0.02046337
#
# Stress axis : x y z
#
# Youngs Moduli (GPa) = 109.00159 49.43833 166.57456
#
# Poissons Ratio (x) = 0.12302 0.23101
# Poissons Ratio (y) = 0.27123 0.59893
# Poissons Ratio (z) = 0.15117 0.17776
#
# Static dielectric constant tensor:
#      x y z
#    x 1.857390 0.000000 0.000000 
#    y 0.000000 1.932800 0.000000 
#    z 0.000000 0.000000 1.954370 
# 
# From -- ./inp_files/17083.got.cif
#   From: 2010.05.17/outbox.cif.g08.bks.cpg/sg20_9_cif.got.tgz:17083.got - 2010.06.03 22:52:26.
