data_PCOD9319882
_publ_section_title
;
Structure prediction by ZEFSAII (Michael W. Deem and Ramdas Pophale) SiO2 
 PCOD9319882
Probable space group: C 2 2 21
;
_chemical_formula_sum "Si O2"
_cell_formula_units_Z 40
_cell_length_a 9.047304
_cell_length_b 19.830443
_cell_length_c 9.127337
_cell_angle_alpha 90.000000
_cell_angle_beta 90.000000
_cell_angle_gamma 90.000000
_cell_volume 1637.554208
_symmetry_space_group_name_H-M "C 2 2 21"
_symmetry_group_IT_number 20
_symmetry_cell_setting 'orthorhombic'
loop_
_space_group_symop_operation_xyz
x,y,z
-x,-y,1/2+z
x,-y,-z
-x,y,1/2-z
1/2+x,1/2+y,z
1/2-x,1/2-y,1/2+z
1/2+x,1/2-y,-z
1/2-x,1/2+y,1/2-z
loop_
_atom_site_type_symbol
_atom_site_label
_atom_site_fract_x
_atom_site_fract_y
_atom_site_fract_z
Si Si1 0.340292 0.275731 0.175157
Si Si2 0.783686 0.620482 0.159398
Si Si3 0.712189 0.500000 0.500000
Si Si4 0.432594 0.111891 0.479923
Si Si5 0.585799 0.758938 0.385831
Si Si6 0.000000 0.947635 0.750000
O O1 0.500000 0.277163 0.250000
O O2 0.294111 0.199765 0.128518
O O3 0.224899 0.294341 0.302615
O O4 0.367664 0.297734 0.005854
O O5 0.853369 0.618338 0.322439
O O6 0.621091 0.592497 0.155206
O O7 0.902557 0.584927 0.054015
O O8 0.823483 0.559421 0.555426
O O9 0.605125 0.485784 0.635965
O O10 0.469354 0.184398 0.553268
O O11 0.500000 0.725894 0.250000
#
# Coordination Sequence:
#
# PCOD9319882 Si02
#       6
#     8   8   4   8   8   4
#     4  11  21  40  64  96 136 181 227 277 343 420
#     4   9  18  39  65  94 135 179 226 268 350 435
#     4  10  22  44  70 100 138 180 234 294 356 410
#     4   9  19  42  65  95 134 184 231 272 348 432
#     4  11  23  40  64  97 132 182 232 285 341 420
#     4  10  22  40  68 104 130 172 232 298 354 404
#
# _framework density 24.426670999999999
#
# number of rings (size 3 to 8) (size 9 to 14) (size 15 to 20)
#    0.000    2.000    4.000    1.200    1.400    0.800 
#   14.400    0.000    0.000    0.000    0.000    0.000 
#    0.000    0.000    0.000    0.000    0.000    0.000 
#
# Total GULP energy -111444.630590 kJ/mol
# GULP energy per Si atom -5572.231529 kJ/mol
# Density = 2.437107 g / cm^3
# Si number density = 24.426671 Si / 1000 Ang^3
#
#
#
# Elastic Constant Matrix: (Units=GPa)
#
#
# Indices 1 2 3 4 5 6 
#
# 1 183.7124 42.6033 55.2919 0.0000 0.0000 0.0000
# 2 42.6033 45.7570 2.8622 0.0000 0.0000 0.0000
# 3 55.2919 2.8622 103.7526 0.0000 0.0000 0.0000
# 4 0.0000 0.0000 0.0000 21.2487 0.0000 0.0000
# 5 0.0000 0.0000 0.0000 0.0000 59.2290 0.0000
# 6 0.0000 0.0000 0.0000 0.0000 0.0000 51.2198
#
#
#
# Elastic Compliance Matrix: (Units=1/GPa)
#
#
# Indices 1 2 3 4 5 6 
#
# 1 0.008525 -0.007666 -0.004332 0.000000 0.000000 0.000000
# 2 -0.007666 0.028787 0.003291 0.000000 0.000000 0.000000
# 3 -0.004332 0.003291 0.011856 0.000000 0.000000 0.000000
# 4 0.000000 0.000000 0.000000 0.047062 0.000000 0.000000
# 5 0.000000 0.000000 0.000000 0.000000 0.016884 0.000000
# 6 0.000000 0.000000 0.000000 0.000000 0.000000 0.019524
#
#
# Mechanical properties :
#
#
# Convention : Reuss Voigt Hill
#
# Bulk Modulus (GPa) = 31.49167 59.41518 45.45342
# Shear Modulus (GPa) = 31.12665 41.83714 36.48189
#
# Velocity S-wave (km/s) = 3.57359 4.14305 3.86881
# Velocity P-wave (km/s) = 5.47245 6.87482 6.21333
#
# Compressibility (1/GPa) = 0.03175443
#
# Stress axis : x y z
#
# Youngs Moduli (GPa) = 117.30496 34.73833 84.34633
#
# Poissons Ratio (x) = 0.26631 0.36535
# Poissons Ratio (y) = 0.89930 -0.27762
# Poissons Ratio (z) = 0.50811 -0.11434
#
# Static dielectric constant tensor:
#      x y z
#    x 2.096810 0.000000 0.000000 
#    y 0.000000 2.009100 0.000000 
#    z 0.000000 0.000000 2.721230 
# 
# From -- ./inp_files/6347.got.cif
#   From: 2010.05.17/outbox.cif.g08.bks.cpg/sg20_4_cif.got.tgz:6347.got - 2010.06.03 22:52:26.
