data_PCOD9319627
_publ_section_title
;
Structure prediction by ZEFSAII (Michael W. Deem and Ramdas Pophale) SiO2 
 PCOD9319627
Probable space group: C 2 2 21
;
_chemical_formula_sum "Si O2"
_cell_formula_units_Z 44
_cell_length_a 7.556069
_cell_length_b 30.347489
_cell_length_c 8.983170
_cell_angle_alpha 90.000000
_cell_angle_beta 90.000000
_cell_angle_gamma 90.000000
_cell_volume 2059.910239
_symmetry_space_group_name_H-M "C 2 2 21"
_symmetry_group_IT_number 20
_symmetry_cell_setting 'orthorhombic'
loop_
_space_group_symop_operation_xyz
x,y,z
-x,-y,1/2+z
x,-y,-z
-x,y,1/2-z
1/2+x,1/2+y,z
1/2-x,1/2-y,1/2+z
1/2+x,1/2-y,-z
1/2-x,1/2+y,1/2-z
loop_
_atom_site_type_symbol
_atom_site_label
_atom_site_fract_x
_atom_site_fract_y
_atom_site_fract_z
Si Si1 0.215408 0.772820 0.240724
Si Si2 0.500000 0.558024 0.250000
Si Si3 0.784422 0.808215 0.948271
Si Si4 0.650049 0.355394 0.047769
Si Si5 0.009701 0.000000 0.500000
Si Si6 0.183959 0.385211 0.762048
Si Si7 0.000000 0.067855 0.750000
O O1 0.283627 0.784333 0.404257
O O2 0.305796 0.730221 0.171799
O O3 0.240221 0.816076 0.139663
O O4 0.000000 0.765028 0.250000
O O5 0.411180 0.530816 0.382851
O O6 0.654987 0.585927 0.321649
O O7 0.659667 0.844323 0.872857
O O8 0.962551 0.833882 0.996255
O O9 0.619528 0.397829 0.154479
O O10 0.750362 0.368601 0.898244
O O11 0.088268 0.035068 0.623905
O O12 0.000000 0.410050 0.750000
#
# Coordination Sequence:
#
# PCOD9319627 Si02
#       7
#     8   4   8   8   4   8   4
#     4  10  22  36  60  91 128 182 233 288 341 406
#     4  11  22  44  70 100 132 180 218 282 354 421
#     4  11  20  38  61  90 129 180 236 287 339 403
#     4  11  21  42  67  92 140 188 228 291 351 424
#     4  10  22  36  78 104 128 170 232 284 354 446
#     4  12  24  41  67  98 136 179 230 281 350 421
#     4  11  18  40  68 108 130 182 236 286 376 423
#
# _framework density 21.360153
#
# number of rings (size 3 to 8) (size 9 to 14) (size 15 to 20)
#    0.000    1.091    6.364    1.636    0.000    2.909 
#    0.000    5.455    0.000    0.000    0.000    0.000 
#    0.000    0.000    0.000    0.000    0.000    0.000 
#
# Total GULP energy -122599.336672 kJ/mol
# GULP energy per Si atom -5572.697121 kJ/mol
# Density = 2.131154 g / cm^3
# Si number density = 21.360153 Si / 1000 Ang^3
#
#
#
# Elastic Constant Matrix: (Units=GPa)
#
#
# Indices 1 2 3 4 5 6 
#
# 1 45.7332 17.1793 6.7651 0.0000 0.0000 0.0000
# 2 17.1793 103.6079 36.0989 0.0000 0.0000 0.0000
# 3 6.7651 36.0989 118.0915 0.0000 0.0000 0.0000
# 4 0.0000 0.0000 0.0000 54.9274 0.0000 0.0000
# 5 0.0000 0.0000 0.0000 0.0000 15.3736 0.0000
# 6 0.0000 0.0000 0.0000 0.0000 0.0000 -2.8870
#
#
#
# Elastic Compliance Matrix: (Units=1/GPa)
#
#
# Indices 1 2 3 4 5 6 
#
# 1 0.023321 -0.003807 -0.000172 0.000000 0.000000 0.000000
# 2 -0.003807 0.011424 -0.003274 0.000000 0.000000 0.000000
# 3 -0.000172 -0.003274 0.009479 0.000000 0.000000 0.000000
# 4 0.000000 0.000000 0.000000 0.018206 0.000000 0.000000
# 5 0.000000 0.000000 0.000000 0.000000 0.065047 0.000000
# 6 0.000000 0.000000 0.000000 0.000000 0.000000 -0.346377
#
#
# Mechanical properties :
#
#
# Convention : Reuss Voigt Hill
#
# Bulk Modulus (GPa) = 33.65025 43.05772 38.35398
# Shear Modulus (GPa) = -25.70845 27.30874 0.80014
#
# Velocity S-wave (km/s) = -3.47302 3.57948 0.61271
# Velocity P-wave (km/s) = 0.54267 6.10617 4.30063
#
# Compressibility (1/GPa) = 0.02971746
#
# Stress axis : x y z
#
# Youngs Moduli (GPa) = 42.87896 87.53720 105.49981
#
# Poissons Ratio (x) = 0.33325 0.01818
# Poissons Ratio (y) = 0.16324 0.34540
# Poissons Ratio (z) = 0.00739 0.28660
#
# Static dielectric constant tensor:
#      x y z
#    x 1.802490 0.000000 0.000000 
#    y 0.000000 1.840410 0.000000 
#    z 0.000000 0.000000 1.832060 
# 
# From -- ./inp_files/6412.got.cif
#   From: 2010.05.17/outbox.cif.g08.bks.cpg/sg20_4_cif.got.tgz:6412.got - 2010.06.03 22:52:26.
