data_PCOD9319202
_publ_section_title
;
Structure prediction by ZEFSAII (Michael W. Deem and Ramdas Pophale) SiO2 
 PCOD9319202
Probable space group: C 2 2 21
;
_chemical_formula_sum "Si O2"
_cell_formula_units_Z 60
_cell_length_a 8.485823
_cell_length_b 12.038562
_cell_length_c 27.485632
_cell_angle_alpha 90.000000
_cell_angle_beta 90.000000
_cell_angle_gamma 90.000000
_cell_volume 2807.852630
_symmetry_space_group_name_H-M "C 2 2 21"
_symmetry_group_IT_number 20
_symmetry_cell_setting 'orthorhombic'
loop_
_space_group_symop_operation_xyz
x,y,z
-x,-y,1/2+z
x,-y,-z
-x,y,1/2-z
1/2+x,1/2+y,z
1/2-x,1/2-y,1/2+z
1/2+x,1/2-y,-z
1/2-x,1/2+y,1/2-z
loop_
_atom_site_type_symbol
_atom_site_label
_atom_site_fract_x
_atom_site_fract_y
_atom_site_fract_z
Si Si1 0.190347 0.357588 0.062802
Si Si2 0.696295 0.183103 0.365612
Si Si3 0.900296 0.000000 0.000000
Si Si4 0.360268 0.217718 0.903918
Si Si5 0.065675 0.577976 0.198615
Si Si6 0.888495 0.026059 0.594908
Si Si7 0.458367 0.189438 0.695671
Si Si8 0.305272 0.544864 0.128853
O O1 0.300711 0.266143 0.088735
O O2 0.188523 0.462073 0.100275
O O3 0.011789 0.312328 0.062386
O O4 0.279308 0.401204 0.015188
O O5 0.534940 0.142928 0.341940
O O6 0.778934 0.072188 0.385693
O O7 0.804849 0.246196 0.325352
O O8 0.019718 0.995685 0.954547
O O9 0.418102 0.203758 0.848119
O O10 0.322718 0.347348 0.904952
O O11 0.213924 0.136206 0.911899
O O12 0.051803 0.444217 0.199198
O O13 0.000000 0.618488 0.250000
O O14 0.244308 0.587684 0.180590
O O15 0.033431 0.024521 0.633079
O O16 0.500000 0.229346 0.750000
#
# Coordination Sequence:
#
# PCOD9319202 Si02
#       8
#     8   8   4   8   8   8   8   8
#     4  10  22  47  64  94 132 171 217 281 343 396
#     4  11  21  43  69  91 136 180 212 274 340 393
#     4  10  26  44  64 100 132 158 234 290 318 428
#     4  11  22  42  70  92 132 184 210 268 352 393
#     4  11  24  40  65  99 139 182 227 267 326 396
#     4  11  23  44  67 100 127 169 230 272 345 403
#     4  10  21  40  64  96 137 173 226 271 314 395
#     4  11  22  41  65  97 132 175 220 270 328 400
#
# _framework density 21.368642999999999
#
# number of rings (size 3 to 8) (size 9 to 14) (size 15 to 20)
#    0.000    1.333    6.667    0.000    5.600    0.533 
#    4.800    0.000    0.000    0.800    0.000    0.000 
#    0.000    0.000    0.000    0.000    0.000    0.000 
#
# Total GULP energy -167180.295492 kJ/mol
# GULP energy per Si atom -5572.676516 kJ/mol
# Density = 2.132001 g / cm^3
# Si number density = 21.368643 Si / 1000 Ang^3
#
#
#
# Elastic Constant Matrix: (Units=GPa)
#
#
# Indices 1 2 3 4 5 6 
#
# 1 73.5989 16.2194 16.8321 0.0000 0.0000 0.0000
# 2 16.2194 75.5067 -24.6749 0.0000 0.0000 0.0000
# 3 16.8321 -24.6749 53.1327 0.0000 0.0000 0.0000
# 4 0.0000 0.0000 0.0000 20.2583 0.0000 0.0000
# 5 0.0000 0.0000 0.0000 0.0000 25.2469 0.0000
# 6 0.0000 0.0000 0.0000 0.0000 0.0000 29.3358
#
#
#
# Elastic Compliance Matrix: (Units=1/GPa)
#
#
# Indices 1 2 3 4 5 6 
#
# 1 0.016879 -0.006334 -0.008289 0.000000 0.000000 0.000000
# 2 -0.006334 0.017991 0.010362 0.000000 0.000000 0.000000
# 3 -0.008289 0.010362 0.026259 0.000000 0.000000 0.000000
# 4 0.000000 0.000000 0.000000 0.049363 0.000000 0.000000
# 5 0.000000 0.000000 0.000000 0.000000 0.039609 0.000000
# 6 0.000000 0.000000 0.000000 0.000000 0.000000 0.034088
#
#
# Mechanical properties :
#
#
# Convention : Reuss Voigt Hill
#
# Bulk Modulus (GPa) = 19.00971 24.33240 21.67105
# Shear Modulus (GPa) = 23.78173 27.89231 25.83702
#
# Velocity S-wave (km/s) = 3.33967 3.61680 3.48100
# Velocity P-wave (km/s) = 4.87715 5.37153 5.13030
#
# Compressibility (1/GPa) = 0.05260469
#
# Stress axis : x y z
#
# Youngs Moduli (GPa) = 59.24610 55.58458 38.08282
#
# Poissons Ratio (x) = 0.35209 0.31566
# Poissons Ratio (y) = 0.37529 -0.39460
# Poissons Ratio (z) = 0.49108 -0.57594
#
# Static dielectric constant tensor:
#      x y z
#    x 1.824800 0.000000 0.000000 
#    y 0.000000 1.854120 0.000000 
#    z 0.000000 0.000000 1.827210 
# 
# From -- ./inp_files/31048.got.cif
#   From: 2010.05.17/outbox.cif.g08.bks.cpg/sg20_16_cif.got.tgz:31048.got - 2010.06.03 22:52:26.
