data_PCOD9319908
_publ_section_title
;
Structure prediction by ZEFSAII (Michael W. Deem and Ramdas Pophale) SiO2 
 PCOD9319908
Probable space group: C 2 2 21
;
_chemical_formula_sum "Si O2"
_cell_formula_units_Z 24
_cell_length_a 5.984151
_cell_length_b 8.784799
_cell_length_c 17.708964
_cell_angle_alpha 90.000000
_cell_angle_beta 90.000000
_cell_angle_gamma 90.000000
_cell_volume 930.952511
_symmetry_space_group_name_H-M "C 2 2 21"
_symmetry_group_IT_number 20
_symmetry_cell_setting 'orthorhombic'
loop_
_space_group_symop_operation_xyz
x,y,z
-x,-y,1/2+z
x,-y,-z
-x,y,1/2-z
1/2+x,1/2+y,z
1/2-x,1/2-y,1/2+z
1/2+x,1/2-y,-z
1/2-x,1/2+y,1/2-z
loop_
_atom_site_type_symbol
_atom_site_label
_atom_site_fract_x
_atom_site_fract_y
_atom_site_fract_z
Si Si1 0.023011 0.655461 0.105139
Si Si2 0.476671 0.355829 0.962369
Si Si3 0.384711 0.150658 0.830278
O O1 0.246475 0.575191 0.071393
O O2 0.136103 0.779040 0.161133
O O3 0.883746 0.525154 0.145129
O O4 0.928838 0.740655 0.031493
O O5 0.529274 0.248113 0.890848
O O6 0.600835 0.500000 0.000000
O O7 0.500000 0.166122 0.750000
#
# Coordination Sequence:
#
# PCOD9319908 Si02
#       3
#     8   8   8
#     4  10  24  44  73  96 148 182 243 287 352 426
#     4  10  22  40  72 105 138 191 239 291 344 429
#     4  10  24  46  70 105 149 185 238 300 364 413
#
# _framework density 25.780045000000001
#
# number of rings (size 3 to 8) (size 9 to 14) (size 15 to 20)
#    2.000    0.000    0.000    3.000    4.667    2.667 
#    6.000    0.000    0.000    0.000    0.000    0.000 
#    0.000    0.000    0.000    0.000    0.000    0.000 
#
# Total GULP energy -66925.984042 kJ/mol
# GULP energy per Si atom -5577.165337 kJ/mol
# Density = 2.572137 g / cm^3
# Si number density = 25.780045 Si / 1000 Ang^3
#
#
#
# Elastic Constant Matrix: (Units=GPa)
#
#
# Indices 1 2 3 4 5 6 
#
# 1 37.0831 33.9726 9.1209 0.0000 0.0000 0.0000
# 2 33.9726 209.6200 66.5165 0.0000 0.0000 0.0000
# 3 9.1209 66.5165 130.5543 0.0000 0.0000 0.0000
# 4 0.0000 0.0000 0.0000 29.2602 0.0000 0.0000
# 5 0.0000 0.0000 0.0000 0.0000 20.5864 0.0000
# 6 0.0000 0.0000 0.0000 0.0000 0.0000 29.1970
#
#
#
# Elastic Compliance Matrix: (Units=1/GPa)
#
#
# Indices 1 2 3 4 5 6 
#
# 1 0.031694 -0.005289 0.000480 0.000000 0.000000 0.000000
# 2 -0.005289 0.006573 -0.002979 0.000000 0.000000 0.000000
# 3 0.000480 -0.002979 0.009144 0.000000 0.000000 0.000000
# 4 0.000000 0.000000 0.000000 0.034176 0.000000 0.000000
# 5 0.000000 0.000000 0.000000 0.000000 0.048576 0.000000
# 6 0.000000 0.000000 0.000000 0.000000 0.000000 0.034250
#
#
# Mechanical properties :
#
#
# Convention : Reuss Voigt Hill
#
# Bulk Modulus (GPa) = 31.41205 66.27527 48.84366
# Shear Modulus (GPa) = 26.23288 33.65187 29.94238
#
# Velocity S-wave (km/s) = 3.19339 3.61688 3.41171
# Velocity P-wave (km/s) = 5.08017 6.57314 5.87428
#
# Compressibility (1/GPa) = 0.03183492
#
# Stress axis : x y z
#
# Youngs Moduli (GPa) = 31.55213 152.13407 109.36020
#
# Poissons Ratio (x) = 0.80463 -0.05255
# Poissons Ratio (y) = 0.16688 0.32584
# Poissons Ratio (z) = -0.01516 0.45328
#
# Static dielectric constant tensor:
#      x y z
#    x 2.406090 0.000000 0.000000 
#    y 0.000000 2.008350 0.000000 
#    z 0.000000 0.000000 1.975790 
# 
# From -- ./inp_files/18053.got.cif
#   From: 2010.05.17/outbox.cif.g08.bks.cpg/sg20_10_cif.got.tgz:18053.got - 2010.06.03 22:52:26.
