data_PCOD9319102
_publ_section_title
;
Structure prediction by ZEFSAII (Michael W. Deem and Ramdas Pophale) SiO2 
 PCOD9319102
Probable space group: C 2 2 21
;
_chemical_formula_sum "Si O2"
_cell_formula_units_Z 56
_cell_length_a 13.981138
_cell_length_b 14.420197
_cell_length_c 12.542213
_cell_angle_alpha 90.000000
_cell_angle_beta 90.000000
_cell_angle_gamma 90.000000
_cell_volume 2528.645148
_symmetry_space_group_name_H-M "C 2 2 21"
_symmetry_group_IT_number 20
_symmetry_cell_setting 'orthorhombic'
loop_
_space_group_symop_operation_xyz
x,y,z
-x,-y,1/2+z
x,-y,-z
-x,y,1/2-z
1/2+x,1/2+y,z
1/2-x,1/2-y,1/2+z
1/2+x,1/2-y,-z
1/2-x,1/2+y,1/2-z
loop_
_atom_site_type_symbol
_atom_site_label
_atom_site_fract_x
_atom_site_fract_y
_atom_site_fract_z
Si Si1 0.150517 0.430058 0.090977
Si Si2 0.485138 0.714474 0.867254
Si Si3 0.133196 0.036433 0.600605
Si Si4 0.305829 0.975902 0.166846
Si Si5 0.159608 0.346927 0.523785
Si Si6 0.871664 0.220977 0.451399
Si Si7 0.107003 0.056474 0.211302
O O1 0.264464 0.423708 0.067395
O O2 0.152617 0.464794 0.213872
O O3 0.108276 0.327272 0.080479
O O4 0.110561 0.500000 0.000000
O O5 0.500000 0.756079 0.750000
O O6 0.423578 0.621408 0.849189
O O7 0.424806 0.779537 0.945079
O O8 0.580013 0.696964 0.935565
O O9 0.074744 0.000000 0.500000
O O10 0.153419 0.944459 0.670791
O O11 0.340883 0.068628 0.108410
O O12 0.188204 0.987429 0.161527
O O13 0.339192 0.890968 0.093556
O O14 0.258713 0.293346 0.538714
O O15 0.901520 0.146653 0.360812
O O16 0.000000 0.030141 0.250000
#
# Coordination Sequence:
#
# PCOD9319102 Si02
#       7
#     8   8   8   8   8   8   8
#     4  10  22  42  67 101 133 186 236 286 348 421
#     4  12  27  42  68 104 139 186 238 295 359 424
#     4  10  21  40  63  99 144 180 225 290 359 421
#     4   9  22  43  71  91 138 190 227 289 363 406
#     4  10  23  47  66  99 137 184 237 290 354 441
#     4  11  25  43  68 100 138 184 237 291 363 417
#     4  10  21  39  66 103 135 175 231 290 353 428
#
# _framework density 22.146248
#
# number of rings (size 3 to 8) (size 9 to 14) (size 15 to 20)
#    0.000    1.714    1.429    1.286    8.000    2.286 
#    5.143    0.000    0.000    0.000    0.000    0.000 
#    0.000    0.000    0.000    0.000    0.000    0.000 
#
# Total GULP energy -155977.173741 kJ/mol
# GULP energy per Si atom -5570.613348 kJ/mol
# Density = 2.209584 g / cm^3
# Si number density = 22.146248 Si / 1000 Ang^3
#
#
#
# Elastic Constant Matrix: (Units=GPa)
#
#
# Indices 1 2 3 4 5 6 
#
# 1 47.8027 16.7749 21.3151 0.0000 0.0000 0.0000
# 2 16.7749 102.4910 73.3223 0.0000 0.0000 0.0000
# 3 21.3151 73.3223 155.5365 0.0000 0.0000 0.0000
# 4 0.0000 0.0000 0.0000 29.6605 0.0000 0.0000
# 5 0.0000 0.0000 0.0000 0.0000 27.4972 0.0000
# 6 0.0000 0.0000 0.0000 0.0000 0.0000 8.2868
#
#
#
# Elastic Compliance Matrix: (Units=1/GPa)
#
#
# Indices 1 2 3 4 5 6 
#
# 1 0.022617 -0.002240 -0.002044 0.000000 0.000000 0.000000
# 2 -0.002240 0.014944 -0.006738 0.000000 0.000000 0.000000
# 3 -0.002044 -0.006738 0.009886 0.000000 0.000000 0.000000
# 4 0.000000 0.000000 0.000000 0.033715 0.000000 0.000000
# 5 0.000000 0.000000 0.000000 0.000000 0.036367 0.000000
# 6 0.000000 0.000000 0.000000 0.000000 0.000000 0.120674
#
#
# Mechanical properties :
#
#
# Convention : Reuss Voigt Hill
#
# Bulk Modulus (GPa) = 39.36415 58.73944 49.05180
# Shear Modulus (GPa) = 18.60726 26.05010 22.32868
#
# Velocity S-wave (km/s) = 2.90176 3.43341 3.17872
# Velocity P-wave (km/s) = 5.38890 6.50375 5.97239
#
# Compressibility (1/GPa) = 0.02540382
#
# Stress axis : x y z
#
# Youngs Moduli (GPa) = 44.21547 66.91760 101.15612
#
# Poissons Ratio (x) = 0.14988 0.20672
# Poissons Ratio (y) = 0.09903 0.68157
# Poissons Ratio (z) = 0.09036 0.45088
#
# Static dielectric constant tensor:
#      x y z
#    x 1.883860 0.000000 0.000000 
#    y 0.000000 1.812580 0.000000 
#    z 0.000000 0.000000 1.941580 
# 
# From -- ./inp_files/15153.got.cif
#   From: 2010.05.17/outbox.cif.g08.bks.cpg/sg20_8_cif.got.tgz:15153.got - 2010.06.03 22:52:26.
