data_PCOD9319118
_publ_section_title
;
Structure prediction by ZEFSAII (Michael W. Deem and Ramdas Pophale) SiO2 
 PCOD9319118
Probable space group: C 2 2 21
;
_chemical_formula_sum "Si O2"
_cell_formula_units_Z 60
_cell_length_a 19.770075
_cell_length_b 12.166820
_cell_length_c 11.912936
_cell_angle_alpha 90.000000
_cell_angle_beta 90.000000
_cell_angle_gamma 90.000000
_cell_volume 2865.525044
_symmetry_space_group_name_H-M "C 2 2 21"
_symmetry_group_IT_number 20
_symmetry_cell_setting 'orthorhombic'
loop_
_space_group_symop_operation_xyz
x,y,z
-x,-y,1/2+z
x,-y,-z
-x,y,1/2-z
1/2+x,1/2+y,z
1/2-x,1/2-y,1/2+z
1/2+x,1/2-y,-z
1/2-x,1/2+y,1/2-z
loop_
_atom_site_type_symbol
_atom_site_label
_atom_site_fract_x
_atom_site_fract_y
_atom_site_fract_z
Si Si1 0.611718 0.443511 0.766575
Si Si2 0.939093 0.173009 0.039214
Si Si3 0.041924 0.000000 0.000000
Si Si4 0.326263 0.367208 0.136835
Si Si5 0.382390 0.919906 0.238303
Si Si6 0.290721 0.953787 0.608664
Si Si7 0.496639 0.094016 0.585368
Si Si8 0.775356 0.227403 0.221974
O O1 0.571691 0.379808 0.664707
O O2 0.625555 0.566783 0.722597
O O3 0.680420 0.371509 0.774437
O O4 0.581083 0.456859 0.890316
O O5 0.971688 0.292328 0.043563
O O6 0.991182 0.098273 0.970566
O O7 0.868922 0.168146 0.971332
O O8 0.272169 0.462245 0.109793
O O9 0.282129 0.273724 0.195918
O O10 0.438283 0.956629 0.149959
O O11 0.432512 0.875827 0.336407
O O12 0.329448 0.825386 0.200095
O O13 0.337707 0.018825 0.285765
O O14 0.263331 0.830302 0.617615
O O15 0.328569 0.000000 0.500000
O O16 0.476258 0.000000 0.500000
#
# Coordination Sequence:
#
# PCOD9319118 Si02
#       8
#     8   8   4   8   8   8   8   8
#     4  11  22  46  63 105 140 175 234 291 362 421
#     4  12  23  42  74  96 140 184 234 295 358 423
#     4  12  26  40  74 104 136 182 228 302 354 424
#     4  10  22  40  66 101 130 179 228 286 358 421
#     4  10  22  43  64  95 132 180 222 285 345 414
#     4  10  21  39  67  95 132 177 224 284 350 421
#     4  11  25  43  68  96 135 189 237 278 353 430
#     4  10  21  42  69  94 139 177 229 286 353 426
#
# _framework density 20.938572000000001
#
# number of rings (size 3 to 8) (size 9 to 14) (size 15 to 20)
#    0.000    1.333    2.667    3.200    3.733    0.000 
#   12.000    0.000    0.000    0.000    0.000    0.000 
#    0.000    0.000    0.000    0.000    0.000    0.000 
#
# Total GULP energy -167240.170161 kJ/mol
# GULP energy per Si atom -5574.672339 kJ/mol
# Density = 2.089091 g / cm^3
# Si number density = 20.938572 Si / 1000 Ang^3
#
#
#
# Elastic Constant Matrix: (Units=GPa)
#
#
# Indices 1 2 3 4 5 6 
#
# 1 91.7221 36.0275 35.1128 0.0000 0.0000 0.0000
# 2 36.0275 81.3966 36.7535 0.0000 0.0000 0.0000
# 3 35.1128 36.7535 73.3246 0.0000 0.0000 0.0000
# 4 0.0000 0.0000 0.0000 24.8169 0.0000 0.0000
# 5 0.0000 0.0000 0.0000 0.0000 26.6914 0.0000
# 6 0.0000 0.0000 0.0000 0.0000 0.0000 25.3467
#
#
#
# Elastic Compliance Matrix: (Units=1/GPa)
#
#
# Indices 1 2 3 4 5 6 
#
# 1 0.014385 -0.004209 -0.004779 0.000000 0.000000 0.000000
# 2 -0.004209 0.017111 -0.006561 0.000000 0.000000 0.000000
# 3 -0.004779 -0.006561 0.019215 0.000000 0.000000 0.000000
# 4 0.000000 0.000000 0.000000 0.040295 0.000000 0.000000
# 5 0.000000 0.000000 0.000000 0.000000 0.037465 0.000000
# 6 0.000000 0.000000 0.000000 0.000000 0.000000 0.039453
#
#
# Mechanical properties :
#
#
# Convention : Reuss Voigt Hill
#
# Bulk Modulus (GPa) = 50.98635 51.35898 51.17266
# Shear Modulus (GPa) = 24.32367 24.60765 24.46566
#
# Velocity S-wave (km/s) = 3.41202 3.43188 3.42197
# Velocity P-wave (km/s) = 6.31869 6.34708 6.33290
#
# Compressibility (1/GPa) = 0.01961309
#
# Stress axis : x y z
#
# Youngs Moduli (GPa) = 69.51546 58.44097 52.04232
#
# Poissons Ratio (x) = 0.24600 0.24870
# Poissons Ratio (y) = 0.29262 0.34146
# Poissons Ratio (z) = 0.33220 0.38344
#
# Static dielectric constant tensor:
#      x y z
#    x 1.791960 0.000000 0.000000 
#    y 0.000000 1.794080 0.000000 
#    z 0.000000 0.000000 1.918760 
# 
# From -- ./inp_files/16388.got.cif
#   From: 2010.05.17/outbox.cif.g08.bks.cpg/sg20_9_cif.got.tgz:16388.got - 2010.06.03 22:52:26.
