data_PCOD9319940
_publ_section_title
;
Structure prediction by ZEFSAII (Michael W. Deem and Ramdas Pophale) SiO2 
 PCOD9319940
Probable space group: C 2 2 21
;
_chemical_formula_sum "Si O2"
_cell_formula_units_Z 56
_cell_length_a 9.181676
_cell_length_b 12.834604
_cell_length_c 19.996991
_cell_angle_alpha 90.000000
_cell_angle_beta 90.000000
_cell_angle_gamma 90.000000
_cell_volume 2356.508920
_symmetry_space_group_name_H-M "C 2 2 21"
_symmetry_group_IT_number 20
_symmetry_cell_setting 'orthorhombic'
loop_
_space_group_symop_operation_xyz
x,y,z
-x,-y,1/2+z
x,-y,-z
-x,y,1/2-z
1/2+x,1/2+y,z
1/2-x,1/2-y,1/2+z
1/2+x,1/2-y,-z
1/2-x,1/2+y,1/2-z
loop_
_atom_site_type_symbol
_atom_site_label
_atom_site_fract_x
_atom_site_fract_y
_atom_site_fract_z
Si Si1 0.026055 0.805281 0.589347
Si Si2 0.811461 0.754694 0.376563
Si Si3 0.830016 0.862840 0.247080
Si Si4 0.686641 0.385355 0.001764
Si Si5 0.409186 0.116335 0.121662
Si Si6 0.554855 0.099476 0.827471
Si Si7 0.871807 0.905639 0.700086
O O1 0.196956 0.822392 0.588568
O O2 0.995023 0.699020 0.629693
O O3 0.934473 0.803390 0.522276
O O4 0.955763 0.899415 0.630398
O O5 0.765840 0.781853 0.300985
O O6 0.787466 0.856797 0.421576
O O7 0.969920 0.705609 0.377637
O O8 0.729197 0.880598 0.182443
O O9 0.000000 0.834345 0.250000
O O10 0.833934 0.979164 0.277352
O O11 0.823201 0.384814 0.949853
O O12 0.623915 0.500000 0.000000
O O13 0.286428 0.140079 0.178955
O O14 0.492664 0.007405 0.139776
O O15 0.500000 0.099144 0.750000
O O16 0.000000 0.864390 0.750000
#
# Coordination Sequence:
#
# PCOD9319940 Si02
#       7
#     8   8   8   8   8   8   8
#     4  11  24  41  70  99 136 187 234 295 361 426
#     4  12  25  44  70 109 140 190 241 306 364 440
#     4  11  26  41  69 104 150 191 238 293 371 444
#     4  11  25  51  74  96 140 191 251 307 366 435
#     4  11  26  43  73 104 143 195 248 302 374 447
#     4  12  23  45  69 107 150 189 233 299 372 448
#     4  10  22  41  63  97 139 189 231 289 358 432
#
# _framework density 23.763967999999998
#
# number of rings (size 3 to 8) (size 9 to 14) (size 15 to 20)
#    0.000    0.857    2.857    3.857    8.000    0.571 
#    0.000    0.714    0.000    0.000    0.000    0.000 
#    0.000    0.000    0.000    0.000    0.000    0.000 
#
# Total GULP energy -156181.351596 kJ/mol
# GULP energy per Si atom -5577.905414 kJ/mol
# Density = 2.370988 g / cm^3
# Si number density = 23.763968 Si / 1000 Ang^3
#
#
#
# Elastic Constant Matrix: (Units=GPa)
#
#
# Indices 1 2 3 4 5 6 
#
# 1 167.0570 35.5589 34.9929 0.0000 0.0000 0.0000
# 2 35.5589 75.9163 33.4388 0.0000 0.0000 0.0000
# 3 34.9929 33.4388 81.5513 0.0000 0.0000 0.0000
# 4 0.0000 0.0000 0.0000 41.5596 0.0000 0.0000
# 5 0.0000 0.0000 0.0000 0.0000 35.9640 0.0000
# 6 0.0000 0.0000 0.0000 0.0000 0.0000 36.5866
#
#
#
# Elastic Compliance Matrix: (Units=1/GPa)
#
#
# Indices 1 2 3 4 5 6 
#
# 1 0.006906 -0.002355 -0.001998 0.000000 0.000000 0.000000
# 2 -0.002355 0.016879 -0.005910 0.000000 0.000000 0.000000
# 3 -0.001998 -0.005910 0.015543 0.000000 0.000000 0.000000
# 4 0.000000 0.000000 0.000000 0.024062 0.000000 0.000000
# 5 0.000000 0.000000 0.000000 0.000000 0.027806 0.000000
# 6 0.000000 0.000000 0.000000 0.000000 0.000000 0.027332
#
#
# Mechanical properties :
#
#
# Convention : Reuss Voigt Hill
#
# Bulk Modulus (GPa) = 53.18688 59.16733 56.17711
# Shear Modulus (GPa) = 34.40687 37.52431 35.96559
#
# Velocity S-wave (km/s) = 3.80920 3.97803 3.89453
# Velocity P-wave (km/s) = 6.46348 6.78613 6.62677
#
# Compressibility (1/GPa) = 0.01880163
#
# Stress axis : x y z
#
# Youngs Moduli (GPa) = 144.80947 59.24627 64.33808
#
# Poissons Ratio (x) = 0.13951 0.12852
# Poissons Ratio (y) = 0.34098 0.38027
# Poissons Ratio (z) = 0.28928 0.35017
#
# Static dielectric constant tensor:
#      x y z
#    x 2.007170 0.000000 0.000000 
#    y 0.000000 1.938180 0.000000 
#    z 0.000000 0.000000 1.960730 
# 
# From -- ./inp_files/26723.got.cif
#   From: 2010.05.17/outbox.cif.g08.bks.cpg/sg20_14_cif.got.tgz:26723.got - 2010.06.03 22:52:26.
