data_PCOD9319180
_publ_section_title
;
Structure prediction by ZEFSAII (Michael W. Deem and Ramdas Pophale) SiO2 
 PCOD9319180
Probable space group: C 2 2 21
;
_chemical_formula_sum "Si O2"
_cell_formula_units_Z 60
_cell_length_a 23.763742
_cell_length_b 11.013315
_cell_length_c 10.399300
_cell_angle_alpha 90.000000
_cell_angle_beta 90.000000
_cell_angle_gamma 90.000000
_cell_volume 2721.679590
_symmetry_space_group_name_H-M "C 2 2 21"
_symmetry_group_IT_number 20
_symmetry_cell_setting 'orthorhombic'
loop_
_space_group_symop_operation_xyz
x,y,z
-x,-y,1/2+z
x,-y,-z
-x,y,1/2-z
1/2+x,1/2+y,z
1/2-x,1/2-y,1/2+z
1/2+x,1/2-y,-z
1/2-x,1/2+y,1/2-z
loop_
_atom_site_type_symbol
_atom_site_label
_atom_site_fract_x
_atom_site_fract_y
_atom_site_fract_z
Si Si1 0.454809 0.500000 0.500000
Si Si2 0.795136 0.768294 0.290386
Si Si3 0.656670 0.486729 0.361154
Si Si4 0.510199 0.917254 0.612317
Si Si5 0.383563 0.137055 0.474796
Si Si6 0.460721 0.346834 0.128109
Si Si7 0.743315 0.866685 0.531459
Si Si8 0.634416 0.644861 0.149466
O O1 0.497511 0.611496 0.516199
O O2 0.412415 0.453915 0.609151
O O3 0.809488 0.903047 0.238506
O O4 0.846896 0.704819 0.365850
O O5 0.747376 0.786321 0.400675
O O6 0.782167 0.694878 0.159423
O O7 0.684484 0.500000 0.500000
O O8 0.597503 0.416617 0.378933
O O9 0.645603 0.616959 0.297498
O O10 0.500000 0.979512 0.750000
O O11 0.448087 0.874412 0.568503
O O12 0.546934 0.797003 0.631532
O O13 0.533614 0.000000 0.500000
O O14 0.381680 0.221288 0.601745
O O15 0.362534 0.000000 0.500000
O O16 0.500000 0.379567 0.250000
O O17 0.808704 0.881580 0.571550
O O18 0.719473 0.000000 0.500000
#
# Coordination Sequence:
#
# PCOD9319180 Si02
#       8
#     4   8   8   8   8   8   8   8
#     4  12  18  36  66  98 126 170 214 276 324 400
#     4  11  25  44  67  99 131 171 229 282 334 406
#     4  12  25  42  65 102 142 173 216 288 342 391
#     4  10  21  40  63  90 132 183 227 269 327 403
#     4  10  22  44  69  94 130 183 224 272 334 411
#     4  11  21  36  64  97 133 170 221 273 335 392
#     4  11  24  43  70  95 129 177 221 274 349 396
#     4  11  21  42  68  93 133 172 222 270 337 406
#
# _framework density 22.045213
#
# number of rings (size 3 to 8) (size 9 to 14) (size 15 to 20)
#    0.000    1.067    5.333    2.400    1.867    2.133 
#    4.800    2.000    0.000    0.000    0.000    0.000 
#    0.000    0.000    0.000    0.000    0.000    0.000 
#
# Total GULP energy -167443.350796 kJ/mol
# GULP energy per Si atom -5581.445027 kJ/mol
# Density = 2.199504 g / cm^3
# Si number density = 22.045213 Si / 1000 Ang^3
#
#
#
# Elastic Constant Matrix: (Units=GPa)
#
#
# Indices 1 2 3 4 5 6 
#
# 1 31.9351 8.2298 6.2391 0.0000 0.0000 0.0000
# 2 8.2298 90.8515 50.9035 0.0000 0.0000 0.0000
# 3 6.2391 50.9035 130.2679 0.0000 0.0000 0.0000
# 4 0.0000 0.0000 0.0000 48.6137 0.0000 0.0000
# 5 0.0000 0.0000 0.0000 0.0000 22.1505 0.0000
# 6 0.0000 0.0000 0.0000 0.0000 0.0000 17.0807
#
#
#
# Elastic Compliance Matrix: (Units=1/GPa)
#
#
# Indices 1 2 3 4 5 6 
#
# 1 0.032089 -0.002619 -0.000513 0.000000 0.000000 0.000000
# 2 -0.002619 0.014306 -0.005465 0.000000 0.000000 0.000000
# 3 -0.000513 -0.005465 0.009837 0.000000 0.000000 0.000000
# 4 0.000000 0.000000 0.000000 0.020570 0.000000 0.000000
# 5 0.000000 0.000000 0.000000 0.000000 0.045146 0.000000
# 6 0.000000 0.000000 0.000000 0.000000 0.000000 0.058545
#
#
# Mechanical properties :
#
#
# Convention : Reuss Voigt Hill
#
# Bulk Modulus (GPa) = 25.61693 42.64437 34.13065
# Shear Modulus (GPa) = 23.73046 30.08114 26.90580
#
# Velocity S-wave (km/s) = 3.28448 3.69795 3.49733
# Velocity P-wave (km/s) = 5.10188 6.13345 5.64129
#
# Compressibility (1/GPa) = 0.03903668
#
# Stress axis : x y z
#
# Youngs Moduli (GPa) = 31.16361 69.90013 101.66202
#
# Poissons Ratio (x) = 0.18307 0.05220
# Poissons Ratio (y) = 0.08162 0.55557
# Poissons Ratio (z) = 0.01600 0.38199
#
# Static dielectric constant tensor:
#      x y z
#    x 1.781240 0.000000 0.000000 
#    y 0.000000 1.851950 0.000000 
#    z 0.000000 0.000000 1.897330 
# 
# From -- ./inp_files/11154.got.cif
#   From: 2010.05.17/outbox.cif.g08.bks.cpg/sg20_6_cif.got.tgz:11154.got - 2010.06.03 22:52:26.
