data_PCOD9319050
_publ_section_title
;
Structure prediction by ZEFSAII (Michael W. Deem and Ramdas Pophale) SiO2 
 PCOD9319050
Probable space group: C 2 2 21
;
_chemical_formula_sum "Si O2"
_cell_formula_units_Z 24
_cell_length_a 17.140430
_cell_length_b 7.307709
_cell_length_c 6.636289
_cell_angle_alpha 90.000000
_cell_angle_beta 90.000000
_cell_angle_gamma 90.000000
_cell_volume 831.243473
_symmetry_space_group_name_H-M "C 2 2 21"
_symmetry_group_IT_number 20
_symmetry_cell_setting 'orthorhombic'
loop_
_space_group_symop_operation_xyz
x,y,z
-x,-y,1/2+z
x,-y,-z
-x,y,1/2-z
1/2+x,1/2+y,z
1/2-x,1/2-y,1/2+z
1/2+x,1/2-y,-z
1/2-x,1/2+y,1/2-z
loop_
_atom_site_type_symbol
_atom_site_label
_atom_site_fract_x
_atom_site_fract_y
_atom_site_fract_z
Si Si1 0.315394 0.688897 0.384884
Si Si2 0.523693 0.281063 0.981492
Si Si3 0.855312 0.716578 0.045291
O O1 0.307187 0.500000 0.500000
O O2 0.386666 0.792145 0.499524
O O3 0.227984 0.765073 0.353616
O O4 0.348249 0.667686 0.160908
O O5 0.500000 0.226952 0.750000
O O6 0.445103 0.241261 0.108868
O O7 0.532049 0.500000 0.000000
O O8 0.851380 0.500000 0.000000
#
# Coordination Sequence:
#
# PCOD9319050 Si02
#       3
#     8   8   8
#     4   9  20  40  61  87 123 165 202 242 303 373
#     4   9  19  37  59  83 118 162 203 239 296 370
#     4  10  21  39  62  92 122 155 203 259 302 347
#
# _framework density 28.872405000000001
#
# number of rings (size 3 to 8) (size 9 to 14) (size 15 to 20)
#    0.000    2.667    0.000    0.000    0.000   13.333 
#    0.000   26.667    0.000    0.000    0.000    0.000 
#    0.000    0.000    0.000    0.000    0.000    0.000 
#
# Total GULP energy -66981.086626 kJ/mol
# GULP energy per Si atom -5581.757219 kJ/mol
# Density = 2.880669 g / cm^3
# Si number density = 28.872405 Si / 1000 Ang^3
#
#
#
# Elastic Constant Matrix: (Units=GPa)
#
#
# Indices 1 2 3 4 5 6 
#
# 1 463.8082 25.9551 61.9435 0.0000 0.0000 0.0000
# 2 25.9551 116.7713 6.0720 0.0000 0.0000 0.0000
# 3 61.9435 6.0720 73.9042 0.0000 0.0000 0.0000
# 4 0.0000 0.0000 0.0000 26.0338 0.0000 0.0000
# 5 0.0000 0.0000 0.0000 0.0000 77.4699 0.0000
# 6 0.0000 0.0000 0.0000 0.0000 0.0000 32.1008
#
#
#
# Elastic Compliance Matrix: (Units=1/GPa)
#
#
# Indices 1 2 3 4 5 6 
#
# 1 0.002450 -0.000440 -0.002017 0.000000 0.000000 0.000000
# 2 -0.000440 0.008679 -0.000345 0.000000 0.000000 0.000000
# 3 -0.002017 -0.000345 0.015250 0.000000 0.000000 0.000000
# 4 0.000000 0.000000 0.000000 0.038412 0.000000 0.000000
# 5 0.000000 0.000000 0.000000 0.000000 0.012908 0.000000
# 6 0.000000 0.000000 0.000000 0.000000 0.000000 0.031152
#
#
# Mechanical properties :
#
#
# Convention : Reuss Voigt Hill
#
# Bulk Modulus (GPa) = 48.13163 93.60276 70.86720
# Shear Modulus (GPa) = 41.19281 64.48843 52.84062
#
# Velocity S-wave (km/s) = 3.78129 4.73119 4.28266
# Velocity P-wave (km/s) = 5.98088 7.89528 7.00379
#
# Compressibility (1/GPa) = 0.02077636
#
# Stress axis : x y z
#
# Youngs Moduli (GPa) = 408.14519 115.21534 65.57248
#
# Poissons Ratio (x) = 0.05066 0.13229
# Poissons Ratio (y) = 0.17946 0.02260
# Poissons Ratio (z) = 0.82342 0.03970
#
# Static dielectric constant tensor:
#      x y z
#    x 2.356160 0.000000 0.000000 
#    y 0.000000 2.078630 0.000000 
#    z 0.000000 0.000000 2.424460 
# 
# From -- ./inp_files/5596.got.cif
#   From: 2010.05.17/outbox.cif.g08.bks.cpg/sg20_3_cif.got.tgz:5596.got - 2010.06.03 22:52:26.
