data_PCOD9319925
_publ_section_title
;
Structure prediction by ZEFSAII (Michael W. Deem and Ramdas Pophale) SiO2 
 PCOD9319925
Probable space group: C 2 2 21
;
_chemical_formula_sum "Si O2"
_cell_formula_units_Z 44
_cell_length_a 9.365552
_cell_length_b 17.384274
_cell_length_c 14.371436
_cell_angle_alpha 90.000000
_cell_angle_beta 90.000000
_cell_angle_gamma 90.000000
_cell_volume 2339.861239
_symmetry_space_group_name_H-M "C 2 2 21"
_symmetry_group_IT_number 20
_symmetry_cell_setting 'orthorhombic'
loop_
_space_group_symop_operation_xyz
x,y,z
-x,-y,1/2+z
x,-y,-z
-x,y,1/2-z
1/2+x,1/2+y,z
1/2-x,1/2-y,1/2+z
1/2+x,1/2-y,-z
1/2-x,1/2+y,1/2-z
loop_
_atom_site_type_symbol
_atom_site_label
_atom_site_fract_x
_atom_site_fract_y
_atom_site_fract_z
Si Si1 0.785231 0.081503 0.453375
Si Si2 0.085399 0.032726 0.393404
Si Si3 0.000000 0.909329 0.250000
Si Si4 0.844147 0.187372 0.205102
Si Si5 0.647019 0.702438 0.888997
Si Si6 0.914968 0.672299 0.161426
O O1 0.838017 0.149621 0.520911
O O2 0.639605 0.108504 0.407739
O O3 0.921682 0.063744 0.389115
O O4 0.759743 0.000000 0.500000
O O5 0.170513 0.105112 0.349346
O O6 0.110752 0.000000 0.500000
O O7 0.085793 0.961497 0.323190
O O8 0.108505 0.855920 0.193763
O O9 0.792272 0.251378 0.131409
O O10 0.731693 0.199853 0.289586
O O11 0.000000 0.195388 0.250000
O O12 0.515261 0.763357 0.885704
O O13 0.000000 0.640864 0.250000
#
# Coordination Sequence:
#
# PCOD9319925 Si02
#       6
#     8   8   4   8   8   8
#     4  11  22  39  64  92 123 168 214 262 317 382
#     4  11  22  35  65  95 120 167 221 259 307 386
#     4  12  18  40  62  90 122 164 210 264 308 374
#     4  11  21  39  63  92 122 167 210 259 316 390
#     4  11  24  39  64  92 128 162 209 265 325 377
#     4  10  22  41  62  90 128 167 203 266 332 376
#
# _framework density 18.804532999999999
#
# number of rings (size 3 to 8) (size 9 to 14) (size 15 to 20)
#    0.000    1.091    9.091    0.000    2.545    0.000 
#    0.000    4.545    0.000    0.000    0.000    0.000 
#    0.000    0.000    0.000    0.000    0.000    0.000 
#
# Total GULP energy -122530.951630 kJ/mol
# GULP energy per Si atom -5569.588710 kJ/mol
# Density = 1.876173 g / cm^3
# Si number density = 18.804533 Si / 1000 Ang^3
#
#
#
# Elastic Constant Matrix: (Units=GPa)
#
#
# Indices 1 2 3 4 5 6 
#
# 1 86.2318 30.9301 23.4203 0.0000 0.0000 0.0000
# 2 30.9301 106.3000 23.3098 0.0000 0.0000 0.0000
# 3 23.4203 23.3098 33.1984 0.0000 0.0000 0.0000
# 4 0.0000 0.0000 0.0000 36.0331 0.0000 0.0000
# 5 0.0000 0.0000 0.0000 0.0000 28.4939 0.0000
# 6 0.0000 0.0000 0.0000 0.0000 0.0000 13.1672
#
#
#
# Elastic Compliance Matrix: (Units=1/GPa)
#
#
# Indices 1 2 3 4 5 6 
#
# 1 0.014842 -0.002391 -0.008792 0.000000 0.000000 0.000000
# 2 -0.002391 0.011504 -0.006391 0.000000 0.000000 0.000000
# 3 -0.008792 -0.006391 0.040812 0.000000 0.000000 0.000000
# 4 0.000000 0.000000 0.000000 0.027752 0.000000 0.000000
# 5 0.000000 0.000000 0.000000 0.000000 0.035095 0.000000
# 6 0.000000 0.000000 0.000000 0.000000 0.000000 0.075946
#
#
# Mechanical properties :
#
#
# Convention : Reuss Voigt Hill
#
# Bulk Modulus (GPa) = 31.23955 42.33898 36.78926
# Shear Modulus (GPa) = 19.85941 25.41017 22.63479
#
# Velocity S-wave (km/s) = 3.25329 3.67996 3.47318
# Velocity P-wave (km/s) = 5.54623 6.37341 5.97415
#
# Compressibility (1/GPa) = 0.03201071
#
# Stress axis : x y z
#
# Youngs Moduli (GPa) = 67.37633 86.92312 24.50271
#
# Poissons Ratio (x) = 0.20780 0.21543
# Poissons Ratio (y) = 0.16107 0.15660
# Poissons Ratio (z) = 0.59237 0.55554
#
# Static dielectric constant tensor:
#      x y z
#    x 1.697020 0.000000 0.000000 
#    y 0.000000 1.695710 0.000000 
#    z 0.000000 0.000000 1.679430 
# 
# From -- ./inp_files/18776.got.cif
#   From: 2010.05.17/outbox.cif.g08.bks.cpg/sg20_10_cif.got.tgz:18776.got - 2010.06.03 22:52:26.
