data_PCOD9319171
_publ_section_title
;
Structure prediction by ZEFSAII (Michael W. Deem and Ramdas Pophale) SiO2 
 PCOD9319171
Probable space group: C 2 2 21
;
_chemical_formula_sum "Si O2"
_cell_formula_units_Z 56
_cell_length_a 16.449423
_cell_length_b 29.814730
_cell_length_c 5.491052
_cell_angle_alpha 90.000000
_cell_angle_beta 90.000000
_cell_angle_gamma 90.000000
_cell_volume 2693.004666
_symmetry_space_group_name_H-M "C 2 2 21"
_symmetry_group_IT_number 20
_symmetry_cell_setting 'orthorhombic'
loop_
_space_group_symop_operation_xyz
x,y,z
-x,-y,1/2+z
x,-y,-z
-x,y,1/2-z
1/2+x,1/2+y,z
1/2-x,1/2-y,1/2+z
1/2+x,1/2-y,-z
1/2-x,1/2+y,1/2-z
loop_
_atom_site_type_symbol
_atom_site_label
_atom_site_fract_x
_atom_site_fract_y
_atom_site_fract_z
Si Si1 0.846178 0.882354 0.992385
Si Si2 0.731558 0.170876 0.636613
Si Si3 0.388409 0.309973 0.581770
Si Si4 0.000000 0.357919 0.750000
Si Si5 0.871954 0.589715 0.980700
Si Si6 0.077469 0.292264 0.092048
Si Si7 0.500000 0.626489 0.750000
Si Si8 0.802463 0.552301 0.462130
O O1 0.875424 0.843257 0.809229
O O2 0.783088 0.921377 0.919961
O O3 0.791252 0.855184 0.182648
O O4 0.930804 0.900516 0.104477
O O5 0.794934 0.200606 0.491365
O O6 0.689009 0.131801 0.484630
O O7 0.660650 0.196270 0.773840
O O8 0.428203 0.261133 0.572437
O O9 0.445688 0.340680 0.414758
O O10 0.960425 0.389523 0.957708
O O11 0.932375 0.323616 0.644080
O O12 0.852882 0.557997 0.211013
O O13 0.849809 0.571291 0.707883
O O14 0.000000 0.306200 0.250000
O O15 0.787352 0.500000 0.500000
#
# Coordination Sequence:
#
# PCOD9319171 Si02
#       8
#     8   8   8   4   8   8   4   8
#     4  10  21  40  67  90 134 180 226 284 362 419
#     4  10  23  39  61  93 129 186 234 277 346 419
#     4  11  23  40  62  94 135 187 236 293 343 412
#     4  12  25  42  66  90 146 190 236 292 354 417
#     4  11  23  45  72 101 140 186 227 285 369 418
#     4  12  25  38  60  96 138 181 246 290 339 398
#     4  10  21  40  62  92 130 180 232 274 356 419
#     4  11  24  45  77 109 134 176 237 295 356 446
#
# _framework density 20.794616999999999
#
# number of rings (size 3 to 8) (size 9 to 14) (size 15 to 20)
#    0.000    1.143    2.857    3.857    2.000    1.143 
#    0.000    1.429    3.143    0.000    0.000    0.000 
#    0.000    0.000    0.000    0.000    0.000    0.000 
#
# Total GULP energy -155948.544113 kJ/mol
# GULP energy per Si atom -5569.590861 kJ/mol
# Density = 2.074729 g / cm^3
# Si number density = 20.794617 Si / 1000 Ang^3
#
#
#
# Elastic Constant Matrix: (Units=GPa)
#
#
# Indices 1 2 3 4 5 6 
#
# 1 87.4700 -2.6823 22.5381 0.0000 0.0000 0.0000
# 2 -2.6823 63.4580 8.6746 0.0000 0.0000 0.0000
# 3 22.5381 8.6746 67.7144 0.0000 0.0000 0.0000
# 4 0.0000 0.0000 0.0000 33.8369 0.0000 0.0000
# 5 0.0000 0.0000 0.0000 0.0000 44.7979 0.0000
# 6 0.0000 0.0000 0.0000 0.0000 0.0000 14.8971
#
#
#
# Elastic Compliance Matrix: (Units=1/GPa)
#
#
# Indices 1 2 3 4 5 6 
#
# 1 0.012583 0.001124 -0.004332 0.000000 0.000000 0.000000
# 2 0.001124 0.016140 -0.002442 0.000000 0.000000 0.000000
# 3 -0.004332 -0.002442 0.016523 0.000000 0.000000 0.000000
# 4 0.000000 0.000000 0.000000 0.029554 0.000000 0.000000
# 5 0.000000 0.000000 0.000000 0.000000 0.022322 0.000000
# 6 0.000000 0.000000 0.000000 0.000000 0.000000 0.067127
#
#
# Mechanical properties :
#
#
# Convention : Reuss Voigt Hill
#
# Bulk Modulus (GPa) = 29.45866 30.63370 30.04618
# Shear Modulus (GPa) = 26.75743 31.38050 29.06897
#
# Velocity S-wave (km/s) = 3.59102 3.88889 3.74292
# Velocity P-wave (km/s) = 5.60278 5.91000 5.75844
#
# Compressibility (1/GPa) = 0.03394588
#
# Stress axis : x y z
#
# Youngs Moduli (GPa) = 79.47086 61.95886 60.52303
#
# Poissons Ratio (x) = -0.06965 0.26220
# Poissons Ratio (y) = -0.08933 0.14778
# Poissons Ratio (z) = 0.34428 0.15129
#
# Static dielectric constant tensor:
#      x y z
#    x 1.708740 0.000000 0.000000 
#    y 0.000000 1.734290 0.000000 
#    z 0.000000 0.000000 1.709870 
# 
# From -- ./inp_files/2280.got.cif
#   From: 2010.05.17/outbox.cif.g08.bks.cpg/sg20_2_cif.got.tgz:2280.got - 2010.06.03 22:52:26.
