data_PCOD9319552
_publ_section_title
;
Structure prediction by ZEFSAII (Michael W. Deem and Ramdas Pophale) SiO2 
 PCOD9319552
Probable space group: C 2 2 21
;
_chemical_formula_sum "Si O2"
_cell_formula_units_Z 36
_cell_length_a 13.827131
_cell_length_b 12.981878
_cell_length_c 8.662384
_cell_angle_alpha 90.000000
_cell_angle_beta 90.000000
_cell_angle_gamma 90.000000
_cell_volume 1554.916359
_symmetry_space_group_name_H-M "C 2 2 21"
_symmetry_group_IT_number 20
_symmetry_cell_setting 'orthorhombic'
loop_
_space_group_symop_operation_xyz
x,y,z
-x,-y,1/2+z
x,-y,-z
-x,y,1/2-z
1/2+x,1/2+y,z
1/2-x,1/2-y,1/2+z
1/2+x,1/2-y,-z
1/2-x,1/2+y,1/2-z
loop_
_atom_site_type_symbol
_atom_site_label
_atom_site_fract_x
_atom_site_fract_y
_atom_site_fract_z
Si Si1 0.549824 0.353409 0.532982
Si Si2 0.000000 0.017321 0.750000
Si Si3 0.277383 0.776140 0.082043
Si Si4 0.846881 0.500000 0.000000
Si Si5 0.500000 0.984897 0.250000
Si Si6 0.114331 0.696036 0.899079
O O1 0.573826 0.436775 0.668098
O O2 0.490018 0.408468 0.396050
O O3 0.645762 0.293522 0.486096
O O4 0.477862 0.268308 0.593671
O O5 0.284850 0.897690 0.038943
O O6 0.316880 0.772886 0.256350
O O7 0.176443 0.720266 0.050687
O O8 0.920390 0.534315 0.137796
O O9 0.431631 0.913919 0.359820
#
# Coordination Sequence:
#
# PCOD9319552 Si02
#       6
#     8   4   8   4   4   8
#     4  11  21  46  66  95 138 173 220 282 339 398
#     4  10  23  37  72  96 124 184 219 261 350 408
#     4  11  24  42  67  98 131 176 229 280 337 404
#     4  10  22  42  68  98 128 178 232 264 340 406
#     4  10  21  45  68  92 136 180 215 285 336 396
#     4  11  22  44  68  92 136 176 215 284 337 389
#
# _framework density 23.152372
#
# number of rings (size 3 to 8) (size 9 to 14) (size 15 to 20)
#    0.000    1.333    6.667    0.000    3.111    4.444 
#    4.000    2.222    0.000    0.000    0.000    0.000 
#    0.000    0.000    0.000    0.000    0.000    0.000 
#
# Total GULP energy -100237.105349 kJ/mol
# GULP energy per Si atom -5568.728075 kJ/mol
# Density = 2.309968 g / cm^3
# Si number density = 23.152372 Si / 1000 Ang^3
#
#
#
# Elastic Constant Matrix: (Units=GPa)
#
#
# Indices 1 2 3 4 5 6 
#
# 1 77.5491 -3.1673 -6.7480 0.0000 0.0000 0.0000
# 2 -3.1673 49.3053 7.8038 0.0000 0.0000 0.0000
# 3 -6.7480 7.8038 27.5909 0.0000 0.0000 0.0000
# 4 0.0000 0.0000 0.0000 16.6840 0.0000 0.0000
# 5 0.0000 0.0000 0.0000 0.0000 42.0523 0.0000
# 6 0.0000 0.0000 0.0000 0.0000 0.0000 5.9713
#
#
#
# Elastic Compliance Matrix: (Units=1/GPa)
#
#
# Indices 1 2 3 4 5 6 
#
# 1 0.013181 0.000352 0.003124 0.000000 0.000000 0.000000
# 2 0.000352 0.021242 -0.005922 0.000000 0.000000 0.000000
# 3 0.003124 -0.005922 0.038683 0.000000 0.000000 0.000000
# 4 0.000000 0.000000 0.000000 0.059938 0.000000 0.000000
# 5 0.000000 0.000000 0.000000 0.000000 0.023780 0.000000
# 6 0.000000 0.000000 0.000000 0.000000 0.000000 0.167467
#
#
# Mechanical properties :
#
#
# Convention : Reuss Voigt Hill
#
# Bulk Modulus (GPa) = 14.65953 16.69136 15.67544
# Shear Modulus (GPa) = 14.20780 23.37863 18.79321
#
# Velocity S-wave (km/s) = 2.47991 3.18114 2.85216
# Velocity P-wave (km/s) = 3.81385 4.55169 4.19901
#
# Compressibility (1/GPa) = 0.06821502
#
# Stress axis : x y z
#
# Youngs Moduli (GPa) = 75.86505 47.07720 25.85131
#
# Poissons Ratio (x) = -0.01658 -0.08076
# Poissons Ratio (y) = -0.02673 0.15309
# Poissons Ratio (z) = -0.23701 0.27878
#
# Static dielectric constant tensor:
#      x y z
#    x 1.874820 0.000000 0.000000 
#    y 0.000000 1.893530 0.000000 
#    z 0.000000 0.000000 1.886220 
# 
# From -- ./inp_files/8066.got.cif
#   From: 2010.05.17/outbox.cif.g08.bks.cpg/sg20_5_cif.got.tgz:8066.got - 2010.06.03 22:52:26.
