data_PCOD9319353
_publ_section_title
;
Structure prediction by ZEFSAII (Michael W. Deem and Ramdas Pophale) SiO2 
 PCOD9319353
Probable space group: C 2 2 21
;
_chemical_formula_sum "Si O2"
_cell_formula_units_Z 40
_cell_length_a 8.151773
_cell_length_b 17.331772
_cell_length_c 13.921187
_cell_angle_alpha 90.000000
_cell_angle_beta 90.000000
_cell_angle_gamma 90.000000
_cell_volume 1966.850326
_symmetry_space_group_name_H-M "C 2 2 21"
_symmetry_group_IT_number 20
_symmetry_cell_setting 'orthorhombic'
loop_
_space_group_symop_operation_xyz
x,y,z
-x,-y,1/2+z
x,-y,-z
-x,y,1/2-z
1/2+x,1/2+y,z
1/2-x,1/2-y,1/2+z
1/2+x,1/2-y,-z
1/2-x,1/2+y,1/2-z
loop_
_atom_site_type_symbol
_atom_site_label
_atom_site_fract_x
_atom_site_fract_y
_atom_site_fract_z
Si Si1 0.158145 0.579808 0.180859
Si Si2 0.435349 0.342464 0.539731
Si Si3 0.798473 0.315135 0.501338
Si Si4 0.253742 0.500000 0.500000
Si Si5 0.980673 0.426489 0.363506
Si Si6 0.500000 0.632701 0.250000
O O1 0.148257 0.497062 0.129950
O O2 0.331847 0.586330 0.233370
O O3 0.000000 0.584657 0.250000
O O4 0.148657 0.646913 0.102143
O O5 0.609409 0.337907 0.486468
O O6 0.317562 0.276691 0.498836
O O7 0.361296 0.427894 0.535500
O O8 0.471508 0.322296 0.651152
O O9 0.913760 0.354107 0.421798
O O10 0.139677 0.463458 0.415936
O O11 0.000000 0.410156 0.250000
#
# Coordination Sequence:
#
# PCOD9319353 Si02
#       6
#     8   8   8   4   8   4
#     4  10  21  41  70  98 132 184 221 277 340 404
#     4  11  26  43  69  97 135 178 225 281 338 407
#     4  11  24  43  65  99 136 173 223 284 339 391
#     4  12  24  46  72  98 136 176 228 274 342 406
#     4  11  23  42  71  97 134 175 224 273 343 401
#     4  10  24  40  70  96 136 176 234 266 342 406
#
# _framework density 20.337083
#
# number of rings (size 3 to 8) (size 9 to 14) (size 15 to 20)
#    0.000    1.200    2.000    3.600    9.800    0.000 
#    0.000    0.000    0.000    0.000    0.000    0.000 
#    0.000    0.000    0.000    0.000    0.000    0.000 
#
# Total GULP energy -111691.015661 kJ/mol
# GULP energy per Si atom -5584.550783 kJ/mol
# Density = 2.029079 g / cm^3
# Si number density = 20.337083 Si / 1000 Ang^3
#
#
#
# Elastic Constant Matrix: (Units=GPa)
#
#
# Indices 1 2 3 4 5 6 
#
# 1 122.5856 46.1941 39.4960 0.0000 0.0000 0.0000
# 2 46.1941 125.4044 36.6832 0.0000 0.0000 0.0000
# 3 39.4960 36.6832 92.2187 0.0000 0.0000 0.0000
# 4 0.0000 0.0000 0.0000 -6.4344 0.0000 0.0000
# 5 0.0000 0.0000 0.0000 0.0000 31.7596 0.0000
# 6 0.0000 0.0000 0.0000 0.0000 0.0000 20.7522
#
#
#
# Elastic Compliance Matrix: (Units=1/GPa)
#
#
# Indices 1 2 3 4 5 6 
#
# 1 0.010279 -0.002828 -0.003278 0.000000 0.000000 0.000000
# 2 -0.002828 0.009802 -0.002688 0.000000 0.000000 0.000000
# 3 -0.003278 -0.002688 0.013317 0.000000 0.000000 0.000000
# 4 0.000000 0.000000 0.000000 -0.155413 0.000000 0.000000
# 5 0.000000 0.000000 0.000000 0.000000 0.031487 0.000000
# 6 0.000000 0.000000 0.000000 0.000000 0.000000 0.048188
#
#
# Mechanical properties :
#
#
# Convention : Reuss Voigt Hill
#
# Bulk Modulus (GPa) = 63.24569 64.99503 64.12036
# Shear Modulus (GPa) = -256.61875 23.73785 -116.44045
#
# Velocity S-wave (km/s) = -11.24529 3.42017 -7.57493
# Velocity P-wave (km/s) = 11.72359 6.90108 6.70140
#
# Compressibility (1/GPa) = 0.01581136
#
# Stress axis : x y z
#
# Youngs Moduli (GPa) = 97.28451 102.01875 75.09306
#
# Poissons Ratio (x) = 0.28847 0.24613
# Poissons Ratio (y) = 0.27509 0.20186
# Poissons Ratio (z) = 0.31886 0.27424
#
# Static dielectric constant tensor:
#      x y z
#    x 1.738650 0.000000 0.000000 
#    y 0.000000 1.690130 0.000000 
#    z 0.000000 0.000000 1.761680 
# 
# From -- ./inp_files/15591.got.cif
#   From: 2010.05.17/outbox.cif.g08.bks.cpg/sg20_8_cif.got.tgz:15591.got - 2010.06.03 22:52:26.
