data_PCOD9319712
_publ_section_title
;
Structure prediction by ZEFSAII (Michael W. Deem and Ramdas Pophale) SiO2 
 PCOD9319712
Probable space group: C 2 2 21
;
_chemical_formula_sum "Si O2"
_cell_formula_units_Z 36
_cell_length_a 12.006942
_cell_length_b 22.169188
_cell_length_c 6.052594
_cell_angle_alpha 90.000000
_cell_angle_beta 90.000000
_cell_angle_gamma 90.000000
_cell_volume 1611.104616
_symmetry_space_group_name_H-M "C 2 2 21"
_symmetry_group_IT_number 20
_symmetry_cell_setting 'orthorhombic'
loop_
_space_group_symop_operation_xyz
x,y,z
-x,-y,1/2+z
x,-y,-z
-x,y,1/2-z
1/2+x,1/2+y,z
1/2-x,1/2-y,1/2+z
1/2+x,1/2-y,-z
1/2-x,1/2+y,1/2-z
loop_
_atom_site_type_symbol
_atom_site_label
_atom_site_fract_x
_atom_site_fract_y
_atom_site_fract_z
Si Si1 0.787975 0.000000 0.500000
Si Si2 0.822830 0.311931 0.920488
Si Si3 0.729981 0.398198 0.299588
Si Si4 0.879266 0.429343 0.683982
Si Si5 0.612309 0.306739 0.622432
O O1 0.838058 0.948454 0.340565
O O2 0.711688 0.960657 0.662164
O O3 0.878943 0.359288 0.755896
O O4 0.709179 0.292555 0.799599
O O5 0.786710 0.349842 0.136521
O O6 0.895610 0.254080 0.979122
O O7 0.830991 0.429996 0.436222
O O8 0.653849 0.362060 0.471935
O O9 0.000000 0.454223 0.750000
O O10 0.500000 0.321074 0.750000
#
# Coordination Sequence:
#
# PCOD9319712 Si02
#       5
#     4   8   8   8   8
#     4  10  22  38  66  92 132 178 218 292 332 396
#     4  10  22  39  59  95 136 173 214 274 330 408
#     4  10  22  42  59  96 133 174 230 274 346 401
#     4  10  23  36  62  96 134 172 215 268 340 414
#     4  11  23  39  66  97 139 183 223 276 342 412
#
# _framework density 22.344916000000001
#
# number of rings (size 3 to 8) (size 9 to 14) (size 15 to 20)
#    0.000    1.778    2.222    0.667    6.222    2.667 
#    0.000    0.000    0.000    0.000  208.000    0.000 
#    0.000    0.000    0.000    0.000    0.000    0.000 
#
# Total GULP energy -100529.554499 kJ/mol
# GULP energy per Si atom -5584.975250 kJ/mol
# Density = 2.229406 g / cm^3
# Si number density = 22.344916 Si / 1000 Ang^3
#
#
#
# Elastic Constant Matrix: (Units=GPa)
#
#
# Indices 1 2 3 4 5 6 
#
# 1 37.6636 13.0325 11.0885 0.0000 0.0000 0.0000
# 2 13.0325 108.3346 40.8700 0.0000 0.0000 0.0000
# 3 11.0885 40.8700 95.2259 0.0000 0.0000 0.0000
# 4 0.0000 0.0000 0.0000 52.1033 0.0000 0.0000
# 5 0.0000 0.0000 0.0000 0.0000 2.7243 0.0000
# 6 0.0000 0.0000 0.0000 0.0000 0.0000 10.6932
#
#
#
# Elastic Compliance Matrix: (Units=1/GPa)
#
#
# Indices 1 2 3 4 5 6 
#
# 1 0.028075 -0.002558 -0.002171 0.000000 0.000000 0.000000
# 2 -0.002558 0.011247 -0.004529 0.000000 0.000000 0.000000
# 3 -0.002171 -0.004529 0.012698 0.000000 0.000000 0.000000
# 4 0.000000 0.000000 0.000000 0.019193 0.000000 0.000000
# 5 0.000000 0.000000 0.000000 0.000000 0.367071 0.000000
# 6 0.000000 0.000000 0.000000 0.000000 0.000000 0.093518
#
#
# Mechanical properties :
#
#
# Convention : Reuss Voigt Hill
#
# Bulk Modulus (GPa) = 29.84809 41.24511 35.54660
# Shear Modulus (GPa) = 8.90493 24.85301 16.87897
#
# Velocity S-wave (km/s) = 1.99847 3.33865 2.75140
# Velocity P-wave (km/s) = 4.32574 5.77586 5.10258
#
# Compressibility (1/GPa) = 0.03350298
#
# Stress axis : x y z
#
# Youngs Moduli (GPa) = 35.61847 88.91174 78.75206
#
# Poissons Ratio (x) = 0.22746 0.17099
# Poissons Ratio (y) = 0.09112 0.35669
# Poissons Ratio (z) = 0.07733 0.40270
#
# Static dielectric constant tensor:
#      x y z
#    x 1.799800 0.000000 0.000000 
#    y 0.000000 1.903340 0.000000 
#    z 0.000000 0.000000 1.898380 
# 
# From -- ./inp_files/1219.got.cif
#   From: 2010.05.17/outbox.cif.g08.bks.cpg/sg20_1_cif.got.tgz:1219.got - 2010.06.03 22:52:26.
