data_PCOD9319011
_publ_section_title
;
Structure prediction by ZEFSAII (Michael W. Deem and Ramdas Pophale) SiO2 
 PCOD9319011
Probable space group: C 2 2 21
;
_chemical_formula_sum "Si O2"
_cell_formula_units_Z 60
_cell_length_a 10.264471
_cell_length_b 16.228313
_cell_length_c 14.038489
_cell_angle_alpha 90.000000
_cell_angle_beta 90.000000
_cell_angle_gamma 90.000000
_cell_volume 2338.461981
_symmetry_space_group_name_H-M "C 2 2 21"
_symmetry_group_IT_number 20
_symmetry_cell_setting 'orthorhombic'
loop_
_space_group_symop_operation_xyz
x,y,z
-x,-y,1/2+z
x,-y,-z
-x,y,1/2-z
1/2+x,1/2+y,z
1/2-x,1/2-y,1/2+z
1/2+x,1/2-y,-z
1/2-x,1/2+y,1/2-z
loop_
_atom_site_type_symbol
_atom_site_label
_atom_site_fract_x
_atom_site_fract_y
_atom_site_fract_z
Si Si1 0.556056 0.001782 0.887132
Si Si2 0.277104 0.945091 0.903419
Si Si3 0.500000 0.244408 0.250000
Si Si4 0.420915 0.614276 0.897891
Si Si5 0.723751 0.725755 0.309134
Si Si6 0.829168 0.953713 0.798327
Si Si7 0.134684 0.326198 0.124663
Si Si8 0.650631 0.688466 0.990645
O O1 0.540862 0.097301 0.859825
O O2 0.423880 0.954838 0.867090
O O3 0.685783 0.969253 0.840133
O O4 0.575100 0.000000 0.000000
O O5 0.184191 0.966582 0.815141
O O6 0.248637 0.852493 0.934869
O O7 0.266472 0.000000 0.000000
O O8 0.535559 0.308673 0.333072
O O9 0.368530 0.197949 0.274939
O O10 0.412838 0.526143 0.846430
O O11 0.270646 0.637090 0.919374
O O12 0.537867 0.620589 0.972692
O O13 0.640774 0.642094 0.321270
O O14 0.665245 0.781323 0.224341
O O15 0.762843 0.780247 0.401339
O O16 0.084092 0.264703 0.044272
#
# Coordination Sequence:
#
# PCOD9319011 Si02
#       8
#     8   8   4   8   8   8   8   8
#     4  10  23  42  69 108 150 198 245 313 380 441
#     4  11  26  41  69 113 151 192 246 313 373 457
#     4   8  18  36  66 100 132 192 240 290 368 432
#     4   9  22  39  72 100 148 197 245 306 378 451
#     4  10  21  38  71 107 148 193 248 311 364 458
#     4  11  22  43  73 110 152 194 256 305 383 452
#     4  10  21  43  70 108 148 197 250 308 383 443
#     4  11  23  45  76 107 150 198 252 311 377 447
#
# _framework density 25.657889999999998
#
# number of rings (size 3 to 8) (size 9 to 14) (size 15 to 20)
#    0.000    1.867    1.333    1.200    9.333    3.200 
#    0.000    4.000    0.000    0.000    3.467    0.000 
#    0.000    0.000    0.000    0.000    0.000    0.000 
#
# Total GULP energy -167917.640087 kJ/mol
# GULP energy per Si atom -5597.254670 kJ/mol
# Density = 2.559949 g / cm^3
# Si number density = 25.657890 Si / 1000 Ang^3
#
#
#
# Elastic Constant Matrix: (Units=GPa)
#
#
# Indices 1 2 3 4 5 6 
#
# 1 97.3785 46.8654 42.7005 0.0000 0.0000 0.0000
# 2 46.8654 132.0044 57.2379 0.0000 0.0000 0.0000
# 3 42.7005 57.2379 121.3904 0.0000 0.0000 0.0000
# 4 0.0000 0.0000 0.0000 50.2642 0.0000 0.0000
# 5 0.0000 0.0000 0.0000 0.0000 24.3229 0.0000
# 6 0.0000 0.0000 0.0000 0.0000 0.0000 -8.9010
#
#
#
# Elastic Compliance Matrix: (Units=1/GPa)
#
#
# Indices 1 2 3 4 5 6 
#
# 1 0.013236 -0.003369 -0.003067 0.000000 0.000000 0.000000
# 2 -0.003369 0.010380 -0.003709 0.000000 0.000000 0.000000
# 3 -0.003067 -0.003709 0.011066 0.000000 0.000000 0.000000
# 4 0.000000 0.000000 0.000000 0.019895 0.000000 0.000000
# 5 0.000000 0.000000 0.000000 0.000000 0.041114 0.000000
# 6 0.000000 0.000000 0.000000 0.000000 0.000000 -0.112347
#
#
# Mechanical properties :
#
#
# Convention : Reuss Voigt Hill
#
# Bulk Modulus (GPa) = 69.49106 71.59787 70.54446
# Shear Modulus (GPa) = 593.08389 26.73518 309.90954
#
# Velocity S-wave (km/s) = 15.22013 3.23148 11.00216
# Velocity P-wave (km/s) = 18.33064 6.47215 13.74593
#
# Compressibility (1/GPa) = 0.01439034
#
# Stress axis : x y z
#
# Youngs Moduli (GPa) = 75.55370 96.33931 90.36862
#
# Poissons Ratio (x) = 0.32457 0.27718
# Poissons Ratio (y) = 0.25455 0.33520
# Poissons Ratio (z) = 0.23174 0.35735
#
# Static dielectric constant tensor:
#      x y z
#    x 1.881890 0.000000 0.000000 
#    y 0.000000 2.009030 0.000000 
#    z 0.000000 0.000000 2.104380 
# 
# From -- ./inp_files/23773.got.cif
#   From: 2010.05.17/outbox.cif.g08.bks.cpg/sg20_12_cif.got.tgz:23773.got - 2010.06.03 22:52:26.
