data_PCOD9319987
_publ_section_title
;
Structure prediction by ZEFSAII (Michael W. Deem and Ramdas Pophale) SiO2 
 PCOD9319987
Probable space group: C 2 2 21
;
_chemical_formula_sum "Si O2"
_cell_formula_units_Z 48
_cell_length_a 13.841909
_cell_length_b 18.642577
_cell_length_c 8.831941
_cell_angle_alpha 90.000000
_cell_angle_beta 90.000000
_cell_angle_gamma 90.000000
_cell_volume 2279.072257
_symmetry_space_group_name_H-M "C 2 2 21"
_symmetry_group_IT_number 20
_symmetry_cell_setting 'orthorhombic'
loop_
_space_group_symop_operation_xyz
x,y,z
-x,-y,1/2+z
x,-y,-z
-x,y,1/2-z
1/2+x,1/2+y,z
1/2-x,1/2-y,1/2+z
1/2+x,1/2-y,-z
1/2-x,1/2+y,1/2-z
loop_
_atom_site_type_symbol
_atom_site_label
_atom_site_fract_x
_atom_site_fract_y
_atom_site_fract_z
Si Si1 0.091195 0.060574 0.091438
Si Si2 0.594327 0.962423 0.340100
Si Si3 0.500000 0.690389 0.250000
Si Si4 0.207929 0.972511 0.330616
Si Si5 0.822265 0.843259 0.358030
Si Si6 0.115236 0.300752 0.449212
Si Si7 0.000000 0.252094 0.750000
O O1 0.042210 0.134436 0.130891
O O2 0.133215 0.022457 0.238256
O O3 0.170491 0.088540 0.972399
O O4 0.032521 0.000000 0.000000
O O5 0.500000 0.984897 0.250000
O O6 0.686529 0.982365 0.240658
O O7 0.589885 0.877832 0.377373
O O8 0.601086 0.000000 0.500000
O O9 0.574409 0.739896 0.338514
O O10 0.189217 0.887339 0.300605
O O11 0.207268 0.000000 0.500000
O O12 0.732260 0.799325 0.427942
O O13 0.917702 0.795626 0.333952
O O14 0.062717 0.291951 0.614840
#
# Coordination Sequence:
#
# PCOD9319987 Si02
#       7
#     8   8   4   8   8   8   4
#     4  10  23  44  67  96 142 188 235 294 365 439
#     4  11  23  45  68  99 143 185 249 306 362 449
#     4  12  24  45  71 100 146 186 238 306 376 433
#     4  10  22  41  69 102 135 189 242 300 374 435
#     4  10  24  46  67 103 147 183 245 301 356 461
#     4  11  26  46  68 106 143 191 244 308 366 441
#     4  12  26  45  73 104 142 202 244 294 392 435
#
# _framework density 21.061201000000001
#
# number of rings (size 3 to 8) (size 9 to 14) (size 15 to 20)
#    0.000    1.333    2.500    3.000    5.833    3.333 
#    3.000    0.000    0.000    0.000    0.000    0.000 
#    0.000    0.000    0.000    0.000    0.000    0.000 
#
# Total GULP energy -133802.380237 kJ/mol
# GULP energy per Si atom -5575.099177 kJ/mol
# Density = 2.101327 g / cm^3
# Si number density = 21.061201 Si / 1000 Ang^3
#
#
#
# Elastic Constant Matrix: (Units=GPa)
#
#
# Indices 1 2 3 4 5 6 
#
# 1 104.4370 38.5855 49.0250 0.0000 0.0000 0.0000
# 2 38.5855 104.4008 55.6921 0.0000 0.0000 0.0000
# 3 49.0250 55.6921 151.1753 0.0000 0.0000 0.0000
# 4 0.0000 0.0000 0.0000 981.8510 0.0000 0.0000
# 5 0.0000 0.0000 0.0000 0.0000 29.3102 0.0000
# 6 0.0000 0.0000 0.0000 0.0000 0.0000 8.6225
#
#
#
# Elastic Compliance Matrix: (Units=1/GPa)
#
#
# Indices 1 2 3 4 5 6 
#
# 1 0.011974 -0.002930 -0.002804 0.000000 0.000000 0.000000
# 2 -0.002930 0.012638 -0.003706 0.000000 0.000000 0.000000
# 3 -0.002804 -0.003706 0.008889 0.000000 0.000000 0.000000
# 4 0.000000 0.000000 0.000000 0.001018 0.000000 0.000000
# 5 0.000000 0.000000 0.000000 0.000000 0.034118 0.000000
# 6 0.000000 0.000000 0.000000 0.000000 0.000000 0.115975
#
#
# Mechanical properties :
#
#
# Convention : Reuss Voigt Hill
#
# Bulk Modulus (GPa) = 68.38674 71.84647 70.11660
# Shear Modulus (GPa) = 23.99634 218.40413 121.20024
#
# Velocity S-wave (km/s) = 3.37911 10.19435 7.59418
# Velocity P-wave (km/s) = 6.91126 13.14358 10.50046
#
# Compressibility (1/GPa) = 0.01462272
#
# Stress axis : x y z
#
# Youngs Moduli (GPa) = 83.51649 79.12606 112.49612
#
# Poissons Ratio (x) = 0.23182 0.31540
# Poissons Ratio (y) = 0.24468 0.41688
# Poissons Ratio (z) = 0.23415 0.29322
#
# Static dielectric constant tensor:
#      x y z
#    x 0.982180 0.000000 0.000000 
#    y 0.000000 1.746120 0.000000 
#    z 0.000000 0.000000 1.842840 
# 
# From -- ./inp_files/8466.got.cif
#   From: 2010.05.17/outbox.cif.g08.bks.cpg/sg20_5_cif.got.tgz:8466.got - 2010.06.03 22:52:26.
