data_PCOD9319588
_publ_section_title
;
Structure prediction by ZEFSAII (Michael W. Deem and Ramdas Pophale) SiO2 
 PCOD9319588
Probable space group: C 2 2 21
;
_chemical_formula_sum "Si O2"
_cell_formula_units_Z 44
_cell_length_a 21.771184
_cell_length_b 5.134433
_cell_length_c 19.470211
_cell_angle_alpha 90.000000
_cell_angle_beta 90.000000
_cell_angle_gamma 90.000000
_cell_volume 2176.432474
_symmetry_space_group_name_H-M "C 2 2 21"
_symmetry_group_IT_number 20
_symmetry_cell_setting 'orthorhombic'
loop_
_space_group_symop_operation_xyz
x,y,z
-x,-y,1/2+z
x,-y,-z
-x,y,1/2-z
1/2+x,1/2+y,z
1/2-x,1/2-y,1/2+z
1/2+x,1/2-y,-z
1/2-x,1/2+y,1/2-z
loop_
_atom_site_type_symbol
_atom_site_label
_atom_site_fract_x
_atom_site_fract_y
_atom_site_fract_z
Si Si1 0.037137 0.500000 0.000000
Si Si2 0.644824 0.811525 0.564745
Si Si3 0.746515 0.000000 0.000000
Si Si4 0.137070 0.811141 0.064099
Si Si5 0.322932 0.062701 0.794923
Si Si6 0.044987 0.000000 0.500000
Si Si7 0.175455 0.062282 0.791921
O O1 0.082953 0.401200 0.940030
O O2 0.995972 0.749719 0.981128
O O3 0.709185 0.666737 0.549225
O O4 0.590579 0.599907 0.560076
O O5 0.635416 0.000000 0.500000
O O6 0.647794 0.977947 0.633405
O O7 0.701887 0.172496 0.047179
O O8 0.142411 0.962098 0.135157
O O9 0.125964 0.000000 0.000000
O O10 0.248969 0.050749 0.803836
O O11 0.339442 0.342161 0.763970
O O12 0.338945 0.843914 0.739032
#
# Coordination Sequence:
#
# PCOD9319588 Si02
#       7
#     4   8   4   8   8   4   8
#     4  11  24  43  66  99 124 169 228 284 328 373
#     4  11  23  39  67  96 133 173 216 276 317 395
#     4  10  22  32  64 102 140 164 226 260 336 376
#     4  11  23  39  67  96 133 173 216 276 317 395
#     4  10  23  37  58  93 140 174 202 248 320 400
#     4  11  24  43  66  99 124 169 228 284 328 373
#     4  10  23  37  58  93 140 174 202 248 320 400
#
# _framework density 20.216569
#
# number of rings (size 3 to 8) (size 9 to 14) (size 15 to 20)
#    0.000    1.455    1.818    2.727   17.818    0.000 
#    0.000    0.000    0.000    1.091    9.455    0.000 
#    0.000    0.000    0.000    0.000    0.000    0.000 
#
# Total GULP energy -122965.276510 kJ/mol
# GULP energy per Si atom -5589.330750 kJ/mol
# Density = 2.017055 g / cm^3
# Si number density = 20.216569 Si / 1000 Ang^3
#
#
#
# Elastic Constant Matrix: (Units=GPa)
#
#
# Indices 1 2 3 4 5 6 
#
# 1 97.7849 42.4648 21.7855 0.0000 0.0000 0.0000
# 2 42.4648 85.3920 0.2805 0.0000 0.0000 0.0000
# 3 21.7855 0.2805 84.4427 0.0000 0.0000 0.0000
# 4 0.0000 0.0000 0.0000 35.4560 0.0000 0.0000
# 5 0.0000 0.0000 0.0000 0.0000 -5.0425 0.0000
# 6 0.0000 0.0000 0.0000 0.0000 0.0000 43.6389
#
#
#
# Elastic Compliance Matrix: (Units=1/GPa)
#
#
# Indices 1 2 3 4 5 6 
#
# 1 0.014061 -0.006981 -0.003604 0.000000 0.000000 0.000000
# 2 -0.006981 0.015176 0.001751 0.000000 0.000000 0.000000
# 3 -0.003604 0.001751 0.012766 0.000000 0.000000 0.000000
# 4 0.000000 0.000000 0.000000 0.028204 0.000000 0.000000
# 5 0.000000 0.000000 0.000000 0.000000 -0.198312 0.000000
# 6 0.000000 0.000000 0.000000 0.000000 0.000000 0.022915
#
#
# Mechanical properties :
#
#
# Convention : Reuss Voigt Hill
#
# Bulk Modulus (GPa) = 41.09345 44.07570 42.58457
# Shear Modulus (GPa) = -62.96533 28.34973 -17.30780
#
# Velocity S-wave (km/s) = -5.58686 3.74879 -2.92913
# Velocity P-wave (km/s) = 4.60941 6.37080 3.10970
#
# Compressibility (1/GPa) = 0.02433478
#
# Stress axis : x y z
#
# Youngs Moduli (GPa) = 71.11872 65.89201 78.33037
#
# Poissons Ratio (x) = 0.45997 0.28234
# Poissons Ratio (y) = 0.49645 -0.13712
# Poissons Ratio (z) = 0.25634 -0.11534
#
# Static dielectric constant tensor:
#      x y z
#    x 1.749220 0.000000 0.000000 
#    y 0.000000 1.778280 0.000000 
#    z 0.000000 0.000000 1.695730 
# 
# From -- ./inp_files/27838.got.cif
#   From: 2010.05.17/outbox.cif.g08.bks.cpg/sg20_14_cif.got.tgz:27838.got - 2010.06.03 22:52:26.
