data_PCOD9319331
_publ_section_title
;
Structure prediction by ZEFSAII (Michael W. Deem and Ramdas Pophale) SiO2 
 PCOD9319331
Probable space group: C 2 2 21
;
_chemical_formula_sum "Si O2"
_cell_formula_units_Z 56
_cell_length_a 14.146974
_cell_length_b 12.391783
_cell_length_c 13.966993
_cell_angle_alpha 90.000000
_cell_angle_beta 90.000000
_cell_angle_gamma 90.000000
_cell_volume 2448.500914
_symmetry_space_group_name_H-M "C 2 2 21"
_symmetry_group_IT_number 20
_symmetry_cell_setting 'orthorhombic'
loop_
_space_group_symop_operation_xyz
x,y,z
-x,-y,1/2+z
x,-y,-z
-x,y,1/2-z
1/2+x,1/2+y,z
1/2-x,1/2-y,1/2+z
1/2+x,1/2-y,-z
1/2-x,1/2+y,1/2-z
loop_
_atom_site_type_symbol
_atom_site_label
_atom_site_fract_x
_atom_site_fract_y
_atom_site_fract_z
Si Si1 0.399983 0.733761 0.514388
Si Si2 0.537916 0.554843 0.853958
Si Si3 0.402932 0.943744 0.789483
Si Si4 0.468869 0.161533 0.860927
Si Si5 0.818264 0.560387 0.405141
Si Si6 0.199830 0.898950 0.855023
Si Si7 0.380636 0.626263 0.146682
O O1 0.468338 0.650730 0.569974
O O2 0.452255 0.809076 0.437449
O O3 0.352052 0.815494 0.589002
O O4 0.328250 0.665200 0.449521
O O5 0.500000 0.591421 0.750000
O O6 0.648093 0.516704 0.860065
O O7 0.474041 0.446825 0.869647
O O8 0.500000 0.889169 0.750000
O O9 0.358876 0.991682 0.691114
O O10 0.311716 0.888865 0.836264
O O11 0.433891 0.039382 0.859975
O O12 0.500000 0.181344 0.750000
O O13 0.391753 0.251914 0.887285
O O14 0.847632 0.500000 0.500000
O O15 0.705784 0.562973 0.398748
O O16 0.147093 0.860243 0.758440
#
# Coordination Sequence:
#
# PCOD9319331 Si02
#       7
#     8   8   8   8   8   8   8
#     4  12  24  42  73 106 140 185 248 300 365 426
#     4  10  22  43  68 105 147 181 232 306 359 413
#     4  10  24  46  69  93 144 193 233 295 362 436
#     4  11  20  40  74  98 134 193 235 281 361 441
#     4  11  26  43  63 100 142 184 240 300 360 437
#     4  10  21  42  68  99 136 180 240 298 351 434
#     4  10  21  41  67  97 137 185 233 288 364 422
#
# _framework density 22.871137999999998
#
# number of rings (size 3 to 8) (size 9 to 14) (size 15 to 20)
#    0.000    1.429    2.857    2.571    4.000    0.571 
#    2.571    1.429    0.000    0.000    0.000    0.000 
#    0.000    0.000    0.000    0.000    0.000    0.000 
#
# Total GULP energy -156195.214837 kJ/mol
# GULP energy per Si atom -5578.400530 kJ/mol
# Density = 2.281908 g / cm^3
# Si number density = 22.871138 Si / 1000 Ang^3
#
#
#
# Elastic Constant Matrix: (Units=GPa)
#
#
# Indices 1 2 3 4 5 6 
#
# 1 123.2061 27.8687 22.7833 0.0000 0.0000 0.0000
# 2 27.8687 52.3338 28.0051 0.0000 0.0000 0.0000
# 3 22.7833 28.0051 83.9950 0.0000 0.0000 0.0000
# 4 0.0000 0.0000 0.0000 31.6234 0.0000 0.0000
# 5 0.0000 0.0000 0.0000 0.0000 22.4653 0.0000
# 6 0.0000 0.0000 0.0000 0.0000 0.0000 20.5281
#
#
#
# Elastic Compliance Matrix: (Units=1/GPa)
#
#
# Indices 1 2 3 4 5 6 
#
# 1 0.009305 -0.004387 -0.001061 0.000000 0.000000 0.000000
# 2 -0.004387 0.025326 -0.007254 0.000000 0.000000 0.000000
# 3 -0.001061 -0.007254 0.014612 0.000000 0.000000 0.000000
# 4 0.000000 0.000000 0.000000 0.031622 0.000000 0.000000
# 5 0.000000 0.000000 0.000000 0.000000 0.044513 0.000000
# 6 0.000000 0.000000 0.000000 0.000000 0.000000 0.048714
#
#
# Mechanical properties :
#
#
# Convention : Reuss Voigt Hill
#
# Bulk Modulus (GPa) = 41.94952 46.31656 44.13304
# Shear Modulus (GPa) = 24.10297 26.98188 25.54242
#
# Velocity S-wave (km/s) = 3.24984 3.43845 3.34548
# Velocity P-wave (km/s) = 5.69767 6.00491 5.85331
#
# Compressibility (1/GPa) = 0.02383818
#
# Stress axis : x y z
#
# Youngs Moduli (GPa) = 107.46797 39.48478 68.43725
#
# Poissons Ratio (x) = 0.17323 0.07263
# Poissons Ratio (y) = 0.47149 0.49645
# Poissons Ratio (z) = 0.11405 0.28643
#
# Static dielectric constant tensor:
#      x y z
#    x 1.886500 0.000000 0.000000 
#    y 0.000000 1.868690 0.000000 
#    z 0.000000 0.000000 1.861980 
# 
# From -- ./inp_files/20725.got.cif
#   From: 2010.05.17/outbox.cif.g08.bks.cpg/sg20_11_cif.got.tgz:20725.got - 2010.06.03 22:52:26.
