data_PCOD9319652
_publ_section_title
;
Structure prediction by ZEFSAII (Michael W. Deem and Ramdas Pophale) SiO2 
 PCOD9319652
Probable space group: C 2 2 21
;
_chemical_formula_sum "Si O2"
_cell_formula_units_Z 48
_cell_length_a 16.219188
_cell_length_b 9.114883
_cell_length_c 14.585580
_cell_angle_alpha 90.000000
_cell_angle_beta 90.000000
_cell_angle_gamma 90.000000
_cell_volume 2156.273819
_symmetry_space_group_name_H-M "C 2 2 21"
_symmetry_group_IT_number 20
_symmetry_cell_setting 'orthorhombic'
loop_
_space_group_symop_operation_xyz
x,y,z
-x,-y,1/2+z
x,-y,-z
-x,y,1/2-z
1/2+x,1/2+y,z
1/2-x,1/2-y,1/2+z
1/2+x,1/2-y,-z
1/2-x,1/2+y,1/2-z
loop_
_atom_site_type_symbol
_atom_site_label
_atom_site_fract_x
_atom_site_fract_y
_atom_site_fract_z
Si Si1 0.810466 0.008900 0.224307
Si Si2 0.351703 0.276946 0.917840
Si Si3 0.056528 0.150329 0.839582
Si Si4 0.839287 0.330771 0.526556
Si Si5 0.854211 0.500000 0.000000
Si Si6 0.749933 0.284443 0.871030
Si Si7 0.535714 0.500000 0.500000
O O1 0.861776 0.921669 0.299145
O O2 0.775681 0.880917 0.158209
O O3 0.867536 0.125623 0.171819
O O4 0.750605 0.114893 0.281079
O O5 0.252152 0.300688 0.929241
O O6 0.385818 0.111647 0.921927
O O7 0.403396 0.362582 0.993500
O O8 0.088751 0.281401 0.904998
O O9 0.000000 0.185659 0.750000
O O10 0.016112 0.034473 0.909518
O O11 0.846302 0.500000 0.500000
O O12 0.833305 0.238079 0.431426
O O13 0.806225 0.378297 0.940390
#
# Coordination Sequence:
#
# PCOD9319652 Si02
#       7
#     8   8   8   8   4   8   4
#     4  12  22  41  69 110 142 187 248 310 367 448
#     4  11  21  44  73 102 141 189 252 302 361 440
#     4  12  27  44  72 107 151 200 247 307 394 464
#     4  11  22  45  71 105 143 199 243 305 373 442
#     4  10  22  37  62 103 136 184 228 306 368 411
#     4  11  22  38  71 108 144 181 251 313 360 437
#     4  12  24  51  74 103 152 200 244 310 390 457
#
# _framework density 22.260622999999999
#
# number of rings (size 3 to 8) (size 9 to 14) (size 15 to 20)
#    0.000    0.667    4.167    6.000    0.000    0.667 
#    1.500    0.000    0.000    2.000    0.000    0.000 
#    0.000    0.000    0.000    0.000    0.000    0.000 
#
# Total GULP energy -133621.801431 kJ/mol
# GULP energy per Si atom -5567.575060 kJ/mol
# Density = 2.220996 g / cm^3
# Si number density = 22.260623 Si / 1000 Ang^3
#
#
#
# Elastic Constant Matrix: (Units=GPa)
#
#
# Indices 1 2 3 4 5 6 
#
# 1 43.6535 23.7211 26.8477 0.0000 0.0000 0.0000
# 2 23.7211 131.0371 40.8952 0.0000 0.0000 0.0000
# 3 26.8477 40.8952 116.9744 0.0000 0.0000 0.0000
# 4 0.0000 0.0000 0.0000 46.4636 0.0000 0.0000
# 5 0.0000 0.0000 0.0000 0.0000 39.1866 0.0000
# 6 0.0000 0.0000 0.0000 0.0000 0.0000 17.3595
#
#
#
# Elastic Compliance Matrix: (Units=1/GPa)
#
#
# Indices 1 2 3 4 5 6 
#
# 1 0.027987 -0.003437 -0.005222 0.000000 0.000000 0.000000
# 2 -0.003437 0.008988 -0.002354 0.000000 0.000000 0.000000
# 3 -0.005222 -0.002354 0.010570 0.000000 0.000000 0.000000
# 4 0.000000 0.000000 0.000000 0.021522 0.000000 0.000000
# 5 0.000000 0.000000 0.000000 0.000000 0.025519 0.000000
# 6 0.000000 0.000000 0.000000 0.000000 0.000000 0.057605
#
#
# Mechanical properties :
#
#
# Convention : Reuss Voigt Hill
#
# Bulk Modulus (GPa) = 39.18378 52.73255 45.95816
# Shear Modulus (GPa) = 27.36387 33.94868 30.65627
#
# Velocity S-wave (km/s) = 3.50987 3.90943 3.71503
# Velocity P-wave (km/s) = 5.83662 6.64216 6.25238
#
# Compressibility (1/GPa) = 0.02552077
#
# Stress axis : x y z
#
# Youngs Moduli (GPa) = 35.73124 111.25884 94.60529
#
# Poissons Ratio (x) = 0.38235 0.49403
# Poissons Ratio (y) = 0.12279 0.22266
# Poissons Ratio (z) = 0.18659 0.26185
#
# Static dielectric constant tensor:
#      x y z
#    x 1.867940 0.000000 0.000000 
#    y 0.000000 1.931850 0.000000 
#    z 0.000000 0.000000 2.071250 
# 
# From -- ./inp_files/21343.got.cif
#   From: 2010.05.17/outbox.cif.g08.bks.cpg/sg20_11_cif.got.tgz:21343.got - 2010.06.03 22:52:26.
