data_PCOD9319780
_publ_section_title
;
Structure prediction by ZEFSAII (Michael W. Deem and Ramdas Pophale) SiO2 
 PCOD9319780
Probable space group: C 2 2 21
;
_chemical_formula_sum "Si O2"
_cell_formula_units_Z 44
_cell_length_a 8.472951
_cell_length_b 18.072420
_cell_length_c 14.742833
_cell_angle_alpha 90.000000
_cell_angle_beta 90.000000
_cell_angle_gamma 90.000000
_cell_volume 2257.521795
_symmetry_space_group_name_H-M "C 2 2 21"
_symmetry_group_IT_number 20
_symmetry_cell_setting 'orthorhombic'
loop_
_space_group_symop_operation_xyz
x,y,z
-x,-y,1/2+z
x,-y,-z
-x,y,1/2-z
1/2+x,1/2+y,z
1/2-x,1/2-y,1/2+z
1/2+x,1/2-y,-z
1/2-x,1/2+y,1/2-z
loop_
_atom_site_type_symbol
_atom_site_label
_atom_site_fract_x
_atom_site_fract_y
_atom_site_fract_z
Si Si1 0.280454 0.500000 0.500000
Si Si2 0.736016 0.643842 0.317439
Si Si3 0.823034 0.500000 0.792863
Si Si4 0.263984 0.643842 0.817439
Si Si5 0.000000 0.731727 0.250000
Si Si6 0.500000 0.768273 0.250000
Si Si7 0.095382 0.917616 0.500000
O O1 0.188816 0.500000 0.403259
O O2 0.405753 0.430913 0.500000
O O3 0.740056 0.574200 0.247840
O O4 0.627666 0.712243 0.288710
O O5 0.662355 0.619033 0.411048
O O6 0.912607 0.677266 0.320324
O O7 0.740056 0.574200 0.752159
O O8 0.000000 0.500000 0.750000
O O9 0.372334 0.712243 0.788710
O O10 0.087393 0.677265 0.820324
O O11 0.337645 0.619034 0.911048
O O12 0.163142 0.000000 0.500000
#
# Coordination Sequence:
#
# PCOD9319780 Si02
#       7
#     4   8   8   8   4   4   8
#     4  10  24  40  66 106 124 178 230 292 346 400
#     4  11  22  43  65 100 136 183 224 285 342 405
#     4  12  23  42  69  97 138 179 241 289 332 412
#     4  11  22  43  65 100 136 183 224 285 342 405
#     4  10  24  40  64  94 144 184 220 280 354 402
#     4  10  24  40  64  94 144 184 220 280 354 402
#     4  10  22  39  70 102 127 178 239 285 324 417
#
# _framework density 19.490399
#
# number of rings (size 3 to 8) (size 9 to 14) (size 15 to 20)
#    0.545    0.727    3.636    2.182    0.000    5.091 
#    0.000    7.273    0.000    0.000    0.000    0.000 
#    0.000    0.000    0.000    0.000    0.000    0.000 
#
# Total GULP energy -122504.590855 kJ/mol
# GULP energy per Si atom -5568.390493 kJ/mol
# Density = 1.944604 g / cm^3
# Si number density = 19.490399 Si / 1000 Ang^3
#
#
#
# Elastic Constant Matrix: (Units=GPa)
#
#
# Indices 1 2 3 4 5 6 
#
# 1 96.9102 30.3442 59.0467 0.0000 0.0000 0.0000
# 2 30.3442 110.7996 51.5619 0.0000 0.0000 0.0000
# 3 59.0467 51.5619 169.3833 0.0000 0.0000 0.0000
# 4 0.0000 0.0000 0.0000 44.6514 0.0000 0.0000
# 5 0.0000 0.0000 0.0000 0.0000 33.9309 0.0000
# 6 0.0000 0.0000 0.0000 0.0000 0.0000 44.5995
#
#
#
# Elastic Compliance Matrix: (Units=1/GPa)
#
#
# Indices 1 2 3 4 5 6 
#
# 1 0.013384 -0.001741 -0.004136 0.000000 0.000000 0.000000
# 2 -0.001741 0.010741 -0.002663 0.000000 0.000000 0.000000
# 3 -0.004136 -0.002663 0.008156 0.000000 0.000000 0.000000
# 4 0.000000 0.000000 0.000000 0.022396 0.000000 0.000000
# 5 0.000000 0.000000 0.000000 0.000000 0.029472 0.000000
# 6 0.000000 0.000000 0.000000 0.000000 0.000000 0.022422
#
#
# Mechanical properties :
#
#
# Convention : Reuss Voigt Hill
#
# Bulk Modulus (GPa) = 65.77909 73.22207 69.50058
# Shear Modulus (GPa) = 38.84513 40.37905 39.61209
#
# Velocity S-wave (km/s) = 4.46919 4.55658 4.51309
# Velocity P-wave (km/s) = 7.77524 8.08288 7.93055
#
# Compressibility (1/GPa) = 0.01520240
#
# Stress axis : x y z
#
# Youngs Moduli (GPa) = 74.71770 93.09895 122.60833
#
# Poissons Ratio (x) = 0.16206 0.50706
# Poissons Ratio (y) = 0.13007 0.32649
# Poissons Ratio (z) = 0.30900 0.24791
#
# Static dielectric constant tensor:
#      x y z
#    x 1.782870 0.000000 0.000000 
#    y 0.000000 1.748240 0.000000 
#    z 0.000000 0.000000 1.625620 
# 
# From -- ./inp_files/18816.got.cif
#   From: 2010.05.17/outbox.cif.g08.bks.cpg/sg20_10_cif.got.tgz:18816.got - 2010.06.03 22:52:26.
