data_PCOD9319449
_publ_section_title
;
Structure prediction by ZEFSAII (Michael W. Deem and Ramdas Pophale) SiO2 
 PCOD9319449
Probable space group: C 2 2 21
;
_chemical_formula_sum "Si O2"
_cell_formula_units_Z 56
_cell_length_a 8.282096
_cell_length_b 24.196930
_cell_length_c 13.150135
_cell_angle_alpha 90.000000
_cell_angle_beta 90.000000
_cell_angle_gamma 90.000000
_cell_volume 2635.304112
_symmetry_space_group_name_H-M "C 2 2 21"
_symmetry_group_IT_number 20
_symmetry_cell_setting 'orthorhombic'
loop_
_space_group_symop_operation_xyz
x,y,z
-x,-y,1/2+z
x,-y,-z
-x,y,1/2-z
1/2+x,1/2+y,z
1/2-x,1/2-y,1/2+z
1/2+x,1/2-y,-z
1/2-x,1/2+y,1/2-z
loop_
_atom_site_type_symbol
_atom_site_label
_atom_site_fract_x
_atom_site_fract_y
_atom_site_fract_z
Si Si1 0.814971 0.785179 0.057307
Si Si2 0.322352 0.714545 0.288177
Si Si3 0.185001 0.771286 0.113186
Si Si4 0.310020 0.025599 0.770751
Si Si5 0.598869 0.393203 0.353995
Si Si6 0.766515 0.893314 0.454137
Si Si7 0.171745 0.598003 0.311037
O O1 0.701445 0.736064 0.097940
O O2 0.785364 0.844689 0.106190
O O3 0.999469 0.771880 0.081728
O O4 0.779248 0.779810 0.938788
O O5 0.500000 0.724854 0.250000
O O6 0.202583 0.756033 0.230208
O O7 0.272787 0.651363 0.278152
O O8 0.261669 0.830939 0.087653
O O9 0.500000 0.025859 0.750000
O O10 0.203829 0.055145 0.683508
O O11 0.291001 0.060906 0.873938
O O12 0.258895 0.962055 0.783171
O O13 0.500000 0.376926 0.250000
O O14 0.463080 0.400310 0.442221
O O15 0.683937 0.899679 0.564611
O O16 0.000000 0.602497 0.250000
#
# Coordination Sequence:
#
# PCOD9319449 Si02
#       7
#     8   8   8   8   8   8   8
#     4  11  21  40  61  93 129 163 215 261 326 396
#     4  12  25  40  60  94 133 173 216 275 336 401
#     4  11  23  37  66  94 128 171 214 265 332 401
#     4  10  22  41  69 100 131 171 230 282 335 396
#     4   9  20  39  68  95 129 171 219 273 328 395
#     4  10  21  42  70  96 129 179 221 270 344 400
#     4  11  24  45  66  95 136 179 225 285 343 397
#
# _framework density 21.249919999999999
#
# number of rings (size 3 to 8) (size 9 to 14) (size 15 to 20)
#    0.000    1.429    1.429    5.143    2.000    5.143 
#    0.000    0.000    0.000    0.000    0.000    0.000 
#    0.000    0.000    0.000    0.000    0.000    0.000 
#
# Total GULP energy -156175.872881 kJ/mol
# GULP energy per Si atom -5577.709746 kJ/mol
# Density = 2.120155 g / cm^3
# Si number density = 21.249920 Si / 1000 Ang^3
#
#
#
# Elastic Constant Matrix: (Units=GPa)
#
#
# Indices 1 2 3 4 5 6 
#
# 1 55.1770 26.0364 29.3753 0.0000 0.0000 0.0000
# 2 26.0364 142.1034 33.4090 0.0000 0.0000 0.0000
# 3 29.3753 33.4090 73.7792 0.0000 0.0000 0.0000
# 4 0.0000 0.0000 0.0000 34.3228 0.0000 0.0000
# 5 0.0000 0.0000 0.0000 0.0000 42.1277 0.0000
# 6 0.0000 0.0000 0.0000 0.0000 0.0000 26.8075
#
#
#
# Elastic Compliance Matrix: (Units=1/GPa)
#
#
# Indices 1 2 3 4 5 6 
#
# 1 0.023694 -0.002376 -0.008358 0.000000 0.000000 0.000000
# 2 -0.002376 0.008114 -0.002728 0.000000 0.000000 0.000000
# 3 -0.008358 -0.002728 0.018117 0.000000 0.000000 0.000000
# 4 0.000000 0.000000 0.000000 0.029135 0.000000 0.000000
# 5 0.000000 0.000000 0.000000 0.000000 0.023737 0.000000
# 6 0.000000 0.000000 0.000000 0.000000 0.000000 0.037303
#
#
# Mechanical properties :
#
#
# Convention : Reuss Voigt Hill
#
# Bulk Modulus (GPa) = 43.47683 49.85567 46.66625
# Shear Modulus (GPa) = 28.62174 32.80084 30.71129
#
# Velocity S-wave (km/s) = 3.67401 3.93310 3.80576
# Velocity P-wave (km/s) = 6.20500 6.64366 6.42807
#
# Compressibility (1/GPa) = 0.02300076
#
# Stress axis : x y z
#
# Youngs Moduli (GPa) = 42.20396 123.24534 55.19684
#
# Poissons Ratio (x) = 0.29288 0.46133
# Poissons Ratio (y) = 0.10029 0.15058
# Poissons Ratio (z) = 0.35274 0.33622
#
# Static dielectric constant tensor:
#      x y z
#    x 1.767960 0.000000 0.000000 
#    y 0.000000 1.763940 0.000000 
#    z 0.000000 0.000000 1.774530 
# 
# From -- ./inp_files/19188.got.cif
#   From: 2010.05.17/outbox.cif.g08.bks.cpg/sg20_10_cif.got.tgz:19188.got - 2010.06.03 22:52:26.
