data_PCOD9319660
_publ_section_title
;
Structure prediction by ZEFSAII (Michael W. Deem and Ramdas Pophale) SiO2 
 PCOD9319660
Probable space group: C 2 2 21
;
_chemical_formula_sum "Si O2"
_cell_formula_units_Z 56
_cell_length_a 13.289603
_cell_length_b 25.844351
_cell_length_c 7.126491
_cell_angle_alpha 90.000000
_cell_angle_beta 90.000000
_cell_angle_gamma 90.000000
_cell_volume 2447.672898
_symmetry_space_group_name_H-M "C 2 2 21"
_symmetry_group_IT_number 20
_symmetry_cell_setting 'orthorhombic'
loop_
_space_group_symop_operation_xyz
x,y,z
-x,-y,1/2+z
x,-y,-z
-x,y,1/2-z
1/2+x,1/2+y,z
1/2-x,1/2-y,1/2+z
1/2+x,1/2-y,-z
1/2-x,1/2+y,1/2-z
loop_
_atom_site_type_symbol
_atom_site_label
_atom_site_fract_x
_atom_site_fract_y
_atom_site_fract_z
Si Si1 0.856535 0.771599 0.645831
Si Si2 0.592673 0.141709 0.485920
Si Si3 0.385395 0.837681 0.436929
Si Si4 0.311088 0.612463 0.478492
Si Si5 0.374055 0.744922 0.919245
Si Si6 0.664049 0.363959 0.399905
Si Si7 0.507295 0.440740 0.473853
O O1 0.907740 0.724039 0.534124
O O2 0.852913 0.830311 0.576469
O O3 0.742526 0.751664 0.636207
O O4 0.889844 0.767583 0.860268
O O5 0.610494 0.154509 0.709041
O O6 0.474680 0.126863 0.479353
O O7 0.692295 0.110371 0.422259
O O8 0.593201 0.196889 0.381926
O O9 0.271417 0.850828 0.496382
O O10 0.307237 0.609409 0.704936
O O11 0.399394 0.571739 0.432455
O O12 0.395567 0.688270 0.839568
O O13 0.593443 0.399605 0.525654
O O14 0.536002 0.500000 0.500000
O O15 0.500000 0.432306 0.250000
#
# Coordination Sequence:
#
# PCOD9319660 Si02
#       7
#     8   8   8   8   8   8   8
#     4   9  16  26  43  67  98 132 164 193 225 276
#     4   8  14  25  43  68  96 125 156 187 222 279
#     4   8  14  25  43  68  96 125 156 187 222 279
#     4   9  18  32  48  67  94 124 159 202 248 289
#     4   9  16  26  43  67  98 132 164 193 225 276
#     4   9  18  32  48  67  94 124 159 202 248 289
#     4  10  22  38  54  72  92 122 164 214 261 300
#
# _framework density 22.878875000000001
#
# number of rings (size 3 to 8) (size 9 to 14) (size 15 to 20)
#    0.000    3.143    0.000    2.571    2.000    1.143 
#    0.000    0.000    0.000    8.571    0.000    0.000 
#    0.000    0.000    0.000    0.000    0.000    0.000 
#
# Total GULP energy -155894.528928 kJ/mol
# GULP energy per Si atom -5567.661747 kJ/mol
# Density = 2.282680 g / cm^3
# Si number density = 22.878875 Si / 1000 Ang^3
#
#
#
# Elastic Constant Matrix: (Units=GPa)
#
#
# Indices 1 2 3 4 5 6 
#
# 1 158.8437 35.6876 -7.9923 0.0000 0.0000 0.0000
# 2 35.6876 69.5870 -19.8991 0.0000 0.0000 0.0000
# 3 -7.9923 -19.8991 61.3123 0.0000 0.0000 0.0000
# 4 0.0000 0.0000 0.0000 15.9145 0.0000 0.0000
# 5 0.0000 0.0000 0.0000 0.0000 37.3348 0.0000
# 6 0.0000 0.0000 0.0000 0.0000 0.0000 20.5775
#
#
#
# Elastic Compliance Matrix: (Units=1/GPa)
#
#
# Indices 1 2 3 4 5 6 
#
# 1 0.007120 -0.003732 -0.000283 0.000000 0.000000 0.000000
# 2 -0.003732 0.017797 0.005290 0.000000 0.000000 0.000000
# 3 -0.000283 0.005290 0.017990 0.000000 0.000000 0.000000
# 4 0.000000 0.000000 0.000000 0.062836 0.000000 0.000000
# 5 0.000000 0.000000 0.000000 0.000000 0.026785 0.000000
# 6 0.000000 0.000000 0.000000 0.000000 0.000000 0.048597
#
#
# Mechanical properties :
#
#
# Convention : Reuss Voigt Hill
#
# Bulk Modulus (GPa) = 21.99988 33.92617 27.96302
# Shear Modulus (GPa) = 25.80944 33.56182 29.68563
#
# Velocity S-wave (km/s) = 3.36235 3.83421 3.60601
# Velocity P-wave (km/s) = 4.97097 5.87047 5.43934
#
# Compressibility (1/GPa) = 0.04545479
#
# Stress axis : x y z
#
# Youngs Moduli (GPa) = 140.45333 56.18844 55.58714
#
# Poissons Ratio (x) = 0.20972 0.01575
# Poissons Ratio (y) = 0.52423 -0.29403
# Poissons Ratio (z) = 0.03978 -0.29722
#
# Static dielectric constant tensor:
#      x y z
#    x 1.963870 0.000000 0.000000 
#    y 0.000000 1.841360 0.000000 
#    z 0.000000 0.000000 1.935570 
# 
# From -- ./inp_files/8720.got.cif
#   From: 2010.05.17/outbox.cif.g08.bks.cpg/sg20_5_cif.got.tgz:8720.got - 2010.06.03 22:52:26.
