data_PCOD9319082
_publ_section_title
;
Structure prediction by ZEFSAII (Michael W. Deem and Ramdas Pophale) SiO2 
 PCOD9319082
Probable space group: C 2 2 21
;
_chemical_formula_sum "Si O2"
_cell_formula_units_Z 52
_cell_length_a 12.027188
_cell_length_b 15.589437
_cell_length_c 14.336418
_cell_angle_alpha 90.000000
_cell_angle_beta 90.000000
_cell_angle_gamma 90.000000
_cell_volume 2688.036650
_symmetry_space_group_name_H-M "C 2 2 21"
_symmetry_group_IT_number 20
_symmetry_cell_setting 'orthorhombic'
loop_
_space_group_symop_operation_xyz
x,y,z
-x,-y,1/2+z
x,-y,-z
-x,y,1/2-z
1/2+x,1/2+y,z
1/2-x,1/2-y,1/2+z
1/2+x,1/2-y,-z
1/2-x,1/2+y,1/2-z
loop_
_atom_site_type_symbol
_atom_site_label
_atom_site_fract_x
_atom_site_fract_y
_atom_site_fract_z
Si Si1 0.741258 0.403021 0.666696
Si Si2 0.276542 0.868632 0.054256
Si Si3 0.870619 0.000000 0.000000
Si Si4 0.526176 0.666076 0.975473
Si Si5 0.558812 0.263429 0.657691
Si Si6 0.836370 0.553850 0.132547
Si Si7 0.472125 0.174219 0.355635
O O1 0.703474 0.470870 0.588403
O O2 0.635515 0.343424 0.687285
O O3 0.786915 0.438807 0.764204
O O4 0.842456 0.344402 0.628474
O O5 0.357764 0.800162 0.102597
O O6 0.145784 0.854222 0.068832
O O7 0.314553 0.959471 0.095755
O O8 0.285192 0.879818 0.942359
O O9 0.947771 0.917822 0.025637
O O10 0.483987 0.748783 0.918857
O O11 0.528158 0.699560 0.082151
O O12 0.500000 0.226779 0.750000
O O13 0.964099 0.584150 0.131270
O O14 0.500000 0.199643 0.250000
#
# Coordination Sequence:
#
# PCOD9319082 Si02
#       7
#     8   8   4   8   8   8   8
#     4  10  22  44  61  94 131 169 211 268 328 378
#     4  11  22  40  64  94 123 172 215 267 328 386
#     4  10  24  40  66  96 132 168 214 264 324 388
#     4  11  22  43  63  93 128 170 215 263 328 390
#     4  11  23  40  65  95 129 169 222 271 325 390
#     4  10  22  40  64  91 130 168 214 269 326 381
#     4  10  21  39  65  88 125 169 213 259 320 385
#
# _framework density 19.344973
#
# number of rings (size 3 to 8) (size 9 to 14) (size 15 to 20)
#    0.000    1.538    3.077    1.846    0.000    5.538 
#    2.769    0.769    0.000    0.000    0.000    0.000 
#    0.000    0.000    0.000    0.000    0.000    0.000 
#
# Total GULP energy -144937.827116 kJ/mol
# GULP energy per Si atom -5574.531812 kJ/mol
# Density = 1.930094 g / cm^3
# Si number density = 19.344973 Si / 1000 Ang^3
#
#
#
# Elastic Constant Matrix: (Units=GPa)
#
#
# Indices 1 2 3 4 5 6 
#
# 1 83.9787 42.1856 44.1790 0.0000 0.0000 0.0000
# 2 42.1856 87.6255 55.9832 0.0000 0.0000 0.0000
# 3 44.1790 55.9832 105.0343 0.0000 0.0000 0.0000
# 4 0.0000 0.0000 0.0000 26.1105 0.0000 0.0000
# 5 0.0000 0.0000 0.0000 0.0000 27.6827 0.0000
# 6 0.0000 0.0000 0.0000 0.0000 0.0000 15.8228
#
#
#
# Elastic Compliance Matrix: (Units=1/GPa)
#
#
# Indices 1 2 3 4 5 6 
#
# 1 0.016839 -0.005431 -0.004188 0.000000 0.000000 0.000000
# 2 -0.005431 0.019057 -0.007873 0.000000 0.000000 0.000000
# 3 -0.004188 -0.007873 0.015478 0.000000 0.000000 0.000000
# 4 0.000000 0.000000 0.000000 0.038299 0.000000 0.000000
# 5 0.000000 0.000000 0.000000 0.000000 0.036124 0.000000
# 6 0.000000 0.000000 0.000000 0.000000 0.000000 0.063200
#
#
# Mechanical properties :
#
#
# Convention : Reuss Voigt Hill
#
# Bulk Modulus (GPa) = 61.01124 62.37046 61.69085
# Shear Modulus (GPa) = 21.79174 22.87590 22.33382
#
# Velocity S-wave (km/s) = 3.35995 3.44252 3.40148
# Velocity P-wave (km/s) = 6.83077 6.93631 6.88374
#
# Compressibility (1/GPa) = 0.01639042
#
# Stress axis : x y z
#
# Youngs Moduli (GPa) = 59.38484 52.47448 64.60596
#
# Poissons Ratio (x) = 0.28500 0.27057
# Poissons Ratio (y) = 0.32254 0.50863
# Poissons Ratio (z) = 0.24870 0.41312
#
# Static dielectric constant tensor:
#      x y z
#    x 1.712640 0.000000 0.000000 
#    y 0.000000 1.653520 0.000000 
#    z 0.000000 0.000000 1.704810 
# 
# From -- ./inp_files/20073.got.cif
#   From: 2010.05.17/outbox.cif.g08.bks.cpg/sg20_11_cif.got.tgz:20073.got - 2010.06.03 22:52:26.
