data_PCOD9319595
_publ_section_title
;
Structure prediction by ZEFSAII (Michael W. Deem and Ramdas Pophale) SiO2 
 PCOD9319595
Probable space group: C 2 2 21
;
_chemical_formula_sum "Si O2"
_cell_formula_units_Z 28
_cell_length_a 13.115055
_cell_length_b 8.566034
_cell_length_c 9.052010
_cell_angle_alpha 90.000000
_cell_angle_beta 90.000000
_cell_angle_gamma 90.000000
_cell_volume 1016.939075
_symmetry_space_group_name_H-M "C 2 2 21"
_symmetry_group_IT_number 20
_symmetry_cell_setting 'orthorhombic'
loop_
_space_group_symop_operation_xyz
x,y,z
-x,-y,1/2+z
x,-y,-z
-x,y,1/2-z
1/2+x,1/2+y,z
1/2-x,1/2-y,1/2+z
1/2+x,1/2-y,-z
1/2-x,1/2+y,1/2-z
loop_
_atom_site_type_symbol
_atom_site_label
_atom_site_fract_x
_atom_site_fract_y
_atom_site_fract_z
Si Si1 0.605389 0.242739 0.299148
Si Si2 0.250000 0.750000 0.032152
Si Si3 0.000000 0.000000 0.000000
Si Si4 0.605389 0.242739 0.799148
O O1 0.500000 0.164498 0.250000
O O2 0.683139 0.153215 0.409749
O O3 0.664486 0.294935 0.152423
O O4 0.567663 0.389481 0.395126
O O5 0.335514 0.705065 0.152423
O O6 0.183139 0.653215 0.909749
O O7 0.067663 0.889481 0.895126
O O8 0.500000 0.164498 0.750000
#
# Coordination Sequence:
#
# PCOD9319595 Si02
#       4
#     8   8   4   8
#     4  11  21  37  57  90 128 156 196 253 301 356
#     4  10  22  34  54  88 130 162 190 238 318 360
#     4  12  22  36  66  92 132 142 202 272 298 328
#     4  11  21  37  57  90 128 156 196 253 301 356
#
# _framework density 27.533608000000001
#
# number of rings (size 3 to 8) (size 9 to 14) (size 15 to 20)
#    0.000    1.143    5.714    0.857    0.000    0.000 
#    0.000    0.000    0.000    0.000    0.000   56.000 
#    0.000    0.000    0.000    0.000    0.000    0.000 
#
# Total GULP energy -77990.234601 kJ/mol
# GULP energy per Si atom -5570.731043 kJ/mol
# Density = 2.747094 g / cm^3
# Si number density = 27.533608 Si / 1000 Ang^3
#
#
#
# Elastic Constant Matrix: (Units=GPa)
#
#
# Indices 1 2 3 4 5 6 
#
# 1 237.9713 22.1641 123.0856 0.0000 0.0000 0.0000
# 2 22.1641 71.4095 35.2163 0.0000 0.0000 0.0000
# 3 123.0856 35.2163 289.9583 0.0000 0.0000 0.0000
# 4 0.0000 0.0000 0.0000 25.7795 0.0000 0.0000
# 5 0.0000 0.0000 0.0000 0.0000 131.0283 0.0000
# 6 0.0000 0.0000 0.0000 0.0000 0.0000 2.8062
#
#
#
# Elastic Compliance Matrix: (Units=1/GPa)
#
#
# Indices 1 2 3 4 5 6 
#
# 1 0.005407 -0.000581 -0.002225 0.000000 0.000000 0.000000
# 2 -0.000581 0.014958 -0.001570 0.000000 0.000000 0.000000
# 3 -0.002225 -0.001570 0.004584 0.000000 0.000000 0.000000
# 4 0.000000 0.000000 0.000000 0.038790 0.000000 0.000000
# 5 0.000000 0.000000 0.000000 0.000000 0.007632 0.000000
# 6 0.000000 0.000000 0.000000 0.000000 0.000000 0.356360
#
#
# Mechanical properties :
#
#
# Convention : Reuss Voigt Hill
#
# Bulk Modulus (GPa) = 61.73780 106.69681 84.21731
# Shear Modulus (GPa) = 11.31522 59.84765 35.58144
#
# Velocity S-wave (km/s) = 2.02942 4.66727 3.59874
# Velocity P-wave (km/s) = 5.28798 8.23894 6.92253
#
# Compressibility (1/GPa) = 0.01619753
#
# Stress axis : x y z
#
# Youngs Moduli (GPa) = 184.94672 66.85205 218.15904
#
# Poissons Ratio (x) = 0.03885 0.48533
# Poissons Ratio (y) = 0.10747 0.34252
# Poissons Ratio (z) = 0.41144 0.10496
#
# Static dielectric constant tensor:
#      x y z
#    x 2.383120 0.000000 0.000000 
#    y 0.000000 2.147350 0.000000 
#    z 0.000000 0.000000 2.066410 
# 
# From -- ./inp_files/6678.got.cif
#   From: 2010.05.17/outbox.cif.g08.bks.cpg/sg20_4_cif.got.tgz:6678.got - 2010.06.03 22:52:26.
