data_PCOD9319790
_publ_section_title
;
Structure prediction by ZEFSAII (Michael W. Deem and Ramdas Pophale) SiO2 
 PCOD9319790
Probable space group: C 2 2 21
;
_chemical_formula_sum "Si O2"
_cell_formula_units_Z 36
_cell_length_a 5.046043
_cell_length_b 12.842923
_cell_length_c 25.191738
_cell_angle_alpha 90.000000
_cell_angle_beta 90.000000
_cell_angle_gamma 90.000000
_cell_volume 1632.574304
_symmetry_space_group_name_H-M "C 2 2 21"
_symmetry_group_IT_number 20
_symmetry_cell_setting 'orthorhombic'
loop_
_space_group_symop_operation_xyz
x,y,z
-x,-y,1/2+z
x,-y,-z
-x,y,1/2-z
1/2+x,1/2+y,z
1/2-x,1/2-y,1/2+z
1/2+x,1/2-y,-z
1/2-x,1/2+y,1/2-z
loop_
_atom_site_type_symbol
_atom_site_label
_atom_site_fract_x
_atom_site_fract_y
_atom_site_fract_z
Si Si1 0.500000 0.892072 0.750000
Si Si2 0.990711 0.289147 0.970979
Si Si3 0.432557 0.931092 0.163530
Si Si4 0.278251 0.500000 0.500000
Si Si5 0.425359 0.394284 0.098045
Si Si6 0.000000 0.256399 0.250000
O O1 0.750008 0.817789 0.754461
O O2 0.527498 0.967132 0.699111
O O3 0.900276 0.407468 0.975859
O O4 0.936979 0.228460 0.916347
O O5 0.793785 0.230002 0.012530
O O6 0.631663 0.928082 0.113783
O O7 0.511965 0.832606 0.199548
O O8 0.130588 0.919732 0.144865
O O9 0.459881 0.547061 0.546584
#
# Coordination Sequence:
#
# PCOD9319790 Si02
#       6
#     4   8   8   4   8   4
#     4  11  24  45  72  98 124 165 210 259 330 394
#     4  10  22  40  60  87 124 168 213 256 305 359
#     4  11  25  43  65  98 130 159 213 268 316 389
#     4  10  24  42  64  90 132 178 220 264 306 368
#     4  11  23  41  65  94 130 171 212 264 319 372
#     4  11  24  45  68  92 128 165 202 265 328 384
#
# _framework density 22.051062000000002
#
# number of rings (size 3 to 8) (size 9 to 14) (size 15 to 20)
#    0.000    1.333    0.000    5.333    0.000   16.889 
#    0.000    6.667    0.000    0.000    0.000    0.000 
#    0.000    0.000    0.000    0.000    0.000    0.000 
#
# Total GULP energy -100798.050446 kJ/mol
# GULP energy per Si atom -5599.891691 kJ/mol
# Density = 2.200087 g / cm^3
# Si number density = 22.051062 Si / 1000 Ang^3
#
#
#
# Elastic Constant Matrix: (Units=GPa)
#
#
# Indices 1 2 3 4 5 6 
#
# 1 88.3366 31.6776 1.9797 0.0000 0.0000 0.0000
# 2 31.6776 159.2064 38.6608 0.0000 0.0000 0.0000
# 3 1.9797 38.6608 58.5747 0.0000 0.0000 0.0000
# 4 0.0000 0.0000 0.0000 16.0714 0.0000 0.0000
# 5 0.0000 0.0000 0.0000 0.0000 36.1317 0.0000
# 6 0.0000 0.0000 0.0000 0.0000 0.0000 28.4873
#
#
#
# Elastic Compliance Matrix: (Units=1/GPa)
#
#
# Indices 1 2 3 4 5 6 
#
# 1 0.012290 -0.002792 0.001427 0.000000 0.000000 0.000000
# 2 -0.002792 0.008114 -0.005261 0.000000 0.000000 0.000000
# 3 0.001427 -0.005261 0.020497 0.000000 0.000000 0.000000
# 4 0.000000 0.000000 0.000000 0.062222 0.000000 0.000000
# 5 0.000000 0.000000 0.000000 0.000000 0.027676 0.000000
# 6 0.000000 0.000000 0.000000 0.000000 0.000000 0.035103
#
#
# Mechanical properties :
#
#
# Convention : Reuss Voigt Hill
#
# Bulk Modulus (GPa) = 36.16801 50.08378 43.12589
# Shear Modulus (GPa) = 26.54342 31.72472 29.13407
#
# Velocity S-wave (km/s) = 3.47324 3.79713 3.63879
# Velocity P-wave (km/s) = 5.70281 6.47967 6.10361
#
# Compressibility (1/GPa) = 0.02764874
#
# Stress axis : x y z
#
# Youngs Moduli (GPa) = 81.37015 123.23959 48.78874
#
# Poissons Ratio (x) = 0.34407 -0.06964
# Poissons Ratio (y) = 0.22718 0.25669
# Poissons Ratio (z) = -0.11614 0.64840
#
# Static dielectric constant tensor:
#      x y z
#    x 1.742740 0.000000 0.000000 
#    y 0.000000 1.798380 0.000000 
#    z 0.000000 0.000000 1.822310 
# 
# From -- ./inp_files/28219.got.cif
#   From: 2010.05.17/outbox.cif.g08.bks.cpg/sg20_15_cif.got.tgz:28219.got - 2010.06.03 22:52:26.
