data_PCOD9319816
_publ_section_title
;
Structure prediction by ZEFSAII (Michael W. Deem and Ramdas Pophale) SiO2 
 PCOD9319816
Probable space group: C 2 2 21
;
_chemical_formula_sum "Si O2"
_cell_formula_units_Z 48
_cell_length_a 9.302095
_cell_length_b 23.271069
_cell_length_c 10.548874
_cell_angle_alpha 90.000000
_cell_angle_beta 90.000000
_cell_angle_gamma 90.000000
_cell_volume 2283.511533
_symmetry_space_group_name_H-M "C 2 2 21"
_symmetry_group_IT_number 20
_symmetry_cell_setting 'orthorhombic'
loop_
_space_group_symop_operation_xyz
x,y,z
-x,-y,1/2+z
x,-y,-z
-x,y,1/2-z
1/2+x,1/2+y,z
1/2-x,1/2-y,1/2+z
1/2+x,1/2-y,-z
1/2-x,1/2+y,1/2-z
loop_
_atom_site_type_symbol
_atom_site_label
_atom_site_fract_x
_atom_site_fract_y
_atom_site_fract_z
Si Si1 0.999839 0.612630 0.104167
Si Si2 0.500000 0.815086 0.250000
Si Si3 0.190719 0.288851 0.011476
Si Si4 0.878007 0.500000 0.500000
Si Si5 0.956025 0.854319 0.118465
Si Si6 0.738244 0.839553 0.444204
Si Si7 0.102103 0.016209 0.636886
O O1 0.032385 0.558179 0.013219
O O2 0.000000 0.595544 0.250000
O O3 0.113731 0.663356 0.074932
O O4 0.848826 0.640451 0.065870
O O5 0.588488 0.783306 0.137104
O O6 0.627413 0.847891 0.326533
O O7 0.345839 0.314583 0.046456
O O8 0.219053 0.227516 0.949766
O O9 0.766151 0.495357 0.618879
O O10 0.883040 0.915126 0.147209
O O11 0.000000 0.824825 0.250000
O O12 0.108548 0.869977 0.058262
O O13 0.000000 0.995776 0.750000
O O14 0.036104 0.000000 0.500000
#
# Coordination Sequence:
#
# PCOD9319816 Si02
#       7
#     8   4   8   4   8   8   8
#     4  11  26  48  67 101 143 185 234 293 353 421
#     4  10  22  40  62  98 132 178 220 274 336 426
#     4  11  22  43  68  96 139 176 226 282 355 415
#     4  10  22  50  66  94 140 190 230 296 352 414
#     4  11  20  40  65  94 128 170 219 279 338 408
#     4  11  25  39  69 102 132 182 226 282 359 419
#     4   9  20  38  68  94 127 169 225 282 341 399
#
# _framework density 21.020256
#
# number of rings (size 3 to 8) (size 9 to 14) (size 15 to 20)
#    0.500    1.000    3.333    2.000    2.333    2.667 
#   13.500    0.000    0.000    0.000    0.000    0.000 
#    0.000    0.000    0.000    0.000    0.000    0.000 
#
# Total GULP energy -133754.742099 kJ/mol
# GULP energy per Si atom -5573.114254 kJ/mol
# Density = 2.097241 g / cm^3
# Si number density = 21.020256 Si / 1000 Ang^3
#
#
#
# Elastic Constant Matrix: (Units=GPa)
#
#
# Indices 1 2 3 4 5 6 
#
# 1 108.4547 18.0124 21.4677 0.0000 0.0000 0.0000
# 2 18.0124 72.8259 8.0100 0.0000 0.0000 0.0000
# 3 21.4677 8.0100 87.6987 0.0000 0.0000 0.0000
# 4 0.0000 0.0000 0.0000 -3.4484 0.0000 0.0000
# 5 0.0000 0.0000 0.0000 0.0000 25.7545 0.0000
# 6 0.0000 0.0000 0.0000 0.0000 0.0000 17.5240
#
#
#
# Elastic Compliance Matrix: (Units=1/GPa)
#
#
# Indices 1 2 3 4 5 6 
#
# 1 0.010038 -0.002235 -0.002253 0.000000 0.000000 0.000000
# 2 -0.002235 0.014368 -0.000765 0.000000 0.000000 0.000000
# 3 -0.002253 -0.000765 0.012024 0.000000 0.000000 0.000000
# 4 0.000000 0.000000 0.000000 -0.289991 0.000000 0.000000
# 5 0.000000 0.000000 0.000000 0.000000 0.038828 0.000000
# 6 0.000000 0.000000 0.000000 0.000000 0.000000 0.057065
#
#
# Mechanical properties :
#
#
# Convention : Reuss Voigt Hill
#
# Bulk Modulus (GPa) = 38.57463 40.43996 39.50730
# Shear Modulus (GPa) = -36.09575 22.73197 -6.68189
#
# Velocity S-wave (km/s) = -4.14839 3.29208 -1.78485
# Velocity P-wave (km/s) = 2.13414 5.80782 3.81944
#
# Compressibility (1/GPa) = 0.02592377
#
# Stress axis : x y z
#
# Youngs Moduli (GPa) = 99.62582 69.59764 83.16651
#
# Poissons Ratio (x) = 0.15554 0.18737
# Poissons Ratio (y) = 0.22265 0.06365
# Poissons Ratio (z) = 0.22445 0.05326
#
# Static dielectric constant tensor:
#      x y z
#    x 1.801840 0.000000 0.000000 
#    y 0.000000 1.737520 0.000000 
#    z 0.000000 0.000000 1.800510 
# 
# From -- ./inp_files/13123.got.cif
#   From: 2010.05.17/outbox.cif.g08.bks.cpg/sg20_7_cif.got.tgz:13123.got - 2010.06.03 22:52:26.
