data_PCOD9319865
_publ_section_title
;
Structure prediction by ZEFSAII (Michael W. Deem and Ramdas Pophale) SiO2 
 PCOD9319865
Probable space group: C 2 2 21
;
_chemical_formula_sum "Si O2"
_cell_formula_units_Z 32
_cell_length_a 24.710851
_cell_length_b 9.672231
_cell_length_c 4.814811
_cell_angle_alpha 90.000000
_cell_angle_beta 90.000000
_cell_angle_gamma 90.000000
_cell_volume 1150.783447
_symmetry_space_group_name_H-M "C 2 2 21"
_symmetry_group_IT_number 20
_symmetry_cell_setting 'orthorhombic'
loop_
_space_group_symop_operation_xyz
x,y,z
-x,-y,1/2+z
x,-y,-z
-x,y,1/2-z
1/2+x,1/2+y,z
1/2-x,1/2-y,1/2+z
1/2+x,1/2-y,-z
1/2-x,1/2+y,1/2-z
loop_
_atom_site_type_symbol
_atom_site_label
_atom_site_fract_x
_atom_site_fract_y
_atom_site_fract_z
Si Si1 0.562453 0.149093 0.047973
Si Si2 0.234045 0.654783 0.128739
Si Si3 0.636095 0.800056 0.467941
Si Si4 0.899321 0.000000 0.000000
Si Si5 0.000000 0.872355 0.750000
O O1 0.615496 0.166854 0.842444
O O2 0.520328 0.266847 0.980617
O O3 0.584106 0.156989 0.355621
O O4 0.539009 0.000000 0.000000
O O5 0.272300 0.742554 0.354866
O O6 0.184305 0.637168 0.345573
O O7 0.245784 0.500000 0.000000
O O8 0.637927 0.634084 0.519046
O O9 0.945510 0.039131 0.220752
#
# Coordination Sequence:
#
# PCOD9319865 Si02
#       5
#     8   8   8   4   4
#     4  11  24  42  69 103 148 203 257 316 388 462
#     4  12  28  53  83 118 158 204 265 338 411 489
#     4  11  25  46  76 103 148 199 260 323 392 478
#     4  10  22  42  72 106 150 202 258 324 380 472
#     4  10  22  40  66 108 150 200 256 326 376 448
#
# _framework density 27.807141999999999
#
# number of rings (size 3 to 8) (size 9 to 14) (size 15 to 20)
#    0.000    1.000    0.000    5.250    1.750   12.000 
#    9.000    0.000    0.000    0.000    0.000    0.000 
#    0.000    0.000    0.000    0.000    0.000    0.000 
#
# Total GULP energy -89245.631854 kJ/mol
# GULP energy per Si atom -5577.851991 kJ/mol
# Density = 2.774385 g / cm^3
# Si number density = 27.807142 Si / 1000 Ang^3
#
#
#
# Elastic Constant Matrix: (Units=GPa)
#
#
# Indices 1 2 3 4 5 6 
#
# 1 113.0414 26.0935 40.4332 0.0000 0.0000 0.0000
# 2 26.0935 216.5054 59.5423 0.0000 0.0000 0.0000
# 3 40.4332 59.5423 161.7916 0.0000 0.0000 0.0000
# 4 0.0000 0.0000 0.0000 46.9812 0.0000 0.0000
# 5 0.0000 0.0000 0.0000 0.0000 52.3034 0.0000
# 6 0.0000 0.0000 0.0000 0.0000 0.0000 57.1316
#
#
#
# Elastic Compliance Matrix: (Units=1/GPa)
#
#
# Indices 1 2 3 4 5 6 
#
# 1 0.009776 -0.000563 -0.002236 0.000000 0.000000 0.000000
# 2 -0.000563 0.005171 -0.001762 0.000000 0.000000 0.000000
# 3 -0.002236 -0.001762 0.007388 0.000000 0.000000 0.000000
# 4 0.000000 0.000000 0.000000 0.021285 0.000000 0.000000
# 5 0.000000 0.000000 0.000000 0.000000 0.019119 0.000000
# 6 0.000000 0.000000 0.000000 0.000000 0.000000 0.017503
#
#
# Mechanical properties :
#
#
# Convention : Reuss Voigt Hill
#
# Bulk Modulus (GPa) = 75.68575 82.60849 79.14712
# Shear Modulus (GPa) = 53.32160 55.63452 54.47806
#
# Velocity S-wave (km/s) = 4.38374 4.47780 4.43102
# Velocity P-wave (km/s) = 7.27324 7.51708 7.39616
#
# Compressibility (1/GPa) = 0.01321253
#
# Stress axis : x y z
#
# Youngs Moduli (GPa) = 102.29059 193.37118 135.35221
#
# Poissons Ratio (x) = 0.10893 0.30262
# Poissons Ratio (y) = 0.05762 0.23854
# Poissons Ratio (z) = 0.22870 0.34080
#
# Static dielectric constant tensor:
#      x y z
#    x 2.254310 0.000000 0.000000 
#    y 0.000000 2.295040 0.000000 
#    z 0.000000 0.000000 2.030180 
# 
# From -- ./inp_files/4533.got.cif
#   From: 2010.05.17/outbox.cif.g08.bks.cpg/sg20_3_cif.got.tgz:4533.got - 2010.06.03 22:52:26.
