data_PCOD9319563
_publ_section_title
;
Structure prediction by ZEFSAII (Michael W. Deem and Ramdas Pophale) SiO2 
 PCOD9319563
Probable space group: C 2 2 21
;
_chemical_formula_sum "Si O2"
_cell_formula_units_Z 48
_cell_length_a 5.909617
_cell_length_b 24.468740
_cell_length_c 13.253213
_cell_angle_alpha 90.000000
_cell_angle_beta 90.000000
_cell_angle_gamma 90.000000
_cell_volume 1916.426287
_symmetry_space_group_name_H-M "C 2 2 21"
_symmetry_group_IT_number 20
_symmetry_cell_setting 'orthorhombic'
loop_
_space_group_symop_operation_xyz
x,y,z
-x,-y,1/2+z
x,-y,-z
-x,y,1/2-z
1/2+x,1/2+y,z
1/2-x,1/2-y,1/2+z
1/2+x,1/2-y,-z
1/2-x,1/2+y,1/2-z
loop_
_atom_site_type_symbol
_atom_site_label
_atom_site_fract_x
_atom_site_fract_y
_atom_site_fract_z
Si Si1 0.995749 0.898714 0.632181
Si Si2 0.374459 0.280742 0.116495
Si Si3 0.000000 0.426136 0.250000
Si Si4 0.188865 0.118238 0.926599
Si Si5 0.346038 0.517728 0.893591
Si Si6 0.500000 0.761644 0.250000
Si Si7 0.706121 0.805341 0.903328
O O1 0.226466 0.868580 0.594058
O O2 0.000000 0.883402 0.750000
O O3 0.801407 0.881518 0.550447
O O4 0.011578 0.963786 0.630139
O O5 0.572087 0.324499 0.101473
O O6 0.792613 0.295359 0.293968
O O7 0.473625 0.220418 0.135272
O O8 0.227378 0.283277 0.016110
O O9 0.110007 0.394289 0.347259
O O10 0.183620 0.464702 0.196111
O O11 0.009445 0.069312 0.909853
O O12 0.228411 0.500000 0.000000
O O13 0.598373 0.723739 0.338171
#
# Coordination Sequence:
#
# PCOD9319563 Si02
#       7
#     8   8   4   8   8   4   8
#     4  10  21  45  73 103 147 195 242 308 376 451
#     4  11  25  46  71 107 145 192 247 308 361 449
#     4  12  24  45  74 110 144 196 257 304 384 442
#     4  10  25  45  72 105 148 193 249 320 367 444
#     4  10  24  45  68 103 146 192 248 307 371 443
#     4  12  24  45  74  98 142 196 233 296 370 426
#     4  11  23  44  70 103 144 186 247 295 367 442
#
# _framework density 25.046617999999999
#
# number of rings (size 3 to 8) (size 9 to 14) (size 15 to 20)
#    0.000    1.333    2.500    2.000    0.000    8.667 
#    6.000    0.000    0.000    0.000    0.000    0.000 
#    0.000    0.000    0.000    0.000    0.000    0.000 
#
# Total GULP energy -134138.408263 kJ/mol
# GULP energy per Si atom -5589.100344 kJ/mol
# Density = 2.498961 g / cm^3
# Si number density = 25.046618 Si / 1000 Ang^3
#
#
#
# Elastic Constant Matrix: (Units=GPa)
#
#
# Indices 1 2 3 4 5 6 
#
# 1 51.6526 20.5732 37.8321 0.0000 0.0000 0.0000
# 2 20.5732 117.5463 22.4922 0.0000 0.0000 0.0000
# 3 37.8321 22.4922 196.8902 0.0000 0.0000 0.0000
# 4 0.0000 0.0000 0.0000 29.6223 0.0000 0.0000
# 5 0.0000 0.0000 0.0000 0.0000 40.8346 0.0000
# 6 0.0000 0.0000 0.0000 0.0000 0.0000 16.3281
#
#
#
# Elastic Compliance Matrix: (Units=1/GPa)
#
#
# Indices 1 2 3 4 5 6 
#
# 1 0.023761 -0.003358 -0.004182 0.000000 0.000000 0.000000
# 2 -0.003358 0.009172 -0.000402 0.000000 0.000000 0.000000
# 3 -0.004182 -0.000402 0.005929 0.000000 0.000000 0.000000
# 4 0.000000 0.000000 0.000000 0.033758 0.000000 0.000000
# 5 0.000000 0.000000 0.000000 0.000000 0.024489 0.000000
# 6 0.000000 0.000000 0.000000 0.000000 0.000000 0.061244
#
#
# Mechanical properties :
#
#
# Convention : Reuss Voigt Hill
#
# Bulk Modulus (GPa) = 43.52434 58.65380 51.08907
# Shear Modulus (GPa) = 27.48809 36.36979 31.92894
#
# Velocity S-wave (km/s) = 3.31641 3.81476 3.57428
# Velocity P-wave (km/s) = 5.66391 6.54766 6.12175
#
# Compressibility (1/GPa) = 0.02297565
#
# Stress axis : x y z
#
# Youngs Moduli (GPa) = 42.08613 109.02623 168.67672
#
# Poissons Ratio (x) = 0.36616 0.70539
# Poissons Ratio (y) = 0.14135 0.06789
# Poissons Ratio (z) = 0.17600 0.04388
#
# Static dielectric constant tensor:
#      x y z
#    x 1.943630 0.000000 0.000000 
#    y 0.000000 1.916590 0.000000 
#    z 0.000000 0.000000 2.105750 
# 
# From -- ./inp_files/13318.got.cif
#   From: 2010.05.17/outbox.cif.g08.bks.cpg/sg20_7_cif.got.tgz:13318.got - 2010.06.03 22:52:26.
