data_PCOD9319918
_publ_section_title
;
Structure prediction by ZEFSAII (Michael W. Deem and Ramdas Pophale) SiO2 
 PCOD9319918
Probable space group: C 2 2 21
;
_chemical_formula_sum "Si O2"
_cell_formula_units_Z 44
_cell_length_a 29.812755
_cell_length_b 8.120689
_cell_length_c 9.021710
_cell_angle_alpha 90.000000
_cell_angle_beta 90.000000
_cell_angle_gamma 90.000000
_cell_volume 2184.156998
_symmetry_space_group_name_H-M "C 2 2 21"
_symmetry_group_IT_number 20
_symmetry_cell_setting 'orthorhombic'
loop_
_space_group_symop_operation_xyz
x,y,z
-x,-y,1/2+z
x,-y,-z
-x,y,1/2-z
1/2+x,1/2+y,z
1/2-x,1/2-y,1/2+z
1/2+x,1/2-y,-z
1/2-x,1/2+y,1/2-z
loop_
_atom_site_type_symbol
_atom_site_label
_atom_site_fract_x
_atom_site_fract_y
_atom_site_fract_z
Si Si1 0.854189 0.637199 0.796371
Si Si2 0.500000 0.032556 0.250000
Si Si3 0.881542 0.180578 0.496127
Si Si4 0.432855 0.000000 0.000000
Si Si5 0.194713 0.310702 0.820223
Si Si6 0.937680 0.500000 0.500000
Si Si7 0.784756 0.818702 0.001768
O O1 0.865621 0.766661 0.667626
O O2 0.898218 0.601188 0.896082
O O3 0.833942 0.474833 0.716019
O O4 0.815308 0.700940 0.903279
O O5 0.534654 0.098130 0.381079
O O6 0.533619 0.941677 0.140388
O O7 0.839089 0.181026 0.605896
O O8 0.911342 0.336546 0.546343
O O9 0.902936 0.000000 0.500000
O O10 0.215565 0.247442 0.667672
O O11 0.235552 0.334232 0.932445
O O12 0.805741 0.000000 0.000000
#
# Coordination Sequence:
#
# PCOD9319918 Si02
#       7
#     8   4   8   4   8   4   8
#     4  12  23  44  67  97 142 188 236 293 355 429
#     4  10  22  40  78 102 132 176 230 288 374 444
#     4  12  24  42  70  99 138 182 234 291 356 420
#     4  11  20  42  72 106 130 184 234 296 372 435
#     4  12  23  42  63  92 138 191 240 292 346 416
#     4  11  22  44  72 102 134 178 228 286 358 439
#     4  12  25  38  61  96 135 184 242 289 342 411
#
# _framework density 20.145071999999999
#
# number of rings (size 3 to 8) (size 9 to 14) (size 15 to 20)
#    0.000    0.364    5.455    4.364    0.000    1.455 
#    0.000    0.909    0.000    0.000    0.000    0.000 
#    0.000    0.000    0.000    0.000    0.000    0.000 
#
# Total GULP energy -122616.536813 kJ/mol
# GULP energy per Si atom -5573.478946 kJ/mol
# Density = 2.009922 g / cm^3
# Si number density = 20.145072 Si / 1000 Ang^3
#
#
#
# Elastic Constant Matrix: (Units=GPa)
#
#
# Indices 1 2 3 4 5 6 
#
# 1 97.3294 29.4182 45.0119 0.0000 0.0000 0.0000
# 2 29.4182 100.5462 27.5958 0.0000 0.0000 0.0000
# 3 45.0119 27.5958 123.3490 0.0000 0.0000 0.0000
# 4 0.0000 0.0000 0.0000 21.1233 0.0000 0.0000
# 5 0.0000 0.0000 0.0000 0.0000 99.6679 0.0000
# 6 0.0000 0.0000 0.0000 0.0000 0.0000 2.4073
#
#
#
# Elastic Compliance Matrix: (Units=1/GPa)
#
#
# Indices 1 2 3 4 5 6 
#
# 1 0.012998 -0.002665 -0.004147 0.000000 0.000000 0.000000
# 2 -0.002665 0.011143 -0.001520 0.000000 0.000000 0.000000
# 3 -0.004147 -0.001520 0.009960 0.000000 0.000000 0.000000
# 4 0.000000 0.000000 0.000000 0.047341 0.000000 0.000000
# 5 0.000000 0.000000 0.000000 0.000000 0.010033 0.000000
# 6 0.000000 0.000000 0.000000 0.000000 0.000000 0.415397
#
#
# Mechanical properties :
#
#
# Convention : Reuss Voigt Hill
#
# Bulk Modulus (GPa) = 57.35053 58.36406 57.85730
# Shear Modulus (GPa) = 9.44557 39.25296 24.34927
#
# Velocity S-wave (km/s) = 2.16771 4.41899 3.48040
# Velocity P-wave (km/s) = 5.89880 7.42101 6.70325
#
# Compressibility (1/GPa) = 0.01743663
#
# Stress axis : x y z
#
# Youngs Moduli (GPa) = 76.93719 89.74538 100.39670
#
# Poissons Ratio (x) = 0.23915 0.41633
# Poissons Ratio (y) = 0.20502 0.15265
# Poissons Ratio (z) = 0.31905 0.13645
#
# Static dielectric constant tensor:
#      x y z
#    x 1.762920 0.000000 0.000000 
#    y 0.000000 1.716670 0.000000 
#    z 0.000000 0.000000 1.726760 
# 
# From -- ./inp_files/6411.got.cif
#   From: 2010.05.17/outbox.cif.g08.bks.cpg/sg20_4_cif.got.tgz:6411.got - 2010.06.03 22:52:26.
