data_PCOD9319778
_publ_section_title
;
Structure prediction by ZEFSAII (Michael W. Deem and Ramdas Pophale) SiO2 
 PCOD9319778
Probable space group: C 2 2 21
;
_chemical_formula_sum "Si O2"
_cell_formula_units_Z 36
_cell_length_a 25.135477
_cell_length_b 7.254028
_cell_length_c 8.361877
_cell_angle_alpha 90.000000
_cell_angle_beta 90.000000
_cell_angle_gamma 90.000000
_cell_volume 1524.649915
_symmetry_space_group_name_H-M "C 2 2 21"
_symmetry_group_IT_number 20
_symmetry_cell_setting 'orthorhombic'
loop_
_space_group_symop_operation_xyz
x,y,z
-x,-y,1/2+z
x,-y,-z
-x,y,1/2-z
1/2+x,1/2+y,z
1/2-x,1/2-y,1/2+z
1/2+x,1/2-y,-z
1/2-x,1/2+y,1/2-z
loop_
_atom_site_type_symbol
_atom_site_label
_atom_site_fract_x
_atom_site_fract_y
_atom_site_fract_z
Si Si1 0.492689 0.500000 0.000000
Si Si2 0.360333 0.103570 0.841990
Si Si3 0.166428 0.734606 0.150069
Si Si4 0.766923 0.783710 0.028749
Si Si5 0.919992 0.962228 0.725942
O O1 0.453223 0.570750 0.863133
O O2 0.536075 0.385274 0.898906
O O3 0.359171 0.963294 0.692817
O O4 0.301891 0.169352 0.901401
O O5 0.292492 0.752530 0.799607
O O6 0.382626 0.000000 0.000000
O O7 0.204564 0.754537 0.996912
O O8 0.123081 0.894699 0.159448
O O9 0.891769 0.788129 0.803597
O O10 0.774162 0.000000 0.000000
#
# Coordination Sequence:
#
# PCOD9319778 Si02
#       5
#     4   8   8   8   8
#     4  10  24  44  76  92 130 180 236 288 364 380
#     4  10  22  39  68  97 137 180 218 270 337 403
#     4  11  24  41  65  96 137 175 222 269 334 403
#     4  11  21  40  61  94 137 183 210 265 322 412
#     4  11  23  48  67 101 133 178 230 298 334 414
#
# _framework density 23.611978000000001
#
# number of rings (size 3 to 8) (size 9 to 14) (size 15 to 20)
#    0.000    1.333    2.222    4.000    0.000    3.556 
#    6.000   11.111    0.000    0.000    0.000    0.000 
#    0.000    0.000    0.000    0.000    0.000    0.000 
#
# Total GULP energy -100560.562116 kJ/mol
# GULP energy per Si atom -5586.697895 kJ/mol
# Density = 2.355824 g / cm^3
# Si number density = 23.611978 Si / 1000 Ang^3
#
#
#
# Elastic Constant Matrix: (Units=GPa)
#
#
# Indices 1 2 3 4 5 6 
#
# 1 122.4324 58.3956 56.5184 0.0000 0.0000 0.0000
# 2 58.3956 129.7194 16.2010 0.0000 0.0000 0.0000
# 3 56.5184 16.2010 75.5322 0.0000 0.0000 0.0000
# 4 0.0000 0.0000 0.0000 22.8187 0.0000 0.0000
# 5 0.0000 0.0000 0.0000 0.0000 43.4191 0.0000
# 6 0.0000 0.0000 0.0000 0.0000 0.0000 -9.1220
#
#
#
# Elastic Compliance Matrix: (Units=1/GPa)
#
#
# Indices 1 2 3 4 5 6 
#
# 1 0.015828 -0.005801 -0.010599 0.000000 0.000000 0.000000
# 2 -0.005801 0.010048 0.002186 0.000000 0.000000 0.000000
# 3 -0.010599 0.002186 0.020701 0.000000 0.000000 0.000000
# 4 0.000000 0.000000 0.000000 0.043824 0.000000 0.000000
# 5 0.000000 0.000000 0.000000 0.000000 0.023031 0.000000
# 6 0.000000 0.000000 0.000000 0.000000 0.000000 -0.109625
#
#
# Mechanical properties :
#
#
# Convention : Reuss Voigt Hill
#
# Bulk Modulus (GPa) = 55.10359 65.54602 60.32480
# Shear Modulus (GPa) = 130.59988 24.52776 77.56382
#
# Velocity S-wave (km/s) = 7.44520 3.22651 5.73765
# Velocity P-wave (km/s) = 9.86386 6.45759 8.33655
#
# Compressibility (1/GPa) = 0.01814764
#
# Stress axis : x y z
#
# Youngs Moduli (GPa) = 63.18085 99.52692 48.30590
#
# Poissons Ratio (x) = 0.57739 0.51199
# Poissons Ratio (y) = 0.36653 -0.10559
# Poissons Ratio (z) = 0.66965 -0.21755
#
# Static dielectric constant tensor:
#      x y z
#    x 1.874340 0.000000 0.000000 
#    y 0.000000 1.862670 0.000000 
#    z 0.000000 0.000000 2.030020 
# 
# From -- ./inp_files/16120.got.cif
#   From: 2010.05.17/outbox.cif.g08.bks.cpg/sg20_9_cif.got.tgz:16120.got - 2010.06.03 22:52:26.
