data_PCOD9319617
_publ_section_title
;
Structure prediction by ZEFSAII (Michael W. Deem and Ramdas Pophale) SiO2 
 PCOD9319617
Probable space group: C 2 2 21
;
_chemical_formula_sum "Si O2"
_cell_formula_units_Z 56
_cell_length_a 12.758853
_cell_length_b 14.166105
_cell_length_c 15.404061
_cell_angle_alpha 90.000000
_cell_angle_beta 90.000000
_cell_angle_gamma 90.000000
_cell_volume 2784.180068
_symmetry_space_group_name_H-M "C 2 2 21"
_symmetry_group_IT_number 20
_symmetry_cell_setting 'orthorhombic'
loop_
_space_group_symop_operation_xyz
x,y,z
-x,-y,1/2+z
x,-y,-z
-x,y,1/2-z
1/2+x,1/2+y,z
1/2-x,1/2-y,1/2+z
1/2+x,1/2-y,-z
1/2-x,1/2+y,1/2-z
loop_
_atom_site_type_symbol
_atom_site_label
_atom_site_fract_x
_atom_site_fract_y
_atom_site_fract_z
Si Si1 0.662729 0.730920 0.664954
Si Si2 0.729085 0.375942 0.168248
Si Si3 0.437574 0.671629 0.438687
Si Si4 0.133036 0.900325 0.640491
Si Si5 0.498743 0.410651 0.117985
Si Si6 0.754646 0.919663 0.675885
Si Si7 0.227976 0.715939 0.020685
O O1 0.731215 0.681485 0.741359
O O2 0.552471 0.680316 0.661581
O O3 0.663438 0.842037 0.678556
O O4 0.707166 0.714842 0.568314
O O5 0.611940 0.419957 0.160374
O O6 0.789917 0.474841 0.165277
O O7 0.745158 0.304435 0.087675
O O8 0.536647 0.674185 0.373706
O O9 0.481540 0.610502 0.517752
O O10 0.338279 0.617040 0.396734
O O11 0.389931 0.765801 0.483740
O O12 0.182166 0.905318 0.735076
O O13 0.227097 0.872165 0.575127
O O14 0.077704 0.001281 0.627549
#
# Coordination Sequence:
#
# PCOD9319617 Si02
#       7
#     8   8   8   8   8   8   8
#     4  11  22  37  56  94 124 164 204 257 329 379
#     4  11  22  40  59  94 126 157 214 270 314 379
#     4  10  22  36  57  93 125 158 204 254 315 373
#     4  12  20  37  60  96 127 160 207 261 323 369
#     4  11  22  35  64  94 121 156 207 274 315 368
#     4  11  23  36  61  94 127 165 203 265 323 378
#     4  10  24  37  57  94 131 167 200 262 320 384
#
# _framework density 20.113641999999999
#
# number of rings (size 3 to 8) (size 9 to 14) (size 15 to 20)
#    0.000    1.143    5.714    1.286    2.000    1.714 
#    0.000    0.000    0.000    0.000   40.857    0.000 
#    0.000    0.000    0.000    0.000    0.000    0.000 
#
# Total GULP energy -156021.568767 kJ/mol
# GULP energy per Si atom -5572.198885 kJ/mol
# Density = 2.006786 g / cm^3
# Si number density = 20.113642 Si / 1000 Ang^3
#
#
#
# Elastic Constant Matrix: (Units=GPa)
#
#
# Indices 1 2 3 4 5 6 
#
# 1 34.0157 21.3575 2.8337 0.0000 0.0000 0.0000
# 2 21.3575 84.2838 18.6648 0.0000 0.0000 0.0000
# 3 2.8337 18.6648 123.5178 0.0000 0.0000 0.0000
# 4 0.0000 0.0000 0.0000 32.0357 0.0000 0.0000
# 5 0.0000 0.0000 0.0000 0.0000 31.4615 0.0000
# 6 0.0000 0.0000 0.0000 0.0000 0.0000 36.0309
#
#
#
# Elastic Compliance Matrix: (Units=1/GPa)
#
#
# Indices 1 2 3 4 5 6 
#
# 1 0.034997 -0.008991 0.000556 0.000000 0.000000 0.000000
# 2 -0.008991 0.014586 -0.001998 0.000000 0.000000 0.000000
# 3 0.000556 -0.001998 0.008385 0.000000 0.000000 0.000000
# 4 0.000000 0.000000 0.000000 0.031215 0.000000 0.000000
# 5 0.000000 0.000000 0.000000 0.000000 0.031785 0.000000
# 6 0.000000 0.000000 0.000000 0.000000 0.000000 0.027754
#
#
# Mechanical properties :
#
#
# Convention : Reuss Voigt Hill
#
# Bulk Modulus (GPa) = 26.95322 36.39212 31.67267
# Shear Modulus (GPa) = 27.47919 33.16969 30.32444
#
# Velocity S-wave (km/s) = 3.70022 4.06533 3.88707
# Velocity P-wave (km/s) = 5.62895 6.33786 5.99389
#
# Compressibility (1/GPa) = 0.03710132
#
# Stress axis : x y z
#
# Youngs Moduli (GPa) = 28.57356 68.56124 119.25875
#
# Poissons Ratio (x) = 0.61646 -0.06628
# Poissons Ratio (y) = 0.25692 0.23825
# Poissons Ratio (z) = -0.01588 0.13697
#
# Static dielectric constant tensor:
#      x y z
#    x 1.755180 0.000000 0.000000 
#    y 0.000000 1.789190 0.000000 
#    z 0.000000 0.000000 1.745170 
# 
# From -- ./inp_files/20722.got.cif
#   From: 2010.05.17/outbox.cif.g08.bks.cpg/sg20_11_cif.got.tgz:20722.got - 2010.06.03 22:52:26.
