data_PCOD9319144
_publ_section_title
;
Structure prediction by ZEFSAII (Michael W. Deem and Ramdas Pophale) SiO2 
 PCOD9319144
Probable space group: C 2 2 21
;
_chemical_formula_sum "Si O2"
_cell_formula_units_Z 52
_cell_length_a 9.930542
_cell_length_b 10.082851
_cell_length_c 26.574506
_cell_angle_alpha 90.000000
_cell_angle_beta 90.000000
_cell_angle_gamma 90.000000
_cell_volume 2660.856796
_symmetry_space_group_name_H-M "C 2 2 21"
_symmetry_group_IT_number 20
_symmetry_cell_setting 'orthorhombic'
loop_
_space_group_symop_operation_xyz
x,y,z
-x,-y,1/2+z
x,-y,-z
-x,y,1/2-z
1/2+x,1/2+y,z
1/2-x,1/2-y,1/2+z
1/2+x,1/2-y,-z
1/2-x,1/2+y,1/2-z
loop_
_atom_site_type_symbol
_atom_site_label
_atom_site_fract_x
_atom_site_fract_y
_atom_site_fract_z
Si Si1 0.687095 0.134362 0.020945
Si Si2 0.794299 0.553069 0.371254
Si Si3 0.500000 0.745008 0.750000
Si Si4 0.036535 0.507812 0.695571
Si Si5 0.967769 0.795765 0.982773
Si Si6 0.014673 0.954739 0.413201
Si Si7 0.304667 0.654771 0.668727
O O1 0.639539 0.098714 0.076201
O O2 0.810575 0.236693 0.024753
O O3 0.571054 0.175936 0.983455
O O4 0.753724 0.000000 0.000000
O O5 0.658765 0.473188 0.385057
O O6 0.764816 0.692759 0.343611
O O7 0.906062 0.478006 0.339243
O O8 0.387816 0.660990 0.721173
O O9 0.555699 0.850261 0.708330
O O10 0.170200 0.569834 0.673534
O O11 0.000000 0.568081 0.750000
O O12 0.008195 0.902852 0.940486
O O13 0.982502 0.854636 0.039342
O O14 0.902914 0.905809 0.373912
#
# Coordination Sequence:
#
# PCOD9319144 Si02
#       7
#     8   8   4   8   8   8   8
#     4  11  21  40  62  84 127 165 197 248 301 350
#     4  10  21  40  59  87 122 158 199 246 299 362
#     4   8  22  40  60  86 120 152 200 250 302 350
#     4   9  22  42  58  88 121 147 204 256 293 358
#     4  10  21  40  58  91 126 156 201 249 292 352
#     4  10  21  40  61  88 125 157 199 249 293 359
#     4  11  21  40  65  84 120 161 197 248 307 362
#
# _framework density 19.542577000000001
#
# number of rings (size 3 to 8) (size 9 to 14) (size 15 to 20)
#    0.462    1.538    4.615    0.000    2.154    3.692 
#    5.538    0.000    0.000    0.000    0.000    0.000 
#    0.000    0.000    0.000    0.000    0.000    0.000 
#
# Total GULP energy -144856.373603 kJ/mol
# GULP energy per Si atom -5571.398985 kJ/mol
# Density = 1.949810 g / cm^3
# Si number density = 19.542577 Si / 1000 Ang^3
#
#
#
# Elastic Constant Matrix: (Units=GPa)
#
#
# Indices 1 2 3 4 5 6 
#
# 1 108.8156 43.0200 36.0922 0.0000 0.0000 0.0000
# 2 43.0200 28.7625 3.8242 0.0000 0.0000 0.0000
# 3 36.0922 3.8242 57.5045 0.0000 0.0000 0.0000
# 4 0.0000 0.0000 0.0000 -0.1546 0.0000 0.0000
# 5 0.0000 0.0000 0.0000 0.0000 32.2137 0.0000
# 6 0.0000 0.0000 0.0000 0.0000 0.0000 28.4022
#
#
#
# Elastic Compliance Matrix: (Units=1/GPa)
#
#
# Indices 1 2 3 4 5 6 
#
# 1 0.035354 -0.050374 -0.018840 0.000000 0.000000 0.000000
# 2 -0.050374 0.106852 0.024511 0.000000 0.000000 0.000000
# 3 -0.018840 0.024511 0.027584 0.000000 0.000000 0.000000
# 4 0.000000 0.000000 0.000000 -6.467531 0.000000 0.000000
# 5 0.000000 0.000000 0.000000 0.000000 0.031043 0.000000
# 6 0.000000 0.000000 0.000000 0.000000 0.000000 0.035209
#
#
# Mechanical properties :
#
#
# Convention : Reuss Voigt Hill
#
# Bulk Modulus (GPa) = 12.44005 40.10617 26.27311
# Shear Modulus (GPa) = -0.81762 19.56866 9.37552
#
# Velocity S-wave (km/s) = -0.64752 3.16782 2.19269
# Velocity P-wave (km/s) = 2.41255 5.82642 4.45912
#
# Compressibility (1/GPa) = 0.08038550
#
# Stress axis : x y z
#
# Youngs Moduli (GPa) = 28.28558 9.35871 36.25237
#
# Poissons Ratio (x) = 0.47143 0.68298
# Poissons Ratio (y) = 1.42485 -0.88857
# Poissons Ratio (z) = 0.53289 -0.22939
#
# Static dielectric constant tensor:
#      x y z
#    x 1.667180 0.000000 0.000000 
#    y 0.000000 1.705950 0.000000 
#    z 0.000000 0.000000 1.711450 
# 
# From -- ./inp_files/30115.got.cif
#   From: 2010.05.17/outbox.cif.g08.bks.cpg/sg20_16_cif.got.tgz:30115.got - 2010.06.03 22:52:26.
