data_PCOD9319358
_publ_section_title
;
Structure prediction by ZEFSAII (Michael W. Deem and Ramdas Pophale) SiO2 
 PCOD9319358
Probable space group: C 2 2 21
;
_chemical_formula_sum "Si O2"
_cell_formula_units_Z 48
_cell_length_a 8.971732
_cell_length_b 18.479444
_cell_length_c 13.323306
_cell_angle_alpha 90.000000
_cell_angle_beta 90.000000
_cell_angle_gamma 90.000000
_cell_volume 2208.905797
_symmetry_space_group_name_H-M "C 2 2 21"
_symmetry_group_IT_number 20
_symmetry_cell_setting 'orthorhombic'
loop_
_space_group_symop_operation_xyz
x,y,z
-x,-y,1/2+z
x,-y,-z
-x,y,1/2-z
1/2+x,1/2+y,z
1/2-x,1/2-y,1/2+z
1/2+x,1/2-y,-z
1/2-x,1/2+y,1/2-z
loop_
_atom_site_type_symbol
_atom_site_label
_atom_site_fract_x
_atom_site_fract_y
_atom_site_fract_z
Si Si1 0.553610 0.501079 0.390726
Si Si2 0.569663 0.289578 0.359061
Si Si3 0.780314 0.601259 0.705401
Si Si4 0.000000 0.869565 0.750000
Si Si5 0.196127 0.635265 0.355777
Si Si6 0.813483 0.886505 0.424037
Si Si7 0.000000 0.512455 0.250000
O O1 0.628283 0.500000 0.500000
O O2 0.640393 0.450946 0.313879
O O3 0.543556 0.579328 0.343625
O O4 0.395494 0.462702 0.406785
O O5 0.500000 0.305477 0.250000
O O6 0.730856 0.329704 0.360750
O O7 0.588451 0.204342 0.365489
O O8 0.448161 0.327411 0.429923
O O9 0.783592 0.624819 0.822760
O O10 0.913329 0.545974 0.680431
O O11 0.157490 0.838475 0.791308
O O12 0.234464 0.614902 0.469822
O O13 0.117777 0.566502 0.302423
#
# Coordination Sequence:
#
# PCOD9319358 Si02
#       7
#     8   8   8   4   8   8   4
#     4  11  18  36  65  95 125 176 232 272 338 433
#     4   9  21  46  68  92 139 187 229 286 350 432
#     4  10  22  43  64  94 137 182 221 281 359 421
#     4  12  22  37  65  98 138 176 228 288 364 421
#     4  12  24  43  69 107 141 180 238 305 354 408
#     4  10  21  41  71  89 131 192 232 266 355 439
#     4  12  24  41  69 110 140 172 232 316 348 395
#
# _framework density 21.730215999999999
#
# number of rings (size 3 to 8) (size 9 to 14) (size 15 to 20)
#    0.000    1.333    5.833    1.000    0.000    0.667 
#   12.000    1.667    0.000    0.000    0.000    0.000 
#    0.000    0.000    0.000    0.000    0.000    0.000 
#
# Total GULP energy -133684.606190 kJ/mol
# GULP energy per Si atom -5570.191925 kJ/mol
# Density = 2.168076 g / cm^3
# Si number density = 21.730216 Si / 1000 Ang^3
#
#
#
# Elastic Constant Matrix: (Units=GPa)
#
#
# Indices 1 2 3 4 5 6 
#
# 1 57.8378 24.9299 22.6360 0.0000 0.0000 0.0000
# 2 24.9299 83.2017 8.3935 0.0000 0.0000 0.0000
# 3 22.6360 8.3935 85.9418 0.0000 0.0000 0.0000
# 4 0.0000 0.0000 0.0000 17.8369 0.0000 0.0000
# 5 0.0000 0.0000 0.0000 0.0000 19.7774 0.0000
# 6 0.0000 0.0000 0.0000 0.0000 0.0000 24.6823
#
#
#
# Elastic Compliance Matrix: (Units=1/GPa)
#
#
# Indices 1 2 3 4 5 6 
#
# 1 0.021925 -0.006046 -0.005184 0.000000 0.000000 0.000000
# 2 -0.006046 0.013806 0.000244 0.000000 0.000000 0.000000
# 3 -0.005184 0.000244 0.012977 0.000000 0.000000 0.000000
# 4 0.000000 0.000000 0.000000 0.056064 0.000000 0.000000
# 5 0.000000 0.000000 0.000000 0.000000 0.050563 0.000000
# 6 0.000000 0.000000 0.000000 0.000000 0.000000 0.040515
#
#
# Mechanical properties :
#
#
# Convention : Reuss Voigt Hill
#
# Bulk Modulus (GPa) = 37.40352 37.65554 37.52953
# Shear Modulus (GPa) = 22.05228 23.86080 22.95654
#
# Velocity S-wave (km/s) = 3.18908 3.31727 3.25381
# Velocity P-wave (km/s) = 5.55071 5.66027 5.60576
#
# Compressibility (1/GPa) = 0.02673545
#
# Stress axis : x y z
#
# Youngs Moduli (GPa) = 45.61037 72.43207 77.05710
#
# Poissons Ratio (x) = 0.43795 0.39948
# Poissons Ratio (y) = 0.27578 -0.01882
# Poissons Ratio (z) = 0.23645 -0.01769
#
# Static dielectric constant tensor:
#      x y z
#    x 1.912290 0.000000 0.000000 
#    y 0.000000 1.806220 0.000000 
#    z 0.000000 0.000000 1.835100 
# 
# From -- ./inp_files/19051.got.cif
#   From: 2010.05.17/outbox.cif.g08.bks.cpg/sg20_10_cif.got.tgz:19051.got - 2010.06.03 22:52:26.
