data_PCOD9319273
_publ_section_title
;
Structure prediction by ZEFSAII (Michael W. Deem and Ramdas Pophale) SiO2 
 PCOD9319273
Probable space group: C 2 2 21
;
_chemical_formula_sum "Si O2"
_cell_formula_units_Z 52
_cell_length_a 11.213085
_cell_length_b 9.099487
_cell_length_c 26.015562
_cell_angle_alpha 90.000000
_cell_angle_beta 90.000000
_cell_angle_gamma 90.000000
_cell_volume 2654.454193
_symmetry_space_group_name_H-M "C 2 2 21"
_symmetry_group_IT_number 20
_symmetry_cell_setting 'orthorhombic'
loop_
_space_group_symop_operation_xyz
x,y,z
-x,-y,1/2+z
x,-y,-z
-x,y,1/2-z
1/2+x,1/2+y,z
1/2-x,1/2-y,1/2+z
1/2+x,1/2-y,-z
1/2-x,1/2+y,1/2-z
loop_
_atom_site_type_symbol
_atom_site_label
_atom_site_fract_x
_atom_site_fract_y
_atom_site_fract_z
Si Si1 0.950328 0.619401 0.638943
Si Si2 0.072681 0.500000 0.500000
Si Si3 0.705655 0.718584 0.220972
Si Si4 0.312616 0.177071 0.908986
Si Si5 0.159867 0.447876 0.946867
Si Si6 0.184342 0.895344 0.189630
Si Si7 0.029130 0.675299 0.307928
O O1 0.888361 0.692628 0.687418
O O2 0.858938 0.580644 0.593121
O O3 0.059689 0.713178 0.616812
O O4 0.001563 0.460066 0.655236
O O5 0.152612 0.408899 0.460702
O O6 0.975591 0.407640 0.533972
O O7 0.728996 0.790075 0.276551
O O8 0.671907 0.547071 0.220361
O O9 0.834528 0.724366 0.192982
O O10 0.232101 0.317164 0.921458
O O11 0.241719 0.082950 0.866276
O O12 0.219777 0.500000 0.000000
O O13 0.060637 0.809613 0.183268
O O14 0.000000 0.621759 0.250000
#
# Coordination Sequence:
#
# PCOD9319273 Si02
#       7
#     8   4   8   8   8   8   8
#     4  11  22  40  67  90 126 169 207 256 317 372
#     4   8  22  42  64  88 122 164 204 274 318 374
#     4  11  24  40  60  95 134 169 211 251 310 381
#     4  11  21  41  70  91 122 166 218 258 326 375
#     4   9  21  42  62  90 125 160 205 267 319 371
#     4  11  23  40  64  96 131 173 210 258 313 381
#     4  10  21  41  61  90 130 172 202 253 308 364
#
# _framework density 19.589715999999999
#
# number of rings (size 3 to 8) (size 9 to 14) (size 15 to 20)
#    0.462    1.231    3.077    1.846    0.000    2.462 
#    5.538    1.538    0.000    0.000    0.000    0.000 
#    0.000    0.000    0.000    0.000    0.000    0.000 
#
# Total GULP energy -145023.130736 kJ/mol
# GULP energy per Si atom -5577.812721 kJ/mol
# Density = 1.954513 g / cm^3
# Si number density = 19.589716 Si / 1000 Ang^3
#
#
#
# Elastic Constant Matrix: (Units=GPa)
#
#
# Indices 1 2 3 4 5 6 
#
# 1 63.4737 32.6385 23.9612 0.0000 0.0000 0.0000
# 2 32.6385 73.1812 19.4787 0.0000 0.0000 0.0000
# 3 23.9612 19.4787 56.4194 0.0000 0.0000 0.0000
# 4 0.0000 0.0000 0.0000 27.7689 0.0000 0.0000
# 5 0.0000 0.0000 0.0000 0.0000 1.6496 0.0000
# 6 0.0000 0.0000 0.0000 0.0000 0.0000 30.3059
#
#
#
# Elastic Compliance Matrix: (Units=1/GPa)
#
#
# Indices 1 2 3 4 5 6 
#
# 1 0.022541 -0.008265 -0.006720 0.000000 0.000000 0.000000
# 2 -0.008265 0.018078 -0.002731 0.000000 0.000000 0.000000
# 3 -0.006720 -0.002731 0.021521 0.000000 0.000000 0.000000
# 4 0.000000 0.000000 0.000000 0.036012 0.000000 0.000000
# 5 0.000000 0.000000 0.000000 0.000000 0.606195 0.000000
# 6 0.000000 0.000000 0.000000 0.000000 0.000000 0.032997
#
#
# Mechanical properties :
#
#
# Convention : Reuss Voigt Hill
#
# Bulk Modulus (GPa) = 37.44119 38.35900 37.90010
# Shear Modulus (GPa) = 6.39650 19.74462 13.07056
#
# Velocity S-wave (km/s) = 1.80896 3.17820 2.58585
# Velocity P-wave (km/s) = 4.84946 5.75253 5.32019
#
# Compressibility (1/GPa) = 0.02670855
#
# Stress axis : x y z
#
# Youngs Moduli (GPa) = 44.36384 55.31694 46.46568
#
# Poissons Ratio (x) = 0.45717 0.31224
# Poissons Ratio (y) = 0.36665 0.12691
# Poissons Ratio (z) = 0.29811 0.15109
#
# Static dielectric constant tensor:
#      x y z
#    x 1.710380 0.000000 0.000000 
#    y 0.000000 1.667600 0.000000 
#    z 0.000000 0.000000 1.709240 
# 
# From -- ./inp_files/30278.got.cif
#   From: 2010.05.17/outbox.cif.g08.bks.cpg/sg20_16_cif.got.tgz:30278.got - 2010.06.03 22:52:26.
