data_PCOD9319547
_publ_section_title
;
Structure prediction by ZEFSAII (Michael W. Deem and Ramdas Pophale) SiO2 
 PCOD9319547
Probable space group: C 2 2 21
;
_chemical_formula_sum "Si O2"
_cell_formula_units_Z 48
_cell_length_a 10.654663
_cell_length_b 12.820239
_cell_length_c 14.156191
_cell_angle_alpha 90.000000
_cell_angle_beta 90.000000
_cell_angle_gamma 90.000000
_cell_volume 1933.669526
_symmetry_space_group_name_H-M "C 2 2 21"
_symmetry_group_IT_number 20
_symmetry_cell_setting 'orthorhombic'
loop_
_space_group_symop_operation_xyz
x,y,z
-x,-y,1/2+z
x,-y,-z
-x,y,1/2-z
1/2+x,1/2+y,z
1/2-x,1/2-y,1/2+z
1/2+x,1/2-y,-z
1/2-x,1/2+y,1/2-z
loop_
_atom_site_type_symbol
_atom_site_label
_atom_site_fract_x
_atom_site_fract_y
_atom_site_fract_z
Si Si1 0.723628 0.605924 0.035246
Si Si2 0.263060 0.486817 0.280440
Si Si3 0.137916 0.217136 0.761140
Si Si4 0.176812 0.142586 0.375677
Si Si5 0.209217 0.668872 0.930551
Si Si6 0.939317 0.359164 0.118076
O O1 0.746490 0.579694 0.144591
O O2 0.662826 0.718349 0.029948
O O3 0.658089 0.500000 0.000000
O O4 0.850812 0.617917 0.973162
O O5 0.361246 0.396888 0.309393
O O6 0.317377 0.536712 0.184527
O O7 0.131693 0.423496 0.298715
O O8 0.208435 0.295203 0.828744
O O9 0.209543 0.193814 0.662680
O O10 0.000000 0.257634 0.750000
O O11 0.205946 0.124537 0.485377
O O12 0.071172 0.233588 0.362223
O O13 0.081406 0.609722 0.904623
#
# Coordination Sequence:
#
# PCOD9319547 Si02
#       6
#     8   8   8   8   8   8
#     4   9  19  42  67  98 131 186 235 286 355 426
#     4  10  21  45  67 102 137 185 240 282 365 431
#     4  11  26  46  69 100 144 186 234 299 363 432
#     4  10  23  42  72 102 135 190 239 293 366 426
#     4  11  23  44  70 105 147 181 244 305 365 430
#     4   9  22  42  69 102 142 185 237 304 358 421
#
# _framework density 24.823269
#
# number of rings (size 3 to 8) (size 9 to 14) (size 15 to 20)
#    0.000    2.000    1.667    1.000    4.667    4.667 
#   15.000    0.000    0.000    0.000    0.000    0.000 
#    0.000    0.000    0.000    0.000    0.000    0.000 
#
# Total GULP energy -133892.605815 kJ/mol
# GULP energy per Si atom -5578.858576 kJ/mol
# Density = 2.476677 g / cm^3
# Si number density = 24.823269 Si / 1000 Ang^3
#
#
#
# Elastic Constant Matrix: (Units=GPa)
#
#
# Indices 1 2 3 4 5 6 
#
# 1 30.8262 -41.5086 -11.8225 0.0000 0.0000 0.0000
# 2 -41.5086 97.5390 -9.9305 0.0000 0.0000 0.0000
# 3 -11.8225 -9.9305 116.2137 0.0000 0.0000 0.0000
# 4 0.0000 0.0000 0.0000 50.3360 0.0000 0.0000
# 5 0.0000 0.0000 0.0000 0.0000 29.2447 0.0000
# 6 0.0000 0.0000 0.0000 0.0000 0.0000 -7.4370
#
#
#
# Elastic Compliance Matrix: (Units=1/GPa)
#
#
# Indices 1 2 3 4 5 6 
#
# 1 0.091524 0.040247 0.012750 0.000000 0.000000 0.000000
# 2 0.040247 0.028041 0.006490 0.000000 0.000000 0.000000
# 3 0.012750 0.006490 0.010457 0.000000 0.000000 0.000000
# 4 0.000000 0.000000 0.000000 0.019866 0.000000 0.000000
# 5 0.000000 0.000000 0.000000 0.000000 0.034194 0.000000
# 6 0.000000 0.000000 0.000000 0.000000 0.000000 -0.134463
#
#
# Mechanical properties :
#
#
# Convention : Reuss Voigt Hill
#
# Bulk Modulus (GPa) = 4.01614 13.11728 8.56671
# Shear Modulus (GPa) = 366.49686 34.95145 200.72415
#
# Velocity S-wave (km/s) = 12.16400 3.75642 9.00205
# Velocity P-wave (km/s) = 14.10338 4.91019 10.55972
#
# Compressibility (1/GPa) = 0.24899532
#
# Stress axis : x y z
#
# Youngs Moduli (GPa) = 10.92612 35.66264 95.63422
#
# Poissons Ratio (x) = -1.43531 -1.21933
# Poissons Ratio (y) = -0.43974 -0.62071
# Poissons Ratio (z) = -0.13931 -0.23147
#
# Static dielectric constant tensor:
#      x y z
#    x 1.929640 0.000000 0.000000 
#    y 0.000000 2.020820 0.000000 
#    z 0.000000 0.000000 2.086680 
# 
# From -- ./inp_files/19915.got.cif
#   From: 2010.05.17/outbox.cif.g08.bks.cpg/sg20_10_cif.got.tgz:19915.got - 2010.06.03 22:52:26.
