data_PCOD9319261
_publ_section_title
;
Structure prediction by ZEFSAII (Michael W. Deem and Ramdas Pophale) SiO2 
 PCOD9319261
Probable space group: C 2 2 21
;
_chemical_formula_sum "Si O2"
_cell_formula_units_Z 40
_cell_length_a 15.286670
_cell_length_b 9.055743
_cell_length_c 11.350090
_cell_angle_alpha 90.000000
_cell_angle_beta 90.000000
_cell_angle_gamma 90.000000
_cell_volume 1571.217416
_symmetry_space_group_name_H-M "C 2 2 21"
_symmetry_group_IT_number 20
_symmetry_cell_setting 'orthorhombic'
loop_
_space_group_symop_operation_xyz
x,y,z
-x,-y,1/2+z
x,-y,-z
-x,y,1/2-z
1/2+x,1/2+y,z
1/2-x,1/2-y,1/2+z
1/2+x,1/2-y,-z
1/2-x,1/2+y,1/2-z
loop_
_atom_site_type_symbol
_atom_site_label
_atom_site_fract_x
_atom_site_fract_y
_atom_site_fract_z
Si Si1 0.691407 0.044125 0.361461
Si Si2 0.600795 0.816742 0.231640
Si Si3 0.111094 0.089737 0.404006
Si Si4 0.074913 0.827957 0.004497
Si Si5 0.848432 0.844878 0.254740
O O1 0.686473 0.218476 0.333640
O O2 0.684134 0.000000 0.500000
O O3 0.612343 0.978048 0.282863
O O4 0.772415 0.954866 0.303027
O O5 0.500000 0.771932 0.250000
O O6 0.652857 0.716661 0.326646
O O7 0.618268 0.770791 0.097918
O O8 0.028210 0.158801 0.473010
O O9 0.166950 0.000000 0.500000
O O10 0.088451 0.960952 0.311493
O O11 0.102825 0.776126 0.132758
O O12 0.104155 0.000000 0.000000
#
# Coordination Sequence:
#
# PCOD9319261 Si02
#       5
#     8   8   8   8   8
#     4  12  29  50  72 107 157 201 254 317 378 458
#     4  10  22  47  70 105 152 189 244 318 373 446
#     4  10  21  40  73 108 143 190 241 306 369 445
#     4  10  21  41  76 108 145 187 249 308 370 451
#     4  12  26  46  76 110 151 205 253 308 385 449
#
# _framework density 25.457967
#
# number of rings (size 3 to 8) (size 9 to 14) (size 15 to 20)
#    0.000    1.200    2.000    3.000    5.600    0.800 
#   14.400    0.000    0.000    0.000    0.000    0.000 
#    0.000    0.000    0.000    0.000    0.000    0.000 
#
# Total GULP energy -111616.325771 kJ/mol
# GULP energy per Si atom -5580.816289 kJ/mol
# Density = 2.540002 g / cm^3
# Si number density = 25.457967 Si / 1000 Ang^3
#
#
#
# Elastic Constant Matrix: (Units=GPa)
#
#
# Indices 1 2 3 4 5 6 
#
# 1 57.5604 17.8070 30.2842 0.0000 0.0000 0.0000
# 2 17.8070 121.9064 39.9945 0.0000 0.0000 0.0000
# 3 30.2842 39.9945 140.8496 0.0000 0.0000 0.0000
# 4 0.0000 0.0000 0.0000 54.6213 0.0000 0.0000
# 5 0.0000 0.0000 0.0000 0.0000 30.3122 0.0000
# 6 0.0000 0.0000 0.0000 0.0000 0.0000 28.8427
#
#
#
# Elastic Compliance Matrix: (Units=1/GPa)
#
#
# Indices 1 2 3 4 5 6 
#
# 1 0.019888 -0.001656 -0.003806 0.000000 0.000000 0.000000
# 2 -0.001656 0.009184 -0.002252 0.000000 0.000000 0.000000
# 3 -0.003806 -0.002252 0.008557 0.000000 0.000000 0.000000
# 4 0.000000 0.000000 0.000000 0.018308 0.000000 0.000000
# 5 0.000000 0.000000 0.000000 0.000000 0.032990 0.000000
# 6 0.000000 0.000000 0.000000 0.000000 0.000000 0.034671
#
#
# Mechanical properties :
#
#
# Convention : Reuss Voigt Hill
#
# Bulk Modulus (GPa) = 45.04236 55.16533 50.10384
# Shear Modulus (GPa) = 34.14704 38.23728 36.19216
#
# Velocity S-wave (km/s) = 3.66636 3.87974 3.77456
# Velocity P-wave (km/s) = 5.97111 6.46421 6.22255
#
# Compressibility (1/GPa) = 0.02220132
#
# Stress axis : x y z
#
# Youngs Moduli (GPa) = 50.28204 108.88909 116.85822
#
# Poissons Ratio (x) = 0.18037 0.44473
# Poissons Ratio (y) = 0.08329 0.26311
# Poissons Ratio (z) = 0.19136 0.24517
#
# Static dielectric constant tensor:
#      x y z
#    x 2.106250 0.000000 0.000000 
#    y 0.000000 2.039580 0.000000 
#    z 0.000000 0.000000 2.054940 
# 
# From -- ./inp_files/15552.got.cif
#   From: 2010.05.17/outbox.cif.g08.bks.cpg/sg20_8_cif.got.tgz:15552.got - 2010.06.03 22:52:26.
