data_PCOD9319904
_publ_section_title
;
Structure prediction by ZEFSAII (Michael W. Deem and Ramdas Pophale) SiO2 
 PCOD9319904
Probable space group: C 2 2 21
;
_chemical_formula_sum "Si O2"
_cell_formula_units_Z 32
_cell_length_a 11.216023
_cell_length_b 14.483462
_cell_length_c 7.788478
_cell_angle_alpha 90.000000
_cell_angle_beta 90.000000
_cell_angle_gamma 90.000000
_cell_volume 1265.213662
_symmetry_space_group_name_H-M "C 2 2 21"
_symmetry_group_IT_number 20
_symmetry_cell_setting 'orthorhombic'
loop_
_space_group_symop_operation_xyz
x,y,z
-x,-y,1/2+z
x,-y,-z
-x,y,1/2-z
1/2+x,1/2+y,z
1/2-x,1/2-y,1/2+z
1/2+x,1/2-y,-z
1/2-x,1/2+y,1/2-z
loop_
_atom_site_type_symbol
_atom_site_label
_atom_site_fract_x
_atom_site_fract_y
_atom_site_fract_z
Si Si1 0.736737 0.069095 0.624043
Si Si2 0.137312 0.575830 0.146630
Si Si3 0.374663 0.603130 0.975043
Si Si4 0.461774 0.204624 0.949304
O O1 0.811212 0.102854 0.788289
O O2 0.668506 0.156096 0.542621
O O3 0.808435 0.000000 0.500000
O O4 0.638077 0.992604 0.690377
O O5 0.125493 0.500000 0.000000
O O6 0.270698 0.614783 0.119358
O O7 0.046427 0.653051 0.084494
O O8 0.422323 0.500000 0.000000
O O9 0.460027 0.688599 0.000383
O O10 0.500000 0.193594 0.750000
#
# Coordination Sequence:
#
# PCOD9319904 Si02
#       4
#     8   8   8   8
#     4  10  22  40  71 104 139 186 229 301 361 410
#     4   9  19  41  67 105 139 170 240 287 347 422
#     4   9  22  42  67  99 141 183 238 285 345 433
#     4  12  21  38  78 106 139 187 239 299 353 423
#
# _framework density 25.292169999999999
#
# number of rings (size 3 to 8) (size 9 to 14) (size 15 to 20)
#    0.000    2.500    5.000    0.750    0.000    4.000 
#    0.000    2.500   16.500    0.000    0.000    0.000 
#    0.000    0.000    0.000    0.000    0.000    0.000 
#
# Total GULP energy -89365.031338 kJ/mol
# GULP energy per Si atom -5585.314459 kJ/mol
# Density = 2.523460 g / cm^3
# Si number density = 25.292170 Si / 1000 Ang^3
#
#
#
# Elastic Constant Matrix: (Units=GPa)
#
#
# Indices 1 2 3 4 5 6 
#
# 1 56.9698 24.4727 0.2628 0.0000 0.0000 0.0000
# 2 24.4727 162.1679 6.5750 0.0000 0.0000 0.0000
# 3 0.2628 6.5750 72.2726 0.0000 0.0000 0.0000
# 4 0.0000 0.0000 0.0000 33.4929 0.0000 0.0000
# 5 0.0000 0.0000 0.0000 0.0000 3.9013 0.0000
# 6 0.0000 0.0000 0.0000 0.0000 0.0000 29.7610
#
#
#
# Elastic Compliance Matrix: (Units=1/GPa)
#
#
# Indices 1 2 3 4 5 6 
#
# 1 0.018773 -0.002841 0.000190 0.000000 0.000000 0.000000
# 2 -0.002841 0.006619 -0.000592 0.000000 0.000000 0.000000
# 3 0.000190 -0.000592 0.013890 0.000000 0.000000 0.000000
# 4 0.000000 0.000000 0.000000 0.029857 0.000000 0.000000
# 5 0.000000 0.000000 0.000000 0.000000 0.256323 0.000000
# 6 0.000000 0.000000 0.000000 0.000000 0.000000 0.033601
#
#
# Mechanical properties :
#
#
# Convention : Reuss Voigt Hill
#
# Bulk Modulus (GPa) = 30.49092 39.33681 34.91386
# Shear Modulus (GPa) = 13.28096 30.77105 22.02601
#
# Velocity S-wave (km/s) = 2.29400 3.49180 2.95424
# Velocity P-wave (km/s) = 4.37015 5.64301 5.04687
#
# Compressibility (1/GPa) = 0.03279664
#
# Stress axis : x y z
#
# Youngs Moduli (GPa) = 53.26924 151.07735 71.99604
#
# Poissons Ratio (x) = 0.42916 -0.01369
# Poissons Ratio (y) = 0.15132 0.04261
# Poissons Ratio (z) = -0.01013 0.08941
#
# Static dielectric constant tensor:
#      x y z
#    x 2.135980 0.000000 0.000000 
#    y 0.000000 1.941840 0.000000 
#    z 0.000000 0.000000 2.328470 
# 
# From -- ./inp_files/6784.got.cif
#   From: 2010.05.17/outbox.cif.g08.bks.cpg/sg20_4_cif.got.tgz:6784.got - 2010.06.03 22:52:26.
