data_PCOD9319054
_publ_section_title
;
Structure prediction by ZEFSAII (Michael W. Deem and Ramdas Pophale) SiO2 
 PCOD9319054
Probable space group: C 2 2 21
;
_chemical_formula_sum "Si O2"
_cell_formula_units_Z 40
_cell_length_a 16.598135
_cell_length_b 19.016683
_cell_length_c 5.260990
_cell_angle_alpha 90.000000
_cell_angle_beta 90.000000
_cell_angle_gamma 90.000000
_cell_volume 1660.586626
_symmetry_space_group_name_H-M "C 2 2 21"
_symmetry_group_IT_number 20
_symmetry_cell_setting 'orthorhombic'
loop_
_space_group_symop_operation_xyz
x,y,z
-x,-y,1/2+z
x,-y,-z
-x,y,1/2-z
1/2+x,1/2+y,z
1/2-x,1/2-y,1/2+z
1/2+x,1/2-y,-z
1/2-x,1/2+y,1/2-z
loop_
_atom_site_type_symbol
_atom_site_label
_atom_site_fract_x
_atom_site_fract_y
_atom_site_fract_z
Si Si1 0.613025 0.676491 0.199673
Si Si2 0.289116 0.134997 0.254868
Si Si3 0.420474 0.925288 0.369745
Si Si4 0.085345 0.261913 0.676982
Si Si5 0.000000 0.046931 0.250000
Si Si6 0.801807 0.500000 0.000000
O O1 0.705097 0.672524 0.301410
O O2 0.567479 0.713057 0.435266
O O3 0.573173 0.599559 0.176324
O O4 0.611543 0.717206 0.928311
O O5 0.360539 0.119407 0.456451
O O6 0.342689 0.187417 0.084808
O O7 0.259390 0.057069 0.172233
O O8 0.500000 0.891702 0.250000
O O9 0.360828 0.950614 0.154109
O O10 0.446182 0.000000 0.500000
O O11 0.000000 0.297650 0.750000
O O12 0.018257 0.000000 0.500000
#
# Coordination Sequence:
#
# PCOD9319054 Si02
#       6
#     8   8   8   8   4   4
#     4  12  27  52  74 113 151 190 258 316 382 461
#     4  11  28  41  75 105 151 200 249 317 383 443
#     4  10  21  39  62  97 143 195 241 301 360 445
#     4  12  26  49  77 107 146 202 252 309 377 460
#     4  12  26  48  84 110 146 198 250 322 392 452
#     4  10  24  42  64 106 148 188 248 310 368 458
#
# _framework density 24.087872999999998
#
# number of rings (size 3 to 8) (size 9 to 14) (size 15 to 20)
#    0.000    0.800    3.000    2.400    9.800    2.400 
#    0.000    0.000    0.000    0.000    0.000    0.000 
#    0.000    0.000    0.000    0.000    0.000    0.000 
#
# Total GULP energy -111591.593744 kJ/mol
# GULP energy per Si atom -5579.579687 kJ/mol
# Density = 2.403305 g / cm^3
# Si number density = 24.087873 Si / 1000 Ang^3
#
#
#
# Elastic Constant Matrix: (Units=GPa)
#
#
# Indices 1 2 3 4 5 6 
#
# 1 133.2499 28.4613 6.7764 0.0000 0.0000 0.0000
# 2 28.4613 110.0276 40.2036 0.0000 0.0000 0.0000
# 3 6.7764 40.2036 106.2673 0.0000 0.0000 0.0000
# 4 0.0000 0.0000 0.0000 54.9638 0.0000 0.0000
# 5 0.0000 0.0000 0.0000 0.0000 -61.9890 0.0000
# 6 0.0000 0.0000 0.0000 0.0000 0.0000 41.3064
#
#
#
# Elastic Compliance Matrix: (Units=1/GPa)
#
#
# Indices 1 2 3 4 5 6 
#
# 1 0.007953 -0.002172 0.000315 0.000000 0.000000 0.000000
# 2 -0.002172 0.011140 -0.004076 0.000000 0.000000 0.000000
# 3 0.000315 -0.004076 0.010932 0.000000 0.000000 0.000000
# 4 0.000000 0.000000 0.000000 0.018194 0.000000 0.000000
# 5 0.000000 0.000000 0.000000 0.000000 -0.016132 0.000000
# 6 0.000000 0.000000 0.000000 0.000000 0.000000 0.024209
#
#
# Mechanical properties :
#
#
# Convention : Reuss Voigt Hill
#
# Bulk Modulus (GPa) = 55.07273 55.60306 55.33790
# Shear Modulus (GPa) = 67.37146 25.12981 46.25064
#
# Velocity S-wave (km/s) = 5.29431 3.23345 4.38663
# Velocity P-wave (km/s) = 7.76440 6.08883 6.97710
#
# Compressibility (1/GPa) = 0.01815781
#
# Stress axis : x y z
#
# Youngs Moduli (GPa) = 125.74437 89.76794 91.47286
#
# Poissons Ratio (x) = 0.19499 -0.02878
# Poissons Ratio (y) = 0.27313 0.37284
# Poissons Ratio (z) = -0.03956 0.36589
#
# Static dielectric constant tensor:
#      x y z
#    x 1.862100 0.000000 0.000000 
#    y 0.000000 9.541570 0.000000 
#    z 0.000000 0.000000 1.765620 
# 
# From -- ./inp_files/2529.got.cif
#   From: 2010.05.17/outbox.cif.g08.bks.cpg/sg20_2_cif.got.tgz:2529.got - 2010.06.03 22:52:26.
