data_PCOD9319087
_publ_section_title
;
Structure prediction by ZEFSAII (Michael W. Deem and Ramdas Pophale) SiO2 
 PCOD9319087
Probable space group: C 2 2 21
;
_chemical_formula_sum "Si O2"
_cell_formula_units_Z 60
_cell_length_a 26.231228
_cell_length_b 13.630655
_cell_length_c 7.497315
_cell_angle_alpha 90.000000
_cell_angle_beta 90.000000
_cell_angle_gamma 90.000000
_cell_volume 2680.656125
_symmetry_space_group_name_H-M "C 2 2 21"
_symmetry_group_IT_number 20
_symmetry_cell_setting 'orthorhombic'
loop_
_space_group_symop_operation_xyz
x,y,z
-x,-y,1/2+z
x,-y,-z
-x,y,1/2-z
1/2+x,1/2+y,z
1/2-x,1/2-y,1/2+z
1/2+x,1/2-y,-z
1/2-x,1/2+y,1/2-z
loop_
_atom_site_type_symbol
_atom_site_label
_atom_site_fract_x
_atom_site_fract_y
_atom_site_fract_z
Si Si1 0.601777 0.263303 0.960037
Si Si2 0.082322 0.730146 0.531294
Si Si3 0.033898 0.916322 0.598494
Si Si4 0.704040 0.500000 0.000000
Si Si5 0.785159 0.206626 0.381019
Si Si6 0.487360 0.112912 0.539319
Si Si7 0.183152 0.204154 0.524315
Si Si8 0.382437 0.437726 0.259599
O O1 0.590899 0.258497 0.743682
O O2 0.663475 0.248137 0.970775
O O3 0.559688 0.182697 0.019056
O O4 0.597225 0.360930 0.086497
O O5 0.054283 0.831294 0.471815
O O6 0.139533 0.711206 0.466079
O O7 0.042475 0.648578 0.469126
O O8 0.000000 0.868447 0.750000
O O9 0.001494 0.000000 0.500000
O O10 0.077097 0.984064 0.687642
O O11 0.730435 0.394789 0.981249
O O12 0.663783 0.500436 0.840951
O O13 0.735498 0.274029 0.377351
O O14 0.800822 0.187039 0.178143
O O15 0.500000 0.123144 0.750000
O O16 0.476305 0.000000 0.500000
O O17 0.149437 0.118719 0.607693
#
# Coordination Sequence:
#
# PCOD9319087 Si02
#       8
#     8   8   8   4   8   8   8   8
#     4   9  20  38  65  89 128 171 214 267 333 387
#     4  10  22  41  63  89 133 174 209 271 328 395
#     4  12  25  36  58  97 133 170 210 253 325 408
#     4  10  22  36  62  94 124 168 210 264 324 392
#     4  10  21  39  65  92 128 174 217 280 331 394
#     4  10  22  42  67  91 127 175 223 278 330 387
#     4  11  22  41  65  91 129 173 220 269 342 394
#     4  11  22  37  62  92 131 172 211 264 332 407
#
# _framework density 22.382579
#
# number of rings (size 3 to 8) (size 9 to 14) (size 15 to 20)
#    0.000    1.600    1.333    5.200    4.667    1.067 
#    1.200    0.000   17.600    0.000    0.000    0.000 
#    0.000    0.000    0.000    0.000    0.000    0.000 
#
# Total GULP energy -167032.958460 kJ/mol
# GULP energy per Si atom -5567.765282 kJ/mol
# Density = 2.233164 g / cm^3
# Si number density = 22.382579 Si / 1000 Ang^3
#
#
#
# Elastic Constant Matrix: (Units=GPa)
#
#
# Indices 1 2 3 4 5 6 
#
# 1 139.2452 42.4810 17.0997 0.0000 0.0000 0.0000
# 2 42.4810 77.9313 -1.1495 0.0000 0.0000 0.0000
# 3 17.0997 -1.1495 49.5635 0.0000 0.0000 0.0000
# 4 0.0000 0.0000 0.0000 25.4543 0.0000 0.0000
# 5 0.0000 0.0000 0.0000 0.0000 29.3638 0.0000
# 6 0.0000 0.0000 0.0000 0.0000 0.0000 25.5322
#
#
#
# Elastic Compliance Matrix: (Units=1/GPa)
#
#
# Indices 1 2 3 4 5 6 
#
# 1 0.009112 -0.005015 -0.003260 0.000000 0.000000 0.000000
# 2 -0.005015 0.015596 0.002092 0.000000 0.000000 0.000000
# 3 -0.003260 0.002092 0.021349 0.000000 0.000000 0.000000
# 4 0.000000 0.000000 0.000000 0.039286 0.000000 0.000000
# 5 0.000000 0.000000 0.000000 0.000000 0.034055 0.000000
# 6 0.000000 0.000000 0.000000 0.000000 0.000000 0.039166
#
#
# Mechanical properties :
#
#
# Convention : Reuss Voigt Hill
#
# Bulk Modulus (GPa) = 29.68107 42.62251 36.15179
# Shear Modulus (GPa) = 27.44806 29.95732 28.70269
#
# Velocity S-wave (km/s) = 3.50568 3.66241 3.58490
# Velocity P-wave (km/s) = 5.44756 6.08017 5.77254
#
# Compressibility (1/GPa) = 0.03369151
#
# Stress axis : x y z
#
# Youngs Moduli (GPa) = 109.74647 64.11723 46.83978
#
# Poissons Ratio (x) = 0.32155 0.15270
# Poissons Ratio (y) = 0.55039 -0.09799
# Poissons Ratio (z) = 0.35777 -0.13413
#
# Static dielectric constant tensor:
#      x y z
#    x 1.827230 0.000000 0.000000 
#    y 0.000000 1.931390 0.000000 
#    z 0.000000 0.000000 2.096580 
# 
# From -- ./inp_files/10754.got.cif
#   From: 2010.05.17/outbox.cif.g08.bks.cpg/sg20_6_cif.got.tgz:10754.got - 2010.06.03 22:52:26.
