data_PCOD9319690
_publ_section_title
;
Structure prediction by ZEFSAII (Michael W. Deem and Ramdas Pophale) SiO2 
 PCOD9319690
Probable space group: C 2 2 21
;
_chemical_formula_sum "Si O2"
_cell_formula_units_Z 56
_cell_length_a 18.287609
_cell_length_b 8.687841
_cell_length_c 16.466228
_cell_angle_alpha 90.000000
_cell_angle_beta 90.000000
_cell_angle_gamma 90.000000
_cell_volume 2616.151658
_symmetry_space_group_name_H-M "C 2 2 21"
_symmetry_group_IT_number 20
_symmetry_cell_setting 'orthorhombic'
loop_
_space_group_symop_operation_xyz
x,y,z
-x,-y,1/2+z
x,-y,-z
-x,y,1/2-z
1/2+x,1/2+y,z
1/2-x,1/2-y,1/2+z
1/2+x,1/2-y,-z
1/2-x,1/2+y,1/2-z
loop_
_atom_site_type_symbol
_atom_site_label
_atom_site_fract_x
_atom_site_fract_y
_atom_site_fract_z
Si Si1 0.667972 0.722445 0.074653
Si Si2 0.009736 0.169839 0.004272
Si Si3 0.706672 0.025492 0.614894
Si Si4 0.538272 0.174420 0.171253
Si Si5 0.547390 0.053702 0.582577
Si Si6 0.230218 0.869084 0.554381
Si Si7 0.184317 0.506385 0.805113
O O1 0.589074 0.665966 0.047223
O O2 0.726952 0.585439 0.088693
O O3 0.661380 0.832571 0.153107
O O4 0.699372 0.830134 0.002605
O O5 0.956738 0.267282 0.063908
O O6 0.022883 0.232711 0.912004
O O7 0.980394 0.000000 0.000000
O O8 0.625728 0.970772 0.587956
O O9 0.707161 0.195935 0.576906
O O10 0.704865 0.030994 0.712111
O O11 0.500000 0.247755 0.250000
O O12 0.497672 0.010500 0.156823
O O13 0.621746 0.125120 0.186397
O O14 0.507219 0.000000 0.500000
O O15 0.190156 0.000000 0.500000
O O16 0.249399 0.947399 0.639601
#
# Coordination Sequence:
#
# PCOD9319690 Si02
#       7
#     8   8   8   8   8   8   8
#     4  11  22  39  65  95 133 174 232 282 332 415
#     4  11  23  41  68 100 132 179 237 287 334 419
#     4  12  23  40  62  98 137 174 219 288 355 400
#     4  11  21  42  69  99 128 180 229 284 350 422
#     4  10  22  38  64  91 128 174 225 272 336 416
#     4  10  22  38  62  89 124 173 224 270 330 410
#     4  11  22  39  64  98 131 173 225 284 342 411
#
# _framework density 21.405487000000001
#
# number of rings (size 3 to 8) (size 9 to 14) (size 15 to 20)
#    0.000    1.143    4.286    3.000    0.000    0.571 
#    0.000    3.571    0.000    0.000    0.000    0.000 
#    0.000    0.000    0.000    0.000    0.000    0.000 
#
# Total GULP energy -156048.342472 kJ/mol
# GULP energy per Si atom -5573.155088 kJ/mol
# Density = 2.135677 g / cm^3
# Si number density = 21.405487 Si / 1000 Ang^3
#
#
#
# Elastic Constant Matrix: (Units=GPa)
#
#
# Indices 1 2 3 4 5 6 
#
# 1 82.0034 18.0062 26.9993 0.0000 0.0000 0.0000
# 2 18.0062 95.2853 23.0690 0.0000 0.0000 0.0000
# 3 26.9993 23.0690 145.9927 0.0000 0.0000 0.0000
# 4 0.0000 0.0000 0.0000 31.8711 0.0000 0.0000
# 5 0.0000 0.0000 0.0000 0.0000 22.3119 0.0000
# 6 0.0000 0.0000 0.0000 0.0000 0.0000 21.2606
#
#
#
# Elastic Compliance Matrix: (Units=1/GPa)
#
#
# Indices 1 2 3 4 5 6 
#
# 1 0.013342 -0.002000 -0.002151 0.000000 0.000000 0.000000
# 2 -0.002000 0.011212 -0.001402 0.000000 0.000000 0.000000
# 3 -0.002151 -0.001402 0.007469 0.000000 0.000000 0.000000
# 4 0.000000 0.000000 0.000000 0.031376 0.000000 0.000000
# 5 0.000000 0.000000 0.000000 0.000000 0.044819 0.000000
# 6 0.000000 0.000000 0.000000 0.000000 0.000000 0.047035
#
#
# Mechanical properties :
#
#
# Convention : Reuss Voigt Hill
#
# Bulk Modulus (GPa) = 47.80952 51.04782 49.42867
# Shear Modulus (GPa) = 28.84613 32.10251 30.47432
#
# Velocity S-wave (km/s) = 3.67496 3.87684 3.77725
# Velocity P-wave (km/s) = 6.35537 6.62870 6.49347
#
# Compressibility (1/GPa) = 0.02091633
#
# Stress axis : x y z
#
# Youngs Moduli (GPa) = 74.95017 89.18865 133.88643
#
# Poissons Ratio (x) = 0.17842 0.28804
# Poissons Ratio (y) = 0.14993 0.18767
# Poissons Ratio (z) = 0.16124 0.12502
#
# Static dielectric constant tensor:
#      x y z
#    x 1.794770 0.000000 0.000000 
#    y 0.000000 1.896920 0.000000 
#    z 0.000000 0.000000 1.772560 
# 
# From -- ./inp_files/19193.got.cif
#   From: 2010.05.17/outbox.cif.g08.bks.cpg/sg20_10_cif.got.tgz:19193.got - 2010.06.03 22:52:26.
