data_PCOD9319992
_publ_section_title
;
Structure prediction by ZEFSAII (Michael W. Deem and Ramdas Pophale) SiO2 
 PCOD9319992
Probable space group: C 2 2 21
;
_chemical_formula_sum "Si O2"
_cell_formula_units_Z 52
_cell_length_a 24.618373
_cell_length_b 7.927865
_cell_length_c 11.497736
_cell_angle_alpha 90.000000
_cell_angle_beta 90.000000
_cell_angle_gamma 90.000000
_cell_volume 2244.026216
_symmetry_space_group_name_H-M "C 2 2 21"
_symmetry_group_IT_number 20
_symmetry_cell_setting 'orthorhombic'
loop_
_space_group_symop_operation_xyz
x,y,z
-x,-y,1/2+z
x,-y,-z
-x,y,1/2-z
1/2+x,1/2+y,z
1/2-x,1/2-y,1/2+z
1/2+x,1/2-y,-z
1/2-x,1/2+y,1/2-z
loop_
_atom_site_type_symbol
_atom_site_label
_atom_site_fract_x
_atom_site_fract_y
_atom_site_fract_z
Si Si1 0.664932 0.662434 0.436004
Si Si2 0.558088 0.080936 0.257970
Si Si3 0.188604 0.946253 0.206891
Si Si4 0.601884 0.000000 0.500000
Si Si5 0.642070 0.884878 0.103206
Si Si6 0.919892 0.148069 0.570259
Si Si7 0.744759 0.214998 0.372440
O O1 0.637148 0.500000 0.500000
O O2 0.677740 0.576778 0.312683
O O3 0.718006 0.709446 0.512213
O O4 0.633452 0.840499 0.442041
O O5 0.500000 0.990096 0.250000
O O6 0.570461 0.090917 0.394368
O O7 0.553267 0.248110 0.176039
O O8 0.607944 0.982991 0.198852
O O9 0.135903 0.924571 0.127464
O O10 0.204789 0.771630 0.268816
O O11 0.240024 0.018970 0.136199
O O12 0.696395 0.797442 0.144872
O O13 0.599214 0.770264 0.033229
O O14 0.663363 0.000000 0.000000
O O15 0.950252 0.000000 0.500000
#
# Coordination Sequence:
#
# PCOD9319992 Si02
#       7
#     8   8   8   4   8   8   8
#     4  10  24  43  62 103 153 192 246 305 371 452
#     4  11  27  49  77 108 137 188 254 314 380 448
#     4  11  24  37  63  98 146 187 246 288 362 447
#     4  12  26  46  80 102 150 200 244 314 386 442
#     4  10  22  41  69  98 142 183 240 295 364 439
#     4  11  24  46  72 102 143 188 238 311 373 452
#     4  11  23  36  62 100 144 194 239 297 359 444
#
# _framework density 23.172633999999999
#
# number of rings (size 3 to 8) (size 9 to 14) (size 15 to 20)
#    0.000    1.231    1.538    4.154   14.000    0.000 
#    0.000    3.077    0.000    0.000    0.000    0.000 
#    0.000    0.000    0.000    0.000    0.000    0.000 
#
# Total GULP energy -145081.605688 kJ/mol
# GULP energy per Si atom -5580.061757 kJ/mol
# Density = 2.311989 g / cm^3
# Si number density = 23.172634 Si / 1000 Ang^3
#
#
#
# Elastic Constant Matrix: (Units=GPa)
#
#
# Indices 1 2 3 4 5 6 
#
# 1 58.2916 2.4274 27.6664 0.0000 0.0000 0.0000
# 2 2.4274 79.4040 26.5457 0.0000 0.0000 0.0000
# 3 27.6664 26.5457 131.0275 0.0000 0.0000 0.0000
# 4 0.0000 0.0000 0.0000 38.9341 0.0000 0.0000
# 5 0.0000 0.0000 0.0000 0.0000 21.9759 0.0000
# 6 0.0000 0.0000 0.0000 0.0000 0.0000 -11.9020
#
#
#
# Elastic Compliance Matrix: (Units=1/GPa)
#
#
# Indices 1 2 3 4 5 6 
#
# 1 0.019116 0.000821 -0.004202 0.000000 0.000000 0.000000
# 2 0.000821 0.013544 -0.002917 0.000000 0.000000 0.000000
# 3 -0.004202 -0.002917 0.009110 0.000000 0.000000 0.000000
# 4 0.000000 0.000000 0.000000 0.025684 0.000000 0.000000
# 5 0.000000 0.000000 0.000000 0.000000 0.045504 0.000000
# 6 0.000000 0.000000 0.000000 0.000000 0.000000 -0.084019
#
#
# Mechanical properties :
#
#
# Convention : Reuss Voigt Hill
#
# Bulk Modulus (GPa) = 34.27989 42.44468 38.36229
# Shear Modulus (GPa) = 97.53924 23.94051 60.73987
#
# Velocity S-wave (km/s) = 6.49491 3.21773 5.12531
# Velocity P-wave (km/s) = 8.43033 5.67112 7.18443
#
# Compressibility (1/GPa) = 0.02917162
#
# Stress axis : x y z
#
# Youngs Moduli (GPa) = 52.31347 73.83343 109.76516
#
# Poissons Ratio (x) = -0.06059 0.46129
# Poissons Ratio (y) = -0.04293 0.32021
# Poissons Ratio (z) = 0.21985 0.21539
#
# Static dielectric constant tensor:
#      x y z
#    x 1.818250 0.000000 0.000000 
#    y 0.000000 1.173240 0.000000 
#    z 0.000000 0.000000 2.371930 
# 
# From -- ./inp_files/17024.got.cif
#   From: 2010.05.17/outbox.cif.g08.bks.cpg/sg20_9_cif.got.tgz:17024.got - 2010.06.03 22:52:26.
