data_PCOD9319732
_publ_section_title
;
Structure prediction by ZEFSAII (Michael W. Deem and Ramdas Pophale) SiO2 
 PCOD9319732
Probable space group: C 2 2 21
;
_chemical_formula_sum "Si O2"
_cell_formula_units_Z 48
_cell_length_a 12.677486
_cell_length_b 12.664581
_cell_length_c 16.051081
_cell_angle_alpha 90.000000
_cell_angle_beta 90.000000
_cell_angle_gamma 90.000000
_cell_volume 2577.082086
_symmetry_space_group_name_H-M "C 2 2 21"
_symmetry_group_IT_number 20
_symmetry_cell_setting 'orthorhombic'
loop_
_space_group_symop_operation_xyz
x,y,z
-x,-y,1/2+z
x,-y,-z
-x,y,1/2-z
1/2+x,1/2+y,z
1/2-x,1/2-y,1/2+z
1/2+x,1/2-y,-z
1/2-x,1/2+y,1/2-z
loop_
_atom_site_type_symbol
_atom_site_label
_atom_site_fract_x
_atom_site_fract_y
_atom_site_fract_z
Si Si1 0.004840 0.677177 0.998743
Si Si2 0.329797 0.491873 0.162114
Si Si3 0.743944 0.579343 0.167644
Si Si4 0.425940 0.257794 0.169779
Si Si5 0.010868 0.828154 0.841242
Si Si6 0.683398 0.000000 0.000000
Si Si7 0.828789 0.500000 0.000000
O O1 0.904516 0.600472 0.994642
O O2 0.998007 0.752650 0.919547
O O3 0.993483 0.738373 0.085917
O O4 0.107944 0.602876 0.997152
O O5 0.263467 0.516220 0.245764
O O6 0.376770 0.374494 0.166962
O O7 0.425259 0.577030 0.157234
O O8 0.256284 0.502770 0.081499
O O9 0.833211 0.670005 0.173115
O O10 0.629017 0.628559 0.155101
O O11 0.765826 0.509843 0.085847
O O12 0.500000 0.246858 0.250000
O O13 0.000000 0.774791 0.750000
#
# Coordination Sequence:
#
# PCOD9319732 Si02
#       7
#     8   8   8   8   8   4   4
#     4  10  22  39  59  84 116 150 192 240 291 348
#     4  11  23  39  59  87 119 153 196 243 291 349
#     4  10  22  39  59  85 116 153 194 238 292 348
#     4  11  22  39  60  86 117 153 193 242 293 348
#     4  10  22  39  57  84 117 151 191 238 288 344
#     4  11  22  39  60  86 114 153 194 239 292 348
#     4   9  22  39  58  84 114 149 192 239 290 346
#
# _framework density 18.625717000000002
#
# number of rings (size 3 to 8) (size 9 to 14) (size 15 to 20)
#    0.000    1.667    0.000    4.500    0.000    8.667 
#    0.000    1.667    0.000    0.000    0.000    0.000 
#    0.000    0.000    0.000    0.000    0.000    0.000 
#
# Total GULP energy -134056.929719 kJ/mol
# GULP energy per Si atom -5585.705405 kJ/mol
# Density = 1.858332 g / cm^3
# Si number density = 18.625717 Si / 1000 Ang^3
#
#
#
# Elastic Constant Matrix: (Units=GPa)
#
#
# Indices 1 2 3 4 5 6 
#
# 1 99.4962 33.1429 79.8844 0.0000 0.0000 0.0000
# 2 33.1429 98.8408 82.5744 0.0000 0.0000 0.0000
# 3 79.8844 82.5744 229.7875 0.0000 0.0000 0.0000
# 4 0.0000 0.0000 0.0000 39.1379 0.0000 0.0000
# 5 0.0000 0.0000 0.0000 0.0000 44.3317 0.0000
# 6 0.0000 0.0000 0.0000 0.0000 0.0000 8.9702
#
#
#
# Elastic Compliance Matrix: (Units=1/GPa)
#
#
# Indices 1 2 3 4 5 6 
#
# 1 0.013998 -0.000898 -0.004544 0.000000 0.000000 0.000000
# 2 -0.000898 0.014515 -0.004904 0.000000 0.000000 0.000000
# 3 -0.004544 -0.004904 0.007694 0.000000 0.000000 0.000000
# 4 0.000000 0.000000 0.000000 0.025551 0.000000 0.000000
# 5 0.000000 0.000000 0.000000 0.000000 0.022557 0.000000
# 6 0.000000 0.000000 0.000000 0.000000 0.000000 0.111480
#
#
# Mechanical properties :
#
#
# Convention : Reuss Voigt Hill
#
# Bulk Modulus (GPa) = 64.45012 91.03643 77.74328
# Shear Modulus (GPa) = 22.55732 33.98949 28.27340
#
# Velocity S-wave (km/s) = 3.48384 4.27648 3.90035
# Velocity P-wave (km/s) = 7.13167 8.56547 7.88124
#
# Compressibility (1/GPa) = 0.01551587
#
# Stress axis : x y z
#
# Youngs Moduli (GPa) = 71.44026 68.89325 129.97740
#
# Poissons Ratio (x) = 0.06185 0.59057
# Poissons Ratio (y) = 0.06414 0.63740
# Poissons Ratio (z) = 0.32460 0.33785
#
# Static dielectric constant tensor:
#      x y z
#    x 1.620550 0.000000 0.000000 
#    y 0.000000 1.637240 0.000000 
#    z 0.000000 0.000000 1.643010 
# 
# From -- ./inp_files/19968.got.cif
#   From: 2010.05.17/outbox.cif.g08.bks.cpg/sg20_10_cif.got.tgz:19968.got - 2010.06.03 22:52:26.
