data_PCOD9319263
_publ_section_title
;
Structure prediction by ZEFSAII (Michael W. Deem and Ramdas Pophale) SiO2 
 PCOD9319263
Probable space group: C 2 2 21
;
_chemical_formula_sum "Si O2"
_cell_formula_units_Z 56
_cell_length_a 19.754150
_cell_length_b 8.369243
_cell_length_c 15.520913
_cell_angle_alpha 90.000000
_cell_angle_beta 90.000000
_cell_angle_gamma 90.000000
_cell_volume 2566.030354
_symmetry_space_group_name_H-M "C 2 2 21"
_symmetry_group_IT_number 20
_symmetry_cell_setting 'orthorhombic'
loop_
_space_group_symop_operation_xyz
x,y,z
-x,-y,1/2+z
x,-y,-z
-x,y,1/2-z
1/2+x,1/2+y,z
1/2-x,1/2-y,1/2+z
1/2+x,1/2-y,-z
1/2-x,1/2+y,1/2-z
loop_
_atom_site_type_symbol
_atom_site_label
_atom_site_fract_x
_atom_site_fract_y
_atom_site_fract_z
Si Si1 0.110520 0.299614 0.908178
Si Si2 0.247620 0.310278 0.660520
Si Si3 0.385154 0.281466 0.853159
Si Si4 0.113269 0.978447 0.810726
Si Si5 0.158967 0.473036 0.224439
Si Si6 0.260780 0.312316 0.977753
Si Si7 0.018804 0.170036 0.049198
O O1 0.117144 0.463160 0.856276
O O2 0.184448 0.271263 0.950198
O O3 0.097273 0.157008 0.840225
O O4 0.055940 0.287608 0.983268
O O5 0.310308 0.433573 0.662148
O O6 0.192659 0.378325 0.726059
O O7 0.281156 0.144245 0.691952
O O8 0.221544 0.284902 0.564050
O O9 0.392875 0.434397 0.789719
O O10 0.384754 0.130006 0.790271
O O11 0.313342 0.282828 0.901294
O O12 0.445211 0.278219 0.920802
O O13 0.064714 0.863810 0.866843
O O14 0.263174 0.500000 0.000000
O O15 0.014476 0.000000 0.000000
#
# Coordination Sequence:
#
# PCOD9319263 Si02
#       7
#     8   8   8   8   8   8   8
#     4  11  22  42  71 104 132 178 231 276 340 409
#     4  11  22  40  67 100 139 174 221 278 340 397
#     4  11  25  43  69 101 139 180 226 283 344 401
#     4  10  21  40  73  97 129 179 225 277 331 411
#     4  11  24  40  69 104 139 177 223 284 343 406
#     4  12  24  38  68 102 140 179 224 289 331 396
#     4  10  22  44  72  99 132 179 230 280 338 410
#
# _framework density 21.823591
#
# number of rings (size 3 to 8) (size 9 to 14) (size 15 to 20)
#    0.000    1.143    2.857    4.286    2.000    1.714 
#    0.000    0.000   25.143    0.000    0.000    0.000 
#    0.000    0.000    0.000    0.000    0.000    0.000 
#
# Total GULP energy -156759.659695 kJ/mol
# GULP energy per Si atom -5598.559275 kJ/mol
# Density = 2.177392 g / cm^3
# Si number density = 21.823591 Si / 1000 Ang^3
#
#
#
# Elastic Constant Matrix: (Units=GPa)
#
#
# Indices 1 2 3 4 5 6 
#
# 1 64.2430 8.3899 41.4419 0.0000 0.0000 0.0000
# 2 8.3899 72.7546 34.7464 0.0000 0.0000 0.0000
# 3 41.4419 34.7464 121.8986 0.0000 0.0000 0.0000
# 4 0.0000 0.0000 0.0000 28.7435 0.0000 0.0000
# 5 0.0000 0.0000 0.0000 0.0000 32.1227 0.0000
# 6 0.0000 0.0000 0.0000 0.0000 0.0000 15.3619
#
#
#
# Elastic Compliance Matrix: (Units=1/GPa)
#
#
# Indices 1 2 3 4 5 6 
#
# 1 0.020013 0.001090 -0.007114 0.000000 0.000000 0.000000
# 2 0.001090 0.015970 -0.004923 0.000000 0.000000 0.000000
# 3 -0.007114 -0.004923 0.012025 0.000000 0.000000 0.000000
# 4 0.000000 0.000000 0.000000 0.034790 0.000000 0.000000
# 5 0.000000 0.000000 0.000000 0.000000 0.031131 0.000000
# 6 0.000000 0.000000 0.000000 0.000000 0.000000 0.065096
#
#
# Mechanical properties :
#
#
# Convention : Reuss Voigt Hill
#
# Bulk Modulus (GPa) = 38.29366 47.56140 42.92753
# Shear Modulus (GPa) = 23.85212 26.86683 25.35948
#
# Velocity S-wave (km/s) = 3.30957 3.51250 3.41254
# Velocity P-wave (km/s) = 5.67356 6.18798 5.93635
#
# Compressibility (1/GPa) = 0.02611399
#
# Stress axis : x y z
#
# Youngs Moduli (GPa) = 49.96752 62.61679 83.15702
#
# Poissons Ratio (x) = -0.06825 0.59162
# Poissons Ratio (y) = -0.05446 0.40936
# Poissons Ratio (z) = 0.35549 0.30824
#
# Static dielectric constant tensor:
#      x y z
#    x 1.760520 0.000000 0.000000 
#    y 0.000000 1.816620 0.000000 
#    z 0.000000 0.000000 1.800620 
# 
# From -- ./inp_files/21765.got.cif
#   From: 2010.05.17/outbox.cif.g08.bks.cpg/sg20_11_cif.got.tgz:21765.got - 2010.06.03 22:52:26.
