data_PCOD9319586
_publ_section_title
;
Structure prediction by ZEFSAII (Michael W. Deem and Ramdas Pophale) SiO2 
 PCOD9319586
Probable space group: C 2 2 21
;
_chemical_formula_sum "Si O2"
_cell_formula_units_Z 52
_cell_length_a 17.912742
_cell_length_b 8.860635
_cell_length_c 16.587786
_cell_angle_alpha 90.000000
_cell_angle_beta 90.000000
_cell_angle_gamma 90.000000
_cell_volume 2632.784676
_symmetry_space_group_name_H-M "C 2 2 21"
_symmetry_group_IT_number 20
_symmetry_cell_setting 'orthorhombic'
loop_
_space_group_symop_operation_xyz
x,y,z
-x,-y,1/2+z
x,-y,-z
-x,y,1/2-z
1/2+x,1/2+y,z
1/2-x,1/2-y,1/2+z
1/2+x,1/2-y,-z
1/2-x,1/2+y,1/2-z
loop_
_atom_site_type_symbol
_atom_site_label
_atom_site_fract_x
_atom_site_fract_y
_atom_site_fract_z
Si Si1 0.133795 0.435328 0.409690
Si Si2 0.703735 0.480428 0.096183
Si Si3 0.000000 0.939802 0.750000
Si Si4 0.487948 0.173537 0.530572
Si Si5 0.372714 0.746958 0.329990
Si Si6 0.049389 0.819207 0.135144
Si Si7 0.082177 0.467452 0.751777
O O1 0.139504 0.500000 0.500000
O O2 0.218319 0.396315 0.386038
O O3 0.106239 0.551909 0.340842
O O4 0.065991 0.681943 0.579436
O O5 0.695831 0.641727 0.142221
O O6 0.630187 0.391820 0.121033
O O7 0.699449 0.500000 0.000000
O O8 0.074324 0.844034 0.767488
O O9 0.996652 0.055648 0.824785
O O10 0.422511 0.223827 0.590143
O O11 0.484430 0.268388 0.449404
O O12 0.477996 0.000000 0.500000
O O13 0.361685 0.912622 0.292236
O O14 0.066732 0.678873 0.194441
O O15 0.000000 0.542990 0.750000
#
# Coordination Sequence:
#
# PCOD9319586 Si02
#       7
#     8   8   4   8   8   8   8
#     4  10  22  37  58  86 123 160 196 250 312 367
#     4  10  22  39  56  88 126 162 192 246 319 375
#     4  10  22  32  52  90 126 146 192 262 304 348
#     4  11  19  36  65  94 109 160 213 247 294 361
#     4  11  20  37  61  89 118 160 200 251 305 371
#     4  11  22  35  61  92 119 154 210 259 299 366
#     4  12  20  37  61  90 115 152 214 259 287 364
#
# _framework density 19.75095
#
# number of rings (size 3 to 8) (size 9 to 14) (size 15 to 20)
#    0.000    1.231    6.154    0.923    0.000    1.231 
#    0.000    0.000    0.000    0.000   20.000    0.000 
#    0.000    0.000    0.000    0.000    0.000    0.000 
#
# Total GULP energy -144881.214769 kJ/mol
# GULP energy per Si atom -5572.354414 kJ/mol
# Density = 1.970600 g / cm^3
# Si number density = 19.750950 Si / 1000 Ang^3
#
#
#
# Elastic Constant Matrix: (Units=GPa)
#
#
# Indices 1 2 3 4 5 6 
#
# 1 69.3017 5.3324 21.9871 0.0000 0.0000 0.0000
# 2 5.3324 60.6531 21.6987 0.0000 0.0000 0.0000
# 3 21.9871 21.6987 109.8490 0.0000 0.0000 0.0000
# 4 0.0000 0.0000 0.0000 35.6084 0.0000 0.0000
# 5 0.0000 0.0000 0.0000 0.0000 4.6785 0.0000
# 6 0.0000 0.0000 0.0000 0.0000 0.0000 11.4087
#
#
#
# Elastic Compliance Matrix: (Units=1/GPa)
#
#
# Indices 1 2 3 4 5 6 
#
# 1 0.015412 -0.000270 -0.003031 0.000000 0.000000 0.000000
# 2 -0.000270 0.017746 -0.003451 0.000000 0.000000 0.000000
# 3 -0.003031 -0.003451 0.010392 0.000000 0.000000 0.000000
# 4 0.000000 0.000000 0.000000 0.028083 0.000000 0.000000
# 5 0.000000 0.000000 0.000000 0.000000 0.213744 0.000000
# 6 0.000000 0.000000 0.000000 0.000000 0.000000 0.087652
#
#
# Mechanical properties :
#
#
# Convention : Reuss Voigt Hill
#
# Bulk Modulus (GPa) = 33.28501 37.53780 35.41140
# Shear Modulus (GPa) = 12.60874 23.05816 17.83345
#
# Velocity S-wave (km/s) = 2.52937 3.42050 3.00812
# Velocity P-wave (km/s) = 5.04175 5.88613 5.48023
#
# Compressibility (1/GPa) = 0.03004355
#
# Stress axis : x y z
#
# Youngs Moduli (GPa) = 64.88344 56.35179 96.22876
#
# Poissons Ratio (x) = 0.01524 0.29171
# Poissons Ratio (y) = 0.01755 0.33211
# Poissons Ratio (z) = 0.19669 0.19448
#
# Static dielectric constant tensor:
#      x y z
#    x 1.718440 0.000000 0.000000 
#    y 0.000000 1.732930 0.000000 
#    z 0.000000 0.000000 1.726450 
# 
# From -- ./inp_files/21722.got.cif
#   From: 2010.05.17/outbox.cif.g08.bks.cpg/sg20_11_cif.got.tgz:21722.got - 2010.06.03 22:52:26.
