data_PCOD9319339
_publ_section_title
;
Structure prediction by ZEFSAII (Michael W. Deem and Ramdas Pophale) SiO2 
 PCOD9319339
Probable space group: C 2 2 21
;
_chemical_formula_sum "Si O2"
_cell_formula_units_Z 64
_cell_length_a 12.129169
_cell_length_b 7.008927
_cell_length_c 27.777850
_cell_angle_alpha 90.000000
_cell_angle_beta 90.000000
_cell_angle_gamma 90.000000
_cell_volume 2361.463365
_symmetry_space_group_name_H-M "C 2 2 21"
_symmetry_group_IT_number 20
_symmetry_cell_setting 'orthorhombic'
loop_
_space_group_symop_operation_xyz
x,y,z
-x,-y,1/2+z
x,-y,-z
-x,y,1/2-z
1/2+x,1/2+y,z
1/2-x,1/2-y,1/2+z
1/2+x,1/2-y,-z
1/2-x,1/2+y,1/2-z
loop_
_atom_site_type_symbol
_atom_site_label
_atom_site_fract_x
_atom_site_fract_y
_atom_site_fract_z
Si Si1 0.474577 0.706626 0.042692
Si Si2 0.564794 0.137831 0.136039
Si Si3 0.930325 0.367099 0.942474
Si Si4 0.763291 0.541514 0.442604
Si Si5 0.706131 0.635881 0.187766
Si Si6 0.796168 0.889283 0.582295
Si Si7 0.755499 0.578159 0.293831
Si Si8 0.976738 0.714139 0.803317
O O1 0.358612 0.628995 0.061786
O O2 0.581814 0.596048 0.061577
O O3 0.494119 0.930618 0.055235
O O4 0.460546 0.724463 0.985087
O O5 0.458636 0.225250 0.109211
O O6 0.651683 0.158362 0.090807
O O7 0.640882 0.185588 0.181893
O O8 0.508286 0.940377 0.156332
O O9 0.806985 0.448338 0.949341
O O10 0.784816 0.500000 0.500000
O O11 0.772569 0.336900 0.418299
O O12 0.726057 0.544622 0.136266
O O13 0.762062 0.560758 0.236004
O O14 0.573724 0.629713 0.193220
O O15 0.738844 0.861054 0.187333
O O16 0.641764 0.686412 0.306057
O O17 0.000000 0.628689 0.750000
#
# Coordination Sequence:
#
# PCOD9319339 Si02
#       8
#     8   8   8   8   8   8   8   8
#     4  11  25  45  67  94 137 179 221 280 342 398
#     4  11  23  40  70 101 131 182 227 272 344 406
#     4  11  25  43  67 101 132 176 226 281 339 407
#     4  12  23  45  73  95 140 183 222 281 336 403
#     4  10  22  41  66  99 133 180 231 278 342 407
#     4  12  24  46  68  99 137 180 229 283 337 407
#     4  10  21  41  68  95 136 180 222 283 341 403
#     4   9  19  38  67  94 130 178 223 270 336 399
#
# _framework density 27.101838000000001
#
# number of rings (size 3 to 8) (size 9 to 14) (size 15 to 20)
#    0.000    1.250    5.000    0.750    3.500    3.000 
#    4.500    3.750    0.000    0.000    0.000    0.000 
#    0.000    0.000    0.000    0.000    0.000    0.000 
#
# Total GULP energy -178828.766653 kJ/mol
# GULP energy per Si atom -5588.398958 kJ/mol
# Density = 2.704015 g / cm^3
# Si number density = 27.101838 Si / 1000 Ang^3
#
#
#
# Elastic Constant Matrix: (Units=GPa)
#
#
# Indices 1 2 3 4 5 6 
#
# 1 200.1195 34.9595 58.5502 0.0000 0.0000 0.0000
# 2 34.9595 83.2245 13.8845 0.0000 0.0000 0.0000
# 3 58.5502 13.8845 199.4727 0.0000 0.0000 0.0000
# 4 0.0000 0.0000 0.0000 39.1317 0.0000 0.0000
# 5 0.0000 0.0000 0.0000 0.0000 47.2647 0.0000
# 6 0.0000 0.0000 0.0000 0.0000 0.0000 36.5694
#
#
#
# Elastic Compliance Matrix: (Units=1/GPa)
#
#
# Indices 1 2 3 4 5 6 
#
# 1 0.005836 -0.002191 -0.001561 0.000000 0.000000 0.000000
# 2 -0.002191 0.012980 -0.000260 0.000000 0.000000 0.000000
# 3 -0.001561 -0.000260 0.005489 0.000000 0.000000 0.000000
# 4 0.000000 0.000000 0.000000 0.025555 0.000000 0.000000
# 5 0.000000 0.000000 0.000000 0.000000 0.021157 0.000000
# 6 0.000000 0.000000 0.000000 0.000000 0.000000 0.027345
#
#
# Mechanical properties :
#
#
# Convention : Reuss Voigt Hill
#
# Bulk Modulus (GPa) = 61.42095 77.51168 69.46632
# Shear Modulus (GPa) = 44.71704 49.62133 47.16919
#
# Velocity S-wave (km/s) = 4.06638 4.28357 4.17639
# Velocity P-wave (km/s) = 6.69025 7.28886 6.99596
#
# Compressibility (1/GPa) = 0.01628109
#
# Stress axis : x y z
#
# Youngs Moduli (GPa) = 171.33805 77.04402 182.16898
#
# Poissons Ratio (x) = 0.16883 0.28429
# Poissons Ratio (y) = 0.37545 0.04741
# Poissons Ratio (z) = 0.26739 0.02005
#
# Static dielectric constant tensor:
#      x y z
#    x 2.369690 0.000000 0.000000 
#    y 0.000000 2.239090 0.000000 
#    z 0.000000 0.000000 2.214750 
# 
# From -- ./inp_files/31225.got.cif
#   From: 2010.05.17/outbox.cif.g08.bks.cpg/sg20_16_cif.got.tgz:31225.got - 2010.06.03 22:52:26.
