data_PCOD9319010
_publ_section_title
;
Structure prediction by ZEFSAII (Michael W. Deem and Ramdas Pophale) SiO2 
 PCOD9319010
Probable space group: C 2 2 21
;
_chemical_formula_sum "Si O2"
_cell_formula_units_Z 56
_cell_length_a 14.798860
_cell_length_b 32.046561
_cell_length_c 5.437527
_cell_angle_alpha 90.000000
_cell_angle_beta 90.000000
_cell_angle_gamma 90.000000
_cell_volume 2578.761153
_symmetry_space_group_name_H-M "C 2 2 21"
_symmetry_group_IT_number 20
_symmetry_cell_setting 'orthorhombic'
loop_
_space_group_symop_operation_xyz
x,y,z
-x,-y,1/2+z
x,-y,-z
-x,y,1/2-z
1/2+x,1/2+y,z
1/2-x,1/2-y,1/2+z
1/2+x,1/2-y,-z
1/2-x,1/2+y,1/2-z
loop_
_atom_site_type_symbol
_atom_site_label
_atom_site_fract_x
_atom_site_fract_y
_atom_site_fract_z
Si Si1 0.291593 0.582820 0.803344
Si Si2 0.500000 0.921691 0.250000
Si Si3 0.662127 0.060216 0.420301
Si Si4 0.630435 0.130900 0.057437
Si Si5 0.787406 0.500000 0.500000
Si Si6 0.640986 0.727740 0.380764
Si Si7 0.053872 0.140173 0.502226
Si Si8 0.640168 0.228190 0.119381
O O1 0.262387 0.567571 0.531518
O O2 0.383958 0.603263 0.888173
O O3 0.215011 0.616733 0.885450
O O4 0.274162 0.539107 0.933950
O O5 0.583532 0.945568 0.376278
O O6 0.455944 0.891555 0.447538
O O7 0.646039 0.105627 0.305463
O O8 0.658245 0.022995 0.221444
O O9 0.618664 0.179666 0.085949
O O10 0.612246 0.680077 0.417515
O O11 0.608671 0.753817 0.618715
O O12 0.750067 0.730538 0.377689
O O13 0.608441 0.745745 0.118830
O O14 0.000000 0.153473 0.750000
O O15 0.000000 0.128349 0.250000
#
# Coordination Sequence:
#
# PCOD9319010 Si02
#       8
#     8   4   8   8   4   8   8   8
#     4  10  23  43  74  99 134 185 237 290 363 443
#     4  10  22  40  62 106 142 186 234 282 360 432
#     4  10  22  41  74 101 144 183 238 296 354 444
#     4  10  21  39  68  95 139 191 237 292 345 427
#     4  10  22  44  76 104 130 182 234 296 364 440
#     4  10  22  41  62 100 136 183 242 295 349 419
#     4  12  27  46  70 106 148 189 237 305 372 430
#     4  10  21  38  70  97 135 184 244 292 340 418
#
# _framework density 21.715852999999999
#
# number of rings (size 3 to 8) (size 9 to 14) (size 15 to 20)
#    0.000    1.714    1.429    1.714    8.000    1.143 
#    3.857    0.714  113.143    0.000    0.000    0.000 
#    0.000    0.000    0.000    0.000    0.000    0.000 
#
# Total GULP energy -156163.660144 kJ/mol
# GULP energy per Si atom -5577.273577 kJ/mol
# Density = 2.166643 g / cm^3
# Si number density = 21.715853 Si / 1000 Ang^3
#
#
#
# Elastic Constant Matrix: (Units=GPa)
#
#
# Indices 1 2 3 4 5 6 
#
# 1 41.5035 9.3311 35.2784 0.0000 0.0000 0.0000
# 2 9.3311 129.9106 43.1573 0.0000 0.0000 0.0000
# 3 35.2784 43.1573 141.0965 0.0000 0.0000 0.0000
# 4 0.0000 0.0000 0.0000 35.8216 0.0000 0.0000
# 5 0.0000 0.0000 0.0000 0.0000 -0.6644 0.0000
# 6 0.0000 0.0000 0.0000 0.0000 0.0000 20.0622
#
#
#
# Elastic Compliance Matrix: (Units=1/GPa)
#
#
# Indices 1 2 3 4 5 6 
#
# 1 0.030614 0.000383 -0.007772 0.000000 0.000000 0.000000
# 2 0.000383 0.008573 -0.002718 0.000000 0.000000 0.000000
# 3 -0.007772 -0.002718 0.009862 0.000000 0.000000 0.000000
# 4 0.000000 0.000000 0.000000 0.027916 0.000000 0.000000
# 5 0.000000 0.000000 0.000000 0.000000 -1.505154 0.000000
# 6 0.000000 0.000000 0.000000 0.000000 0.000000 0.049845
#
#
# Mechanical properties :
#
#
# Convention : Reuss Voigt Hill
#
# Bulk Modulus (GPa) = 34.67927 54.22711 44.45319
# Shear Modulus (GPa) = -3.70777 26.02681 11.15952
#
# Velocity S-wave (km/s) = -1.30809 3.46572 2.26937
# Velocity P-wave (km/s) = 3.70442 6.40627 5.23274
#
# Compressibility (1/GPa) = 0.02883567
#
# Stress axis : x y z
#
# Youngs Moduli (GPa) = 32.66460 116.64490 101.40114
#
# Poissons Ratio (x) = -0.04466 0.78805
# Poissons Ratio (y) = -0.01251 0.27560
# Poissons Ratio (z) = 0.25386 0.31704
#
# Static dielectric constant tensor:
#      x y z
#    x 1.812180 0.000000 0.000000 
#    y 0.000000 1.736380 0.000000 
#    z 0.000000 0.000000 1.900970 
# 
# From -- ./inp_files/2251.got.cif
#   From: 2010.05.17/outbox.cif.g08.bks.cpg/sg20_2_cif.got.tgz:2251.got - 2010.06.03 22:52:26.
