data_PCOD9319489
_publ_section_title
;
Structure prediction by ZEFSAII (Michael W. Deem and Ramdas Pophale) SiO2 
 PCOD9319489
Probable space group: C 2 2 21
;
_chemical_formula_sum "Si O2"
_cell_formula_units_Z 52
_cell_length_a 28.661513
_cell_length_b 11.200431
_cell_length_c 8.479966
_cell_angle_alpha 90.000000
_cell_angle_beta 90.000000
_cell_angle_gamma 90.000000
_cell_volume 2722.249698
_symmetry_space_group_name_H-M "C 2 2 21"
_symmetry_group_IT_number 20
_symmetry_cell_setting 'orthorhombic'
loop_
_space_group_symop_operation_xyz
x,y,z
-x,-y,1/2+z
x,-y,-z
-x,y,1/2-z
1/2+x,1/2+y,z
1/2-x,1/2-y,1/2+z
1/2+x,1/2-y,-z
1/2-x,1/2+y,1/2-z
loop_
_atom_site_type_symbol
_atom_site_label
_atom_site_fract_x
_atom_site_fract_y
_atom_site_fract_z
Si Si1 0.660433 0.500000 0.000000
Si Si2 0.468886 0.375006 0.909014
Si Si3 0.219600 0.858947 0.520992
Si Si4 0.630186 0.328262 0.739542
Si Si5 0.381929 0.136857 0.503991
Si Si6 0.992210 0.628429 0.559948
Si Si7 0.306455 0.726152 0.675220
O O1 0.629784 0.570008 0.126583
O O2 0.690740 0.402069 0.090209
O O3 0.500000 0.384834 0.750000
O O4 0.415651 0.347748 0.862532
O O5 0.485527 0.253538 0.995847
O O6 0.472689 0.500000 0.000000
O O7 0.176707 0.841625 0.639721
O O8 0.265971 0.801701 0.592702
O O9 0.205375 0.796766 0.356640
O O10 0.226518 0.000000 0.500000
O O11 0.631110 0.204055 0.833984
O O12 0.438165 0.136800 0.506556
O O13 0.355635 0.208952 0.365219
O O14 0.366328 0.000000 0.500000
O O15 0.010627 0.500000 0.500000
O O16 0.000000 0.626901 0.750000
#
# Coordination Sequence:
#
# PCOD9319489 Si02
#       7
#     4   8   8   8   8   8   8
#     4  10  22  40  70  94 126 184 210 272 336 390
#     4  11  24  41  65 100 133 175 226 285 332 402
#     4  12  25  45  66  96 135 173 217 276 332 406
#     4  11  22  44  65  95 140 170 223 276 339 392
#     4  10  21  43  68  94 126 174 222 273 328 396
#     4  10  21  44  65  92 134 175 222 275 337 400
#     4  11  24  42  68  96 129 170 219 266 337 396
#
# _framework density 19.101846999999999
#
# number of rings (size 3 to 8) (size 9 to 14) (size 15 to 20)
#    0.000    1.231    4.615    2.769    1.077    0.615 
#    5.538    0.000    0.000    0.000    0.000    0.000 
#    0.000    0.000    0.000    0.000    0.000    0.000 
#
# Total GULP energy -145142.859883 kJ/mol
# GULP energy per Si atom -5582.417688 kJ/mol
# Density = 1.905837 g / cm^3
# Si number density = 19.101847 Si / 1000 Ang^3
#
#
#
# Elastic Constant Matrix: (Units=GPa)
#
#
# Indices 1 2 3 4 5 6 
#
# 1 80.4181 43.6157 17.9131 0.0000 0.0000 0.0000
# 2 43.6157 191.0879 56.2045 0.0000 0.0000 0.0000
# 3 17.9131 56.2045 64.5060 0.0000 0.0000 0.0000
# 4 0.0000 0.0000 0.0000 30.0327 0.0000 0.0000
# 5 0.0000 0.0000 0.0000 0.0000 12.1080 0.0000
# 6 0.0000 0.0000 0.0000 0.0000 0.0000 46.1788
#
#
#
# Elastic Compliance Matrix: (Units=1/GPa)
#
#
# Indices 1 2 3 4 5 6 
#
# 1 0.014301 -0.002818 -0.001516 0.000000 0.000000 0.000000
# 2 -0.002818 0.007592 -0.005832 0.000000 0.000000 0.000000
# 3 -0.001516 -0.005832 0.021005 0.000000 0.000000 0.000000
# 4 0.000000 0.000000 0.000000 0.033297 0.000000 0.000000
# 5 0.000000 0.000000 0.000000 0.000000 0.082590 0.000000
# 6 0.000000 0.000000 0.000000 0.000000 0.000000 0.021655
#
#
# Mechanical properties :
#
#
# Convention : Reuss Voigt Hill
#
# Bulk Modulus (GPa) = 44.31552 63.49764 53.90658
# Shear Modulus (GPa) = 24.00448 32.21583 28.11015
#
# Velocity S-wave (km/s) = 3.54878 4.11119 3.84030
# Velocity P-wave (km/s) = 6.32786 7.47326 6.92428
#
# Compressibility (1/GPa) = 0.02256546
#
# Stress axis : x y z
#
# Youngs Moduli (GPa) = 69.92401 131.71875 47.60769
#
# Poissons Ratio (x) = 0.37124 0.07216
# Poissons Ratio (y) = 0.19708 0.27766
# Poissons Ratio (z) = 0.10598 0.76821
#
# Static dielectric constant tensor:
#      x y z
#    x 1.653200 0.000000 0.000000 
#    y 0.000000 1.683590 0.000000 
#    z 0.000000 0.000000 1.633360 
# 
# From -- ./inp_files/11102.got.cif
#   From: 2010.05.17/outbox.cif.g08.bks.cpg/sg20_6_cif.got.tgz:11102.got - 2010.06.03 22:52:26.
