data_PCOD9319591
_publ_section_title
;
Structure prediction by ZEFSAII (Michael W. Deem and Ramdas Pophale) SiO2 
 PCOD9319591
Probable space group: C 2 2 21
;
_chemical_formula_sum "Si O2"
_cell_formula_units_Z 60
_cell_length_a 5.331236
_cell_length_b 23.856223
_cell_length_c 22.134483
_cell_angle_alpha 90.000000
_cell_angle_beta 90.000000
_cell_angle_gamma 90.000000
_cell_volume 2815.133380
_symmetry_space_group_name_H-M "C 2 2 21"
_symmetry_group_IT_number 20
_symmetry_cell_setting 'orthorhombic'
loop_
_space_group_symop_operation_xyz
x,y,z
-x,-y,1/2+z
x,-y,-z
-x,y,1/2-z
1/2+x,1/2+y,z
1/2-x,1/2-y,1/2+z
1/2+x,1/2-y,-z
1/2-x,1/2+y,1/2-z
loop_
_atom_site_type_symbol
_atom_site_label
_atom_site_fract_x
_atom_site_fract_y
_atom_site_fract_z
Si Si1 0.865746 0.474511 0.330995
Si Si2 0.000000 0.100353 0.750000
Si Si3 0.029545 0.819525 0.980818
Si Si4 0.892692 0.097845 0.379998
Si Si5 0.030116 0.698029 0.943117
Si Si6 0.898167 0.395108 0.686518
Si Si7 0.738939 0.884876 0.360844
Si Si8 0.497305 0.520553 0.930965
O O1 0.663906 0.442059 0.291000
O O2 0.778910 0.475082 0.401413
O O3 0.900478 0.537314 0.310443
O O4 0.104563 0.435906 0.327024
O O5 0.896545 0.139163 0.695133
O O6 0.015484 0.875154 0.942084
O O7 0.012227 0.765185 0.936829
O O8 0.801208 0.815438 0.028366
O O9 0.302092 0.815443 0.011052
O O10 0.110496 0.115437 0.332571
O O11 0.615856 0.118652 0.362100
O O12 0.887192 0.030791 0.391127
O O13 0.957788 0.659563 0.886627
O O14 0.000000 0.372502 0.750000
O O15 0.879394 0.919161 0.414778
O O16 0.504351 0.500000 0.000000
#
# Coordination Sequence:
#
# PCOD9319591 Si02
#       8
#     8   4   8   8   8   8   8   8
#     4  10  22  36  55  83 121 164 210 247 308 370
#     4  10  22  36  58  82 122 166 214 260 304 378
#     4  10  22  44  62  95 119 161 209 252 309 378
#     4  11  22  37  59  86 121 157 196 251 304 356
#     4  10  23  39  70  89 120 162 207 256 309 372
#     4  11  22  37  58  84 116 163 205 245 292 367
#     4  11  21  37  58  88 122 163 205 261 313 374
#     4  10  22  34  51  87 125 160 189 246 315 380
#
# _framework density 21.313376999999999
#
# number of rings (size 3 to 8) (size 9 to 14) (size 15 to 20)
#    0.000    1.600    1.333    3.200    9.333    0.533 
#    0.000    0.000    1.467    1.600    0.000    0.000 
#    0.000    0.000    0.000    0.000    0.000    0.000 
#
# Total GULP energy -167211.580559 kJ/mol
# GULP energy per Si atom -5573.719352 kJ/mol
# Density = 2.126487 g / cm^3
# Si number density = 21.313377 Si / 1000 Ang^3
#
#
#
# Elastic Constant Matrix: (Units=GPa)
#
#
# Indices 1 2 3 4 5 6 
#
# 1 67.3404 -4.3942 10.4375 0.0000 0.0000 0.0000
# 2 -4.3942 47.7921 -9.3774 0.0000 0.0000 0.0000
# 3 10.4375 -9.3774 69.0275 0.0000 0.0000 0.0000
# 4 0.0000 0.0000 0.0000 -0.5297 0.0000 0.0000
# 5 0.0000 0.0000 0.0000 0.0000 20.1935 0.0000
# 6 0.0000 0.0000 0.0000 0.0000 0.0000 13.7240
#
#
#
# Elastic Compliance Matrix: (Units=1/GPa)
#
#
# Indices 1 2 3 4 5 6 
#
# 1 0.015250 0.000976 -0.002173 0.000000 0.000000 0.000000
# 2 0.000976 0.021559 0.002781 0.000000 0.000000 0.000000
# 3 -0.002173 0.002781 0.015193 0.000000 0.000000 0.000000
# 4 0.000000 0.000000 0.000000 -1.887999 0.000000 0.000000
# 5 0.000000 0.000000 0.000000 0.000000 0.049521 0.000000
# 6 0.000000 0.000000 0.000000 0.000000 0.000000 0.072865
#
#
# Mechanical properties :
#
#
# Convention : Reuss Voigt Hill
#
# Bulk Modulus (GPa) = 18.12561 19.72131 18.92346
# Shear Modulus (GPa) = -2.94397 19.17716 8.11659
#
# Velocity S-wave (km/s) = -1.17655 3.00287 1.95358
# Velocity P-wave (km/s) = 2.58401 4.61477 3.73987
#
# Compressibility (1/GPa) = 0.05517056
#
# Stress axis : x y z
#
# Youngs Moduli (GPa) = 65.57173 46.38343 65.81779
#
# Poissons Ratio (x) = -0.04526 0.14305
# Poissons Ratio (y) = -0.06398 -0.18306
# Poissons Ratio (z) = 0.14252 -0.12901
#
# Static dielectric constant tensor:
#      x y z
#    x 1.867960 0.000000 0.000000 
#    y 0.000000 1.739150 0.000000 
#    z 0.000000 0.000000 1.841210 
# 
# From -- ./inp_files/28034.got.cif
#   From: 2010.05.17/outbox.cif.g08.bks.cpg/sg20_15_cif.got.tgz:28034.got - 2010.06.03 22:52:26.
