data_PCOD9319734
_publ_section_title
;
Structure prediction by ZEFSAII (Michael W. Deem and Ramdas Pophale) SiO2 
 PCOD9319734
Probable space group: C 2 2 21
;
_chemical_formula_sum "Si O2"
_cell_formula_units_Z 64
_cell_length_a 27.366210
_cell_length_b 13.875250
_cell_length_c 9.302833
_cell_angle_alpha 90.000000
_cell_angle_beta 90.000000
_cell_angle_gamma 90.000000
_cell_volume 3532.406676
_symmetry_space_group_name_H-M "C 2 2 21"
_symmetry_group_IT_number 20
_symmetry_cell_setting 'orthorhombic'
loop_
_space_group_symop_operation_xyz
x,y,z
-x,-y,1/2+z
x,-y,-z
-x,y,1/2-z
1/2+x,1/2+y,z
1/2-x,1/2-y,1/2+z
1/2+x,1/2-y,-z
1/2-x,1/2+y,1/2-z
loop_
_atom_site_type_symbol
_atom_site_label
_atom_site_fract_x
_atom_site_fract_y
_atom_site_fract_z
Si Si1 0.995590 0.396708 0.420914
Si Si2 0.149678 0.278669 0.720333
Si Si3 0.399088 0.113151 0.973529
Si Si4 0.825457 0.625616 0.735897
Si Si5 0.109111 0.617480 0.013654
Si Si6 0.753795 0.990098 0.670898
Si Si7 0.741419 0.300573 0.665682
Si Si8 0.684363 0.404845 0.408562
O O1 0.993857 0.500000 0.500000
O O2 0.943431 0.349564 0.453540
O O3 0.000000 0.410893 0.250000
O O4 0.045539 0.347471 0.478468
O O5 0.141212 0.344262 0.580437
O O6 0.202039 0.278229 0.800553
O O7 0.144980 0.171647 0.650958
O O8 0.113928 0.330625 0.833183
O O9 0.376728 0.127259 0.817440
O O10 0.402564 0.000000 0.000000
O O11 0.841913 0.643800 0.574340
O O12 0.798947 0.523794 0.766748
O O13 0.790526 0.706943 0.800710
O O14 0.109394 0.500000 0.000000
O O15 0.789391 0.056138 0.765775
O O16 0.754755 0.000000 0.500000
O O17 0.767952 0.882841 0.715605
O O18 0.722740 0.346772 0.513820
O O19 0.668833 0.500000 0.500000
#
# Coordination Sequence:
#
# PCOD9319734 Si02
#       8
#     8   8   8   8   8   8   8   8
#     4  10  22  39  58  83 125 164 198 249 303 364
#     4  12  23  37  59  87 118 160 210 250 296 368
#     4  11  22  36  59  84 122 160 203 241 304 369
#     4  12  21  37  56  84 119 161 202 241 296 363
#     4  11  24  37  58  89 125 164 206 250 303 363
#     4  11  23  35  55  79 113 158 205 247 294 351
#     4  11  23  37  56  80 120 159 199 248 301 355
#     4  10  23  42  55  77 120 163 204 256 307 350
#
# _framework density 18.117958999999999
#
# number of rings (size 3 to 8) (size 9 to 14) (size 15 to 20)
#    0.000    1.000    3.750    4.125    7.000    1.000 
#    0.000    0.000    0.000    0.000    0.000    0.000 
#   18.750    0.000    0.000    0.000    0.000    0.000 
#
# Total GULP energy -178235.030119 kJ/mol
# GULP energy per Si atom -5569.844691 kJ/mol
# Density = 1.807672 g / cm^3
# Si number density = 18.117959 Si / 1000 Ang^3
#
#
#
# Elastic Constant Matrix: (Units=GPa)
#
#
# Indices 1 2 3 4 5 6 
#
# 1 68.8898 22.8371 2.9260 0.0000 0.0000 0.0000
# 2 22.8371 73.9802 19.2685 0.0000 0.0000 0.0000
# 3 2.9260 19.2685 78.5991 0.0000 0.0000 0.0000
# 4 0.0000 0.0000 0.0000 25.9192 0.0000 0.0000
# 5 0.0000 0.0000 0.0000 0.0000 16.1230 0.0000
# 6 0.0000 0.0000 0.0000 0.0000 0.0000 10.2101
#
#
#
# Elastic Compliance Matrix: (Units=1/GPa)
#
#
# Indices 1 2 3 4 5 6 
#
# 1 0.016203 -0.005175 0.000665 0.000000 0.000000 0.000000
# 2 -0.005175 0.016092 -0.003752 0.000000 0.000000 0.000000
# 3 0.000665 -0.003752 0.013618 0.000000 0.000000 0.000000
# 4 0.000000 0.000000 0.000000 0.038581 0.000000 0.000000
# 5 0.000000 0.000000 0.000000 0.000000 0.062023 0.000000
# 6 0.000000 0.000000 0.000000 0.000000 0.000000 0.097943
#
#
# Mechanical properties :
#
#
# Convention : Reuss Voigt Hill
#
# Bulk Modulus (GPa) = 34.02608 34.61469 34.32039
# Shear Modulus (GPa) = 18.46514 22.21295 20.33905
#
# Velocity S-wave (km/s) = 3.19590 3.50525 3.35414
# Velocity P-wave (km/s) = 5.69556 5.96063 5.82960
#
# Compressibility (1/GPa) = 0.02938922
#
# Stress axis : x y z
#
# Youngs Moduli (GPa) = 61.71606 62.14284 73.43289
#
# Poissons Ratio (x) = 0.32160 -0.04887
# Poissons Ratio (y) = 0.31939 0.27554
# Poissons Ratio (z) = -0.04107 0.23318
#
# Static dielectric constant tensor:
#      x y z
#    x 1.652890 0.000000 0.000000 
#    y 0.000000 1.648570 0.000000 
#    z 0.000000 0.000000 1.654600 
# 
# From -- ./inp_files/10821.got.cif
#   From: 2010.05.17/outbox.cif.g08.bks.cpg/sg20_6_cif.got.tgz:10821.got - 2010.06.03 22:52:26.
