data_PCOD9319977
_publ_section_title
;
Structure prediction by ZEFSAII (Michael W. Deem and Ramdas Pophale) SiO2 
 PCOD9319977
Probable space group: C 2 2 21
;
_chemical_formula_sum "Si O2"
_cell_formula_units_Z 40
_cell_length_a 5.368322
_cell_length_b 28.355092
_cell_length_c 10.891592
_cell_angle_alpha 90.000000
_cell_angle_beta 90.000000
_cell_angle_gamma 90.000000
_cell_volume 1657.910120
_symmetry_space_group_name_H-M "C 2 2 21"
_symmetry_group_IT_number 20
_symmetry_cell_setting 'orthorhombic'
loop_
_space_group_symop_operation_xyz
x,y,z
-x,-y,1/2+z
x,-y,-z
-x,y,1/2-z
1/2+x,1/2+y,z
1/2-x,1/2-y,1/2+z
1/2+x,1/2-y,-z
1/2-x,1/2+y,1/2-z
loop_
_atom_site_type_symbol
_atom_site_label
_atom_site_fract_x
_atom_site_fract_y
_atom_site_fract_z
Si Si1 0.500000 0.837159 0.750000
Si Si2 0.387558 0.848855 0.361343
Si Si3 0.019153 0.500000 0.500000
Si Si4 0.748543 0.097303 0.447686
Si Si5 0.251839 0.222570 0.466843
Si Si6 0.857760 0.937915 0.140182
O O1 0.306465 0.871398 0.825494
O O2 0.657664 0.802857 0.841430
O O3 0.500000 0.819287 0.250000
O O4 0.579689 0.872421 0.456546
O O5 0.193169 0.819176 0.438205
O O6 0.256325 0.892308 0.295261
O O7 0.849351 0.526995 0.595642
O O8 0.156623 0.543201 0.433222
O O9 0.003206 0.084275 0.521029
O O10 0.503367 0.246079 0.525221
O O11 0.000000 0.962976 0.250000
#
# Coordination Sequence:
#
# PCOD9319977 Si02
#       6
#     4   8   4   8   8   8
#     4  10  26  50  72 108 154 204 242 330 388 464
#     4  10  22  41  67  99 134 181 237 300 371 438
#     4  10  24  38  62 110 136 198 242 298 376 444
#     4  10  22  44  65 100 148 186 246 299 376 456
#     4  11  28  48  75 110 147 193 251 313 386 463
#     4  11  22  40  71  99 139 190 252 309 367 459
#
# _framework density 24.126760999999998
#
# number of rings (size 3 to 8) (size 9 to 14) (size 15 to 20)
#    0.000    1.600    2.000    0.600    8.400    3.200 
#    7.200    0.000    0.000    0.000    0.000    0.000 
#    0.000    0.000    0.000    0.000    0.000    0.000 
#
# Total GULP energy -111438.889332 kJ/mol
# GULP energy per Si atom -5571.944467 kJ/mol
# Density = 2.407185 g / cm^3
# Si number density = 24.126761 Si / 1000 Ang^3
#
#
#
# Elastic Constant Matrix: (Units=GPa)
#
#
# Indices 1 2 3 4 5 6 
#
# 1 85.3600 38.3768 18.5317 0.0000 0.0000 0.0000
# 2 38.3768 122.4010 42.8834 0.0000 0.0000 0.0000
# 3 18.5317 42.8834 97.7784 0.0000 0.0000 0.0000
# 4 0.0000 0.0000 0.0000 26.6312 0.0000 0.0000
# 5 0.0000 0.0000 0.0000 0.0000 18.0231 0.0000
# 6 0.0000 0.0000 0.0000 0.0000 0.0000 -861.9433
#
#
#
# Elastic Compliance Matrix: (Units=1/GPa)
#
#
# Indices 1 2 3 4 5 6 
#
# 1 0.013696 -0.003999 -0.000842 0.000000 0.000000 0.000000
# 2 -0.003999 0.010821 -0.003988 0.000000 0.000000 0.000000
# 3 -0.000842 -0.003988 0.012136 0.000000 0.000000 0.000000
# 4 0.000000 0.000000 0.000000 0.037550 0.000000 0.000000
# 5 0.000000 0.000000 0.000000 0.000000 0.055484 0.000000
# 6 0.000000 0.000000 0.000000 0.000000 0.000000 -0.001160
#
#
# Mechanical properties :
#
#
# Convention : Reuss Voigt Hill
#
# Bulk Modulus (GPa) = 52.64592 56.12479 54.38535
# Shear Modulus (GPa) = 32.78346 -149.74131 -58.47893
#
# Velocity S-wave (km/s) = 3.69019 -7.88664 -4.92857
# Velocity P-wave (km/s) = 6.32650 7.72135 3.13007
#
# Compressibility (1/GPa) = 0.01899483
#
# Stress axis : x y z
#
# Youngs Moduli (GPa) = 73.01499 92.41385 82.40132
#
# Poissons Ratio (x) = 0.36958 0.06936
# Poissons Ratio (y) = 0.29200 0.32860
# Poissons Ratio (z) = 0.06146 0.36853
#
# Static dielectric constant tensor:
#      x y z
#    x 2.039990 0.000000 0.000000 
#    y 0.000000 1.927590 0.000000 
#    z 0.000000 0.000000 4.266730 
# 
# From -- ./inp_files/12199.got.cif
#   From: 2010.05.17/outbox.cif.g08.bks.cpg/sg20_7_cif.got.tgz:12199.got - 2010.06.03 22:52:26.
