data_PCOD9319813
_publ_section_title
;
Structure prediction by ZEFSAII (Michael W. Deem and Ramdas Pophale) SiO2 
 PCOD9319813
Probable space group: C 2 2 21
;
_chemical_formula_sum "Si O2"
_cell_formula_units_Z 48
_cell_length_a 8.924251
_cell_length_b 28.162338
_cell_length_c 8.365735
_cell_angle_alpha 90.000000
_cell_angle_beta 90.000000
_cell_angle_gamma 90.000000
_cell_volume 2102.541548
_symmetry_space_group_name_H-M "C 2 2 21"
_symmetry_group_IT_number 20
_symmetry_cell_setting 'orthorhombic'
loop_
_space_group_symop_operation_xyz
x,y,z
-x,-y,1/2+z
x,-y,-z
-x,y,1/2-z
1/2+x,1/2+y,z
1/2-x,1/2-y,1/2+z
1/2+x,1/2-y,-z
1/2-x,1/2+y,1/2-z
loop_
_atom_site_type_symbol
_atom_site_label
_atom_site_fract_x
_atom_site_fract_y
_atom_site_fract_z
Si Si1 0.165238 0.777278 0.822353
Si Si2 0.734937 0.965800 0.867793
Si Si3 0.260869 0.088463 0.908915
Si Si4 0.500000 0.023331 0.750000
Si Si5 0.000000 0.974838 0.250000
Si Si6 0.179435 0.372121 0.757367
Si Si7 0.668016 0.311311 0.189717
O O1 0.251127 0.820173 0.731831
O O2 0.250199 0.728063 0.795635
O O3 0.000000 0.773733 0.750000
O O4 0.163085 0.791301 0.008444
O O5 0.728078 0.910228 0.892442
O O6 0.631051 0.983006 0.725747
O O7 0.894725 0.988763 0.844485
O O8 0.657261 0.000000 0.000000
O O9 0.414070 0.061816 0.864224
O O10 0.250777 0.138274 0.814211
O O11 0.115596 0.057572 0.852145
O O12 0.256793 0.103998 0.094332
O O13 0.000000 0.369303 0.750000
O O14 0.500000 0.318569 0.250000
#
# Coordination Sequence:
#
# PCOD9319813 Si02
#       7
#     8   8   8   4   4   8   8
#     4  11  26  44  71 104 133 184 229 291 359 420
#     4  11  24  39  64  95 132 178 223 276 337 398
#     4  10  23  43  68  97 136 177 228 280 348 411
#     4  10  22  40  62  96 126 176 224 270 328 400
#     4  10  24  40  62  98 130 178 222 280 338 398
#     4  11  24  44  67  96 138 185 228 287 343 418
#     4  11  23  47  70 101 140 177 226 290 353 431
#
# _framework density 22.829514
#
# number of rings (size 3 to 8) (size 9 to 14) (size 15 to 20)
#    0.000    1.333    1.667    2.500    4.667    4.000 
#    9.000    0.000    0.000    0.000    0.000    0.000 
#    0.000    0.000    0.000    0.000    0.000    0.000 
#
# Total GULP energy -133838.346744 kJ/mol
# GULP energy per Si atom -5576.597781 kJ/mol
# Density = 2.277755 g / cm^3
# Si number density = 22.829514 Si / 1000 Ang^3
#
#
#
# Elastic Constant Matrix: (Units=GPa)
#
#
# Indices 1 2 3 4 5 6 
#
# 1 94.1278 23.6765 16.8093 0.0000 0.0000 0.0000
# 2 23.6765 130.0616 9.1658 0.0000 0.0000 0.0000
# 3 16.8093 9.1658 20.3914 0.0000 0.0000 0.0000
# 4 0.0000 0.0000 0.0000 26.0518 0.0000 0.0000
# 5 0.0000 0.0000 0.0000 0.0000 42.1193 0.0000
# 6 0.0000 0.0000 0.0000 0.0000 0.0000 -168.2053
#
#
#
# Elastic Compliance Matrix: (Units=1/GPa)
#
#
# Indices 1 2 3 4 5 6 
#
# 1 0.012786 -0.001637 -0.009805 0.000000 0.000000 0.000000
# 2 -0.001637 0.008150 -0.002314 0.000000 0.000000 0.000000
# 3 -0.009805 -0.002314 0.058163 0.000000 0.000000 0.000000
# 4 0.000000 0.000000 0.000000 0.038385 0.000000 0.000000
# 5 0.000000 0.000000 0.000000 0.000000 0.023742 0.000000
# 6 0.000000 0.000000 0.000000 0.000000 0.000000 -0.005945
#
#
# Mechanical properties :
#
#
# Convention : Reuss Voigt Hill
#
# Bulk Modulus (GPa) = 19.38432 38.20936 28.79684
# Shear Modulus (GPa) = 27.77969 -7.01156 10.38407
#
# Velocity S-wave (km/s) = 3.49210 -1.75441 2.13504
# Velocity P-wave (km/s) = 4.97685 3.55939 4.32656
#
# Compressibility (1/GPa) = 0.05158808
#
# Stress axis : x y z
#
# Youngs Moduli (GPa) = 78.20783 122.70405 17.19316
#
# Poissons Ratio (x) = 0.20083 0.16857
# Poissons Ratio (y) = 0.12800 0.03979
# Poissons Ratio (z) = 0.76680 0.28395
#
# Static dielectric constant tensor:
#      x y z
#    x 1.964900 0.000000 0.000000 
#    y 0.000000 1.842240 0.000000 
#    z 0.000000 0.000000 2.112580 
# 
# From -- ./inp_files/6592.got.cif
#   From: 2010.05.17/outbox.cif.g08.bks.cpg/sg20_4_cif.got.tgz:6592.got - 2010.06.03 22:52:26.
