data_PCOD9319906
_publ_section_title
;
Structure prediction by ZEFSAII (Michael W. Deem and Ramdas Pophale) SiO2 
 PCOD9319906
Probable space group: C 2 2 21
;
_chemical_formula_sum "Si O2"
_cell_formula_units_Z 40
_cell_length_a 7.417916
_cell_length_b 7.317257
_cell_length_c 26.629423
_cell_angle_alpha 90.000000
_cell_angle_beta 90.000000
_cell_angle_gamma 90.000000
_cell_volume 1445.413066
_symmetry_space_group_name_H-M "C 2 2 21"
_symmetry_group_IT_number 20
_symmetry_cell_setting 'orthorhombic'
loop_
_space_group_symop_operation_xyz
x,y,z
-x,-y,1/2+z
x,-y,-z
-x,y,1/2-z
1/2+x,1/2+y,z
1/2-x,1/2-y,1/2+z
1/2+x,1/2-y,-z
1/2-x,1/2+y,1/2-z
loop_
_atom_site_type_symbol
_atom_site_label
_atom_site_fract_x
_atom_site_fract_y
_atom_site_fract_z
Si Si1 0.612185 0.675187 0.296537
Si Si2 0.336035 0.808435 0.574849
Si Si3 0.161056 0.098569 0.122737
Si Si4 0.997343 0.422003 0.675357
Si Si5 0.955319 0.186850 0.476352
O O1 0.500000 0.595548 0.250000
O O2 0.526578 0.592186 0.347145
O O3 0.828012 0.655197 0.293519
O O4 0.557403 0.885885 0.302409
O O5 0.312242 0.609304 0.602438
O O6 0.148086 0.852185 0.548217
O O7 0.463895 0.809630 0.525647
O O8 0.416863 0.930494 0.618896
O O9 0.160718 0.223964 0.073188
O O10 0.309965 0.169813 0.162542
O O11 0.881580 0.000000 0.500000
#
# Coordination Sequence:
#
# PCOD9319906 Si02
#       5
#     8   8   8   8   8
#     4  12  31  51  80 114 155 208 274 340 414 478
#     4  11  23  44  73 113 154 211 258 328 395 495
#     4  11  24  48  77 110 157 204 265 332 408 478
#     4  12  26  50  77 113 153 204 260 333 404 483
#     4  10  22  40  71 115 152 203 257 317 398 489
#
# _framework density 27.673749999999998
#
# number of rings (size 3 to 8) (size 9 to 14) (size 15 to 20)
#    0.000    0.800    4.000    1.200    5.600    3.200 
#    0.000    1.000    0.000    0.000    0.000    0.000 
#    0.000    0.000    0.000    0.000    0.000    0.000 
#
# Total GULP energy -111890.466525 kJ/mol
# GULP energy per Si atom -5594.523326 kJ/mol
# Density = 2.761076 g / cm^3
# Si number density = 27.673750 Si / 1000 Ang^3
#
#
#
# Elastic Constant Matrix: (Units=GPa)
#
#
# Indices 1 2 3 4 5 6 
#
# 1 149.8765 17.7864 0.1226 0.0000 0.0000 0.0000
# 2 17.7864 43.2489 5.2218 0.0000 0.0000 0.0000
# 3 0.1226 5.2218 97.5784 0.0000 0.0000 0.0000
# 4 0.0000 0.0000 0.0000 34.4431 0.0000 0.0000
# 5 0.0000 0.0000 0.0000 0.0000 49.5151 0.0000
# 6 0.0000 0.0000 0.0000 0.0000 0.0000 37.3592
#
#
#
# Elastic Compliance Matrix: (Units=1/GPa)
#
#
# Indices 1 2 3 4 5 6 
#
# 1 0.007017 -0.002903 0.000147 0.000000 0.000000 0.000000
# 2 -0.002903 0.024474 -0.001306 0.000000 0.000000 0.000000
# 3 0.000147 -0.001306 0.010318 0.000000 0.000000 0.000000
# 4 0.000000 0.000000 0.000000 0.029033 0.000000 0.000000
# 5 0.000000 0.000000 0.000000 0.000000 0.020196 0.000000
# 6 0.000000 0.000000 0.000000 0.000000 0.000000 0.026767
#
#
# Mechanical properties :
#
#
# Convention : Reuss Voigt Hill
#
# Bulk Modulus (GPa) = 29.68898 37.44060 33.56479
# Shear Modulus (GPa) = 36.45441 42.10168 39.27805
#
# Velocity S-wave (km/s) = 3.63339 3.90469 3.77148
# Velocity P-wave (km/s) = 5.32480 5.82129 5.57857
#
# Compressibility (1/GPa) = 0.03368253
#
# Stress axis : x y z
#
# Youngs Moduli (GPa) = 142.51938 40.86025 96.91919
#
# Poissons Ratio (x) = 0.11863 -0.01420
# Poissons Ratio (y) = 0.41378 0.12658
# Poissons Ratio (z) = -0.02089 0.05337
#
# Static dielectric constant tensor:
#      x y z
#    x 2.201520 0.000000 0.000000 
#    y 0.000000 2.265830 0.000000 
#    z 0.000000 0.000000 2.212670 
# 
# From -- ./inp_files/30043.got.cif
#   From: 2010.05.17/outbox.cif.g08.bks.cpg/sg20_16_cif.got.tgz:30043.got - 2010.06.03 22:52:26.
