data_PCOD9319744
_publ_section_title
;
Structure prediction by ZEFSAII (Michael W. Deem and Ramdas Pophale) SiO2 
 PCOD9319744
Probable space group: C 2 2 21
;
_chemical_formula_sum "Si O2"
_cell_formula_units_Z 48
_cell_length_a 13.020288
_cell_length_b 16.597558
_cell_length_c 10.028720
_cell_angle_alpha 90.000000
_cell_angle_beta 90.000000
_cell_angle_gamma 90.000000
_cell_volume 2167.256388
_symmetry_space_group_name_H-M "C 2 2 21"
_symmetry_group_IT_number 20
_symmetry_cell_setting 'orthorhombic'
loop_
_space_group_symop_operation_xyz
x,y,z
-x,-y,1/2+z
x,-y,-z
-x,y,1/2-z
1/2+x,1/2+y,z
1/2-x,1/2-y,1/2+z
1/2+x,1/2-y,-z
1/2-x,1/2+y,1/2-z
loop_
_atom_site_type_symbol
_atom_site_label
_atom_site_fract_x
_atom_site_fract_y
_atom_site_fract_z
Si Si1 0.573218 0.389478 0.623804
Si Si2 0.167681 0.264871 0.502790
Si Si3 0.558784 0.614725 0.877364
Si Si4 0.193918 0.458975 0.858235
Si Si5 0.859086 0.719443 0.322326
Si Si6 0.297659 0.932527 0.110363
O O1 0.500000 0.388916 0.750000
O O2 0.597303 0.299705 0.570908
O O3 0.502030 0.417203 0.502919
O O4 0.684004 0.432259 0.647344
O O5 0.170801 0.263802 0.665368
O O6 0.275742 0.238513 0.437363
O O7 0.146366 0.353488 0.445210
O O8 0.500000 0.581281 0.750000
O O9 0.558439 0.712707 0.862569
O O10 0.677208 0.590151 0.876978
O O11 0.128792 0.377061 0.833100
O O12 0.171126 0.526654 0.748342
O O13 0.176201 0.500000 0.000000
O O14 0.307901 0.000000 0.000000
#
# Coordination Sequence:
#
# PCOD9319744 Si02
#       6
#     8   8   8   8   8   8
#     4  11  24  39  60  91 126 158 203 248 301 367
#     4  10  22  39  61  86 118 162 213 246 289 361
#     4  11  22  37  61  87 122 161 197 247 308 354
#     4  11  24  39  60  91 126 158 203 248 301 367
#     4  10  22  39  61  86 118 162 213 246 289 361
#     4  11  22  37  61  87 122 161 197 247 308 354
#
# _framework density 22.147817
#
# number of rings (size 3 to 8) (size 9 to 14) (size 15 to 20)
#    0.000    1.333    3.333    2.000   14.000    4.000 
#    0.000    0.000    0.000    6.000    0.000    0.000 
#    0.000    0.000    0.000    0.000    0.000    0.000 
#
# Total GULP energy -133914.530153 kJ/mol
# GULP energy per Si atom -5579.772090 kJ/mol
# Density = 2.209741 g / cm^3
# Si number density = 22.147817 Si / 1000 Ang^3
#
#
#
# Elastic Constant Matrix: (Units=GPa)
#
#
# Indices 1 2 3 4 5 6 
#
# 1 20.2072 18.4307 21.4653 0.0000 0.0000 0.0000
# 2 18.4307 110.7880 4.5321 0.0000 0.0000 0.0000
# 3 21.4653 4.5321 158.5550 0.0000 0.0000 0.0000
# 4 0.0000 0.0000 0.0000 52.5439 0.0000 0.0000
# 5 0.0000 0.0000 0.0000 0.0000 15.1431 0.0000
# 6 0.0000 0.0000 0.0000 0.0000 0.0000 80.0188
#
#
#
# Elastic Compliance Matrix: (Units=1/GPa)
#
#
# Indices 1 2 3 4 5 6 
#
# 1 0.069288 -0.011156 -0.009061 0.000000 0.000000 0.000000
# 2 -0.011156 0.010833 0.001201 0.000000 0.000000 0.000000
# 3 -0.009061 0.001201 0.007499 0.000000 0.000000 0.000000
# 4 0.000000 0.000000 0.000000 0.019032 0.000000 0.000000
# 5 0.000000 0.000000 0.000000 0.000000 0.066037 0.000000
# 6 0.000000 0.000000 0.000000 0.000000 0.000000 0.012497
#
#
# Mechanical properties :
#
#
# Convention : Reuss Voigt Hill
#
# Bulk Modulus (GPa) = 20.16660 42.04515 31.10588
# Shear Modulus (GPa) = 20.85516 45.88263 33.36890
#
# Velocity S-wave (km/s) = 3.07194 4.55648 3.88576
# Velocity P-wave (km/s) = 4.65914 6.83426 5.84871
#
# Compressibility (1/GPa) = 0.04958695
#
# Stress axis : x y z
#
# Youngs Moduli (GPa) = 14.43247 92.30997 133.34432
#
# Poissons Ratio (x) = 1.02982 1.20829
# Poissons Ratio (y) = 0.16101 -0.16010
# Poissons Ratio (z) = 0.13078 -0.11083
#
# Static dielectric constant tensor:
#      x y z
#    x 1.683210 0.000000 0.000000 
#    y 0.000000 1.855340 0.000000 
#    z 0.000000 0.000000 1.033640 
# 
# From -- ./inp_files/8383.got.cif
#   From: 2010.05.17/outbox.cif.g08.bks.cpg/sg20_5_cif.got.tgz:8383.got - 2010.06.03 22:52:26.
