data_PCOD9319063
_publ_section_title
;
Structure prediction by ZEFSAII (Michael W. Deem and Ramdas Pophale) SiO2 
 PCOD9319063
Probable space group: C 2 2 21
;
_chemical_formula_sum "Si O2"
_cell_formula_units_Z 36
_cell_length_a 4.981192
_cell_length_b 24.820247
_cell_length_c 10.810763
_cell_angle_alpha 90.000000
_cell_angle_beta 90.000000
_cell_angle_gamma 90.000000
_cell_volume 1336.582368
_symmetry_space_group_name_H-M "C 2 2 21"
_symmetry_group_IT_number 20
_symmetry_cell_setting 'orthorhombic'
loop_
_space_group_symop_operation_xyz
x,y,z
-x,-y,1/2+z
x,-y,-z
-x,y,1/2-z
1/2+x,1/2+y,z
1/2-x,1/2-y,1/2+z
1/2+x,1/2-y,-z
1/2-x,1/2+y,1/2-z
loop_
_atom_site_type_symbol
_atom_site_label
_atom_site_fract_x
_atom_site_fract_y
_atom_site_fract_z
Si Si1 0.939924 0.785719 0.986029
Si Si2 0.668039 0.864533 0.371237
Si Si3 0.590802 0.094822 0.383175
Si Si4 0.841314 0.988737 0.370710
Si Si5 0.500000 0.654152 0.250000
O O1 0.858919 0.805855 0.848084
O O2 0.180004 0.743054 0.959305
O O3 0.091515 0.825560 0.084448
O O4 0.500000 0.849682 0.250000
O O5 0.489645 0.875276 0.495847
O O6 0.772081 0.926246 0.355112
O O7 0.500000 0.114890 0.250000
O O8 0.895972 0.113837 0.359283
O O9 0.592792 0.030581 0.384988
O O10 0.000000 0.004926 0.250000
O O11 0.991029 0.000000 0.500000
#
# Coordination Sequence:
#
# PCOD9319063 Si02
#       5
#     8   8   8   8   4
#     4  11  28  50  74 107 145 197 257 321 378 442
#     4  10  24  45  68 108 146 185 243 310 382 437
#     4  10  21  41  72 101 143 188 240 289 367 463
#     4  10  21  39  64 104 148 188 237 294 368 454
#     4  10  24  46  72 100 140 192 250 298 374 460
#
# _framework density 26.934367000000002
#
# number of rings (size 3 to 8) (size 9 to 14) (size 15 to 20)
#    0.000    1.778    1.111    0.667    7.778    3.556 
#    0.000    0.000    0.000    0.000    0.000    0.000 
#    0.000    0.000    0.000    0.000    0.000    0.000 
#
# Total GULP energy -100335.272064 kJ/mol
# GULP energy per Si atom -5574.181781 kJ/mol
# Density = 2.687306 g / cm^3
# Si number density = 26.934367 Si / 1000 Ang^3
#
#
#
# Elastic Constant Matrix: (Units=GPa)
#
#
# Indices 1 2 3 4 5 6 
#
# 1 52.4442 35.8131 50.1594 0.0000 0.0000 0.0000
# 2 35.8131 121.3822 42.8995 0.0000 0.0000 0.0000
# 3 50.1594 42.8995 239.4463 0.0000 0.0000 0.0000
# 4 0.0000 0.0000 0.0000 32.7666 0.0000 0.0000
# 5 0.0000 0.0000 0.0000 0.0000 35.2049 0.0000
# 6 0.0000 0.0000 0.0000 0.0000 0.0000 10.5433
#
#
#
# Elastic Compliance Matrix: (Units=1/GPa)
#
#
# Indices 1 2 3 4 5 6 
#
# 1 0.028084 -0.006626 -0.004696 0.000000 0.000000 0.000000
# 2 -0.006626 0.010359 -0.000468 0.000000 0.000000 0.000000
# 3 -0.004696 -0.000468 0.005244 0.000000 0.000000 0.000000
# 4 0.000000 0.000000 0.000000 0.030519 0.000000 0.000000
# 5 0.000000 0.000000 0.000000 0.000000 0.028405 0.000000
# 6 0.000000 0.000000 0.000000 0.000000 0.000000 0.094847
#
#
# Mechanical properties :
#
#
# Convention : Reuss Voigt Hill
#
# Bulk Modulus (GPa) = 49.73479 74.55741 62.14610
# Shear Modulus (GPa) = 21.95478 34.66301 28.30890
#
# Velocity S-wave (km/s) = 2.85813 3.59129 3.24548
# Velocity P-wave (km/s) = 5.42191 6.70356 6.09651
#
# Compressibility (1/GPa) = 0.02010665
#
# Stress axis : x y z
#
# Youngs Moduli (GPa) = 35.60714 96.53575 190.70083
#
# Poissons Ratio (x) = 0.63969 0.89551
# Poissons Ratio (y) = 0.23595 0.08921
# Poissons Ratio (z) = 0.16721 0.04516
#
# Static dielectric constant tensor:
#      x y z
#    x -0.939370 0.000000 0.000000 
#    y 0.000000 2.260740 0.000000 
#    z 0.000000 0.000000 2.160860 
# 
# From -- ./inp_files/12039.got.cif
#   From: 2010.05.17/outbox.cif.g08.bks.cpg/sg20_7_cif.got.tgz:12039.got - 2010.06.03 22:52:26.
