data_PCOD9319436
_publ_section_title
;
Structure prediction by ZEFSAII (Michael W. Deem and Ramdas Pophale) SiO2 
 PCOD9319436
Probable space group: C 2 2 21
;
_chemical_formula_sum "Si O2"
_cell_formula_units_Z 36
_cell_length_a 12.397355
_cell_length_b 23.654797
_cell_length_c 5.053652
_cell_angle_alpha 90.000000
_cell_angle_beta 90.000000
_cell_angle_gamma 90.000000
_cell_volume 1482.018399
_symmetry_space_group_name_H-M "C 2 2 21"
_symmetry_group_IT_number 20
_symmetry_cell_setting 'orthorhombic'
loop_
_space_group_symop_operation_xyz
x,y,z
-x,-y,1/2+z
x,-y,-z
-x,y,1/2-z
1/2+x,1/2+y,z
1/2-x,1/2-y,1/2+z
1/2+x,1/2-y,-z
1/2-x,1/2+y,1/2-z
loop_
_atom_site_type_symbol
_atom_site_label
_atom_site_fract_x
_atom_site_fract_y
_atom_site_fract_z
Si Si1 0.500000 0.750828 0.750000
Si Si2 0.727877 0.500000 0.500000
Si Si3 0.000000 0.174853 0.250000
Si Si4 0.391782 0.061153 0.875882
Si Si5 0.216373 0.285262 0.991015
Si Si6 0.707070 0.607476 0.242101
O O1 0.535909 0.711801 0.503063
O O2 0.594828 0.786323 0.881680
O O3 0.806752 0.540930 0.659013
O O4 0.667758 0.544591 0.318338
O O5 0.100661 0.138969 0.135015
O O6 0.500000 0.087192 0.750000
O O7 0.316760 0.097548 0.073133
O O8 0.426257 0.000000 0.000000
O O9 0.271120 0.242896 0.776072
O O10 0.259921 0.348570 0.972181
#
# Coordination Sequence:
#
# PCOD9319436 Si02
#       6
#     4   4   4   8   8   8
#     4  12  24  48  73 110 145 202 250 312 390 452
#     4  10  24  44  70 102 146 194 248 306 384 456
#     4  12  26  48  77 100 157 206 246 320 378 456
#     4  10  21  42  69 101 145 193 243 312 385 456
#     4  12  25  46  74 107 146 192 252 309 379 454
#     4  11  26  45  73 107 146 199 255 317 382 470
#
# _framework density 24.291195999999999
#
# number of rings (size 3 to 8) (size 9 to 14) (size 15 to 20)
#    0.000    0.889    5.556    0.000    6.222    1.778 
#    8.000    0.000    0.000    0.000    0.000    0.000 
#    0.000    0.000    0.000    0.000    0.000    0.000 
#
# Total GULP energy -100490.021900 kJ/mol
# GULP energy per Si atom -5582.778994 kJ/mol
# Density = 2.423591 g / cm^3
# Si number density = 24.291196 Si / 1000 Ang^3
#
#
#
# Elastic Constant Matrix: (Units=GPa)
#
#
# Indices 1 2 3 4 5 6 
#
# 1 90.6463 31.4223 -0.9774 0.0000 0.0000 0.0000
# 2 31.4223 114.2255 25.3869 0.0000 0.0000 0.0000
# 3 -0.9774 25.3869 82.7473 0.0000 0.0000 0.0000
# 4 0.0000 0.0000 0.0000 34.0155 0.0000 0.0000
# 5 0.0000 0.0000 0.0000 0.0000 36.5828 0.0000
# 6 0.0000 0.0000 0.0000 0.0000 0.0000 36.6188
#
#
#
# Elastic Compliance Matrix: (Units=1/GPa)
#
#
# Indices 1 2 3 4 5 6 
#
# 1 0.012318 -0.003671 0.001272 0.000000 0.000000 0.000000
# 2 -0.003671 0.010489 -0.003262 0.000000 0.000000 0.000000
# 3 0.001272 -0.003262 0.013101 0.000000 0.000000 0.000000
# 4 0.000000 0.000000 0.000000 0.029398 0.000000 0.000000
# 5 0.000000 0.000000 0.000000 0.000000 0.027335 0.000000
# 6 0.000000 0.000000 0.000000 0.000000 0.000000 0.027308
#
#
# Mechanical properties :
#
#
# Convention : Reuss Voigt Hill
#
# Bulk Modulus (GPa) = 40.67292 44.36475 42.51884
# Shear Modulus (GPa) = 35.85059 36.89590 36.37324
#
# Velocity S-wave (km/s) = 3.84587 3.90154 3.87380
# Velocity P-wave (km/s) = 6.04162 6.21284 6.12783
#
# Compressibility (1/GPa) = 0.02458638
#
# Stress axis : x y z
#
# Youngs Moduli (GPa) = 81.18040 95.33401 76.33214
#
# Poissons Ratio (x) = 0.35000 -0.09708
# Poissons Ratio (y) = 0.29804 0.24896
# Poissons Ratio (z) = -0.10325 0.31093
#
# Static dielectric constant tensor:
#      x y z
#    x 2.003460 0.000000 0.000000 
#    y 0.000000 1.912310 0.000000 
#    z 0.000000 0.000000 2.436770 
# 
# From -- ./inp_files/1240.got.cif
#   From: 2010.05.17/outbox.cif.g08.bks.cpg/sg20_1_cif.got.tgz:1240.got - 2010.06.03 22:52:26.
