data_PCOD9319330
_publ_section_title
;
Structure prediction by ZEFSAII (Michael W. Deem and Ramdas Pophale) SiO2 
 PCOD9319330
Probable space group: C 2 2 21
;
_chemical_formula_sum "Si O2"
_cell_formula_units_Z 60
_cell_length_a 7.561093
_cell_length_b 12.123927
_cell_length_c 28.085903
_cell_angle_alpha 90.000000
_cell_angle_beta 90.000000
_cell_angle_gamma 90.000000
_cell_volume 2574.638648
_symmetry_space_group_name_H-M "C 2 2 21"
_symmetry_group_IT_number 20
_symmetry_cell_setting 'orthorhombic'
loop_
_space_group_symop_operation_xyz
x,y,z
-x,-y,1/2+z
x,-y,-z
-x,y,1/2-z
1/2+x,1/2+y,z
1/2-x,1/2-y,1/2+z
1/2+x,1/2-y,-z
1/2-x,1/2+y,1/2-z
loop_
_atom_site_type_symbol
_atom_site_label
_atom_site_fract_x
_atom_site_fract_y
_atom_site_fract_z
Si Si1 0.363322 0.155138 0.287921
Si Si2 0.408969 0.658069 0.648993
Si Si3 0.000000 0.254821 0.250000
Si Si4 0.520458 0.614491 0.474346
Si Si5 0.514716 0.184876 0.849448
Si Si6 0.545991 0.037958 0.118033
Si Si7 0.140074 0.074105 0.124352
Si Si8 0.881424 0.720130 0.446388
O O1 0.500000 0.103985 0.250000
O O2 0.458603 0.269182 0.305801
O O3 0.343717 0.092033 0.338580
O O4 0.171184 0.182910 0.265796
O O5 0.455582 0.530233 0.648409
O O6 0.459742 0.714022 0.599128
O O7 0.195860 0.672638 0.646571
O O8 0.943530 0.331091 0.294039
O O9 0.580800 0.500000 0.500000
O O10 0.394885 0.572152 0.432080
O O11 0.674942 0.688838 0.450728
O O12 0.428580 0.701521 0.509825
O O13 0.578342 0.306973 0.859581
O O14 0.592879 0.090550 0.882912
O O15 0.345289 0.056443 0.134842
O O16 0.552094 0.097139 0.066987
#
# Coordination Sequence:
#
# PCOD9319330 Si02
#       8
#     8   8   4   8   8   8   8   8
#     4  10  21  42  66  99 132 174 232 286 339 419
#     4   9  20  41  65  91 136 169 218 277 339 403
#     4  10  22  42  66  96 136 176 228 280 348 402
#     4  12  25  42  70 100 139 173 228 288 337 421
#     4  10  21  41  67  97 130 181 216 276 344 410
#     4  10  24  41  69  94 137 175 224 287 343 415
#     4  11  21  43  69  93 128 182 222 276 354 407
#     4  11  23  44  61  99 130 171 222 279 338 406
#
# _framework density 23.30424
#
# number of rings (size 3 to 8) (size 9 to 14) (size 15 to 20)
#    0.000    1.600    2.667    1.600    0.933    2.133 
#    6.000    0.000    0.000    0.000    0.000    0.000 
#    0.000    0.000    0.000    0.000    0.000    0.000 
#
# Total GULP energy -167311.033546 kJ/mol
# GULP energy per Si atom -5577.034452 kJ/mol
# Density = 2.325120 g / cm^3
# Si number density = 23.304240 Si / 1000 Ang^3
#
#
#
# Elastic Constant Matrix: (Units=GPa)
#
#
# Indices 1 2 3 4 5 6 
#
# 1 57.5882 13.0529 -7.1856 0.0000 0.0000 0.0000
# 2 13.0529 150.5985 22.8137 0.0000 0.0000 0.0000
# 3 -7.1856 22.8137 53.3874 0.0000 0.0000 0.0000
# 4 0.0000 0.0000 0.0000 31.0098 0.0000 0.0000
# 5 0.0000 0.0000 0.0000 0.0000 29.8584 0.0000
# 6 0.0000 0.0000 0.0000 0.0000 0.0000 21.8193
#
#
#
# Elastic Compliance Matrix: (Units=1/GPa)
#
#
# Indices 1 2 3 4 5 6 
#
# 1 0.018256 -0.002090 0.003350 0.000000 0.000000 0.000000
# 2 -0.002090 0.007339 -0.003417 0.000000 0.000000 0.000000
# 3 0.003350 -0.003417 0.020642 0.000000 0.000000 0.000000
# 4 0.000000 0.000000 0.000000 0.032248 0.000000 0.000000
# 5 0.000000 0.000000 0.000000 0.000000 0.033491 0.000000
# 6 0.000000 0.000000 0.000000 0.000000 0.000000 0.045831
#
#
# Mechanical properties :
#
#
# Convention : Reuss Voigt Hill
#
# Bulk Modulus (GPa) = 23.85292 35.43734 29.64513
# Shear Modulus (GPa) = 28.39351 32.06370 30.22861
#
# Velocity S-wave (km/s) = 3.49432 3.71330 3.60547
# Velocity P-wave (km/s) = 5.15151 5.79864 5.48463
#
# Compressibility (1/GPa) = 0.04192358
#
# Stress axis : x y z
#
# Youngs Moduli (GPa) = 54.77540 136.25831 48.44427
#
# Poissons Ratio (x) = 0.28476 -0.16230
# Poissons Ratio (y) = 0.11447 0.16555
# Poissons Ratio (z) = -0.18351 0.46565
#
# Static dielectric constant tensor:
#      x y z
#    x 1.913060 0.000000 0.000000 
#    y 0.000000 1.968510 0.000000 
#    z 0.000000 0.000000 1.930130 
# 
# From -- ./inp_files/30168.got.cif
#   From: 2010.05.17/outbox.cif.g08.bks.cpg/sg20_16_cif.got.tgz:30168.got - 2010.06.03 22:52:26.
