data_PCOD9319003
_publ_section_title
;
Structure prediction by ZEFSAII (Michael W. Deem and Ramdas Pophale) SiO2 
 PCOD9319003
Probable space group: C 2 2 21
;
_chemical_formula_sum "Si O2"
_cell_formula_units_Z 56
_cell_length_a 15.469535
_cell_length_b 11.014435
_cell_length_c 14.291775
_cell_angle_alpha 90.000000
_cell_angle_beta 90.000000
_cell_angle_gamma 90.000000
_cell_volume 2435.149642
_symmetry_space_group_name_H-M "C 2 2 21"
_symmetry_group_IT_number 20
_symmetry_cell_setting 'orthorhombic'
loop_
_space_group_symop_operation_xyz
x,y,z
-x,-y,1/2+z
x,-y,-z
-x,y,1/2-z
1/2+x,1/2+y,z
1/2-x,1/2-y,1/2+z
1/2+x,1/2-y,-z
1/2-x,1/2+y,1/2-z
loop_
_atom_site_type_symbol
_atom_site_label
_atom_site_fract_x
_atom_site_fract_y
_atom_site_fract_z
Si Si1 0.362017 0.373032 0.953494
Si Si2 0.669591 0.178359 0.092598
Si Si3 0.330409 0.178359 0.092598
Si Si4 0.597909 0.996425 0.750000
Si Si5 0.862017 0.126968 0.453494
Si Si6 0.767184 0.860115 0.250000
Si Si7 0.094010 0.928845 0.750000
O O1 0.257023 0.379952 0.948235
O O2 0.396742 0.360819 0.848283
O O3 0.392356 0.500000 0.000000
O O4 0.381818 0.253715 0.014493
O O5 0.617601 0.085979 0.158023
O O6 0.706591 0.282153 0.161076
O O7 0.618183 0.253715 0.014493
O O8 0.382399 0.085980 0.158023
O O9 0.242977 0.120048 0.051765
O O10 0.293409 0.282154 0.161076
O O11 0.500000 0.037904 0.750000
O O12 0.668584 0.101372 0.750000
O O13 0.896742 0.139181 0.348284
O O14 0.892356 0.000000 0.500000
O O15 0.825856 0.979452 0.250000
O O16 0.000000 0.991520 0.750000
#
# Coordination Sequence:
#
# PCOD9319003 Si02
#       7
#     8   8   8   8   8   8   8
#     4  11  21  41  64  92 122 166 212 264 317 372
#     4  10  21  38  69  91 125 171 213 252 322 383
#     4  10  21  38  69  91 125 171 213 252 322 383
#     4  11  22  39  67  99 129 166 213 264 314 374
#     4  11  21  41  64  92 122 166 212 264 317 372
#     4  11  20  43  62  95 133 166 209 261 318 379
#     4  12  24  38  59  88 126 164 204 259 322 371
#
# _framework density 22.996532999999999
#
# number of rings (size 3 to 8) (size 9 to 14) (size 15 to 20)
#    0.000    1.143    5.714    0.857    0.000    4.000 
#    0.000    2.857    0.000   16.286    0.000    0.000 
#    0.000    0.000    0.000    0.000    0.000    0.000 
#
# Total GULP energy -156673.313431 kJ/mol
# GULP energy per Si atom -5595.475480 kJ/mol
# Density = 2.294419 g / cm^3
# Si number density = 22.996533 Si / 1000 Ang^3
#
#
#
# Elastic Constant Matrix: (Units=GPa)
#
#
# Indices 1 2 3 4 5 6 
#
# 1 104.4894 6.7107 4.9073 0.0000 0.0000 0.0000
# 2 6.7107 38.5458 42.7208 0.0000 0.0000 0.0000
# 3 4.9073 42.7208 150.2899 0.0000 0.0000 0.0000
# 4 0.0000 0.0000 0.0000 14.1166 0.0000 0.0000
# 5 0.0000 0.0000 0.0000 0.0000 2.8590 0.0000
# 6 0.0000 0.0000 0.0000 0.0000 0.0000 -14.8340
#
#
#
# Elastic Compliance Matrix: (Units=1/GPa)
#
#
# Indices 1 2 3 4 5 6 
#
# 1 0.009684 -0.001950 0.000238 0.000000 0.000000 0.000000
# 2 -0.001950 0.038268 -0.010814 0.000000 0.000000 0.000000
# 3 0.000238 -0.010814 0.009720 0.000000 0.000000 0.000000
# 4 0.000000 0.000000 0.000000 0.070839 0.000000 0.000000
# 5 0.000000 0.000000 0.000000 0.000000 0.349768 0.000000
# 6 0.000000 0.000000 0.000000 0.000000 0.000000 -0.067413
#
#
# Mechanical properties :
#
#
# Convention : Reuss Voigt Hill
#
# Bulk Modulus (GPa) = 30.65560 44.66697 37.66128
# Shear Modulus (GPa) = 11.19087 16.36074 13.77581
#
# Velocity S-wave (km/s) = 2.20837 2.67018 2.45018
# Velocity P-wave (km/s) = 4.45668 5.38257 4.94136
#
# Compressibility (1/GPa) = 0.03262047
#
# Stress axis : x y z
#
# Youngs Moduli (GPa) = 103.25885 26.13132 102.87988
#
# Poissons Ratio (x) = 0.05095 -0.02449
# Poissons Ratio (y) = 0.20134 1.11258
# Poissons Ratio (z) = -0.02458 0.28259
#
# Static dielectric constant tensor:
#      x y z
#    x 1.841790 0.000000 0.000000 
#    y 0.000000 1.886320 0.000000 
#    z 0.000000 0.000000 1.922850 
# 
# From -- ./inp_files/20727.got.cif
#   From: 2010.05.17/outbox.cif.g08.bks.cpg/sg20_11_cif.got.tgz:20727.got - 2010.06.03 22:52:26.
