data_PCOD9319177
_publ_section_title
;
Structure prediction by ZEFSAII (Michael W. Deem and Ramdas Pophale) SiO2 
 PCOD9319177
Probable space group: C 2 2 21
;
_chemical_formula_sum "Si O2"
_cell_formula_units_Z 28
_cell_length_a 7.459486
_cell_length_b 12.472095
_cell_length_c 13.081443
_cell_angle_alpha 90.000000
_cell_angle_beta 90.000000
_cell_angle_gamma 90.000000
_cell_volume 1217.037518
_symmetry_space_group_name_H-M "C 2 2 21"
_symmetry_group_IT_number 20
_symmetry_cell_setting 'orthorhombic'
loop_
_space_group_symop_operation_xyz
x,y,z
-x,-y,1/2+z
x,-y,-z
-x,y,1/2-z
1/2+x,1/2+y,z
1/2-x,1/2-y,1/2+z
1/2+x,1/2-y,-z
1/2-x,1/2+y,1/2-z
loop_
_atom_site_type_symbol
_atom_site_label
_atom_site_fract_x
_atom_site_fract_y
_atom_site_fract_z
Si Si1 0.219135 0.153841 0.677462
Si Si2 0.594975 0.889272 0.388284
Si Si3 0.312156 0.873253 0.886131
Si Si4 0.500000 0.539014 0.250000
O O1 0.303172 0.158800 0.791250
O O2 0.392449 0.151924 0.604080
O O3 0.110440 0.259982 0.649588
O O4 0.109396 0.043678 0.677564
O O5 0.704471 0.870789 0.491483
O O6 0.578805 0.017232 0.367830
O O7 0.131685 0.892552 0.820776
#
# Coordination Sequence:
#
# PCOD9319177 Si02
#       4
#     8   8   8   4
#     4  10  21  40  63  89 124 161 204 257 308 363
#     4   9  21  40  61  92 125 162 206 248 315 371
#     4  10  21  41  64  91 129 162 203 259 302 362
#     4  10  22  38  64  94 120 162 214 250 302 368
#
# _framework density 23.006688
#
# number of rings (size 3 to 8) (size 9 to 14) (size 15 to 20)
#    0.000    2.286    0.000    1.714    0.000   11.429 
#    0.000   25.714    0.000    0.000    0.000    0.000 
#    0.000    0.000    0.000    0.000    0.000    0.000 
#
# Total GULP energy -78189.300494 kJ/mol
# GULP energy per Si atom -5584.950035 kJ/mol
# Density = 2.295432 g / cm^3
# Si number density = 23.006688 Si / 1000 Ang^3
#
#
#
# Elastic Constant Matrix: (Units=GPa)
#
#
# Indices 1 2 3 4 5 6 
#
# 1 54.5446 7.9484 10.3887 0.0000 0.0000 0.0000
# 2 7.9484 104.9483 35.2260 0.0000 0.0000 0.0000
# 3 10.3887 35.2260 95.3319 0.0000 0.0000 0.0000
# 4 0.0000 0.0000 0.0000 26.4335 0.0000 0.0000
# 5 0.0000 0.0000 0.0000 0.0000 32.0777 0.0000
# 6 0.0000 0.0000 0.0000 0.0000 0.0000 12.2822
#
#
#
# Elastic Compliance Matrix: (Units=1/GPa)
#
#
# Indices 1 2 3 4 5 6 
#
# 1 0.018787 -0.000840 -0.001737 0.000000 0.000000 0.000000
# 2 -0.000840 0.010915 -0.003942 0.000000 0.000000 0.000000
# 3 -0.001737 -0.003942 0.012135 0.000000 0.000000 0.000000
# 4 0.000000 0.000000 0.000000 0.037831 0.000000 0.000000
# 5 0.000000 0.000000 0.000000 0.000000 0.031174 0.000000
# 6 0.000000 0.000000 0.000000 0.000000 0.000000 0.081419
#
#
# Mechanical properties :
#
#
# Convention : Reuss Voigt Hill
#
# Bulk Modulus (GPa) = 34.72169 40.21675 37.46922
# Shear Modulus (GPa) = 23.26679 27.57613 25.42146
#
# Velocity S-wave (km/s) = 3.18355 3.46586 3.32770
# Velocity P-wave (km/s) = 5.35146 5.79091 5.57551
#
# Compressibility (1/GPa) = 0.02880044
#
# Stress axis : x y z
#
# Youngs Moduli (GPa) = 53.22875 91.61575 82.40317
#
# Poissons Ratio (x) = 0.07694 0.14313
# Poissons Ratio (y) = 0.04470 0.32481
# Poissons Ratio (z) = 0.09246 0.36112
#
# Static dielectric constant tensor:
#      x y z
#    x 1.881540 0.000000 0.000000 
#    y 0.000000 1.841160 0.000000 
#    z 0.000000 0.000000 1.839900 
# 
# From -- ./inp_files/12419.got.cif
#   From: 2010.05.17/outbox.cif.g08.bks.cpg/sg20_7_cif.got.tgz:12419.got - 2010.06.03 22:52:26.
