data_PCOD9319802
_publ_section_title
;
Structure prediction by ZEFSAII (Michael W. Deem and Ramdas Pophale) SiO2 
 PCOD9319802
Probable space group: C 2 2 21
;
_chemical_formula_sum "Si O2"
_cell_formula_units_Z 48
_cell_length_a 4.934472
_cell_length_b 16.098541
_cell_length_c 28.205788
_cell_angle_alpha 90.000000
_cell_angle_beta 90.000000
_cell_angle_gamma 90.000000
_cell_volume 2240.605740
_symmetry_space_group_name_H-M "C 2 2 21"
_symmetry_group_IT_number 20
_symmetry_cell_setting 'orthorhombic'
loop_
_space_group_symop_operation_xyz
x,y,z
-x,-y,1/2+z
x,-y,-z
-x,y,1/2-z
1/2+x,1/2+y,z
1/2-x,1/2-y,1/2+z
1/2+x,1/2-y,-z
1/2-x,1/2+y,1/2-z
loop_
_atom_site_type_symbol
_atom_site_label
_atom_site_fract_x
_atom_site_fract_y
_atom_site_fract_z
Si Si1 0.885870 0.310618 0.444096
Si Si2 0.396806 0.196985 0.443257
Si Si3 0.769683 0.827578 0.717548
Si Si4 0.278851 0.070660 0.122724
Si Si5 0.242401 0.042305 0.622601
Si Si6 0.739854 0.135228 0.782433
O O1 0.592079 0.274111 0.433846
O O2 0.907451 0.322411 0.500699
O O3 0.876192 0.398404 0.417502
O O4 0.102208 0.236983 0.431068
O O5 0.545537 0.121301 0.416580
O O6 0.500000 0.831721 0.750000
O O7 0.777027 0.869290 0.666487
O O8 0.838963 0.731024 0.708186
O O9 0.000000 0.867337 0.750000
O O10 0.502951 0.008201 0.141818
O O11 0.007798 0.018794 0.108054
O O12 0.167314 0.097071 0.667831
O O13 0.500000 0.096908 0.750000
O O14 0.000000 0.135409 0.750000
#
# Coordination Sequence:
#
# PCOD9319802 Si02
#       6
#     8   8   8   8   8   8
#     4  10  22  43  68  91 121 168 220 263 307 375
#     4  10  22  43  68  91 121 168 220 263 307 375
#     4  10  22  40  62  87 119 165 216 259 303 371
#     4  12  25  39  62  96 131 165 201 260 332 384
#     4  12  25  39  62  96 131 165 201 260 332 384
#     4  10  22  40  62  87 119 165 216 259 303 371
#
# _framework density 21.422781000000001
#
# number of rings (size 3 to 8) (size 9 to 14) (size 15 to 20)
#    0.000    1.333    0.000    5.000    0.000    8.667 
#    0.000    1.667    0.000    0.000    0.000    0.000 
#    0.000    0.000    0.000    0.000    0.000    0.000 
#
# Total GULP energy -133783.568522 kJ/mol
# GULP energy per Si atom -5574.315355 kJ/mol
# Density = 2.137402 g / cm^3
# Si number density = 21.422781 Si / 1000 Ang^3
#
#
#
# Elastic Constant Matrix: (Units=GPa)
#
#
# Indices 1 2 3 4 5 6 
#
# 1 73.7688 6.8215 10.0941 0.0000 0.0000 0.0000
# 2 6.8215 55.0756 36.7817 0.0000 0.0000 0.0000
# 3 10.0941 36.7817 68.5675 0.0000 0.0000 0.0000
# 4 0.0000 0.0000 0.0000 55.3003 0.0000 0.0000
# 5 0.0000 0.0000 0.0000 0.0000 26.8740 0.0000
# 6 0.0000 0.0000 0.0000 0.0000 0.0000 10.8080
#
#
#
# Elastic Compliance Matrix: (Units=1/GPa)
#
#
# Indices 1 2 3 4 5 6 
#
# 1 0.013845 -0.000551 -0.001743 0.000000 0.000000 0.000000
# 2 -0.000551 0.028315 -0.015108 0.000000 0.000000 0.000000
# 3 -0.001743 -0.015108 0.022945 0.000000 0.000000 0.000000
# 4 0.000000 0.000000 0.000000 0.018083 0.000000 0.000000
# 5 0.000000 0.000000 0.000000 0.000000 0.037211 0.000000
# 6 0.000000 0.000000 0.000000 0.000000 0.000000 0.092524
#
#
# Mechanical properties :
#
#
# Convention : Reuss Voigt Hill
#
# Bulk Modulus (GPa) = 33.00101 33.86739 33.43420
# Shear Modulus (GPa) = 19.39293 28.17745 23.78519
#
# Velocity S-wave (km/s) = 3.01200 3.63065 3.33569
# Velocity P-wave (km/s) = 5.24731 5.78090 5.52056
#
# Compressibility (1/GPa) = 0.03030210
#
# Stress axis : x y z
#
# Youngs Moduli (GPa) = 72.22686 35.31737 43.58256
#
# Poissons Ratio (x) = 0.01946 0.07595
# Poissons Ratio (y) = 0.03980 0.65843
# Poissons Ratio (z) = 0.12586 0.53357
#
# Static dielectric constant tensor:
#      x y z
#    x 1.649270 0.000000 0.000000 
#    y 0.000000 1.896980 0.000000 
#    z 0.000000 0.000000 1.866460 
# 
# From -- ./inp_files/29813.got.cif
#   From: 2010.05.17/outbox.cif.g08.bks.cpg/sg20_15_cif.got.tgz:29813.got - 2010.06.03 22:52:26.
