data_PCOD9319955
_publ_section_title
;
Structure prediction by ZEFSAII (Michael W. Deem and Ramdas Pophale) SiO2 
 PCOD9319955
Probable space group: C 2 2 21
;
_chemical_formula_sum "Si O2"
_cell_formula_units_Z 48
_cell_length_a 6.990010
_cell_length_b 25.569196
_cell_length_c 14.396036
_cell_angle_alpha 90.000000
_cell_angle_beta 90.000000
_cell_angle_gamma 90.000000
_cell_volume 2572.988193
_symmetry_space_group_name_H-M "C 2 2 21"
_symmetry_group_IT_number 20
_symmetry_cell_setting 'orthorhombic'
loop_
_space_group_symop_operation_xyz
x,y,z
-x,-y,1/2+z
x,-y,-z
-x,y,1/2-z
1/2+x,1/2+y,z
1/2-x,1/2-y,1/2+z
1/2+x,1/2-y,-z
1/2-x,1/2+y,1/2-z
loop_
_atom_site_type_symbol
_atom_site_label
_atom_site_fract_x
_atom_site_fract_y
_atom_site_fract_z
Si Si1 0.094326 0.300740 0.424677
Si Si2 0.000000 0.630648 0.750000
Si Si3 0.660969 0.558155 0.824251
Si Si4 0.832166 0.059751 0.327553
Si Si5 0.443956 0.627193 0.503987
Si Si6 0.787789 0.305831 0.582925
Si Si7 0.000000 0.632941 0.250000
O O1 0.269636 0.333303 0.470947
O O2 0.178070 0.246533 0.386053
O O3 0.991886 0.332950 0.341829
O O4 0.945617 0.290325 0.506818
O O5 0.176722 0.593179 0.724153
O O6 0.500000 0.548501 0.750000
O O7 0.729760 0.499858 0.850162
O O8 0.558171 0.590158 0.906076
O O9 0.901444 0.088541 0.419518
O O10 0.658214 0.094860 0.292597
O O11 0.000000 0.061289 0.250000
O O12 0.633920 0.657868 0.471615
O O13 0.894504 0.333306 0.669562
#
# Coordination Sequence:
#
# PCOD9319955 Si02
#       7
#     8   4   8   8   8   8   4
#     4  11  24  41  64  91 127 167 214 262 318 378
#     4  10  23  42  62  90 126 164 207 266 314 376
#     4  10  22  41  65  92 127 164 208 258 319 377
#     4  11  22  40  65  94 128 162 210 259 317 385
#     4  11  22  41  65  92 124 167 209 263 314 384
#     4  12  24  41  65  94 128 167 216 259 322 380
#     4  12  25  40  66  98 128 172 209 270 324 380
#
# _framework density 18.655352000000001
#
# number of rings (size 3 to 8) (size 9 to 14) (size 15 to 20)
#    0.000    1.000    5.000    2.000    0.000    2.667 
#    6.000    0.000    0.000    0.000    0.000    0.000 
#    0.000    0.000    0.000    0.000    0.000    0.000 
#
# Total GULP energy -133860.564722 kJ/mol
# GULP energy per Si atom -5577.523530 kJ/mol
# Density = 1.861289 g / cm^3
# Si number density = 18.655352 Si / 1000 Ang^3
#
#
#
# Elastic Constant Matrix: (Units=GPa)
#
#
# Indices 1 2 3 4 5 6 
#
# 1 70.9867 45.6728 40.2303 0.0000 0.0000 0.0000
# 2 45.6728 141.8685 47.2226 0.0000 0.0000 0.0000
# 3 40.2303 47.2226 84.9758 0.0000 0.0000 0.0000
# 4 0.0000 0.0000 0.0000 35.2634 0.0000 0.0000
# 5 0.0000 0.0000 0.0000 0.0000 35.5683 0.0000
# 6 0.0000 0.0000 0.0000 0.0000 0.0000 35.7585
#
#
#
# Elastic Compliance Matrix: (Units=1/GPa)
#
#
# Indices 1 2 3 4 5 6 
#
# 1 0.021169 -0.004269 -0.007650 0.000000 0.000000 0.000000
# 2 -0.004269 0.009509 -0.003264 0.000000 0.000000 0.000000
# 3 -0.007650 -0.003264 0.017203 0.000000 0.000000 0.000000
# 4 0.000000 0.000000 0.000000 0.028358 0.000000 0.000000
# 5 0.000000 0.000000 0.000000 0.000000 0.028115 0.000000
# 6 0.000000 0.000000 0.000000 0.000000 0.000000 0.027965
#
#
# Mechanical properties :
#
#
# Convention : Reuss Voigt Hill
#
# Bulk Modulus (GPa) = 57.08610 62.67582 59.88096
# Shear Modulus (GPa) = 29.66941 32.29838 30.98389
#
# Velocity S-wave (km/s) = 3.99230 4.16543 4.07978
# Velocity P-wave (km/s) = 7.20542 7.53684 7.37300
#
# Compressibility (1/GPa) = 0.01751740
#
# Stress axis : x y z
#
# Youngs Moduli (GPa) = 47.23869 105.15939 58.12815
#
# Poissons Ratio (x) = 0.44890 0.44467
# Poissons Ratio (y) = 0.20165 0.18970
# Poissons Ratio (z) = 0.36137 0.34319
#
# Static dielectric constant tensor:
#      x y z
#    x 1.660010 0.000000 0.000000 
#    y 0.000000 1.659510 0.000000 
#    z 0.000000 0.000000 1.603090 
# 
# From -- ./inp_files/17817.got.cif
#   From: 2010.05.17/outbox.cif.g08.bks.cpg/sg20_9_cif.got.tgz:17817.got - 2010.06.03 22:52:26.
