data_PCOD9319506
_publ_section_title
;
Structure prediction by ZEFSAII (Michael W. Deem and Ramdas Pophale) SiO2 
 PCOD9319506
Probable space group: C 2 2 21
;
_chemical_formula_sum "Si O2"
_cell_formula_units_Z 48
_cell_length_a 17.372023
_cell_length_b 11.581491
_cell_length_c 9.901883
_cell_angle_alpha 90.000000
_cell_angle_beta 90.000000
_cell_angle_gamma 90.000000
_cell_volume 1992.198736
_symmetry_space_group_name_H-M "C 2 2 21"
_symmetry_group_IT_number 20
_symmetry_cell_setting 'orthorhombic'
loop_
_space_group_symop_operation_xyz
x,y,z
-x,-y,1/2+z
x,-y,-z
-x,y,1/2-z
1/2+x,1/2+y,z
1/2-x,1/2-y,1/2+z
1/2+x,1/2-y,-z
1/2-x,1/2+y,1/2-z
loop_
_atom_site_type_symbol
_atom_site_label
_atom_site_fract_x
_atom_site_fract_y
_atom_site_fract_z
Si Si1 0.000000 0.794529 0.750000
Si Si2 0.156630 0.850308 0.219183
Si Si3 0.353494 0.346779 0.592577
Si Si4 0.500000 0.282429 0.250000
Si Si5 0.191199 0.418213 0.129371
Si Si6 0.817119 0.394533 0.821452
Si Si7 0.539186 0.133871 0.497578
O O1 0.070441 0.866764 0.817249
O O2 0.029960 0.709685 0.631132
O O3 0.222511 0.900863 0.313390
O O4 0.174878 0.713148 0.221147
O O5 0.073051 0.859292 0.283407
O O6 0.144965 0.882901 0.063798
O O7 0.343150 0.207133 0.602628
O O8 0.272854 0.398572 0.645076
O O9 0.492102 0.199268 0.379285
O O10 0.152147 0.490250 0.250463
O O11 0.190867 0.500000 0.000000
O O12 0.871456 0.367375 0.948316
O O13 0.513926 0.000000 0.500000
#
# Coordination Sequence:
#
# PCOD9319506 Si02
#       7
#     4   8   8   4   8   8   8
#     4  12  25  40  65  98 140 184 232 278 358 430
#     4  10  22  42  67  93 135 180 222 290 347 406
#     4  11  24  42  66  99 141 179 229 286 349 411
#     4  10  21  44  61  90 138 180 222 284 358 406
#     4  11  23  43  71 100 132 183 238 287 343 421
#     4  10  24  40  66  96 134 174 233 288 339 412
#     4  11  23  38  62  97 132 179 227 289 353 422
#
# _framework density 24.093982
#
# number of rings (size 3 to 8) (size 9 to 14) (size 15 to 20)
#    0.000    1.333    3.333    1.500    7.000    3.333 
#    0.000    0.833    0.000    0.000    0.000    0.000 
#    0.000    0.000    0.000    0.000    0.000    0.000 
#
# Total GULP energy -134239.157692 kJ/mol
# GULP energy per Si atom -5593.298237 kJ/mol
# Density = 2.403914 g / cm^3
# Si number density = 24.093982 Si / 1000 Ang^3
#
#
#
# Elastic Constant Matrix: (Units=GPa)
#
#
# Indices 1 2 3 4 5 6 
#
# 1 136.5393 -6.8196 34.6604 0.0000 0.0000 0.0000
# 2 -6.8196 71.1173 14.2286 0.0000 0.0000 0.0000
# 3 34.6604 14.2286 132.2352 0.0000 0.0000 0.0000
# 4 0.0000 0.0000 0.0000 21.2666 0.0000 0.0000
# 5 0.0000 0.0000 0.0000 0.0000 34.7074 0.0000
# 6 0.0000 0.0000 0.0000 0.0000 0.0000 15.2808
#
#
#
# Elastic Compliance Matrix: (Units=1/GPa)
#
#
# Indices 1 2 3 4 5 6 
#
# 1 0.007946 0.001205 -0.002212 0.000000 0.000000 0.000000
# 2 0.001205 0.014553 -0.001882 0.000000 0.000000 0.000000
# 3 -0.002212 -0.001882 0.008345 0.000000 0.000000 0.000000
# 4 0.000000 0.000000 0.000000 0.047022 0.000000 0.000000
# 5 0.000000 0.000000 0.000000 0.000000 0.028812 0.000000
# 6 0.000000 0.000000 0.000000 0.000000 0.000000 0.065442
#
#
# Mechanical properties :
#
#
# Convention : Reuss Voigt Hill
#
# Bulk Modulus (GPa) = 39.89666 47.11449 43.50558
# Shear Modulus (GPa) = 26.84519 34.10580 30.47550
#
# Velocity S-wave (km/s) = 3.34156 3.76644 3.56034
# Velocity P-wave (km/s) = 5.61095 6.20578 5.91584
#
# Compressibility (1/GPa) = 0.02506476
#
# Stress axis : x y z
#
# Youngs Moduli (GPa) = 125.85523 68.71312 119.83789
#
# Poissons Ratio (x) = -0.08277 0.26511
# Poissons Ratio (y) = -0.15160 0.22549
# Poissons Ratio (z) = 0.27842 0.12930
#
# Static dielectric constant tensor:
#      x y z
#    x 1.959110 0.000000 0.000000 
#    y 0.000000 1.984940 0.000000 
#    z 0.000000 0.000000 1.886160 
# 
# From -- ./inp_files/9388.got.cif
#   From: 2010.05.17/outbox.cif.g08.bks.cpg/sg20_5_cif.got.tgz:9388.got - 2010.06.03 22:52:26.
