data_PCOD9319871
_publ_section_title
;
Structure prediction by ZEFSAII (Michael W. Deem and Ramdas Pophale) SiO2 
 PCOD9319871
Probable space group: C 2 2 21
;
_chemical_formula_sum "Si O2"
_cell_formula_units_Z 60
_cell_length_a 25.982047
_cell_length_b 17.610247
_cell_length_c 5.941358
_cell_angle_alpha 90.000000
_cell_angle_beta 90.000000
_cell_angle_gamma 90.000000
_cell_volume 2718.469929
_symmetry_space_group_name_H-M "C 2 2 21"
_symmetry_group_IT_number 20
_symmetry_cell_setting 'orthorhombic'
loop_
_space_group_symop_operation_xyz
x,y,z
-x,-y,1/2+z
x,-y,-z
-x,y,1/2-z
1/2+x,1/2+y,z
1/2-x,1/2-y,1/2+z
1/2+x,1/2-y,-z
1/2-x,1/2+y,1/2-z
loop_
_atom_site_type_symbol
_atom_site_label
_atom_site_fract_x
_atom_site_fract_y
_atom_site_fract_z
Si Si1 0.944375 0.793151 0.136327
Si Si2 0.635688 0.825027 0.515791
Si Si3 0.477353 0.907636 0.500526
Si Si4 0.634414 0.080256 0.876697
Si Si5 0.094007 0.912908 0.020889
Si Si6 0.782453 0.674656 0.400501
Si Si7 0.000000 0.864024 0.750000
Si Si8 0.321506 0.304204 0.692726
O O1 0.915638 0.865890 0.247335
O O2 0.000000 0.783367 0.250000
O O3 0.909538 0.719100 0.143431
O O4 0.960157 0.812449 0.884001
O O5 0.623917 0.903988 0.388133
O O6 0.683863 0.835790 0.677192
O O7 0.650071 0.762323 0.328317
O O8 0.500000 0.883334 0.250000
O O9 0.417248 0.884725 0.486161
O O10 0.480174 0.000000 0.500000
O O11 0.500000 0.886767 0.750000
O O12 0.689240 0.118993 0.926377
O O13 0.637434 0.000000 0.000000
O O14 0.137106 0.863457 0.894493
O O15 0.036989 0.911389 0.910402
O O16 0.110727 0.000000 0.000000
O O17 0.722955 0.661697 0.350892
O O18 0.792017 0.760128 0.490804
#
# Coordination Sequence:
#
# PCOD9319871 Si02
#       8
#     8   8   8   8   8   8   4   8
#     4  10  22  41  65  98 140 177 231 284 338 424
#     4  11  22  43  68  92 128 177 223 285 343 422
#     4   9  19  39  65  92 132 181 226 277 347 434
#     4  10  25  44  64  98 133 173 226 290 366 419
#     4  11  24  40  65 101 143 183 224 283 356 429
#     4  11  23  42  71  92 125 178 227 290 351 424
#     4  10  22  40  66  96 144 180 226 270 334 432
#     4  11  22  44  67  96 127 173 235 280 348 422
#
# _framework density 22.071238999999998
#
# number of rings (size 3 to 8) (size 9 to 14) (size 15 to 20)
#    0.000    1.600    4.000    0.000    4.667    0.533 
#    6.000    0.000    0.000    0.000    0.000    0.000 
#    0.000    0.000    0.000    0.000    0.000    0.000 
#
# Total GULP energy -167277.448377 kJ/mol
# GULP energy per Si atom -5575.914946 kJ/mol
# Density = 2.202100 g / cm^3
# Si number density = 22.071239 Si / 1000 Ang^3
#
#
#
# Elastic Constant Matrix: (Units=GPa)
#
#
# Indices 1 2 3 4 5 6 
#
# 1 102.6812 15.3555 8.9697 0.0000 0.0000 0.0000
# 2 15.3555 74.7657 22.1753 0.0000 0.0000 0.0000
# 3 8.9697 22.1753 65.3068 0.0000 0.0000 0.0000
# 4 0.0000 0.0000 0.0000 12.7678 0.0000 0.0000
# 5 0.0000 0.0000 0.0000 0.0000 38.7100 0.0000
# 6 0.0000 0.0000 0.0000 0.0000 0.0000 31.0198
#
#
#
# Elastic Compliance Matrix: (Units=1/GPa)
#
#
# Indices 1 2 3 4 5 6 
#
# 1 0.010081 -0.001846 -0.000758 0.000000 0.000000 0.000000
# 2 -0.001846 0.015211 -0.004911 0.000000 0.000000 0.000000
# 3 -0.000758 -0.004911 0.017084 0.000000 0.000000 0.000000
# 4 0.000000 0.000000 0.000000 0.078322 0.000000 0.000000
# 5 0.000000 0.000000 0.000000 0.000000 0.025833 0.000000
# 6 0.000000 0.000000 0.000000 0.000000 0.000000 0.032237
#
#
# Mechanical properties :
#
#
# Convention : Reuss Voigt Hill
#
# Bulk Modulus (GPa) = 36.56829 37.30608 36.93718
# Shear Modulus (GPa) = 24.64095 29.58306 27.11201
#
# Velocity S-wave (km/s) = 3.34492 3.66504 3.50864
# Velocity P-wave (km/s) = 5.61447 5.90333 5.76071
#
# Compressibility (1/GPa) = 0.02734609
#
# Stress axis : x y z
#
# Youngs Moduli (GPa) = 99.19551 65.74233 58.53376
#
# Poissons Ratio (x) = 0.12134 0.04436
# Poissons Ratio (y) = 0.18308 0.28749
# Poissons Ratio (z) = 0.07518 0.32289
#
# Static dielectric constant tensor:
#      x y z
#    x 1.815000 0.000000 0.000000 
#    y 0.000000 1.837370 0.000000 
#    z 0.000000 0.000000 1.907650 
# 
# From -- ./inp_files/4331.got.cif
#   From: 2010.05.17/outbox.cif.g08.bks.cpg/sg20_3_cif.got.tgz:4331.got - 2010.06.03 22:52:26.
