data_PCOD9319739
_publ_section_title
;
Structure prediction by ZEFSAII (Michael W. Deem and Ramdas Pophale) SiO2 
 PCOD9319739
Probable space group: C 2 2 21
;
_chemical_formula_sum "Si O2"
_cell_formula_units_Z 64
_cell_length_a 14.194158
_cell_length_b 10.040598
_cell_length_c 25.280107
_cell_angle_alpha 90.000000
_cell_angle_beta 90.000000
_cell_angle_gamma 90.000000
_cell_volume 3602.866104
_symmetry_space_group_name_H-M "C 2 2 21"
_symmetry_group_IT_number 20
_symmetry_cell_setting 'orthorhombic'
loop_
_space_group_symop_operation_xyz
x,y,z
-x,-y,1/2+z
x,-y,-z
-x,y,1/2-z
1/2+x,1/2+y,z
1/2-x,1/2-y,1/2+z
1/2+x,1/2-y,-z
1/2-x,1/2+y,1/2-z
loop_
_atom_site_type_symbol
_atom_site_label
_atom_site_fract_x
_atom_site_fract_y
_atom_site_fract_z
Si Si1 0.257169 0.505806 0.839380
Si Si2 0.389623 0.924710 0.250000
Si Si3 0.757169 0.005806 0.660620
Si Si4 0.389267 0.840991 0.491903
Si Si5 0.890748 0.895448 0.750000
Si Si6 0.731106 0.245924 0.087806
Si Si7 0.889267 0.659009 0.991903
Si Si8 0.731107 0.245924 0.412194
O O1 0.165671 0.523966 0.801850
O O2 0.338930 0.454414 0.800950
O O3 0.240683 0.395979 0.884147
O O4 0.283800 0.643570 0.867426
O O5 0.500000 0.960385 0.250000
O O6 0.334329 0.976033 0.198150
O O7 0.381380 0.764409 0.250000
O O8 0.838929 0.954415 0.699050
O O9 0.740684 0.895979 0.615853
O O10 0.783801 0.143570 0.632574
O O11 0.350629 0.766358 0.544038
O O12 0.500000 0.818881 0.483480
O O13 0.325614 0.788343 0.443720
O O14 0.374129 0.000000 0.500000
O O15 0.000000 0.929571 0.750000
O O16 0.825614 0.288343 0.056280
O O17 0.850628 0.733642 0.044038
O O18 0.874128 0.500000 0.000000
#
# Coordination Sequence:
#
# PCOD9319739 Si02
#       8
#     8   8   8   8   8   8   8   8
#     4  11  22  39  61  88 120 155 192 241 297 345
#     4  10  22  39  62  89 116 155 201 238 284 354
#     4  11  22  39  61  88 120 155 192 241 297 345
#     4  10  22  39  61  89 118 154 201 243 286 351
#     4  10  22  39  60  89 120 151 195 244 290 348
#     4  11  22  39  61  88 120 155 192 243 296 344
#     4  10  22  39  61  89 118 154 201 243 286 351
#     4  11  22  39  61  88 120 155 192 243 296 344
#
# _framework density 17.763635000000001
#
# number of rings (size 3 to 8) (size 9 to 14) (size 15 to 20)
#    0.000    1.500    5.000    0.000    0.000    4.000 
#    0.000    2.500    0.000    0.000    0.000    0.000 
#    0.000    0.000    0.000    0.000    0.000    0.000 
#
# Total GULP energy -178688.771390 kJ/mol
# GULP energy per Si atom -5584.024106 kJ/mol
# Density = 1.772320 g / cm^3
# Si number density = 17.763635 Si / 1000 Ang^3
#
#
#
# Elastic Constant Matrix: (Units=GPa)
#
#
# Indices 1 2 3 4 5 6 
#
# 1 140.8805 35.2942 45.8763 0.0000 0.0000 0.0000
# 2 35.2942 55.7071 6.9082 0.0000 0.0000 0.0000
# 3 45.8763 6.9082 74.1232 0.0000 0.0000 0.0000
# 4 0.0000 0.0000 0.0000 46.9207 0.0000 0.0000
# 5 0.0000 0.0000 0.0000 0.0000 5.4754 0.0000
# 6 0.0000 0.0000 0.0000 0.0000 0.0000 26.4265
#
#
#
# Elastic Compliance Matrix: (Units=1/GPa)
#
#
# Indices 1 2 3 4 5 6 
#
# 1 0.010525 -0.005929 -0.005961 0.000000 0.000000 0.000000
# 2 -0.005929 0.021501 0.001666 0.000000 0.000000 0.000000
# 3 -0.005961 0.001666 0.017026 0.000000 0.000000 0.000000
# 4 0.000000 0.000000 0.000000 0.021313 0.000000 0.000000
# 5 0.000000 0.000000 0.000000 0.000000 0.182635 0.000000
# 6 0.000000 0.000000 0.000000 0.000000 0.000000 0.037841
#
#
# Mechanical properties :
#
#
# Convention : Reuss Voigt Hill
#
# Bulk Modulus (GPa) = 34.96290 49.65202 42.30746
# Shear Modulus (GPa) = 15.58492 27.93999 21.76245
#
# Velocity S-wave (km/s) = 2.96522 3.97025 3.50396
# Velocity P-wave (km/s) = 5.60789 7.00210 6.34341
#
# Compressibility (1/GPa) = 0.02860175
#
# Stress axis : x y z
#
# Youngs Moduli (GPa) = 95.01311 46.50981 58.73542
#
# Poissons Ratio (x) = 0.27575 0.35015
# Poissons Ratio (y) = 0.56333 -0.09783
# Poissons Ratio (z) = 0.56642 -0.07747
#
# Static dielectric constant tensor:
#      x y z
#    x 1.571570 0.000000 0.000000 
#    y 0.000000 1.586240 0.000000 
#    z 0.000000 0.000000 1.607320 
# 
# From -- ./inp_files/28879.got.cif
#   From: 2010.05.17/outbox.cif.g08.bks.cpg/sg20_15_cif.got.tgz:28879.got - 2010.06.03 22:52:26.
