data_PCOD9319179
_publ_section_title
;
Structure prediction by ZEFSAII (Michael W. Deem and Ramdas Pophale) SiO2 
 PCOD9319179
Probable space group: C 2 2 21
;
_chemical_formula_sum "Si O2"
_cell_formula_units_Z 32
_cell_length_a 11.668835
_cell_length_b 15.590625
_cell_length_c 8.378542
_cell_angle_alpha 90.000000
_cell_angle_beta 90.000000
_cell_angle_gamma 90.000000
_cell_volume 1524.261483
_symmetry_space_group_name_H-M "C 2 2 21"
_symmetry_group_IT_number 20
_symmetry_cell_setting 'orthorhombic'
loop_
_space_group_symop_operation_xyz
x,y,z
-x,-y,1/2+z
x,-y,-z
-x,y,1/2-z
1/2+x,1/2+y,z
1/2-x,1/2-y,1/2+z
1/2+x,1/2-y,-z
1/2-x,1/2+y,1/2-z
loop_
_atom_site_type_symbol
_atom_site_label
_atom_site_fract_x
_atom_site_fract_y
_atom_site_fract_z
Si Si1 0.000000 0.889648 0.750000
Si Si2 0.360726 0.500000 0.500000
Si Si3 0.295657 0.156024 0.962438
Si Si4 0.500000 0.905269 0.250000
Si Si5 0.743739 0.665861 0.330593
Si Si6 0.842097 0.500000 0.500000
O O1 0.893689 0.835303 0.812317
O O2 0.058649 0.950038 0.879697
O O3 0.279073 0.428365 0.421180
O O4 0.415520 0.146154 0.869381
O O5 0.230159 0.242759 0.910377
O O6 0.301477 0.157815 0.155652
O O7 0.420793 0.964411 0.359211
O O8 0.773565 0.582214 0.434178
#
# Coordination Sequence:
#
# PCOD9319179 Si02
#       6
#     4   4   8   4   8   4
#     4  10  21  40  63  90 122 162 203 254 315 376
#     4  10  22  42  62  90 124 160 204 258 312 374
#     4  11  24  42  64  93 130 167 213 266 318 381
#     4  12  23  42  65  92 128 172 215 264 319 378
#     4  11  24  42  65  95 129 167 212 265 320 381
#     4  12  24  42  66  94 128 170 214 266 320 378
#
# _framework density 20.993773999999998
#
# number of rings (size 3 to 8) (size 9 to 14) (size 15 to 20)
#    0.000    1.000    0.000    8.250    0.000    4.000 
#    0.000    1.250    0.000    0.000    0.000    0.000 
#    0.000    0.000    0.000    0.000    0.000    0.000 
#
# Total GULP energy -89419.070426 kJ/mol
# GULP energy per Si atom -5588.691902 kJ/mol
# Density = 2.094599 g / cm^3
# Si number density = 20.993774 Si / 1000 Ang^3
#
#
#
# Elastic Constant Matrix: (Units=GPa)
#
#
# Indices 1 2 3 4 5 6 
#
# 1 104.1827 48.5247 47.9038 0.0000 0.0000 0.0000
# 2 48.5247 154.8873 45.1514 0.0000 0.0000 0.0000
# 3 47.9038 45.1514 89.9035 0.0000 0.0000 0.0000
# 4 0.0000 0.0000 0.0000 68.9725 0.0000 0.0000
# 5 0.0000 0.0000 0.0000 0.0000 34.1734 0.0000
# 6 0.0000 0.0000 0.0000 0.0000 0.0000 10.3032
#
#
#
# Elastic Compliance Matrix: (Units=1/GPa)
#
#
# Indices 1 2 3 4 5 6 
#
# 1 0.013490 -0.002496 -0.005934 0.000000 0.000000 0.000000
# 2 -0.002496 0.008026 -0.002700 0.000000 0.000000 0.000000
# 3 -0.005934 -0.002700 0.015641 0.000000 0.000000 0.000000
# 4 0.000000 0.000000 0.000000 0.014499 0.000000 0.000000
# 5 0.000000 0.000000 0.000000 0.000000 0.029263 0.000000
# 6 0.000000 0.000000 0.000000 0.000000 0.000000 0.097057
#
#
# Mechanical properties :
#
#
# Convention : Reuss Voigt Hill
#
# Bulk Modulus (GPa) = 67.13810 70.23703 68.68757
# Shear Modulus (GPa) = 24.36628 36.51606 30.44117
#
# Velocity S-wave (km/s) = 3.41052 4.17511 3.81203
# Velocity P-wave (km/s) = 6.89625 7.53464 7.22250
#
# Compressibility (1/GPa) = 0.01489467
#
# Stress axis : x y z
#
# Youngs Moduli (GPa) = 74.13011 124.60111 63.93372
#
# Poissons Ratio (x) = 0.31105 0.37939
# Poissons Ratio (y) = 0.18506 0.17265
# Poissons Ratio (z) = 0.43990 0.33648
#
# Static dielectric constant tensor:
#      x y z
#    x 1.723370 0.000000 0.000000 
#    y 0.000000 1.816140 0.000000 
#    z 0.000000 0.000000 1.752310 
# 
# From -- ./inp_files/6857.got.cif
#   From: 2010.05.17/outbox.cif.g08.bks.cpg/sg20_4_cif.got.tgz:6857.got - 2010.06.03 22:52:26.
