data_PCOD9319495
_publ_section_title
;
Structure prediction by ZEFSAII (Michael W. Deem and Ramdas Pophale) SiO2 
 PCOD9319495
Probable space group: C 2 2 21
;
_chemical_formula_sum "Si O2"
_cell_formula_units_Z 40
_cell_length_a 16.945511
_cell_length_b 8.105612
_cell_length_c 11.782532
_cell_angle_alpha 90.000000
_cell_angle_beta 90.000000
_cell_angle_gamma 90.000000
_cell_volume 1618.374805
_symmetry_space_group_name_H-M "C 2 2 21"
_symmetry_group_IT_number 20
_symmetry_cell_setting 'orthorhombic'
loop_
_space_group_symop_operation_xyz
x,y,z
-x,-y,1/2+z
x,-y,-z
-x,y,1/2-z
1/2+x,1/2+y,z
1/2-x,1/2-y,1/2+z
1/2+x,1/2-y,-z
1/2-x,1/2+y,1/2-z
loop_
_atom_site_type_symbol
_atom_site_label
_atom_site_fract_x
_atom_site_fract_y
_atom_site_fract_z
Si Si1 0.108268 0.677700 0.346786
Si Si2 0.012171 0.170573 0.453404
Si Si3 0.654967 0.524695 0.306470
Si Si4 0.784525 0.500000 0.500000
Si Si5 0.000000 0.403349 0.250000
Si Si6 0.211713 0.842719 0.925261
O O1 0.042667 0.724171 0.440441
O O2 0.192546 0.656960 0.408832
O O3 0.074052 0.520754 0.281899
O O4 0.122734 0.843364 0.273200
O O5 0.089556 0.104535 0.386438
O O6 0.977591 0.289404 0.357275
O O7 0.974296 0.000000 0.500000
O O8 0.730941 0.508010 0.386807
O O9 0.677225 0.631454 0.199243
O O10 0.821610 0.320647 0.486200
O O11 0.194839 0.000000 0.000000
#
# Coordination Sequence:
#
# PCOD9319495 Si02
#       6
#     8   8   8   4   4   8
#     4  10  23  42  68  98 141 179 241 287 354 426
#     4  10  21  45  68  96 137 182 236 286 364 431
#     4  10  21  43  70 102 138 189 229 287 359 434
#     4  10  22  38  62 106 136 186 230 272 344 424
#     4  12  24  38  72 104 122 190 242 300 338 420
#     4  11  23  40  71 106 143 189 229 287 356 428
#
# _framework density 24.716154
#
# number of rings (size 3 to 8) (size 9 to 14) (size 15 to 20)
#    0.000    1.600    5.000    1.800    5.600    3.200 
#    0.000    5.000    4.400    0.000    0.000    0.000 
#    0.000    0.000    0.000    0.000    0.000    0.000 
#
# Total GULP energy -111921.865242 kJ/mol
# GULP energy per Si atom -5596.093262 kJ/mol
# Density = 2.465990 g / cm^3
# Si number density = 24.716154 Si / 1000 Ang^3
#
#
#
# Elastic Constant Matrix: (Units=GPa)
#
#
# Indices 1 2 3 4 5 6 
#
# 1 62.8308 25.0022 14.6131 0.0000 0.0000 0.0000
# 2 25.0022 202.2965 90.0544 0.0000 0.0000 0.0000
# 3 14.6131 90.0544 105.5079 0.0000 0.0000 0.0000
# 4 0.0000 0.0000 0.0000 60.3083 0.0000 0.0000
# 5 0.0000 0.0000 0.0000 0.0000 11.3732 0.0000
# 6 0.0000 0.0000 0.0000 0.0000 0.0000 6.1493
#
#
#
# Elastic Compliance Matrix: (Units=1/GPa)
#
#
# Indices 1 2 3 4 5 6 
#
# 1 0.016791 -0.001677 -0.000894 0.000000 0.000000 0.000000
# 2 -0.001677 0.008140 -0.006715 0.000000 0.000000 0.000000
# 3 -0.000894 -0.006715 0.015334 0.000000 0.000000 0.000000
# 4 0.000000 0.000000 0.000000 0.016581 0.000000 0.000000
# 5 0.000000 0.000000 0.000000 0.000000 0.087926 0.000000
# 6 0.000000 0.000000 0.000000 0.000000 0.000000 0.162619
#
#
# Mechanical properties :
#
#
# Convention : Reuss Voigt Hill
#
# Bulk Modulus (GPa) = 46.10144 69.99719 58.04931
# Shear Modulus (GPa) = 15.00622 31.63054 23.31838
#
# Velocity S-wave (km/s) = 2.46670 3.58124 3.07489
# Velocity P-wave (km/s) = 5.17742 6.74406 6.01199
#
# Compressibility (1/GPa) = 0.02169130
#
# Stress axis : x y z
#
# Youngs Moduli (GPa) = 59.55532 122.85046 65.21616
#
# Poissons Ratio (x) = 0.20605 0.05830
# Poissons Ratio (y) = 0.09989 0.43795
# Poissons Ratio (z) = 0.05324 0.82499
#
# Static dielectric constant tensor:
#      x y z
#    x 1.991290 0.000000 0.000000 
#    y 0.000000 2.015870 0.000000 
#    z 0.000000 0.000000 1.896400 
# 
# From -- ./inp_files/16181.got.cif
#   From: 2010.05.17/outbox.cif.g08.bks.cpg/sg20_9_cif.got.tgz:16181.got - 2010.06.03 22:52:26.
