data_PCOD9319521
_publ_section_title
;
Structure prediction by ZEFSAII (Michael W. Deem and Ramdas Pophale) SiO2 
 PCOD9319521
Probable space group: C 2 2 21
;
_chemical_formula_sum "Si O2"
_cell_formula_units_Z 36
_cell_length_a 13.713113
_cell_length_b 5.423276
_cell_length_c 21.065007
_cell_angle_alpha 90.000000
_cell_angle_beta 90.000000
_cell_angle_gamma 90.000000
_cell_volume 1566.604499
_symmetry_space_group_name_H-M "C 2 2 21"
_symmetry_group_IT_number 20
_symmetry_cell_setting 'orthorhombic'
loop_
_space_group_symop_operation_xyz
x,y,z
-x,-y,1/2+z
x,-y,-z
-x,y,1/2-z
1/2+x,1/2+y,z
1/2-x,1/2-y,1/2+z
1/2+x,1/2-y,-z
1/2-x,1/2+y,1/2-z
loop_
_atom_site_type_symbol
_atom_site_label
_atom_site_fract_x
_atom_site_fract_y
_atom_site_fract_z
Si Si1 0.977676 0.782147 0.914394
Si Si2 0.846493 0.500000 0.000000
Si Si3 0.802403 0.328698 0.436631
Si Si4 0.408489 0.021371 0.796297
Si Si5 0.669038 0.479243 0.329066
O O1 0.954559 0.556645 0.866364
O O2 0.925161 0.000723 0.876748
O O3 0.091278 0.786940 0.927292
O O4 0.915709 0.717153 0.976122
O O5 0.774556 0.608887 0.052769
O O6 0.802384 0.500000 0.500000
O O7 0.763217 0.472644 0.374618
O O8 0.500000 0.021906 0.750000
O O9 0.347030 0.772983 0.791918
O O10 0.343879 0.269697 0.789246
#
# Coordination Sequence:
#
# PCOD9319521 Si02
#       5
#     8   4   8   8   8
#     4  10  24  39  63  96 132 169 216 264 323 388
#     4  12  22  40  58  98 136 166 210 270 314 400
#     4  12  22  38  65  94 131 179 210 264 331 387
#     4  10  21  44  69  91 130 173 213 275 329 373
#     4  10  22  42  63  96 131 159 224 267 317 388
#
# _framework density 22.979634000000001
#
# number of rings (size 3 to 8) (size 9 to 14) (size 15 to 20)
#    1.333    0.000    5.556    0.667    0.000    3.556 
#    0.000    2.222    0.000    0.000    0.000    0.000 
#    0.000    0.000    0.000    0.000    0.000    0.000 
#
# Total GULP energy -100493.298520 kJ/mol
# GULP energy per Si atom -5582.961029 kJ/mol
# Density = 2.292733 g / cm^3
# Si number density = 22.979634 Si / 1000 Ang^3
#
#
#
# Elastic Constant Matrix: (Units=GPa)
#
#
# Indices 1 2 3 4 5 6 
#
# 1 180.2142 26.5937 33.3651 0.0000 0.0000 0.0000
# 2 26.5937 123.2004 14.0233 0.0000 0.0000 0.0000
# 3 33.3651 14.0233 29.7046 0.0000 0.0000 0.0000
# 4 0.0000 0.0000 0.0000 -2.1001 0.0000 0.0000
# 5 0.0000 0.0000 0.0000 0.0000 18.4854 0.0000
# 6 0.0000 0.0000 0.0000 0.0000 0.0000 113.2989
#
#
#
# Elastic Compliance Matrix: (Units=1/GPa)
#
#
# Indices 1 2 3 4 5 6 
#
# 1 0.007056 -0.000656 -0.007615 0.000000 0.000000 0.000000
# 2 -0.000656 0.008639 -0.003341 0.000000 0.000000 0.000000
# 3 -0.007615 -0.003341 0.043796 0.000000 0.000000 0.000000
# 4 0.000000 0.000000 0.000000 -0.476169 0.000000 0.000000
# 5 0.000000 0.000000 0.000000 0.000000 0.054097 0.000000
# 6 0.000000 0.000000 0.000000 0.000000 0.000000 0.008826
#
#
# Mechanical properties :
#
#
# Convention : Reuss Voigt Hill
#
# Bulk Modulus (GPa) = 27.57487 53.45372 40.51429
# Shear Modulus (GPa) = -15.70145 43.21265 13.75560
#
# Velocity S-wave (km/s) = -2.61679 4.34115 2.44928
# Velocity P-wave (km/s) = 1.70165 6.95983 5.06631
#
# Compressibility (1/GPa) = 0.03626490
#
# Stress axis : x y z
#
# Youngs Moduli (GPa) = 141.72902 115.75659 22.83310
#
# Poissons Ratio (x) = 0.07596 0.17388
# Poissons Ratio (y) = 0.09300 0.07629
# Poissons Ratio (z) = 1.07933 0.38677
#
# Static dielectric constant tensor:
#      x y z
#    x 1.808320 0.000000 0.000000 
#    y 0.000000 1.876850 0.000000 
#    z 0.000000 0.000000 1.909610 
# 
# From -- ./inp_files/28196.got.cif
#   From: 2010.05.17/outbox.cif.g08.bks.cpg/sg20_15_cif.got.tgz:28196.got - 2010.06.03 22:52:26.
