data_PCOD9319052
_publ_section_title
;
Structure prediction by ZEFSAII (Michael W. Deem and Ramdas Pophale) SiO2 
 PCOD9319052
Probable space group: C 2 2 21
;
_chemical_formula_sum "Si O2"
_cell_formula_units_Z 36
_cell_length_a 18.889871
_cell_length_b 9.724477
_cell_length_c 8.232445
_cell_angle_alpha 90.000000
_cell_angle_beta 90.000000
_cell_angle_gamma 90.000000
_cell_volume 1512.251707
_symmetry_space_group_name_H-M "C 2 2 21"
_symmetry_group_IT_number 20
_symmetry_cell_setting 'orthorhombic'
loop_
_space_group_symop_operation_xyz
x,y,z
-x,-y,1/2+z
x,-y,-z
-x,y,1/2-z
1/2+x,1/2+y,z
1/2-x,1/2-y,1/2+z
1/2+x,1/2-y,-z
1/2-x,1/2+y,1/2-z
loop_
_atom_site_type_symbol
_atom_site_label
_atom_site_fract_x
_atom_site_fract_y
_atom_site_fract_z
Si Si1 0.388640 0.560063 0.324843
Si Si2 0.120904 0.517822 0.675381
Si Si3 0.142555 0.225294 0.752680
Si Si4 0.291436 0.221002 0.610397
Si Si5 0.500000 0.219852 0.750000
O O1 0.374765 0.500000 0.500000
O O2 0.399161 0.418360 0.228628
O O3 0.320386 0.650404 0.280707
O O4 0.450245 0.672296 0.342907
O O5 0.156978 0.500000 0.500000
O O6 0.099244 0.364616 0.726778
O O7 0.172058 0.587559 0.808033
O O8 0.053920 0.619507 0.657427
O O9 0.207934 0.215790 0.628046
O O10 0.179934 0.250597 0.929231
#
# Coordination Sequence:
#
# PCOD9319052 Si02
#       5
#     8   8   8   8   4
#     4   9  21  39  60  85 118 158 201 253 310 365
#     4  11  24  40  61  90 125 166 211 258 314 377
#     4  11  21  38  66  94 125 163 202 252 320 386
#     4  10  21  39  62  95 130 157 198 256 315 381
#     4  10  24  42  58  84 122 162 214 266 304 364
#
# _framework density 23.805561000000001
#
# number of rings (size 3 to 8) (size 9 to 14) (size 15 to 20)
#    0.000    1.778    0.000    3.333    0.000    9.778 
#    0.000    7.778    0.000    0.000    0.000    0.000 
#    0.000    0.000    0.000    0.000    0.000    0.000 
#
# Total GULP energy -100368.782400 kJ/mol
# GULP energy per Si atom -5576.043467 kJ/mol
# Density = 2.375138 g / cm^3
# Si number density = 23.805561 Si / 1000 Ang^3
#
#
#
# Elastic Constant Matrix: (Units=GPa)
#
#
# Indices 1 2 3 4 5 6 
#
# 1 53.7674 37.0887 -2.7157 0.0000 0.0000 0.0000
# 2 37.0887 210.2704 3.3393 0.0000 0.0000 0.0000
# 3 -2.7157 3.3393 68.2909 0.0000 0.0000 0.0000
# 4 0.0000 0.0000 0.0000 36.4592 0.0000 0.0000
# 5 0.0000 0.0000 0.0000 0.0000 13.9088 0.0000
# 6 0.0000 0.0000 0.0000 0.0000 0.0000 25.2494
#
#
#
# Elastic Compliance Matrix: (Units=1/GPa)
#
#
# Indices 1 2 3 4 5 6 
#
# 1 0.021247 -0.003764 0.001029 0.000000 0.000000 0.000000
# 2 -0.003764 0.005426 -0.000415 0.000000 0.000000 0.000000
# 3 0.001029 -0.000415 0.014704 0.000000 0.000000 0.000000
# 4 0.000000 0.000000 0.000000 0.027428 0.000000 0.000000
# 5 0.000000 0.000000 0.000000 0.000000 0.071897 0.000000
# 6 0.000000 0.000000 0.000000 0.000000 0.000000 0.039605
#
#
# Mechanical properties :
#
#
# Convention : Reuss Voigt Hill
#
# Bulk Modulus (GPa) = 28.50816 45.30591 36.90704
# Shear Modulus (GPa) = 25.21429 34.76456 29.98943
#
# Velocity S-wave (km/s) = 3.25803 3.82560 3.55317
# Velocity P-wave (km/s) = 5.11414 6.21181 5.68951
#
# Compressibility (1/GPa) = 0.03507768
#
# Stress axis : x y z
#
# Youngs Moduli (GPa) = 47.06539 184.28786 68.00659
#
# Poissons Ratio (x) = 0.69366 -0.06998
# Poissons Ratio (y) = 0.17716 0.02822
# Poissons Ratio (z) = -0.04843 0.07648
#
# Static dielectric constant tensor:
#      x y z
#    x 1.951690 0.000000 0.000000 
#    y 0.000000 2.001800 0.000000 
#    z 0.000000 0.000000 1.956130 
# 
# From -- ./inp_files/5902.got.cif
#   From: 2010.05.17/outbox.cif.g08.bks.cpg/sg20_3_cif.got.tgz:5902.got - 2010.06.03 22:52:26.
