data_PCOD9319073
_publ_section_title
;
Structure prediction by ZEFSAII (Michael W. Deem and Ramdas Pophale) SiO2 
 PCOD9319073
Probable space group: C 2 2 21
;
_chemical_formula_sum "Si O2"
_cell_formula_units_Z 56
_cell_length_a 14.030850
_cell_length_b 9.131916
_cell_length_c 17.642225
_cell_angle_alpha 90.000000
_cell_angle_beta 90.000000
_cell_angle_gamma 90.000000
_cell_volume 2260.472595
_symmetry_space_group_name_H-M "C 2 2 21"
_symmetry_group_IT_number 20
_symmetry_cell_setting 'orthorhombic'
loop_
_space_group_symop_operation_xyz
x,y,z
-x,-y,1/2+z
x,-y,-z
-x,y,1/2-z
1/2+x,1/2+y,z
1/2-x,1/2-y,1/2+z
1/2+x,1/2-y,-z
1/2-x,1/2+y,1/2-z
loop_
_atom_site_type_symbol
_atom_site_label
_atom_site_fract_x
_atom_site_fract_y
_atom_site_fract_z
Si Si1 0.450704 0.865070 0.048299
Si Si2 0.985833 0.941660 0.583257
Si Si3 0.148646 0.074138 0.309254
Si Si4 0.052406 0.600449 0.331158
Si Si5 0.620890 0.290748 0.109489
Si Si6 0.214338 0.167018 0.472034
Si Si7 0.272585 0.271841 0.229826
O O1 0.518199 0.730518 0.070517
O O2 0.427271 0.948635 0.126467
O O3 0.361217 0.791662 0.001837
O O4 0.490735 0.000000 0.000000
O O5 0.044020 0.975729 0.662394
O O6 0.025057 0.000000 0.500000
O O7 0.893567 0.038655 0.593567
O O8 0.173878 0.151517 0.387454
O O9 0.172528 0.188249 0.242404
O O10 0.220750 0.937728 0.299175
O O11 0.153282 0.679471 0.319589
O O12 0.000000 0.576599 0.250000
O O13 0.978756 0.706366 0.376832
O O14 0.680496 0.226122 0.040235
O O15 0.677163 0.276681 0.187965
O O16 0.218739 0.000000 0.500000
#
# Coordination Sequence:
#
# PCOD9319073 Si02
#       7
#     8   8   8   8   8   8   8
#     4  11  24  41  68  99 136 183 230 284 339 419
#     4  11  23  42  67  96 131 179 230 271 343 413
#     4  10  21  39  64  95 128 173 223 279 333 407
#     4  10  22  42  65  96 139 180 226 283 346 409
#     4  10  22  44  64  95 135 181 227 284 343 396
#     4  10  24  44  68 100 136 175 235 285 338 411
#     4  10  22  38  66  94 132 176 222 283 342 395
#
# _framework density 24.773582999999999
#
# number of rings (size 3 to 8) (size 9 to 14) (size 15 to 20)
#    0.000    1.714    1.429    2.571    8.000    2.286 
#    5.143    1.429    0.000    0.000    0.000    0.000 
#    0.000    0.000    0.000    0.000    0.000    0.000 
#
# Total GULP energy -156111.916762 kJ/mol
# GULP energy per Si atom -5575.425599 kJ/mol
# Density = 2.471720 g / cm^3
# Si number density = 24.773583 Si / 1000 Ang^3
#
#
#
# Elastic Constant Matrix: (Units=GPa)
#
#
# Indices 1 2 3 4 5 6 
#
# 1 44.8979 10.9744 6.9393 0.0000 0.0000 0.0000
# 2 10.9744 159.5810 19.9249 0.0000 0.0000 0.0000
# 3 6.9393 19.9249 55.8967 0.0000 0.0000 0.0000
# 4 0.0000 0.0000 0.0000 52.0679 0.0000 0.0000
# 5 0.0000 0.0000 0.0000 0.0000 20.6950 0.0000
# 6 0.0000 0.0000 0.0000 0.0000 0.0000 31.7160
#
#
#
# Elastic Compliance Matrix: (Units=1/GPa)
#
#
# Indices 1 2 3 4 5 6 
#
# 1 0.022956 -0.001280 -0.002394 0.000000 0.000000 0.000000
# 2 -0.001280 0.006630 -0.002204 0.000000 0.000000 0.000000
# 3 -0.002394 -0.002204 0.018973 0.000000 0.000000 0.000000
# 4 0.000000 0.000000 0.000000 0.019206 0.000000 0.000000
# 5 0.000000 0.000000 0.000000 0.000000 0.048321 0.000000
# 6 0.000000 0.000000 0.000000 0.000000 0.000000 0.031530
#
#
# Mechanical properties :
#
#
# Convention : Reuss Voigt Hill
#
# Bulk Modulus (GPa) = 27.17188 37.33921 32.25555
# Shear Modulus (GPa) = 29.13112 35.73157 32.43134
#
# Velocity S-wave (km/s) = 3.43285 3.80192 3.62209
# Velocity P-wave (km/s) = 5.16764 5.86325 5.52640
#
# Compressibility (1/GPa) = 0.03680275
#
# Stress axis : x y z
#
# Youngs Moduli (GPa) = 43.56248 150.83758 52.70631
#
# Poissons Ratio (x) = 0.19304 0.12616
# Poissons Ratio (y) = 0.05575 0.11618
# Poissons Ratio (z) = 0.10427 0.33249
#
# Static dielectric constant tensor:
#      x y z
#    x 2.212880 0.000000 0.000000 
#    y 0.000000 2.023780 0.000000 
#    z 0.000000 0.000000 2.043350 
# 
# From -- ./inp_files/27573.got.cif
#   From: 2010.05.17/outbox.cif.g08.bks.cpg/sg20_14_cif.got.tgz:27573.got - 2010.06.03 22:52:26.
