data_PCOD9319406
_publ_section_title
;
Structure prediction by ZEFSAII (Michael W. Deem and Ramdas Pophale) SiO2 
 PCOD9319406
Probable space group: C 2 2 21
;
_chemical_formula_sum "Si O2"
_cell_formula_units_Z 64
_cell_length_a 9.494916
_cell_length_b 11.323934
_cell_length_c 26.861359
_cell_angle_alpha 90.000000
_cell_angle_beta 90.000000
_cell_angle_gamma 90.000000
_cell_volume 2888.128004
_symmetry_space_group_name_H-M "C 2 2 21"
_symmetry_group_IT_number 20
_symmetry_cell_setting 'orthorhombic'
loop_
_space_group_symop_operation_xyz
x,y,z
-x,-y,1/2+z
x,-y,-z
-x,y,1/2-z
1/2+x,1/2+y,z
1/2-x,1/2-y,1/2+z
1/2+x,1/2-y,-z
1/2-x,1/2+y,1/2-z
loop_
_atom_site_type_symbol
_atom_site_label
_atom_site_fract_x
_atom_site_fract_y
_atom_site_fract_z
Si Si1 0.695698 0.454152 0.793421
Si Si2 0.449868 0.033290 0.064050
Si Si3 0.735150 0.187605 0.382285
Si Si4 0.831245 0.686156 0.972291
Si Si5 0.051938 0.366186 0.307311
Si Si6 0.434882 0.373148 0.526950
Si Si7 0.192193 0.447336 0.115881
Si Si8 0.112771 0.907492 0.683124
O O1 0.730485 0.337054 0.825218
O O2 0.807235 0.554257 0.807468
O O3 0.695322 0.427930 0.734941
O O4 0.534506 0.477095 0.809635
O O5 0.609493 0.993984 0.068033
O O6 0.410850 0.122540 0.107852
O O7 0.405518 0.111047 0.016900
O O8 0.356405 0.913333 0.069728
O O9 0.850658 0.128519 0.420093
O O10 0.732545 0.324160 0.395136
O O11 0.671166 0.697858 0.989715
O O12 0.920457 0.803455 0.965541
O O13 0.000000 0.364224 0.250000
O O14 0.929768 0.416683 0.343349
O O15 0.083775 0.231273 0.322448
O O16 0.449684 0.500000 0.500000
O O17 0.299004 0.540224 0.138266
#
# Coordination Sequence:
#
# PCOD9319406 Si02
#       8
#     8   8   8   8   8   8   8   8
#     4  11  23  42  64  92 134 165 214 270 324 378
#     4  10  21  42  66  93 132 167 215 266 327 384
#     4  11  21  41  69  93 129 169 213 274 319 387
#     4  10  21  44  66  92 132 173 210 268 324 393
#     4  12  22  43  68  88 127 179 211 261 331 387
#     4  11  22  44  68  94 131 174 214 265 333 385
#     4  12  23  41  68  94 127 172 216 266 325 385
#     4  11  25  43  62  98 130 170 218 272 317 386
#
# _framework density 22.159683000000001
#
# number of rings (size 3 to 8) (size 9 to 14) (size 15 to 20)
#    0.000    1.000    8.750    0.000    0.000    1.000 
#   13.500    0.000    0.000    0.000    0.000    0.000 
#    0.000    0.000    0.000    0.000    0.000    0.000 
#
# Total GULP energy -178745.715293 kJ/mol
# GULP energy per Si atom -5585.803603 kJ/mol
# Density = 2.210925 g / cm^3
# Si number density = 22.159683 Si / 1000 Ang^3
#
#
#
# Elastic Constant Matrix: (Units=GPa)
#
#
# Indices 1 2 3 4 5 6 
#
# 1 62.8060 52.3162 -9.3309 0.0000 0.0000 0.0000
# 2 52.3162 110.4615 4.1766 0.0000 0.0000 0.0000
# 3 -9.3309 4.1766 31.1704 0.0000 0.0000 0.0000
# 4 0.0000 0.0000 0.0000 28.7561 0.0000 0.0000
# 5 0.0000 0.0000 0.0000 0.0000 28.4410 0.0000
# 6 0.0000 0.0000 0.0000 0.0000 0.0000 40.1549
#
#
#
# Elastic Compliance Matrix: (Units=1/GPa)
#
#
# Indices 1 2 3 4 5 6 
#
# 1 0.029495 -0.014376 0.010756 0.000000 0.000000 0.000000
# 2 -0.014376 0.016106 -0.006461 0.000000 0.000000 0.000000
# 3 0.010756 -0.006461 0.036167 0.000000 0.000000 0.000000
# 4 0.000000 0.000000 0.000000 0.034775 0.000000 0.000000
# 5 0.000000 0.000000 0.000000 0.000000 0.035161 0.000000
# 6 0.000000 0.000000 0.000000 0.000000 0.000000 0.024904
#
#
# Mechanical properties :
#
#
# Convention : Reuss Voigt Hill
#
# Bulk Modulus (GPa) = 16.23264 33.19573 24.71418
# Shear Modulus (GPa) = 23.00910 29.95545 26.48228
#
# Velocity S-wave (km/s) = 3.22581 3.68067 3.46072
# Velocity P-wave (km/s) = 4.60605 5.75116 5.21016
#
# Compressibility (1/GPa) = 0.06160429
#
# Stress axis : x y z
#
# Youngs Moduli (GPa) = 33.90439 62.08940 27.64935
#
# Poissons Ratio (x) = 0.89258 -0.29738
# Poissons Ratio (y) = 0.48740 0.17865
# Poissons Ratio (z) = -0.36466 0.40119
#
# Static dielectric constant tensor:
#      x y z
#    x 1.842360 0.000000 0.000000 
#    y 0.000000 1.784460 0.000000 
#    z 0.000000 0.000000 1.936430 
# 
# From -- ./inp_files/31093.got.cif
#   From: 2010.05.17/outbox.cif.g08.bks.cpg/sg20_16_cif.got.tgz:31093.got - 2010.06.03 22:52:26.
