data_PCOD9319389
_publ_section_title
;
Structure prediction by ZEFSAII (Michael W. Deem and Ramdas Pophale) SiO2 
 PCOD9319389
Probable space group: C 2 2 21
;
_chemical_formula_sum "Si O2"
_cell_formula_units_Z 48
_cell_length_a 17.913857
_cell_length_b 5.160634
_cell_length_c 24.607107
_cell_angle_alpha 90.000000
_cell_angle_beta 90.000000
_cell_angle_gamma 90.000000
_cell_volume 2274.849764
_symmetry_space_group_name_H-M "C 2 2 21"
_symmetry_group_IT_number 20
_symmetry_cell_setting 'orthorhombic'
loop_
_space_group_symop_operation_xyz
x,y,z
-x,-y,1/2+z
x,-y,-z
-x,y,1/2-z
1/2+x,1/2+y,z
1/2-x,1/2-y,1/2+z
1/2+x,1/2-y,-z
1/2-x,1/2+y,1/2-z
loop_
_atom_site_type_symbol
_atom_site_label
_atom_site_fract_x
_atom_site_fract_y
_atom_site_fract_z
Si Si1 0.719400 0.329282 0.164631
Si Si2 0.548577 0.249124 0.463025
Si Si3 0.520911 0.237227 0.674081
Si Si4 0.348582 0.504258 0.222812
Si Si5 0.356045 0.099953 0.130125
Si Si6 0.559922 0.242137 0.134089
O O1 0.681573 0.460564 0.217252
O O2 0.770560 0.517385 0.128910
O O3 0.648702 0.222238 0.133008
O O4 0.780264 0.134364 0.189981
O O5 0.540680 0.500000 0.500000
O O6 0.615976 0.271852 0.419467
O O7 0.476452 0.203872 0.424907
O O8 0.561849 0.000000 0.500000
O O9 0.575135 0.329690 0.722745
O O10 0.472613 0.480097 0.653606
O O11 0.586905 0.143975 0.631993
O O12 0.470543 0.980765 0.674728
O O13 0.366452 0.247230 0.187872
#
# Coordination Sequence:
#
# PCOD9319389 Si02
#       6
#     8   8   8   8   8   8
#     4  11  25  39  69 100 146 177 214 273 342 399
#     4  11  23  44  75  93 123 177 235 285 340 393
#     4  10  21  42  64  91 138 171 227 259 324 397
#     4  11  21  43  64 100 137 188 216 255 328 421
#     4  10  22  44  68  97 135 176 228 269 329 411
#     4  11  24  44  67 101 133 171 219 292 332 386
#
# _framework density 21.100297000000001
#
# number of rings (size 3 to 8) (size 9 to 14) (size 15 to 20)
#    0.000    1.333    5.000    2.000    4.667    0.667 
#    3.000    0.833    0.000    0.000    0.000    0.000 
#    0.000    0.000    0.000    0.000    0.000    0.000 
#
# Total GULP energy -133995.371601 kJ/mol
# GULP energy per Si atom -5583.140483 kJ/mol
# Density = 2.105227 g / cm^3
# Si number density = 21.100297 Si / 1000 Ang^3
#
#
#
# Elastic Constant Matrix: (Units=GPa)
#
#
# Indices 1 2 3 4 5 6 
#
# 1 147.5736 27.3644 26.6539 0.0000 0.0000 0.0000
# 2 27.3644 92.6671 1.6532 0.0000 0.0000 0.0000
# 3 26.6539 1.6532 58.1160 0.0000 0.0000 0.0000
# 4 0.0000 0.0000 0.0000 18.3302 0.0000 0.0000
# 5 0.0000 0.0000 0.0000 0.0000 29.6666 0.0000
# 6 0.0000 0.0000 0.0000 0.0000 0.0000 33.8066
#
#
#
# Elastic Compliance Matrix: (Units=1/GPa)
#
#
# Indices 1 2 3 4 5 6 
#
# 1 0.007830 -0.002249 -0.003527 0.000000 0.000000 0.000000
# 2 -0.002249 0.011443 0.000706 0.000000 0.000000 0.000000
# 3 -0.003527 0.000706 0.018805 0.000000 0.000000 0.000000
# 4 0.000000 0.000000 0.000000 0.054555 0.000000 0.000000
# 5 0.000000 0.000000 0.000000 0.000000 0.033708 0.000000
# 6 0.000000 0.000000 0.000000 0.000000 0.000000 0.029580
#
#
# Mechanical properties :
#
#
# Convention : Reuss Voigt Hill
#
# Bulk Modulus (GPa) = 35.79497 45.52219 40.65858
# Shear Modulus (GPa) = 28.51046 32.53969 30.52508
#
# Velocity S-wave (km/s) = 3.67984 3.93127 3.80763
# Velocity P-wave (km/s) = 5.92081 6.49828 6.21625
#
# Compressibility (1/GPa) = 0.02793689
#
# Stress axis : x y z
#
# Youngs Moduli (GPa) = 127.70627 87.38999 53.17839
#
# Poissons Ratio (x) = 0.19657 0.18758
# Poissons Ratio (y) = 0.28726 -0.03755
# Poissons Ratio (z) = 0.45046 -0.06171
#
# Static dielectric constant tensor:
#      x y z
#    x 1.757210 0.000000 0.000000 
#    y 0.000000 1.838610 0.000000 
#    z 0.000000 0.000000 1.825310 
# 
# From -- ./inp_files/29414.got.cif
#   From: 2010.05.17/outbox.cif.g08.bks.cpg/sg20_15_cif.got.tgz:29414.got - 2010.06.03 22:52:26.
