data_PCOD9319603
_publ_section_title
;
Structure prediction by ZEFSAII (Michael W. Deem and Ramdas Pophale) SiO2 
 PCOD9319603
Probable space group: C 2 2 21
;
_chemical_formula_sum "Si O2"
_cell_formula_units_Z 40
_cell_length_a 5.415301
_cell_length_b 18.971903
_cell_length_c 17.873567
_cell_angle_alpha 90.000000
_cell_angle_beta 90.000000
_cell_angle_gamma 90.000000
_cell_volume 1836.304630
_symmetry_space_group_name_H-M "C 2 2 21"
_symmetry_group_IT_number 20
_symmetry_cell_setting 'orthorhombic'
loop_
_space_group_symop_operation_xyz
x,y,z
-x,-y,1/2+z
x,-y,-z
-x,y,1/2-z
1/2+x,1/2+y,z
1/2-x,1/2-y,1/2+z
1/2+x,1/2-y,-z
1/2-x,1/2+y,1/2-z
loop_
_atom_site_type_symbol
_atom_site_label
_atom_site_fract_x
_atom_site_fract_y
_atom_site_fract_z
Si Si1 0.500000 0.514855 0.250000
Si Si2 0.483825 0.500000 0.500000
Si Si3 0.984614 0.722290 0.840350
Si Si4 0.696817 0.061873 0.118280
Si Si5 0.014961 0.698733 0.340702
Si Si6 0.840873 0.437275 0.132490
O O1 0.374349 0.566386 0.189796
O O2 0.688208 0.464251 0.205056
O O3 0.650759 0.442431 0.542587
O O4 0.321415 0.540270 0.561276
O O5 0.747251 0.767884 0.864216
O O6 0.923392 0.643050 0.864873
O O7 0.000000 0.721254 0.750000
O O8 0.246771 0.755856 0.863896
O O9 0.487528 0.120571 0.124874
O O10 0.581514 0.985071 0.127697
O O11 0.000000 0.694290 0.250000
#
# Coordination Sequence:
#
# PCOD9319603 Si02
#       6
#     4   4   8   8   8   8
#     4  10  22  34  72 108 132 174 236 282 346 402
#     4  10  26  42  72  92 140 182 244 282 346 398
#     4  10  23  39  67 105 141 172 218 287 354 407
#     4  11  23  42  69  99 136 181 232 285 339 415
#     4  10  23  39  67 105 141 172 218 287 354 407
#     4  11  23  42  69  99 136 181 232 285 339 415
#
# _framework density 21.782878
#
# number of rings (size 3 to 8) (size 9 to 14) (size 15 to 20)
#    0.000    1.600    0.000    3.600   19.600    0.000 
#    0.000    0.000    8.800    0.000    0.000    0.000 
#    0.000    0.000    0.000    0.000    0.000    0.000 
#
# Total GULP energy -111848.659755 kJ/mol
# GULP energy per Si atom -5592.432988 kJ/mol
# Density = 2.173330 g / cm^3
# Si number density = 21.782878 Si / 1000 Ang^3
#
#
#
# Elastic Constant Matrix: (Units=GPa)
#
#
# Indices 1 2 3 4 5 6 
#
# 1 102.2294 19.4839 29.5006 0.0000 0.0000 0.0000
# 2 19.4839 88.8535 9.3290 0.0000 0.0000 0.0000
# 3 29.5006 9.3290 72.2986 0.0000 0.0000 0.0000
# 4 0.0000 0.0000 0.0000 -2.3943 0.0000 0.0000
# 5 0.0000 0.0000 0.0000 0.0000 18.0232 0.0000
# 6 0.0000 0.0000 0.0000 0.0000 0.0000 56.7015
#
#
#
# Elastic Compliance Matrix: (Units=1/GPa)
#
#
# Indices 1 2 3 4 5 6 
#
# 1 0.011443 -0.002047 -0.004405 0.000000 0.000000 0.000000
# 2 -0.002047 0.011775 -0.000684 0.000000 0.000000 0.000000
# 3 -0.004405 -0.000684 0.015717 0.000000 0.000000 0.000000
# 4 0.000000 0.000000 0.000000 -0.417656 0.000000 0.000000
# 5 0.000000 0.000000 0.000000 0.000000 0.055484 0.000000
# 6 0.000000 0.000000 0.000000 0.000000 0.000000 0.017636
#
#
# Mechanical properties :
#
#
# Convention : Reuss Voigt Hill
#
# Bulk Modulus (GPa) = 40.54605 42.22315 41.38460
# Shear Modulus (GPa) = -17.66118 28.13728 5.23805
#
# Velocity S-wave (km/s) = -2.85051 3.59794 1.55238
# Velocity P-wave (km/s) = 2.79647 6.05690 4.71732
#
# Compressibility (1/GPa) = 0.02466331
#
# Stress axis : x y z
#
# Youngs Moduli (GPa) = 87.38794 84.92471 63.62418
#
# Poissons Ratio (x) = 0.17382 0.28028
# Poissons Ratio (y) = 0.17886 0.04353
# Poissons Ratio (z) = 0.38496 0.05811
#
# Static dielectric constant tensor:
#      x y z
#    x 1.845870 0.000000 0.000000 
#    y 0.000000 1.769530 0.000000 
#    z 0.000000 0.000000 1.733340 
# 
# From -- ./inp_files/22642.got.cif
#   From: 2010.05.17/outbox.cif.g08.bks.cpg/sg20_12_cif.got.tgz:22642.got - 2010.06.03 22:52:26.
