data_PCOD9319755
_publ_section_title
;
Structure prediction by ZEFSAII (Michael W. Deem and Ramdas Pophale) SiO2 
 PCOD9319755
Probable space group: C 2 2 21
;
_chemical_formula_sum "Si O2"
_cell_formula_units_Z 40
_cell_length_a 8.901881
_cell_length_b 12.135594
_cell_length_c 16.045855
_cell_angle_alpha 90.000000
_cell_angle_beta 90.000000
_cell_angle_gamma 90.000000
_cell_volume 1733.427516
_symmetry_space_group_name_H-M "C 2 2 21"
_symmetry_group_IT_number 20
_symmetry_cell_setting 'orthorhombic'
loop_
_space_group_symop_operation_xyz
x,y,z
-x,-y,1/2+z
x,-y,-z
-x,y,1/2-z
1/2+x,1/2+y,z
1/2-x,1/2-y,1/2+z
1/2+x,1/2-y,-z
1/2-x,1/2+y,1/2-z
loop_
_atom_site_type_symbol
_atom_site_label
_atom_site_fract_x
_atom_site_fract_y
_atom_site_fract_z
Si Si1 0.437683 0.112782 0.657253
Si Si2 0.827284 0.840045 0.473357
Si Si3 0.904145 0.180765 0.071871
Si Si4 0.693515 0.961203 0.627496
Si Si5 0.648437 0.495595 0.293643
O O1 0.500000 0.134337 0.750000
O O2 0.497789 0.214086 0.603273
O O3 0.261420 0.091701 0.665229
O O4 0.520642 0.999986 0.628143
O O5 0.762833 0.723248 0.445378
O O6 0.738658 0.871929 0.558934
O O7 0.002233 0.853380 0.491016
O O8 0.777779 0.928989 0.405429
O O9 0.903161 0.085680 0.139703
O O10 0.754741 0.943491 0.720419
O O11 0.500000 0.447833 0.250000
#
# Coordination Sequence:
#
# PCOD9319755 Si02
#       5
#     8   8   8   8   8
#     4   9  21  39  64  91 123 169 217 265 330 388
#     4  10  22  39  62  93 131 165 216 274 332 388
#     4  11  23  40  65  94 133 170 221 272 331 398
#     4   9  20  42  62  84 130 171 212 269 331 389
#     4  11  21  39  69  93 125 173 218 271 325 394
#
# _framework density 23.075668
#
# number of rings (size 3 to 8) (size 9 to 14) (size 15 to 20)
#    0.000    2.000    2.000    0.600    2.800    1.600 
#    0.000    0.000    4.400    0.000    0.000    0.000 
#    0.000    0.000    0.000    0.000    0.000    0.000 
#
# Total GULP energy -111787.049662 kJ/mol
# GULP energy per Si atom -5589.352483 kJ/mol
# Density = 2.302315 g / cm^3
# Si number density = 23.075668 Si / 1000 Ang^3
#
#
#
# Elastic Constant Matrix: (Units=GPa)
#
#
# Indices 1 2 3 4 5 6 
#
# 1 113.2861 31.2938 23.7726 0.0000 0.0000 0.0000
# 2 31.2938 34.4010 7.3567 0.0000 0.0000 0.0000
# 3 23.7726 7.3567 53.3716 0.0000 0.0000 0.0000
# 4 0.0000 0.0000 0.0000 18.5083 0.0000 0.0000
# 5 0.0000 0.0000 0.0000 0.0000 37.9794 0.0000
# 6 0.0000 0.0000 0.0000 0.0000 0.0000 15.1615
#
#
#
# Elastic Compliance Matrix: (Units=1/GPa)
#
#
# Indices 1 2 3 4 5 6 
#
# 1 0.012628 -0.010597 -0.004164 0.000000 0.000000 0.000000
# 2 -0.010597 0.038845 -0.000634 0.000000 0.000000 0.000000
# 3 -0.004164 -0.000634 0.020679 0.000000 0.000000 0.000000
# 4 0.000000 0.000000 0.000000 0.054030 0.000000 0.000000
# 5 0.000000 0.000000 0.000000 0.000000 0.026330 0.000000
# 6 0.000000 0.000000 0.000000 0.000000 0.000000 0.065956
#
#
# Mechanical properties :
#
#
# Convention : Reuss Voigt Hill
#
# Bulk Modulus (GPa) = 24.17757 36.21164 30.19460
# Shear Modulus (GPa) = 19.00808 23.57222 21.29015
#
# Velocity S-wave (km/s) = 2.87318 3.19959 3.04077
# Velocity P-wave (km/s) = 4.63758 5.42000 5.04399
#
# Compressibility (1/GPa) = 0.04136066
#
# Stress axis : x y z
#
# Youngs Moduli (GPa) = 79.18670 25.74361 48.35885
#
# Poissons Ratio (x) = 0.27281 0.20137
# Poissons Ratio (y) = 0.83916 0.03067
# Poissons Ratio (z) = 0.32975 0.01632
#
# Static dielectric constant tensor:
#      x y z
#    x 1.904180 0.000000 0.000000 
#    y 0.000000 1.854200 0.000000 
#    z 0.000000 0.000000 1.854620 
# 
# From -- ./inp_files/23184.got.cif
#   From: 2010.05.17/outbox.cif.g08.bks.cpg/sg20_12_cif.got.tgz:23184.got - 2010.06.03 22:52:26.
