data_PCOD9319523
_publ_section_title
;
Structure prediction by ZEFSAII (Michael W. Deem and Ramdas Pophale) SiO2 
 PCOD9319523
Probable space group: C 2 2 21
;
_chemical_formula_sum "Si O2"
_cell_formula_units_Z 64
_cell_length_a 11.425184
_cell_length_b 8.561545
_cell_length_c 28.037120
_cell_angle_alpha 90.000000
_cell_angle_beta 90.000000
_cell_angle_gamma 90.000000
_cell_volume 2742.513330
_symmetry_space_group_name_H-M "C 2 2 21"
_symmetry_group_IT_number 20
_symmetry_cell_setting 'orthorhombic'
loop_
_space_group_symop_operation_xyz
x,y,z
-x,-y,1/2+z
x,-y,-z
-x,y,1/2-z
1/2+x,1/2+y,z
1/2-x,1/2-y,1/2+z
1/2+x,1/2-y,-z
1/2-x,1/2+y,1/2-z
loop_
_atom_site_type_symbol
_atom_site_label
_atom_site_fract_x
_atom_site_fract_y
_atom_site_fract_z
Si Si1 0.647114 0.707648 0.654995
Si Si2 0.371054 0.927070 0.751980
Si Si3 0.602220 0.174241 0.868391
Si Si4 0.636412 0.975410 0.381314
Si Si5 0.402144 0.819786 0.482874
Si Si6 0.340408 0.175977 0.981326
Si Si7 0.755036 0.308581 0.200074
Si Si8 0.523191 0.578053 0.305656
O O1 0.643870 0.819438 0.701275
O O2 0.770163 0.620495 0.647436
O O3 0.551828 0.575469 0.663772
O O4 0.641245 0.837753 0.612662
O O5 0.500000 0.996604 0.750000
O O6 0.351957 0.804132 0.709886
O O7 0.280153 0.068447 0.757332
O O8 0.493617 0.057638 0.860978
O O9 0.607116 0.200612 0.925499
O O10 0.572702 0.321762 0.834481
O O11 0.648654 0.858448 0.425247
O O12 0.737501 0.915156 0.346149
O O13 0.532359 0.753272 0.496490
O O14 0.281448 0.756534 0.505165
O O15 0.408572 0.000000 0.500000
O O16 0.332805 0.000000 0.000000
O O17 0.864589 0.191758 0.196601
O O18 0.500000 0.539447 0.250000
#
# Coordination Sequence:
#
# PCOD9319523 Si02
#       8
#     8   8   8   8   8   8   8   8
#     4  11  23  39  63  92 126 171 223 270 323 396
#     4  11  23  39  59  87 125 170 218 270 329 389
#     4  10  23  45  65  95 135 170 220 286 339 400
#     4   9  22  43  65  91 129 173 216 270 334 397
#     4  10  23  43  72 103 137 178 228 285 352 426
#     4  10  21  44  69  99 136 170 214 277 341 408
#     4  10  22  40  61  87 123 168 217 272 326 389
#     4  11  23  41  65  94 133 180 225 276 336 403
#
# _framework density 23.336258000000001
#
# number of rings (size 3 to 8) (size 9 to 14) (size 15 to 20)
#    0.000    1.750    0.000    3.000    0.000   11.500 
#    0.000   18.750    0.000    0.000    0.000    0.000 
#    0.000    0.000    0.000    0.000    0.000    0.000 
#
# Total GULP energy -178629.326793 kJ/mol
# GULP energy per Si atom -5582.166462 kJ/mol
# Density = 2.328314 g / cm^3
# Si number density = 23.336258 Si / 1000 Ang^3
#
#
#
# Elastic Constant Matrix: (Units=GPa)
#
#
# Indices 1 2 3 4 5 6 
#
# 1 128.0740 43.1249 36.6796 0.0000 0.0000 0.0000
# 2 43.1249 72.7984 9.8350 0.0000 0.0000 0.0000
# 3 36.6796 9.8350 77.7646 0.0000 0.0000 0.0000
# 4 0.0000 0.0000 0.0000 21.1086 0.0000 0.0000
# 5 0.0000 0.0000 0.0000 0.0000 28.5731 0.0000
# 6 0.0000 0.0000 0.0000 0.0000 0.0000 43.7227
#
#
#
# Elastic Compliance Matrix: (Units=1/GPa)
#
#
# Indices 1 2 3 4 5 6 
#
# 1 0.011102 -0.005971 -0.004481 0.000000 0.000000 0.000000
# 2 -0.005971 0.017187 0.000643 0.000000 0.000000 0.000000
# 3 -0.004481 0.000643 0.014892 0.000000 0.000000 0.000000
# 4 0.000000 0.000000 0.000000 0.047374 0.000000 0.000000
# 5 0.000000 0.000000 0.000000 0.000000 0.034998 0.000000
# 6 0.000000 0.000000 0.000000 0.000000 0.000000 0.022871
#
#
# Mechanical properties :
#
#
# Convention : Reuss Voigt Hill
#
# Bulk Modulus (GPa) = 42.44260 50.87956 46.66108
# Shear Modulus (GPa) = 28.42561 31.28073 29.85317
#
# Velocity S-wave (km/s) = 3.49390 3.66517 3.58056
# Velocity P-wave (km/s) = 5.87395 6.30566 6.09363
#
# Compressibility (1/GPa) = 0.02356124
#
# Stress axis : x y z
#
# Youngs Moduli (GPa) = 90.07324 58.18333 67.15115
#
# Poissons Ratio (x) = 0.34743 0.30093
# Poissons Ratio (y) = 0.53786 -0.04317
# Poissons Ratio (z) = 0.40365 -0.03740
#
# Static dielectric constant tensor:
#      x y z
#    x 1.902090 0.000000 0.000000 
#    y 0.000000 1.851430 0.000000 
#    z 0.000000 0.000000 1.877850 
# 
# From -- ./inp_files/31188.got.cif
#   From: 2010.05.17/outbox.cif.g08.bks.cpg/sg20_16_cif.got.tgz:31188.got - 2010.06.03 22:52:26.
