data_PCOD9319256
_publ_section_title
;
Structure prediction by ZEFSAII (Michael W. Deem and Ramdas Pophale) SiO2 
 PCOD9319256
Probable space group: C 2 2 21
;
_chemical_formula_sum "Si O2"
_cell_formula_units_Z 52
_cell_length_a 14.556106
_cell_length_b 20.434611
_cell_length_c 8.777315
_cell_angle_alpha 90.000000
_cell_angle_beta 90.000000
_cell_angle_gamma 90.000000
_cell_volume 2610.797985
_symmetry_space_group_name_H-M "C 2 2 21"
_symmetry_group_IT_number 20
_symmetry_cell_setting 'orthorhombic'
loop_
_space_group_symop_operation_xyz
x,y,z
-x,-y,1/2+z
x,-y,-z
-x,y,1/2-z
1/2+x,1/2+y,z
1/2-x,1/2-y,1/2+z
1/2+x,1/2-y,-z
1/2-x,1/2+y,1/2-z
loop_
_atom_site_type_symbol
_atom_site_label
_atom_site_fract_x
_atom_site_fract_y
_atom_site_fract_z
Si Si1 0.000000 0.469138 0.250000
Si Si2 0.319753 0.045656 0.138088
Si Si3 0.899496 0.199751 0.081594
Si Si4 0.395418 0.726018 0.446266
Si Si5 0.793490 0.672372 0.954616
Si Si6 0.636167 0.127229 0.879924
Si Si7 0.701059 0.564631 0.434022
O O1 0.915853 0.513522 0.192242
O O2 0.954110 0.418135 0.368956
O O3 0.245039 0.048907 0.270845
O O4 0.328413 0.118762 0.073894
O O5 0.286561 0.000000 0.000000
O O6 0.893503 0.213310 0.263599
O O7 0.836582 0.256652 0.011918
O O8 0.863102 0.127230 0.062505
O O9 0.000850 0.207619 0.014171
O O10 0.315703 0.684669 0.527952
O O11 0.380766 0.804073 0.464655
O O12 0.827458 0.646594 0.789460
O O13 0.712562 0.084383 0.961454
O O14 0.655175 0.500000 0.500000
#
# Coordination Sequence:
#
# PCOD9319256 Si02
#       7
#     4   8   8   8   8   8   8
#     4  12  24  40  64  98 138 170 218 272 342 416
#     4  12  26  40  62  98 134 172 216 265 331 401
#     4  10  22  40  67  95 127 172 226 262 327 386
#     4  10  21  40  70  95 125 179 220 267 321 395
#     4  11  21  43  66  93 135 172 219 273 321 397
#     4  11  23  39  66  98 135 169 213 271 340 389
#     4  12  23  42  66  92 132 173 208 274 332 389
#
# _framework density 19.917282
#
# number of rings (size 3 to 8) (size 9 to 14) (size 15 to 20)
#    0.000    0.923    6.154    1.846    2.154    0.000 
#    0.000    1.538    3.385    0.000    0.000    0.000 
#    0.000    0.000    0.000    0.000    0.000    0.000 
#
# Total GULP energy -145253.560042 kJ/mol
# GULP energy per Si atom -5586.675386 kJ/mol
# Density = 1.987195 g / cm^3
# Si number density = 19.917282 Si / 1000 Ang^3
#
#
#
# Elastic Constant Matrix: (Units=GPa)
#
#
# Indices 1 2 3 4 5 6 
#
# 1 97.9320 39.7953 10.9559 0.0000 0.0000 0.0000
# 2 39.7953 154.0194 34.2493 0.0000 0.0000 0.0000
# 3 10.9559 34.2493 42.0483 0.0000 0.0000 0.0000
# 4 0.0000 0.0000 0.0000 18.1450 0.0000 0.0000
# 5 0.0000 0.0000 0.0000 0.0000 17.1307 0.0000
# 6 0.0000 0.0000 0.0000 0.0000 0.0000 23.8703
#
#
#
# Elastic Compliance Matrix: (Units=1/GPa)
#
#
# Indices 1 2 3 4 5 6 
#
# 1 0.011426 -0.002797 -0.000699 0.000000 0.000000 0.000000
# 2 -0.002797 0.008613 -0.006287 0.000000 0.000000 0.000000
# 3 -0.000699 -0.006287 0.029085 0.000000 0.000000 0.000000
# 4 0.000000 0.000000 0.000000 0.055111 0.000000 0.000000
# 5 0.000000 0.000000 0.000000 0.000000 0.058375 0.000000
# 6 0.000000 0.000000 0.000000 0.000000 0.000000 0.041893
#
#
# Mechanical properties :
#
#
# Convention : Reuss Voigt Hill
#
# Bulk Modulus (GPa) = 33.83093 51.55563 42.69328
# Shear Modulus (GPa) = 21.37461 25.76249 23.56855
#
# Velocity S-wave (km/s) = 3.27948 3.60039 3.44368
# Velocity P-wave (km/s) = 5.60023 6.57456 6.10686
#
# Compressibility (1/GPa) = 0.02955875
#
# Stress axis : x y z
#
# Youngs Moduli (GPa) = 87.52086 116.09859 34.38164
#
# Poissons Ratio (x) = 0.32470 0.02403
# Poissons Ratio (y) = 0.24477 0.21616
# Poissons Ratio (z) = 0.06118 0.72992
#
# Static dielectric constant tensor:
#      x y z
#    x 1.703280 0.000000 0.000000 
#    y 0.000000 1.706190 0.000000 
#    z 0.000000 0.000000 1.730330 
# 
# From -- ./inp_files/8659.got.cif
#   From: 2010.05.17/outbox.cif.g08.bks.cpg/sg20_5_cif.got.tgz:8659.got - 2010.06.03 22:52:26.
