data_PCOD9319019
_publ_section_title
;
Structure prediction by ZEFSAII (Michael W. Deem and Ramdas Pophale) SiO2 
 PCOD9319019
Probable space group: C 2 2 21
;
_chemical_formula_sum "Si O2"
_cell_formula_units_Z 56
_cell_length_a 12.831007
_cell_length_b 21.929909
_cell_length_c 11.547538
_cell_angle_alpha 90.000000
_cell_angle_beta 90.000000
_cell_angle_gamma 90.000000
_cell_volume 3249.278759
_symmetry_space_group_name_H-M "C 2 2 21"
_symmetry_group_IT_number 20
_symmetry_cell_setting 'orthorhombic'
loop_
_space_group_symop_operation_xyz
x,y,z
-x,-y,1/2+z
x,-y,-z
-x,y,1/2-z
1/2+x,1/2+y,z
1/2-x,1/2-y,1/2+z
1/2+x,1/2-y,-z
1/2-x,1/2+y,1/2-z
loop_
_atom_site_type_symbol
_atom_site_label
_atom_site_fract_x
_atom_site_fract_y
_atom_site_fract_z
Si Si1 0.611801 0.901976 0.297495
Si Si2 0.393190 0.718495 0.588361
Si Si3 0.648873 0.962591 0.663227
Si Si4 0.291867 0.854934 0.982947
Si Si5 0.588849 0.056597 0.080034
Si Si6 0.833035 0.330628 0.431915
Si Si7 0.366982 0.732559 0.859032
O O1 0.500000 0.924491 0.250000
O O2 0.622186 0.865929 0.416711
O O3 0.643012 0.855046 0.197010
O O4 0.671845 0.965199 0.326342
O O5 0.316627 0.665291 0.542608
O O6 0.381696 0.770398 0.489788
O O7 0.354340 0.734070 0.719228
O O8 0.516566 0.711930 0.608208
O O9 0.720090 0.916984 0.590204
O O10 0.534295 0.952289 0.605714
O O11 0.641715 0.941932 0.795321
O O12 0.336649 0.799905 0.904923
O O13 0.624640 0.116023 0.012915
O O14 0.620979 0.000000 0.000000
O O15 0.711565 0.313907 0.421905
#
# Coordination Sequence:
#
# PCOD9319019 Si02
#       7
#     8   8   8   8   8   8   8
#     4  12  20  34  53  87 121 148 180 227 294 349
#     4  10  21  39  59  80 113 152 200 239 282 342
#     4  11  21  33  55  83 121 153 182 229 292 347
#     4  11  22  34  57  87 114 150 193 235 285 347
#     4  11  19  34  53  82 117 154 182 226 283 352
#     4  11  21  34  58  85 113 150 193 232 286 347
#     4  10  21  40  58  81 111 157 195 238 288 335
#
# _framework density 17.234594000000001
#
# number of rings (size 3 to 8) (size 9 to 14) (size 15 to 20)
#    0.000    1.143    4.286    4.714    0.000    2.286 
#    0.000    0.000    0.000    1.714    3.714    0.000 
#    0.000    0.000    0.000    0.000    0.000    0.000 
#
# Total GULP energy -155929.425156 kJ/mol
# GULP energy per Si atom -5568.908041 kJ/mol
# Density = 1.719537 g / cm^3
# Si number density = 17.234594 Si / 1000 Ang^3
#
#
#
# Elastic Constant Matrix: (Units=GPa)
#
#
# Indices 1 2 3 4 5 6 
#
# 1 54.7780 25.3838 32.8441 0.0000 0.0000 0.0000
# 2 25.3838 76.7306 49.1334 0.0000 0.0000 0.0000
# 3 32.8441 49.1334 132.4265 0.0000 0.0000 0.0000
# 4 0.0000 0.0000 0.0000 40.2974 0.0000 0.0000
# 5 0.0000 0.0000 0.0000 0.0000 26.9337 0.0000
# 6 0.0000 0.0000 0.0000 0.0000 0.0000 47.0588
#
#
#
# Elastic Compliance Matrix: (Units=1/GPa)
#
#
# Indices 1 2 3 4 5 6 
#
# 1 0.022907 -0.005168 -0.003764 0.000000 0.000000 0.000000
# 2 -0.005168 0.018260 -0.005493 0.000000 0.000000 0.000000
# 3 -0.003764 -0.005493 0.010523 0.000000 0.000000 0.000000
# 4 0.000000 0.000000 0.000000 0.024815 0.000000 0.000000
# 5 0.000000 0.000000 0.000000 0.000000 0.037128 0.000000
# 6 0.000000 0.000000 0.000000 0.000000 0.000000 0.021250
#
#
# Mechanical properties :
#
#
# Convention : Reuss Voigt Hill
#
# Bulk Modulus (GPa) = 43.78299 53.18418 48.48359
# Shear Modulus (GPa) = 29.18066 33.29624 31.23845
#
# Velocity S-wave (km/s) = 4.11925 4.40015 4.26202
# Velocity P-wave (km/s) = 6.93423 7.53267 7.23964
#
# Compressibility (1/GPa) = 0.02283992
#
# Stress axis : x y z
#
# Youngs Moduli (GPa) = 43.65461 54.76570 95.03057
#
# Poissons Ratio (x) = 0.28302 0.35769
# Poissons Ratio (y) = 0.22560 0.52201
# Poissons Ratio (z) = 0.16431 0.30083
#
# Static dielectric constant tensor:
#      x y z
#    x 1.590900 0.000000 0.000000 
#    y 0.000000 1.636080 0.000000 
#    z 0.000000 0.000000 1.055800 
# 
# From -- ./inp_files/14309.got.cif
#   From: 2010.05.17/outbox.cif.g08.bks.cpg/sg20_8_cif.got.tgz:14309.got - 2010.06.03 22:52:26.
