data_PCOD9319028
_publ_section_title
;
Structure prediction by ZEFSAII (Michael W. Deem and Ramdas Pophale) SiO2 
 PCOD9319028
Probable space group: C 2 2 21
;
_chemical_formula_sum "Si O2"
_cell_formula_units_Z 52
_cell_length_a 5.901715
_cell_length_b 16.022402
_cell_length_c 23.882418
_cell_angle_alpha 90.000000
_cell_angle_beta 90.000000
_cell_angle_gamma 90.000000
_cell_volume 2258.313092
_symmetry_space_group_name_H-M "C 2 2 21"
_symmetry_group_IT_number 20
_symmetry_cell_setting 'orthorhombic'
loop_
_space_group_symop_operation_xyz
x,y,z
-x,-y,1/2+z
x,-y,-z
-x,y,1/2-z
1/2+x,1/2+y,z
1/2-x,1/2-y,1/2+z
1/2+x,1/2-y,-z
1/2-x,1/2+y,1/2-z
loop_
_atom_site_type_symbol
_atom_site_label
_atom_site_fract_x
_atom_site_fract_y
_atom_site_fract_z
Si Si1 0.072313 0.927366 0.137773
Si Si2 0.735575 0.635078 0.974113
Si Si3 0.063466 0.202220 0.426242
Si Si4 0.460422 0.928242 0.569247
Si Si5 0.917540 0.567314 0.655366
Si Si6 0.500000 0.932566 0.750000
Si Si7 0.181732 0.882825 0.837655
O O1 0.091674 0.918733 0.070179
O O2 0.321893 0.898648 0.161278
O O3 0.830138 0.888442 0.156813
O O4 0.068773 0.025441 0.155019
O O5 0.845332 0.706117 0.935725
O O6 0.603831 0.686352 0.021883
O O7 0.908742 0.582989 0.011455
O O8 0.972688 0.188857 0.363282
O O9 0.239465 0.127368 0.434376
O O10 0.615993 0.885754 0.616942
O O11 0.419300 0.019412 0.595288
O O12 0.909723 0.494814 0.702268
O O13 0.297574 0.879418 0.777332
#
# Coordination Sequence:
#
# PCOD9319028 Si02
#       7
#     8   8   8   8   8   4   8
#     4  10  22  38  55  91 123 159 201 258 309 376
#     4  11  23  34  56  83 126 182 199 248 313 376
#     4  11  20  36  55  83 124 165 218 239 302 385
#     4   9  19  36  50  83 117 159 206 246 293 375
#     4  10  21  39  60  93 121 149 213 266 323 370
#     4   8  18  38  66  92 118 158 198 278 342 362
#     4   9  20  37  58  90 118 150 213 267 315 367
#
# _framework density 23.026036000000001
#
# number of rings (size 3 to 8) (size 9 to 14) (size 15 to 20)
#    0.000    2.462    3.077    0.000    2.154    8.000 
#    0.000    0.000    0.000    0.000   32.000    0.000 
#    0.000    0.000    0.000    0.000    0.000    0.000 
#
# Total GULP energy -144850.488893 kJ/mol
# GULP energy per Si atom -5571.172650 kJ/mol
# Density = 2.297363 g / cm^3
# Si number density = 23.026036 Si / 1000 Ang^3
#
#
#
# Elastic Constant Matrix: (Units=GPa)
#
#
# Indices 1 2 3 4 5 6 
#
# 1 125.0446 9.6536 23.3939 0.0000 0.0000 0.0000
# 2 9.6536 29.5501 -5.5389 0.0000 0.0000 0.0000
# 3 23.3939 -5.5389 66.8940 0.0000 0.0000 0.0000
# 4 0.0000 0.0000 0.0000 29.6093 0.0000 0.0000
# 5 0.0000 0.0000 0.0000 0.0000 21.1483 0.0000
# 6 0.0000 0.0000 0.0000 0.0000 0.0000 12.8397
#
#
#
# Elastic Compliance Matrix: (Units=1/GPa)
#
#
# Indices 1 2 3 4 5 6 
#
# 1 0.008909 -0.003550 -0.003410 0.000000 0.000000 0.000000
# 2 -0.003550 0.035789 0.004205 0.000000 0.000000 0.000000
# 3 -0.003410 0.004205 0.016490 0.000000 0.000000 0.000000
# 4 0.000000 0.000000 0.000000 0.033773 0.000000 0.000000
# 5 0.000000 0.000000 0.000000 0.000000 0.047285 0.000000
# 6 0.000000 0.000000 0.000000 0.000000 0.000000 0.077884
#
#
# Mechanical properties :
#
#
# Convention : Reuss Voigt Hill
#
# Bulk Modulus (GPa) = 17.96031 30.72286 24.34158
# Shear Modulus (GPa) = 20.47525 25.65147 23.06336
#
# Velocity S-wave (km/s) = 2.98522 3.34131 3.16827
# Velocity P-wave (km/s) = 4.43835 5.31578 4.89676
#
# Compressibility (1/GPa) = 0.05567833
#
# Stress axis : x y z
#
# Youngs Moduli (GPa) = 112.24550 27.94190 60.64451
#
# Poissons Ratio (x) = 0.09918 0.20677
# Poissons Ratio (y) = 0.39842 -0.25499
# Poissons Ratio (z) = 0.38271 -0.11749
#
# Static dielectric constant tensor:
#      x y z
#    x 2.001940 0.000000 0.000000 
#    y 0.000000 1.870930 0.000000 
#    z 0.000000 0.000000 1.882900 
# 
# From -- ./inp_files/29890.got.cif
#   From: 2010.05.17/outbox.cif.g08.bks.cpg/sg20_15_cif.got.tgz:29890.got - 2010.06.03 22:52:26.
