data_PCOD9319996
_publ_section_title
;
Structure prediction by ZEFSAII (Michael W. Deem and Ramdas Pophale) SiO2 
 PCOD9319996
Probable space group: C 2 2 21
;
_chemical_formula_sum "Si O2"
_cell_formula_units_Z 60
_cell_length_a 8.023886
_cell_length_b 17.850584
_cell_length_c 19.356240
_cell_angle_alpha 90.000000
_cell_angle_beta 90.000000
_cell_angle_gamma 90.000000
_cell_volume 2772.414600
_symmetry_space_group_name_H-M "C 2 2 21"
_symmetry_group_IT_number 20
_symmetry_cell_setting 'orthorhombic'
loop_
_space_group_symop_operation_xyz
x,y,z
-x,-y,1/2+z
x,-y,-z
-x,y,1/2-z
1/2+x,1/2+y,z
1/2-x,1/2-y,1/2+z
1/2+x,1/2-y,-z
1/2-x,1/2+y,1/2-z
loop_
_atom_site_type_symbol
_atom_site_label
_atom_site_fract_x
_atom_site_fract_y
_atom_site_fract_z
Si Si1 0.849352 0.571389 0.662461
Si Si2 0.000000 0.885030 0.750000
Si Si3 0.722694 0.783165 0.091310
Si Si4 0.938588 0.188145 0.032791
Si Si5 0.893229 0.057244 0.551512
Si Si6 0.347506 0.553561 0.117223
Si Si7 0.687966 0.225526 0.259062
Si Si8 0.271286 0.881902 0.191456
O O1 0.790538 0.627986 0.602892
O O2 0.822558 0.486257 0.640095
O O3 0.741521 0.581168 0.732885
O O4 0.034032 0.600709 0.678157
O O5 0.028828 0.932186 0.681318
O O6 0.165482 0.834417 0.752745
O O7 0.545897 0.743537 0.079614
O O8 0.799423 0.755060 0.162591
O O9 0.832931 0.768622 0.024203
O O10 0.827123 0.132364 0.078851
O O11 0.059790 0.130993 0.991761
O O12 0.817686 0.084686 0.624255
O O13 0.793871 0.000000 0.500000
O O14 0.052781 0.006634 0.571661
O O15 0.500000 0.197325 0.250000
O O16 0.726921 0.294987 0.206971
#
# Coordination Sequence:
#
# PCOD9319996 Si02
#       8
#     8   4   8   8   8   8   8   8
#     4  10  22  42  69  98 136 178 245 294 361 437
#     4  12  24  46  70 102 148 182 244 312 372 424
#     4  11  23  43  66 103 135 188 244 299 362 448
#     4  11  24  41  68  95 143 182 241 293 365 438
#     4  10  22  42  62  96 137 183 229 280 362 447
#     4  11  23  43  67  95 139 191 224 303 365 434
#     4  11  24  44  74 106 142 189 248 310 368 437
#     4  10  22  41  70 101 132 176 243 301 353 439
#
# _framework density 21.641784000000001
#
# number of rings (size 3 to 8) (size 9 to 14) (size 15 to 20)
#    0.000    1.333    2.667    3.200    3.733    1.067 
#    7.200    0.000    0.000    0.000    0.000    0.000 
#    0.000    0.000    0.000    0.000    0.000    0.000 
#
# Total GULP energy -167478.273052 kJ/mol
# GULP energy per Si atom -5582.609102 kJ/mol
# Density = 2.159253 g / cm^3
# Si number density = 21.641784 Si / 1000 Ang^3
#
#
#
# Elastic Constant Matrix: (Units=GPa)
#
#
# Indices 1 2 3 4 5 6 
#
# 1 83.1423 36.6320 20.9435 0.0000 0.0000 0.0000
# 2 36.6320 88.7482 36.8884 0.0000 0.0000 0.0000
# 3 20.9435 36.8884 79.6391 0.0000 0.0000 0.0000
# 4 0.0000 0.0000 0.0000 21.1519 0.0000 0.0000
# 5 0.0000 0.0000 0.0000 0.0000 33.3088 0.0000
# 6 0.0000 0.0000 0.0000 0.0000 0.0000 20.8784
#
#
#
# Elastic Compliance Matrix: (Units=1/GPa)
#
#
# Indices 1 2 3 4 5 6 
#
# 1 0.014812 -0.005566 -0.001317 0.000000 0.000000 0.000000
# 2 -0.005566 0.016046 -0.005969 0.000000 0.000000 0.000000
# 3 -0.001317 -0.005969 0.015668 0.000000 0.000000 0.000000
# 4 0.000000 0.000000 0.000000 0.047277 0.000000 0.000000
# 5 0.000000 0.000000 0.000000 0.000000 0.030022 0.000000
# 6 0.000000 0.000000 0.000000 0.000000 0.000000 0.047896
#
#
# Mechanical properties :
#
#
# Convention : Reuss Voigt Hill
#
# Bulk Modulus (GPa) = 48.02663 48.93970 48.48317
# Shear Modulus (GPa) = 24.46590 25.53886 25.00238
#
# Velocity S-wave (km/s) = 3.36593 3.43894 3.40263
# Velocity P-wave (km/s) = 6.11112 6.19928 6.15536
#
# Compressibility (1/GPa) = 0.02082178
#
# Stress axis : x y z
#
# Youngs Moduli (GPa) = 67.51367 62.31946 63.82585
#
# Poissons Ratio (x) = 0.34690 0.08405
# Poissons Ratio (y) = 0.37581 0.38096
# Poissons Ratio (z) = 0.08891 0.37197
#
# Static dielectric constant tensor:
#      x y z
#    x 1.830610 0.000000 0.000000 
#    y 0.000000 1.778540 0.000000 
#    z 0.000000 0.000000 1.834460 
# 
# From -- ./inp_files/23787.got.cif
#   From: 2010.05.17/outbox.cif.g08.bks.cpg/sg20_12_cif.got.tgz:23787.got - 2010.06.03 22:52:26.
