data_PCOD9319929
_publ_section_title
;
Structure prediction by ZEFSAII (Michael W. Deem and Ramdas Pophale) SiO2 
 PCOD9319929
Probable space group: C 2 2 21
;
_chemical_formula_sum "Si O2"
_cell_formula_units_Z 44
_cell_length_a 7.647043
_cell_length_b 13.910975
_cell_length_c 18.076504
_cell_angle_alpha 90.000000
_cell_angle_beta 90.000000
_cell_angle_gamma 90.000000
_cell_volume 1922.939161
_symmetry_space_group_name_H-M "C 2 2 21"
_symmetry_group_IT_number 20
_symmetry_cell_setting 'orthorhombic'
loop_
_space_group_symop_operation_xyz
x,y,z
-x,-y,1/2+z
x,-y,-z
-x,y,1/2-z
1/2+x,1/2+y,z
1/2-x,1/2-y,1/2+z
1/2+x,1/2-y,-z
1/2-x,1/2+y,1/2-z
loop_
_atom_site_type_symbol
_atom_site_label
_atom_site_fract_x
_atom_site_fract_y
_atom_site_fract_z
Si Si1 0.333926 0.564313 0.072714
Si Si2 0.500000 0.164564 0.750000
Si Si3 0.207263 0.084426 0.100104
Si Si4 0.349358 0.757038 0.809519
Si Si5 0.506009 0.057743 0.601235
Si Si6 0.233669 0.714819 0.964381
O O1 0.507876 0.561941 0.121313
O O2 0.156714 0.517480 0.103281
O O3 0.375575 0.500000 0.000000
O O4 0.300920 0.671314 0.040900
O O5 0.679457 0.004991 0.575590
O O6 0.545882 0.099607 0.680756
O O7 0.319444 0.133076 0.165959
O O8 0.195330 0.172249 0.040766
O O9 0.500000 0.742002 0.750000
O O10 0.833138 0.725382 0.726037
O O11 0.357506 0.702978 0.890325
O O12 0.433188 0.146389 0.552428
#
# Coordination Sequence:
#
# PCOD9319929 Si02
#       6
#     8   4   8   8   8   8
#     4  10  22  42  62  96 134 167 228 282 339 419
#     4  10  22  42  64  90 130 176 224 282 340 408
#     4  10  23  40  66  97 124 180 221 272 352 401
#     4   9  21  41  64  92 128 173 222 275 343 408
#     4  10  22  41  62  94 133 173 222 283 337 409
#     4   8  21  41  61  91 131 166 222 276 333 409
#
# _framework density 22.881640000000001
#
# number of rings (size 3 to 8) (size 9 to 14) (size 15 to 20)
#    1.091    1.455    0.000    0.000    3.818    8.000 
#    0.000    1.818    0.000    0.000    0.000    0.000 
#    0.000    0.000    0.000    0.000    0.000    0.000 
#
# Total GULP energy -122703.887404 kJ/mol
# GULP energy per Si atom -5577.449427 kJ/mol
# Density = 2.282956 g / cm^3
# Si number density = 22.881640 Si / 1000 Ang^3
#
#
#
# Elastic Constant Matrix: (Units=GPa)
#
#
# Indices 1 2 3 4 5 6 
#
# 1 83.1398 27.9816 6.8382 0.0000 0.0000 0.0000
# 2 27.9816 72.2457 11.6852 0.0000 0.0000 0.0000
# 3 6.8382 11.6852 41.7154 0.0000 0.0000 0.0000
# 4 0.0000 0.0000 0.0000 24.5581 0.0000 0.0000
# 5 0.0000 0.0000 0.0000 0.0000 28.8883 0.0000
# 6 0.0000 0.0000 0.0000 0.0000 0.0000 -131.4631
#
#
#
# Elastic Compliance Matrix: (Units=1/GPa)
#
#
# Indices 1 2 3 4 5 6 
#
# 1 0.013857 -0.005237 -0.000805 0.000000 0.000000 0.000000
# 2 -0.005237 0.016478 -0.003757 0.000000 0.000000 0.000000
# 3 -0.000805 -0.003757 0.025156 0.000000 0.000000 0.000000
# 4 0.000000 0.000000 0.000000 0.040720 0.000000 0.000000
# 5 0.000000 0.000000 0.000000 0.000000 0.034616 0.000000
# 6 0.000000 0.000000 0.000000 0.000000 0.000000 -0.007607
#
#
# Mechanical properties :
#
#
# Convention : Reuss Voigt Hill
#
# Bulk Modulus (GPa) = 27.86019 32.23457 30.04738
# Shear Modulus (GPa) = 32.30371 -5.56359 13.37006
#
# Velocity S-wave (km/s) = 3.76143 -1.56101 2.41988
# Velocity P-wave (km/s) = 5.57375 3.29683 4.57907
#
# Compressibility (1/GPa) = 0.03589351
#
# Stress axis : x y z
#
# Youngs Moduli (GPa) = 72.16794 60.68848 39.75147
#
# Poissons Ratio (x) = 0.31781 0.03198
# Poissons Ratio (y) = 0.37792 0.14936
# Poissons Ratio (z) = 0.05806 0.22802
#
# Static dielectric constant tensor:
#      x y z
#    x 1.600060 0.000000 0.000000 
#    y 0.000000 1.882780 0.000000 
#    z 0.000000 0.000000 1.999060 
# 
# From -- ./inp_files/23351.got.cif
#   From: 2010.05.17/outbox.cif.g08.bks.cpg/sg20_12_cif.got.tgz:23351.got - 2010.06.03 22:52:26.
