data_PCOD9319844
_publ_section_title
;
Structure prediction by ZEFSAII (Michael W. Deem and Ramdas Pophale) SiO2 
 PCOD9319844
Probable space group: C 2 2 21
;
_chemical_formula_sum "Si O2"
_cell_formula_units_Z 32
_cell_length_a 8.610646
_cell_length_b 17.431380
_cell_length_c 10.221621
_cell_angle_alpha 90.000000
_cell_angle_beta 90.000000
_cell_angle_gamma 90.000000
_cell_volume 1534.218727
_symmetry_space_group_name_H-M "C 2 2 21"
_symmetry_group_IT_number 20
_symmetry_cell_setting 'orthorhombic'
loop_
_space_group_symop_operation_xyz
x,y,z
-x,-y,1/2+z
x,-y,-z
-x,y,1/2-z
1/2+x,1/2+y,z
1/2-x,1/2-y,1/2+z
1/2+x,1/2-y,-z
1/2-x,1/2+y,1/2-z
loop_
_atom_site_type_symbol
_atom_site_label
_atom_site_fract_x
_atom_site_fract_y
_atom_site_fract_z
Si Si1 0.781452 0.544970 0.821048
Si Si2 0.000000 0.231840 0.250000
Si Si3 0.275022 0.398438 0.830678
Si Si4 0.919121 0.627078 0.581164
Si Si5 0.986407 0.000000 0.500000
O O1 0.789982 0.456572 0.777114
O O2 0.793420 0.594578 0.687100
O O3 0.931191 0.573130 0.900094
O O4 0.626790 0.550241 0.907257
O O5 0.145642 0.176696 0.272978
O O6 0.031721 0.288783 0.129045
O O7 0.148242 0.377340 0.937994
O O8 0.407987 0.446947 0.907851
#
# Coordination Sequence:
#
# PCOD9319844 Si02
#       5
#     8   4   8   8   4
#     4  10  22  40  64  98 129 170 219 270 323 385
#     4  10  24  44  64 102 138 172 218 268 342 390
#     4  12  22  44  69 100 131 176 222 276 324 392
#     4  10  25  43  66  96 144 170 219 275 329 396
#     4  12  22  34  72 102 126 164 226 284 314 386
#
# _framework density 20.857521999999999
#
# number of rings (size 3 to 8) (size 9 to 14) (size 15 to 20)
#    0.000    1.500    5.000    0.000    7.000    4.000 
#    0.000    0.000    0.000    0.000    0.000    0.000 
#    0.000    0.000    0.000    0.000    0.000    0.000 
#
# Total GULP energy -89483.943271 kJ/mol
# GULP energy per Si atom -5592.746454 kJ/mol
# Density = 2.081005 g / cm^3
# Si number density = 20.857522 Si / 1000 Ang^3
#
#
#
# Elastic Constant Matrix: (Units=GPa)
#
#
# Indices 1 2 3 4 5 6 
#
# 1 96.6275 62.5892 41.0688 0.0000 0.0000 0.0000
# 2 62.5892 155.1126 44.6643 0.0000 0.0000 0.0000
# 3 41.0688 44.6643 66.7276 0.0000 0.0000 0.0000
# 4 0.0000 0.0000 0.0000 20.6090 0.0000 0.0000
# 5 0.0000 0.0000 0.0000 0.0000 46.9161 0.0000
# 6 0.0000 0.0000 0.0000 0.0000 0.0000 46.4443
#
#
#
# Elastic Compliance Matrix: (Units=1/GPa)
#
#
# Indices 1 2 3 4 5 6 
#
# 1 0.016257 -0.004557 -0.006955 0.000000 0.000000 0.000000
# 2 -0.004557 0.009264 -0.003396 0.000000 0.000000 0.000000
# 3 -0.006955 -0.003396 0.021540 0.000000 0.000000 0.000000
# 4 0.000000 0.000000 0.000000 0.048523 0.000000 0.000000
# 5 0.000000 0.000000 0.000000 0.000000 0.021315 0.000000
# 6 0.000000 0.000000 0.000000 0.000000 0.000000 0.021531
#
#
# Mechanical properties :
#
#
# Convention : Reuss Voigt Hill
#
# Bulk Modulus (GPa) = 57.99090 68.34583 63.16836
# Shear Modulus (GPa) = 28.73667 34.13691 31.43679
#
# Velocity S-wave (km/s) = 3.71585 4.04997 3.88650
# Velocity P-wave (km/s) = 6.80248 7.39654 7.10572
#
# Compressibility (1/GPa) = 0.01724409
#
# Stress axis : x y z
#
# Youngs Moduli (GPa) = 61.51204 107.94979 46.42484
#
# Poissons Ratio (x) = 0.49193 0.32290
# Poissons Ratio (y) = 0.28031 0.15765
# Poissons Ratio (z) = 0.42784 0.36658
#
# Static dielectric constant tensor:
#      x y z
#    x 1.764430 0.000000 0.000000 
#    y 0.000000 1.714500 0.000000 
#    z 0.000000 0.000000 1.779580 
# 
# From -- ./inp_files/12601.got.cif
#   From: 2010.05.17/outbox.cif.g08.bks.cpg/sg20_7_cif.got.tgz:12601.got - 2010.06.03 22:52:26.
