data_PCOD9319424
_publ_section_title
;
Structure prediction by ZEFSAII (Michael W. Deem and Ramdas Pophale) SiO2 
 PCOD9319424
Probable space group: C 2 2 21
;
_chemical_formula_sum "Si O2"
_cell_formula_units_Z 32
_cell_length_a 26.627910
_cell_length_b 9.876468
_cell_length_c 5.272010
_cell_angle_alpha 90.000000
_cell_angle_beta 90.000000
_cell_angle_gamma 90.000000
_cell_volume 1386.484334
_symmetry_space_group_name_H-M "C 2 2 21"
_symmetry_group_IT_number 20
_symmetry_cell_setting 'orthorhombic'
loop_
_space_group_symop_operation_xyz
x,y,z
-x,-y,1/2+z
x,-y,-z
-x,y,1/2-z
1/2+x,1/2+y,z
1/2-x,1/2-y,1/2+z
1/2+x,1/2-y,-z
1/2-x,1/2+y,1/2-z
loop_
_atom_site_type_symbol
_atom_site_label
_atom_site_fract_x
_atom_site_fract_y
_atom_site_fract_z
Si Si1 0.768703 0.333890 0.494074
Si Si2 0.113552 0.304857 0.931884
Si Si3 0.052418 0.902007 0.316778
Si Si4 0.059798 0.632855 0.561304
O O1 0.757024 0.500000 0.500000
O O2 0.749930 0.251608 0.242824
O O3 0.829036 0.319570 0.497976
O O4 0.089385 0.155441 0.894648
O O5 0.104069 0.368222 0.652880
O O6 0.080573 0.363771 0.158580
O O7 0.034198 0.771161 0.478972
O O8 0.000000 0.970361 0.250000
O O9 0.082605 0.000000 0.500000
O O10 0.028574 0.500000 0.500000
#
# Coordination Sequence:
#
# PCOD9319424 Si02
#       4
#     8   8   8   8
#     4  12  26  48  75 111 150 193 249 311 378 447
#     4  10  24  44  72  97 138 190 235 292 361 436
#     4  10  26  43  68 103 144 189 237 297 363 429
#     4  10  21  42  67  98 130 181 236 288 351 425
#
# _framework density 23.079957
#
# number of rings (size 3 to 8) (size 9 to 14) (size 15 to 20)
#    1.500    0.000    0.000    4.500    3.500    1.000 
#    9.000    0.000    0.000    0.000    0.000    0.000 
#    0.000    0.000    0.000    0.000    0.000    0.000 
#
# Total GULP energy -89095.959461 kJ/mol
# GULP energy per Si atom -5568.497466 kJ/mol
# Density = 2.302743 g / cm^3
# Si number density = 23.079957 Si / 1000 Ang^3
#
#
#
# Elastic Constant Matrix: (Units=GPa)
#
#
# Indices 1 2 3 4 5 6 
#
# 1 85.0020 25.7347 41.4164 0.0000 0.0000 0.0000
# 2 25.7347 154.6033 66.1895 0.0000 0.0000 0.0000
# 3 41.4164 66.1895 181.9064 0.0000 0.0000 0.0000
# 4 0.0000 0.0000 0.0000 48.5299 0.0000 0.0000
# 5 0.0000 0.0000 0.0000 0.0000 37.8417 0.0000
# 6 0.0000 0.0000 0.0000 0.0000 0.0000 5.5619
#
#
#
# Elastic Compliance Matrix: (Units=1/GPa)
#
#
# Indices 1 2 3 4 5 6 
#
# 1 0.013387 -0.001094 -0.002650 0.000000 0.000000 0.000000
# 2 -0.001094 0.007751 -0.002571 0.000000 0.000000 0.000000
# 3 -0.002650 -0.002571 0.007036 0.000000 0.000000 0.000000
# 4 0.000000 0.000000 0.000000 0.020606 0.000000 0.000000
# 5 0.000000 0.000000 0.000000 0.000000 0.026426 0.000000
# 6 0.000000 0.000000 0.000000 0.000000 0.000000 0.179795
#
#
# Mechanical properties :
#
#
# Convention : Reuss Voigt Hill
#
# Bulk Modulus (GPa) = 64.33334 76.46586 70.39960
# Shear Modulus (GPa) = 18.32761 37.59810 27.96285
#
# Velocity S-wave (km/s) = 2.82102 4.04051 3.48453
# Velocity P-wave (km/s) = 6.20850 7.41420 6.83798
#
# Compressibility (1/GPa) = 0.01554404
#
# Stress axis : x y z
#
# Youngs Moduli (GPa) = 74.70094 129.01419 142.12075
#
# Poissons Ratio (x) = 0.14112 0.37660
# Poissons Ratio (y) = 0.08171 0.36544
# Poissons Ratio (z) = 0.19795 0.33174
#
# Static dielectric constant tensor:
#      x y z
#    x 1.772540 0.000000 0.000000 
#    y 0.000000 2.004550 0.000000 
#    z 0.000000 0.000000 1.940340 
# 
# From -- ./inp_files/4511.got.cif
#   From: 2010.05.17/outbox.cif.g08.bks.cpg/sg20_3_cif.got.tgz:4511.got - 2010.06.03 22:52:26.
