data_PCOD9319399
_publ_section_title
;
Structure prediction by ZEFSAII (Michael W. Deem and Ramdas Pophale) SiO2 
 PCOD9319399
Probable space group: C 2 2 21
;
_chemical_formula_sum "Si O2"
_cell_formula_units_Z 56
_cell_length_a 20.915409
_cell_length_b 10.176733
_cell_length_c 12.466099
_cell_angle_alpha 90.000000
_cell_angle_beta 90.000000
_cell_angle_gamma 90.000000
_cell_volume 2653.415816
_symmetry_space_group_name_H-M "C 2 2 21"
_symmetry_group_IT_number 20
_symmetry_cell_setting 'orthorhombic'
loop_
_space_group_symop_operation_xyz
x,y,z
-x,-y,1/2+z
x,-y,-z
-x,y,1/2-z
1/2+x,1/2+y,z
1/2-x,1/2-y,1/2+z
1/2+x,1/2-y,-z
1/2-x,1/2+y,1/2-z
loop_
_atom_site_type_symbol
_atom_site_label
_atom_site_fract_x
_atom_site_fract_y
_atom_site_fract_z
Si Si1 0.973642 0.353975 0.521134
Si Si2 0.669726 0.830609 0.947437
Si Si3 0.197905 0.561885 0.815682
Si Si4 0.711720 0.451346 0.112273
Si Si5 0.434965 0.821595 0.284770
Si Si6 0.412188 0.466501 0.712682
Si Si7 0.534968 0.590844 0.597507
O O1 0.001566 0.500000 0.500000
O O2 0.903814 0.375555 0.573657
O O3 0.949186 0.293735 0.409073
O O4 0.017665 0.242369 0.573211
O O5 0.675366 0.680130 0.921581
O O6 0.708427 0.915602 0.860966
O O7 0.694840 0.860190 0.068734
O O8 0.244899 0.580177 0.715526
O O9 0.127880 0.594859 0.769056
O O10 0.654748 0.545953 0.152365
O O11 0.743066 0.500000 0.000000
O O12 0.500000 0.891279 0.250000
O O13 0.427773 0.676000 0.236509
O O14 0.469120 0.519932 0.637235
O O15 0.413590 0.572920 0.807995
O O16 0.557226 0.500000 0.500000
#
# Coordination Sequence:
#
# PCOD9319399 Si02
#       7
#     8   8   8   8   8   8   8
#     4  11  19  38  62  90 129 175 215 266 344 413
#     4  10  21  42  65  94 130 178 228 276 336 423
#     4  10  24  43  65  97 133 176 230 279 344 414
#     4  12  25  42  71  98 132 181 230 283 347 418
#     4  11  20  40  66  95 129 174 224 273 345 408
#     4  11  22  37  66 100 129 176 231 285 340 409
#     4  11  20  38  62  96 135 165 230 290 338 405
#
# _framework density 21.104870999999999
#
# number of rings (size 3 to 8) (size 9 to 14) (size 15 to 20)
#    0.000    1.143    7.143    2.143    4.000    0.000 
#    7.714    2.143    0.000    0.000    0.000    0.000 
#    0.000    0.000    0.000    0.000    0.000    0.000 
#
# Total GULP energy -155950.055050 kJ/mol
# GULP energy per Si atom -5569.644823 kJ/mol
# Density = 2.105684 g / cm^3
# Si number density = 21.104871 Si / 1000 Ang^3
#
#
#
# Elastic Constant Matrix: (Units=GPa)
#
#
# Indices 1 2 3 4 5 6 
#
# 1 63.7327 4.2537 31.2207 0.0000 0.0000 0.0000
# 2 4.2537 89.1941 12.6812 0.0000 0.0000 0.0000
# 3 31.2207 12.6812 80.1967 0.0000 0.0000 0.0000
# 4 0.0000 0.0000 0.0000 27.0286 0.0000 0.0000
# 5 0.0000 0.0000 0.0000 0.0000 30.8138 0.0000
# 6 0.0000 0.0000 0.0000 0.0000 0.0000 15.9962
#
#
#
# Elastic Compliance Matrix: (Units=1/GPa)
#
#
# Indices 1 2 3 4 5 6 
#
# 1 0.019390 0.000152 -0.007573 0.000000 0.000000 0.000000
# 2 0.000152 0.011471 -0.001873 0.000000 0.000000 0.000000
# 3 -0.007573 -0.001873 0.015713 0.000000 0.000000 0.000000
# 4 0.000000 0.000000 0.000000 0.036998 0.000000 0.000000
# 5 0.000000 0.000000 0.000000 0.000000 0.032453 0.000000
# 6 0.000000 0.000000 0.000000 0.000000 0.000000 0.062515
#
#
# Mechanical properties :
#
#
# Convention : Reuss Voigt Hill
#
# Bulk Modulus (GPa) = 35.73106 36.60386 36.16746
# Shear Modulus (GPa) = 24.21825 27.09891 25.65858
#
# Velocity S-wave (km/s) = 3.39118 3.58720 3.49057
# Velocity P-wave (km/s) = 5.68335 5.87697 5.78097
#
# Compressibility (1/GPa) = 0.02798685
#
# Stress axis : x y z
#
# Youngs Moduli (GPa) = 51.57311 87.17986 63.63958
#
# Poissons Ratio (x) = -0.01324 0.48191
# Poissons Ratio (y) = -0.00783 0.11919
# Poissons Ratio (z) = 0.39054 0.16328
#
# Static dielectric constant tensor:
#      x y z
#    x 1.773480 0.000000 0.000000 
#    y 0.000000 1.777660 0.000000 
#    z 0.000000 0.000000 1.876080 
# 
# From -- ./inp_files/16323.got.cif
#   From: 2010.05.17/outbox.cif.g08.bks.cpg/sg20_9_cif.got.tgz:16323.got - 2010.06.03 22:52:26.
