data_PCOD9319199
_publ_section_title
;
Structure prediction by ZEFSAII (Michael W. Deem and Ramdas Pophale) SiO2 
 PCOD9319199
Probable space group: C 2 2 21
;
_chemical_formula_sum "Si O2"
_cell_formula_units_Z 64
_cell_length_a 8.928400
_cell_length_b 23.168109
_cell_length_c 14.806626
_cell_angle_alpha 90.000000
_cell_angle_beta 90.000000
_cell_angle_gamma 90.000000
_cell_volume 3062.811953
_symmetry_space_group_name_H-M "C 2 2 21"
_symmetry_group_IT_number 20
_symmetry_cell_setting 'orthorhombic'
loop_
_space_group_symop_operation_xyz
x,y,z
-x,-y,1/2+z
x,-y,-z
-x,y,1/2-z
1/2+x,1/2+y,z
1/2-x,1/2-y,1/2+z
1/2+x,1/2-y,-z
1/2-x,1/2+y,1/2-z
loop_
_atom_site_type_symbol
_atom_site_label
_atom_site_fract_x
_atom_site_fract_y
_atom_site_fract_z
Si Si1 0.679965 0.438065 0.052711
Si Si2 0.930767 0.742200 0.153543
Si Si3 0.338444 0.066027 0.226144
Si Si4 0.602501 0.634341 0.587189
Si Si5 0.025754 0.442619 0.543688
Si Si6 0.825245 0.818573 0.743871
Si Si7 0.333817 0.167807 0.434498
Si Si8 0.332641 0.538605 0.763646
O O1 0.534884 0.397523 0.035919
O O2 0.693905 0.438740 0.161969
O O3 0.654066 0.500000 0.000000
O O4 0.841560 0.416516 0.017944
O O5 0.953616 0.809940 0.141306
O O6 0.760232 0.721941 0.171282
O O7 0.000000 0.724581 0.250000
O O8 0.021184 0.709545 0.074177
O O9 0.500000 0.092325 0.250000
O O10 0.379744 0.038427 0.130618
O O11 0.218003 0.115978 0.216234
O O12 0.279454 0.013501 0.285903
O O13 0.725759 0.662244 0.520427
O O14 0.665196 0.587332 0.659202
O O15 0.960317 0.500000 0.500000
O O16 0.903433 0.396161 0.569377
O O17 0.761637 0.815309 0.846231
O O18 0.000000 0.807992 0.750000
O O19 0.500000 0.513460 0.750000
#
# Coordination Sequence:
#
# PCOD9319199 Si02
#       8
#     8   8   8   8   8   8   8   8
#     4  10  21  40  64  94 132 178 220 271 338 406
#     4  10  22  49  68  89 134 177 226 285 347 401
#     4  12  21  39  64  95 133 173 215 263 338 404
#     4  11  26  41  69 101 135 178 228 286 348 405
#     4  11  22  40  63  94 136 173 214 271 329 396
#     4  11  24  42  70  96 127 174 230 278 331 407
#     4  11  25  41  63  98 128 172 224 277 336 407
#     4  10  22  40  59  97 138 175 218 273 342 404
#
# _framework density 20.895828999999999
#
# number of rings (size 3 to 8) (size 9 to 14) (size 15 to 20)
#    0.000    1.250    5.000    1.875    3.500    4.500 
#    0.000    3.125    0.000    0.000    0.000    0.000 
#    0.000    0.000    0.000    0.000    0.000    0.000 
#
# Total GULP energy -178262.090444 kJ/mol
# GULP energy per Si atom -5570.690326 kJ/mol
# Density = 2.084827 g / cm^3
# Si number density = 20.895829 Si / 1000 Ang^3
#
#
#
# Elastic Constant Matrix: (Units=GPa)
#
#
# Indices 1 2 3 4 5 6 
#
# 1 108.2198 16.9005 18.9627 0.0000 0.0000 0.0000
# 2 16.9005 91.3065 2.2842 0.0000 0.0000 0.0000
# 3 18.9627 2.2842 59.5437 0.0000 0.0000 0.0000
# 4 0.0000 0.0000 0.0000 31.4822 0.0000 0.0000
# 5 0.0000 0.0000 0.0000 0.0000 32.0969 0.0000
# 6 0.0000 0.0000 0.0000 0.0000 0.0000 15.4679
#
#
#
# Elastic Compliance Matrix: (Units=1/GPa)
#
#
# Indices 1 2 3 4 5 6 
#
# 1 0.010069 -0.001785 -0.003138 0.000000 0.000000 0.000000
# 2 -0.001785 0.011279 0.000136 0.000000 0.000000 0.000000
# 3 -0.003138 0.000136 0.017789 0.000000 0.000000 0.000000
# 4 0.000000 0.000000 0.000000 0.031764 0.000000 0.000000
# 5 0.000000 0.000000 0.000000 0.000000 0.031156 0.000000
# 6 0.000000 0.000000 0.000000 0.000000 0.000000 0.064650
#
#
# Mechanical properties :
#
#
# Convention : Reuss Voigt Hill
#
# Bulk Modulus (GPa) = 33.82757 37.26277 35.54517
# Shear Modulus (GPa) = 26.86211 30.53757 28.69984
#
# Velocity S-wave (km/s) = 3.58931 3.82700 3.71006
# Velocity P-wave (km/s) = 5.77939 6.11549 5.94982
#
# Compressibility (1/GPa) = 0.02956168
#
# Stress axis : x y z
#
# Youngs Moduli (GPa) = 99.31332 88.65902 56.21583
#
# Poissons Ratio (x) = 0.15828 0.17642
# Poissons Ratio (y) = 0.17730 -0.00764
# Poissons Ratio (z) = 0.31167 -0.01204
#
# Static dielectric constant tensor:
#      x y z
#    x 1.792310 0.000000 0.000000 
#    y 0.000000 1.732940 0.000000 
#    z 0.000000 0.000000 1.894210 
# 
# From -- ./inp_files/19365.got.cif
#   From: 2010.05.17/outbox.cif.g08.bks.cpg/sg20_10_cif.got.tgz:19365.got - 2010.06.03 22:52:26.
