data_PCOD9319298
_publ_section_title
;
Structure prediction by ZEFSAII (Michael W. Deem and Ramdas Pophale) SiO2 
 PCOD9319298
Probable space group: C 2 2 21
;
_chemical_formula_sum "Si O2"
_cell_formula_units_Z 40
_cell_length_a 11.263939
_cell_length_b 8.053644
_cell_length_c 16.377953
_cell_angle_alpha 90.000000
_cell_angle_beta 90.000000
_cell_angle_gamma 90.000000
_cell_volume 1485.738368
_symmetry_space_group_name_H-M "C 2 2 21"
_symmetry_group_IT_number 20
_symmetry_cell_setting 'orthorhombic'
loop_
_space_group_symop_operation_xyz
x,y,z
-x,-y,1/2+z
x,-y,-z
-x,y,1/2-z
1/2+x,1/2+y,z
1/2-x,1/2-y,1/2+z
1/2+x,1/2-y,-z
1/2-x,1/2+y,1/2-z
loop_
_atom_site_type_symbol
_atom_site_label
_atom_site_fract_x
_atom_site_fract_y
_atom_site_fract_z
Si Si1 0.639485 0.384969 0.320629
Si Si2 0.571238 0.963874 0.631537
Si Si3 0.780946 0.000000 0.500000
Si Si4 0.639787 0.500000 0.500000
Si Si5 0.341436 0.805012 0.580238
Si Si6 0.668389 0.740392 0.270762
O O1 0.579672 0.204897 0.315752
O O2 0.598297 0.449138 0.409475
O O3 0.627309 0.549073 0.263449
O O4 0.778265 0.332151 0.308300
O O5 0.447716 0.934795 0.585188
O O6 0.687549 0.962771 0.573347
O O7 0.580851 0.134468 0.681976
O O8 0.871194 0.137818 0.533409
O O9 0.728277 0.353852 0.526148
O O10 0.283660 0.772741 0.668810
#
# Coordination Sequence:
#
# PCOD9319298 Si02
#       6
#     8   8   4   4   8   8
#     4  11  21  42  69  94 134 183 224 284 352 400
#     4  11  22  42  69  95 140 179 225 283 346 403
#     4  10  21  43  66 100 140 182 223 291 338 408
#     4  10  21  41  64  90 132 176 225 283 340 402
#     4  10  22  40  66  99 135 175 233 277 340 413
#     4  10  23  42  68  94 133 184 227 282 344 406
#
# _framework density 26.922642
#
# number of rings (size 3 to 8) (size 9 to 14) (size 15 to 20)
#    0.000    1.600    4.000    0.600    0.000    1.600 
#    3.600    0.000    8.800    0.000    0.000    0.000 
#    0.000    0.000    0.000    0.000    0.000    0.000 
#
# Total GULP energy -111546.492184 kJ/mol
# GULP energy per Si atom -5577.324609 kJ/mol
# Density = 2.686136 g / cm^3
# Si number density = 26.922642 Si / 1000 Ang^3
#
#
#
# Elastic Constant Matrix: (Units=GPa)
#
#
# Indices 1 2 3 4 5 6 
#
# 1 48.2479 15.4897 8.0003 0.0000 0.0000 0.0000
# 2 15.4897 168.7528 14.3787 0.0000 0.0000 0.0000
# 3 8.0003 14.3787 74.9027 0.0000 0.0000 0.0000
# 4 0.0000 0.0000 0.0000 32.1858 0.0000 0.0000
# 5 0.0000 0.0000 0.0000 0.0000 -3.6355 0.0000
# 6 0.0000 0.0000 0.0000 0.0000 0.0000 31.4761
#
#
#
# Elastic Compliance Matrix: (Units=1/GPa)
#
#
# Indices 1 2 3 4 5 6 
#
# 1 0.021635 -0.001819 -0.001962 0.000000 0.000000 0.000000
# 2 -0.001819 0.006177 -0.000992 0.000000 0.000000 0.000000
# 3 -0.001962 -0.000992 0.013751 0.000000 0.000000 0.000000
# 4 0.000000 0.000000 0.000000 0.031070 0.000000 0.000000
# 5 0.000000 0.000000 0.000000 0.000000 -0.275067 0.000000
# 6 0.000000 0.000000 0.000000 0.000000 0.000000 0.031770
#
#
# Mechanical properties :
#
#
# Convention : Reuss Voigt Hill
#
# Bulk Modulus (GPa) = 31.23130 40.84897 36.04013
# Shear Modulus (GPa) = -33.23433 28.94092 -2.14671
#
# Velocity S-wave (km/s) = -3.51727 3.28222 -0.89392
# Velocity P-wave (km/s) = 2.20666 5.43780 3.51428
#
# Compressibility (1/GPa) = 0.03201916
#
# Stress axis : x y z
#
# Youngs Moduli (GPa) = 46.22042 161.88415 72.72445
#
# Poissons Ratio (x) = 0.29443 0.14267
# Poissons Ratio (y) = 0.08406 0.07211
# Poissons Ratio (z) = 0.09067 0.16052
#
# Static dielectric constant tensor:
#      x y z
#    x 2.177470 0.000000 0.000000 
#    y 0.000000 2.458770 0.000000 
#    z 0.000000 0.000000 2.264350 
# 
# From -- ./inp_files/23202.got.cif
#   From: 2010.05.17/outbox.cif.g08.bks.cpg/sg20_12_cif.got.tgz:23202.got - 2010.06.03 22:52:26.
