data_PCOD9319843
_publ_section_title
;
Structure prediction by ZEFSAII (Michael W. Deem and Ramdas Pophale) SiO2 
 PCOD9319843
Probable space group: C 2 2 21
;
_chemical_formula_sum "Si O2"
_cell_formula_units_Z 40
_cell_length_a 12.485691
_cell_length_b 10.737427
_cell_length_c 10.845412
_cell_angle_alpha 90.000000
_cell_angle_beta 90.000000
_cell_angle_gamma 90.000000
_cell_volume 1453.981436
_symmetry_space_group_name_H-M "C 2 2 21"
_symmetry_group_IT_number 20
_symmetry_cell_setting 'orthorhombic'
loop_
_space_group_symop_operation_xyz
x,y,z
-x,-y,1/2+z
x,-y,-z
-x,y,1/2-z
1/2+x,1/2+y,z
1/2-x,1/2-y,1/2+z
1/2+x,1/2-y,-z
1/2-x,1/2+y,1/2-z
loop_
_atom_site_type_symbol
_atom_site_label
_atom_site_fract_x
_atom_site_fract_y
_atom_site_fract_z
Si Si1 0.861446 0.701109 0.506437
Si Si2 0.388148 0.102801 0.774788
Si Si3 0.358846 0.365744 0.890449
Si Si4 0.732100 0.590489 0.145734
Si Si5 0.562732 0.729035 0.629113
O O1 0.850402 0.630609 0.636271
O O2 0.766350 0.655690 0.420868
O O3 0.841096 0.846678 0.541356
O O4 0.974350 0.685624 0.440281
O O5 0.500000 0.034939 0.750000
O O6 0.407119 0.234861 0.840262
O O7 0.304530 0.031443 0.859228
O O8 0.346868 0.437580 0.761550
O O9 0.408073 0.376098 0.027538
O O10 0.827886 0.695796 0.158873
O O11 0.500000 0.685580 0.750000
#
# Coordination Sequence:
#
# PCOD9319843 Si02
#       5
#     8   8   8   8   8
#     4  10  22  40  64  96 137 175 213 281 344 403
#     4  11  22  41  69 104 129 166 232 291 338 390
#     4  10  22  41  63  97 135 176 217 279 345 401
#     4  10  23  39  66 102 132 171 225 287 343 395
#     4  11  20  39  64  93 132 181 222 261 338 403
#
# _framework density 27.510664999999999
#
# number of rings (size 3 to 8) (size 9 to 14) (size 15 to 20)
#    0.000    1.600    4.000    0.600    0.000    4.000 
#    3.600    0.000    0.000   21.600    0.000    0.000 
#    0.000    0.000    0.000    0.000    0.000    0.000 
#
# Total GULP energy -111748.016391 kJ/mol
# GULP energy per Si atom -5587.400820 kJ/mol
# Density = 2.744805 g / cm^3
# Si number density = 27.510665 Si / 1000 Ang^3
#
#
#
# Elastic Constant Matrix: (Units=GPa)
#
#
# Indices 1 2 3 4 5 6 
#
# 1 114.8635 13.5175 34.0966 0.0000 0.0000 0.0000
# 2 13.5175 45.1946 15.6912 0.0000 0.0000 0.0000
# 3 34.0966 15.6912 131.8717 0.0000 0.0000 0.0000
# 4 0.0000 0.0000 0.0000 24.8627 0.0000 0.0000
# 5 0.0000 0.0000 0.0000 0.0000 65.1092 0.0000
# 6 0.0000 0.0000 0.0000 0.0000 0.0000 12.8004
#
#
#
# Elastic Compliance Matrix: (Units=1/GPa)
#
#
# Indices 1 2 3 4 5 6 
#
# 1 0.009617 -0.002100 -0.002237 0.000000 0.000000 0.000000
# 2 -0.002100 0.023539 -0.002258 0.000000 0.000000 0.000000
# 3 -0.002237 -0.002258 0.008430 0.000000 0.000000 0.000000
# 4 0.000000 0.000000 0.000000 0.040221 0.000000 0.000000
# 5 0.000000 0.000000 0.000000 0.000000 0.015359 0.000000
# 6 0.000000 0.000000 0.000000 0.000000 0.000000 0.078122
#
#
# Mechanical properties :
#
#
# Convention : Reuss Voigt Hill
#
# Bulk Modulus (GPa) = 35.21522 46.50449 40.85986
# Shear Modulus (GPa) = 25.25989 35.79610 30.52800
#
# Velocity S-wave (km/s) = 3.03344 3.61109 3.33480
# Velocity P-wave (km/s) = 5.00973 5.85897 5.45091
#
# Compressibility (1/GPa) = 0.02839681
#
# Stress axis : x y z
#
# Youngs Moduli (GPa) = 103.98186 42.48357 118.62240
#
# Poissons Ratio (x) = 0.08921 0.26533
# Poissons Ratio (y) = 0.21835 0.26783
# Poissons Ratio (z) = 0.23258 0.09592
#
# Static dielectric constant tensor:
#      x y z
#    x 2.116020 0.000000 0.000000 
#    y 0.000000 2.268490 0.000000 
#    z 0.000000 0.000000 2.220100 
# 
# From -- ./inp_files/14860.got.cif
#   From: 2010.05.17/outbox.cif.g08.bks.cpg/sg20_8_cif.got.tgz:14860.got - 2010.06.03 22:52:26.
