data_PCOD9319703
_publ_section_title
;
Structure prediction by ZEFSAII (Michael W. Deem and Ramdas Pophale) SiO2 
 PCOD9319703
Probable space group: C 2 2 21
;
_chemical_formula_sum "Si O2"
_cell_formula_units_Z 60
_cell_length_a 5.374729
_cell_length_b 14.989807
_cell_length_c 28.666261
_cell_angle_alpha 90.000000
_cell_angle_beta 90.000000
_cell_angle_gamma 90.000000
_cell_volume 2309.530295
_symmetry_space_group_name_H-M "C 2 2 21"
_symmetry_group_IT_number 20
_symmetry_cell_setting 'orthorhombic'
loop_
_space_group_symop_operation_xyz
x,y,z
-x,-y,1/2+z
x,-y,-z
-x,y,1/2-z
1/2+x,1/2+y,z
1/2-x,1/2-y,1/2+z
1/2+x,1/2-y,-z
1/2-x,1/2+y,1/2-z
loop_
_atom_site_type_symbol
_atom_site_label
_atom_site_fract_x
_atom_site_fract_y
_atom_site_fract_z
Si Si1 0.635437 0.899760 0.649095
Si Si2 0.552656 0.732079 0.696979
Si Si3 0.106598 0.436518 0.197439
Si Si4 0.686933 0.186399 0.626561
Si Si5 0.680368 0.000000 0.500000
Si Si6 0.832387 0.588895 0.438863
Si Si7 0.476717 0.464347 0.406800
Si Si8 0.985613 0.762989 0.969791
O O1 0.726453 0.810131 0.675098
O O2 0.494158 0.868622 0.601746
O O3 0.446937 0.960694 0.680909
O O4 0.855478 0.965609 0.630235
O O5 0.500000 0.754727 0.750000
O O6 0.646998 0.628038 0.697889
O O7 0.302810 0.747534 0.666766
O O8 0.000000 0.429222 0.250000
O O9 0.959820 0.384406 0.157239
O O10 0.934206 0.136166 0.607903
O O11 0.540419 0.215053 0.580472
O O12 0.496067 0.077923 0.484153
O O13 0.831397 0.028507 0.544630
O O14 0.754938 0.493551 0.417992
O O15 0.578892 0.636494 0.452797
O O16 0.743967 0.744751 0.002934
#
# Coordination Sequence:
#
# PCOD9319703 Si02
#       8
#     8   8   8   8   4   8   8   8
#     4  10  24  43  68 102 141 189 240 314 377 469
#     4  12  24  44  75 104 140 190 248 312 390 464
#     4  11  24  46  72 103 148 191 248 318 394 471
#     4  11  25  45  69 103 143 192 242 310 383 460
#     4  10  22  38  64  96 134 186 244 300 364 450
#     4  11  23  41  67  99 140 186 249 306 380 454
#     4  10  23  41  66  94 137 187 239 300 370 445
#     4  12  30  46  73 109 153 201 256 321 390 469
#
# _framework density 25.979310000000002
#
# number of rings (size 3 to 8) (size 9 to 14) (size 15 to 20)
#    0.000    1.067    2.667    2.400   11.200    0.000 
#    0.000    0.000    0.000    0.000    0.000    0.000 
#    0.000    0.000    0.000    0.000    0.000    0.000 
#
# Total GULP energy -167549.885023 kJ/mol
# GULP energy per Si atom -5584.996167 kJ/mol
# Density = 2.592018 g / cm^3
# Si number density = 25.979310 Si / 1000 Ang^3
#
#
#
# Elastic Constant Matrix: (Units=GPa)
#
#
# Indices 1 2 3 4 5 6 
#
# 1 78.8985 19.0967 47.3028 0.0000 0.0000 0.0000
# 2 19.0967 78.7188 39.7553 0.0000 0.0000 0.0000
# 3 47.3028 39.7553 162.0756 0.0000 0.0000 0.0000
# 4 0.0000 0.0000 0.0000 36.2032 0.0000 0.0000
# 5 0.0000 0.0000 0.0000 0.0000 32.3850 0.0000
# 6 0.0000 0.0000 0.0000 0.0000 0.0000 28.7398
#
#
#
# Elastic Compliance Matrix: (Units=1/GPa)
#
#
# Indices 1 2 3 4 5 6 
#
# 1 0.015557 -0.001690 -0.004126 0.000000 0.000000 0.000000
# 2 -0.001690 0.014683 -0.003108 0.000000 0.000000 0.000000
# 3 -0.004126 -0.003108 0.008137 0.000000 0.000000 0.000000
# 4 0.000000 0.000000 0.000000 0.027622 0.000000 0.000000
# 5 0.000000 0.000000 0.000000 0.000000 0.030878 0.000000
# 6 0.000000 0.000000 0.000000 0.000000 0.000000 0.034795
#
#
# Mechanical properties :
#
#
# Convention : Reuss Voigt Hill
#
# Bulk Modulus (GPa) = 48.71394 59.11139 53.91267
# Shear Modulus (GPa) = 31.97663 33.70148 32.83906
#
# Velocity S-wave (km/s) = 3.51215 3.60563 3.55920
# Velocity P-wave (km/s) = 5.93622 6.33536 6.13903
#
# Compressibility (1/GPa) = 0.02052800
#
# Stress axis : x y z
#
# Youngs Moduli (GPa) = 64.27861 68.10457 122.90234
#
# Poissons Ratio (x) = 0.11513 0.50708
# Poissons Ratio (y) = 0.10866 0.38202
# Poissons Ratio (z) = 0.26520 0.21169
#
# Static dielectric constant tensor:
#      x y z
#    x 2.100830 0.000000 0.000000 
#    y 0.000000 2.254880 0.000000 
#    z 0.000000 0.000000 2.011220 
# 
# From -- ./inp_files/29924.got.cif
#   From: 2010.05.17/outbox.cif.g08.bks.cpg/sg20_15_cif.got.tgz:29924.got - 2010.06.03 22:52:26.
