data_PCOD9319550
_publ_section_title
;
Structure prediction by ZEFSAII (Michael W. Deem and Ramdas Pophale) SiO2 
 PCOD9319550
Probable space group: C 2 2 21
;
_chemical_formula_sum "Si O2"
_cell_formula_units_Z 44
_cell_length_a 13.718682
_cell_length_b 8.723942
_cell_length_c 15.931515
_cell_angle_alpha 90.000000
_cell_angle_beta 90.000000
_cell_angle_gamma 90.000000
_cell_volume 1906.699425
_symmetry_space_group_name_H-M "C 2 2 21"
_symmetry_group_IT_number 20
_symmetry_cell_setting 'orthorhombic'
loop_
_space_group_symop_operation_xyz
x,y,z
-x,-y,1/2+z
x,-y,-z
-x,y,1/2-z
1/2+x,1/2+y,z
1/2-x,1/2-y,1/2+z
1/2+x,1/2-y,-z
1/2-x,1/2+y,1/2-z
loop_
_atom_site_type_symbol
_atom_site_label
_atom_site_fract_x
_atom_site_fract_y
_atom_site_fract_z
Si Si1 0.203853 0.000000 0.000000
Si Si2 0.695821 0.272308 0.584706
Si Si3 0.000000 0.408175 0.750000
Si Si4 0.837349 0.500000 0.500000
Si Si5 0.159115 0.108598 0.176594
Si Si6 0.988082 0.331199 0.380899
Si Si7 0.312566 0.702082 0.749090
O O1 0.270360 0.145954 0.982211
O O2 0.145827 0.973005 0.913829
O O3 0.762419 0.418522 0.563781
O O4 0.579361 0.265948 0.585549
O O5 0.733377 0.215320 0.674904
O O6 0.020254 0.516685 0.669712
O O7 0.908445 0.299965 0.730471
O O8 0.910531 0.383930 0.452124
O O9 0.072971 0.227955 0.183120
O O10 0.257552 0.210256 0.176414
O O11 0.163226 0.978189 0.248236
#
# Coordination Sequence:
#
# PCOD9319550 Si02
#       7
#     4   8   4   4   8   8   8
#     4  10  21  45  68 102 142 192 235 309 376 438
#     4  11  24  45  71 104 145 190 244 308 371 447
#     4  12  24  46  70 104 142 200 248 308 386 448
#     4  12  25  49  74 110 150 194 253 309 374 458
#     4  11  24  45  70 104 150 192 253 314 379 454
#     4  12  25  46  74 105 153 200 246 311 383 452
#     4  11  25  44  71 103 143 191 252 313 372 458
#
# _framework density 23.076526999999999
#
# number of rings (size 3 to 8) (size 9 to 14) (size 15 to 20)
#    0.000    0.727    3.636    4.909    0.000    2.909 
#    0.000    0.000    0.000    0.000    0.000    0.000 
#    0.000    0.000    0.000    0.000    0.000    0.000 
#
# Total GULP energy -122940.695040 kJ/mol
# GULP energy per Si atom -5588.213411 kJ/mol
# Density = 2.302400 g / cm^3
# Si number density = 23.076527 Si / 1000 Ang^3
#
#
#
# Elastic Constant Matrix: (Units=GPa)
#
#
# Indices 1 2 3 4 5 6 
#
# 1 161.1032 53.0484 22.2306 0.0000 0.0000 0.0000
# 2 53.0484 98.5066 12.1870 0.0000 0.0000 0.0000
# 3 22.2306 12.1870 65.2952 0.0000 0.0000 0.0000
# 4 0.0000 0.0000 0.0000 28.5752 0.0000 0.0000
# 5 0.0000 0.0000 0.0000 0.0000 27.1084 0.0000
# 6 0.0000 0.0000 0.0000 0.0000 0.0000 38.4514
#
#
#
# Elastic Compliance Matrix: (Units=1/GPa)
#
#
# Indices 1 2 3 4 5 6 
#
# 1 0.007771 -0.003949 -0.001909 0.000000 0.000000 0.000000
# 2 -0.003949 0.012398 -0.000970 0.000000 0.000000 0.000000
# 3 -0.001909 -0.000970 0.016146 0.000000 0.000000 0.000000
# 4 0.000000 0.000000 0.000000 0.034995 0.000000 0.000000
# 5 0.000000 0.000000 0.000000 0.000000 0.036889 0.000000
# 6 0.000000 0.000000 0.000000 0.000000 0.000000 0.026007
#
#
# Mechanical properties :
#
#
# Convention : Reuss Voigt Hill
#
# Bulk Modulus (GPa) = 44.12921 55.53745 49.83333
# Shear Modulus (GPa) = 32.17227 34.65627 33.41427
#
# Velocity S-wave (km/s) = 3.73789 3.87951 3.80936
# Velocity P-wave (km/s) = 6.14765 6.64728 6.40234
#
# Compressibility (1/GPa) = 0.02266073
#
# Stress axis : x y z
#
# Youngs Moduli (GPa) = 128.68691 80.65810 61.93536
#
# Poissons Ratio (x) = 0.31849 0.11821
# Poissons Ratio (y) = 0.50814 0.06006
# Poissons Ratio (z) = 0.24562 0.07821
#
# Static dielectric constant tensor:
#      x y z
#    x 1.825330 0.000000 0.000000 
#    y 0.000000 1.910270 0.000000 
#    z 0.000000 0.000000 1.906910 
# 
# From -- ./inp_files/24768.got.cif
#   From: 2010.05.17/outbox.cif.g08.bks.cpg/sg20_13_cif.got.tgz:24768.got - 2010.06.03 22:52:26.
