data_PCOD9319510
_publ_section_title
;
Structure prediction by ZEFSAII (Michael W. Deem and Ramdas Pophale) SiO2 
 PCOD9319510
Probable space group: C 2 2 21
;
_chemical_formula_sum "Si O2"
_cell_formula_units_Z 64
_cell_length_a 11.276029
_cell_length_b 8.147299
_cell_length_c 28.890773
_cell_angle_alpha 90.000000
_cell_angle_beta 90.000000
_cell_angle_gamma 90.000000
_cell_volume 2654.171619
_symmetry_space_group_name_H-M "C 2 2 21"
_symmetry_group_IT_number 20
_symmetry_cell_setting 'orthorhombic'
loop_
_space_group_symop_operation_xyz
x,y,z
-x,-y,1/2+z
x,-y,-z
-x,y,1/2-z
1/2+x,1/2+y,z
1/2-x,1/2-y,1/2+z
1/2+x,1/2-y,-z
1/2-x,1/2+y,1/2-z
loop_
_atom_site_type_symbol
_atom_site_label
_atom_site_fract_x
_atom_site_fract_y
_atom_site_fract_z
Si Si1 0.673200 0.842090 0.286193
Si Si2 0.313449 0.142304 0.964273
Si Si3 0.031613 0.846185 0.648194
Si Si4 0.694800 0.544072 0.875867
Si Si5 0.381968 0.226628 0.222166
Si Si6 0.393754 0.764069 0.882135
Si Si7 0.187463 0.021486 0.434470
Si Si8 0.952609 0.456717 0.409300
O O1 0.578271 0.703434 0.301219
O O2 0.760906 0.786706 0.245956
O O3 0.751331 0.860397 0.332684
O O4 0.622475 0.026123 0.279239
O O5 0.212432 0.134422 0.924447
O O6 0.443130 0.087486 0.945503
O O7 0.324406 0.338207 0.973615
O O8 0.280083 0.000000 0.000000
O O9 0.137333 0.886239 0.612067
O O10 0.967320 0.681194 0.629635
O O11 0.933093 0.983072 0.639192
O O12 0.781600 0.387543 0.883875
O O13 0.500000 0.274744 0.250000
O O14 0.385375 0.299465 0.170362
O O15 0.385553 0.645273 0.926047
O O16 0.510872 0.872431 0.886254
O O17 0.323307 0.967728 0.430166
#
# Coordination Sequence:
#
# PCOD9319510 Si02
#       8
#     8   8   8   8   8   8   8   8
#     4  11  25  43  58  95 127 176 227 269 339 390
#     4  10  23  47  66 101 141 165 214 282 332 396
#     4  11  22  39  68  90 127 173 219 265 325 393
#     4  10  21  44  66  91 132 174 217 270 328 402
#     4  11  27  40  62  92 134 169 222 290 330 379
#     4  10  22  41  66  93 123 172 227 269 320 400
#     4  11  23  38  71  98 119 179 221 259 337 395
#     4  10  21  44  66  93 127 173 218 267 325 401
#
# _framework density 24.112984000000001
#
# number of rings (size 3 to 8) (size 9 to 14) (size 15 to 20)
#    0.000    1.500    6.250    0.000    7.000    2.000 
#    4.500    2.500    0.000    0.750    0.000    0.000 
#    0.000    0.000    0.000    0.000    0.000    0.000 
#
# Total GULP energy -178756.272514 kJ/mol
# GULP energy per Si atom -5586.133516 kJ/mol
# Density = 2.405810 g / cm^3
# Si number density = 24.112984 Si / 1000 Ang^3
#
#
#
# Elastic Constant Matrix: (Units=GPa)
#
#
# Indices 1 2 3 4 5 6 
#
# 1 99.2224 3.4130 8.0739 0.0000 0.0000 0.0000
# 2 3.4130 40.8708 -12.2748 0.0000 0.0000 0.0000
# 3 8.0739 -12.2748 47.2060 0.0000 0.0000 0.0000
# 4 0.0000 0.0000 0.0000 19.1451 0.0000 0.0000
# 5 0.0000 0.0000 0.0000 0.0000 16.1419 0.0000
# 6 0.0000 0.0000 0.0000 0.0000 0.0000 33.8867
#
#
#
# Elastic Compliance Matrix: (Units=1/GPa)
#
#
# Indices 1 2 3 4 5 6 
#
# 1 0.010306 -0.001508 -0.002155 0.000000 0.000000 0.000000
# 2 -0.001508 0.026761 0.007216 0.000000 0.000000 0.000000
# 3 -0.002155 0.007216 0.023429 0.000000 0.000000 0.000000
# 4 0.000000 0.000000 0.000000 0.052233 0.000000 0.000000
# 5 0.000000 0.000000 0.000000 0.000000 0.061950 0.000000
# 6 0.000000 0.000000 0.000000 0.000000 0.000000 0.029510
#
#
# Mechanical properties :
#
#
# Convention : Reuss Voigt Hill
#
# Bulk Modulus (GPa) = 14.79231 20.63593 17.71412
# Shear Modulus (GPa) = 22.76717 26.37387 24.57052
#
# Velocity S-wave (km/s) = 3.07610 3.31080 3.19560
# Velocity P-wave (km/s) = 4.33179 4.81578 4.58018
#
# Compressibility (1/GPa) = 0.06760270
#
# Stress axis : x y z
#
# Youngs Moduli (GPa) = 97.03503 37.36845 42.68268
#
# Poissons Ratio (x) = 0.05634 0.09197
# Poissons Ratio (y) = 0.14630 -0.30801
# Poissons Ratio (z) = 0.20908 -0.26966
#
# Static dielectric constant tensor:
#      x y z
#    x 1.906450 0.000000 0.000000 
#    y 0.000000 2.058910 0.000000 
#    z 0.000000 0.000000 1.944210 
# 
# From -- ./inp_files/31220.got.cif
#   From: 2010.05.17/outbox.cif.g08.bks.cpg/sg20_16_cif.got.tgz:31220.got - 2010.06.03 22:52:26.
