data_PCOD9319611
_publ_section_title
;
Structure prediction by ZEFSAII (Michael W. Deem and Ramdas Pophale) SiO2 
 PCOD9319611
Probable space group: C 2 2 21
;
_chemical_formula_sum "Si O2"
_cell_formula_units_Z 28
_cell_length_a 12.603752
_cell_length_b 20.708654
_cell_length_c 5.077215
_cell_angle_alpha 90.000000
_cell_angle_beta 90.000000
_cell_angle_gamma 90.000000
_cell_volume 1325.187332
_symmetry_space_group_name_H-M "C 2 2 21"
_symmetry_group_IT_number 20
_symmetry_cell_setting 'orthorhombic'
loop_
_space_group_symop_operation_xyz
x,y,z
-x,-y,1/2+z
x,-y,-z
-x,y,1/2-z
1/2+x,1/2+y,z
1/2-x,1/2-y,1/2+z
1/2+x,1/2-y,-z
1/2-x,1/2+y,1/2-z
loop_
_atom_site_type_symbol
_atom_site_label
_atom_site_fract_x
_atom_site_fract_y
_atom_site_fract_z
Si Si1 0.617520 0.566853 0.567814
Si Si2 0.776366 0.787918 0.515105
Si Si3 0.500000 0.327948 0.750000
Si Si4 0.757726 0.568627 0.068767
O O1 0.560907 0.500000 0.500000
O O2 0.549552 0.626685 0.475843
O O3 0.659579 0.566869 0.862593
O O4 0.718361 0.566080 0.368792
O O5 0.776375 0.762177 0.218318
O O6 0.897232 0.793997 0.623396
O O7 0.711597 0.856117 0.529421
O O8 0.815706 0.500000 0.000000
#
# Coordination Sequence:
#
# PCOD9319611 Si02
#       4
#     8   8   4   8
#     4   9  18  30  50  79 108 140 170 201 266 349
#     4  11  23  37  54  81 113 146 184 221 265 325
#     4  10  22  36  54  76 114 150 174 220 270 316
#     4   9  18  34  53  77 110 143 175 216 266 327
#
# _framework density 21.129089
#
# number of rings (size 3 to 8) (size 9 to 14) (size 15 to 20)
#    0.000    2.286    0.000    3.429    0.000   19.429 
#    0.000    0.000    0.000    0.000    0.000    4.000 
#    0.000    2.286    0.000    0.000    0.000    0.000 
#
# Total GULP energy -77977.266328 kJ/mol
# GULP energy per Si atom -5569.804738 kJ/mol
# Density = 2.108100 g / cm^3
# Si number density = 21.129089 Si / 1000 Ang^3
#
#
#
# Elastic Constant Matrix: (Units=GPa)
#
#
# Indices 1 2 3 4 5 6 
#
# 1 24.9493 -4.2261 -9.4370 0.0000 0.0000 0.0000
# 2 -4.2261 116.1347 2.0742 0.0000 0.0000 0.0000
# 3 -9.4370 2.0742 74.8065 0.0000 0.0000 0.0000
# 4 0.0000 0.0000 0.0000 49.3147 0.0000 0.0000
# 5 0.0000 0.0000 0.0000 0.0000 23.2760 0.0000
# 6 0.0000 0.0000 0.0000 0.0000 0.0000 13.2417
#
#
#
# Elastic Compliance Matrix: (Units=1/GPa)
#
#
# Indices 1 2 3 4 5 6 
#
# 1 0.042331 0.001446 0.005300 0.000000 0.000000 0.000000
# 2 0.001446 0.008664 -0.000058 0.000000 0.000000 0.000000
# 3 0.005300 -0.000058 0.014038 0.000000 0.000000 0.000000
# 4 0.000000 0.000000 0.000000 0.020278 0.000000 0.000000
# 5 0.000000 0.000000 0.000000 0.000000 0.042963 0.000000
# 6 0.000000 0.000000 0.000000 0.000000 0.000000 0.075519
#
#
# Mechanical properties :
#
#
# Convention : Reuss Voigt Hill
#
# Bulk Modulus (GPa) = 12.75362 21.41251 17.08307
# Shear Modulus (GPa) = 23.08900 32.33178 27.71039
#
# Velocity S-wave (km/s) = 3.30928 3.91602 3.62537
# Velocity P-wave (km/s) = 4.54433 5.53201 5.06231
#
# Compressibility (1/GPa) = 0.07840912
#
# Stress axis : x y z
#
# Youngs Moduli (GPa) = 23.62343 115.41564 71.23504
#
# Poissons Ratio (x) = -0.16686 -0.37755
# Poissons Ratio (y) = -0.03415 0.00412
# Poissons Ratio (z) = -0.12521 0.00668
#
# Static dielectric constant tensor:
#      x y z
#    x 1.748300 0.000000 0.000000 
#    y 0.000000 1.920780 0.000000 
#    z 0.000000 0.000000 1.770770 
# 
# From -- ./inp_files/952.got.cif
#   From: 2010.05.17/outbox.cif.g08.bks.cpg/sg20_1_cif.got.tgz:952.got - 2010.06.03 22:52:26.
