data_PCOD9319329
_publ_section_title
;
Structure prediction by ZEFSAII (Michael W. Deem and Ramdas Pophale) SiO2 
 PCOD9319329
Probable space group: C 2 2 21
;
_chemical_formula_sum "Si O2"
_cell_formula_units_Z 40
_cell_length_a 8.925891
_cell_length_b 17.318197
_cell_length_c 11.148553
_cell_angle_alpha 90.000000
_cell_angle_beta 90.000000
_cell_angle_gamma 90.000000
_cell_volume 1723.347099
_symmetry_space_group_name_H-M "C 2 2 21"
_symmetry_group_IT_number 20
_symmetry_cell_setting 'orthorhombic'
loop_
_space_group_symop_operation_xyz
x,y,z
-x,-y,1/2+z
x,-y,-z
-x,y,1/2-z
1/2+x,1/2+y,z
1/2-x,1/2-y,1/2+z
1/2+x,1/2-y,-z
1/2-x,1/2+y,1/2-z
loop_
_atom_site_type_symbol
_atom_site_label
_atom_site_fract_x
_atom_site_fract_y
_atom_site_fract_z
Si Si1 0.729424 0.884236 0.194948
Si Si2 0.473022 0.830781 0.488104
Si Si3 0.684868 0.682673 0.947524
Si Si4 0.637109 0.060413 0.166370
Si Si5 0.427661 0.410872 0.965946
O O1 0.801023 0.859438 0.319631
O O2 0.668645 0.972015 0.201847
O O3 0.595793 0.830797 0.144892
O O4 0.848190 0.879155 0.086571
O O5 0.385288 0.767158 0.564427
O O6 0.646271 0.813333 0.493028
O O7 0.434265 0.915746 0.538279
O O8 0.580799 0.635861 0.040571
O O9 0.500000 0.089631 0.250000
O O10 0.808002 0.092197 0.143356
O O11 0.456976 0.500000 0.000000
#
# Coordination Sequence:
#
# PCOD9319329 Si02
#       5
#     8   8   8   8   8
#     4  10  22  43  68  93 128 178 226 278 347 407
#     4  11  24  40  65  98 133 173 227 283 335 410
#     4  12  24  42  65  96 138 182 224 281 347 402
#     4  10  21  41  67  97 130 171 221 275 335 403
#     4   9  21  40  63  92 129 170 221 275 330 406
#
# _framework density 23.210646000000001
#
# number of rings (size 3 to 8) (size 9 to 14) (size 15 to 20)
#    0.000    1.600    0.000    6.600    0.000    6.400 
#    0.000    5.000    0.000    7.200    0.000    0.000 
#    0.000    0.000    0.000    0.000    0.000    0.000 
#
# Total GULP energy -111565.628624 kJ/mol
# GULP energy per Si atom -5578.281431 kJ/mol
# Density = 2.315782 g / cm^3
# Si number density = 23.210646 Si / 1000 Ang^3
#
#
#
# Elastic Constant Matrix: (Units=GPa)
#
#
# Indices 1 2 3 4 5 6 
#
# 1 186.0015 63.2752 31.4225 0.0000 0.0000 0.0000
# 2 63.2752 115.2109 35.4489 0.0000 0.0000 0.0000
# 3 31.4225 35.4489 79.7694 0.0000 0.0000 0.0000
# 4 0.0000 0.0000 0.0000 16.4361 0.0000 0.0000
# 5 0.0000 0.0000 0.0000 0.0000 47.3476 0.0000
# 6 0.0000 0.0000 0.0000 0.0000 0.0000 37.1356
#
#
#
# Elastic Compliance Matrix: (Units=1/GPa)
#
#
# Indices 1 2 3 4 5 6 
#
# 1 0.006704 -0.003324 -0.001164 0.000000 0.000000 0.000000
# 2 -0.003324 0.011702 -0.003891 0.000000 0.000000 0.000000
# 3 -0.001164 -0.003891 0.014724 0.000000 0.000000 0.000000
# 4 0.000000 0.000000 0.000000 0.060842 0.000000 0.000000
# 5 0.000000 0.000000 0.000000 0.000000 0.021120 0.000000
# 6 0.000000 0.000000 0.000000 0.000000 0.000000 0.026928
#
#
# Mechanical properties :
#
#
# Convention : Reuss Voigt Hill
#
# Bulk Modulus (GPa) = 61.07728 71.25277 66.16503
# Shear Modulus (GPa) = 30.44428 36.90622 33.67525
#
# Velocity S-wave (km/s) = 3.62560 3.99188 3.81314
# Velocity P-wave (km/s) = 6.62557 7.21192 6.92495
#
# Compressibility (1/GPa) = 0.01637270
#
# Stress axis : x y z
#
# Youngs Moduli (GPa) = 149.17504 85.45263 67.91750
#
# Poissons Ratio (x) = 0.28401 0.07903
# Poissons Ratio (y) = 0.49580 0.26428
# Poissons Ratio (z) = 0.17359 0.33251
#
# Static dielectric constant tensor:
#      x y z
#    x 1.938980 0.000000 0.000000 
#    y 0.000000 1.896610 0.000000 
#    z 0.000000 0.000000 1.904170 
# 
# From -- ./inp_files/12723.got.cif
#   From: 2010.05.17/outbox.cif.g08.bks.cpg/sg20_7_cif.got.tgz:12723.got - 2010.06.03 22:52:26.
