data_PCOD9319587
_publ_section_title
;
Structure prediction by ZEFSAII (Michael W. Deem and Ramdas Pophale) SiO2 
 PCOD9319587
Probable space group: C 2 2 21
;
_chemical_formula_sum "Si O2"
_cell_formula_units_Z 60
_cell_length_a 10.866367
_cell_length_b 29.543742
_cell_length_c 8.933875
_cell_angle_alpha 90.000000
_cell_angle_beta 90.000000
_cell_angle_gamma 90.000000
_cell_volume 2868.069972
_symmetry_space_group_name_H-M "C 2 2 21"
_symmetry_group_IT_number 20
_symmetry_cell_setting 'orthorhombic'
loop_
_space_group_symop_operation_xyz
x,y,z
-x,-y,1/2+z
x,-y,-z
-x,y,1/2-z
1/2+x,1/2+y,z
1/2-x,1/2-y,1/2+z
1/2+x,1/2-y,-z
1/2-x,1/2+y,1/2-z
loop_
_atom_site_type_symbol
_atom_site_label
_atom_site_fract_x
_atom_site_fract_y
_atom_site_fract_z
Si Si1 0.370926 0.761443 0.814842
Si Si2 0.500000 0.447142 0.750000
Si Si3 0.796475 0.110191 0.079228
Si Si4 0.196353 0.986714 0.148144
Si Si5 0.143933 0.113003 0.765562
Si Si6 0.197433 0.808094 0.046783
Si Si7 0.942989 0.802559 0.905180
Si Si8 0.886363 0.531227 0.360459
O O1 0.500000 0.780464 0.750000
O O2 0.316456 0.732690 0.672074
O O3 0.282142 0.795169 0.905978
O O4 0.403106 0.728680 0.955691
O O5 0.591811 0.417006 0.654600
O O6 0.419758 0.480030 0.648248
O O7 0.832189 0.162037 0.122709
O O8 0.674391 0.081171 0.115996
O O9 0.807977 0.109152 0.901747
O O10 0.154218 0.935456 0.157352
O O11 0.277610 0.000989 0.288194
O O12 0.269768 0.000000 0.000000
O O13 0.228418 0.148618 0.853643
O O14 0.000000 0.126833 0.750000
O O15 0.067192 0.823451 0.975234
O O16 0.000000 0.781941 0.750000
O O17 0.924238 0.500000 0.500000
O O18 0.000000 0.535960 0.250000
#
# Coordination Sequence:
#
# PCOD9319587 Si02
#       8
#     8   4   8   8   8   8   8   8
#     4  10  22  42  65 104 139 179 233 281 351 432
#     4  10  22  32  58 102 150 176 206 276 354 394
#     4  11  21  38  63 107 136 172 227 285 337 408
#     4  11  23  36  62  97 137 178 221 276 337 403
#     4  12  20  37  66 104 144 169 221 281 353 411
#     4  11  22  38  67  99 136 180 219 282 354 415
#     4  11  21  38  67 105 140 175 216 283 349 422
#     4  11  24  43  65  89 129 186 236 276 326 395
#
# _framework density 20.919992000000001
#
# number of rings (size 3 to 8) (size 9 to 14) (size 15 to 20)
#    0.000    1.067    5.333    2.400    0.000    0.000 
#    0.000    0.000    0.000   23.200   13.867    0.000 
#    0.000    0.000    0.000    0.000    0.000    0.000 
#
# Total GULP energy -167172.903267 kJ/mol
# GULP energy per Si atom -5572.430109 kJ/mol
# Density = 2.087238 g / cm^3
# Si number density = 20.919992 Si / 1000 Ang^3
#
#
#
# Elastic Constant Matrix: (Units=GPa)
#
#
# Indices 1 2 3 4 5 6 
#
# 1 77.9702 21.3674 36.9990 0.0000 0.0000 0.0000
# 2 21.3674 57.4312 30.3793 0.0000 0.0000 0.0000
# 3 36.9990 30.3793 138.2712 0.0000 0.0000 0.0000
# 4 0.0000 0.0000 0.0000 -4.8272 0.0000 0.0000
# 5 0.0000 0.0000 0.0000 0.0000 39.9184 0.0000
# 6 0.0000 0.0000 0.0000 0.0000 0.0000 4.8806
#
#
#
# Elastic Compliance Matrix: (Units=1/GPa)
#
#
# Indices 1 2 3 4 5 6 
#
# 1 0.015476 -0.004036 -0.003254 0.000000 0.000000 0.000000
# 2 -0.004036 0.020755 -0.003480 0.000000 0.000000 0.000000
# 3 -0.003254 -0.003480 0.008868 0.000000 0.000000 0.000000
# 4 0.000000 0.000000 0.000000 -0.207161 0.000000 0.000000
# 5 0.000000 0.000000 0.000000 0.000000 0.025051 0.000000
# 6 0.000000 0.000000 0.000000 0.000000 0.000000 0.204892
#
#
# Mechanical properties :
#
#
# Convention : Reuss Voigt Hill
#
# Bulk Modulus (GPa) = 42.45044 50.12934 46.28989
# Shear Modulus (GPa) = 51.40141 20.32283 35.86212
#
# Velocity S-wave (km/s) = 4.96224 3.12020 4.14484
# Velocity P-wave (km/s) = 7.29161 6.08237 6.71427
#
# Compressibility (1/GPa) = 0.02355688
#
# Stress axis : x y z
#
# Youngs Moduli (GPa) = 64.61703 48.18193 112.77133
#
# Poissons Ratio (x) = 0.19448 0.36698
# Poissons Ratio (y) = 0.26082 0.39243
# Poissons Ratio (z) = 0.21028 0.16767
#
# Static dielectric constant tensor:
#      x y z
#    x 1.769200 0.000000 0.000000 
#    y 0.000000 1.783930 0.000000 
#    z 0.000000 0.000000 1.994280 
# 
# From -- ./inp_files/7573.got.cif
#   From: 2010.05.17/outbox.cif.g08.bks.cpg/sg20_4_cif.got.tgz:7573.got - 2010.06.03 22:52:26.
