data_PCOD9319950
_publ_section_title
;
Structure prediction by ZEFSAII (Michael W. Deem and Ramdas Pophale) SiO2 
 PCOD9319950
Probable space group: C 2 2 21
;
_chemical_formula_sum "Si O2"
_cell_formula_units_Z 36
_cell_length_a 11.110954
_cell_length_b 14.724140
_cell_length_c 11.377415
_cell_angle_alpha 90.000000
_cell_angle_beta 90.000000
_cell_angle_gamma 90.000000
_cell_volume 1861.336473
_symmetry_space_group_name_H-M "C 2 2 21"
_symmetry_group_IT_number 20
_symmetry_cell_setting 'orthorhombic'
loop_
_space_group_symop_operation_xyz
x,y,z
-x,-y,1/2+z
x,-y,-z
-x,y,1/2-z
1/2+x,1/2+y,z
1/2-x,1/2-y,1/2+z
1/2+x,1/2-y,-z
1/2-x,1/2+y,1/2-z
loop_
_atom_site_type_symbol
_atom_site_label
_atom_site_fract_x
_atom_site_fract_y
_atom_site_fract_z
Si Si1 0.441049 0.152815 0.600606
Si Si2 0.473847 0.641748 0.120088
Si Si3 0.163479 0.451223 0.300945
Si Si4 0.703695 0.082023 0.094353
Si Si5 0.355400 0.500000 0.500000
O O1 0.491352 0.252883 0.617481
O O2 0.339654 0.128147 0.699708
O O3 0.544643 0.077452 0.625655
O O4 0.392537 0.145214 0.469242
O O5 0.500000 0.604999 0.250000
O O6 0.332982 0.628554 0.098896
O O7 0.558062 0.582815 0.035869
O O8 0.164061 0.541301 0.219487
O O9 0.270795 0.465541 0.392864
O O10 0.714056 0.000000 0.000000
#
# Coordination Sequence:
#
# PCOD9319950 Si02
#       5
#     8   8   8   8   4
#     4  10  24  41  67  95 134 169 219 284 330 386
#     4  12  23  44  63  98 135 173 224 277 334 399
#     4  10  22  41  64  96 128 170 222 263 336 401
#     4  10  22  43  67  91 131 175 215 271 330 396
#     4  12  26  38  70  94 130 180 224 264 344 408
#
# _framework density 19.340941999999998
#
# number of rings (size 3 to 8) (size 9 to 14) (size 15 to 20)
#    0.000    1.333    5.556    0.000   10.889    0.000 
#    0.000    0.000    0.000    5.333    0.000    0.000 
#    0.000    0.000    0.000    0.000    0.000    0.000 
#
# Total GULP energy -100324.712089 kJ/mol
# GULP energy per Si atom -5573.595116 kJ/mol
# Density = 1.929692 g / cm^3
# Si number density = 19.340942 Si / 1000 Ang^3
#
#
#
# Elastic Constant Matrix: (Units=GPa)
#
#
# Indices 1 2 3 4 5 6 
#
# 1 111.7608 51.9897 62.8288 0.0000 0.0000 0.0000
# 2 51.9897 85.5804 34.4108 0.0000 0.0000 0.0000
# 3 62.8288 34.4108 109.4574 0.0000 0.0000 0.0000
# 4 0.0000 0.0000 0.0000 25.6071 0.0000 0.0000
# 5 0.0000 0.0000 0.0000 0.0000 44.7833 0.0000
# 6 0.0000 0.0000 0.0000 0.0000 0.0000 1.7364
#
#
#
# Elastic Compliance Matrix: (Units=1/GPa)
#
#
# Indices 1 2 3 4 5 6 
#
# 1 0.016182 -0.006978 -0.007095 0.000000 0.000000 0.000000
# 2 -0.006978 0.016385 -0.001146 0.000000 0.000000 0.000000
# 3 -0.007095 -0.001146 0.013569 0.000000 0.000000 0.000000
# 4 0.000000 0.000000 0.000000 0.039052 0.000000 0.000000
# 5 0.000000 0.000000 0.000000 0.000000 0.022330 0.000000
# 6 0.000000 0.000000 0.000000 0.000000 0.000000 0.575908
#
#
# Mechanical properties :
#
#
# Convention : Reuss Voigt Hill
#
# Bulk Modulus (GPa) = 63.69996 67.25080 65.47538
# Shear Modulus (GPa) = 6.95319 24.92999 15.94159
#
# Velocity S-wave (km/s) = 1.89812 3.59412 2.87407
# Velocity P-wave (km/s) = 6.14903 7.21598 6.70377
#
# Compressibility (1/GPa) = 0.01569860
#
# Stress axis : x y z
#
# Youngs Moduli (GPa) = 61.79585 61.03300 73.69921
#
# Poissons Ratio (x) = 0.42588 0.52290
# Poissons Ratio (y) = 0.43120 0.08443
# Poissons Ratio (z) = 0.43844 0.06992
#
# Static dielectric constant tensor:
#      x y z
#    x 1.700410 0.000000 0.000000 
#    y 0.000000 1.670730 0.000000 
#    z 0.000000 0.000000 1.740790 
# 
# From -- ./inp_files/13792.got.cif
#   From: 2010.05.17/outbox.cif.g08.bks.cpg/sg20_7_cif.got.tgz:13792.got - 2010.06.03 22:52:26.
