data_PCOD9319933
_publ_section_title
;
Structure prediction by ZEFSAII (Michael W. Deem and Ramdas Pophale) SiO2 
 PCOD9319933
Probable space group: C 2 2 21
;
_chemical_formula_sum "Si O2"
_cell_formula_units_Z 36
_cell_length_a 14.798421
_cell_length_b 18.424306
_cell_length_c 7.198896
_cell_angle_alpha 90.000000
_cell_angle_beta 90.000000
_cell_angle_gamma 90.000000
_cell_volume 1962.783579
_symmetry_space_group_name_H-M "C 2 2 21"
_symmetry_group_IT_number 20
_symmetry_cell_setting 'orthorhombic'
loop_
_space_group_symop_operation_xyz
x,y,z
-x,-y,1/2+z
x,-y,-z
-x,y,1/2-z
1/2+x,1/2+y,z
1/2-x,1/2-y,1/2+z
1/2+x,1/2-y,-z
1/2-x,1/2+y,1/2-z
loop_
_atom_site_type_symbol
_atom_site_label
_atom_site_fract_x
_atom_site_fract_y
_atom_site_fract_z
Si Si1 0.771520 0.563053 0.348506
Si Si2 0.000000 0.815176 0.250000
Si Si3 0.130251 0.500000 0.500000
Si Si4 0.576304 0.825065 0.895484
Si Si5 0.560731 0.420101 0.573513
Si Si6 0.000000 0.397982 0.250000
O O1 0.796894 0.500000 0.500000
O O2 0.804217 0.538228 0.146875
O O3 0.828183 0.636314 0.376194
O O4 0.665337 0.575510 0.368383
O O5 0.070842 0.759754 0.153046
O O6 0.045580 0.864179 0.406330
O O7 0.066630 0.448473 0.372814
O O8 0.500000 0.856770 0.750000
O O9 0.546741 0.846035 0.100984
O O10 0.533690 0.500000 0.500000
O O11 0.500000 0.400625 0.750000
#
# Coordination Sequence:
#
# PCOD9319933 Si02
#       6
#     8   4   4   8   8   4
#     4  11  23  40  66 104 133 173 224 269 330 399
#     4  10  24  47  67  94 132 174 222 272 344 399
#     4  12  20  32  64 102 138 176 214 266 324 400
#     4  10  22  41  62  99 138 171 209 266 339 408
#     4  11  25  46  72  92 125 176 232 289 329 386
#     4  12  20  35  63  94 148 178 200 264 338 401
#
# _framework density 18.3413
#
# number of rings (size 3 to 8) (size 9 to 14) (size 15 to 20)
#    0.667    0.444    5.556    1.333    3.111    0.000 
#    4.000    0.000    0.000    0.000    0.000    0.000 
#    0.000    0.000    0.000    0.000    0.000    0.000 
#
# Total GULP energy -100374.707691 kJ/mol
# GULP energy per Si atom -5576.372649 kJ/mol
# Density = 1.829955 g / cm^3
# Si number density = 18.341300 Si / 1000 Ang^3
#
#
#
# Elastic Constant Matrix: (Units=GPa)
#
#
# Indices 1 2 3 4 5 6 
#
# 1 79.1486 47.7549 61.3655 0.0000 0.0000 0.0000
# 2 47.7549 126.4065 70.2476 0.0000 0.0000 0.0000
# 3 61.3655 70.2476 167.9023 0.0000 0.0000 0.0000
# 4 0.0000 0.0000 0.0000 42.7307 0.0000 0.0000
# 5 0.0000 0.0000 0.0000 0.0000 16.3518 0.0000
# 6 0.0000 0.0000 0.0000 0.0000 0.0000 -110.4033
#
#
#
# Elastic Compliance Matrix: (Units=1/GPa)
#
#
# Indices 1 2 3 4 5 6 
#
# 1 0.019344 -0.004403 -0.005228 0.000000 0.000000 0.000000
# 2 -0.004403 0.011310 -0.003123 0.000000 0.000000 0.000000
# 3 -0.005228 -0.003123 0.009173 0.000000 0.000000 0.000000
# 4 0.000000 0.000000 0.000000 0.023402 0.000000 0.000000
# 5 0.000000 0.000000 0.000000 0.000000 0.061155 0.000000
# 6 0.000000 0.000000 0.000000 0.000000 0.000000 -0.009058
#
#
# Mechanical properties :
#
#
# Convention : Reuss Voigt Hill
#
# Bulk Modulus (GPa) = 69.83117 81.35482 75.59300
# Shear Modulus (GPa) = 34.33904 2.67514 18.50709
#
# Velocity S-wave (km/s) = 4.33162 1.20901 3.17998
# Velocity P-wave (km/s) = 7.94815 6.81185 7.40184
#
# Compressibility (1/GPa) = 0.01432025
#
# Stress axis : x y z
#
# Youngs Moduli (GPa) = 51.69508 88.42044 109.01499
#
# Poissons Ratio (x) = 0.38929 0.56993
# Poissons Ratio (y) = 0.22760 0.34042
# Poissons Ratio (z) = 0.27026 0.27611
#
# Static dielectric constant tensor:
#      x y z
#    x 1.612190 0.000000 0.000000 
#    y 0.000000 1.649170 0.000000 
#    z 0.000000 0.000000 1.854080 
# 
# From -- ./inp_files/1788.got.cif
#   From: 2010.05.17/outbox.cif.g08.bks.cpg/sg20_1_cif.got.tgz:1788.got - 2010.06.03 22:52:26.
