data_PCOD9319106
_publ_section_title
;
Structure prediction by ZEFSAII (Michael W. Deem and Ramdas Pophale) SiO2 
 PCOD9319106
Probable space group: C 2 2 21
;
_chemical_formula_sum "Si O2"
_cell_formula_units_Z 64
_cell_length_a 19.110938
_cell_length_b 14.546299
_cell_length_c 12.151651
_cell_angle_alpha 90.000000
_cell_angle_beta 90.000000
_cell_angle_gamma 90.000000
_cell_volume 3378.079000
_symmetry_space_group_name_H-M "C 2 2 21"
_symmetry_group_IT_number 20
_symmetry_cell_setting 'orthorhombic'
loop_
_space_group_symop_operation_xyz
x,y,z
-x,-y,1/2+z
x,-y,-z
-x,y,1/2-z
1/2+x,1/2+y,z
1/2-x,1/2-y,1/2+z
1/2+x,1/2-y,-z
1/2-x,1/2+y,1/2-z
loop_
_atom_site_type_symbol
_atom_site_label
_atom_site_fract_x
_atom_site_fract_y
_atom_site_fract_z
Si Si1 0.127523 0.250974 0.066921
Si Si2 0.794557 0.038340 0.122681
Si Si3 0.467087 0.206678 0.948214
Si Si4 0.571264 0.178987 0.309854
Si Si5 0.904883 0.524715 0.879923
Si Si6 0.078649 0.139712 0.273908
Si Si7 0.797093 0.276988 0.654448
Si Si8 0.792385 0.621474 0.728195
O O1 0.116672 0.174527 0.162239
O O2 0.164491 0.337263 0.125888
O O3 0.048173 0.272320 0.032141
O O4 0.172962 0.233356 0.958399
O O5 0.869923 0.069801 0.166644
O O6 0.743451 0.127370 0.130568
O O7 0.762912 0.955106 0.192849
O O8 0.799138 0.000000 0.000000
O O9 0.462476 0.102334 0.904500
O O10 0.435202 0.273177 0.855069
O O11 0.427137 0.215798 0.064479
O O12 0.500000 0.209231 0.250000
O O13 0.638353 0.204393 0.237308
O O14 0.569231 0.068497 0.324792
O O15 0.846940 0.572761 0.807562
O O16 0.875010 0.500000 0.000000
O O17 0.000000 0.104263 0.250000
O O18 0.744632 0.206371 0.711856
#
# Coordination Sequence:
#
# PCOD9319106 Si02
#       8
#     8   8   8   8   8   8   8   8
#     4  11  22  41  66  96 131 174 219 271 333 396
#     4  12  25  43  67 101 131 175 226 273 329 400
#     4  10  21  39  66  93 126 176 223 268 332 397
#     4  11  23  38  59  95 141 170 216 272 332 395
#     4  10  22  37  59  94 128 170 215 271 331 394
#     4  10  23  45  71  94 128 173 231 278 326 391
#     4  12  25  42  66 101 140 176 216 272 337 400
#     4  12  25  40  65  95 133 174 217 272 331 396
#
# _framework density 18.945678999999998
#
# number of rings (size 3 to 8) (size 9 to 14) (size 15 to 20)
#    0.000    1.000    6.250    0.000    3.500    3.000 
#    2.250    3.125    0.000    0.000    0.000    0.000 
#    0.000    0.000    0.000    0.000    0.000    0.000 
#
# Total GULP energy -178729.419241 kJ/mol
# GULP energy per Si atom -5585.294351 kJ/mol
# Density = 1.890256 g / cm^3
# Si number density = 18.945679 Si / 1000 Ang^3
#
#
#
# Elastic Constant Matrix: (Units=GPa)
#
#
# Indices 1 2 3 4 5 6 
#
# 1 85.4330 21.7465 44.9936 0.0000 0.0000 0.0000
# 2 21.7465 52.8067 28.6641 0.0000 0.0000 0.0000
# 3 44.9936 28.6641 98.8853 0.0000 0.0000 0.0000
# 4 0.0000 0.0000 0.0000 6.8957 0.0000 0.0000
# 5 0.0000 0.0000 0.0000 0.0000 -468.6802 0.0000
# 6 0.0000 0.0000 0.0000 0.0000 0.0000 24.7876
#
#
#
# Elastic Compliance Matrix: (Units=1/GPa)
#
#
# Indices 1 2 3 4 5 6 
#
# 1 0.015808 -0.003092 -0.006297 0.000000 0.000000 0.000000
# 2 -0.003092 0.023078 -0.005283 0.000000 0.000000 0.000000
# 3 -0.006297 -0.005283 0.014509 0.000000 0.000000 0.000000
# 4 0.000000 0.000000 0.000000 0.145018 0.000000 0.000000
# 5 0.000000 0.000000 0.000000 0.000000 -0.002134 0.000000
# 6 0.000000 0.000000 0.000000 0.000000 0.000000 0.040343
#
#
# Mechanical properties :
#
#
# Convention : Reuss Voigt Hill
#
# Bulk Modulus (GPa) = 41.57602 47.54816 44.56209
# Shear Modulus (GPa) = 18.24934 -77.95133 -29.85099
#
# Velocity S-wave (km/s) = 3.10699 -6.42137 -3.97370
# Velocity P-wave (km/s) = 5.90455 5.46141 1.58692
#
# Compressibility (1/GPa) = 0.02405233
#
# Stress axis : x y z
#
# Youngs Moduli (GPa) = 63.25794 43.33157 68.92275
#
# Poissons Ratio (x) = 0.13399 0.43398
# Poissons Ratio (y) = 0.19561 0.36409
# Poissons Ratio (z) = 0.39831 0.22891
#
# Static dielectric constant tensor:
#      x y z
#    x 1.640320 0.000000 0.000000 
#    y 0.000000 1.641580 0.000000 
#    z 0.000000 0.000000 1.796490 
# 
# From -- ./inp_files/15341.got.cif
#   From: 2010.05.17/outbox.cif.g08.bks.cpg/sg20_8_cif.got.tgz:15341.got - 2010.06.03 22:52:26.
