data_PCOD9319374
_publ_section_title
;
Structure prediction by ZEFSAII (Michael W. Deem and Ramdas Pophale) SiO2 
 PCOD9319374
Probable space group: C 2 2 21
;
_chemical_formula_sum "Si O2"
_cell_formula_units_Z 56
_cell_length_a 33.985067
_cell_length_b 14.123125
_cell_length_c 5.603876
_cell_angle_alpha 90.000000
_cell_angle_beta 90.000000
_cell_angle_gamma 90.000000
_cell_volume 2689.722341
_symmetry_space_group_name_H-M "C 2 2 21"
_symmetry_group_IT_number 20
_symmetry_cell_setting 'orthorhombic'
loop_
_space_group_symop_operation_xyz
x,y,z
-x,-y,1/2+z
x,-y,-z
-x,y,1/2-z
1/2+x,1/2+y,z
1/2-x,1/2-y,1/2+z
1/2+x,1/2-y,-z
1/2-x,1/2+y,1/2-z
loop_
_atom_site_type_symbol
_atom_site_label
_atom_site_fract_x
_atom_site_fract_y
_atom_site_fract_z
Si Si1 0.913072 0.279281 0.208384
Si Si2 0.162486 0.612654 0.488214
Si Si3 0.369884 0.614322 0.018443
Si Si4 0.753340 0.694822 0.896096
Si Si5 0.170031 0.110695 0.982463
Si Si6 0.031848 0.397941 0.575724
Si Si7 0.108645 0.603717 0.113219
O O1 0.907890 0.176387 0.092815
O O2 0.908347 0.302882 0.484463
O O3 0.874127 0.338099 0.120818
O O4 0.953311 0.329692 0.131542
O O5 0.159541 0.500000 0.500000
O O6 0.204345 0.646046 0.576694
O O7 0.151171 0.633325 0.214373
O O8 0.342124 0.642107 0.248030
O O9 0.375167 0.500000 0.000000
O O10 0.352432 0.644079 0.759802
O O11 0.750466 0.764109 0.127697
O O12 0.715852 0.627679 0.935786
O O13 0.161494 0.000000 0.000000
O O14 0.015243 0.500000 0.500000
O O15 0.073062 0.419255 0.706484
O O16 0.000000 0.353365 0.750000
O O17 0.114417 0.500000 0.000000
#
# Coordination Sequence:
#
# PCOD9319374 Si02
#       7
#     8   8   8   8   8   8   8
#     4  11  22  38  61  90 125 162 207 262 316 384
#     4  11  23  37  57  86 120 163 209 259 323 392
#     4  10  23  41  67  92 121 164 217 276 327 380
#     4  12  26  39  56  85 118 164 214 267 327 388
#     4  10  21  42  60  83 117 159 213 272 329 378
#     4  11  23  37  59  93 130 169 206 245 307 383
#     4  11  20  38  59  88 127 163 205 256 314 384
#
# _framework density 20.819991000000002
#
# number of rings (size 3 to 8) (size 9 to 14) (size 15 to 20)
#    0.000    1.143    2.857    4.286    8.000    0.000 
#    0.000    2.143    0.000    0.000    3.714    0.000 
#    0.000    0.000    0.000    0.000    0.000    0.000 
#
# Total GULP energy -155923.032120 kJ/mol
# GULP energy per Si atom -5568.679719 kJ/mol
# Density = 2.077260 g / cm^3
# Si number density = 20.819991 Si / 1000 Ang^3
#
#
#
# Elastic Constant Matrix: (Units=GPa)
#
#
# Indices 1 2 3 4 5 6 
#
# 1 54.2760 15.0943 12.2496 0.0000 0.0000 0.0000
# 2 15.0943 79.0717 17.3138 0.0000 0.0000 0.0000
# 3 12.2496 17.3138 84.5694 0.0000 0.0000 0.0000
# 4 0.0000 0.0000 0.0000 10.8271 0.0000 0.0000
# 5 0.0000 0.0000 0.0000 0.0000 34.3422 0.0000
# 6 0.0000 0.0000 0.0000 0.0000 0.0000 3.3383
#
#
#
# Elastic Compliance Matrix: (Units=1/GPa)
#
#
# Indices 1 2 3 4 5 6 
#
# 1 0.019840 -0.003306 -0.002197 0.000000 0.000000 0.000000
# 2 -0.003306 0.013791 -0.002345 0.000000 0.000000 0.000000
# 3 -0.002197 -0.002345 0.012623 0.000000 0.000000 0.000000
# 4 0.000000 0.000000 0.000000 0.092361 0.000000 0.000000
# 5 0.000000 0.000000 0.000000 0.000000 0.029119 0.000000
# 6 0.000000 0.000000 0.000000 0.000000 0.000000 0.299550
#
#
# Mechanical properties :
#
#
# Convention : Reuss Voigt Hill
#
# Bulk Modulus (GPa) = 32.72417 34.13694 33.43056
# Shear Modulus (GPa) = 10.13859 21.25214 15.69536
#
# Velocity S-wave (km/s) = 2.20912 3.19839 2.74863
# Velocity P-wave (km/s) = 4.71792 5.48374 5.11518
#
# Compressibility (1/GPa) = 0.03055845
#
# Stress axis : x y z
#
# Youngs Moduli (GPa) = 50.40417 72.50963 79.22161
#
# Poissons Ratio (x) = 0.23973 0.17404
# Poissons Ratio (y) = 0.16665 0.18574
# Poissons Ratio (z) = 0.11073 0.17000
#
# Static dielectric constant tensor:
#      x y z
#    x 1.698360 0.000000 0.000000 
#    y 0.000000 1.803520 0.000000 
#    z 0.000000 0.000000 2.044380 
# 
# From -- ./inp_files/4687.got.cif
#   From: 2010.05.17/outbox.cif.g08.bks.cpg/sg20_3_cif.got.tgz:4687.got - 2010.06.03 22:52:26.
