data_PCOD9319646
_publ_section_title
;
Structure prediction by ZEFSAII (Michael W. Deem and Ramdas Pophale) SiO2 
 PCOD9319646
Probable space group: C 2 2 21
;
_chemical_formula_sum "Si O2"
_cell_formula_units_Z 60
_cell_length_a 27.285295
_cell_length_b 4.893508
_cell_length_c 21.708258
_cell_angle_alpha 90.000000
_cell_angle_beta 90.000000
_cell_angle_gamma 90.000000
_cell_volume 2898.504178
_symmetry_space_group_name_H-M "C 2 2 21"
_symmetry_group_IT_number 20
_symmetry_cell_setting 'orthorhombic'
loop_
_space_group_symop_operation_xyz
x,y,z
-x,-y,1/2+z
x,-y,-z
-x,y,1/2-z
1/2+x,1/2+y,z
1/2-x,1/2-y,1/2+z
1/2+x,1/2-y,-z
1/2-x,1/2+y,1/2-z
loop_
_atom_site_type_symbol
_atom_site_label
_atom_site_fract_x
_atom_site_fract_y
_atom_site_fract_z
Si Si1 0.035674 0.651329 0.196146
Si Si2 0.397515 0.354248 0.710290
Si Si3 0.053862 0.447050 0.376225
Si Si4 0.398183 0.000000 0.000000
Si Si5 0.199462 0.564175 0.801580
Si Si6 0.815128 0.129347 0.059954
Si Si7 0.612592 0.573244 0.657368
Si Si8 0.240935 0.561038 0.665378
O O1 0.062241 0.380220 0.220850
O O2 0.000000 0.764617 0.250000
O O3 0.999794 0.536672 0.143664
O O4 0.074290 0.888827 0.179635
O O5 0.352538 0.190790 0.680186
O O6 0.376774 0.473439 0.774226
O O7 0.066453 0.560000 0.443600
O O8 0.069632 0.132181 0.367280
O O9 0.092991 0.622155 0.337296
O O10 0.360919 0.778263 0.026959
O O11 0.208018 0.586632 0.727506
O O12 0.212253 0.257138 0.821118
O O13 0.240304 0.752390 0.834337
O O14 0.842142 0.937014 0.110269
O O15 0.784614 0.336023 0.102995
O O16 0.788503 0.000000 0.000000
#
# Coordination Sequence:
#
# PCOD9319646 Si02
#       8
#     8   8   8   4   8   8   8   8
#     4  12  22  33  56  88 118 153 194 239 288 337
#     4  12  21  37  57  84 119 153 193 236 292 344
#     4  11  22  36  52  82 121 150 191 229 283 347
#     4  10  24  38  58  86 124 154 190 230 304 356
#     4  10  22  39  56  86 116 159 191 240 298 345
#     4  11  22  37  59  92 120 156 192 234 304 359
#     4  11  20  34  54  82 124 152 178 235 279 352
#     4  10  22  37  60  84 119 150 197 238 291 363
#
# _framework density 20.700330000000001
#
# number of rings (size 3 to 8) (size 9 to 14) (size 15 to 20)
#    0.000    1.067    5.333    2.000    1.867    0.000 
#    0.000    0.000    0.000    0.000   10.400    0.000 
#    0.000    0.000    0.000    0.000    0.000    0.000 
#
# Total GULP energy -167499.722719 kJ/mol
# GULP energy per Si atom -5583.324091 kJ/mol
# Density = 2.065322 g / cm^3
# Si number density = 20.700330 Si / 1000 Ang^3
#
#
#
# Elastic Constant Matrix: (Units=GPa)
#
#
# Indices 1 2 3 4 5 6 
#
# 1 65.3951 10.4370 23.5783 0.0000 0.0000 0.0000
# 2 10.4370 74.1980 2.9850 0.0000 0.0000 0.0000
# 3 23.5783 2.9850 78.5471 0.0000 0.0000 0.0000
# 4 0.0000 0.0000 0.0000 17.2010 0.0000 0.0000
# 5 0.0000 0.0000 0.0000 0.0000 19.7931 0.0000
# 6 0.0000 0.0000 0.0000 0.0000 0.0000 24.1917
#
#
#
# Elastic Compliance Matrix: (Units=1/GPa)
#
#
# Indices 1 2 3 4 5 6 
#
# 1 0.017517 -0.002256 -0.005172 0.000000 0.000000 0.000000
# 2 -0.002256 0.013789 0.000153 0.000000 0.000000 0.000000
# 3 -0.005172 0.000153 0.014278 0.000000 0.000000 0.000000
# 4 0.000000 0.000000 0.000000 0.058136 0.000000 0.000000
# 5 0.000000 0.000000 0.000000 0.000000 0.050523 0.000000
# 6 0.000000 0.000000 0.000000 0.000000 0.000000 0.041336
#
#
# Mechanical properties :
#
#
# Convention : Reuss Voigt Hill
#
# Bulk Modulus (GPa) = 32.22372 32.46008 32.34190
# Shear Modulus (GPa) = 22.67852 24.31317 23.49585
#
# Velocity S-wave (km/s) = 3.31352 3.43086 3.37270
# Velocity P-wave (km/s) = 5.49907 5.60441 5.55199
#
# Compressibility (1/GPa) = 0.03103304
#
# Stress axis : x y z
#
# Youngs Moduli (GPa) = 57.08863 72.52364 70.03754
#
# Poissons Ratio (x) = 0.16360 0.36226
# Poissons Ratio (y) = 0.12878 -0.01073
# Poissons Ratio (z) = 0.29529 -0.01111
#
# Static dielectric constant tensor:
#      x y z
#    x 1.780960 0.000000 0.000000 
#    y 0.000000 1.790910 0.000000 
#    z 0.000000 0.000000 1.827550 
# 
# From -- ./inp_files/28039.got.cif
#   From: 2010.05.17/outbox.cif.g08.bks.cpg/sg20_15_cif.got.tgz:28039.got - 2010.06.03 22:52:26.
