data_PCOD9319931
_publ_section_title
;
Structure prediction by ZEFSAII (Michael W. Deem and Ramdas Pophale) SiO2 
 PCOD9319931
Probable space group: C 2 2 21
;
_chemical_formula_sum "Si O2"
_cell_formula_units_Z 44
_cell_length_a 10.751966
_cell_length_b 26.419484
_cell_length_c 8.065474
_cell_angle_alpha 90.000000
_cell_angle_beta 90.000000
_cell_angle_gamma 90.000000
_cell_volume 2291.089785
_symmetry_space_group_name_H-M "C 2 2 21"
_symmetry_group_IT_number 20
_symmetry_cell_setting 'orthorhombic'
loop_
_space_group_symop_operation_xyz
x,y,z
-x,-y,1/2+z
x,-y,-z
-x,y,1/2-z
1/2+x,1/2+y,z
1/2-x,1/2-y,1/2+z
1/2+x,1/2-y,-z
1/2-x,1/2+y,1/2-z
loop_
_atom_site_type_symbol
_atom_site_label
_atom_site_fract_x
_atom_site_fract_y
_atom_site_fract_z
Si Si1 0.000000 0.648024 0.750000
Si Si2 0.737013 0.597685 0.807529
Si Si3 0.336438 0.637124 0.054151
Si Si4 0.500000 0.434299 0.750000
Si Si5 0.412298 0.800068 0.585458
Si Si6 0.150415 0.000000 0.000000
Si Si7 0.069192 0.186065 0.926421
O O1 0.120488 0.613990 0.713347
O O2 0.977402 0.680985 0.584033
O O3 0.679543 0.607941 0.623045
O O4 0.721920 0.541743 0.885769
O O5 0.665480 0.639615 0.921010
O O6 0.452970 0.675606 0.045057
O O7 0.383450 0.597401 0.185733
O O8 0.210660 0.665709 0.100775
O O9 0.557726 0.467790 0.890602
O O10 0.500000 0.803613 0.750000
O O11 0.373715 0.741550 0.556045
O O12 0.000000 0.186763 0.750000
#
# Coordination Sequence:
#
# PCOD9319931 Si02
#       7
#     4   8   8   4   8   4   8
#     4  10  24  43  64  94 132 174 213 264 330 390
#     4  10  22  44  63  90 129 165 217 274 321 379
#     4  10  22  41  62  97 131 164 214 268 318 394
#     4  12  24  39  66  98 120 164 217 270 332 380
#     4  10  23  40  65  96 137 177 207 257 327 392
#     4  12  24  40  66  92 122 164 216 276 330 374
#     4   9  19  39  61  92 132 167 209 263 308 382
#
# _framework density 19.204836
#
# number of rings (size 3 to 8) (size 9 to 14) (size 15 to 20)
#    0.000    1.818    1.818    1.091    6.364    0.727 
#    6.545    3.636    0.000    0.000    0.000    0.000 
#    0.000    0.000    0.000    0.000    0.000    0.000 
#
# Total GULP energy -122670.185161 kJ/mol
# GULP energy per Si atom -5575.917507 kJ/mol
# Density = 1.916112 g / cm^3
# Si number density = 19.204836 Si / 1000 Ang^3
#
#
#
# Elastic Constant Matrix: (Units=GPa)
#
#
# Indices 1 2 3 4 5 6 
#
# 1 98.8353 48.3872 41.6821 0.0000 0.0000 0.0000
# 2 48.3872 124.1424 49.8056 0.0000 0.0000 0.0000
# 3 41.6821 49.8056 88.2790 0.0000 0.0000 0.0000
# 4 0.0000 0.0000 0.0000 30.7864 0.0000 0.0000
# 5 0.0000 0.0000 0.0000 0.0000 26.0722 0.0000
# 6 0.0000 0.0000 0.0000 0.0000 0.0000 14.2121
#
#
#
# Elastic Compliance Matrix: (Units=1/GPa)
#
#
# Indices 1 2 3 4 5 6 
#
# 1 0.013752 -0.003561 -0.004484 0.000000 0.000000 0.000000
# 2 -0.003561 0.011334 -0.004713 0.000000 0.000000 0.000000
# 3 -0.004484 -0.004713 0.016104 0.000000 0.000000 0.000000
# 4 0.000000 0.000000 0.000000 0.032482 0.000000 0.000000
# 5 0.000000 0.000000 0.000000 0.000000 0.038355 0.000000
# 6 0.000000 0.000000 0.000000 0.000000 0.000000 0.070362
#
#
# Mechanical properties :
#
#
# Convention : Reuss Voigt Hill
#
# Bulk Modulus (GPa) = 63.80146 65.66740 64.73443
# Shear Modulus (GPa) = 23.45967 25.63960 24.54964
#
# Velocity S-wave (km/s) = 3.49886 3.65781 3.57922
# Velocity P-wave (km/s) = 7.04389 7.21851 7.13173
#
# Compressibility (1/GPa) = 0.01567362
#
# Stress axis : x y z
#
# Youngs Moduli (GPa) = 72.71417 88.22834 62.09614
#
# Poissons Ratio (x) = 0.31420 0.27845
# Poissons Ratio (y) = 0.25895 0.29267
# Poissons Ratio (z) = 0.32607 0.41583
#
# Static dielectric constant tensor:
#      x y z
#    x 1.645930 0.000000 0.000000 
#    y 0.000000 1.678600 0.000000 
#    z 0.000000 0.000000 1.680450 
# 
# From -- ./inp_files/7341.got.cif
#   From: 2010.05.17/outbox.cif.g08.bks.cpg/sg20_4_cif.got.tgz:7341.got - 2010.06.03 22:52:26.
