data_PCOD9319762
_publ_section_title
;
Structure prediction by ZEFSAII (Michael W. Deem and Ramdas Pophale) SiO2 
 PCOD9319762
Probable space group: C 2 2 21
;
_chemical_formula_sum "Si O2"
_cell_formula_units_Z 56
_cell_length_a 20.862325
_cell_length_b 13.282330
_cell_length_c 9.536068
_cell_angle_alpha 90.000000
_cell_angle_beta 90.000000
_cell_angle_gamma 90.000000
_cell_volume 2642.447163
_symmetry_space_group_name_H-M "C 2 2 21"
_symmetry_group_IT_number 20
_symmetry_cell_setting 'orthorhombic'
loop_
_space_group_symop_operation_xyz
x,y,z
-x,-y,1/2+z
x,-y,-z
-x,y,1/2-z
1/2+x,1/2+y,z
1/2-x,1/2-y,1/2+z
1/2+x,1/2-y,-z
1/2-x,1/2+y,1/2-z
loop_
_atom_site_type_symbol
_atom_site_label
_atom_site_fract_x
_atom_site_fract_y
_atom_site_fract_z
Si Si1 0.065177 0.115018 0.832672
Si Si2 0.637852 0.114626 0.954361
Si Si3 0.363746 0.119160 0.026849
Si Si4 0.174630 0.273598 0.786069
Si Si5 0.180805 0.732562 0.716837
Si Si6 0.497889 0.895580 0.083290
Si Si7 0.566374 0.376722 0.828051
O O1 0.127307 0.178121 0.783645
O O2 0.000000 0.146504 0.750000
O O3 0.074878 0.996333 0.799817
O O4 0.059489 0.127913 0.002049
O O5 0.660669 0.130748 0.797580
O O6 0.564548 0.152427 0.960835
O O7 0.677251 0.184509 0.056933
O O8 0.641154 0.000000 0.000000
O O9 0.318438 0.196772 0.944016
O O10 0.432780 0.153555 0.966763
O O11 0.358340 0.141542 0.190160
O O12 0.353686 0.000000 0.000000
O O13 0.247514 0.259578 0.739990
O O14 0.127211 0.814174 0.765898
O O15 0.500000 0.911002 0.250000
O O16 0.496886 0.000000 0.000000
O O17 0.500000 0.343756 0.750000
#
# Coordination Sequence:
#
# PCOD9319762 Si02
#       7
#     8   8   8   8   8   8   8
#     4  10  24  47  71 103 134 176 233 289 341 397
#     4  11  24  43  68  96 138 173 218 275 341 408
#     4  11  26  43  68  99 140 179 218 272 343 414
#     4  12  27  43  66 104 132 181 230 281 337 406
#     4  12  25  45  67 102 134 181 232 276 341 408
#     4  10  22  39  64  98 129 171 219 264 331 408
#     4  10  24  46  75  99 133 180 230 289 343 397
#
# _framework density 21.192478000000001
#
# number of rings (size 3 to 8) (size 9 to 14) (size 15 to 20)
#    0.000    1.143    2.857    1.714   12.000    2.286 
#    0.000    0.000    0.000    0.000    0.000    0.000 
#    0.000    0.000    0.000    0.000    0.000    0.000 
#
# Total GULP energy -156302.338742 kJ/mol
# GULP energy per Si atom -5582.226384 kJ/mol
# Density = 2.114424 g / cm^3
# Si number density = 21.192478 Si / 1000 Ang^3
#
#
#
# Elastic Constant Matrix: (Units=GPa)
#
#
# Indices 1 2 3 4 5 6 
#
# 1 153.8044 53.0753 37.8437 0.0000 0.0000 0.0000
# 2 53.0753 97.8802 16.2706 0.0000 0.0000 0.0000
# 3 37.8437 16.2706 60.3560 0.0000 0.0000 0.0000
# 4 0.0000 0.0000 0.0000 39.7041 0.0000 0.0000
# 5 0.0000 0.0000 0.0000 0.0000 32.5006 0.0000
# 6 0.0000 0.0000 0.0000 0.0000 0.0000 -2.8157
#
#
#
# Elastic Compliance Matrix: (Units=1/GPa)
#
#
# Indices 1 2 3 4 5 6 
#
# 1 0.009057 -0.004153 -0.004559 0.000000 0.000000 0.000000
# 2 -0.004153 0.012600 -0.000793 0.000000 0.000000 0.000000
# 3 -0.004559 -0.000793 0.019641 0.000000 0.000000 0.000000
# 4 0.000000 0.000000 0.000000 0.025186 0.000000 0.000000
# 5 0.000000 0.000000 0.000000 0.000000 0.030769 0.000000
# 6 0.000000 0.000000 0.000000 0.000000 0.000000 -0.355152
#
#
# Mechanical properties :
#
#
# Convention : Reuss Voigt Hill
#
# Bulk Modulus (GPa) = 44.86741 58.49110 51.67926
# Shear Modulus (GPa) = -21.60194 27.53453 2.96629
#
# Velocity S-wave (km/s) = -3.19614 3.60843 1.18437
# Velocity P-wave (km/s) = 2.75625 6.70976 5.12922
#
# Compressibility (1/GPa) = 0.02228789
#
# Stress axis : x y z
#
# Youngs Moduli (GPa) = 110.41558 79.36281 50.91496
#
# Poissons Ratio (x) = 0.32960 0.23212
# Poissons Ratio (y) = 0.45857 0.04036
# Poissons Ratio (z) = 0.50339 0.06291
#
# Static dielectric constant tensor:
#      x y z
#    x 1.817710 0.000000 0.000000 
#    y 0.000000 1.794720 0.000000 
#    z 0.000000 0.000000 1.773800 
# 
# From -- ./inp_files/10228.got.cif
#   From: 2010.05.17/outbox.cif.g08.bks.cpg/sg20_6_cif.got.tgz:10228.got - 2010.06.03 22:52:26.
