data_PCOD9319811
_publ_section_title
;
Structure prediction by ZEFSAII (Michael W. Deem and Ramdas Pophale) SiO2 
 PCOD9319811
Probable space group: C 2 2 21
;
_chemical_formula_sum "Si O2"
_cell_formula_units_Z 40
_cell_length_a 26.060225
_cell_length_b 9.222687
_cell_length_c 8.562288
_cell_angle_alpha 90.000000
_cell_angle_beta 90.000000
_cell_angle_gamma 90.000000
_cell_volume 2057.905664
_symmetry_space_group_name_H-M "C 2 2 21"
_symmetry_group_IT_number 20
_symmetry_cell_setting 'orthorhombic'
loop_
_space_group_symop_operation_xyz
x,y,z
-x,-y,1/2+z
x,-y,-z
-x,y,1/2-z
1/2+x,1/2+y,z
1/2-x,1/2-y,1/2+z
1/2+x,1/2-y,-z
1/2-x,1/2+y,1/2-z
loop_
_atom_site_type_symbol
_atom_site_label
_atom_site_fract_x
_atom_site_fract_y
_atom_site_fract_z
Si Si1 0.773539 0.941063 0.828112
Si Si2 0.945874 0.940698 0.827333
Si Si3 0.660638 0.105766 0.274741
Si Si4 0.639285 0.605205 0.850959
Si Si5 0.359118 0.796145 0.128195
O O1 0.722055 0.912538 0.733170
O O2 0.807946 0.796320 0.836353
O O3 0.811739 0.058414 0.752719
O O4 0.760023 0.000000 0.000000
O O5 0.907537 0.804695 0.836392
O O6 0.000000 0.907384 0.750000
O O7 0.913513 0.061160 0.732866
O O8 0.954478 0.000000 0.000000
O O9 0.643578 0.220873 0.142584
O O10 0.643840 0.167379 0.443879
O O11 0.639248 0.943002 0.272364
O O12 0.642571 0.500000 0.000000
#
# Coordination Sequence:
#
# PCOD9319811 Si02
#       5
#     8   8   8   8   8
#     4  11  22  37  56  91 134 183 223 262 318 402
#     4  11  22  45  70  92 122 168 222 284 347 410
#     4  11  22  37  64  92 134 177 216 272 336 394
#     4  11  23  39  62  95 130 171 227 269 327 404
#     4  10  22  40  62  93 133 172 220 283 335 391
#
# _framework density 19.437235000000001
#
# number of rings (size 3 to 8) (size 9 to 14) (size 15 to 20)
#    0.000    1.200    4.000    3.000    5.600    1.600 
#    0.000    1.000    4.400    0.000    0.000    0.000 
#    0.000    0.000    0.000    0.000    0.000    0.000 
#
# Total GULP energy -111727.741744 kJ/mol
# GULP energy per Si atom -5586.387087 kJ/mol
# Density = 1.939300 g / cm^3
# Si number density = 19.437235 Si / 1000 Ang^3
#
#
#
# Elastic Constant Matrix: (Units=GPa)
#
#
# Indices 1 2 3 4 5 6 
#
# 1 122.5824 36.8678 9.0940 0.0000 0.0000 0.0000
# 2 36.8678 148.0031 17.8812 0.0000 0.0000 0.0000
# 3 9.0940 17.8812 32.4676 0.0000 0.0000 0.0000
# 4 0.0000 0.0000 0.0000 22.8652 0.0000 0.0000
# 5 0.0000 0.0000 0.0000 0.0000 33.3329 0.0000
# 6 0.0000 0.0000 0.0000 0.0000 0.0000 1.0128
#
#
#
# Elastic Compliance Matrix: (Units=1/GPa)
#
#
# Indices 1 2 3 4 5 6 
#
# 1 0.008874 -0.002046 -0.001359 0.000000 0.000000 0.000000
# 2 -0.002046 0.007710 -0.003673 0.000000 0.000000 0.000000
# 3 -0.001359 -0.003673 0.033203 0.000000 0.000000 0.000000
# 4 0.000000 0.000000 0.000000 0.043735 0.000000 0.000000
# 5 0.000000 0.000000 0.000000 0.000000 0.030000 0.000000
# 6 0.000000 0.000000 0.000000 0.000000 0.000000 0.987385
#
#
# Mechanical properties :
#
#
# Convention : Reuss Voigt Hill
#
# Bulk Modulus (GPa) = 28.06505 47.85989 37.96247
# Shear Modulus (GPa) = 4.39777 27.38952 15.89364
#
# Velocity S-wave (km/s) = 1.50581 3.75791 2.86263
# Velocity P-wave (km/s) = 4.18251 6.59586 5.52263
#
# Compressibility (1/GPa) = 0.03563151
#
# Stress axis : x y z
#
# Youngs Moduli (GPa) = 112.68832 129.69921 30.11740
#
# Poissons Ratio (x) = 0.26542 0.04092
# Poissons Ratio (y) = 0.23061 0.11062
# Poissons Ratio (z) = 0.15309 0.47640
#
# Static dielectric constant tensor:
#      x y z
#    x 1.624610 0.000000 0.000000 
#    y 0.000000 1.746460 0.000000 
#    z 0.000000 0.000000 1.723340 
# 
# From -- ./inp_files/6033.got.cif
#   From: 2010.05.17/outbox.cif.g08.bks.cpg/sg20_4_cif.got.tgz:6033.got - 2010.06.03 22:52:26.
