data_PCOD9319612
_publ_section_title
;
Structure prediction by ZEFSAII (Michael W. Deem and Ramdas Pophale) SiO2 
 PCOD9319612
Probable space group: C 2 2 21
;
_chemical_formula_sum "Si O2"
_cell_formula_units_Z 48
_cell_length_a 15.489758
_cell_length_b 17.548804
_cell_length_c 9.965015
_cell_angle_alpha 90.000000
_cell_angle_beta 90.000000
_cell_angle_gamma 90.000000
_cell_volume 2708.757413
_symmetry_space_group_name_H-M "C 2 2 21"
_symmetry_group_IT_number 20
_symmetry_cell_setting 'orthorhombic'
loop_
_space_group_symop_operation_xyz
x,y,z
-x,-y,1/2+z
x,-y,-z
-x,y,1/2-z
1/2+x,1/2+y,z
1/2-x,1/2-y,1/2+z
1/2+x,1/2-y,-z
1/2-x,1/2+y,1/2-z
loop_
_atom_site_type_symbol
_atom_site_label
_atom_site_fract_x
_atom_site_fract_y
_atom_site_fract_z
Si Si1 0.344292 0.800097 0.184158
Si Si2 0.858425 0.809890 0.297618
Si Si3 0.474568 0.069353 0.903860
Si Si4 0.500000 0.564017 0.750000
Si Si5 0.877064 0.679385 0.507024
Si Si6 0.912936 0.000000 0.000000
Si Si7 0.176347 0.837747 0.504089
O O1 0.242728 0.821121 0.164391
O O2 0.401846 0.866394 0.119530
O O3 0.370116 0.790710 0.339816
O O4 0.358570 0.719132 0.115381
O O5 0.922919 0.881488 0.303911
O O6 0.895102 0.742817 0.392905
O O7 0.849219 0.797658 0.137221
O O8 0.500000 0.045590 0.750000
O O9 0.554342 0.111437 0.979288
O O10 0.447487 0.000000 0.000000
O O11 0.468957 0.511325 0.868924
O O12 0.779073 0.654111 0.479429
O O13 0.859778 0.922293 0.990991
#
# Coordination Sequence:
#
# PCOD9319612 Si02
#       7
#     8   8   8   4   8   4   8
#     4   9  19  38  57  81 109 147 183 222 275 328
#     4   9  19  36  58  80 109 142 184 231 267 321
#     4  10  22  37  55  84 114 144 181 226 275 330
#     4  10  22  38  54  82 114 140 190 228 276 322
#     4   9  19  35  60  82 108 143 185 226 272 331
#     4  10  22  36  54  82 114 146 182 232 274 326
#     4   9  19  36  58  80 111 145 184 225 277 326
#
# _framework density 17.720302
#
# number of rings (size 3 to 8) (size 9 to 14) (size 15 to 20)
#    0.000    2.667    0.000    0.000    5.833    2.667 
#    3.000    0.000    0.000    0.000    0.000    0.000 
#    0.000    0.000    0.000    0.000    0.000    0.000 
#
# Total GULP energy -133633.241090 kJ/mol
# GULP energy per Si atom -5568.051712 kJ/mol
# Density = 1.767997 g / cm^3
# Si number density = 17.720302 Si / 1000 Ang^3
#
#
#
# Elastic Constant Matrix: (Units=GPa)
#
#
# Indices 1 2 3 4 5 6 
#
# 1 30.3517 26.2115 28.9088 0.0000 0.0000 0.0000
# 2 26.2115 87.4390 65.1429 0.0000 0.0000 0.0000
# 3 28.9088 65.1429 69.0443 0.0000 0.0000 0.0000
# 4 0.0000 0.0000 0.0000 35.1338 0.0000 0.0000
# 5 0.0000 0.0000 0.0000 0.0000 20.7951 0.0000
# 6 0.0000 0.0000 0.0000 0.0000 0.0000 -2.1765
#
#
#
# Elastic Compliance Matrix: (Units=1/GPa)
#
#
# Indices 1 2 3 4 5 6 
#
# 1 0.054933 0.002250 -0.025123 0.000000 0.000000 0.000000
# 2 0.002250 0.038588 -0.037349 0.000000 0.000000 0.000000
# 3 -0.025123 -0.037349 0.060241 0.000000 0.000000 0.000000
# 4 0.000000 0.000000 0.000000 0.028463 0.000000 0.000000
# 5 0.000000 0.000000 0.000000 0.000000 0.048088 0.000000
# 6 0.000000 0.000000 0.000000 0.000000 0.000000 -0.459450
#
#
# Mechanical properties :
#
#
# Convention : Reuss Voigt Hill
#
# Bulk Modulus (GPa) = 30.01481 47.48458 38.74970
# Shear Modulus (GPa) = -51.23631 15.18859 -18.02386
#
# Velocity S-wave (km/s) = -5.38300 2.93085 -3.19271
# Velocity P-wave (km/s) = 4.65411 6.18935 2.88508
#
# Compressibility (1/GPa) = 0.03331688
#
# Stress axis : x y z
#
# Youngs Moduli (GPa) = 18.20402 25.91497 16.59994
#
# Poissons Ratio (x) = -0.05830 0.41704
# Poissons Ratio (y) = -0.04095 0.62000
# Poissons Ratio (z) = 0.45734 0.96790
#
# Static dielectric constant tensor:
#      x y z
#    x 1.634210 0.000000 0.000000 
#    y 0.000000 1.565700 0.000000 
#    z 0.000000 0.000000 1.595530 
# 
# From -- ./inp_files/8458.got.cif
#   From: 2010.05.17/outbox.cif.g08.bks.cpg/sg20_5_cif.got.tgz:8458.got - 2010.06.03 22:52:26.
