data_PCOD9319308
_publ_section_title
;
Structure prediction by ZEFSAII (Michael W. Deem and Ramdas Pophale) SiO2 
 PCOD9319308
Probable space group: C 2 2 21
;
_chemical_formula_sum "Si O2"
_cell_formula_units_Z 56
_cell_length_a 8.536588
_cell_length_b 21.604481
_cell_length_c 14.445372
_cell_angle_alpha 90.000000
_cell_angle_beta 90.000000
_cell_angle_gamma 90.000000
_cell_volume 2664.139059
_symmetry_space_group_name_H-M "C 2 2 21"
_symmetry_group_IT_number 20
_symmetry_cell_setting 'orthorhombic'
loop_
_space_group_symop_operation_xyz
x,y,z
-x,-y,1/2+z
x,-y,-z
-x,y,1/2-z
1/2+x,1/2+y,z
1/2-x,1/2-y,1/2+z
1/2+x,1/2-y,-z
1/2-x,1/2+y,1/2-z
loop_
_atom_site_type_symbol
_atom_site_label
_atom_site_fract_x
_atom_site_fract_y
_atom_site_fract_z
Si Si1 0.826691 0.178342 0.367054
Si Si2 0.473672 0.500000 0.500000
Si Si3 0.633370 0.377974 0.538754
Si Si4 0.157413 0.021473 0.806677
Si Si5 0.500000 0.781094 0.250000
Si Si6 0.397635 0.280722 0.108614
Si Si7 0.694710 0.668720 0.812269
Si Si8 0.178005 0.413045 0.778314
O O1 0.668000 0.211279 0.405798
O O2 0.779730 0.128876 0.290345
O O3 0.965223 0.147099 0.424688
O O4 0.907881 0.236095 0.317847
O O5 0.586008 0.441119 0.487562
O O6 0.366945 0.505538 0.409290
O O7 0.681874 0.325061 0.467094
O O8 0.756499 0.394525 0.620072
O O9 0.171651 0.095233 0.817359
O O10 0.000000 0.008310 0.750000
O O11 0.288000 0.984419 0.749227
O O12 0.620869 0.818442 0.313364
O O13 0.353065 0.307342 0.209961
O O14 0.586371 0.293194 0.114973
O O15 0.000000 0.399006 0.750000
#
# Coordination Sequence:
#
# PCOD9319308 Si02
#       8
#     8   4   8   8   4   8   8   8
#     4  11  23  43  66  95 134 176 232 275 351 415
#     4  12  22  40  76  98 128 176 244 278 344 426
#     4  12  23  45  69 102 133 180 236 288 351 425
#     4  12  21  44  69  96 131 179 226 281 348 412
#     4  10  22  38  66  94 132 184 218 276 334 438
#     4  10  23  39  66 103 131 178 227 286 344 415
#     4  10  21  41  64  99 136 177 227 274 356 403
#     4  12  27  43  70  98 137 187 230 293 360 427
#
# _framework density 21.019925000000001
#
# number of rings (size 3 to 8) (size 9 to 14) (size 15 to 20)
#    0.000    0.857    7.143    0.000    5.000    2.286 
#    0.000    5.000    0.000    0.000    0.000    0.000 
#    0.000    0.000    0.000    0.000    0.000    0.000 
#
# Total GULP energy -156133.788275 kJ/mol
# GULP energy per Si atom -5576.206724 kJ/mol
# Density = 2.097208 g / cm^3
# Si number density = 21.019925 Si / 1000 Ang^3
#
#
#
# Elastic Constant Matrix: (Units=GPa)
#
#
# Indices 1 2 3 4 5 6 
#
# 1 89.8507 11.0076 23.6495 0.0000 0.0000 0.0000
# 2 11.0076 57.7899 4.7753 0.0000 0.0000 0.0000
# 3 23.6495 4.7753 66.0246 0.0000 0.0000 0.0000
# 4 0.0000 0.0000 0.0000 19.5192 0.0000 0.0000
# 5 0.0000 0.0000 0.0000 0.0000 11.5239 0.0000
# 6 0.0000 0.0000 0.0000 0.0000 0.0000 19.1959
#
#
#
# Elastic Compliance Matrix: (Units=1/GPa)
#
#
# Indices 1 2 3 4 5 6 
#
# 1 0.012520 -0.002026 -0.004338 0.000000 0.000000 0.000000
# 2 -0.002026 0.017736 -0.000557 0.000000 0.000000 0.000000
# 3 -0.004338 -0.000557 0.016740 0.000000 0.000000 0.000000
# 4 0.000000 0.000000 0.000000 0.051232 0.000000 0.000000
# 5 0.000000 0.000000 0.000000 0.000000 0.086776 0.000000
# 6 0.000000 0.000000 0.000000 0.000000 0.000000 0.052095
#
#
# Mechanical properties :
#
#
# Convention : Reuss Voigt Hill
#
# Bulk Modulus (GPa) = 30.16287 32.50335 31.33311
# Shear Modulus (GPa) = 19.08463 21.66332 20.37398
#
# Velocity S-wave (km/s) = 3.01646 3.21379 3.11669
# Velocity P-wave (km/s) = 5.14906 5.40999 5.28114
#
# Compressibility (1/GPa) = 0.03315334
#
# Stress axis : x y z
#
# Youngs Moduli (GPa) = 79.87490 56.38240 59.73733
#
# Poissons Ratio (x) = 0.11424 0.25913
# Poissons Ratio (y) = 0.16185 0.03327
# Poissons Ratio (z) = 0.34649 0.03141
#
# Static dielectric constant tensor:
#      x y z
#    x 1.927130 0.000000 0.000000 
#    y 0.000000 1.775670 0.000000 
#    z 0.000000 0.000000 1.770050 
# 
# From -- ./inp_files/19246.got.cif
#   From: 2010.05.17/outbox.cif.g08.bks.cpg/sg20_10_cif.got.tgz:19246.got - 2010.06.03 22:52:26.
