data_PCOD9319216
_publ_section_title
;
Structure prediction by ZEFSAII (Michael W. Deem and Ramdas Pophale) SiO2 
 PCOD9319216
Probable space group: C 2 2 21
;
_chemical_formula_sum "Si O2"
_cell_formula_units_Z 56
_cell_length_a 13.758173
_cell_length_b 19.840204
_cell_length_c 8.727576
_cell_angle_alpha 90.000000
_cell_angle_beta 90.000000
_cell_angle_gamma 90.000000
_cell_volume 2382.322425
_symmetry_space_group_name_H-M "C 2 2 21"
_symmetry_group_IT_number 20
_symmetry_cell_setting 'orthorhombic'
loop_
_space_group_symop_operation_xyz
x,y,z
-x,-y,1/2+z
x,-y,-z
-x,y,1/2-z
1/2+x,1/2+y,z
1/2-x,1/2-y,1/2+z
1/2+x,1/2-y,-z
1/2-x,1/2+y,1/2-z
loop_
_atom_site_type_symbol
_atom_site_label
_atom_site_fract_x
_atom_site_fract_y
_atom_site_fract_z
Si Si1 0.434602 0.665739 0.617953
Si Si2 0.377997 0.413155 0.647886
Si Si3 0.666698 0.547852 0.696562
Si Si4 0.379244 0.784604 0.441867
Si Si5 0.297335 0.353382 0.942763
Si Si6 0.887041 0.286228 0.082062
Si Si7 0.688573 0.934033 0.441378
O O1 0.500000 0.701166 0.750000
O O2 0.460110 0.621797 0.460956
O O3 0.387585 0.610152 0.725085
O O4 0.359751 0.718137 0.543775
O O5 0.391041 0.482554 0.742091
O O6 0.336171 0.361625 0.771693
O O7 0.288803 0.430619 0.536908
O O8 0.675478 0.576269 0.525738
O O9 0.774939 0.549659 0.769543
O O10 0.316822 0.841939 0.525319
O O11 0.355674 0.783649 0.261683
O O12 0.496609 0.784644 0.439858
O O13 0.344376 0.281625 0.996542
O O14 0.857330 0.361377 0.034107
O O15 0.632137 0.000000 0.500000
#
# Coordination Sequence:
#
# PCOD9319216 Si02
#       7
#     8   8   8   8   8   8   8
#     4  11  22  41  63  96 135 186 234 294 356 424
#     4  10  22  40  65  97 136 177 244 295 349 442
#     4  10  21  40  65  95 129 184 237 285 350 433
#     4  11  25  40  67 105 138 180 237 301 356 443
#     4  12  22  40  70  97 139 188 234 293 377 417
#     4  11  23  42  66 101 143 178 238 298 361 433
#     4   9  19  39  66  90 128 183 230 286 354 423
#
# _framework density 23.506474999999998
#
# number of rings (size 3 to 8) (size 9 to 14) (size 15 to 20)
#    0.000    1.429    2.857    4.286    0.000    1.143 
#    0.000    7.143    0.000    0.000    0.000    0.000 
#    0.000    0.000    0.000    0.000    0.000    0.000 
#
# Total GULP energy -155925.068392 kJ/mol
# GULP energy per Si atom -5568.752443 kJ/mol
# Density = 2.345297 g / cm^3
# Si number density = 23.506475 Si / 1000 Ang^3
#
#
#
# Elastic Constant Matrix: (Units=GPa)
#
#
# Indices 1 2 3 4 5 6 
#
# 1 45.3832 19.4157 10.8903 0.0000 0.0000 0.0000
# 2 19.4157 141.9094 25.8653 0.0000 0.0000 0.0000
# 3 10.8903 25.8653 111.7523 0.0000 0.0000 0.0000
# 4 0.0000 0.0000 0.0000 35.8566 0.0000 0.0000
# 5 0.0000 0.0000 0.0000 0.0000 20.1685 0.0000
# 6 0.0000 0.0000 0.0000 0.0000 0.0000 19.3446
#
#
#
# Elastic Compliance Matrix: (Units=1/GPa)
#
#
# Indices 1 2 3 4 5 6 
#
# 1 0.023684 -0.002944 -0.001627 0.000000 0.000000 0.000000
# 2 -0.002944 0.007723 -0.001501 0.000000 0.000000 0.000000
# 3 -0.001627 -0.001501 0.009454 0.000000 0.000000 0.000000
# 4 0.000000 0.000000 0.000000 0.027889 0.000000 0.000000
# 5 0.000000 0.000000 0.000000 0.000000 0.049582 0.000000
# 6 0.000000 0.000000 0.000000 0.000000 0.000000 0.051694
#
#
# Mechanical properties :
#
#
# Convention : Reuss Voigt Hill
#
# Bulk Modulus (GPa) = 34.81997 45.70972 40.26485
# Shear Modulus (GPa) = 26.07665 31.26551 28.67108
#
# Velocity S-wave (km/s) = 3.33429 3.65098 3.49622
# Velocity P-wave (km/s) = 5.44687 6.10416 5.78486
#
# Compressibility (1/GPa) = 0.02871915
#
# Stress axis : x y z
#
# Youngs Moduli (GPa) = 42.22191 129.48254 105.77310
#
# Poissons Ratio (x) = 0.38119 0.17206
# Poissons Ratio (y) = 0.12430 0.15873
# Poissons Ratio (z) = 0.06868 0.19430
#
# Static dielectric constant tensor:
#      x y z
#    x 2.012500 0.000000 0.000000 
#    y 0.000000 1.983030 0.000000 
#    z 0.000000 0.000000 2.002240 
# 
# From -- ./inp_files/8747.got.cif
#   From: 2010.05.17/outbox.cif.g08.bks.cpg/sg20_5_cif.got.tgz:8747.got - 2010.06.03 22:52:26.
