data_PCOD9319245
_publ_section_title
;
Structure prediction by ZEFSAII (Michael W. Deem and Ramdas Pophale) SiO2 
 PCOD9319245
Probable space group: C 2 2 21
;
_chemical_formula_sum "Si O2"
_cell_formula_units_Z 40
_cell_length_a 9.596775
_cell_length_b 10.281609
_cell_length_c 16.921885
_cell_angle_alpha 90.000000
_cell_angle_beta 90.000000
_cell_angle_gamma 90.000000
_cell_volume 1669.687270
_symmetry_space_group_name_H-M "C 2 2 21"
_symmetry_group_IT_number 20
_symmetry_cell_setting 'orthorhombic'
loop_
_space_group_symop_operation_xyz
x,y,z
-x,-y,1/2+z
x,-y,-z
-x,y,1/2-z
1/2+x,1/2+y,z
1/2-x,1/2-y,1/2+z
1/2+x,1/2-y,-z
1/2-x,1/2+y,1/2-z
loop_
_atom_site_type_symbol
_atom_site_label
_atom_site_fract_x
_atom_site_fract_y
_atom_site_fract_z
Si Si1 0.093292 0.815691 0.857137
Si Si2 0.879861 0.318173 0.943930
Si Si3 0.338975 0.536598 0.747453
Si Si4 0.896280 0.410745 0.124206
Si Si5 0.381395 0.537310 0.916938
O O1 0.012273 0.684247 0.842624
O O2 0.221833 0.796927 0.915399
O O3 0.148994 0.885691 0.778368
O O4 0.790563 0.045532 0.837595
O O5 0.935009 0.438165 0.891315
O O6 0.950447 0.178820 0.930223
O O7 0.873761 0.357073 0.035353
O O8 0.500000 0.587776 0.750000
O O9 0.238094 0.594839 0.681324
O O10 0.506867 0.425447 0.603568
O O11 0.310461 0.500000 0.000000
#
# Coordination Sequence:
#
# PCOD9319245 Si02
#       5
#     8   8   8   8   8
#     4  10  22  43  70  94 133 178 216 273 340 394
#     4  10  23  40  64 101 130 173 217 277 336 397
#     4   9  22  38  67  94 126 174 221 267 332 390
#     4  10  21  40  68  97 136 174 222 280 330 407
#     4  11  22  41  65  96 129 173 223 274 325 411
#
# _framework density 23.956582000000001
#
# number of rings (size 3 to 8) (size 9 to 14) (size 15 to 20)
#    0.000    2.000    2.000    0.000    8.400    8.000 
#    3.600    6.000    0.000   10.800    0.000    0.000 
#    0.000    0.000    0.000    0.000    0.000    0.000 
#
# Total GULP energy -111748.949528 kJ/mol
# GULP energy per Si atom -5587.447476 kJ/mol
# Density = 2.390206 g / cm^3
# Si number density = 23.956582 Si / 1000 Ang^3
#
#
#
# Elastic Constant Matrix: (Units=GPa)
#
#
# Indices 1 2 3 4 5 6 
#
# 1 64.0144 45.6700 15.7258 0.0000 0.0000 0.0000
# 2 45.6700 165.7302 50.1502 0.0000 0.0000 0.0000
# 3 15.7258 50.1502 169.6369 0.0000 0.0000 0.0000
# 4 0.0000 0.0000 0.0000 30.0806 0.0000 0.0000
# 5 0.0000 0.0000 0.0000 0.0000 26.1283 0.0000
# 6 0.0000 0.0000 0.0000 0.0000 0.0000 24.2997
#
#
#
# Elastic Compliance Matrix: (Units=1/GPa)
#
#
# Indices 1 2 3 4 5 6 
#
# 1 0.019453 -0.005288 -0.000240 0.000000 0.000000 0.000000
# 2 -0.005288 0.008064 -0.001894 0.000000 0.000000 0.000000
# 3 -0.000240 -0.001894 0.006477 0.000000 0.000000 0.000000
# 4 0.000000 0.000000 0.000000 0.033244 0.000000 0.000000
# 5 0.000000 0.000000 0.000000 0.000000 0.038273 0.000000
# 6 0.000000 0.000000 0.000000 0.000000 0.000000 0.041153
#
#
# Mechanical properties :
#
#
# Convention : Reuss Voigt Hill
#
# Bulk Modulus (GPa) = 52.21773 69.16374 60.69074
# Shear Modulus (GPa) = 29.78122 35.29077 32.53600
#
# Velocity S-wave (km/s) = 3.52963 3.84228 3.68927
# Velocity P-wave (km/s) = 6.20123 6.97261 6.59820
#
# Compressibility (1/GPa) = 0.01915058
#
# Stress axis : x y z
#
# Youngs Moduli (GPa) = 51.40569 124.00500 154.39077
#
# Poissons Ratio (x) = 0.65574 0.03706
# Poissons Ratio (y) = 0.27183 0.29239
# Poissons Ratio (z) = 0.01234 0.23484
#
# Static dielectric constant tensor:
#      x y z
#    x 1.915110 0.000000 0.000000 
#    y 0.000000 1.953340 0.000000 
#    z 0.000000 0.000000 1.977980 
# 
# From -- ./inp_files/26501.got.cif
#   From: 2010.05.17/outbox.cif.g08.bks.cpg/sg20_14_cif.got.tgz:26501.got - 2010.06.03 22:52:26.
