data_PCOD9319021
_publ_section_title
;
Structure prediction by ZEFSAII (Michael W. Deem and Ramdas Pophale) SiO2 
 PCOD9319021
Probable space group: C 2 2 21
;
_chemical_formula_sum "Si O2"
_cell_formula_units_Z 32
_cell_length_a 8.603292
_cell_length_b 10.799114
_cell_length_c 15.146863
_cell_angle_alpha 90.000000
_cell_angle_beta 90.000000
_cell_angle_gamma 90.000000
_cell_volume 1407.263704
_symmetry_space_group_name_H-M "C 2 2 21"
_symmetry_group_IT_number 20
_symmetry_cell_setting 'orthorhombic'
loop_
_space_group_symop_operation_xyz
x,y,z
-x,-y,1/2+z
x,-y,-z
-x,y,1/2-z
1/2+x,1/2+y,z
1/2-x,1/2-y,1/2+z
1/2+x,1/2-y,-z
1/2-x,1/2+y,1/2-z
loop_
_atom_site_type_symbol
_atom_site_label
_atom_site_fract_x
_atom_site_fract_y
_atom_site_fract_z
Si Si1 0.318451 0.867129 0.504563
Si Si2 0.159650 0.626026 0.550284
Si Si3 0.814075 0.835935 0.259623
Si Si4 0.660433 0.925226 0.796839
O O1 0.215204 0.746401 0.496022
O O2 0.472364 0.866240 0.444823
O O3 0.375712 0.870624 0.606594
O O4 0.234056 0.000000 0.500000
O O5 0.197735 0.500000 0.500000
O O6 0.244628 0.627749 0.644466
O O7 0.762009 0.692440 0.246191
O O8 0.000000 0.831430 0.250000
O O9 0.758118 0.949190 0.199165
O O10 0.500000 0.956575 0.750000
#
# Coordination Sequence:
#
# PCOD9319021 Si02
#       4
#     8   8   8   8
#     4  10  22  37  58  87 118 157 198 243 298 353
#     4  10  22  40  60  88 122 155 199 248 296 355
#     4  10  23  40  60  89 121 157 200 247 296 354
#     4  10  21  39  60  86 120 155 197 246 296 354
#
# _framework density 22.739165
#
# number of rings (size 3 to 8) (size 9 to 14) (size 15 to 20)
#    0.000    2.000    0.000    3.000    0.000   14.000 
#    0.000    0.000    0.000    0.000    0.000    0.000 
#    0.000    0.000    0.000    0.000    0.000    0.000 
#
# Total GULP energy -89313.572517 kJ/mol
# GULP energy per Si atom -5582.098282 kJ/mol
# Density = 2.268741 g / cm^3
# Si number density = 22.739165 Si / 1000 Ang^3
#
#
#
# Elastic Constant Matrix: (Units=GPa)
#
#
# Indices 1 2 3 4 5 6 
#
# 1 50.3316 62.4970 12.1265 0.0000 0.0000 0.0000
# 2 62.4970 200.0849 13.2824 0.0000 0.0000 0.0000
# 3 12.1265 13.2824 46.9927 0.0000 0.0000 0.0000
# 4 0.0000 0.0000 0.0000 33.7116 0.0000 0.0000
# 5 0.0000 0.0000 0.0000 0.0000 32.6589 0.0000
# 6 0.0000 0.0000 0.0000 0.0000 0.0000 43.7078
#
#
#
# Elastic Compliance Matrix: (Units=1/GPa)
#
#
# Indices 1 2 3 4 5 6 
#
# 1 0.033979 -0.010223 -0.005879 0.000000 0.000000 0.000000
# 2 -0.010223 0.008169 0.000329 0.000000 0.000000 0.000000
# 3 -0.005879 0.000329 0.022704 0.000000 0.000000 0.000000
# 4 0.000000 0.000000 0.000000 0.029663 0.000000 0.000000
# 5 0.000000 0.000000 0.000000 0.000000 0.030620 0.000000
# 6 0.000000 0.000000 0.000000 0.000000 0.000000 0.022879
#
#
# Mechanical properties :
#
#
# Convention : Reuss Voigt Hill
#
# Bulk Modulus (GPa) = 30.02429 52.58012 41.30220
# Shear Modulus (GPa) = 26.22449 35.98253 31.10351
#
# Velocity S-wave (km/s) = 3.39967 3.98226 3.70244
# Velocity P-wave (km/s) = 5.35190 6.65717 6.03990
#
# Compressibility (1/GPa) = 0.03330637
#
# Stress axis : x y z
#
# Youngs Moduli (GPa) = 29.43023 122.41043 44.04535
#
# Poissons Ratio (x) = 1.25141 0.25893
# Poissons Ratio (y) = 0.30087 -0.01449
# Poissons Ratio (z) = 0.17301 -0.04028
#
# Static dielectric constant tensor:
#      x y z
#    x 1.786880 0.000000 0.000000 
#    y 0.000000 1.909370 0.000000 
#    z 0.000000 0.000000 1.983880 
# 
# From -- ./inp_files/18175.got.cif
#   From: 2010.05.17/outbox.cif.g08.bks.cpg/sg20_10_cif.got.tgz:18175.got - 2010.06.03 22:52:26.
