data_PCOD9319284
_publ_section_title
;
Structure prediction by ZEFSAII (Michael W. Deem and Ramdas Pophale) SiO2 
 PCOD9319284
Probable space group: C 2 2 21
;
_chemical_formula_sum "Si O2"
_cell_formula_units_Z 48
_cell_length_a 7.761926
_cell_length_b 15.193060
_cell_length_c 18.824619
_cell_angle_alpha 90.000000
_cell_angle_beta 90.000000
_cell_angle_gamma 90.000000
_cell_volume 2219.938515
_symmetry_space_group_name_H-M "C 2 2 21"
_symmetry_group_IT_number 20
_symmetry_cell_setting 'orthorhombic'
loop_
_space_group_symop_operation_xyz
x,y,z
-x,-y,1/2+z
x,-y,-z
-x,y,1/2-z
1/2+x,1/2+y,z
1/2-x,1/2-y,1/2+z
1/2+x,1/2-y,-z
1/2-x,1/2+y,1/2-z
loop_
_atom_site_type_symbol
_atom_site_label
_atom_site_fract_x
_atom_site_fract_y
_atom_site_fract_z
Si Si1 0.064819 0.560214 0.330752
Si Si2 0.237655 0.625952 0.694195
Si Si3 0.635547 0.619792 0.655696
Si Si4 0.795635 0.243395 0.077541
Si Si5 0.281046 0.545829 0.076380
Si Si6 0.615574 0.784593 0.573841
O O1 0.170289 0.469580 0.329069
O O2 0.162826 0.641726 0.368095
O O3 0.000000 0.580303 0.250000
O O4 0.901098 0.549280 0.382535
O O5 0.441058 0.639875 0.679627
O O6 0.231015 0.626436 0.779381
O O7 0.153027 0.703599 0.648113
O O8 0.617506 0.522763 0.624637
O O9 0.692116 0.690737 0.597355
O O10 0.863290 0.143125 0.072674
O O11 0.590155 0.228390 0.076019
O O12 0.838104 0.300241 0.007793
O O13 0.262061 0.500000 0.000000
#
# Coordination Sequence:
#
# PCOD9319284 Si02
#       6
#     8   8   8   8   8   8
#     4  11  24  40  63  91 121 162 203 251 305 356
#     4  10  23  39  61  87 121 158 205 250 299 361
#     4  10  21  41  63  85 120 164 202 251 301 358
#     4  10  23  39  61  89 119 158 197 252 301 361
#     4  11  22  40  63  89 121 160 204 250 305 363
#     4  10  23  39  63  88 123 159 203 248 305 364
#
# _framework density 21.622219000000001
#
# number of rings (size 3 to 8) (size 9 to 14) (size 15 to 20)
#    0.000    1.667    3.333    0.000   11.667    1.333 
#    0.000    0.000    3.667    0.000    0.000    0.000 
#    0.000    0.000    0.000    0.000    0.000    0.000 
#
# Total GULP energy -133872.199146 kJ/mol
# GULP energy per Si atom -5578.008298 kJ/mol
# Density = 2.157301 g / cm^3
# Si number density = 21.622219 Si / 1000 Ang^3
#
#
#
# Elastic Constant Matrix: (Units=GPa)
#
#
# Indices 1 2 3 4 5 6 
#
# 1 14.9234 -1.7765 0.4940 0.0000 0.0000 0.0000
# 2 -1.7765 118.3193 56.4199 0.0000 0.0000 0.0000
# 3 0.4940 56.4199 132.2387 0.0000 0.0000 0.0000
# 4 0.0000 0.0000 0.0000 46.0865 0.0000 0.0000
# 5 0.0000 0.0000 0.0000 0.0000 25.4680 0.0000
# 6 0.0000 0.0000 0.0000 0.0000 0.0000 20.9894
#
#
#
# Elastic Compliance Matrix: (Units=1/GPa)
#
#
# Indices 1 2 3 4 5 6 
#
# 1 0.067206 0.001417 -0.000856 0.000000 0.000000 0.000000
# 2 0.001417 0.010640 -0.004545 0.000000 0.000000 0.000000
# 3 -0.000856 -0.004545 0.009504 0.000000 0.000000 0.000000
# 4 0.000000 0.000000 0.000000 0.021698 0.000000 0.000000
# 5 0.000000 0.000000 0.000000 0.000000 0.039265 0.000000
# 6 0.000000 0.000000 0.000000 0.000000 0.000000 0.047643
#
#
# Mechanical properties :
#
#
# Convention : Reuss Voigt Hill
#
# Bulk Modulus (GPa) = 12.59711 41.75069 27.17390
# Shear Modulus (GPa) = 21.70280 32.53171 27.11725
#
# Velocity S-wave (km/s) = 3.17160 3.88306 3.54522
# Velocity P-wave (km/s) = 4.38756 6.28134 5.41784
#
# Compressibility (1/GPa) = 0.07938330
#
# Stress axis : x y z
#
# Youngs Moduli (GPa) = 14.87967 93.98305 105.21448
#
# Poissons Ratio (x) = -0.13318 0.09003
# Poissons Ratio (y) = -0.02109 0.47820
# Poissons Ratio (z) = 0.01273 0.42715
#
# Static dielectric constant tensor:
#      x y z
#    x 1.745480 0.000000 0.000000 
#    y 0.000000 1.844510 0.000000 
#    z 0.000000 0.000000 1.819640 
# 
# From -- ./inp_files/23482.got.cif
#   From: 2010.05.17/outbox.cif.g08.bks.cpg/sg20_12_cif.got.tgz:23482.got - 2010.06.03 22:52:26.
