data_PCOD9319264
_publ_section_title
;
Structure prediction by ZEFSAII (Michael W. Deem and Ramdas Pophale) SiO2 
 PCOD9319264
Probable space group: C 2 2 21
;
_chemical_formula_sum "Si O2"
_cell_formula_units_Z 40
_cell_length_a 7.589780
_cell_length_b 23.631740
_cell_length_c 9.652915
_cell_angle_alpha 90.000000
_cell_angle_beta 90.000000
_cell_angle_gamma 90.000000
_cell_volume 1731.344012
_symmetry_space_group_name_H-M "C 2 2 21"
_symmetry_group_IT_number 20
_symmetry_cell_setting 'orthorhombic'
loop_
_space_group_symop_operation_xyz
x,y,z
-x,-y,1/2+z
x,-y,-z
-x,y,1/2-z
1/2+x,1/2+y,z
1/2-x,1/2-y,1/2+z
1/2+x,1/2-y,-z
1/2-x,1/2+y,1/2-z
loop_
_atom_site_type_symbol
_atom_site_label
_atom_site_fract_x
_atom_site_fract_y
_atom_site_fract_z
Si Si1 0.645325 0.999727 0.148676
Si Si2 0.151341 0.303220 0.400160
Si Si3 0.691514 0.791186 0.723080
Si Si4 0.346133 0.389355 0.858782
Si Si5 0.223229 0.631444 0.850732
O O1 0.500000 0.022277 0.250000
O O2 0.689825 0.934829 0.177428
O O3 0.804402 0.043911 0.139319
O O4 0.555748 0.000000 0.000000
O O5 0.170673 0.244176 0.316621
O O6 0.215573 0.294339 0.557348
O O7 0.267333 0.342730 0.298354
O O8 0.956734 0.333720 0.396783
O O9 0.500000 0.765001 0.750000
O O10 0.690989 0.853274 0.789471
O O11 0.500000 0.378530 0.750000
O O12 0.353243 0.367933 0.017529
#
# Coordination Sequence:
#
# PCOD9319264 Si02
#       5
#     8   8   8   8   8
#     4  10  21  40  74 102 142 192 250 308 373 458
#     4  11  24  42  72 103 143 197 257 311 375 451
#     4  12  26  43  70 108 150 197 258 312 383 453
#     4  11  25  44  70 108 150 196 252 319 382 453
#     4  10  22  46  71 104 146 203 251 309 381 458
#
# _framework density 23.103439000000002
#
# number of rings (size 3 to 8) (size 9 to 14) (size 15 to 20)
#    0.000    1.200    4.000    1.800    8.400    1.600 
#    0.000   10.000    0.000    0.000    0.000    0.000 
#    0.000    0.000    0.000    0.000    0.000    0.000 
#
# Total GULP energy -111505.348556 kJ/mol
# GULP energy per Si atom -5575.267428 kJ/mol
# Density = 2.305085 g / cm^3
# Si number density = 23.103439 Si / 1000 Ang^3
#
#
#
# Elastic Constant Matrix: (Units=GPa)
#
#
# Indices 1 2 3 4 5 6 
#
# 1 52.2498 7.9020 27.0588 0.0000 0.0000 0.0000
# 2 7.9020 139.6497 44.5301 0.0000 0.0000 0.0000
# 3 27.0588 44.5301 222.2960 0.0000 0.0000 0.0000
# 4 0.0000 0.0000 0.0000 24.5943 0.0000 0.0000
# 5 0.0000 0.0000 0.0000 0.0000 37.8559 0.0000
# 6 0.0000 0.0000 0.0000 0.0000 0.0000 -0.2654
#
#
#
# Elastic Compliance Matrix: (Units=1/GPa)
#
#
# Indices 1 2 3 4 5 6 
#
# 1 0.020446 -0.000388 -0.002411 0.000000 0.000000 0.000000
# 2 -0.000388 0.007657 -0.001487 0.000000 0.000000 0.000000
# 3 -0.002411 -0.001487 0.005090 0.000000 0.000000 0.000000
# 4 0.000000 0.000000 0.000000 0.040660 0.000000 0.000000
# 5 0.000000 0.000000 0.000000 0.000000 0.026416 0.000000
# 6 0.000000 0.000000 0.000000 0.000000 0.000000 -3.768606
#
#
# Mechanical properties :
#
#
# Convention : Reuss Voigt Hill
#
# Bulk Modulus (GPa) = 40.61536 63.68636 52.15086
# Shear Modulus (GPa) = -1.36928 34.75062 16.69067
#
# Velocity S-wave (km/s) = -0.77069 3.88252 2.69073
# Velocity P-wave (km/s) = 4.10195 6.90827 5.68112
#
# Compressibility (1/GPa) = 0.02462122
#
# Stress axis : x y z
#
# Youngs Moduli (GPa) = 48.90901 130.60371 196.47247
#
# Poissons Ratio (x) = 0.05069 0.47370
# Poissons Ratio (y) = 0.01898 0.29207
# Poissons Ratio (z) = 0.11792 0.19415
#
# Static dielectric constant tensor:
#      x y z
#    x 1.917860 0.000000 0.000000 
#    y 0.000000 1.948780 0.000000 
#    z 0.000000 0.000000 1.860280 
# 
# From -- ./inp_files/6062.got.cif
#   From: 2010.05.17/outbox.cif.g08.bks.cpg/sg20_4_cif.got.tgz:6062.got - 2010.06.03 22:52:26.
