data_PCOD9319025
_publ_section_title
;
Structure prediction by ZEFSAII (Michael W. Deem and Ramdas Pophale) SiO2 
 PCOD9319025
Probable space group: C 2 2 21
;
_chemical_formula_sum "Si O2"
_cell_formula_units_Z 44
_cell_length_a 17.119399
_cell_length_b 16.413549
_cell_length_c 6.934767
_cell_angle_alpha 90.000000
_cell_angle_beta 90.000000
_cell_angle_gamma 90.000000
_cell_volume 1948.600834
_symmetry_space_group_name_H-M "C 2 2 21"
_symmetry_group_IT_number 20
_symmetry_cell_setting 'orthorhombic'
loop_
_space_group_symop_operation_xyz
x,y,z
-x,-y,1/2+z
x,-y,-z
-x,y,1/2-z
1/2+x,1/2+y,z
1/2-x,1/2-y,1/2+z
1/2+x,1/2-y,-z
1/2-x,1/2+y,1/2-z
loop_
_atom_site_type_symbol
_atom_site_label
_atom_site_fract_x
_atom_site_fract_y
_atom_site_fract_z
Si Si1 0.777849 0.858667 0.922113
Si Si2 0.765353 0.671516 0.864627
Si Si3 0.677840 0.000000 0.000000
Si Si4 0.890451 0.096398 0.543145
Si Si5 0.581123 0.925207 0.345136
Si Si6 0.442184 0.597273 0.988192
O O1 0.755189 0.858265 0.150071
O O2 0.869171 0.872538 0.890765
O O3 0.730570 0.939405 0.869755
O O4 0.757497 0.768665 0.855842
O O5 0.693560 0.636921 0.991400
O O6 0.852383 0.639405 0.921075
O O7 0.622349 0.959668 0.155643
O O8 0.914727 0.111240 0.767785
O O9 0.972231 0.128105 0.454868
O O10 0.882975 0.000000 0.500000
O O11 0.500000 0.892165 0.250000
O O12 0.569077 0.000000 0.500000
O O13 0.447144 0.500000 0.000000
#
# Coordination Sequence:
#
# PCOD9319025 Si02
#       6
#     8   8   4   8   8   8
#     4  10  21  39  60  89 124 161 206 262 318 380
#     4  10  23  38  59  89 125 159 210 259 316 383
#     4  10  22  42  68  92 128 174 220 262 326 400
#     4   9  18  34  56  85 115 146 192 237 297 373
#     4  11  23  43  68  94 128 172 224 272 323 388
#     4   9  17  33  57  83 113 148 187 238 299 365
#
# _framework density 22.580304999999999
#
# number of rings (size 3 to 8) (size 9 to 14) (size 15 to 20)
#    0.000    2.182    1.818    0.545    2.545    1.455 
#    6.545    0.000    0.000    0.000    0.000    0.000 
#    0.000    0.000    0.000    0.000    0.000    0.000 
#
# Total GULP energy -122601.205639 kJ/mol
# GULP energy per Si atom -5572.782074 kJ/mol
# Density = 2.252891 g / cm^3
# Si number density = 22.580305 Si / 1000 Ang^3
#
#
#
# Elastic Constant Matrix: (Units=GPa)
#
#
# Indices 1 2 3 4 5 6 
#
# 1 221.3776 67.4472 20.5895 0.0000 0.0000 0.0000
# 2 67.4472 75.4958 -14.2801 0.0000 0.0000 0.0000
# 3 20.5895 -14.2801 49.3853 0.0000 0.0000 0.0000
# 4 0.0000 0.0000 0.0000 21.1859 0.0000 0.0000
# 5 0.0000 0.0000 0.0000 0.0000 33.7873 0.0000
# 6 0.0000 0.0000 0.0000 0.0000 0.0000-2822.3673
#
#
#
# Elastic Compliance Matrix: (Units=1/GPa)
#
#
# Indices 1 2 3 4 5 6 
#
# 1 0.007283 -0.007491 -0.005203 0.000000 0.000000 0.000000
# 2 -0.007491 0.021717 0.009403 0.000000 0.000000 0.000000
# 3 -0.005203 0.009403 0.025137 0.000000 0.000000 0.000000
# 4 0.000000 0.000000 0.000000 0.047201 0.000000 0.000000
# 5 0.000000 0.000000 0.000000 0.000000 0.029597 0.000000
# 6 0.000000 0.000000 0.000000 0.000000 0.000000 -0.000354
#
#
# Mechanical properties :
#
#
# Convention : Reuss Voigt Hill
#
# Bulk Modulus (GPa) = 21.02837 54.86355 37.94596
# Shear Modulus (GPa) = 32.67678 -535.31202 -251.31762
#
# Velocity S-wave (km/s) = 3.80825 -15.41379 -10.56130
# Velocity P-wave (km/s) = 5.35443 17.10059 11.48391
#
# Compressibility (1/GPa) = 0.04755480
#
# Stress axis : x y z
#
# Youngs Moduli (GPa) = 137.30065 46.04786 39.78238
#
# Poissons Ratio (x) = 0.34494 0.20697
# Poissons Ratio (y) = 1.02850 -0.37406
# Poissons Ratio (z) = 0.71431 -0.43297
#
# Static dielectric constant tensor:
#      x y z
#    x 1.911160 0.000000 0.000000 
#    y 0.000000 1.871540 0.000000 
#    z 0.000000 0.000000 3.306940 
# 
# From -- ./inp_files/9271.got.cif
#   From: 2010.05.17/outbox.cif.g08.bks.cpg/sg20_5_cif.got.tgz:9271.got - 2010.06.03 22:52:26.
