data_PCOD9319372
_publ_section_title
;
Structure prediction by ZEFSAII (Michael W. Deem and Ramdas Pophale) SiO2 
 PCOD9319372
Probable space group: C 2 2 21
;
_chemical_formula_sum "Si O2"
_cell_formula_units_Z 44
_cell_length_a 24.808199
_cell_length_b 11.286335
_cell_length_c 7.994809
_cell_angle_alpha 90.000000
_cell_angle_beta 90.000000
_cell_angle_gamma 90.000000
_cell_volume 2238.495710
_symmetry_space_group_name_H-M "C 2 2 21"
_symmetry_group_IT_number 20
_symmetry_cell_setting 'orthorhombic'
loop_
_space_group_symop_operation_xyz
x,y,z
-x,-y,1/2+z
x,-y,-z
-x,y,1/2-z
1/2+x,1/2+y,z
1/2-x,1/2-y,1/2+z
1/2+x,1/2-y,-z
1/2-x,1/2+y,1/2-z
loop_
_atom_site_type_symbol
_atom_site_label
_atom_site_fract_x
_atom_site_fract_y
_atom_site_fract_z
Si Si1 0.562270 0.500000 0.000000
Si Si2 0.901008 0.273230 0.059873
Si Si3 0.758330 0.827766 0.417083
Si Si4 0.000000 0.821226 0.750000
Si Si5 0.812848 0.852954 0.774941
Si Si6 0.139587 0.892448 0.272403
Si Si7 0.168039 0.500000 0.500000
O O1 0.529254 0.411377 0.879821
O O2 0.599905 0.580173 0.881324
O O3 0.863287 0.235668 0.216314
O O4 0.960224 0.260726 0.137988
O O5 0.891750 0.172655 0.919518
O O6 0.874565 0.391170 0.977883
O O7 0.784085 0.852665 0.596832
O O8 0.728121 0.702695 0.407985
O O9 0.807945 0.822341 0.290277
O O10 0.712877 0.929894 0.384101
O O11 0.835712 0.980250 0.816242
#
# Coordination Sequence:
#
# PCOD9319372 Si02
#       7
#     4   8   8   4   8   8   4
#     4  12  23  40  66  94 132 144 221 268 334 372
#     4  11  25  40  67  88 130 166 226 262 332 368
#     4  11  20  37  62  90 138 171 204 251 327 392
#     4  12  24  44  64  94 118 174 210 288 328 374
#     4  11  21  37  58  94 125 170 205 258 310 400
#     4  12  21  40  63 100 128 167 208 270 317 403
#     4  10  21  42  58  94 124 176 205 266 302 406
#
# _framework density 19.656057000000001
#
# number of rings (size 3 to 8) (size 9 to 14) (size 15 to 20)
#    0.000    0.727    5.455    3.818    0.000    0.000 
#    0.000    1.818    0.000    2.182    0.000    0.000 
#    0.000    0.000    0.000    0.000    0.000    0.000 
#
# Total GULP energy -122488.711389 kJ/mol
# GULP energy per Si atom -5567.668699 kJ/mol
# Density = 1.961132 g / cm^3
# Si number density = 19.656057 Si / 1000 Ang^3
#
#
#
# Elastic Constant Matrix: (Units=GPa)
#
#
# Indices 1 2 3 4 5 6 
#
# 1 119.5840 35.4335 53.2952 0.0000 0.0000 0.0000
# 2 35.4335 80.9121 35.0381 0.0000 0.0000 0.0000
# 3 53.2952 35.0381 97.4506 0.0000 0.0000 0.0000
# 4 0.0000 0.0000 0.0000 19.2898 0.0000 0.0000
# 5 0.0000 0.0000 0.0000 0.0000 39.6385 0.0000
# 6 0.0000 0.0000 0.0000 0.0000 0.0000 109.0518
#
#
#
# Elastic Compliance Matrix: (Units=1/GPa)
#
#
# Indices 1 2 3 4 5 6 
#
# 1 0.011552 -0.002752 -0.005329 0.000000 0.000000 0.000000
# 2 -0.002752 0.015294 -0.003994 0.000000 0.000000 0.000000
# 3 -0.005329 -0.003994 0.014612 0.000000 0.000000 0.000000
# 4 0.000000 0.000000 0.000000 0.051841 0.000000 0.000000
# 5 0.000000 0.000000 0.000000 0.000000 0.025228 0.000000
# 6 0.000000 0.000000 0.000000 0.000000 0.000000 0.009170
#
#
# Mechanical properties :
#
#
# Convention : Reuss Voigt Hill
#
# Bulk Modulus (GPa) = 57.77167 60.60892 59.19029
# Shear Modulus (GPa) = 31.72289 45.20801 38.46545
#
# Velocity S-wave (km/s) = 4.02169 4.80099 4.42852
# Velocity P-wave (km/s) = 7.14286 7.85075 7.50516
#
# Compressibility (1/GPa) = 0.01730952
#
# Stress axis : x y z
#
# Youngs Moduli (GPa) = 86.56154 65.38679 68.43773
#
# Poissons Ratio (x) = 0.17992 0.36468
# Poissons Ratio (y) = 0.23818 0.27334
# Poissons Ratio (z) = 0.46126 0.26115
#
# Static dielectric constant tensor:
#      x y z
#    x 1.737630 0.000000 0.000000 
#    y 0.000000 1.718120 0.000000 
#    z 0.000000 0.000000 1.688440 
# 
# From -- ./inp_files/10617.got.cif
#   From: 2010.05.17/outbox.cif.g08.bks.cpg/sg20_6_cif.got.tgz:10617.got - 2010.06.03 22:52:26.
