data_PCOD9319531
_publ_section_title
;
Structure prediction by ZEFSAII (Michael W. Deem and Ramdas Pophale) SiO2 
 PCOD9319531
Probable space group: C 2 2 21
;
_chemical_formula_sum "Si O2"
_cell_formula_units_Z 40
_cell_length_a 7.513112
_cell_length_b 7.036123
_cell_length_c 26.048117
_cell_angle_alpha 90.000000
_cell_angle_beta 90.000000
_cell_angle_gamma 90.000000
_cell_volume 1376.986301
_symmetry_space_group_name_H-M "C 2 2 21"
_symmetry_group_IT_number 20
_symmetry_cell_setting 'orthorhombic'
loop_
_space_group_symop_operation_xyz
x,y,z
-x,-y,1/2+z
x,-y,-z
-x,y,1/2-z
1/2+x,1/2+y,z
1/2-x,1/2-y,1/2+z
1/2+x,1/2-y,-z
1/2-x,1/2+y,1/2-z
loop_
_atom_site_type_symbol
_atom_site_label
_atom_site_fract_x
_atom_site_fract_y
_atom_site_fract_z
Si Si1 0.161509 0.645722 0.379570
Si Si2 0.317847 0.276271 0.516821
Si Si3 0.495085 0.383802 0.678436
Si Si4 0.334477 0.272859 0.919171
Si Si5 0.118619 0.704706 0.203979
O O1 0.178951 0.738346 0.435758
O O2 0.314793 0.724648 0.340082
O O3 0.210033 0.423514 0.390241
O O4 0.974505 0.641088 0.349758
O O5 0.323178 0.500000 0.500000
O O6 0.500019 0.226147 0.544133
O O7 0.298381 0.164507 0.463405
O O8 0.592380 0.415366 0.623297
O O9 0.668487 0.313815 0.709641
O O10 0.423547 0.573721 0.702560
O O11 0.000000 0.616891 0.250000
#
# Coordination Sequence:
#
# PCOD9319531 Si02
#       5
#     8   8   8   8   8
#     4  10  24  48  71 110 153 201 259 331 391 476
#     4   9  21  38  64 107 154 201 257 313 393 475
#     4  11  26  49  74 110 154 194 258 327 397 468
#     4  10  21  44  71 105 156 204 256 321 392 477
#     4  12  30  48  80 111 147 208 266 331 407 470
#
# _framework density 29.048943000000001
#
# number of rings (size 3 to 8) (size 9 to 14) (size 15 to 20)
#    0.000    1.600    2.000    0.000   11.200    0.000 
#    0.000    1.000    0.000    0.000    0.000    0.000 
#    0.000    0.000    0.000    0.000    0.000    0.000 
#
# Total GULP energy -111942.332131 kJ/mol
# GULP energy per Si atom -5597.116607 kJ/mol
# Density = 2.898283 g / cm^3
# Si number density = 29.048943 Si / 1000 Ang^3
#
#
#
# Elastic Constant Matrix: (Units=GPa)
#
#
# Indices 1 2 3 4 5 6 
#
# 1 186.9278 30.3255 -5.6930 0.0000 0.0000 0.0000
# 2 30.3255 82.0941 18.2150 0.0000 0.0000 0.0000
# 3 -5.6930 18.2150 94.6769 0.0000 0.0000 0.0000
# 4 0.0000 0.0000 0.0000 40.1625 0.0000 0.0000
# 5 0.0000 0.0000 0.0000 0.0000 58.0420 0.0000
# 6 0.0000 0.0000 0.0000 0.0000 0.0000 48.1317
#
#
#
# Elastic Compliance Matrix: (Units=1/GPa)
#
#
# Indices 1 2 3 4 5 6 
#
# 1 0.005746 -0.002297 0.000788 0.000000 0.000000 0.000000
# 2 -0.002297 0.013643 -0.002763 0.000000 0.000000 0.000000
# 3 0.000788 -0.002763 0.011141 0.000000 0.000000 0.000000
# 4 0.000000 0.000000 0.000000 0.024899 0.000000 0.000000
# 5 0.000000 0.000000 0.000000 0.000000 0.017229 0.000000
# 6 0.000000 0.000000 0.000000 0.000000 0.000000 0.020776
#
#
# Mechanical properties :
#
#
# Convention : Reuss Voigt Hill
#
# Bulk Modulus (GPa) = 45.48607 49.93263 47.70935
# Shear Modulus (GPa) = 45.74216 50.65731 48.19974
#
# Velocity S-wave (km/s) = 3.97250 4.18049 4.07782
# Velocity P-wave (km/s) = 6.06081 6.36619 6.21538
#
# Compressibility (1/GPa) = 0.02198475
#
# Stress axis : x y z
#
# Youngs Moduli (GPa) = 174.02313 73.29844 89.75727
#
# Poissons Ratio (x) = 0.16840 -0.07069
# Poissons Ratio (y) = 0.39981 0.24799
# Poissons Ratio (z) = -0.13705 0.20252
#
# Static dielectric constant tensor:
#      x y z
#    x 2.336530 0.000000 0.000000 
#    y 0.000000 2.323110 0.000000 
#    z 0.000000 0.000000 2.449530 
# 
# From -- ./inp_files/28601.got.cif
#   From: 2010.05.17/outbox.cif.g08.bks.cpg/sg20_15_cif.got.tgz:28601.got - 2010.06.03 22:52:26.
