data_PCOD9319596
_publ_section_title
;
Structure prediction by ZEFSAII (Michael W. Deem and Ramdas Pophale) SiO2 
 PCOD9319596
Probable space group: C 2 2 21
;
_chemical_formula_sum "Si O2"
_cell_formula_units_Z 64
_cell_length_a 14.249816
_cell_length_b 29.239193
_cell_length_c 8.195678
_cell_angle_alpha 90.000000
_cell_angle_beta 90.000000
_cell_angle_gamma 90.000000
_cell_volume 3414.754811
_symmetry_space_group_name_H-M "C 2 2 21"
_symmetry_group_IT_number 20
_symmetry_cell_setting 'orthorhombic'
loop_
_space_group_symop_operation_xyz
x,y,z
-x,-y,1/2+z
x,-y,-z
-x,y,1/2-z
1/2+x,1/2+y,z
1/2-x,1/2-y,1/2+z
1/2+x,1/2-y,-z
1/2-x,1/2+y,1/2-z
loop_
_atom_site_type_symbol
_atom_site_label
_atom_site_fract_x
_atom_site_fract_y
_atom_site_fract_z
Si Si1 0.397758 0.320747 0.267834
Si Si2 0.666582 0.304840 0.574128
Si Si3 0.703287 0.606333 0.250343
Si Si4 0.898610 0.648214 0.170777
Si Si5 0.139837 0.730632 0.104922
Si Si6 0.049717 0.711382 0.585245
Si Si7 0.883173 0.052098 0.944312
Si Si8 0.100462 0.918561 0.077022
O O1 0.500000 0.298933 0.250000
O O2 0.334994 0.281979 0.347603
O O3 0.403870 0.365390 0.374295
O O4 0.373033 0.330791 0.082577
O O5 0.665390 0.341173 0.722094
O O6 0.771875 0.291993 0.518792
O O7 0.614137 0.256741 0.604195
O O8 0.814656 0.614239 0.218112
O O9 0.675618 0.580729 0.419296
O O10 0.658579 0.581009 0.092577
O O11 0.871625 0.698562 0.238717
O O12 0.000000 0.635768 0.250000
O O13 0.907759 0.664016 0.984397
O O14 0.040746 0.727055 0.019029
O O15 0.000000 0.698766 0.750000
O O16 0.862121 0.058948 0.748505
O O17 0.994430 0.064485 0.955456
O O18 0.871599 0.000000 0.000000
#
# Coordination Sequence:
#
# PCOD9319596 Si02
#       8
#     8   8   8   8   8   8   8   8
#     4  12  19  37  54  77 123 156 214 255 296 350
#     4  11  23  36  53  81 120 168 216 261 311 343
#     4  11  24  41  64  93 125 164 217 257 314 383
#     4   9  20  43  57  82 122 167 213 264 314 350
#     4  10  22  34  55  73 116 172 204 264 303 351
#     4  11  23  33  50  83 116 165 224 257 308 360
#     4  11  25  45  66  99 132 160 195 254 324 395
#     4  11  25  38  64  97 127 165 199 248 308 380
#
# _framework density 18.742196
#
# number of rings (size 3 to 8) (size 9 to 14) (size 15 to 20)
#    0.000    1.250    5.000    0.750    8.750    0.000 
#    2.250    0.000    0.000    0.000    3.250    0.000 
#    0.000    0.000    0.000    0.000    0.000    0.000 
#
# Total GULP energy -178150.695735 kJ/mol
# GULP energy per Si atom -5567.209242 kJ/mol
# Density = 1.869954 g / cm^3
# Si number density = 18.742196 Si / 1000 Ang^3
#
#
#
# Elastic Constant Matrix: (Units=GPa)
#
#
# Indices 1 2 3 4 5 6 
#
# 1 67.0244 36.5277 20.8855 0.0000 0.0000 0.0000
# 2 36.5277 74.6364 39.9352 0.0000 0.0000 0.0000
# 3 20.8855 39.9352 83.7577 0.0000 0.0000 0.0000
# 4 0.0000 0.0000 0.0000 24.3853 0.0000 0.0000
# 5 0.0000 0.0000 0.0000 0.0000 18.2037 0.0000
# 6 0.0000 0.0000 0.0000 0.0000 0.0000 17.2614
#
#
#
# Elastic Compliance Matrix: (Units=1/GPa)
#
#
# Indices 1 2 3 4 5 6 
#
# 1 0.020359 -0.009730 -0.000438 0.000000 0.000000 0.000000
# 2 -0.009730 0.022637 -0.008367 0.000000 0.000000 0.000000
# 3 -0.000438 -0.008367 0.016038 0.000000 0.000000 0.000000
# 4 0.000000 0.000000 0.000000 0.041008 0.000000 0.000000
# 5 0.000000 0.000000 0.000000 0.000000 0.054934 0.000000
# 6 0.000000 0.000000 0.000000 0.000000 0.000000 0.057933
#
#
# Mechanical properties :
#
#
# Convention : Reuss Voigt Hill
#
# Bulk Modulus (GPa) = 45.52700 46.67946 46.10323
# Shear Modulus (GPa) = 19.43268 20.50809 19.97039
#
# Velocity S-wave (km/s) = 3.22350 3.31149 3.26779
# Velocity P-wave (km/s) = 6.18049 6.29138 6.23618
#
# Compressibility (1/GPa) = 0.02196499
#
# Stress axis : x y z
#
# Youngs Moduli (GPa) = 49.11863 44.17558 62.35328
#
# Poissons Ratio (x) = 0.42981 0.02728
# Poissons Ratio (y) = 0.47791 0.52171
# Poissons Ratio (z) = 0.02149 0.36962
#
# Static dielectric constant tensor:
#      x y z
#    x 1.689240 0.000000 0.000000 
#    y 0.000000 1.649830 0.000000 
#    z 0.000000 0.000000 1.498200 
# 
# From -- ./inp_files/7685.got.cif
#   From: 2010.05.17/outbox.cif.g08.bks.cpg/sg20_4_cif.got.tgz:7685.got - 2010.06.03 22:52:26.
