data_PCOD9319392
_publ_section_title
;
Structure prediction by ZEFSAII (Michael W. Deem and Ramdas Pophale) SiO2 
 PCOD9319392
Probable space group: C 2 2 21
;
_chemical_formula_sum "Si O2"
_cell_formula_units_Z 36
_cell_length_a 20.836743
_cell_length_b 7.712304
_cell_length_c 10.852776
_cell_angle_alpha 90.000000
_cell_angle_beta 90.000000
_cell_angle_gamma 90.000000
_cell_volume 1744.033467
_symmetry_space_group_name_H-M "C 2 2 21"
_symmetry_group_IT_number 20
_symmetry_cell_setting 'orthorhombic'
loop_
_space_group_symop_operation_xyz
x,y,z
-x,-y,1/2+z
x,-y,-z
-x,y,1/2-z
1/2+x,1/2+y,z
1/2-x,1/2-y,1/2+z
1/2+x,1/2-y,-z
1/2-x,1/2+y,1/2-z
loop_
_atom_site_type_symbol
_atom_site_label
_atom_site_fract_x
_atom_site_fract_y
_atom_site_fract_z
Si Si1 0.309633 0.405811 0.630453
Si Si2 0.384594 0.078747 0.124828
Si Si3 0.990838 0.500000 0.500000
Si Si4 0.788480 0.891517 0.126310
Si Si5 0.570388 0.776502 0.197226
O O1 0.305928 0.500000 0.500000
O O2 0.275035 0.222674 0.608925
O O3 0.278292 0.496159 0.750089
O O4 0.382727 0.380454 0.673392
O O5 0.459237 0.106734 0.085913
O O6 0.345769 0.252100 0.153187
O O7 0.392676 0.920158 0.219625
O O8 0.353347 0.000000 0.000000
O O9 0.946506 0.629860 0.571403
O O10 0.801528 0.000000 0.000000
O O11 0.500000 0.732555 0.250000
#
# Coordination Sequence:
#
# PCOD9319392 Si02
#       5
#     8   8   4   8   8
#     4  12  27  43  67 102 132 174 224 278 330 385
#     4   9  19  39  66  92 121 174 217 253 328 389
#     4   8  20  36  70  86 128 174 214 256 328 392
#     4  12  25  44  69  96 134 174 221 278 331 390
#     4  10  21  42  64  95 133 172 215 265 328 397
#
# _framework density 20.641805999999999
#
# number of rings (size 3 to 8) (size 9 to 14) (size 15 to 20)
#    0.667    0.889    0.000    4.667    4.667    0.000 
#    4.000    0.000    0.000    0.000    0.000    0.000 
#    0.000    0.000    0.000    0.000    0.000    0.000 
#
# Total GULP energy -100332.264936 kJ/mol
# GULP energy per Si atom -5574.014719 kJ/mol
# Density = 2.059482 g / cm^3
# Si number density = 20.641806 Si / 1000 Ang^3
#
#
#
# Elastic Constant Matrix: (Units=GPa)
#
#
# Indices 1 2 3 4 5 6 
#
# 1 73.7612 39.5035 15.4627 0.0000 0.0000 0.0000
# 2 39.5035 44.7199 40.5064 0.0000 0.0000 0.0000
# 3 15.4627 40.5064 112.0734 0.0000 0.0000 0.0000
# 4 0.0000 0.0000 0.0000 30.4343 0.0000 0.0000
# 5 0.0000 0.0000 0.0000 0.0000 36.4514 0.0000
# 6 0.0000 0.0000 0.0000 0.0000 0.0000 68.8354
#
#
#
# Elastic Compliance Matrix: (Units=1/GPa)
#
#
# Indices 1 2 3 4 5 6 
#
# 1 0.029950 -0.033769 0.008073 0.000000 0.000000 0.000000
# 2 -0.033769 0.071319 -0.021118 0.000000 0.000000 0.000000
# 3 0.008073 -0.021118 0.015441 0.000000 0.000000 0.000000
# 4 0.000000 0.000000 0.000000 0.032858 0.000000 0.000000
# 5 0.000000 0.000000 0.000000 0.000000 0.027434 0.000000
# 6 0.000000 0.000000 0.000000 0.000000 0.000000 0.014527
#
#
# Mechanical properties :
#
#
# Convention : Reuss Voigt Hill
#
# Bulk Modulus (GPa) = 43.32107 46.83327 45.07717
# Shear Modulus (GPa) = 17.07355 36.14967 26.61161
#
# Velocity S-wave (km/s) = 2.87911 4.18937 3.59445
# Velocity P-wave (km/s) = 5.66436 6.79257 6.25396
#
# Compressibility (1/GPa) = 0.02308346
#
# Stress axis : x y z
#
# Youngs Moduli (GPa) = 33.38894 14.02153 64.76091
#
# Poissons Ratio (x) = 0.47349 -0.52280
# Poissons Ratio (y) = 1.12750 1.36759
# Poissons Ratio (z) = -0.26954 0.29610
#
# Static dielectric constant tensor:
#      x y z
#    x 1.756040 0.000000 0.000000 
#    y 0.000000 1.657820 0.000000 
#    z 0.000000 0.000000 1.746430 
# 
# From -- ./inp_files/16538.got.cif
#   From: 2010.05.17/outbox.cif.g08.bks.cpg/sg20_9_cif.got.tgz:16538.got - 2010.06.03 22:52:26.
