data_PCOD9319697
_publ_section_title
;
Structure prediction by ZEFSAII (Michael W. Deem and Ramdas Pophale) SiO2 
 PCOD9319697
Probable space group: C 2 2 21
;
_chemical_formula_sum "Si O2"
_cell_formula_units_Z 64
_cell_length_a 17.893771
_cell_length_b 12.197297
_cell_length_c 15.937670
_cell_angle_alpha 90.000000
_cell_angle_beta 90.000000
_cell_angle_gamma 90.000000
_cell_volume 3478.486355
_symmetry_space_group_name_H-M "C 2 2 21"
_symmetry_group_IT_number 20
_symmetry_cell_setting 'orthorhombic'
loop_
_space_group_symop_operation_xyz
x,y,z
-x,-y,1/2+z
x,-y,-z
-x,y,1/2-z
1/2+x,1/2+y,z
1/2-x,1/2-y,1/2+z
1/2+x,1/2-y,-z
1/2-x,1/2+y,1/2-z
loop_
_atom_site_type_symbol
_atom_site_label
_atom_site_fract_x
_atom_site_fract_y
_atom_site_fract_z
Si Si1 0.715403 0.902648 0.434455
Si Si2 0.986402 0.868080 0.503836
Si Si3 0.415706 0.082856 0.806866
Si Si4 0.083942 0.330123 0.730515
Si Si5 0.857588 0.774224 0.058261
Si Si6 0.294955 0.120143 0.535946
Si Si7 0.645762 0.721864 0.892208
Si Si8 0.559915 0.188499 0.862342
O O1 0.658781 0.921998 0.359515
O O2 0.674866 0.808828 0.489228
O O3 0.795455 0.876582 0.394257
O O4 0.724711 0.000000 0.500000
O O5 0.932120 0.815823 0.433295
O O6 0.961653 0.802509 0.589894
O O7 0.072098 0.838829 0.481133
O O8 0.976721 0.000000 0.500000
O O9 0.486713 0.109965 0.866558
O O10 0.419533 0.178971 0.736681
O O11 0.419662 0.962342 0.766099
O O12 0.112777 0.289876 0.640123
O O13 0.134317 0.278640 0.803353
O O14 0.000000 0.290454 0.750000
O O15 0.783836 0.846438 0.077851
O O16 0.314994 0.194852 0.456195
O O17 0.366963 0.138151 0.594285
O O18 0.288856 0.000000 0.500000
#
# Coordination Sequence:
#
# PCOD9319697 Si02
#       8
#     8   8   8   8   8   8   8   8
#     4  11  22  41  65  94 127 171 219 268 329 396
#     4  11  22  42  65  83 128 175 218 257 321 403
#     4  11  22  38  68  98 128 160 213 277 340 376
#     4  12  22  39  63  95 130 162 208 271 338 383
#     4  11  23  38  61  91 125 169 214 261 321 396
#     4  10  22  39  62  87 123 165 214 262 327 379
#     4  10  24  40  60  91 125 167 213 264 313 395
#     4  10  22  38  63  96 124 160 216 280 325 391
#
# _framework density 18.398809
#
# number of rings (size 3 to 8) (size 9 to 14) (size 15 to 20)
#    0.000    1.250    5.000    1.500    1.750    0.500 
#    0.000    2.500    0.000    0.000    0.000    0.000 
#    0.000    0.000    0.000    0.000    0.000    0.000 
#
# Total GULP energy -178281.044014 kJ/mol
# GULP energy per Si atom -5571.282625 kJ/mol
# Density = 1.835693 g / cm^3
# Si number density = 18.398809 Si / 1000 Ang^3
#
#
#
# Elastic Constant Matrix: (Units=GPa)
#
#
# Indices 1 2 3 4 5 6 
#
# 1 124.2304 35.3082 36.8504 0.0000 0.0000 0.0000
# 2 35.3082 100.0955 30.9397 0.0000 0.0000 0.0000
# 3 36.8504 30.9397 88.2726 0.0000 0.0000 0.0000
# 4 0.0000 0.0000 0.0000 29.0460 0.0000 0.0000
# 5 0.0000 0.0000 0.0000 0.0000 68.2512 0.0000
# 6 0.0000 0.0000 0.0000 0.0000 0.0000 13.2533
#
#
#
# Elastic Compliance Matrix: (Units=1/GPa)
#
#
# Indices 1 2 3 4 5 6 
#
# 1 0.009687 -0.002430 -0.003192 0.000000 0.000000 0.000000
# 2 -0.002430 0.011814 -0.003126 0.000000 0.000000 0.000000
# 3 -0.003192 -0.003126 0.013757 0.000000 0.000000 0.000000
# 4 0.000000 0.000000 0.000000 0.034428 0.000000 0.000000
# 5 0.000000 0.000000 0.000000 0.000000 0.014652 0.000000
# 6 0.000000 0.000000 0.000000 0.000000 0.000000 0.075453
#
#
# Mechanical properties :
#
#
# Convention : Reuss Voigt Hill
#
# Bulk Modulus (GPa) = 56.30461 57.64391 56.97426
# Shear Modulus (GPa) = 27.29123 36.07678 31.68401
#
# Velocity S-wave (km/s) = 3.85556 4.43292 4.15428
# Velocity P-wave (km/s) = 7.10558 7.58942 7.35148
#
# Compressibility (1/GPa) = 0.01776054
#
# Stress axis : x y z
#
# Youngs Moduli (GPa) = 103.22886 84.64456 72.69077
#
# Poissons Ratio (x) = 0.20572 0.23204
# Poissons Ratio (y) = 0.25089 0.22725
# Poissons Ratio (z) = 0.32952 0.26462
#
# Static dielectric constant tensor:
#      x y z
#    x 1.658910 0.000000 0.000000 
#    y 0.000000 1.584120 0.000000 
#    z 0.000000 0.000000 1.669000 
# 
# From -- ./inp_files/21521.got.cif
#   From: 2010.05.17/outbox.cif.g08.bks.cpg/sg20_11_cif.got.tgz:21521.got - 2010.06.03 22:52:26.
