data_PCOD9319032
_publ_section_title
;
Structure prediction by ZEFSAII (Michael W. Deem and Ramdas Pophale) SiO2 
 PCOD9319032
Probable space group: C 2 2 21
;
_chemical_formula_sum "Si O2"
_cell_formula_units_Z 56
_cell_length_a 22.637042
_cell_length_b 16.054715
_cell_length_c 8.048525
_cell_angle_alpha 90.000000
_cell_angle_beta 90.000000
_cell_angle_gamma 90.000000
_cell_volume 2925.085564
_symmetry_space_group_name_H-M "C 2 2 21"
_symmetry_group_IT_number 20
_symmetry_cell_setting 'orthorhombic'
loop_
_space_group_symop_operation_xyz
x,y,z
-x,-y,1/2+z
x,-y,-z
-x,y,1/2-z
1/2+x,1/2+y,z
1/2-x,1/2-y,1/2+z
1/2+x,1/2-y,-z
1/2-x,1/2+y,1/2-z
loop_
_atom_site_type_symbol
_atom_site_label
_atom_site_fract_x
_atom_site_fract_y
_atom_site_fract_z
Si Si1 0.684757 0.345581 0.337537
Si Si2 0.793610 0.929638 0.649183
Si Si3 0.562760 0.835281 0.834102
Si Si4 0.680025 0.879019 0.205540
Si Si5 0.829444 0.000000 0.000000
Si Si6 0.827697 0.334395 0.924674
Si Si7 0.863398 0.214880 0.485146
Si Si8 0.603333 0.000000 0.000000
O O1 0.749869 0.383064 0.315853
O O2 0.643089 0.417635 0.412513
O O3 0.685651 0.263575 0.449433
O O4 0.667645 0.311879 0.157035
O O5 0.732292 0.878755 0.636098
O O6 0.849280 0.866847 0.622481
O O7 0.794652 0.000000 0.500000
O O8 0.797714 0.960608 0.838501
O O9 0.500000 0.825937 0.750000
O O10 0.617335 0.840860 0.701963
O O11 0.575180 0.755325 0.952691
O O12 0.565859 0.922813 0.931325
O O13 0.660384 0.871313 0.395154
O O14 0.664040 0.794970 0.105799
O O15 0.646791 0.958201 0.132947
#
# Coordination Sequence:
#
# PCOD9319032 Si02
#       8
#     8   8   8   8   4   8   8   4
#     4  11  20  35  54  90 127 170 202 262 325 406
#     4  12  23  38  57 101 135 165 213 271 343 403
#     4  10  25  44  62  90 124 180 228 269 319 382
#     4  11  19  35  55  87 121 168 213 259 327 387
#     4  12  25  32  62  90 144 168 210 257 334 422
#     4  11  24  36  61  87 128 174 217 264 329 399
#     4  10  21  39  61  86 129 166 213 272 329 396
#     4  10  25  36  60  86 128 172 222 275 318 370
#
# _framework density 19.144736999999999
#
# number of rings (size 3 to 8) (size 9 to 14) (size 15 to 20)
#    0.000    1.143    4.286    1.286   10.000    1.143 
#    0.000    2.143    0.000    0.000    7.429    0.000 
#    0.000    0.000    0.000    0.000    0.000    0.000 
#
# Total GULP energy -156004.295083 kJ/mol
# GULP energy per Si atom -5571.581967 kJ/mol
# Density = 1.910116 g / cm^3
# Si number density = 19.144737 Si / 1000 Ang^3
#
#
#
# Elastic Constant Matrix: (Units=GPa)
#
#
# Indices 1 2 3 4 5 6 
#
# 1 67.3514 34.0750 11.5761 0.0000 0.0000 0.0000
# 2 34.0750 112.5447 35.3401 0.0000 0.0000 0.0000
# 3 11.5761 35.3401 103.3345 0.0000 0.0000 0.0000
# 4 0.0000 0.0000 0.0000 24.1306 0.0000 0.0000
# 5 0.0000 0.0000 0.0000 0.0000 20.5777 0.0000
# 6 0.0000 0.0000 0.0000 0.0000 0.0000 10.3757
#
#
#
# Elastic Compliance Matrix: (Units=1/GPa)
#
#
# Indices 1 2 3 4 5 6 
#
# 1 0.017536 -0.005257 -0.000167 0.000000 0.000000 0.000000
# 2 -0.005257 0.011530 -0.003354 0.000000 0.000000 0.000000
# 3 -0.000167 -0.003354 0.010843 0.000000 0.000000 0.000000
# 4 0.000000 0.000000 0.000000 0.041441 0.000000 0.000000
# 5 0.000000 0.000000 0.000000 0.000000 0.048596 0.000000
# 6 0.000000 0.000000 0.000000 0.000000 0.000000 0.096379
#
#
# Mechanical properties :
#
#
# Convention : Reuss Voigt Hill
#
# Bulk Modulus (GPa) = 44.73607 49.46810 47.10208
# Shear Modulus (GPa) = 19.89390 24.49940 22.19665
#
# Velocity S-wave (km/s) = 3.22705 3.58116 3.40871
# Velocity P-wave (km/s) = 6.10763 6.55704 6.33632
#
# Compressibility (1/GPa) = 0.02235333
#
# Stress axis : x y z
#
# Youngs Moduli (GPa) = 57.02618 86.72781 92.22390
#
# Poissons Ratio (x) = 0.45593 0.01536
# Poissons Ratio (y) = 0.29979 0.30936
# Poissons Ratio (z) = 0.00950 0.29092
#
# Static dielectric constant tensor:
#      x y z
#    x 1.635450 0.000000 0.000000 
#    y 0.000000 1.744400 0.000000 
#    z 0.000000 0.000000 1.721980 
# 
# From -- ./inp_files/10246.got.cif
#   From: 2010.05.17/outbox.cif.g08.bks.cpg/sg20_6_cif.got.tgz:10246.got - 2010.06.03 22:52:26.
