data_PCOD9319031
_publ_section_title
;
Structure prediction by ZEFSAII (Michael W. Deem and Ramdas Pophale) SiO2 
 PCOD9319031
Probable space group: C 2 2 21
;
_chemical_formula_sum "Si O2"
_cell_formula_units_Z 64
_cell_length_a 27.645476
_cell_length_b 13.429804
_cell_length_c 8.373175
_cell_angle_alpha 90.000000
_cell_angle_beta 90.000000
_cell_angle_gamma 90.000000
_cell_volume 3108.736516
_symmetry_space_group_name_H-M "C 2 2 21"
_symmetry_group_IT_number 20
_symmetry_cell_setting 'orthorhombic'
loop_
_space_group_symop_operation_xyz
x,y,z
-x,-y,1/2+z
x,-y,-z
-x,y,1/2-z
1/2+x,1/2+y,z
1/2-x,1/2-y,1/2+z
1/2+x,1/2-y,-z
1/2-x,1/2+y,1/2-z
loop_
_atom_site_type_symbol
_atom_site_label
_atom_site_fract_x
_atom_site_fract_y
_atom_site_fract_z
Si Si1 0.273142 0.311095 0.184291
Si Si2 0.944905 0.706784 0.306283
Si Si3 0.789117 0.461470 0.177731
Si Si4 0.445860 0.791220 0.308677
Si Si5 0.123901 0.887319 0.194701
Si Si6 0.765846 0.129733 0.178324
Si Si7 0.873779 0.115173 0.308095
Si Si8 0.395986 0.002310 0.693836
O O1 0.229016 0.349704 0.295586
O O2 0.324062 0.356320 0.237302
O O3 0.271394 0.193939 0.215991
O O4 0.262595 0.336522 0.002751
O O5 0.944921 0.708538 0.498860
O O6 0.914869 0.804179 0.252821
O O7 0.919478 0.602930 0.256163
O O8 0.000000 0.709341 0.250000
O O9 0.752852 0.518709 0.296322
O O10 0.843463 0.481165 0.231148
O O11 0.780620 0.500000 0.000000
O O12 0.500000 0.774039 0.250000
O O13 0.410328 0.702063 0.254753
O O14 0.427586 0.901116 0.259284
O O15 0.112213 0.001805 0.239283
O O16 0.127684 0.883179 0.001546
O O17 0.820280 0.135854 0.242629
O O18 0.391515 0.000000 0.500000
#
# Coordination Sequence:
#
# PCOD9319031 Si02
#       8
#     8   8   8   8   8   8   8   8
#     4  12  24  39  61  90 124 164 208 254 307 369
#     4  10  22  39  61  88 118 159 206 261 320 373
#     4  12  24  39  61  92 126 163 204 250 309 374
#     4  10  22  39  61  88 118 159 206 261 320 373
#     4  10  21  39  61  86 122 163 207 257 312 371
#     4  12  24  39  61  90 124 164 208 254 307 369
#     4  10  21  39  61  86 122 163 207 257 312 371
#     4  10  21  39  61  88 124 161 207 260 315 376
#
# _framework density 20.587143000000001
#
# number of rings (size 3 to 8) (size 9 to 14) (size 15 to 20)
#    0.000    1.250    1.250    5.250    0.000    4.500 
#    0.000    0.000    0.000    0.000    0.000    0.000 
#    0.000    0.000    0.000    0.000    0.000    0.000 
#
# Total GULP energy -178885.895959 kJ/mol
# GULP energy per Si atom -5590.184249 kJ/mol
# Density = 2.054029 g / cm^3
# Si number density = 20.587143 Si / 1000 Ang^3
#
#
#
# Elastic Constant Matrix: (Units=GPa)
#
#
# Indices 1 2 3 4 5 6 
#
# 1 125.9396 52.4864 13.3831 0.0000 0.0000 0.0000
# 2 52.4864 137.1127 25.2770 0.0000 0.0000 0.0000
# 3 13.3831 25.2770 36.1357 0.0000 0.0000 0.0000
# 4 0.0000 0.0000 0.0000 20.8721 0.0000 0.0000
# 5 0.0000 0.0000 0.0000 0.0000 35.8181 0.0000
# 6 0.0000 0.0000 0.0000 0.0000 0.0000 41.9760
#
#
#
# Elastic Compliance Matrix: (Units=1/GPa)
#
#
# Indices 1 2 3 4 5 6 
#
# 1 0.009487 -0.003425 -0.001117 0.000000 0.000000 0.000000
# 2 -0.003425 0.009610 -0.005454 0.000000 0.000000 0.000000
# 3 -0.001117 -0.005454 0.031902 0.000000 0.000000 0.000000
# 4 0.000000 0.000000 0.000000 0.047911 0.000000 0.000000
# 5 0.000000 0.000000 0.000000 0.000000 0.027919 0.000000
# 6 0.000000 0.000000 0.000000 0.000000 0.000000 0.023823
#
#
# Mechanical properties :
#
#
# Convention : Reuss Voigt Hill
#
# Bulk Modulus (GPa) = 32.25184 53.49791 42.87488
# Shear Modulus (GPa) = 27.62745 33.60267 30.61506
#
# Velocity S-wave (km/s) = 3.66727 4.04445 3.86047
# Velocity P-wave (km/s) = 5.79930 6.91756 6.38297
#
# Compressibility (1/GPa) = 0.03100598
#
# Stress axis : x y z
#
# Youngs Moduli (GPa) = 105.41133 104.05930 31.34595
#
# Poissons Ratio (x) = 0.35645 0.03502
# Poissons Ratio (y) = 0.36109 0.17095
# Poissons Ratio (z) = 0.11778 0.56749
#
# Static dielectric constant tensor:
#      x y z
#    x 1.672980 0.000000 0.000000 
#    y 0.000000 1.756930 0.000000 
#    z 0.000000 0.000000 1.705810 
# 
# From -- ./inp_files/11617.got.cif
#   From: 2010.05.17/outbox.cif.g08.bks.cpg/sg20_6_cif.got.tgz:11617.got - 2010.06.03 22:52:26.
