data_PCOD9319791
_publ_section_title
;
Structure prediction by ZEFSAII (Michael W. Deem and Ramdas Pophale) SiO2 
 PCOD9319791
Probable space group: C 2 2 21
;
_chemical_formula_sum "Si O2"
_cell_formula_units_Z 40
_cell_length_a 10.764454
_cell_length_b 17.154092
_cell_length_c 8.492623
_cell_angle_alpha 90.000000
_cell_angle_beta 90.000000
_cell_angle_gamma 90.000000
_cell_volume 1568.200495
_symmetry_space_group_name_H-M "C 2 2 21"
_symmetry_group_IT_number 20
_symmetry_cell_setting 'orthorhombic'
loop_
_space_group_symop_operation_xyz
x,y,z
-x,-y,1/2+z
x,-y,-z
-x,y,1/2-z
1/2+x,1/2+y,z
1/2-x,1/2-y,1/2+z
1/2+x,1/2-y,-z
1/2-x,1/2+y,1/2-z
loop_
_atom_site_type_symbol
_atom_site_label
_atom_site_fract_x
_atom_site_fract_y
_atom_site_fract_z
Si Si1 0.000001 0.912511 0.564223
Si Si2 0.278484 0.114688 0.428040
Si Si3 0.139228 0.380580 0.249999
Si Si4 0.361678 0.257728 0.249999
Si Si5 0.278484 0.114689 0.071958
O O1 0.132968 0.874969 0.527834
O O2 0.000000 0.918050 0.750000
O O3 0.867033 0.874969 0.527832
O O4 0.000002 0.000000 0.500000
O O5 0.338959 0.077172 0.582536
O O6 0.345421 0.197188 0.395723
O O7 0.283282 0.078701 0.249999
O O8 0.244520 0.314179 0.249999
O O9 0.161042 0.422828 0.417462
O O10 0.000000 0.349372 0.250000
O O11 0.500000 0.292370 0.250000
O O12 0.345420 0.197189 0.104275
#
# Coordination Sequence:
#
# PCOD9319791 Si02
#       5
#     8   8   8   8   8
#     4  10  22  42  70  96 122 162 214 275 322 370
#     4   9  23  39  58  90 129 155 206 264 316 361
#     4  12  24  36  64  91 127 177 213 246 308 381
#     4  10  22  40  60  87 133 173 207 252 314 369
#     4   9  23  39  58  90 129 155 206 264 316 361
#
# _framework density 25.506943
#
# number of rings (size 3 to 8) (size 9 to 14) (size 15 to 20)
#    1.200    0.800    0.000    2.400    8.400    0.000 
#    0.000    0.000    0.000    7.200    0.000    0.000 
#    0.000    0.000    0.000    0.000    0.000    0.000 
#
# Total GULP energy -111571.292950 kJ/mol
# GULP energy per Si atom -5578.564647 kJ/mol
# Density = 2.544889 g / cm^3
# Si number density = 25.506943 Si / 1000 Ang^3
#
#
#
# Elastic Constant Matrix: (Units=GPa)
#
#
# Indices 1 2 3 4 5 6 
#
# 1 219.7589 37.9209 71.7523 0.0000 0.0000 0.0000
# 2 37.9209 60.4612 30.4610 0.0000 0.0000 0.0000
# 3 71.7523 30.4610 201.6446 0.0000 0.0000 0.0000
# 4 0.0000 0.0000 0.0000 39.7913 0.0000 0.0000
# 5 0.0000 0.0000 0.0000 0.0000 44.5521 0.0000
# 6 0.0000 0.0000 0.0000 0.0000 0.0000 -131.8367
#
#
#
# Elastic Compliance Matrix: (Units=1/GPa)
#
#
# Indices 1 2 3 4 5 6 
#
# 1 0.005522 -0.002677 -0.001560 0.000000 0.000000 0.000000
# 2 -0.002677 0.019200 -0.001948 0.000000 0.000000 0.000000
# 3 -0.001560 -0.001948 0.005809 0.000000 0.000000 0.000000
# 4 0.000000 0.000000 0.000000 0.025131 0.000000 0.000000
# 5 0.000000 0.000000 0.000000 0.000000 0.022446 0.000000
# 6 0.000000 0.000000 0.000000 0.000000 0.000000 -0.007585
#
#
# Mechanical properties :
#
#
# Convention : Reuss Voigt Hill
#
# Bulk Modulus (GPa) = 55.06665 84.68145 69.87405
# Shear Modulus (GPa) = 56.21378 13.28338 34.74858
#
# Velocity S-wave (km/s) = 4.69962 2.28453 3.69496
# Velocity P-wave (km/s) = 7.14733 6.34273 6.75702
#
# Compressibility (1/GPa) = 0.01815981
#
# Stress axis : x y z
#
# Youngs Moduli (GPa) = 181.09717 52.08352 172.15461
#
# Poissons Ratio (x) = 0.13943 0.26864
# Poissons Ratio (y) = 0.48482 0.33532
# Poissons Ratio (z) = 0.28260 0.10145
#
# Static dielectric constant tensor:
#      x y z
#    x 1.938700 0.000000 0.000000 
#    y 0.000000 1.907260 0.000000 
#    z 0.000000 0.000000 2.092420 
# 
# From -- ./inp_files/6104.got.cif
#   From: 2010.05.17/outbox.cif.g08.bks.cpg/sg20_4_cif.got.tgz:6104.got - 2010.06.03 22:52:26.
