data_PCOD9319881
_publ_section_title
;
Structure prediction by ZEFSAII (Michael W. Deem and Ramdas Pophale) SiO2 
 PCOD9319881
Probable space group: C 2 2 21
;
_chemical_formula_sum "Si O2"
_cell_formula_units_Z 40
_cell_length_a 17.322595
_cell_length_b 14.731754
_cell_length_c 7.788634
_cell_angle_alpha 90.000000
_cell_angle_beta 90.000000
_cell_angle_gamma 90.000000
_cell_volume 1987.598709
_symmetry_space_group_name_H-M "C 2 2 21"
_symmetry_group_IT_number 20
_symmetry_cell_setting 'orthorhombic'
loop_
_space_group_symop_operation_xyz
x,y,z
-x,-y,1/2+z
x,-y,-z
-x,y,1/2-z
1/2+x,1/2+y,z
1/2-x,1/2-y,1/2+z
1/2+x,1/2-y,-z
1/2-x,1/2+y,1/2-z
loop_
_atom_site_type_symbol
_atom_site_label
_atom_site_fract_x
_atom_site_fract_y
_atom_site_fract_z
Si Si1 0.000000 0.675739 0.250000
Si Si2 0.768510 0.061160 0.167005
Si Si3 0.879533 0.772861 0.867007
Si Si4 0.134950 0.000000 0.000000
Si Si5 0.137477 0.598367 0.421231
Si Si6 0.445413 0.693675 0.492088
O O1 0.048026 0.613451 0.376577
O O2 0.939777 0.742880 0.342540
O O3 0.822039 0.144213 0.108586
O O4 0.691144 0.099439 0.253938
O O5 0.814206 0.012211 0.326320
O O6 0.754259 0.000000 0.000000
O O7 0.896983 0.764422 0.664631
O O8 0.963506 0.799913 0.944824
O O9 0.846159 0.681532 0.950101
O O10 0.083232 0.909086 0.016224
O O11 0.148894 0.500000 0.500000
#
# Coordination Sequence:
#
# PCOD9319881 Si02
#       6
#     4   8   8   4   8   8
#     4  10  24  40  66  96 122 176 226 276 322 378
#     4  11  25  41  67  99 134 177 216 274 342 397
#     4   9  22  42  64  95 134 174 216 272 335 398
#     4  10  22  40  68 102 140 166 214 274 334 418
#     4  11  25  44  62  91 130 175 232 269 320 387
#     4   9  20  39  66 101 130 168 216 274 339 394
#
# _framework density 20.124787999999999
#
# number of rings (size 3 to 8) (size 9 to 14) (size 15 to 20)
#    0.000    2.000    1.000    0.000    7.000   12.000 
#    0.000    0.000    0.000    0.000    0.000    0.000 
#    0.000    0.000    0.000    0.000    0.000    0.000 
#
# Total GULP energy -111605.271802 kJ/mol
# GULP energy per Si atom -5580.263590 kJ/mol
# Density = 2.007898 g / cm^3
# Si number density = 20.124788 Si / 1000 Ang^3
#
#
#
# Elastic Constant Matrix: (Units=GPa)
#
#
# Indices 1 2 3 4 5 6 
#
# 1 51.6732 58.3641 25.5225 0.0000 0.0000 0.0000
# 2 58.3641 143.5193 77.4247 0.0000 0.0000 0.0000
# 3 25.5225 77.4247 96.8230 0.0000 0.0000 0.0000
# 4 0.0000 0.0000 0.0000 37.9582 0.0000 0.0000
# 5 0.0000 0.0000 0.0000 0.0000 18.8232 0.0000
# 6 0.0000 0.0000 0.0000 0.0000 0.0000 114.3509
#
#
#
# Elastic Compliance Matrix: (Units=1/GPa)
#
#
# Indices 1 2 3 4 5 6 
#
# 1 0.036640 -0.017041 0.003969 0.000000 0.000000 0.000000
# 2 -0.017041 0.020180 -0.011645 0.000000 0.000000 0.000000
# 3 0.003969 -0.011645 0.018594 0.000000 0.000000 0.000000
# 4 0.000000 0.000000 0.000000 0.026345 0.000000 0.000000
# 5 0.000000 0.000000 0.000000 0.000000 0.053126 0.000000
# 6 0.000000 0.000000 0.000000 0.000000 0.000000 0.008745
#
#
# Mechanical properties :
#
#
# Convention : Reuss Voigt Hill
#
# Bulk Modulus (GPa) = 38.49258 68.29313 53.39286
# Shear Modulus (GPa) = 22.55065 42.94006 32.74536
#
# Velocity S-wave (km/s) = 3.35108 4.62420 4.03813
# Velocity P-wave (km/s) = 5.84307 7.90693 6.95201
#
# Compressibility (1/GPa) = 0.02597903
#
# Stress axis : x y z
#
# Youngs Moduli (GPa) = 27.29265 49.55469 53.78171
#
# Poissons Ratio (x) = 0.84447 -0.21344
# Poissons Ratio (y) = 0.46510 0.62627
# Poissons Ratio (z) = -0.10832 0.57705
#
# Static dielectric constant tensor:
#      x y z
#    x 1.716400 0.000000 0.000000 
#    y 0.000000 1.673760 0.000000 
#    z 0.000000 0.000000 1.702130 
# 
# From -- ./inp_files/9163.got.cif
#   From: 2010.05.17/outbox.cif.g08.bks.cpg/sg20_5_cif.got.tgz:9163.got - 2010.06.03 22:52:26.
