data_PCOD9319721
_publ_section_title
;
Structure prediction by ZEFSAII (Michael W. Deem and Ramdas Pophale) SiO2 
 PCOD9319721
Probable space group: C 2 2 21
;
_chemical_formula_sum "Si O2"
_cell_formula_units_Z 60
_cell_length_a 12.717014
_cell_length_b 12.634889
_cell_length_c 16.093659
_cell_angle_alpha 90.000000
_cell_angle_beta 90.000000
_cell_angle_gamma 90.000000
_cell_volume 2585.897911
_symmetry_space_group_name_H-M "C 2 2 21"
_symmetry_group_IT_number 20
_symmetry_cell_setting 'orthorhombic'
loop_
_space_group_symop_operation_xyz
x,y,z
-x,-y,1/2+z
x,-y,-z
-x,y,1/2-z
1/2+x,1/2+y,z
1/2-x,1/2-y,1/2+z
1/2+x,1/2-y,-z
1/2-x,1/2+y,1/2-z
loop_
_atom_site_type_symbol
_atom_site_label
_atom_site_fract_x
_atom_site_fract_y
_atom_site_fract_z
Si Si1 0.910039 0.076911 0.389489
Si Si2 0.310388 0.273462 0.735161
Si Si3 0.396896 0.137260 0.307107
Si Si4 0.260389 0.000000 0.000000
Si Si5 0.074598 0.597121 0.834885
Si Si6 0.623136 0.818940 0.412303
Si Si7 0.616820 0.385363 0.495528
Si Si8 0.971659 0.149972 0.653590
O O1 0.892645 0.148379 0.309247
O O2 0.016668 0.097971 0.440691
O O3 0.813231 0.084192 0.452513
O O4 0.905087 0.954455 0.362904
O O5 0.201678 0.334827 0.748192
O O6 0.321894 0.167463 0.680605
O O7 0.342043 0.231914 0.825455
O O8 0.500000 0.131264 0.250000
O O9 0.414148 0.239583 0.365139
O O10 0.392247 0.023551 0.350293
O O11 0.327869 0.068209 0.935642
O O12 0.000000 0.598046 0.750000
O O13 0.001018 0.653624 0.903068
O O14 0.658748 0.727685 0.475821
O O15 0.673362 0.500000 0.500000
O O16 0.572023 0.365623 0.404127
O O17 0.000000 0.150370 0.750000
#
# Coordination Sequence:
#
# PCOD9319721 Si02
#       8
#     8   8   8   4   8   8   8   8
#     4  11  23  42  67  99 137 188 237 291 350 437
#     4  11  24  40  73  97 143 182 236 286 353 430
#     4  10  23  40  63  98 136 172 228 285 337 414
#     4  12  26  42  70 100 142 192 244 296 366 434
#     4   9  21  41  63  96 134 174 228 277 339 417
#     4  11  25  44  71 102 137 189 236 293 366 428
#     4  10  22  43  67  99 140 178 236 291 350 427
#     4  10  22  38  68  96 133 178 236 287 352 407
#
# _framework density 23.202770999999998
#
# number of rings (size 3 to 8) (size 9 to 14) (size 15 to 20)
#    0.000    1.600    3.333    0.800   13.067    1.067 
#    0.000    1.333    0.000    0.000    0.000    0.000 
#    0.000    0.000    0.000    0.000    0.000    0.000 
#
# Total GULP energy -167449.537058 kJ/mol
# GULP energy per Si atom -5581.651235 kJ/mol
# Density = 2.314996 g / cm^3
# Si number density = 23.202771 Si / 1000 Ang^3
#
#
#
# Elastic Constant Matrix: (Units=GPa)
#
#
# Indices 1 2 3 4 5 6 
#
# 1 64.5829 14.2250 4.9648 0.0000 0.0000 0.0000
# 2 14.2250 156.3011 12.6393 0.0000 0.0000 0.0000
# 3 4.9648 12.6393 62.5686 0.0000 0.0000 0.0000
# 4 0.0000 0.0000 0.0000 27.7266 0.0000 0.0000
# 5 0.0000 0.0000 0.0000 0.0000 11.7156 0.0000
# 6 0.0000 0.0000 0.0000 0.0000 0.0000 24.3110
#
#
#
# Elastic Compliance Matrix: (Units=1/GPa)
#
#
# Indices 1 2 3 4 5 6 
#
# 1 0.015860 -0.001364 -0.000983 0.000000 0.000000 0.000000
# 2 -0.001364 0.006621 -0.001229 0.000000 0.000000 0.000000
# 3 -0.000983 -0.001229 0.016309 0.000000 0.000000 0.000000
# 4 0.000000 0.000000 0.000000 0.036066 0.000000 0.000000
# 5 0.000000 0.000000 0.000000 0.000000 0.085356 0.000000
# 6 0.000000 0.000000 0.000000 0.000000 0.000000 0.041134
#
#
# Mechanical properties :
#
#
# Convention : Reuss Voigt Hill
#
# Bulk Modulus (GPa) = 31.60782 38.56785 35.08784
# Shear Modulus (GPa) = 22.82635 29.52553 26.17594
#
# Velocity S-wave (km/s) = 3.13992 3.57108 3.36242
# Velocity P-wave (km/s) = 5.17663 5.80187 5.49814
#
# Compressibility (1/GPa) = 0.03163774
#
# Stress axis : x y z
#
# Youngs Moduli (GPa) = 63.05187 151.02432 61.31660
#
# Poissons Ratio (x) = 0.20599 0.06027
# Poissons Ratio (y) = 0.08600 0.07538
# Poissons Ratio (z) = 0.06198 0.18566
#
# Static dielectric constant tensor:
#      x y z
#    x 1.921930 0.000000 0.000000 
#    y 0.000000 1.928090 0.000000 
#    z 0.000000 0.000000 1.909180 
# 
# From -- ./inp_files/24956.got.cif
#   From: 2010.05.17/outbox.cif.g08.bks.cpg/sg20_13_cif.got.tgz:24956.got - 2010.06.03 22:52:26.
