data_PCOD9319431
_publ_section_title
;
Structure prediction by ZEFSAII (Michael W. Deem and Ramdas Pophale) SiO2 
 PCOD9319431
Probable space group: C 2 2 21
;
_chemical_formula_sum "Si O2"
_cell_formula_units_Z 36
_cell_length_a 6.174360
_cell_length_b 24.949084
_cell_length_c 10.436360
_cell_angle_alpha 90.000000
_cell_angle_beta 90.000000
_cell_angle_gamma 90.000000
_cell_volume 1607.665176
_symmetry_space_group_name_H-M "C 2 2 21"
_symmetry_group_IT_number 20
_symmetry_cell_setting 'orthorhombic'
loop_
_space_group_symop_operation_xyz
x,y,z
-x,-y,1/2+z
x,-y,-z
-x,y,1/2-z
1/2+x,1/2+y,z
1/2-x,1/2-y,1/2+z
1/2+x,1/2-y,-z
1/2-x,1/2+y,1/2-z
loop_
_atom_site_type_symbol
_atom_site_label
_atom_site_fract_x
_atom_site_fract_y
_atom_site_fract_z
Si Si1 0.814861 0.550151 0.644502
Si Si2 0.849219 0.683153 0.375581
Si Si3 0.000000 0.137607 0.750000
Si Si4 0.361386 0.795918 0.121363
Si Si5 0.823234 0.566103 0.361708
O O1 0.652331 0.598034 0.670286
O O2 0.917399 0.559017 0.504715
O O3 0.703750 0.491114 0.652282
O O4 0.000000 0.552082 0.750000
O O5 0.690236 0.733064 0.393237
O O6 0.728154 0.625946 0.360760
O O7 0.000000 0.691658 0.250000
O O8 0.008656 0.683143 0.498536
O O9 0.861452 0.173579 0.652629
O O10 0.500000 0.803604 0.250000
O O11 0.000000 0.566890 0.250000
#
# Coordination Sequence:
#
# PCOD9319431 Si02
#       5
#     8   8   4   8   8
#     4  10  21  42  68  95 131 178 228 274 334 408
#     4  11  23  43  67 100 137 178 222 280 344 391
#     4  12  24  42  70 104 132 182 228 270 334 426
#     4  12  26  45  69 101 138 181 229 280 336 408
#     4   9  20  40  65  94 135 171 218 285 339 386
#
# _framework density 22.392723
#
# number of rings (size 3 to 8) (size 9 to 14) (size 15 to 20)
#    0.000    1.333    1.111    4.667    3.111    0.000 
#    2.000   20.000    0.000    0.000    0.000    0.000 
#    0.000    0.000    0.000    0.000    0.000    0.000 
#
# Total GULP energy -100523.273340 kJ/mol
# GULP energy per Si atom -5584.626297 kJ/mol
# Density = 2.234176 g / cm^3
# Si number density = 22.392723 Si / 1000 Ang^3
#
#
#
# Elastic Constant Matrix: (Units=GPa)
#
#
# Indices 1 2 3 4 5 6 
#
# 1 44.3798 34.0713 37.6303 0.0000 0.0000 0.0000
# 2 34.0713 203.8030 12.1609 0.0000 0.0000 0.0000
# 3 37.6303 12.1609 173.6192 0.0000 0.0000 0.0000
# 4 0.0000 0.0000 0.0000 28.8987 0.0000 0.0000
# 5 0.0000 0.0000 0.0000 0.0000 19.7181 0.0000
# 6 0.0000 0.0000 0.0000 0.0000 0.0000 27.0839
#
#
#
# Elastic Compliance Matrix: (Units=1/GPa)
#
#
# Indices 1 2 3 4 5 6 
#
# 1 0.031893 -0.004940 -0.006567 0.000000 0.000000 0.000000
# 2 -0.004940 0.005692 0.000672 0.000000 0.000000 0.000000
# 3 -0.006567 0.000672 0.007136 0.000000 0.000000 0.000000
# 4 0.000000 0.000000 0.000000 0.034604 0.000000 0.000000
# 5 0.000000 0.000000 0.000000 0.000000 0.050715 0.000000
# 6 0.000000 0.000000 0.000000 0.000000 0.000000 0.036922
#
#
# Mechanical properties :
#
#
# Convention : Reuss Voigt Hill
#
# Bulk Modulus (GPa) = 43.37937 65.50300 54.44119
# Shear Modulus (GPa) = 25.46922 37.66946 31.56934
#
# Velocity S-wave (km/s) = 3.37618 4.10594 3.75881
# Velocity P-wave (km/s) = 5.88322 7.19678 6.57290
#
# Compressibility (1/GPa) = 0.02305243
#
# Stress axis : x y z
#
# Youngs Moduli (GPa) = 31.35465 175.67089 140.13658
#
# Poissons Ratio (x) = 0.86782 0.92021
# Poissons Ratio (y) = 0.15489 -0.09417
# Poissons Ratio (z) = 0.20589 -0.11805
#
# Static dielectric constant tensor:
#      x y z
#    x 1.677350 0.000000 0.000000 
#    y 0.000000 1.893450 0.000000 
#    z 0.000000 0.000000 1.811100 
# 
# From -- ./inp_files/12075.got.cif
#   From: 2010.05.17/outbox.cif.g08.bks.cpg/sg20_7_cif.got.tgz:12075.got - 2010.06.03 22:52:26.
