data_PCOD9319323
_publ_section_title
;
Structure prediction by ZEFSAII (Michael W. Deem and Ramdas Pophale) SiO2 
 PCOD9319323
Probable space group: C 2 2 21
;
_chemical_formula_sum "Si O2"
_cell_formula_units_Z 60
_cell_length_a 8.635121
_cell_length_b 21.504244
_cell_length_c 14.645526
_cell_angle_alpha 90.000000
_cell_angle_beta 90.000000
_cell_angle_gamma 90.000000
_cell_volume 2719.553337
_symmetry_space_group_name_H-M "C 2 2 21"
_symmetry_group_IT_number 20
_symmetry_cell_setting 'orthorhombic'
loop_
_space_group_symop_operation_xyz
x,y,z
-x,-y,1/2+z
x,-y,-z
-x,y,1/2-z
1/2+x,1/2+y,z
1/2-x,1/2-y,1/2+z
1/2+x,1/2-y,-z
1/2-x,1/2+y,1/2-z
loop_
_atom_site_type_symbol
_atom_site_label
_atom_site_fract_x
_atom_site_fract_y
_atom_site_fract_z
Si Si1 0.929766 0.976088 0.603079
Si Si2 0.685475 0.131347 0.428381
Si Si3 0.424743 0.696702 0.520748
Si Si4 0.435836 0.804188 0.662230
Si Si5 0.151780 0.107047 0.811563
Si Si6 0.000000 0.590663 0.750000
Si Si7 0.818387 0.880727 0.917267
Si Si8 0.449014 0.065331 0.545856
O O1 0.798337 0.924210 0.596201
O O2 0.085095 0.937475 0.627406
O O3 0.958081 0.000000 0.500000
O O4 0.870578 0.034153 0.661763
O O5 0.785245 0.192830 0.448373
O O6 0.564698 0.143034 0.349204
O O7 0.583054 0.112437 0.515386
O O8 0.442222 0.761160 0.572463
O O9 0.375685 0.647513 0.598230
O O10 0.570398 0.667609 0.469324
O O11 0.500000 0.767947 0.750000
O O12 0.274423 0.840086 0.656801
O O13 0.326680 0.120139 0.773010
O O14 0.000000 0.120503 0.750000
O O15 0.044922 0.557947 0.845516
O O16 0.704988 0.908977 0.995615
O O17 0.485350 0.000000 0.500000
#
# Coordination Sequence:
#
# PCOD9319323 Si02
#       8
#     8   8   8   8   8   4   8   8
#     4  11  20  42  67  93 131 179 217 280 349 423
#     4  10  21  41  67  90 130 178 225 272 352 415
#     4  11  21  45  69  90 130 180 234 289 350 418
#     4  11  25  43  65  98 135 178 233 294 352 425
#     4  12  25  39  67 105 138 175 230 292 355 418
#     4  12  24  40  64 106 140 178 236 280 360 424
#     4  10  23  40  72  94 132 183 235 280 360 425
#     4  11  22  39  62  97 139 177 221 282 347 429
#
# _framework density 22.062448
#
# number of rings (size 3 to 8) (size 9 to 14) (size 15 to 20)
#    0.000    1.067    4.000    3.600    1.867    1.067 
#    8.400    2.000    2.933    0.000    0.000    0.000 
#    0.000    0.000    0.000    0.000    0.000    0.000 
#
# Total GULP energy -167324.096417 kJ/mol
# GULP energy per Si atom -5577.469881 kJ/mol
# Density = 2.201223 g / cm^3
# Si number density = 22.062448 Si / 1000 Ang^3
#
#
#
# Elastic Constant Matrix: (Units=GPa)
#
#
# Indices 1 2 3 4 5 6 
#
# 1 146.5919 24.6046 18.5110 0.0000 0.0000 0.0000
# 2 24.6046 68.3533 -3.2257 0.0000 0.0000 0.0000
# 3 18.5110 -3.2257 59.2039 0.0000 0.0000 0.0000
# 4 0.0000 0.0000 0.0000 20.2498 0.0000 0.0000
# 5 0.0000 0.0000 0.0000 0.0000 25.3653 0.0000
# 6 0.0000 0.0000 0.0000 0.0000 0.0000 14.4958
#
#
#
# Elastic Compliance Matrix: (Units=1/GPa)
#
#
# Indices 1 2 3 4 5 6 
#
# 1 0.007623 -0.002864 -0.002539 0.000000 0.000000 0.000000
# 2 -0.002864 0.015743 0.001753 0.000000 0.000000 0.000000
# 3 -0.002539 0.001753 0.017780 0.000000 0.000000 0.000000
# 4 0.000000 0.000000 0.000000 0.049383 0.000000 0.000000
# 5 0.000000 0.000000 0.000000 0.000000 0.039424 0.000000
# 6 0.000000 0.000000 0.000000 0.000000 0.000000 0.068985
#
#
# Mechanical properties :
#
#
# Convention : Reuss Voigt Hill
#
# Bulk Modulus (GPa) = 29.54510 39.32543 34.43526
# Shear Modulus (GPa) = 22.98621 27.63947 25.31284
#
# Velocity S-wave (km/s) = 3.23130 3.54331 3.39090
# Velocity P-wave (km/s) = 5.22900 5.88246 5.56533
#
# Compressibility (1/GPa) = 0.03384656
#
# Stress axis : x y z
#
# Youngs Moduli (GPa) = 131.18179 63.51840 56.24195
#
# Poissons Ratio (x) = 0.18191 0.14283
# Poissons Ratio (y) = 0.37568 -0.09860
# Poissons Ratio (z) = 0.33313 -0.11136
#
# Static dielectric constant tensor:
#      x y z
#    x 1.886540 0.000000 0.000000 
#    y 0.000000 1.800330 0.000000 
#    z 0.000000 0.000000 1.922780 
# 
# From -- ./inp_files/19341.got.cif
#   From: 2010.05.17/outbox.cif.g08.bks.cpg/sg20_10_cif.got.tgz:19341.got - 2010.06.03 22:52:26.
