data_PCOD9319589
_publ_section_title
;
Structure prediction by ZEFSAII (Michael W. Deem and Ramdas Pophale) SiO2 
 PCOD9319589
Probable space group: C 2 2 21
;
_chemical_formula_sum "Si O2"
_cell_formula_units_Z 48
_cell_length_a 26.842717
_cell_length_b 6.044399
_cell_length_c 15.078388
_cell_angle_alpha 90.000000
_cell_angle_beta 90.000000
_cell_angle_gamma 90.000000
_cell_volume 2446.439680
_symmetry_space_group_name_H-M "C 2 2 21"
_symmetry_group_IT_number 20
_symmetry_cell_setting 'orthorhombic'
loop_
_space_group_symop_operation_xyz
x,y,z
-x,-y,1/2+z
x,-y,-z
-x,y,1/2-z
1/2+x,1/2+y,z
1/2-x,1/2-y,1/2+z
1/2+x,1/2-y,-z
1/2-x,1/2+y,1/2-z
loop_
_atom_site_type_symbol
_atom_site_label
_atom_site_fract_x
_atom_site_fract_y
_atom_site_fract_z
Si Si1 0.610237 0.351780 0.876619
Si Si2 0.958414 0.763046 0.326278
Si Si3 0.702204 0.340337 0.119359
Si Si4 0.702595 0.115134 0.404772
Si Si5 0.440813 0.000000 0.500000
Si Si6 0.743777 0.500000 0.500000
Si Si7 0.858748 0.532115 0.256574
O O1 0.561161 0.492187 0.851423
O O2 0.653354 0.520637 0.902601
O O3 0.594079 0.180410 0.952041
O O4 0.633885 0.212572 0.795352
O O5 0.968808 0.625938 0.418183
O O6 0.910130 0.649005 0.282499
O O7 0.000000 0.764343 0.250000
O O8 0.747984 0.505190 0.138888
O O9 0.685116 0.168212 0.194265
O O10 0.721566 0.189651 0.039497
O O11 0.711583 0.374694 0.424991
O O12 0.655800 0.054363 0.344973
O O13 0.696503 0.000000 0.500000
#
# Coordination Sequence:
#
# PCOD9319589 Si02
#       7
#     8   8   8   8   4   4   8
#     4  10  22  38  63  94 125 161 211 259 314 372
#     4  10  23  43  66  96 127 161 210 266 325 378
#     4  10  22  33  58  89 125 164 205 249 304 358
#     4  10  23  38  56  84 124 169 209 250 303 372
#     4  10  22  41  68  96 130 160 208 264 327 380
#     4  10  22  37  54  84 126 166 206 248 299 362
#     4  10  23  39  61  89 121 164 206 256 308 374
#
# _framework density 19.620349999999998
#
# number of rings (size 3 to 8) (size 9 to 14) (size 15 to 20)
#    0.000    2.000    0.000    1.500    4.667   26.667 
#    1.500    0.000    3.667    0.000    0.000    0.000 
#    0.000    0.000    0.000    0.000    0.000    0.000 
#
# Total GULP energy -133919.784811 kJ/mol
# GULP energy per Si atom -5579.991034 kJ/mol
# Density = 1.957569 g / cm^3
# Si number density = 19.620350 Si / 1000 Ang^3
#
#
#
# Elastic Constant Matrix: (Units=GPa)
#
#
# Indices 1 2 3 4 5 6 
#
# 1 57.7000 30.9853 54.5812 0.0000 0.0000 0.0000
# 2 30.9853 117.2843 51.1094 0.0000 0.0000 0.0000
# 3 54.5812 51.1094 119.1997 0.0000 0.0000 0.0000
# 4 0.0000 0.0000 0.0000 23.4480 0.0000 0.0000
# 5 0.0000 0.0000 0.0000 0.0000 31.5649 0.0000
# 6 0.0000 0.0000 0.0000 0.0000 0.0000 10.6009
#
#
#
# Elastic Compliance Matrix: (Units=1/GPa)
#
#
# Indices 1 2 3 4 5 6 
#
# 1 0.031148 -0.002476 -0.013201 0.000000 0.000000 0.000000
# 2 -0.002476 0.010682 -0.003446 0.000000 0.000000 0.000000
# 3 -0.013201 -0.003446 0.015912 0.000000 0.000000 0.000000
# 4 0.000000 0.000000 0.000000 0.042648 0.000000 0.000000
# 5 0.000000 0.000000 0.000000 0.000000 0.031681 0.000000
# 6 0.000000 0.000000 0.000000 0.000000 0.000000 0.094332
#
#
# Mechanical properties :
#
#
# Convention : Reuss Voigt Hill
#
# Bulk Modulus (GPa) = 51.29541 63.05953 57.17747
# Shear Modulus (GPa) = 18.44011 23.62328 21.03170
#
# Velocity S-wave (km/s) = 3.06902 3.47366 3.27759
# Velocity P-wave (km/s) = 6.22569 6.94968 6.59762
#
# Compressibility (1/GPa) = 0.01949492
#
# Stress axis : x y z
#
# Youngs Moduli (GPa) = 32.10459 93.61221 62.84720
#
# Poissons Ratio (x) = 0.23182 0.82964
# Poissons Ratio (y) = 0.07950 0.21659
# Poissons Ratio (z) = 0.42381 0.32262
#
# Static dielectric constant tensor:
#      x y z
#    x 1.654040 0.000000 0.000000 
#    y 0.000000 1.775380 0.000000 
#    z 0.000000 0.000000 1.760280 
# 
# From -- ./inp_files/22254.got.cif
#   From: 2010.05.17/outbox.cif.g08.bks.cpg/sg20_12_cif.got.tgz:22254.got - 2010.06.03 22:52:26.
