data_PCOD9319223
_publ_section_title
;
Structure prediction by ZEFSAII (Michael W. Deem and Ramdas Pophale) SiO2 
 PCOD9319223
Probable space group: C 2 2 21
;
_chemical_formula_sum "Si O2"
_cell_formula_units_Z 48
_cell_length_a 4.959347
_cell_length_b 17.908659
_cell_length_c 20.842440
_cell_angle_alpha 90.000000
_cell_angle_beta 90.000000
_cell_angle_gamma 90.000000
_cell_volume 1851.126609
_symmetry_space_group_name_H-M "C 2 2 21"
_symmetry_group_IT_number 20
_symmetry_cell_setting 'orthorhombic'
loop_
_space_group_symop_operation_xyz
x,y,z
-x,-y,1/2+z
x,-y,-z
-x,y,1/2-z
1/2+x,1/2+y,z
1/2-x,1/2-y,1/2+z
1/2+x,1/2-y,-z
1/2-x,1/2+y,1/2-z
loop_
_atom_site_type_symbol
_atom_site_label
_atom_site_fract_x
_atom_site_fract_y
_atom_site_fract_z
Si Si1 0.048191 0.442356 0.622261
Si Si2 0.697093 0.729458 0.696760
Si Si3 0.374481 0.083289 0.663615
Si Si4 0.221275 0.192710 0.914811
Si Si5 0.438922 0.451865 0.446136
Si Si6 0.543364 0.331490 0.620207
O O1 0.171823 0.499720 0.569328
O O2 0.281228 0.381846 0.622226
O O3 0.009623 0.503991 0.678593
O O4 0.783173 0.391457 0.619596
O O5 0.500000 0.762919 0.750000
O O6 0.759640 0.642783 0.714037
O O7 0.523051 0.720873 0.630651
O O8 0.964216 0.776649 0.680421
O O9 0.583549 0.137049 0.625628
O O10 0.130145 0.058445 0.615855
O O11 0.122897 0.132958 0.967137
O O12 0.381812 0.267313 0.931692
O O13 0.586041 0.500000 0.500000
#
# Coordination Sequence:
#
# PCOD9319223 Si02
#       6
#     8   8   8   8   8   8
#     4  11  21  40  64  90 128 170 206 266 334 381
#     4  10  21  40  66  94 127 176 231 268 321 405
#     4   9  20  37  64  92 127 170 212 269 331 380
#     4   9  20  39  64  86 128 168 212 265 329 385
#     4  10  21  40  66  93 124 170 225 267 324 401
#     4  11  21  39  65  88 129 169 207 264 337 383
#
# _framework density 25.930153000000001
#
# number of rings (size 3 to 8) (size 9 to 14) (size 15 to 20)
#    0.000    2.000    3.333    0.000    0.000    5.333 
#    0.000    3.333    0.000    0.000    0.000    0.000 
#    0.000    0.000    0.000    0.000    0.000    0.000 
#
# Total GULP energy -133711.106766 kJ/mol
# GULP energy per Si atom -5571.296115 kJ/mol
# Density = 2.587113 g / cm^3
# Si number density = 25.930153 Si / 1000 Ang^3
#
#
#
# Elastic Constant Matrix: (Units=GPa)
#
#
# Indices 1 2 3 4 5 6 
#
# 1 174.7741 52.7219 21.4788 0.0000 0.0000 0.0000
# 2 52.7219 233.4215 29.5039 0.0000 0.0000 0.0000
# 3 21.4788 29.5039 58.8269 0.0000 0.0000 0.0000
# 4 0.0000 0.0000 0.0000 2.3315 0.0000 0.0000
# 5 0.0000 0.0000 0.0000 0.0000 25.6092 0.0000
# 6 0.0000 0.0000 0.0000 0.0000 0.0000 -3.4148
#
#
#
# Elastic Compliance Matrix: (Units=1/GPa)
#
#
# Indices 1 2 3 4 5 6 
#
# 1 0.006294 -0.001208 -0.001692 0.000000 0.000000 0.000000
# 2 -0.001208 0.004806 -0.001969 0.000000 0.000000 0.000000
# 3 -0.001692 -0.001969 0.018605 0.000000 0.000000 0.000000
# 4 0.000000 0.000000 0.000000 0.428914 0.000000 0.000000
# 5 0.000000 0.000000 0.000000 0.000000 0.039048 0.000000
# 6 0.000000 0.000000 0.000000 0.000000 0.000000 -0.292842
#
#
# Mechanical properties :
#
#
# Convention : Reuss Voigt Hill
#
# Bulk Modulus (GPa) = 50.08604 74.93685 62.51145
# Shear Modulus (GPa) = 22.60211 29.12637 25.86424
#
# Velocity S-wave (km/s) = 2.95558 3.35515 3.16168
# Velocity P-wave (km/s) = 5.56821 6.63111 6.12277
#
# Compressibility (1/GPa) = 0.01996564
#
# Stress axis : x y z
#
# Youngs Moduli (GPa) = 158.88252 208.08246 53.75012
#
# Poissons Ratio (x) = 0.25130 0.09096
# Poissons Ratio (y) = 0.19188 0.10585
# Poissons Ratio (z) = 0.26888 0.40978
#
# Static dielectric constant tensor:
#      x y z
#    x 2.208080 0.000000 0.000000 
#    y 0.000000 2.147430 0.000000 
#    z 0.000000 0.000000 2.757010 
# 
# From -- ./inp_files/28352.got.cif
#   From: 2010.05.17/outbox.cif.g08.bks.cpg/sg20_15_cif.got.tgz:28352.got - 2010.06.03 22:52:26.
