data_PCOD9319832
_publ_section_title
;
Structure prediction by ZEFSAII (Michael W. Deem and Ramdas Pophale) SiO2 
 PCOD9319832
Probable space group: C 2 2 21
;
_chemical_formula_sum "Si O2"
_cell_formula_units_Z 40
_cell_length_a 15.597852
_cell_length_b 7.676200
_cell_length_c 15.934662
_cell_angle_alpha 90.000000
_cell_angle_beta 90.000000
_cell_angle_gamma 90.000000
_cell_volume 1907.892640
_symmetry_space_group_name_H-M "C 2 2 21"
_symmetry_group_IT_number 20
_symmetry_cell_setting 'orthorhombic'
loop_
_space_group_symop_operation_xyz
x,y,z
-x,-y,1/2+z
x,-y,-z
-x,y,1/2-z
1/2+x,1/2+y,z
1/2-x,1/2-y,1/2+z
1/2+x,1/2-y,-z
1/2-x,1/2+y,1/2-z
loop_
_atom_site_type_symbol
_atom_site_label
_atom_site_fract_x
_atom_site_fract_y
_atom_site_fract_z
Si Si1 0.107616 0.621055 0.796199
Si Si2 0.558966 0.994545 0.626401
Si Si3 0.750115 0.864429 0.070505
Si Si4 0.500000 0.571930 0.250000
Si Si5 0.952800 0.107130 0.918105
Si Si6 0.701540 0.000000 0.500000
O O1 0.095688 0.479656 0.721806
O O2 0.194741 0.617928 0.845885
O O3 0.083723 0.803523 0.752458
O O4 0.028759 0.598766 0.861515
O O5 0.533867 0.814097 0.582507
O O6 0.636824 0.070775 0.572175
O O7 0.849517 0.908660 0.087620
O O8 0.747912 0.665127 0.036454
O O9 0.718919 0.000000 0.000000
O O10 0.503522 0.463354 0.334503
O O11 0.980846 0.000000 0.000000
#
# Coordination Sequence:
#
# PCOD9319832 Si02
#       6
#     8   8   8   4   8   4
#     4  10  23  39  63  97 118 171 207 267 318 388
#     4   9  21  40  67  82 130 162 216 251 330 374
#     4  10  24  42  63  93 131 162 214 260 329 374
#     4  10  22  40  64  92 126 160 224 258 314 392
#     4  10  22  40  65  94 125 172 212 266 322 389
#     4  10  22  44  62  90 124 176 200 264 316 384
#
# _framework density 20.965539
#
# number of rings (size 3 to 8) (size 9 to 14) (size 15 to 20)
#    0.000    2.400    0.000    1.200   18.200    3.200 
#    9.000    0.000    0.000    0.000    0.000    0.000 
#    0.000    0.000    0.000    0.000    0.000    0.000 
#
# Total GULP energy -111577.076428 kJ/mol
# GULP energy per Si atom -5578.853821 kJ/mol
# Density = 2.091782 g / cm^3
# Si number density = 20.965539 Si / 1000 Ang^3
#
#
#
# Elastic Constant Matrix: (Units=GPa)
#
#
# Indices 1 2 3 4 5 6 
#
# 1 21.3715 -5.6206 11.4921 0.0000 0.0000 0.0000
# 2 -5.6206 64.0009 22.1996 0.0000 0.0000 0.0000
# 3 11.4921 22.1996 92.6359 0.0000 0.0000 0.0000
# 4 0.0000 0.0000 0.0000 35.8607 0.0000 0.0000
# 5 0.0000 0.0000 0.0000 0.0000 38.1637 0.0000
# 6 0.0000 0.0000 0.0000 0.0000 0.0000 3.6580
#
#
#
# Elastic Compliance Matrix: (Units=1/GPa)
#
#
# Indices 1 2 3 4 5 6 
#
# 1 0.053331 0.007611 -0.008440 0.000000 0.000000 0.000000
# 2 0.007611 0.018128 -0.005288 0.000000 0.000000 0.000000
# 3 -0.008440 -0.005288 0.013109 0.000000 0.000000 0.000000
# 4 0.000000 0.000000 0.000000 0.027886 0.000000 0.000000
# 5 0.000000 0.000000 0.000000 0.000000 0.026203 0.000000
# 6 0.000000 0.000000 0.000000 0.000000 0.000000 0.273376
#
#
# Mechanical properties :
#
#
# Convention : Reuss Voigt Hill
#
# Bulk Modulus (GPa) = 13.82482 26.01671 19.92077
# Shear Modulus (GPa) = 11.15129 25.53231 18.34180
#
# Velocity S-wave (km/s) = 2.30877 3.49352 2.96100
# Velocity P-wave (km/s) = 3.70346 5.35809 4.60569
#
# Compressibility (1/GPa) = 0.07233367
#
# Stress axis : x y z
#
# Youngs Moduli (GPa) = 18.75069 55.16471 76.28163
#
# Poissons Ratio (x) = -0.41987 0.64382
# Poissons Ratio (y) = -0.14271 0.40340
# Poissons Ratio (z) = 0.15826 0.29173
#
# Static dielectric constant tensor:
#      x y z
#    x 1.731310 0.000000 0.000000 
#    y 0.000000 1.802560 0.000000 
#    z 0.000000 0.000000 1.815620 
# 
# From -- ./inp_files/21167.got.cif
#   From: 2010.05.17/outbox.cif.g08.bks.cpg/sg20_11_cif.got.tgz:21167.got - 2010.06.03 22:52:26.
