data_PCOD9319821
_publ_section_title
;
Structure prediction by ZEFSAII (Michael W. Deem and Ramdas Pophale) SiO2 
 PCOD9319821
Probable space group: C 2 2 21
;
_chemical_formula_sum "Si O2"
_cell_formula_units_Z 56
_cell_length_a 15.082764
_cell_length_b 23.006191
_cell_length_c 8.995095
_cell_angle_alpha 90.000000
_cell_angle_beta 90.000000
_cell_angle_gamma 90.000000
_cell_volume 3121.270524
_symmetry_space_group_name_H-M "C 2 2 21"
_symmetry_group_IT_number 20
_symmetry_cell_setting 'orthorhombic'
loop_
_space_group_symop_operation_xyz
x,y,z
-x,-y,1/2+z
x,-y,-z
-x,y,1/2-z
1/2+x,1/2+y,z
1/2-x,1/2-y,1/2+z
1/2+x,1/2-y,-z
1/2-x,1/2+y,1/2-z
loop_
_atom_site_type_symbol
_atom_site_label
_atom_site_fract_x
_atom_site_fract_y
_atom_site_fract_z
Si Si1 0.408333 0.474393 0.161847
Si Si2 0.800697 0.146033 0.838448
Si Si3 0.095244 0.265741 0.672739
Si Si4 0.237542 0.536833 0.286539
Si Si5 0.313037 0.916156 0.100242
Si Si6 0.661245 0.860227 0.900478
Si Si7 0.979374 0.341350 0.078619
O O1 0.500000 0.470919 0.250000
O O2 0.363170 0.410844 0.148651
O O3 0.335909 0.517114 0.238498
O O4 0.425734 0.500000 0.000000
O O5 0.855514 0.204763 0.822908
O O6 0.738810 0.131754 0.696400
O O7 0.738222 0.153108 0.981871
O O8 0.149780 0.313899 0.766815
O O9 0.071997 0.290333 0.509517
O O10 0.000000 0.259415 0.750000
O O11 0.235520 0.569191 0.445500
O O12 0.187063 0.475893 0.307614
O O13 0.188039 0.578061 0.170192
O O14 0.411867 0.894998 0.072500
O O15 0.568804 0.857490 0.990267
O O16 0.000000 0.327242 0.250000
#
# Coordination Sequence:
#
# PCOD9319821 Si02
#       7
#     8   8   8   8   8   8   8
#     4  11  24  41  65  93 129 161 208 264 316 369
#     4  11  23  41  66  90 121 169 209 254 314 373
#     4  10  24  42  62  90 126 164 212 258 307 369
#     4  10  22  43  60  95 124 162 207 251 312 376
#     4  10  22  40  63  90 127 162 204 254 307 377
#     4  11  22  39  65  88 127 163 205 261 304 371
#     4  11  22  42  59  92 129 162 205 258 312 362
#
# _framework density 17.941410999999999
#
# number of rings (size 3 to 8) (size 9 to 14) (size 15 to 20)
#    0.000    1.429    4.286    0.429    6.000    0.000 
#    5.143    2.143    0.000    0.000    0.000    0.000 
#    0.000    0.000    0.000    0.000    0.000    0.000 
#
# Total GULP energy -156295.506682 kJ/mol
# GULP energy per Si atom -5581.982382 kJ/mol
# Density = 1.790058 g / cm^3
# Si number density = 17.941411 Si / 1000 Ang^3
#
#
#
# Elastic Constant Matrix: (Units=GPa)
#
#
# Indices 1 2 3 4 5 6 
#
# 1 96.9504 75.7149 60.6651 0.0000 0.0000 0.0000
# 2 75.7149 107.9277 57.1773 0.0000 0.0000 0.0000
# 3 60.6651 57.1773 110.9161 0.0000 0.0000 0.0000
# 4 0.0000 0.0000 0.0000 18.9786 0.0000 0.0000
# 5 0.0000 0.0000 0.0000 0.0000 26.4392 0.0000
# 6 0.0000 0.0000 0.0000 0.0000 0.0000 16.0767
#
#
#
# Elastic Compliance Matrix: (Units=1/GPa)
#
#
# Indices 1 2 3 4 5 6 
#
# 1 0.025911 -0.014678 -0.006605 0.000000 0.000000 0.000000
# 2 -0.014678 0.021061 -0.002829 0.000000 0.000000 0.000000
# 3 -0.006605 -0.002829 0.014087 0.000000 0.000000 0.000000
# 4 0.000000 0.000000 0.000000 0.052691 0.000000 0.000000
# 5 0.000000 0.000000 0.000000 0.000000 0.037823 0.000000
# 6 0.000000 0.000000 0.000000 0.000000 0.000000 0.062202
#
#
# Mechanical properties :
#
#
# Convention : Reuss Voigt Hill
#
# Bulk Modulus (GPa) = 77.91571 78.10097 78.00834
# Shear Modulus (GPa) = 18.77747 20.44803 19.61275
#
# Velocity S-wave (km/s) = 3.23863 3.37962 3.30988
# Velocity P-wave (km/s) = 7.58334 7.67169 7.62764
#
# Compressibility (1/GPa) = 0.01283438
#
# Stress axis : x y z
#
# Youngs Moduli (GPa) = 38.59431 47.48056 70.98782
#
# Poissons Ratio (x) = 0.69691 0.46889
# Poissons Ratio (y) = 0.56648 0.20083
# Poissons Ratio (z) = 0.25492 0.13433
#
# Static dielectric constant tensor:
#      x y z
#    x 1.599100 0.000000 0.000000 
#    y 0.000000 1.588380 0.000000 
#    z 0.000000 0.000000 1.668770 
# 
# From -- ./inp_files/8709.got.cif
#   From: 2010.05.17/outbox.cif.g08.bks.cpg/sg20_5_cif.got.tgz:8709.got - 2010.06.03 22:52:26.
