data_PCOD9319556
_publ_section_title
;
Structure prediction by ZEFSAII (Michael W. Deem and Ramdas Pophale) SiO2 
 PCOD9319556
Probable space group: C 2 2 21
;
_chemical_formula_sum "Si O2"
_cell_formula_units_Z 28
_cell_length_a 7.005804
_cell_length_b 13.502633
_cell_length_c 12.798078
_cell_angle_alpha 90.000000
_cell_angle_beta 90.000000
_cell_angle_gamma 90.000000
_cell_volume 1210.657229
_symmetry_space_group_name_H-M "C 2 2 21"
_symmetry_group_IT_number 20
_symmetry_cell_setting 'orthorhombic'
loop_
_space_group_symop_operation_xyz
x,y,z
-x,-y,1/2+z
x,-y,-z
-x,y,1/2-z
1/2+x,1/2+y,z
1/2-x,1/2-y,1/2+z
1/2+x,1/2-y,-z
1/2-x,1/2+y,1/2-z
loop_
_atom_site_type_symbol
_atom_site_label
_atom_site_fract_x
_atom_site_fract_y
_atom_site_fract_z
Si Si1 0.316994 0.690768 0.602007
Si Si2 0.624580 0.145391 0.395479
Si Si3 0.768232 0.106123 0.161717
Si Si4 0.000000 0.052589 0.750000
O O1 0.524177 0.745373 0.602970
O O2 0.256834 0.638515 0.495658
O O3 0.177513 0.785008 0.620182
O O4 0.332621 0.616655 0.698371
O O5 0.722634 0.126105 0.284585
O O6 0.431646 0.079841 0.394057
O O7 0.914250 0.017402 0.160170
#
# Coordination Sequence:
#
# PCOD9319556 Si02
#       4
#     8   8   8   4
#     4  10  21  45  70  98 135 184 224 282 342 403
#     4   9  20  44  67  98 143 170 230 283 340 393
#     4   9  22  42  67 104 136 172 231 284 324 421
#     4  12  22  42  78  94 142 182 224 278 358 388
#
# _framework density 23.127935000000001
#
# number of rings (size 3 to 8) (size 9 to 14) (size 15 to 20)
#    1.714    0.571    2.857    0.000    4.000    1.143 
#    0.000   11.429    0.000    0.000    0.000    0.000 
#    0.000    0.000    0.000    0.000    0.000    0.000 
#
# Total GULP energy -77981.220575 kJ/mol
# GULP energy per Si atom -5570.087184 kJ/mol
# Density = 2.307529 g / cm^3
# Si number density = 23.127935 Si / 1000 Ang^3
#
#
#
# Elastic Constant Matrix: (Units=GPa)
#
#
# Indices 1 2 3 4 5 6 
#
# 1 27.8581 9.1095 8.4500 0.0000 0.0000 0.0000
# 2 9.1095 58.7546 14.5808 0.0000 0.0000 0.0000
# 3 8.4500 14.5808 74.7670 0.0000 0.0000 0.0000
# 4 0.0000 0.0000 0.0000 19.0591 0.0000 0.0000
# 5 0.0000 0.0000 0.0000 0.0000 43.4179 0.0000
# 6 0.0000 0.0000 0.0000 0.0000 0.0000 20.6731
#
#
#
# Elastic Compliance Matrix: (Units=1/GPa)
#
#
# Indices 1 2 3 4 5 6 
#
# 1 0.038599 -0.005151 -0.003358 0.000000 0.000000 0.000000
# 2 -0.005151 0.018573 -0.003040 0.000000 0.000000 0.000000
# 3 -0.003358 -0.003040 0.014347 0.000000 0.000000 0.000000
# 4 0.000000 0.000000 0.000000 0.052468 0.000000 0.000000
# 5 0.000000 0.000000 0.000000 0.000000 0.023032 0.000000
# 6 0.000000 0.000000 0.000000 0.000000 0.000000 0.048372
#
#
# Mechanical properties :
#
#
# Convention : Reuss Voigt Hill
#
# Bulk Modulus (GPa) = 20.65198 25.07336 22.86267
# Shear Modulus (GPa) = 21.31014 25.24597 23.27806
#
# Velocity S-wave (km/s) = 3.03875 3.30749 3.17597
# Velocity P-wave (km/s) = 4.61095 5.04487 4.83278
#
# Compressibility (1/GPa) = 0.04842151
#
# Stress axis : x y z
#
# Youngs Moduli (GPa) = 25.90733 53.84160 69.70001
#
# Poissons Ratio (x) = 0.27735 0.23404
# Poissons Ratio (y) = 0.13345 0.21188
# Poissons Ratio (z) = 0.08699 0.16367
#
# Static dielectric constant tensor:
#      x y z
#    x 1.892190 0.000000 0.000000 
#    y 0.000000 1.933510 0.000000 
#    z 0.000000 0.000000 1.841030 
# 
# From -- ./inp_files/18122.got.cif
#   From: 2010.05.17/outbox.cif.g08.bks.cpg/sg20_10_cif.got.tgz:18122.got - 2010.06.03 22:52:26.
