data_PCOD9319221
_publ_section_title
;
Structure prediction by ZEFSAII (Michael W. Deem and Ramdas Pophale) SiO2 
 PCOD9319221
Probable space group: C 2 2 21
;
_chemical_formula_sum "Si O2"
_cell_formula_units_Z 36
_cell_length_a 21.759882
_cell_length_b 7.444559
_cell_length_c 9.868485
_cell_angle_alpha 90.000000
_cell_angle_beta 90.000000
_cell_angle_gamma 90.000000
_cell_volume 1598.622781
_symmetry_space_group_name_H-M "C 2 2 21"
_symmetry_group_IT_number 20
_symmetry_cell_setting 'orthorhombic'
loop_
_space_group_symop_operation_xyz
x,y,z
-x,-y,1/2+z
x,-y,-z
-x,y,1/2-z
1/2+x,1/2+y,z
1/2-x,1/2-y,1/2+z
1/2+x,1/2-y,-z
1/2-x,1/2+y,1/2-z
loop_
_atom_site_type_symbol
_atom_site_label
_atom_site_fract_x
_atom_site_fract_y
_atom_site_fract_z
Si Si1 0.906143 0.217314 0.842220
Si Si2 0.310037 0.993346 0.216564
Si Si3 0.121469 0.500000 0.000000
Si Si4 0.466021 0.297004 0.453718
Si Si5 0.810780 0.081348 0.145159
O O1 0.850684 0.358057 0.860288
O O2 0.938485 0.235515 0.696238
O O3 0.875076 0.021784 0.838542
O O4 0.961209 0.239749 0.948654
O O5 0.237520 0.030592 0.235984
O O6 0.317525 0.794834 0.156954
O O7 0.336260 0.017598 0.368761
O O8 0.075336 0.338203 0.038680
O O9 0.456873 0.500000 0.500000
O O10 0.789024 0.000000 0.000000
#
# Coordination Sequence:
#
# PCOD9319221 Si02
#       5
#     8   8   4   8   8
#     4  10  23  41  62  97 130 169 223 277 341 411
#     4  11  23  42  64  97 133 175 230 280 345 416
#     4  10  22  42  68  92 126 174 222 278 342 404
#     4  10  21  40  66  91 127 170 219 275 336 408
#     4  12  24  41  65  96 136 174 223 282 342 411
#
# _framework density 22.519383999999999
#
# number of rings (size 3 to 8) (size 9 to 14) (size 15 to 20)
#    0.000    1.333    3.333    2.000    0.000    4.444 
#    0.000    6.667    0.000    0.000    0.000    0.000 
#    0.000    0.000    0.000    0.000    0.000    0.000 
#
# Total GULP energy -100505.387392 kJ/mol
# GULP energy per Si atom -5583.632633 kJ/mol
# Density = 2.246813 g / cm^3
# Si number density = 22.519384 Si / 1000 Ang^3
#
#
#
# Elastic Constant Matrix: (Units=GPa)
#
#
# Indices 1 2 3 4 5 6 
#
# 1 95.7358 -2.2465 9.4663 0.0000 0.0000 0.0000
# 2 -2.2465 103.4653 8.1275 0.0000 0.0000 0.0000
# 3 9.4663 8.1275 37.3776 0.0000 0.0000 0.0000
# 4 0.0000 0.0000 0.0000 23.9116 0.0000 0.0000
# 5 0.0000 0.0000 0.0000 0.0000 217.9850 0.0000
# 6 0.0000 0.0000 0.0000 0.0000 0.0000 -32.0305
#
#
#
# Elastic Compliance Matrix: (Units=1/GPa)
#
#
# Indices 1 2 3 4 5 6 
#
# 1 0.010735 0.000454 -0.002817 0.000000 0.000000 0.000000
# 2 0.000454 0.009852 -0.002257 0.000000 0.000000 0.000000
# 3 -0.002817 -0.002257 0.027958 0.000000 0.000000 0.000000
# 4 0.000000 0.000000 0.000000 0.041821 0.000000 0.000000
# 5 0.000000 0.000000 0.000000 0.000000 0.004587 0.000000
# 6 0.000000 0.000000 0.000000 0.000000 0.000000 -0.031220
#
#
# Mechanical properties :
#
#
# Convention : Reuss Voigt Hill
#
# Bulk Modulus (GPa) = 25.44245 29.69703 27.56974
# Shear Modulus (GPa) = 58.08849 56.72200 57.40524
#
# Velocity S-wave (km/s) = 5.08438 5.02422 5.05439
# Velocity P-wave (km/s) = 6.76686 6.84638 6.80674
#
# Compressibility (1/GPa) = 0.03930439
#
# Stress axis : x y z
#
# Youngs Moduli (GPa) = 93.15614 101.49954 35.76746
#
# Poissons Ratio (x) = -0.04612 0.10077
# Poissons Ratio (y) = -0.04233 0.08074
# Poissons Ratio (z) = 0.26247 0.22912
#
# Static dielectric constant tensor:
#      x y z
#    x 1.844800 0.000000 0.000000 
#    y 0.000000 1.781940 0.000000 
#    z 0.000000 0.000000 1.954990 
# 
# From -- ./inp_files/16536.got.cif
#   From: 2010.05.17/outbox.cif.g08.bks.cpg/sg20_9_cif.got.tgz:16536.got - 2010.06.03 22:52:26.
