data_PCOD9319781
_publ_section_title
;
Structure prediction by ZEFSAII (Michael W. Deem and Ramdas Pophale) SiO2 
 PCOD9319781
Probable space group: C 2 2 21
;
_chemical_formula_sum "Si O2"
_cell_formula_units_Z 48
_cell_length_a 8.084865
_cell_length_b 22.766869
_cell_length_c 11.729883
_cell_angle_alpha 90.000000
_cell_angle_beta 90.000000
_cell_angle_gamma 90.000000
_cell_volume 2159.085105
_symmetry_space_group_name_H-M "C 2 2 21"
_symmetry_group_IT_number 20
_symmetry_cell_setting 'orthorhombic'
loop_
_space_group_symop_operation_xyz
x,y,z
-x,-y,1/2+z
x,-y,-z
-x,y,1/2-z
1/2+x,1/2+y,z
1/2-x,1/2-y,1/2+z
1/2+x,1/2-y,-z
1/2-x,1/2+y,1/2-z
loop_
_atom_site_type_symbol
_atom_site_label
_atom_site_fract_x
_atom_site_fract_y
_atom_site_fract_z
Si Si1 0.500000 0.286998 0.750000
Si Si2 0.762824 0.105776 0.202053
Si Si3 0.528790 0.679177 0.884695
Si Si4 0.680982 0.555828 0.924565
Si Si5 0.136818 0.735983 0.536015
Si Si6 0.563508 0.110785 0.432931
Si Si7 0.000000 0.989345 0.750000
O O1 0.651525 0.331478 0.725562
O O2 0.504460 0.247439 0.637323
O O3 0.675474 0.092189 0.323929
O O4 0.623602 0.105148 0.106486
O O5 0.900243 0.057384 0.173413
O O6 0.500000 0.674892 0.750000
O O7 0.577467 0.615910 0.936425
O O8 0.686209 0.721737 0.907992
O O9 0.378286 0.708256 0.953145
O O10 0.639821 0.531694 0.800342
O O11 0.631163 0.500000 0.000000
O O12 0.866217 0.573359 0.961299
O O13 0.094975 0.678468 0.463058
#
# Coordination Sequence:
#
# PCOD9319781 Si02
#       7
#     4   8   8   8   8   8   4
#     4  11  22  40  64 102 142 182 247 292 348 452
#     4  10  22  39  71 102 134 186 241 287 357 445
#     4  11  26  45  71 104 146 188 242 302 363 432
#     4  11  22  45  74 102 145 184 242 303 360 435
#     4  11  25  40  69 102 141 192 233 300 366 426
#     4  10  22  43  69  99 139 183 236 300 358 429
#     4  11  22  42  74 102 136 192 239 294 364 424
#
# _framework density 22.231638
#
# number of rings (size 3 to 8) (size 9 to 14) (size 15 to 20)
#    0.000    1.333    2.500    3.000    9.333    0.000 
#    0.000    0.833   18.333    0.000    0.000    0.000 
#    0.000    0.000    0.000    0.000    0.000    0.000 
#
# Total GULP energy -133992.099460 kJ/mol
# GULP energy per Si atom -5583.004144 kJ/mol
# Density = 2.218104 g / cm^3
# Si number density = 22.231638 Si / 1000 Ang^3
#
#
#
# Elastic Constant Matrix: (Units=GPa)
#
#
# Indices 1 2 3 4 5 6 
#
# 1 119.9467 48.4557 40.0268 0.0000 0.0000 0.0000
# 2 48.4557 129.8596 30.8258 0.0000 0.0000 0.0000
# 3 40.0268 30.8258 84.0398 0.0000 0.0000 0.0000
# 4 0.0000 0.0000 0.0000 37.1984 0.0000 0.0000
# 5 0.0000 0.0000 0.0000 0.0000 47.9447 0.0000
# 6 0.0000 0.0000 0.0000 0.0000 0.0000 26.0299
#
#
#
# Elastic Compliance Matrix: (Units=1/GPa)
#
#
# Indices 1 2 3 4 5 6 
#
# 1 0.010958 -0.003122 -0.004074 0.000000 0.000000 0.000000
# 2 -0.003122 0.009324 -0.001933 0.000000 0.000000 0.000000
# 3 -0.004074 -0.001933 0.014549 0.000000 0.000000 0.000000
# 4 0.000000 0.000000 0.000000 0.026883 0.000000 0.000000
# 5 0.000000 0.000000 0.000000 0.000000 0.020857 0.000000
# 6 0.000000 0.000000 0.000000 0.000000 0.000000 0.038417
#
#
# Mechanical properties :
#
#
# Convention : Reuss Voigt Hill
#
# Bulk Modulus (GPa) = 60.34017 63.60697 61.97357
# Shear Modulus (GPa) = 34.53746 36.53712 35.53729
#
# Velocity S-wave (km/s) = 3.94576 4.05838 4.00246
# Velocity P-wave (km/s) = 6.92526 7.11574 7.02114
#
# Compressibility (1/GPa) = 0.01657271
#
# Stress axis : x y z
#
# Youngs Moduli (GPa) = 91.26089 107.24572 68.73503
#
# Poissons Ratio (x) = 0.33478 0.28002
# Poissons Ratio (y) = 0.28489 0.13289
# Poissons Ratio (z) = 0.37179 0.20735
#
# Static dielectric constant tensor:
#      x y z
#    x 1.844460 0.000000 0.000000 
#    y 0.000000 1.805300 0.000000 
#    z 0.000000 0.000000 1.882950 
# 
# From -- ./inp_files/13140.got.cif
#   From: 2010.05.17/outbox.cif.g08.bks.cpg/sg20_7_cif.got.tgz:13140.got - 2010.06.03 22:52:26.
