data_PCOD9319000
_publ_section_title
;
Structure prediction by ZEFSAII (Michael W. Deem and Ramdas Pophale) SiO2 
 PCOD9319000
Probable space group: C 2 2 21
;
_chemical_formula_sum "Si O2"
_cell_formula_units_Z 56
_cell_length_a 11.728425
_cell_length_b 12.017722
_cell_length_c 19.142829
_cell_angle_alpha 90.000000
_cell_angle_beta 90.000000
_cell_angle_gamma 90.000000
_cell_volume 2698.161670
_symmetry_space_group_name_H-M "C 2 2 21"
_symmetry_group_IT_number 20
_symmetry_cell_setting 'orthorhombic'
loop_
_space_group_symop_operation_xyz
x,y,z
-x,-y,1/2+z
x,-y,-z
-x,y,1/2-z
1/2+x,1/2+y,z
1/2-x,1/2-y,1/2+z
1/2+x,1/2-y,-z
1/2-x,1/2+y,1/2-z
loop_
_atom_site_type_symbol
_atom_site_label
_atom_site_fract_x
_atom_site_fract_y
_atom_site_fract_z
Si Si1 0.949128 0.500000 0.000000
Si Si2 0.762872 0.973627 0.805560
Si Si3 0.965199 0.573366 0.643929
Si Si4 0.452955 0.675651 0.378541
Si Si5 0.798947 0.697581 0.063310
Si Si6 0.000000 0.985408 0.750000
Si Si7 0.899878 0.640810 0.201851
Si Si8 0.666307 0.388608 0.543763
O O1 0.865632 0.403191 0.973452
O O2 0.028147 0.544043 0.937845
O O3 0.877542 0.032741 0.776657
O O4 0.710416 0.888490 0.748400
O O5 0.784854 0.907816 0.878275
O O6 0.659586 0.056038 0.823920
O O7 0.992655 0.703162 0.649259
O O8 0.049618 0.480543 0.676953
O O9 0.325642 0.673932 0.407079
O O10 0.466071 0.589708 0.315975
O O11 0.535409 0.642028 0.441584
O O12 0.872805 0.714731 0.134222
O O13 0.785863 0.792706 0.005714
O O14 0.000000 0.689711 0.250000
O O15 0.677269 0.500000 0.500000
#
# Coordination Sequence:
#
# PCOD9319000 Si02
#       8
#     4   8   8   8   8   4   8   8
#     4  10  22  40  62 102 126 166 230 282 328 390
#     4  10  21  40  64  93 134 174 221 272 329 402
#     4  10  21  38  68  96 124 173 224 278 332 388
#     4  11  23  39  67  91 130 173 220 274 335 407
#     4  11  22  41  68  94 136 174 222 278 342 390
#     4  10  22  40  58  90 132 174 216 268 334 412
#     4   9  20  39  67  97 131 166 226 285 327 392
#     4  11  25  42  62  96 134 178 220 270 338 408
#
# _framework density 20.754871000000001
#
# number of rings (size 3 to 8) (size 9 to 14) (size 15 to 20)
#    0.000    1.714    2.857    0.857    7.000    1.143 
#    0.000    0.000   14.143    0.000    0.000    0.000 
#    0.000    0.000    0.000    0.000    0.000    0.000 
#
# Total GULP energy -156215.762057 kJ/mol
# GULP energy per Si atom -5579.134359 kJ/mol
# Density = 2.070763 g / cm^3
# Si number density = 20.754871 Si / 1000 Ang^3
#
#
#
# Elastic Constant Matrix: (Units=GPa)
#
#
# Indices 1 2 3 4 5 6 
#
# 1 91.5697 -2.9909 30.3401 0.0000 0.0000 0.0000
# 2 -2.9909 36.8389 6.2311 0.0000 0.0000 0.0000
# 3 30.3401 6.2311 111.6687 0.0000 0.0000 0.0000
# 4 0.0000 0.0000 0.0000 12.4038 0.0000 0.0000
# 5 0.0000 0.0000 0.0000 0.0000 40.3162 0.0000
# 6 0.0000 0.0000 0.0000 0.0000 0.0000 3.2040
#
#
#
# Elastic Compliance Matrix: (Units=1/GPa)
#
#
# Indices 1 2 3 4 5 6 
#
# 1 0.012088 0.001552 -0.003371 0.000000 0.000000 0.000000
# 2 0.001552 0.027603 -0.001962 0.000000 0.000000 0.000000
# 3 -0.003371 -0.001962 0.009980 0.000000 0.000000 0.000000
# 4 0.000000 0.000000 0.000000 0.080620 0.000000 0.000000
# 5 0.000000 0.000000 0.000000 0.000000 0.024804 0.000000
# 6 0.000000 0.000000 0.000000 0.000000 0.000000 0.312111
#
#
# Mechanical properties :
#
#
# Convention : Reuss Voigt Hill
#
# Bulk Modulus (GPa) = 23.74769 34.13755 28.94262
# Shear Modulus (GPa) = 10.22903 24.95128 17.59015
#
# Velocity S-wave (km/s) = 2.22243 3.47102 2.91438
# Velocity P-wave (km/s) = 4.24881 5.70506 5.02991
#
# Compressibility (1/GPa) = 0.04210936
#
# Stress axis : x y z
#
# Youngs Moduli (GPa) = 82.72518 36.22795 100.19635
#
# Poissons Ratio (x) = -0.05621 0.33775
# Poissons Ratio (y) = -0.12836 0.19656
# Poissons Ratio (z) = 0.27886 0.07107
#
# Static dielectric constant tensor:
#      x y z
#    x 1.762040 0.000000 0.000000 
#    y 0.000000 1.766470 0.000000 
#    z 0.000000 0.000000 1.743350 
# 
# From -- ./inp_files/27226.got.cif
#   From: 2010.05.17/outbox.cif.g08.bks.cpg/sg20_14_cif.got.tgz:27226.got - 2010.06.03 22:52:26.
