data_PCOD9319486
_publ_section_title
;
Structure prediction by ZEFSAII (Michael W. Deem and Ramdas Pophale) SiO2 
 PCOD9319486
Probable space group: C 2 2 21
;
_chemical_formula_sum "Si O2"
_cell_formula_units_Z 36
_cell_length_a 8.100794
_cell_length_b 21.544447
_cell_length_c 8.331389
_cell_angle_alpha 90.000000
_cell_angle_beta 90.000000
_cell_angle_gamma 90.000000
_cell_volume 1454.053386
_symmetry_space_group_name_H-M "C 2 2 21"
_symmetry_group_IT_number 20
_symmetry_cell_setting 'orthorhombic'
loop_
_space_group_symop_operation_xyz
x,y,z
-x,-y,1/2+z
x,-y,-z
-x,y,1/2-z
1/2+x,1/2+y,z
1/2-x,1/2-y,1/2+z
1/2+x,1/2-y,-z
1/2-x,1/2+y,1/2-z
loop_
_atom_site_type_symbol
_atom_site_label
_atom_site_fract_x
_atom_site_fract_y
_atom_site_fract_z
Si Si1 0.500000 0.631814 0.250000
Si Si2 0.956460 0.676797 0.086172
Si Si3 0.817279 0.394256 0.189827
Si Si4 0.323649 0.509954 0.192296
Si Si5 0.173821 0.189257 0.550282
O O1 0.348951 0.581576 0.239278
O O2 0.545914 0.672044 0.406954
O O3 0.872279 0.743285 0.115338
O O4 0.000000 0.642920 0.250000
O O5 0.828409 0.637327 0.981691
O O6 0.137765 0.690025 0.013137
O O7 0.799572 0.467896 0.206686
O O8 0.686706 0.361115 0.307306
O O9 0.000000 0.378836 0.250000
O O10 0.500000 0.483179 0.250000
O O11 0.300014 0.500000 0.000000
#
# Coordination Sequence:
#
# PCOD9319486 Si02
#       5
#     4   8   8   8   8
#     4  10  24  42  78 102 154 188 262 306 364 466
#     4  11  26  42  71 110 145 193 249 313 384 446
#     4  10  22  44  71 101 149 194 246 311 373 449
#     4  10  21  43  68 101 139 193 245 302 364 438
#     4  11  24  45  69 106 151 193 247 311 375 454
#
# _framework density 24.758375000000001
#
# number of rings (size 3 to 8) (size 9 to 14) (size 15 to 20)
#    0.667    0.889    2.222    1.333    7.778    4.444 
#    0.000    2.222    0.000    0.000    0.000    0.000 
#    0.000    0.000    0.000    0.000    0.000    0.000 
#
# Total GULP energy -100449.311556 kJ/mol
# GULP energy per Si atom -5580.517309 kJ/mol
# Density = 2.470202 g / cm^3
# Si number density = 24.758375 Si / 1000 Ang^3
#
#
#
# Elastic Constant Matrix: (Units=GPa)
#
#
# Indices 1 2 3 4 5 6 
#
# 1 86.3755 -4.6717 32.4402 0.0000 0.0000 0.0000
# 2 -4.6717 62.8765 34.6887 0.0000 0.0000 0.0000
# 3 32.4402 34.6887 94.9401 0.0000 0.0000 0.0000
# 4 0.0000 0.0000 0.0000 20.4972 0.0000 0.0000
# 5 0.0000 0.0000 0.0000 0.0000 46.8909 0.0000
# 6 0.0000 0.0000 0.0000 0.0000 0.0000 36.9529
#
#
#
# Elastic Compliance Matrix: (Units=1/GPa)
#
#
# Indices 1 2 3 4 5 6 
#
# 1 0.014316 0.004712 -0.006613 0.000000 0.000000 0.000000
# 2 0.004712 0.021471 -0.009455 0.000000 0.000000 0.000000
# 3 -0.006613 -0.009455 0.016247 0.000000 0.000000 0.000000
# 4 0.000000 0.000000 0.000000 0.048787 0.000000 0.000000
# 5 0.000000 0.000000 0.000000 0.000000 0.021326 0.000000
# 6 0.000000 0.000000 0.000000 0.000000 0.000000 0.027061
#
#
# Mechanical properties :
#
#
# Convention : Reuss Voigt Hill
#
# Bulk Modulus (GPa) = 34.10442 41.01185 37.55814
# Shear Modulus (GPa) = 27.51872 32.98389 30.25130
#
# Velocity S-wave (km/s) = 3.33752 3.65393 3.49931
# Velocity P-wave (km/s) = 5.35321 5.86536 5.61513
#
# Compressibility (1/GPa) = 0.02932171
#
# Stress axis : x y z
#
# Youngs Moduli (GPa) = 69.85183 46.57540 61.54876
#
# Poissons Ratio (x) = -0.21947 0.40705
# Poissons Ratio (y) = -0.32916 0.58194
# Poissons Ratio (z) = 0.46196 0.44037
#
# Static dielectric constant tensor:
#      x y z
#    x 1.870690 0.000000 0.000000 
#    y 0.000000 1.888090 0.000000 
#    z 0.000000 0.000000 2.116770 
# 
# From -- ./inp_files/5921.got.cif
#   From: 2010.05.17/outbox.cif.g08.bks.cpg/sg20_3_cif.got.tgz:5921.got - 2010.06.03 22:52:26.
