data_PCOD9319132
_publ_section_title
;
Structure prediction by ZEFSAII (Michael W. Deem and Ramdas Pophale) SiO2 
 PCOD9319132
Probable space group: C 2 2 21
;
_chemical_formula_sum "Si O2"
_cell_formula_units_Z 64
_cell_length_a 5.738479
_cell_length_b 28.125394
_cell_length_c 19.978506
_cell_angle_alpha 90.000000
_cell_angle_beta 90.000000
_cell_angle_gamma 90.000000
_cell_volume 3224.470590
_symmetry_space_group_name_H-M "C 2 2 21"
_symmetry_group_IT_number 20
_symmetry_cell_setting 'orthorhombic'
loop_
_space_group_symop_operation_xyz
x,y,z
-x,-y,1/2+z
x,-y,-z
-x,y,1/2-z
1/2+x,1/2+y,z
1/2-x,1/2-y,1/2+z
1/2+x,1/2-y,-z
1/2-x,1/2+y,1/2-z
loop_
_atom_site_type_symbol
_atom_site_label
_atom_site_fract_x
_atom_site_fract_y
_atom_site_fract_z
Si Si1 0.260163 0.555537 0.784944
Si Si2 0.038690 0.548456 0.461549
Si Si3 0.672012 0.952866 0.814460
Si Si4 0.662712 0.707603 0.415414
Si Si5 0.651177 0.368450 0.987780
Si Si6 0.457901 0.799406 0.457000
Si Si7 0.752723 0.846727 0.787104
Si Si8 0.231560 0.103666 0.573282
O O1 0.500000 0.574260 0.750000
O O2 0.315718 0.500315 0.800724
O O3 0.228684 0.581164 0.855636
O O4 0.000000 0.558399 0.750000
O O5 0.112308 0.500000 0.500000
O O6 0.228057 0.589390 0.447492
O O7 0.934070 0.538490 0.388455
O O8 0.867307 0.575456 0.514240
O O9 0.500000 0.951281 0.750000
O O10 0.784489 0.900755 0.814135
O O11 0.524505 0.661530 0.442540
O O12 0.507519 0.754723 0.410248
O O13 0.842047 0.719447 0.474724
O O14 0.773670 0.690724 0.347086
O O15 0.533599 0.395811 0.049532
O O16 0.819715 0.329141 0.018788
O O17 0.300614 0.840791 0.425914
O O18 0.500000 0.845823 0.750000
O O19 0.000000 0.835768 0.750000
#
# Coordination Sequence:
#
# PCOD9319132 Si02
#       8
#     8   8   8   8   8   8   8   8
#     4  11  25  44  71  96 134 185 236 278 338 414
#     4  11  22  41  64 101 142 172 228 284 347 408
#     4  10  22  42  65  99 137 185 227 275 341 423
#     4  11  22  41  68  98 130 171 231 279 351 410
#     4  10  22  37  67  98 127 174 216 287 342 409
#     4  10  21  39  69  96 125 167 222 286 344 406
#     4  11  26  43  66  97 140 182 223 278 338 418
#     4  10  23  42  62  97 135 174 229 281 348 396
#
# _framework density 19.848220999999999
#
# number of rings (size 3 to 8) (size 9 to 14) (size 15 to 20)
#    0.000    1.500    2.500    2.625    8.750    0.500 
#    6.750    0.625    0.000    0.000    0.000    0.000 
#    0.000    0.000    0.000    0.000    0.000    0.000 
#
# Total GULP energy -178271.519806 kJ/mol
# GULP energy per Si atom -5570.984994 kJ/mol
# Density = 1.980305 g / cm^3
# Si number density = 19.848221 Si / 1000 Ang^3
#
#
#
# Elastic Constant Matrix: (Units=GPa)
#
#
# Indices 1 2 3 4 5 6 
#
# 1 64.9297 7.7820 26.1824 0.0000 0.0000 0.0000
# 2 7.7820 92.6724 35.8925 0.0000 0.0000 0.0000
# 3 26.1824 35.8925 105.5759 0.0000 0.0000 0.0000
# 4 0.0000 0.0000 0.0000 24.9876 0.0000 0.0000
# 5 0.0000 0.0000 0.0000 0.0000 21.3277 0.0000
# 6 0.0000 0.0000 0.0000 0.0000 0.0000 8.1092
#
#
#
# Elastic Compliance Matrix: (Units=1/GPa)
#
#
# Indices 1 2 3 4 5 6 
#
# 1 0.017117 0.000238 -0.004326 0.000000 0.000000 0.000000
# 2 0.000238 0.012430 -0.004285 0.000000 0.000000 0.000000
# 3 -0.004326 -0.004285 0.012001 0.000000 0.000000 0.000000
# 4 0.000000 0.000000 0.000000 0.040020 0.000000 0.000000
# 5 0.000000 0.000000 0.000000 0.000000 0.046887 0.000000
# 6 0.000000 0.000000 0.000000 0.000000 0.000000 0.123317
#
#
# Mechanical properties :
#
#
# Convention : Reuss Voigt Hill
#
# Bulk Modulus (GPa) = 40.31733 44.76578 42.54156
# Shear Modulus (GPa) = 18.06446 23.77296 20.91871
#
# Velocity S-wave (km/s) = 3.02011 3.46459 3.24996
# Velocity P-wave (km/s) = 5.70248 6.21350 5.96347
#
# Compressibility (1/GPa) = 0.02480323
#
# Stress axis : x y z
#
# Youngs Moduli (GPa) = 58.42100 80.44864 83.32347
#
# Poissons Ratio (x) = -0.01915 0.36045
# Poissons Ratio (y) = -0.01391 0.35704
# Poissons Ratio (z) = 0.25272 0.34472
#
# Static dielectric constant tensor:
#      x y z
#    x 1.787000 0.000000 0.000000 
#    y 0.000000 1.690890 0.000000 
#    z 0.000000 0.000000 1.730520 
# 
# From -- ./inp_files/23016.got.cif
#   From: 2010.05.17/outbox.cif.g08.bks.cpg/sg20_12_cif.got.tgz:23016.got - 2010.06.03 22:52:26.
