data_PCOD9319327
_publ_section_title
;
Structure prediction by ZEFSAII (Michael W. Deem and Ramdas Pophale) SiO2 
 PCOD9319327
Probable space group: C 2 2 21
;
_chemical_formula_sum "Si O2"
_cell_formula_units_Z 40
_cell_length_a 7.708296
_cell_length_b 14.696845
_cell_length_c 13.871865
_cell_angle_alpha 90.000000
_cell_angle_beta 90.000000
_cell_angle_gamma 90.000000
_cell_volume 1571.510731
_symmetry_space_group_name_H-M "C 2 2 21"
_symmetry_group_IT_number 20
_symmetry_cell_setting 'orthorhombic'
loop_
_space_group_symop_operation_xyz
x,y,z
-x,-y,1/2+z
x,-y,-z
-x,y,1/2-z
1/2+x,1/2+y,z
1/2-x,1/2-y,1/2+z
1/2+x,1/2-y,-z
1/2-x,1/2+y,1/2-z
loop_
_atom_site_type_symbol
_atom_site_label
_atom_site_fract_x
_atom_site_fract_y
_atom_site_fract_z
Si Si1 0.411283 0.827208 0.412408
Si Si2 0.238217 0.524235 0.780564
Si Si3 0.200874 0.757376 0.082570
Si Si4 0.793653 0.174265 0.274285
Si Si5 0.935646 0.938296 0.409236
O O1 0.394752 0.911959 0.339385
O O2 0.610043 0.801478 0.429115
O O3 0.328451 0.832522 0.518138
O O4 0.308565 0.740757 0.365538
O O5 0.207034 0.424326 0.736054
O O6 0.391941 0.520731 0.860905
O O7 0.310595 0.569900 0.683534
O O8 0.195379 0.729778 0.192807
O O9 0.059628 0.834136 0.056791
O O10 0.000000 0.160882 0.250000
O O11 0.881215 0.000000 0.500000
#
# Coordination Sequence:
#
# PCOD9319327 Si02
#       5
#     8   8   8   8   8
#     4  11  24  43  70 100 138 177 231 286 346 412
#     4  11  23  41  72  97 132 184 228 278 345 417
#     4  11  24  43  69  97 139 179 224 288 345 405
#     4  10  21  41  67  95 130 179 223 274 341 411
#     4  11  23  42  70  99 134 180 233 276 340 412
#
# _framework density 25.453216000000001
#
# number of rings (size 3 to 8) (size 9 to 14) (size 15 to 20)
#    0.000    1.200    4.000    2.400    5.600    0.000 
#    3.600    0.000    8.800    0.000    0.000    0.000 
#    0.000    0.000    0.000    0.000    0.000    0.000 
#
# Total GULP energy -111675.300508 kJ/mol
# GULP energy per Si atom -5583.765025 kJ/mol
# Density = 2.539528 g / cm^3
# Si number density = 25.453216 Si / 1000 Ang^3
#
#
#
# Elastic Constant Matrix: (Units=GPa)
#
#
# Indices 1 2 3 4 5 6 
#
# 1 53.1114 5.3077 4.7459 0.0000 0.0000 0.0000
# 2 5.3077 121.5717 1.1000 0.0000 0.0000 0.0000
# 3 4.7459 1.1000 90.9264 0.0000 0.0000 0.0000
# 4 0.0000 0.0000 0.0000 51.8601 0.0000 0.0000
# 5 0.0000 0.0000 0.0000 0.0000 32.0047 0.0000
# 6 0.0000 0.0000 0.0000 0.0000 0.0000 18.6906
#
#
#
# Elastic Compliance Matrix: (Units=1/GPa)
#
#
# Indices 1 2 3 4 5 6 
#
# 1 0.018998 -0.000821 -0.000982 0.000000 0.000000 0.000000
# 2 -0.000821 0.008262 -0.000057 0.000000 0.000000 0.000000
# 3 -0.000982 -0.000057 0.011050 0.000000 0.000000 0.000000
# 4 0.000000 0.000000 0.000000 0.019283 0.000000 0.000000
# 5 0.000000 0.000000 0.000000 0.000000 0.031245 0.000000
# 6 0.000000 0.000000 0.000000 0.000000 0.000000 0.053503
#
#
# Mechanical properties :
#
#
# Convention : Reuss Voigt Hill
#
# Bulk Modulus (GPa) = 28.90914 31.99074 30.44994
# Shear Modulus (GPa) = 31.72794 37.47482 34.60138
#
# Velocity S-wave (km/s) = 3.53444 3.84122 3.69102
# Velocity P-wave (km/s) = 5.29516 5.68058 5.49126
#
# Compressibility (1/GPa) = 0.03459113
#
# Stress axis : x y z
#
# Youngs Moduli (GPa) = 52.63696 121.03698 90.49906
#
# Poissons Ratio (x) = 0.09932 0.08884
# Poissons Ratio (y) = 0.04319 0.00517
# Poissons Ratio (z) = 0.05167 0.00691
#
# Static dielectric constant tensor:
#      x y z
#    x 2.079210 0.000000 0.000000 
#    y 0.000000 2.118260 0.000000 
#    z 0.000000 0.000000 1.937360 
# 
# From -- ./inp_files/18508.got.cif
#   From: 2010.05.17/outbox.cif.g08.bks.cpg/sg20_10_cif.got.tgz:18508.got - 2010.06.03 22:52:26.
