data_PCOD9319723
_publ_section_title
;
Structure prediction by ZEFSAII (Michael W. Deem and Ramdas Pophale) SiO2 
 PCOD9319723
Probable space group: C 2 2 21
;
_chemical_formula_sum "Si O2"
_cell_formula_units_Z 44
_cell_length_a 10.149949
_cell_length_b 11.517448
_cell_length_c 15.406963
_cell_angle_alpha 90.000000
_cell_angle_beta 90.000000
_cell_angle_gamma 90.000000
_cell_volume 1801.097236
_symmetry_space_group_name_H-M "C 2 2 21"
_symmetry_group_IT_number 20
_symmetry_cell_setting 'orthorhombic'
loop_
_space_group_symop_operation_xyz
x,y,z
-x,-y,1/2+z
x,-y,-z
-x,y,1/2-z
1/2+x,1/2+y,z
1/2-x,1/2-y,1/2+z
1/2+x,1/2-y,-z
1/2-x,1/2+y,1/2-z
loop_
_atom_site_type_symbol
_atom_site_label
_atom_site_fract_x
_atom_site_fract_y
_atom_site_fract_z
Si Si1 0.079152 0.327634 0.832149
Si Si2 0.378366 0.438676 0.313777
Si Si3 0.355758 0.079429 0.913656
Si Si4 0.007805 0.000000 0.000000
Si Si5 0.362144 0.274111 0.036344
Si Si6 0.842596 0.552232 0.596515
O O1 0.973005 0.298488 0.909964
O O2 0.000000 0.371271 0.750000
O O3 0.128899 0.200772 0.805372
O O4 0.179304 0.431849 0.852400
O O5 0.500000 0.475209 0.250000
O O6 0.223695 0.466743 0.329957
O O7 0.421594 0.477198 0.409829
O O8 0.508448 0.094878 0.888680
O O9 0.300465 0.196761 0.959931
O O10 0.350764 0.000000 0.000000
O O11 0.929568 0.881513 0.988714
O O12 0.259120 0.340579 0.099873
O O13 0.838587 0.500000 0.500000
#
# Coordination Sequence:
#
# PCOD9319723 Si02
#       6
#     8   8   8   4   8   8
#     4  10  22  44  65  97 143 183 233 297 363 426
#     4  10  22  42  66  98 139 190 239 296 368 425
#     4  11  22  39  70 102 139 184 238 299 356 438
#     4  10  22  38  68  98 134 186 238 294 346 446
#     4  11  22  40  70 104 133 191 242 285 369 431
#     4  11  21  41  68 102 133 186 237 294 354 432
#
# _framework density 24.429552999999999
#
# number of rings (size 3 to 8) (size 9 to 14) (size 15 to 20)
#    0.000    1.455    5.455    1.091    2.545    0.000 
#    9.818    0.000    0.000    2.182    0.000    0.000 
#    0.000    0.000    0.000    0.000    0.000    0.000 
#
# Total GULP energy -122538.744544 kJ/mol
# GULP energy per Si atom -5569.942934 kJ/mol
# Density = 2.437395 g / cm^3
# Si number density = 24.429553 Si / 1000 Ang^3
#
#
#
# Elastic Constant Matrix: (Units=GPa)
#
#
# Indices 1 2 3 4 5 6 
#
# 1 87.7323 29.8209 9.7188 0.0000 0.0000 0.0000
# 2 29.8209 95.3757 28.6164 0.0000 0.0000 0.0000
# 3 9.7188 28.6164 65.2389 0.0000 0.0000 0.0000
# 4 0.0000 0.0000 0.0000 30.6031 0.0000 0.0000
# 5 0.0000 0.0000 0.0000 0.0000 33.6820 0.0000
# 6 0.0000 0.0000 0.0000 0.0000 0.0000 30.2781
#
#
#
# Elastic Compliance Matrix: (Units=1/GPa)
#
#
# Indices 1 2 3 4 5 6 
#
# 1 0.012755 -0.003936 -0.000174 0.000000 0.000000 0.000000
# 2 -0.003936 0.013288 -0.005242 0.000000 0.000000 0.000000
# 3 -0.000174 -0.005242 0.017654 0.000000 0.000000 0.000000
# 4 0.000000 0.000000 0.000000 0.032676 0.000000 0.000000
# 5 0.000000 0.000000 0.000000 0.000000 0.029689 0.000000
# 6 0.000000 0.000000 0.000000 0.000000 0.000000 0.033027
#
#
# Mechanical properties :
#
#
# Convention : Reuss Voigt Hill
#
# Bulk Modulus (GPa) = 40.01102 42.73989 41.37545
# Shear Modulus (GPa) = 30.09759 30.92537 30.51148
#
# Velocity S-wave (km/s) = 3.51382 3.56181 3.53789
# Velocity P-wave (km/s) = 5.73378 5.86928 5.80192
#
# Compressibility (1/GPa) = 0.02499312
#
# Stress axis : x y z
#
# Youngs Moduli (GPa) = 78.39778 75.25312 56.64530
#
# Poissons Ratio (x) = 0.29620 0.00984
# Poissons Ratio (y) = 0.30858 0.29696
# Poissons Ratio (z) = 0.01362 0.39451
#
# Static dielectric constant tensor:
#      x y z
#    x 2.191360 0.000000 0.000000 
#    y 0.000000 1.991600 0.000000 
#    z 0.000000 0.000000 2.016020 
# 
# From -- ./inp_files/24163.got.cif
#   From: 2010.05.17/outbox.cif.g08.bks.cpg/sg20_13_cif.got.tgz:24163.got - 2010.06.03 22:52:26.
