data_PCOD9319606
_publ_section_title
;
Structure prediction by ZEFSAII (Michael W. Deem and Ramdas Pophale) SiO2 
 PCOD9319606
Probable space group: C 2 2 21
;
_chemical_formula_sum "Si O2"
_cell_formula_units_Z 64
_cell_length_a 21.854752
_cell_length_b 18.142578
_cell_length_c 9.260544
_cell_angle_alpha 90.000000
_cell_angle_beta 90.000000
_cell_angle_gamma 90.000000
_cell_volume 3671.819983
_symmetry_space_group_name_H-M "C 2 2 21"
_symmetry_group_IT_number 20
_symmetry_cell_setting 'orthorhombic'
loop_
_space_group_symop_operation_xyz
x,y,z
-x,-y,1/2+z
x,-y,-z
-x,y,1/2-z
1/2+x,1/2+y,z
1/2-x,1/2-y,1/2+z
1/2+x,1/2-y,-z
1/2-x,1/2+y,1/2-z
loop_
_atom_site_type_symbol
_atom_site_label
_atom_site_fract_x
_atom_site_fract_y
_atom_site_fract_z
Si Si1 0.189711 0.305940 0.734565
Si Si2 0.748061 0.057979 0.111610
Si Si3 0.928105 0.221926 0.781437
Si Si4 0.747635 0.950179 0.374118
Si Si5 0.383162 0.406885 0.405108
Si Si6 0.783649 0.705468 0.898360
Si Si7 0.570173 0.549598 0.213976
Si Si8 0.864207 0.155757 0.062764
O O1 0.205133 0.380185 0.819286
O O2 0.117457 0.291662 0.719403
O O3 0.218087 0.303882 0.572766
O O4 0.224047 0.241446 0.824172
O O5 0.804389 0.102973 0.036397
O O6 0.765209 0.005036 0.245334
O O7 0.720114 0.000000 0.000000
O O8 0.903710 0.170621 0.653474
O O9 0.000000 0.234320 0.750000
O O10 0.907275 0.178072 0.927861
O O11 0.811431 0.916978 0.433888
O O12 0.708931 0.877222 0.336301
O O13 0.718762 0.000000 0.500000
O O14 0.418604 0.423211 0.551807
O O15 0.400658 0.468365 0.286102
O O16 0.836139 0.767483 0.876163
O O17 0.500000 0.541415 0.250000
O O18 0.599273 0.608256 0.321517
#
# Coordination Sequence:
#
# PCOD9319606 Si02
#       8
#     8   8   8   8   8   8   8   8
#     4  10  22  37  55  84 112 144 188 224 284 334
#     4  11  22  36  57  86 113 142 177 237 287 334
#     4  11  22  37  56  78 110 153 188 227 266 330
#     4  12  19  36  58  79 114 145 181 220 284 339
#     4  11  21  34  50  80 106 148 190 213 264 319
#     4  10  22  35  56  80 114 144 179 231 276 335
#     4  11  22  35  51  74 109 152 185 225 253 318
#     4  10  22  38  53  82 114 141 183 227 278 325
#
# _framework density 17.430047999999999
#
# number of rings (size 3 to 8) (size 9 to 14) (size 15 to 20)
#    0.000    1.250    5.000    1.875    5.250    1.000 
#    0.000    0.000    0.000    0.000    6.500    0.000 
#    0.000    0.000    0.000    0.000    0.000    0.000 
#
# Total GULP energy -178318.307624 kJ/mol
# GULP energy per Si atom -5572.447113 kJ/mol
# Density = 1.739038 g / cm^3
# Si number density = 17.430048 Si / 1000 Ang^3
#
#
#
# Elastic Constant Matrix: (Units=GPa)
#
#
# Indices 1 2 3 4 5 6 
#
# 1 71.2660 26.7421 27.8024 0.0000 0.0000 0.0000
# 2 26.7421 90.2477 14.3485 0.0000 0.0000 0.0000
# 3 27.8024 14.3485 50.9576 0.0000 0.0000 0.0000
# 4 0.0000 0.0000 0.0000 28.6160 0.0000 0.0000
# 5 0.0000 0.0000 0.0000 0.0000 0.8672 0.0000
# 6 0.0000 0.0000 0.0000 0.0000 0.0000 14.4965
#
#
#
# Elastic Compliance Matrix: (Units=1/GPa)
#
#
# Indices 1 2 3 4 5 6 
#
# 1 0.019250 -0.004223 -0.009314 0.000000 0.000000 0.000000
# 2 -0.004223 0.012527 -0.001223 0.000000 0.000000 0.000000
# 3 -0.009314 -0.001223 0.025050 0.000000 0.000000 0.000000
# 4 0.000000 0.000000 0.000000 0.034945 0.000000 0.000000
# 5 0.000000 0.000000 0.000000 0.000000 1.153135 0.000000
# 6 0.000000 0.000000 0.000000 0.000000 0.000000 0.068982
#
#
# Mechanical properties :
#
#
# Convention : Reuss Voigt Hill
#
# Bulk Modulus (GPa) = 36.62095 38.91749 37.76922
# Shear Modulus (GPa) = 3.69683 18.36783 11.03233
#
# Velocity S-wave (km/s) = 1.45793 3.24975 2.51858
# Velocity P-wave (km/s) = 4.88773 6.03800 5.49306
#
# Compressibility (1/GPa) = 0.02730677
#
# Stress axis : x y z
#
# Youngs Moduli (GPa) = 51.94743 79.83064 39.92010
#
# Poissons Ratio (x) = 0.33716 0.37180
# Poissons Ratio (y) = 0.21940 0.04882
# Poissons Ratio (z) = 0.48382 0.09762
#
# Static dielectric constant tensor:
#      x y z
#    x 1.588990 0.000000 0.000000 
#    y 0.000000 1.645130 0.000000 
#    z 0.000000 0.000000 1.621940 
# 
# From -- ./inp_files/10354.got.cif
#   From: 2010.05.17/outbox.cif.g08.bks.cpg/sg20_6_cif.got.tgz:10354.got - 2010.06.03 22:52:26.
