data_PCOD9319672
_publ_section_title
;
Structure prediction by ZEFSAII (Michael W. Deem and Ramdas Pophale) SiO2 
 PCOD9319672
Probable space group: C 2 2 21
;
_chemical_formula_sum "Si O2"
_cell_formula_units_Z 64
_cell_length_a 20.916951
_cell_length_b 17.764288
_cell_length_c 8.800307
_cell_angle_alpha 90.000000
_cell_angle_beta 90.000000
_cell_angle_gamma 90.000000
_cell_volume 3269.971800
_symmetry_space_group_name_H-M "C 2 2 21"
_symmetry_group_IT_number 20
_symmetry_cell_setting 'orthorhombic'
loop_
_space_group_symop_operation_xyz
x,y,z
-x,-y,1/2+z
x,-y,-z
-x,y,1/2-z
1/2+x,1/2+y,z
1/2-x,1/2-y,1/2+z
1/2+x,1/2-y,-z
1/2-x,1/2+y,1/2-z
loop_
_atom_site_type_symbol
_atom_site_label
_atom_site_fract_x
_atom_site_fract_y
_atom_site_fract_z
Si Si1 0.168056 0.836468 0.811747
Si Si2 0.152882 0.764782 0.371777
Si Si3 0.054567 0.804747 0.634181
Si Si4 0.489049 0.425708 0.427680
Si Si5 0.695622 0.122284 0.187609
Si Si6 0.202177 0.326319 0.141146
Si Si7 0.650510 0.396551 0.132959
Si Si8 0.775051 0.529494 0.828279
O O1 0.101153 0.858401 0.735600
O O2 0.229120 0.859302 0.713762
O O3 0.161574 0.746213 0.817950
O O4 0.183599 0.861621 0.983160
O O5 0.105623 0.764286 0.517234
O O6 0.158515 0.682918 0.292503
O O7 0.226778 0.792215 0.395200
O O8 0.133170 0.830025 0.250700
O O9 0.000000 0.770353 0.750000
O O10 0.013946 0.854540 0.518077
O O11 0.519152 0.500000 0.500000
O O12 0.500000 0.421444 0.250000
O O13 0.413228 0.429078 0.434572
O O14 0.691403 0.035026 0.230408
O O15 0.678875 0.136416 0.013604
O O16 0.202511 0.387587 0.275755
O O17 0.698496 0.459282 0.198582
O O18 0.783374 0.500000 0.000000
#
# Coordination Sequence:
#
# PCOD9319672 Si02
#       8
#     8   8   8   8   8   8   8   8
#     4  11  22  37  61  85 119 163 213 262 309 370
#     4  10  22  38  60  87 118 168 218 266 316 377
#     4  12  24  40  60  89 122 162 219 265 310 380
#     4  12  26  40  56  81 121 168 216 258 306 362
#     4  11  21  37  59  87 125 163 209 261 327 375
#     4  10  22  38  59  86 124 165 208 262 325 384
#     4  11  21  41  57  81 122 172 217 256 307 372
#     4  11  23  34  56  91 123 162 206 258 322 387
#
# _framework density 19.572033999999999
#
# number of rings (size 3 to 8) (size 9 to 14) (size 15 to 20)
#    0.000    1.000    6.250    1.125    1.750    0.000 
#    0.000    0.000    0.000    0.000    0.000    0.000 
#   15.000    0.000    0.000    0.000    0.000    0.000 
#
# Total GULP energy -178279.351364 kJ/mol
# GULP energy per Si atom -5571.229730 kJ/mol
# Density = 1.952749 g / cm^3
# Si number density = 19.572034 Si / 1000 Ang^3
#
#
#
# Elastic Constant Matrix: (Units=GPa)
#
#
# Indices 1 2 3 4 5 6 
#
# 1 36.5411 5.5555 22.9498 0.0000 0.0000 0.0000
# 2 5.5555 79.3783 27.3500 0.0000 0.0000 0.0000
# 3 22.9498 27.3500 102.1014 0.0000 0.0000 0.0000
# 4 0.0000 0.0000 0.0000 118.6904 0.0000 0.0000
# 5 0.0000 0.0000 0.0000 0.0000 29.0664 0.0000
# 6 0.0000 0.0000 0.0000 0.0000 0.0000 9.2125
#
#
#
# Elastic Compliance Matrix: (Units=1/GPa)
#
#
# Indices 1 2 3 4 5 6 
#
# 1 0.031870 0.000262 -0.007234 0.000000 0.000000 0.000000
# 2 0.000262 0.013881 -0.003777 0.000000 0.000000 0.000000
# 3 -0.007234 -0.003777 0.012432 0.000000 0.000000 0.000000
# 4 0.000000 0.000000 0.000000 0.008425 0.000000 0.000000
# 5 0.000000 0.000000 0.000000 0.000000 0.034404 0.000000
# 6 0.000000 0.000000 0.000000 0.000000 0.000000 0.108548
#
#
# Mechanical properties :
#
#
# Convention : Reuss Voigt Hill
#
# Bulk Modulus (GPa) = 27.25924 36.63682 31.94803
# Shear Modulus (GPa) = 20.55195 42.20491 31.37843
#
# Velocity S-wave (km/s) = 3.24399 4.64873 4.00838
# Velocity P-wave (km/s) = 5.29048 6.89738 6.14667
#
# Compressibility (1/GPa) = 0.03668481
#
# Stress axis : x y z
#
# Youngs Moduli (GPa) = 31.37767 72.04089 80.43805
#
# Poissons Ratio (x) = -0.01887 0.58186
# Poissons Ratio (y) = -0.00822 0.30383
# Poissons Ratio (z) = 0.22698 0.27211
#
# Static dielectric constant tensor:
#      x y z
#    x 1.289840 0.000000 0.000000 
#    y 0.000000 1.710010 0.000000 
#    z 0.000000 0.000000 1.806030 
# 
# From -- ./inp_files/10375.got.cif
#   From: 2010.05.17/outbox.cif.g08.bks.cpg/sg20_6_cif.got.tgz:10375.got - 2010.06.03 22:52:26.
