data_PCOD9319709
_publ_section_title
;
Structure prediction by ZEFSAII (Michael W. Deem and Ramdas Pophale) SiO2 
 PCOD9319709
Probable space group: C 2 2 21
;
_chemical_formula_sum "Si O2"
_cell_formula_units_Z 40
_cell_length_a 26.925083
_cell_length_b 14.178264
_cell_length_c 5.121709
_cell_angle_alpha 90.000000
_cell_angle_beta 90.000000
_cell_angle_gamma 90.000000
_cell_volume 1955.217200
_symmetry_space_group_name_H-M "C 2 2 21"
_symmetry_group_IT_number 20
_symmetry_cell_setting 'orthorhombic'
loop_
_space_group_symop_operation_xyz
x,y,z
-x,-y,1/2+z
x,-y,-z
-x,y,1/2-z
1/2+x,1/2+y,z
1/2-x,1/2-y,1/2+z
1/2+x,1/2-y,-z
1/2-x,1/2+y,1/2-z
loop_
_atom_site_type_symbol
_atom_site_label
_atom_site_fract_x
_atom_site_fract_y
_atom_site_fract_z
Si Si1 0.500000 0.343746 0.250000
Si Si2 0.932244 0.000000 0.000000
Si Si3 0.859423 0.859040 0.848338
Si Si4 0.650929 0.064620 0.254007
Si Si5 0.748979 0.316587 0.765446
Si Si6 0.899115 0.244790 0.637917
O O1 0.531166 0.415129 0.429334
O O2 0.542855 0.281154 0.122460
O O3 0.893523 0.951158 0.800132
O O4 0.800992 0.872683 0.811019
O O5 0.875093 0.780788 0.638357
O O6 0.873198 0.819670 0.136186
O O7 0.703780 0.116394 0.294721
O O8 0.611625 0.148193 0.212245
O O9 0.639161 0.000000 0.500000
O O10 0.653927 0.000000 0.000000
O O11 0.758173 0.242077 0.531728
#
# Coordination Sequence:
#
# PCOD9319709 Si02
#       6
#     4   4   8   8   8   8
#     4  10  22  42  68  94 126 172 212 266 346 398
#     4  10  22  38  66 102 134 160 216 280 324 410
#     4  11  22  40  63  96 134 170 211 261 328 397
#     4  12  25  42  64  96 132 171 226 279 312 379
#     4  12  22  42  65  92 130 176 217 251 327 395
#     4  11  23  43  66  89 127 173 215 268 331 390
#
# _framework density 20.458083999999999
#
# number of rings (size 3 to 8) (size 9 to 14) (size 15 to 20)
#    0.000    0.800    4.000    3.600    1.400    4.800 
#    3.600    1.000    0.000    0.000    0.000    0.000 
#    0.000    0.000    0.000    0.000    0.000    0.000 
#
# Total GULP energy -111776.656351 kJ/mol
# GULP energy per Si atom -5588.832818 kJ/mol
# Density = 2.041152 g / cm^3
# Si number density = 20.458084 Si / 1000 Ang^3
#
#
#
# Elastic Constant Matrix: (Units=GPa)
#
#
# Indices 1 2 3 4 5 6 
#
# 1 126.8568 43.1704 -19.6761 0.0000 0.0000 0.0000
# 2 43.1704 114.1212 13.8265 0.0000 0.0000 0.0000
# 3 -19.6761 13.8265 64.6819 0.0000 0.0000 0.0000
# 4 0.0000 0.0000 0.0000 40.8221 0.0000 0.0000
# 5 0.0000 0.0000 0.0000 0.0000 11.1841 0.0000
# 6 0.0000 0.0000 0.0000 0.0000 0.0000 60.3446
#
#
#
# Elastic Compliance Matrix: (Units=1/GPa)
#
#
# Indices 1 2 3 4 5 6 
#
# 1 0.009932 -0.004233 0.003926 0.000000 0.000000 0.000000
# 2 -0.004233 0.010800 -0.003596 0.000000 0.000000 0.000000
# 3 0.003926 -0.003596 0.017423 0.000000 0.000000 0.000000
# 4 0.000000 0.000000 0.000000 0.024497 0.000000 0.000000
# 5 0.000000 0.000000 0.000000 0.000000 0.089413 0.000000
# 6 0.000000 0.000000 0.000000 0.000000 0.000000 0.016571
#
#
# Mechanical properties :
#
#
# Convention : Reuss Voigt Hill
#
# Bulk Modulus (GPa) = 32.94946 42.25573 37.60259
# Shear Modulus (GPa) = 26.80129 40.35944 33.58036
#
# Velocity S-wave (km/s) = 3.62340 4.44643 4.05584
# Velocity P-wave (km/s) = 5.80053 6.86007 6.35243
#
# Compressibility (1/GPa) = 0.03034951
#
# Stress axis : x y z
#
# Youngs Moduli (GPa) = 100.68068 92.59616 57.39425
#
# Poissons Ratio (x) = 0.39196 -0.22534
# Poissons Ratio (y) = 0.42618 0.20640
# Poissons Ratio (z) = -0.39530 0.33299
#
# Static dielectric constant tensor:
#      x y z
#    x 1.740000 0.000000 0.000000 
#    y 0.000000 1.735180 0.000000 
#    z 0.000000 0.000000 1.769530 
# 
# From -- ./inp_files/4115.got.cif
#   From: 2010.05.17/outbox.cif.g08.bks.cpg/sg20_3_cif.got.tgz:4115.got - 2010.06.03 22:52:26.
