data_PCOD9319707
_publ_section_title
;
Structure prediction by ZEFSAII (Michael W. Deem and Ramdas Pophale) SiO2 
 PCOD9319707
Probable space group: C 2 2 21
;
_chemical_formula_sum "Si O2"
_cell_formula_units_Z 52
_cell_length_a 18.100509
_cell_length_b 5.319219
_cell_length_c 21.700557
_cell_angle_alpha 90.000000
_cell_angle_beta 90.000000
_cell_angle_gamma 90.000000
_cell_volume 2089.342027
_symmetry_space_group_name_H-M "C 2 2 21"
_symmetry_group_IT_number 20
_symmetry_cell_setting 'orthorhombic'
loop_
_space_group_symop_operation_xyz
x,y,z
-x,-y,1/2+z
x,-y,-z
-x,y,1/2-z
1/2+x,1/2+y,z
1/2-x,1/2-y,1/2+z
1/2+x,1/2-y,-z
1/2-x,1/2+y,1/2-z
loop_
_atom_site_type_symbol
_atom_site_label
_atom_site_fract_x
_atom_site_fract_y
_atom_site_fract_z
Si Si1 0.347301 0.500000 0.000000
Si Si2 0.659523 0.757675 0.614673
Si Si3 0.625036 0.856078 0.060158
Si Si4 0.117146 0.150337 0.872334
Si Si5 0.763369 0.020821 0.286950
Si Si6 0.546059 0.856333 0.420315
Si Si7 0.467083 0.495881 0.818202
O O1 0.300862 0.625667 0.943744
O O2 0.402128 0.336039 0.957160
O O3 0.712798 0.939165 0.652381
O O4 0.614421 0.602762 0.666805
O O5 0.593762 0.895328 0.578677
O O6 0.639883 0.064195 0.113243
O O7 0.639972 0.565248 0.077642
O O8 0.535587 0.854583 0.053992
O O9 0.652977 0.000000 0.000000
O O10 0.156823 0.058976 0.810875
O O11 0.029492 0.132090 0.860644
O O12 0.766029 0.287632 0.252723
O O13 0.537459 0.779833 0.348370
O O14 0.500000 0.501849 0.750000
#
# Coordination Sequence:
#
# PCOD9319707 Si02
#       7
#     4   8   8   8   8   8   8
#     4  10  22  40  68 104 140 184 246 310 362 430
#     4  11  23  43  70 102 140 187 245 298 374 431
#     4  11  22  41  68  98 143 177 227 289 363 416
#     4  11  24  44  64 105 131 184 235 286 348 434
#     4  12  29  50  75  98 148 197 240 296 371 448
#     4  10  22  38  66 104 137 184 236 303 362 433
#     4  10  22  38  65  99 139 174 236 297 356 418
#
# _framework density 24.888216
#
# number of rings (size 3 to 8) (size 9 to 14) (size 15 to 20)
#    0.000    1.231    1.538    3.692   10.769    0.615 
#    1.385    1.538    0.000    0.000    0.000    0.000 
#    0.000    0.000    0.000    0.000    0.000    0.000 
#
# Total GULP energy -145188.563469 kJ/mol
# GULP energy per Si atom -5584.175518 kJ/mol
# Density = 2.483157 g / cm^3
# Si number density = 24.888216 Si / 1000 Ang^3
#
#
#
# Elastic Constant Matrix: (Units=GPa)
#
#
# Indices 1 2 3 4 5 6 
#
# 1 56.1367 -17.4720 -19.5339 0.0000 0.0000 0.0000
# 2 -17.4720 59.9215 -0.4925 0.0000 0.0000 0.0000
# 3 -19.5339 -0.4925 78.7980 0.0000 0.0000 0.0000
# 4 0.0000 0.0000 0.0000 32.4364 0.0000 0.0000
# 5 0.0000 0.0000 0.0000 0.0000 17.3082 0.0000
# 6 0.0000 0.0000 0.0000 0.0000 0.0000 24.3368
#
#
#
# Elastic Compliance Matrix: (Units=1/GPa)
#
#
# Indices 1 2 3 4 5 6 
#
# 1 0.021679 0.006366 0.005414 0.000000 0.000000 0.000000
# 2 0.006366 0.018559 0.001694 0.000000 0.000000 0.000000
# 3 0.005414 0.001694 0.014043 0.000000 0.000000 0.000000
# 4 0.000000 0.000000 0.000000 0.030830 0.000000 0.000000
# 5 0.000000 0.000000 0.000000 0.000000 0.057776 0.000000
# 6 0.000000 0.000000 0.000000 0.000000 0.000000 0.041090
#
#
# Mechanical properties :
#
#
# Convention : Reuss Voigt Hill
#
# Bulk Modulus (GPa) = 12.31105 13.31770 12.81438
# Shear Modulus (GPa) = 27.15837 30.30658 28.73248
#
# Velocity S-wave (km/s) = 3.30694 3.49335 3.40142
# Velocity P-wave (km/s) = 4.42022 4.65123 4.53720
#
# Compressibility (1/GPa) = 0.08122785
#
# Stress axis : x y z
#
# Youngs Moduli (GPa) = 46.12805 53.88362 71.20792
#
# Poissons Ratio (x) = -0.34300 -0.38552
# Poissons Ratio (y) = -0.29363 -0.12063
# Poissons Ratio (z) = -0.24973 -0.09128
#
# Static dielectric constant tensor:
#      x y z
#    x 1.940830 0.000000 0.000000 
#    y 0.000000 2.037580 0.000000 
#    z 0.000000 0.000000 2.035010 
# 
# From -- ./inp_files/27883.got.cif
#   From: 2010.05.17/outbox.cif.g08.bks.cpg/sg20_14_cif.got.tgz:27883.got - 2010.06.03 22:52:26.
