data_PCOD9319289
_publ_section_title
;
Structure prediction by ZEFSAII (Michael W. Deem and Ramdas Pophale) SiO2 
 PCOD9319289
Probable space group: C 2 2 21
;
_chemical_formula_sum "Si O2"
_cell_formula_units_Z 48
_cell_length_a 23.599387
_cell_length_b 12.191117
_cell_length_c 8.117005
_cell_angle_alpha 90.000000
_cell_angle_beta 90.000000
_cell_angle_gamma 90.000000
_cell_volume 2335.285781
_symmetry_space_group_name_H-M "C 2 2 21"
_symmetry_group_IT_number 20
_symmetry_cell_setting 'orthorhombic'
loop_
_space_group_symop_operation_xyz
x,y,z
-x,-y,1/2+z
x,-y,-z
-x,y,1/2-z
1/2+x,1/2+y,z
1/2-x,1/2-y,1/2+z
1/2+x,1/2-y,-z
1/2-x,1/2+y,1/2-z
loop_
_atom_site_type_symbol
_atom_site_label
_atom_site_fract_x
_atom_site_fract_y
_atom_site_fract_z
Si Si1 0.732854 0.676721 0.118881
Si Si2 0.809611 0.443532 0.677217
Si Si3 0.368057 0.285070 0.402165
Si Si4 0.672012 0.840956 0.355857
Si Si5 0.562993 0.527400 0.803768
Si Si6 0.432992 0.281757 0.739265
O O1 0.747002 0.589835 0.260446
O O2 0.709318 0.784298 0.209505
O O3 0.684163 0.650643 0.988356
O O4 0.790877 0.684037 0.016451
O O5 0.809790 0.500000 0.500000
O O6 0.844618 0.330241 0.662561
O O7 0.832211 0.531820 0.807966
O O8 0.396354 0.369633 0.276902
O O9 0.412104 0.262122 0.551146
O O10 0.609887 0.788262 0.350011
O O11 0.500000 0.558050 0.750000
O O12 0.576868 0.410662 0.721960
O O13 0.563452 0.500000 0.000000
O O14 0.500000 0.259886 0.750000
#
# Coordination Sequence:
#
# PCOD9319289 Si02
#       6
#     8   8   8   8   8   8
#     4  11  22  41  63  96 126 169 206 260 325 377
#     4  12  22  41  64  90 133 163 210 264 317 382
#     4  10  21  41  63  93 128 168 205 264 323 375
#     4  11  22  40  65  94 127 167 213 261 320 383
#     4   9  19  39  64  91 121 167 208 262 320 372
#     4   9  19  38  64  86 124 169 210 261 319 374
#
# _framework density 20.554227999999998
#
# number of rings (size 3 to 8) (size 9 to 14) (size 15 to 20)
#    0.000    1.667    5.000    0.500    0.000    6.667 
#    9.000    0.833    3.667    3.000    0.000    0.000 
#    0.000    0.000    0.000    0.000    0.000    0.000 
#
# Total GULP energy -133918.624785 kJ/mol
# GULP energy per Si atom -5579.942699 kJ/mol
# Density = 2.050745 g / cm^3
# Si number density = 20.554228 Si / 1000 Ang^3
#
#
#
# Elastic Constant Matrix: (Units=GPa)
#
#
# Indices 1 2 3 4 5 6 
#
# 1 137.2910 74.8700 37.2362 0.0000 0.0000 0.0000
# 2 74.8700 133.2192 27.9961 0.0000 0.0000 0.0000
# 3 37.2362 27.9961 48.8685 0.0000 0.0000 0.0000
# 4 0.0000 0.0000 0.0000 17.2997 0.0000 0.0000
# 5 0.0000 0.0000 0.0000 0.0000 38.8551 0.0000
# 6 0.0000 0.0000 0.0000 0.0000 0.0000 31.1355
#
#
#
# Elastic Compliance Matrix: (Units=1/GPa)
#
#
# Indices 1 2 3 4 5 6 
#
# 1 0.011840 -0.005410 -0.005923 0.000000 0.000000 0.000000
# 2 -0.005410 0.011005 -0.002183 0.000000 0.000000 0.000000
# 3 -0.005923 -0.002183 0.026227 0.000000 0.000000 0.000000
# 4 0.000000 0.000000 0.000000 0.057805 0.000000 0.000000
# 5 0.000000 0.000000 0.000000 0.000000 0.025737 0.000000
# 6 0.000000 0.000000 0.000000 0.000000 0.000000 0.032118
#
#
# Mechanical properties :
#
#
# Convention : Reuss Voigt Hill
#
# Bulk Modulus (GPa) = 45.36867 66.62037 55.99452
# Shear Modulus (GPa) = 25.11189 29.40983 27.26086
#
# Velocity S-wave (km/s) = 3.49913 3.78675 3.64578
# Velocity P-wave (km/s) = 6.20047 7.18343 6.70997
#
# Compressibility (1/GPa) = 0.02204164
#
# Stress axis : x y z
#
# Youngs Moduli (GPa) = 84.45762 90.86449 38.12928
#
# Poissons Ratio (x) = 0.49154 0.22583
# Poissons Ratio (y) = 0.45688 0.08323
# Poissons Ratio (z) = 0.50022 0.19835
#
# Static dielectric constant tensor:
#      x y z
#    x 1.719600 0.000000 0.000000 
#    y 0.000000 1.776070 0.000000 
#    z 0.000000 0.000000 1.809770 
# 
# From -- ./inp_files/10641.got.cif
#   From: 2010.05.17/outbox.cif.g08.bks.cpg/sg20_6_cif.got.tgz:10641.got - 2010.06.03 22:52:26.
