data_PCOD9319998
_publ_section_title
;
Structure prediction by ZEFSAII (Michael W. Deem and Ramdas Pophale) SiO2 
 PCOD9319998
Probable space group: C 2 2 21
;
_chemical_formula_sum "Si O2"
_cell_formula_units_Z 56
_cell_length_a 19.166688
_cell_length_b 9.719611
_cell_length_c 14.277407
_cell_angle_alpha 90.000000
_cell_angle_beta 90.000000
_cell_angle_gamma 90.000000
_cell_volume 2659.777435
_symmetry_space_group_name_H-M "C 2 2 21"
_symmetry_group_IT_number 20
_symmetry_cell_setting 'orthorhombic'
loop_
_space_group_symop_operation_xyz
x,y,z
-x,-y,1/2+z
x,-y,-z
-x,y,1/2-z
1/2+x,1/2+y,z
1/2-x,1/2-y,1/2+z
1/2+x,1/2-y,-z
1/2-x,1/2+y,1/2-z
loop_
_atom_site_type_symbol
_atom_site_label
_atom_site_fract_x
_atom_site_fract_y
_atom_site_fract_z
Si Si1 0.257503 0.295821 0.350252
Si Si2 0.948948 0.281529 0.838861
Si Si3 0.345734 0.655620 0.467549
Si Si4 0.560851 0.467644 0.672854
Si Si5 0.701023 0.423869 0.770084
Si Si6 0.001959 0.741842 0.952826
Si Si7 0.615095 0.953013 0.393695
O O1 0.300723 0.287526 0.446333
O O2 0.290265 0.414381 0.285601
O O3 0.254659 0.152173 0.296976
O O4 0.179719 0.356371 0.367715
O O5 0.894591 0.406902 0.835600
O O6 0.000000 0.289603 0.750000
O O7 0.920483 0.126397 0.845037
O O8 0.988690 0.293295 0.938465
O O9 0.367239 0.500000 0.500000
O O10 0.299970 0.639254 0.374246
O O11 0.415304 0.739890 0.442972
O O12 0.500000 0.466295 0.750000
O O13 0.626633 0.399381 0.722079
O O14 0.533579 0.383564 0.583401
O O15 0.958875 0.627871 0.894329
O O16 0.628993 0.000000 0.500000
#
# Coordination Sequence:
#
# PCOD9319998 Si02
#       7
#     8   8   8   8   8   8   8
#     4  11  25  44  65  95 138 177 223 271 341 404
#     4  10  24  36  61  99 134 171 216 281 338 391
#     4  10  22  41  70  93 131 179 218 284 339 396
#     4  11  21  39  67 100 124 167 231 279 329 390
#     4  11  24  42  67  97 127 181 226 269 336 407
#     4  11  21  41  67  98 128 169 229 277 330 395
#     4  10  22  42  63  91 131 180 213 268 341 402
#
# _framework density 21.054392
#
# number of rings (size 3 to 8) (size 9 to 14) (size 15 to 20)
#    0.000    1.429    2.857    2.571    8.000    1.714 
#    0.000    3.571    0.000    0.000    0.000    0.000 
#    0.000    0.000    0.000    0.000    0.000    0.000 
#
# Total GULP energy -156328.446177 kJ/mol
# GULP energy per Si atom -5583.158792 kJ/mol
# Density = 2.100647 g / cm^3
# Si number density = 21.054392 Si / 1000 Ang^3
#
#
#
# Elastic Constant Matrix: (Units=GPa)
#
#
# Indices 1 2 3 4 5 6 
#
# 1 71.5254 22.5176 21.3861 0.0000 0.0000 0.0000
# 2 22.5176 64.0471 20.3087 0.0000 0.0000 0.0000
# 3 21.3861 20.3087 52.5228 0.0000 0.0000 0.0000
# 4 0.0000 0.0000 0.0000 33.1951 0.0000 0.0000
# 5 0.0000 0.0000 0.0000 0.0000 26.8814 0.0000
# 6 0.0000 0.0000 0.0000 0.0000 0.0000 33.1744
#
#
#
# Elastic Compliance Matrix: (Units=1/GPa)
#
#
# Indices 1 2 3 4 5 6 
#
# 1 0.016891 -0.004283 -0.005222 0.000000 0.000000 0.000000
# 2 -0.004283 0.018881 -0.005557 0.000000 0.000000 0.000000
# 3 -0.005222 -0.005557 0.023314 0.000000 0.000000 0.000000
# 4 0.000000 0.000000 0.000000 0.030125 0.000000 0.000000
# 5 0.000000 0.000000 0.000000 0.000000 0.037200 0.000000
# 6 0.000000 0.000000 0.000000 0.000000 0.000000 0.030144
#
#
# Mechanical properties :
#
#
# Convention : Reuss Voigt Hill
#
# Bulk Modulus (GPa) = 34.52595 35.16892 34.84743
# Shear Modulus (GPa) = 25.46709 26.90903 26.18806
#
# Velocity S-wave (km/s) = 3.48168 3.57889 3.53062
# Velocity P-wave (km/s) = 5.70937 5.81533 5.76259
#
# Compressibility (1/GPa) = 0.02896373
#
# Stress axis : x y z
#
# Youngs Moduli (GPa) = 59.20470 52.96259 42.89250
#
# Poissons Ratio (x) = 0.22682 0.22396
# Poissons Ratio (y) = 0.25355 0.23835
# Poissons Ratio (z) = 0.30914 0.29431
#
# Static dielectric constant tensor:
#      x y z
#    x 1.776120 0.000000 0.000000 
#    y 0.000000 1.787600 0.000000 
#    z 0.000000 0.000000 1.729740 
# 
# From -- ./inp_files/21790.got.cif
#   From: 2010.05.17/outbox.cif.g08.bks.cpg/sg20_11_cif.got.tgz:21790.got - 2010.06.03 22:52:26.
