data_PCOD9319716
_publ_section_title
;
Structure prediction by ZEFSAII (Michael W. Deem and Ramdas Pophale) SiO2 
 PCOD9319716
Probable space group: C 2 2 21
;
_chemical_formula_sum "Si O2"
_cell_formula_units_Z 60
_cell_length_a 18.336011
_cell_length_b 13.687222
_cell_length_c 11.983001
_cell_angle_alpha 90.000000
_cell_angle_beta 90.000000
_cell_angle_gamma 90.000000
_cell_volume 3007.362415
_symmetry_space_group_name_H-M "C 2 2 21"
_symmetry_group_IT_number 20
_symmetry_cell_setting 'orthorhombic'
loop_
_space_group_symop_operation_xyz
x,y,z
-x,-y,1/2+z
x,-y,-z
-x,y,1/2-z
1/2+x,1/2+y,z
1/2-x,1/2-y,1/2+z
1/2+x,1/2-y,-z
1/2-x,1/2+y,1/2-z
loop_
_atom_site_type_symbol
_atom_site_label
_atom_site_fract_x
_atom_site_fract_y
_atom_site_fract_z
Si Si1 0.766085 0.509943 0.762901
Si Si2 0.185968 0.287112 0.169544
Si Si3 0.616659 0.483454 0.372350
Si Si4 0.192234 0.000000 0.000000
Si Si5 0.549128 0.276651 0.420003
Si Si6 0.930836 0.191627 0.176280
Si Si7 0.667528 0.803180 0.728137
Si Si8 0.877577 0.207510 0.549172
O O1 0.808362 0.605718 0.721939
O O2 0.688384 0.514401 0.701373
O O3 0.744132 0.504099 0.892478
O O4 0.810377 0.411825 0.737006
O O5 0.141348 0.220734 0.256743
O O6 0.266773 0.242437 0.155294
O O7 0.145842 0.278356 0.051479
O O8 0.639681 0.500000 0.500000
O O9 0.575470 0.381063 0.371486
O O10 0.566876 0.574573 0.337840
O O11 0.142437 0.097761 0.991739
O O12 0.570714 0.267679 0.550498
O O13 0.593060 0.201333 0.342651
O O14 0.462116 0.277941 0.421488
O O15 0.000000 0.224108 0.250000
O O16 0.664070 0.735840 0.838051
#
# Coordination Sequence:
#
# PCOD9319716 Si02
#       8
#     8   8   8   4   8   8   8   8
#     4  12  26  43  69 103 134 187 236 289 345 425
#     4  12  25  44  69 102 137 187 235 294 346 434
#     4  10  22  38  67 101 140 169 220 285 358 420
#     4  12  24  40  70 108 138 174 228 296 352 426
#     4  11  25  44  68 103 139 183 228 296 366 420
#     4  11  23  42  66 100 142 184 225 286 357 434
#     4  12  26  44  70  99 145 182 237 295 357 430
#     4  12  26  44  73 103 144 183 236 292 370 427
#
# _framework density 19.951038
#
# number of rings (size 3 to 8) (size 9 to 14) (size 15 to 20)
#    0.000    0.533    6.667    0.400    8.400    1.067 
#    0.000    1.333    2.933    0.000    0.000    0.000 
#    0.000    0.000    0.000    0.000    0.000    0.000 
#
# Total GULP energy -167727.321557 kJ/mol
# GULP energy per Si atom -5590.910719 kJ/mol
# Density = 1.990563 g / cm^3
# Si number density = 19.951038 Si / 1000 Ang^3
#
#
#
# Elastic Constant Matrix: (Units=GPa)
#
#
# Indices 1 2 3 4 5 6 
#
# 1 84.8498 42.2641 45.6928 0.0000 0.0000 0.0000
# 2 42.2641 86.2946 42.1047 0.0000 0.0000 0.0000
# 3 45.6928 42.1047 106.3338 0.0000 0.0000 0.0000
# 4 0.0000 0.0000 0.0000 24.8545 0.0000 0.0000
# 5 0.0000 0.0000 0.0000 0.0000 30.2722 0.0000
# 6 0.0000 0.0000 0.0000 0.0000 0.0000 23.7722
#
#
#
# Elastic Compliance Matrix: (Units=1/GPa)
#
#
# Indices 1 2 3 4 5 6 
#
# 1 0.017598 -0.006110 -0.005143 0.000000 0.000000 0.000000
# 2 -0.006110 0.016484 -0.003902 0.000000 0.000000 0.000000
# 3 -0.005143 -0.003902 0.013159 0.000000 0.000000 0.000000
# 4 0.000000 0.000000 0.000000 0.040234 0.000000 0.000000
# 5 0.000000 0.000000 0.000000 0.000000 0.033034 0.000000
# 6 0.000000 0.000000 0.000000 0.000000 0.000000 0.042066
#
#
# Mechanical properties :
#
#
# Convention : Reuss Voigt Hill
#
# Bulk Modulus (GPa) = 59.05637 59.73351 59.39494
# Shear Modulus (GPa) = 25.18524 25.60757 25.39640
#
# Velocity S-wave (km/s) = 3.55681 3.58651 3.57169
# Velocity P-wave (km/s) = 6.82150 6.86701 6.84429
#
# Compressibility (1/GPa) = 0.01693297
#
# Stress axis : x y z
#
# Youngs Moduli (GPa) = 56.82348 60.66375 75.99164
#
# Poissons Ratio (x) = 0.37064 0.39082
# Poissons Ratio (y) = 0.34718 0.29651
# Poissons Ratio (z) = 0.29224 0.23670
#
# Static dielectric constant tensor:
#      x y z
#    x 1.714010 0.000000 0.000000 
#    y 0.000000 1.731320 0.000000 
#    z 0.000000 0.000000 1.731680 
# 
# From -- ./inp_files/15888.got.cif
#   From: 2010.05.17/outbox.cif.g08.bks.cpg/sg20_8_cif.got.tgz:15888.got - 2010.06.03 22:52:26.
