data_PCOD9319076
_publ_section_title
;
Structure prediction by ZEFSAII (Michael W. Deem and Ramdas Pophale) SiO2 
 PCOD9319076
Probable space group: C 2 2 21
;
_chemical_formula_sum "Si O2"
_cell_formula_units_Z 32
_cell_length_a 8.072855
_cell_length_b 12.114849
_cell_length_c 13.770958
_cell_angle_alpha 90.000000
_cell_angle_beta 90.000000
_cell_angle_gamma 90.000000
_cell_volume 1346.819238
_symmetry_space_group_name_H-M "C 2 2 21"
_symmetry_group_IT_number 20
_symmetry_cell_setting 'orthorhombic'
loop_
_space_group_symop_operation_xyz
x,y,z
-x,-y,1/2+z
x,-y,-z
-x,y,1/2-z
1/2+x,1/2+y,z
1/2-x,1/2-y,1/2+z
1/2+x,1/2-y,-z
1/2-x,1/2+y,1/2-z
loop_
_atom_site_type_symbol
_atom_site_label
_atom_site_fract_x
_atom_site_fract_y
_atom_site_fract_z
Si Si1 0.480728 0.107764 0.934385
Si Si2 0.732338 0.031564 0.292009
Si Si3 0.193940 0.256901 0.598131
Si Si4 0.926055 0.970604 0.110738
O O1 0.632314 0.190801 0.912190
O O2 0.391292 0.056548 0.840037
O O3 0.350617 0.176649 0.000314
O O4 0.525608 0.000000 0.000000
O O5 0.681191 0.155685 0.315321
O O6 0.778784 0.010478 0.180985
O O7 0.904689 0.020896 0.350711
O O8 0.062898 0.160677 0.616779
O O9 0.899480 0.000000 0.000000
#
# Coordination Sequence:
#
# PCOD9319076 Si02
#       4
#     8   8   8   8
#     4  10  21  39  64  96 126 161 208 252 309 380
#     4  10  24  42  61  91 126 161 212 259 308 381
#     4  11  22  40  67  92 128 168 201 260 318 364
#     4  11  23  42  64  90 124 165 211 260 315 376
#
# _framework density 23.759685000000001
#
# number of rings (size 3 to 8) (size 9 to 14) (size 15 to 20)
#    0.000    1.500    0.000    6.000    0.000    7.000 
#    0.000   10.000    0.000    0.000    0.000    0.000 
#    0.000    0.000    0.000    0.000    0.000    0.000 
#
# Total GULP energy -89617.830244 kJ/mol
# GULP energy per Si atom -5601.114390 kJ/mol
# Density = 2.370561 g / cm^3
# Si number density = 23.759685 Si / 1000 Ang^3
#
#
#
# Elastic Constant Matrix: (Units=GPa)
#
#
# Indices 1 2 3 4 5 6 
#
# 1 75.0876 8.0236 15.6929 0.0000 0.0000 0.0000
# 2 8.0236 156.5908 37.5131 0.0000 0.0000 0.0000
# 3 15.6929 37.5131 158.1143 0.0000 0.0000 0.0000
# 4 0.0000 0.0000 0.0000 -7.7497 0.0000 0.0000
# 5 0.0000 0.0000 0.0000 0.0000 31.1953 0.0000
# 6 0.0000 0.0000 0.0000 0.0000 0.0000 40.3771
#
#
#
# Elastic Compliance Matrix: (Units=1/GPa)
#
#
# Indices 1 2 3 4 5 6 
#
# 1 0.013623 -0.000397 -0.001258 0.000000 0.000000 0.000000
# 2 -0.000397 0.006782 -0.001570 0.000000 0.000000 0.000000
# 3 -0.001258 -0.001570 0.006822 0.000000 0.000000 0.000000
# 4 0.000000 0.000000 0.000000 -0.129037 0.000000 0.000000
# 5 0.000000 0.000000 0.000000 0.000000 0.032056 0.000000
# 6 0.000000 0.000000 0.000000 0.000000 0.000000 0.024767
#
#
# Mechanical properties :
#
#
# Convention : Reuss Voigt Hill
#
# Bulk Modulus (GPa) = 48.12673 56.91688 52.52181
# Shear Modulus (GPa) = -158.16550 34.66876 -61.74837
#
# Velocity S-wave (km/s) = -8.16783 3.82402 -5.10344
# Velocity P-wave (km/s) = 8.28562 6.59581 3.54590
#
# Compressibility (1/GPa) = 0.02077847
#
# Stress axis : x y z
#
# Youngs Moduli (GPa) = 73.40488 147.43924 146.58821
#
# Poissons Ratio (x) = 0.05848 0.18441
# Poissons Ratio (y) = 0.02912 0.23011
# Poissons Ratio (z) = 0.09234 0.23145
#
# Static dielectric constant tensor:
#      x y z
#    x 1.935880 0.000000 0.000000 
#    y 0.000000 1.846930 0.000000 
#    z 0.000000 0.000000 1.940080 
# 
# From -- ./inp_files/18204.got.cif
#   From: 2010.05.17/outbox.cif.g08.bks.cpg/sg20_10_cif.got.tgz:18204.got - 2010.06.03 22:52:26.
