data_PCOD9319747
_publ_section_title
;
Structure prediction by ZEFSAII (Michael W. Deem and Ramdas Pophale) SiO2 
 PCOD9319747
Probable space group: C 2 2 21
;
_chemical_formula_sum "Si O2"
_cell_formula_units_Z 60
_cell_length_a 25.604861
_cell_length_b 9.212028
_cell_length_c 11.930591
_cell_angle_alpha 90.000000
_cell_angle_beta 90.000000
_cell_angle_gamma 90.000000
_cell_volume 2814.100670
_symmetry_space_group_name_H-M "C 2 2 21"
_symmetry_group_IT_number 20
_symmetry_cell_setting 'orthorhombic'
loop_
_space_group_symop_operation_xyz
x,y,z
-x,-y,1/2+z
x,-y,-z
-x,y,1/2-z
1/2+x,1/2+y,z
1/2-x,1/2-y,1/2+z
1/2+x,1/2-y,-z
1/2-x,1/2+y,1/2-z
loop_
_atom_site_type_symbol
_atom_site_label
_atom_site_fract_x
_atom_site_fract_y
_atom_site_fract_z
Si Si1 0.244206 0.643967 0.923351
Si Si2 0.140730 0.341066 0.211178
Si Si3 0.124412 0.621630 0.100300
Si Si4 0.204118 0.618026 0.573304
Si Si5 0.194049 0.113701 0.808570
Si Si6 0.091734 0.937369 0.747948
Si Si7 0.052280 0.000000 0.500000
Si Si8 0.474763 0.683825 0.637037
O O1 0.186103 0.686436 0.881394
O O2 0.278655 0.636495 0.811124
O O3 0.240219 0.500000 0.000000
O O4 0.274857 0.755066 0.998350
O O5 0.124977 0.508948 0.203523
O O6 0.169855 0.319567 0.328098
O O7 0.093951 0.227438 0.209414
O O8 0.170157 0.740323 0.131583
O O9 0.071916 0.715949 0.092325
O O10 0.125223 0.500000 0.000000
O O11 0.174738 0.500000 0.500000
O O12 0.257639 0.548369 0.621960
O O13 0.146739 0.005806 0.786449
O O14 0.083337 0.955102 0.613679
O O15 0.050138 0.034547 0.814229
O O16 0.016293 0.866649 0.455773
O O17 0.500000 0.752053 0.750000
#
# Coordination Sequence:
#
# PCOD9319747 Si02
#       8
#     8   8   8   8   8   8   4   8
#     4  11  22  38  62  86 136 176 218 255 302 358
#     4  11  23  38  57 100 128 166 212 260 311 371
#     4  11  23  41  64  92 130 166 204 262 329 391
#     4  11  22  36  55  87 134 170 210 253 297 358
#     4  10  22  39  61  91 127 176 221 256 297 369
#     4  10  22  40  69  91 122 159 216 266 309 388
#     4  10  22  44  72  94 112 154 218 268 330 384
#     4   9  22  46  66  91 122 155 205 274 325 389
#
# _framework density 21.321199
#
# number of rings (size 3 to 8) (size 9 to 14) (size 15 to 20)
#    0.000    1.600    0.000    4.400    4.667    4.267 
#    7.200    0.000    0.000    0.000    0.000    0.000 
#    0.000    0.000    0.000    0.000    0.000    0.000 
#
# Total GULP energy -167331.853524 kJ/mol
# GULP energy per Si atom -5577.728451 kJ/mol
# Density = 2.127267 g / cm^3
# Si number density = 21.321199 Si / 1000 Ang^3
#
#
#
# Elastic Constant Matrix: (Units=GPa)
#
#
# Indices 1 2 3 4 5 6 
#
# 1 38.8679 7.2093 0.9118 0.0000 0.0000 0.0000
# 2 7.2093 87.9321 28.5996 0.0000 0.0000 0.0000
# 3 0.9118 28.5996 107.5718 0.0000 0.0000 0.0000
# 4 0.0000 0.0000 0.0000 35.5281 0.0000 0.0000
# 5 0.0000 0.0000 0.0000 0.0000 -6.3872 0.0000
# 6 0.0000 0.0000 0.0000 0.0000 0.0000 5.2130
#
#
#
# Elastic Compliance Matrix: (Units=1/GPa)
#
#
# Indices 1 2 3 4 5 6 
#
# 1 0.026140 -0.002267 0.000381 0.000000 0.000000 0.000000
# 2 -0.002267 0.012646 -0.003343 0.000000 0.000000 0.000000
# 3 0.000381 -0.003343 0.010182 0.000000 0.000000 0.000000
# 4 0.000000 0.000000 0.000000 0.028147 0.000000 0.000000
# 5 0.000000 0.000000 0.000000 0.000000 -0.156562 0.000000
# 6 0.000000 0.000000 0.000000 0.000000 0.000000 0.191830
#
#
# Mechanical properties :
#
#
# Convention : Reuss Voigt Hill
#
# Bulk Modulus (GPa) = 25.96766 34.20147 30.08456
# Shear Modulus (GPa) = 36.85276 20.04750 28.45013
#
# Velocity S-wave (km/s) = 4.16198 3.06970 3.65685
# Velocity P-wave (km/s) = 5.94153 5.35163 5.65428
#
# Compressibility (1/GPa) = 0.03850944
#
# Stress axis : x y z
#
# Youngs Moduli (GPa) = 38.25595 79.07943 98.21626
#
# Poissons Ratio (x) = 0.17928 -0.03744
# Poissons Ratio (y) = 0.08673 0.32832
# Poissons Ratio (z) = -0.01458 0.26435
#
# Static dielectric constant tensor:
#      x y z
#    x 1.780870 0.000000 0.000000 
#    y 0.000000 1.892180 0.000000 
#    z 0.000000 0.000000 1.864550 
# 
# From -- ./inp_files/17082.got.cif
#   From: 2010.05.17/outbox.cif.g08.bks.cpg/sg20_9_cif.got.tgz:17082.got - 2010.06.03 22:52:26.
