data_PCOD9319415
_publ_section_title
;
Structure prediction by ZEFSAII (Michael W. Deem and Ramdas Pophale) SiO2 
 PCOD9319415
Probable space group: C 2 2 21
;
_chemical_formula_sum "Si O2"
_cell_formula_units_Z 32
_cell_length_a 10.013480
_cell_length_b 10.262241
_cell_length_c 12.761751
_cell_angle_alpha 90.000000
_cell_angle_beta 90.000000
_cell_angle_gamma 90.000000
_cell_volume 1311.407040
_symmetry_space_group_name_H-M "C 2 2 21"
_symmetry_group_IT_number 20
_symmetry_cell_setting 'orthorhombic'
loop_
_space_group_symop_operation_xyz
x,y,z
-x,-y,1/2+z
x,-y,-z
-x,y,1/2-z
1/2+x,1/2+y,z
1/2-x,1/2-y,1/2+z
1/2+x,1/2-y,-z
1/2-x,1/2+y,1/2-z
loop_
_atom_site_type_symbol
_atom_site_label
_atom_site_fract_x
_atom_site_fract_y
_atom_site_fract_z
Si Si1 0.866952 0.244122 0.197448
Si Si2 0.304522 0.804225 0.964813
Si Si3 0.251095 0.500965 0.712347
Si Si4 0.033215 0.125541 0.931778
O O1 0.831310 0.378229 0.256764
O O2 0.769817 0.120908 0.210917
O O3 0.000000 0.193957 0.250000
O O4 0.872976 0.289459 0.078382
O O5 0.308979 0.932385 0.892639
O O6 0.398685 0.701537 0.904228
O O7 0.147200 0.797106 0.998986
O O8 0.383705 0.570898 0.666672
O O9 0.993917 0.000000 0.000000
#
# Coordination Sequence:
#
# PCOD9319415 Si02
#       4
#     8   8   8   8
#     4  11  23  41  64  96 131 167 217 270 323 389
#     4  10  21  42  67  91 129 175 214 264 324 385
#     4  10  24  42  62  95 134 170 217 274 323 385
#     4   9  19  39  62  90 127 166 213 266 320 381
#
# _framework density 24.401271000000001
#
# number of rings (size 3 to 8) (size 9 to 14) (size 15 to 20)
#    0.000    2.000    0.000    5.250    0.000    8.000 
#    0.000    8.750    0.000    0.000    0.000    0.000 
#    0.000    0.000    0.000    0.000    0.000    0.000 
#
# Total GULP energy -89193.672035 kJ/mol
# GULP energy per Si atom -5574.604502 kJ/mol
# Density = 2.434573 g / cm^3
# Si number density = 24.401271 Si / 1000 Ang^3
#
#
#
# Elastic Constant Matrix: (Units=GPa)
#
#
# Indices 1 2 3 4 5 6 
#
# 1 90.5686 56.8515 10.2836 0.0000 0.0000 0.0000
# 2 56.8515 124.6184 10.1414 0.0000 0.0000 0.0000
# 3 10.2836 10.1414 59.1153 0.0000 0.0000 0.0000
# 4 0.0000 0.0000 0.0000 31.3354 0.0000 0.0000
# 5 0.0000 0.0000 0.0000 0.0000 24.4568 0.0000
# 6 0.0000 0.0000 0.0000 0.0000 0.0000 54.4002
#
#
#
# Elastic Compliance Matrix: (Units=1/GPa)
#
#
# Indices 1 2 3 4 5 6 
#
# 1 0.015605 -0.006996 -0.001514 0.000000 0.000000 0.000000
# 2 -0.006996 0.011274 -0.000717 0.000000 0.000000 0.000000
# 3 -0.001514 -0.000717 0.017303 0.000000 0.000000 0.000000
# 4 0.000000 0.000000 0.000000 0.031913 0.000000 0.000000
# 5 0.000000 0.000000 0.000000 0.000000 0.040888 0.000000
# 6 0.000000 0.000000 0.000000 0.000000 0.000000 0.018382
#
#
# Mechanical properties :
#
#
# Convention : Reuss Voigt Hill
#
# Bulk Modulus (GPa) = 38.86976 47.65061 43.26018
# Shear Modulus (GPa) = 30.78909 35.17353 32.98131
#
# Velocity S-wave (km/s) = 3.55601 3.80078 3.68043
# Velocity P-wave (km/s) = 5.72925 6.23150 5.98564
#
# Compressibility (1/GPa) = 0.02572694
#
# Stress axis : x y z
#
# Youngs Moduli (GPa) = 64.08368 88.69720 57.79488
#
# Poissons Ratio (x) = 0.62049 0.08753
# Poissons Ratio (y) = 0.44831 0.04145
# Poissons Ratio (z) = 0.09705 0.06361
#
# Static dielectric constant tensor:
#      x y z
#    x 2.002740 0.000000 0.000000 
#    y 0.000000 1.965150 0.000000 
#    z 0.000000 0.000000 2.030760 
# 
# From -- ./inp_files/18183.got.cif
#   From: 2010.05.17/outbox.cif.g08.bks.cpg/sg20_10_cif.got.tgz:18183.got - 2010.06.03 22:52:26.
