data_PCOD9319285
_publ_section_title
;
Structure prediction by ZEFSAII (Michael W. Deem and Ramdas Pophale) SiO2 
 PCOD9319285
Probable space group: C 2 2 21
;
_chemical_formula_sum "Si O2"
_cell_formula_units_Z 32
_cell_length_a 9.480588
_cell_length_b 16.032712
_cell_length_c 8.706518
_cell_angle_alpha 90.000000
_cell_angle_beta 90.000000
_cell_angle_gamma 90.000000
_cell_volume 1323.386705
_symmetry_space_group_name_H-M "C 2 2 21"
_symmetry_group_IT_number 20
_symmetry_cell_setting 'orthorhombic'
loop_
_space_group_symop_operation_xyz
x,y,z
-x,-y,1/2+z
x,-y,-z
-x,y,1/2-z
1/2+x,1/2+y,z
1/2-x,1/2-y,1/2+z
1/2+x,1/2-y,-z
1/2-x,1/2+y,1/2-z
loop_
_atom_site_type_symbol
_atom_site_label
_atom_site_fract_x
_atom_site_fract_y
_atom_site_fract_z
Si Si1 0.855701 0.209604 0.851639
Si Si2 0.361585 0.104245 0.150067
Si Si3 0.981979 0.914114 0.933655
Si Si4 0.764893 0.425285 0.149831
O O1 0.796864 0.302903 0.846079
O O2 0.750492 0.143311 0.777418
O O3 0.000000 0.209741 0.750000
O O4 0.898825 0.168656 0.013890
O O5 0.500000 0.107336 0.250000
O O6 0.280585 0.020494 0.202469
O O7 0.390835 0.091154 0.968906
O O8 0.000000 0.917204 0.750000
O O9 0.126601 0.085551 0.961764
O O10 0.913818 0.000000 0.000000
#
# Coordination Sequence:
#
# PCOD9319285 Si02
#       4
#     8   8   8   8
#     4   9  21  41  67  97 126 162 212 269 322 382
#     4  10  21  41  63  88 132 172 215 261 312 379
#     4  11  21  38  69  98 127 159 205 269 331 377
#     4  10  21  43  68  91 130 171 213 264 320 383
#
# _framework density 24.180384
#
# number of rings (size 3 to 8) (size 9 to 14) (size 15 to 20)
#    0.000    2.000    2.500    2.250    0.000    2.000 
#    0.000   25.000    0.000    0.000    0.000    0.000 
#    0.000    0.000    0.000    0.000    0.000    0.000 
#
# Total GULP energy -89225.908448 kJ/mol
# GULP energy per Si atom -5576.619278 kJ/mol
# Density = 2.412535 g / cm^3
# Si number density = 24.180384 Si / 1000 Ang^3
#
#
#
# Elastic Constant Matrix: (Units=GPa)
#
#
# Indices 1 2 3 4 5 6 
#
# 1 38.4056 49.5001 32.0813 0.0000 0.0000 0.0000
# 2 49.5001 280.5983 89.1297 0.0000 0.0000 0.0000
# 3 32.0813 89.1297 140.4688 0.0000 0.0000 0.0000
# 4 0.0000 0.0000 0.0000 27.9459 0.0000 0.0000
# 5 0.0000 0.0000 0.0000 0.0000 32.4980 0.0000
# 6 0.0000 0.0000 0.0000 0.0000 0.0000 27.0475
#
#
#
# Elastic Compliance Matrix: (Units=1/GPa)
#
#
# Indices 1 2 3 4 5 6 
#
# 1 0.036647 -0.004767 -0.005345 0.000000 0.000000 0.000000
# 2 -0.004767 0.005084 -0.002137 0.000000 0.000000 0.000000
# 3 -0.005345 -0.002137 0.009696 0.000000 0.000000 0.000000
# 4 0.000000 0.000000 0.000000 0.035783 0.000000 0.000000
# 5 0.000000 0.000000 0.000000 0.000000 0.030771 0.000000
# 6 0.000000 0.000000 0.000000 0.000000 0.000000 0.036972
#
#
# Mechanical properties :
#
#
# Convention : Reuss Voigt Hill
#
# Bulk Modulus (GPa) = 37.13562 88.98830 63.06196
# Shear Modulus (GPa) = 26.53561 36.74907 31.64234
#
# Velocity S-wave (km/s) = 3.31630 3.90268 3.62138
# Velocity P-wave (km/s) = 5.48223 7.56238 6.60471
#
# Compressibility (1/GPa) = 0.02692832
#
# Stress axis : x y z
#
# Youngs Moduli (GPa) = 27.28752 196.71435 103.13988
#
# Poissons Ratio (x) = 0.93775 0.55127
# Poissons Ratio (y) = 0.13008 0.22039
# Poissons Ratio (z) = 0.14585 0.42035
#
# Static dielectric constant tensor:
#      x y z
#    x 2.137630 0.000000 0.000000 
#    y 0.000000 1.942870 0.000000 
#    z 0.000000 0.000000 1.984980 
# 
# From -- ./inp_files/6898.got.cif
#   From: 2010.05.17/outbox.cif.g08.bks.cpg/sg20_4_cif.got.tgz:6898.got - 2010.06.03 22:52:26.
