data_PCOD9319984
_publ_section_title
;
Structure prediction by ZEFSAII (Michael W. Deem and Ramdas Pophale) SiO2 
 PCOD9319984
Probable space group: C 2 2 21
;
_chemical_formula_sum "Si O2"
_cell_formula_units_Z 56
_cell_length_a 10.921522
_cell_length_b 15.402603
_cell_length_c 15.191426
_cell_angle_alpha 90.000000
_cell_angle_beta 90.000000
_cell_angle_gamma 90.000000
_cell_volume 2555.499669
_symmetry_space_group_name_H-M "C 2 2 21"
_symmetry_group_IT_number 20
_symmetry_cell_setting 'orthorhombic'
loop_
_space_group_symop_operation_xyz
x,y,z
-x,-y,1/2+z
x,-y,-z
-x,y,1/2-z
1/2+x,1/2+y,z
1/2-x,1/2-y,1/2+z
1/2+x,1/2-y,-z
1/2-x,1/2+y,1/2-z
loop_
_atom_site_type_symbol
_atom_site_label
_atom_site_fract_x
_atom_site_fract_y
_atom_site_fract_z
Si Si1 0.674983 0.452751 0.906929
Si Si2 0.423449 0.147349 0.077333
Si Si3 0.523934 0.166458 0.887637
Si Si4 0.442380 0.345346 0.893646
Si Si5 0.177527 0.831456 0.412179
Si Si6 0.435078 0.021971 0.330135
Si Si7 0.342872 0.491943 0.212601
O O1 0.812141 0.416404 0.899315
O O2 0.580746 0.373482 0.916238
O O3 0.640828 0.507488 0.818617
O O4 0.665916 0.500000 0.000000
O O5 0.387567 0.241082 0.115528
O O6 0.546805 0.092471 0.095226
O O7 0.442347 0.164025 0.975250
O O8 0.461282 0.252200 0.846859
O O9 0.672543 0.174631 0.903105
O O10 0.504761 0.071538 0.846791
O O11 0.397159 0.420011 0.828272
O O12 0.363117 0.347758 0.985112
O O13 0.128202 0.907702 0.347403
O O14 0.500000 0.069058 0.250000
O O15 0.299611 0.002707 0.304510
#
# Coordination Sequence:
#
# PCOD9319984 Si02
#       7
#     8   8   8   8   8   8   8
#     4  12  24  41  65  96 136 178 223 276 338 399
#     4  11  22  41  66  95 135 170 222 282 335 392
#     4  10  22  41  68  96 129 172 226 274 331 396
#     4  11  23  42  69  99 135 175 219 279 339 404
#     4  10  22  45  69 102 130 177 226 275 333 409
#     4  11  22  40  63  94 125 172 221 277 325 393
#     4  11  24  43  70  94 133 176 226 273 335 399
#
# _framework density 21.913523000000001
#
# number of rings (size 3 to 8) (size 9 to 14) (size 15 to 20)
#    0.000    1.143    2.857    3.857    0.000    3.429 
#    0.000    4.286    0.000    0.000    0.000    0.000 
#    0.000    0.000    0.000    0.000    0.000    0.000 
#
# Total GULP energy -155975.658134 kJ/mol
# GULP energy per Si atom -5570.559219 kJ/mol
# Density = 2.186365 g / cm^3
# Si number density = 21.913523 Si / 1000 Ang^3
#
#
#
# Elastic Constant Matrix: (Units=GPa)
#
#
# Indices 1 2 3 4 5 6 
#
# 1 42.0686 29.8592 -2.2631 0.0000 0.0000 0.0000
# 2 29.8592 104.8448 76.5515 0.0000 0.0000 0.0000
# 3 -2.2631 76.5515 107.8636 0.0000 0.0000 0.0000
# 4 0.0000 0.0000 0.0000 -738.1878 0.0000 0.0000
# 5 0.0000 0.0000 0.0000 0.0000 32.1988 0.0000
# 6 0.0000 0.0000 0.0000 0.0000 0.0000 288.6561
#
#
#
# Elastic Compliance Matrix: (Units=1/GPa)
#
#
# Indices 1 2 3 4 5 6 
#
# 1 0.044599 -0.027780 0.020651 0.000000 0.000000 0.000000
# 2 -0.027780 0.037100 -0.026913 0.000000 0.000000 0.000000
# 3 0.020651 -0.026913 0.028804 0.000000 0.000000 0.000000
# 4 0.000000 0.000000 0.000000 -0.001355 0.000000 0.000000
# 5 0.000000 0.000000 0.000000 0.000000 0.031057 0.000000
# 6 0.000000 0.000000 0.000000 0.000000 0.000000 0.003464
#
#
# Mechanical properties :
#
#
# Convention : Reuss Voigt Hill
#
# Bulk Modulus (GPa) = 23.57347 51.45246 37.51297
# Shear Modulus (GPa) = 22.13442 -73.42462 -25.64510
#
# Velocity S-wave (km/s) = 3.18162 -5.79476 -3.42466
# Velocity P-wave (km/s) = 4.92725 4.60886 1.23211
#
# Compressibility (1/GPa) = 0.04242057
#
# Stress axis : x y z
#
# Youngs Moduli (GPa) = 22.42190 26.95452 34.71701
#
# Poissons Ratio (x) = 0.74880 -0.71696
# Poissons Ratio (y) = 0.62288 0.93433
# Poissons Ratio (z) = -0.46304 0.72542
#
# Static dielectric constant tensor:
#      x y z
#    x 2.684760 0.000000 0.000000 
#    y 0.000000 1.892980 0.000000 
#    z 0.000000 0.000000 -0.267780 
# 
# From -- ./inp_files/20034.got.cif
#   From: 2010.05.17/outbox.cif.g08.bks.cpg/sg20_11_cif.got.tgz:20034.got - 2010.06.03 22:52:26.
