data_PCOD9319380
_publ_section_title
;
Structure prediction by ZEFSAII (Michael W. Deem and Ramdas Pophale) SiO2 
 PCOD9319380
Probable space group: C 2 2 21
;
_chemical_formula_sum "Si O2"
_cell_formula_units_Z 52
_cell_length_a 12.980905
_cell_length_b 7.165305
_cell_length_c 19.697373
_cell_angle_alpha 90.000000
_cell_angle_beta 90.000000
_cell_angle_gamma 90.000000
_cell_volume 1832.094884
_symmetry_space_group_name_H-M "C 2 2 21"
_symmetry_group_IT_number 20
_symmetry_cell_setting 'orthorhombic'
loop_
_space_group_symop_operation_xyz
x,y,z
-x,-y,1/2+z
x,-y,-z
-x,y,1/2-z
1/2+x,1/2+y,z
1/2-x,1/2-y,1/2+z
1/2+x,1/2-y,-z
1/2-x,1/2+y,1/2-z
loop_
_atom_site_type_symbol
_atom_site_label
_atom_site_fract_x
_atom_site_fract_y
_atom_site_fract_z
Si Si1 0.463583 0.814638 0.546728
Si Si2 0.324574 0.500000 0.500000
Si Si3 0.053456 0.564509 0.653870
Si Si4 0.744004 0.900007 0.714520
Si Si5 0.963764 0.964798 0.676502
Si Si6 0.831100 0.237428 0.030553
Si Si7 0.187960 0.017358 0.643850
O O1 0.391846 0.631409 0.547834
O O2 0.485502 0.902493 0.620034
O O3 0.563248 0.728900 0.509372
O O4 0.436901 0.000000 0.500000
O O5 0.245901 0.661722 0.478544
O O6 0.131115 0.493147 0.711271
O O7 0.132120 0.631267 0.593813
O O8 0.981272 0.739478 0.671266
O O9 0.841715 0.998354 0.677955
O O10 0.781318 0.882401 0.792772
O O11 0.729008 0.709654 0.673043
O O12 0.000000 0.033312 0.750000
O O13 0.064032 0.026869 0.634312
O O14 0.779751 0.066821 0.071367
#
# Coordination Sequence:
#
# PCOD9319380 Si02
#       7
#     8   4   8   8   8   8   8
#     4  10  24  46  64  98 135 166 224 277 317 394
#     4  12  24  44  72  90 130 182 218 266 348 380
#     4  10  21  42  63  92 133 160 211 276 310 387
#     4  11  22  41  65  94 126 174 206 258 338 379
#     4   9  20  39  60  88 124 162 204 256 315 379
#     4  10  22  46  62  94 134 163 219 281 309 390
#     4  10  22  40  65  93 129 163 217 267 314 396
#
# _framework density 28.382809000000002
#
# number of rings (size 3 to 8) (size 9 to 14) (size 15 to 20)
#    0.000    1.846    2.308    2.769    4.308    3.692 
#    1.385    8.462    0.000    0.000    0.000    0.000 
#    0.000    0.000    0.000    0.000    0.000    0.000 
#
# Total GULP energy -145276.557045 kJ/mol
# GULP energy per Si atom -5587.559886 kJ/mol
# Density = 2.831821 g / cm^3
# Si number density = 28.382809 Si / 1000 Ang^3
#
#
#
# Elastic Constant Matrix: (Units=GPa)
#
#
# Indices 1 2 3 4 5 6 
#
# 1 118.5867 16.6883 29.3215 0.0000 0.0000 0.0000
# 2 16.6883 98.7809 40.0512 0.0000 0.0000 0.0000
# 3 29.3215 40.0512 146.2334 0.0000 0.0000 0.0000
# 4 0.0000 0.0000 0.0000 49.9193 0.0000 0.0000
# 5 0.0000 0.0000 0.0000 0.0000 39.9345 0.0000
# 6 0.0000 0.0000 0.0000 0.0000 0.0000 42.8326
#
#
#
# Elastic Compliance Matrix: (Units=1/GPa)
#
#
# Indices 1 2 3 4 5 6 
#
# 1 0.008940 -0.000881 -0.001551 0.000000 0.000000 0.000000
# 2 -0.000881 0.011475 -0.002966 0.000000 0.000000 0.000000
# 3 -0.001551 -0.002966 0.007962 0.000000 0.000000 0.000000
# 4 0.000000 0.000000 0.000000 0.020032 0.000000 0.000000
# 5 0.000000 0.000000 0.000000 0.000000 0.025041 0.000000
# 6 0.000000 0.000000 0.000000 0.000000 0.000000 0.023347
#
#
# Mechanical properties :
#
#
# Convention : Reuss Voigt Hill
#
# Bulk Modulus (GPa) = 56.88441 59.52477 58.20459
# Shear Modulus (GPa) = 44.07063 45.03997 44.55530
#
# Velocity S-wave (km/s) = 3.94473 3.98788 3.96637
# Velocity P-wave (km/s) = 6.39009 6.49784 6.44419
#
# Compressibility (1/GPa) = 0.01757951
#
# Stress axis : x y z
#
# Youngs Moduli (GPa) = 111.85384 87.14642 125.59999
#
# Poissons Ratio (x) = 0.07681 0.19483
# Poissons Ratio (y) = 0.09859 0.37254
# Poissons Ratio (z) = 0.17351 0.25848
#
# Static dielectric constant tensor:
#      x y z
#    x 2.233050 0.000000 0.000000 
#    y 0.000000 2.415670 0.000000 
#    z 0.000000 0.000000 2.271750 
# 
# From -- ./inp_files/30290.got.cif
#   From: 2010.05.17/outbox.cif.g08.bks.cpg/sg20_16_cif.got.tgz:30290.got - 2010.06.03 22:52:26.
