data_PCOD9319452
_publ_section_title
;
Structure prediction by ZEFSAII (Michael W. Deem and Ramdas Pophale) SiO2 
 PCOD9319452
Probable space group: C 2 2 21
;
_chemical_formula_sum "Si O2"
_cell_formula_units_Z 36
_cell_length_a 8.827709
_cell_length_b 12.521975
_cell_length_c 13.418007
_cell_angle_alpha 90.000000
_cell_angle_beta 90.000000
_cell_angle_gamma 90.000000
_cell_volume 1483.231209
_symmetry_space_group_name_H-M "C 2 2 21"
_symmetry_group_IT_number 20
_symmetry_cell_setting 'orthorhombic'
loop_
_space_group_symop_operation_xyz
x,y,z
-x,-y,1/2+z
x,-y,-z
-x,y,1/2-z
1/2+x,1/2+y,z
1/2-x,1/2-y,1/2+z
1/2+x,1/2-y,-z
1/2-x,1/2+y,1/2-z
loop_
_atom_site_type_symbol
_atom_site_label
_atom_site_fract_x
_atom_site_fract_y
_atom_site_fract_z
Si Si1 0.152778 0.149949 0.706666
Si Si2 0.892049 0.535711 0.841684
Si Si3 0.313818 0.657791 0.360310
Si Si4 0.133267 0.912154 0.633246
Si Si5 0.115726 0.500000 0.000000
O O1 0.273853 0.118180 0.792998
O O2 0.232972 0.229628 0.630748
O O3 0.000000 0.200472 0.750000
O O4 0.103550 0.037627 0.657649
O O5 0.796114 0.438886 0.887068
O O6 0.000000 0.499902 0.750000
O O7 0.010568 0.567780 0.925620
O O8 0.332782 0.640984 0.239961
O O9 0.479564 0.640939 0.406272
O O10 0.277752 0.920878 0.563148
#
# Coordination Sequence:
#
# PCOD9319452 Si02
#       5
#     8   8   8   8   4
#     4  11  21  42  74  99 138 188 235 294 352 420
#     4  11  22  42  68 103 136 187 234 285 362 415
#     4  10  21  42  71  96 132 189 233 281 356 416
#     4  10  22  42  64 103 137 181 229 287 348 417
#     4  12  24  40  70 100 150 180 232 302 348 430
#
# _framework density 24.271332999999998
#
# number of rings (size 3 to 8) (size 9 to 14) (size 15 to 20)
#    0.000    1.333    8.889    0.667    3.111    0.889 
#    0.000    4.444    0.000    0.000    0.000    0.000 
#    0.000    0.000    0.000    0.000    0.000    0.000 
#
# Total GULP energy -100643.313315 kJ/mol
# GULP energy per Si atom -5591.295184 kJ/mol
# Density = 2.421609 g / cm^3
# Si number density = 24.271333 Si / 1000 Ang^3
#
#
#
# Elastic Constant Matrix: (Units=GPa)
#
#
# Indices 1 2 3 4 5 6 
#
# 1 182.2708 31.4556 38.3721 0.0000 0.0000 0.0000
# 2 31.4556 92.3711 -10.5549 0.0000 0.0000 0.0000
# 3 38.3721 -10.5549 55.7664 0.0000 0.0000 0.0000
# 4 0.0000 0.0000 0.0000 8.8370 0.0000 0.0000
# 5 0.0000 0.0000 0.0000 0.0000 56.5798 0.0000
# 6 0.0000 0.0000 0.0000 0.0000 0.0000 -6.6083
#
#
#
# Elastic Compliance Matrix: (Units=1/GPa)
#
#
# Indices 1 2 3 4 5 6 
#
# 1 0.007180 -0.003076 -0.005523 0.000000 0.000000 0.000000
# 2 -0.003076 0.012383 0.004460 0.000000 0.000000 0.000000
# 3 -0.005523 0.004460 0.022576 0.000000 0.000000 0.000000
# 4 0.000000 0.000000 0.000000 0.113161 0.000000 0.000000
# 5 0.000000 0.000000 0.000000 0.000000 0.017674 0.000000
# 6 0.000000 0.000000 0.000000 0.000000 0.000000 -0.151324
#
#
# Mechanical properties :
#
#
# Convention : Reuss Voigt Hill
#
# Bulk Modulus (GPa) = 29.53119 49.88377 39.70748
# Shear Modulus (GPa) = 121.31829 29.83738 75.57784
#
# Velocity S-wave (km/s) = 7.07762 3.50998 5.58626
# Velocity P-wave (km/s) = 8.88728 6.08472 7.61602
#
# Compressibility (1/GPa) = 0.03386250
#
# Stress axis : x y z
#
# Youngs Moduli (GPa) = 139.27949 80.75554 44.29456
#
# Poissons Ratio (x) = 0.24841 0.24462
# Poissons Ratio (y) = 0.42843 -0.19757
# Poissons Ratio (z) = 0.76918 -0.36019
#
# Static dielectric constant tensor:
#      x y z
#    x 1.972170 0.000000 0.000000 
#    y 0.000000 1.921710 0.000000 
#    z 0.000000 0.000000 1.997800 
# 
# From -- ./inp_files/23258.got.cif
#   From: 2010.05.17/outbox.cif.g08.bks.cpg/sg20_12_cif.got.tgz:23258.got - 2010.06.03 22:52:26.
