data_PCOD9319738
_publ_section_title
;
Structure prediction by ZEFSAII (Michael W. Deem and Ramdas Pophale) SiO2 
 PCOD9319738
Probable space group: C 2 2 21
;
_chemical_formula_sum "Si O2"
_cell_formula_units_Z 44
_cell_length_a 27.492919
_cell_length_b 9.479437
_cell_length_c 6.796583
_cell_angle_alpha 90.000000
_cell_angle_beta 90.000000
_cell_angle_gamma 90.000000
_cell_volume 1771.307747
_symmetry_space_group_name_H-M "C 2 2 21"
_symmetry_group_IT_number 20
_symmetry_cell_setting 'orthorhombic'
loop_
_space_group_symop_operation_xyz
x,y,z
-x,-y,1/2+z
x,-y,-z
-x,y,1/2-z
1/2+x,1/2+y,z
1/2-x,1/2-y,1/2+z
1/2+x,1/2-y,-z
1/2-x,1/2+y,1/2-z
loop_
_atom_site_type_symbol
_atom_site_label
_atom_site_fract_x
_atom_site_fract_y
_atom_site_fract_z
Si Si1 0.947530 0.446476 0.277274
Si Si2 0.116816 0.806888 0.828715
Si Si3 0.285706 0.819788 0.336925
Si Si4 0.413868 0.238365 0.220167
Si Si5 0.924908 0.000000 0.000000
Si Si6 0.305453 0.874557 0.790350
O O1 0.940565 0.500000 0.500000
O O2 0.905101 0.337286 0.239529
O O3 0.944292 0.597112 0.175852
O O4 0.000000 0.378932 0.250000
O O5 0.174360 0.799540 0.797829
O O6 0.101170 0.935417 0.692760
O O7 0.096215 0.795719 0.054013
O O8 0.301738 0.864181 0.553945
O O9 0.234077 0.742631 0.354063
O O10 0.292452 0.955814 0.192198
O O11 0.443392 0.357519 0.100679
O O12 0.359092 0.185424 0.159721
#
# Coordination Sequence:
#
# PCOD9319738 Si02
#       6
#     8   8   8   8   4   8
#     4  10  22  44  77 100 130 174 230 288 335 397
#     4  10  23  45  66  98 135 177 222 278 341 396
#     4  10  22  39  60  88 128 171 222 275 331 393
#     4  10  23  45  66  98 135 177 222 278 341 396
#     4  12  26  38  72  94 138 174 218 264 336 414
#     4  10  22  39  60  88 128 171 222 275 331 393
#
# _framework density 24.840403999999999
#
# number of rings (size 3 to 8) (size 9 to 14) (size 15 to 20)
#    0.000    1.818    1.818    0.545    7.636    0.727 
#    0.000    0.909    0.000    0.000    0.000    0.000 
#    0.000    0.000    0.000    0.000    0.000    0.000 
#
# Total GULP energy -122536.061731 kJ/mol
# GULP energy per Si atom -5569.820988 kJ/mol
# Density = 2.478387 g / cm^3
# Si number density = 24.840404 Si / 1000 Ang^3
#
#
#
# Elastic Constant Matrix: (Units=GPa)
#
#
# Indices 1 2 3 4 5 6 
#
# 1 60.3586 -15.5501 -1.8171 0.0000 0.0000 0.0000
# 2 -15.5501 101.0126 18.2273 0.0000 0.0000 0.0000
# 3 -1.8171 18.2273 85.4251 0.0000 0.0000 0.0000
# 4 0.0000 0.0000 0.0000 23.8400 0.0000 0.0000
# 5 0.0000 0.0000 0.0000 0.0000 25.3711 0.0000
# 6 0.0000 0.0000 0.0000 0.0000 0.0000 17.9676
#
#
#
# Elastic Compliance Matrix: (Units=1/GPa)
#
#
# Indices 1 2 3 4 5 6 
#
# 1 0.017255 0.002694 -0.000208 0.000000 0.000000 0.000000
# 2 0.002694 0.010717 -0.002229 0.000000 0.000000 0.000000
# 3 -0.000208 -0.002229 0.012177 0.000000 0.000000 0.000000
# 4 0.000000 0.000000 0.000000 0.041946 0.000000 0.000000
# 5 0.000000 0.000000 0.000000 0.000000 0.039415 0.000000
# 6 0.000000 0.000000 0.000000 0.000000 0.000000 0.055656
#
#
# Mechanical properties :
#
#
# Convention : Reuss Voigt Hill
#
# Bulk Modulus (GPa) = 24.59237 27.61294 26.10266
# Shear Modulus (GPa) = 26.28710 29.83149 28.05930
#
# Velocity S-wave (km/s) = 3.25659 3.46920 3.36457
# Velocity P-wave (km/s) = 4.90532 5.21415 5.06209
#
# Compressibility (1/GPa) = 0.04066302
#
# Stress axis : x y z
#
# Youngs Moduli (GPa) = 57.95289 93.31208 82.11921
#
# Poissons Ratio (x) = -0.25137 0.01706
# Poissons Ratio (y) = -0.15611 0.18307
# Poissons Ratio (z) = 0.01204 0.20803
#
# Static dielectric constant tensor:
#      x y z
#    x 1.927420 0.000000 0.000000 
#    y 0.000000 2.036380 0.000000 
#    z 0.000000 0.000000 2.212510 
# 
# From -- ./inp_files/11369.got.cif
#   From: 2010.05.17/outbox.cif.g08.bks.cpg/sg20_6_cif.got.tgz:11369.got - 2010.06.03 22:52:26.
