data_PCOD9319505
_publ_section_title
;
Structure prediction by ZEFSAII (Michael W. Deem and Ramdas Pophale) SiO2 
 PCOD9319505
Probable space group: C 2 2 21
;
_chemical_formula_sum "Si O2"
_cell_formula_units_Z 52
_cell_length_a 20.769012
_cell_length_b 16.113191
_cell_length_c 7.791751
_cell_angle_alpha 90.000000
_cell_angle_beta 90.000000
_cell_angle_gamma 90.000000
_cell_volume 2607.548877
_symmetry_space_group_name_H-M "C 2 2 21"
_symmetry_group_IT_number 20
_symmetry_cell_setting 'orthorhombic'
loop_
_space_group_symop_operation_xyz
x,y,z
-x,-y,1/2+z
x,-y,-z
-x,y,1/2-z
1/2+x,1/2+y,z
1/2-x,1/2-y,1/2+z
1/2+x,1/2-y,-z
1/2-x,1/2+y,1/2-z
loop_
_atom_site_type_symbol
_atom_site_label
_atom_site_fract_x
_atom_site_fract_y
_atom_site_fract_z
Si Si1 0.793371 0.824902 0.474846
Si Si2 0.174898 0.571107 0.642260
Si Si3 0.000000 0.211383 0.750000
Si Si4 0.278998 0.331673 0.886134
Si Si5 0.403113 0.775071 0.000159
Si Si6 0.927376 0.098014 0.497771
Si Si7 0.213922 0.500000 0.000000
Si Si8 0.500000 0.693425 0.250000
O O1 0.740509 0.876139 0.370371
O O2 0.780676 0.729456 0.429974
O O3 0.785568 0.833062 0.680212
O O4 0.861190 0.865338 0.433942
O O5 0.179042 0.500000 0.500000
O O6 0.122697 0.636813 0.569780
O O7 0.172864 0.531391 0.833349
O O8 0.938107 0.264716 0.814240
O O9 0.981596 0.145875 0.602968
O O10 0.259436 0.423030 0.946187
O O11 0.342384 0.288656 0.973020
O O12 0.462824 0.752746 0.121202
O O13 0.942856 0.132541 0.310280
O O14 0.929231 0.000000 0.500000
#
# Coordination Sequence:
#
# PCOD9319505 Si02
#       8
#     8   8   4   8   8   8   4   4
#     4  11  23  40  65  93 134 176 217 273 349 421
#     4  11  24  45  67 101 137 169 227 289 349 417
#     4  10  25  40  63  94 130 188 238 279 340 409
#     4  11  23  40  64  97 132 175 217 281 345 418
#     4  10  23  44  65  93 130 180 227 281 340 420
#     4  11  23  38  62  91 129 172 219 277 328 400
#     4  12  26  40  68 106 136 176 222 284 362 408
#     4  10  21  44  59  84 124 174 222 263 324 399
#
# _framework density 19.942101000000001
#
# number of rings (size 3 to 8) (size 9 to 14) (size 15 to 20)
#    0.000    1.231    3.077    2.769    6.462    0.000 
#    8.308    0.769    0.000    0.000    0.000    0.000 
#    0.000    0.000    0.000    0.000    0.000    0.000 
#
# Total GULP energy -144880.825284 kJ/mol
# GULP energy per Si atom -5572.339434 kJ/mol
# Density = 1.989671 g / cm^3
# Si number density = 19.942101 Si / 1000 Ang^3
#
#
#
# Elastic Constant Matrix: (Units=GPa)
#
#
# Indices 1 2 3 4 5 6 
#
# 1 46.3133 17.8252 -17.0146 0.0000 0.0000 0.0000
# 2 17.8252 131.4313 17.3460 0.0000 0.0000 0.0000
# 3 -17.0146 17.3460 58.6218 0.0000 0.0000 0.0000
# 4 0.0000 0.0000 0.0000 27.0036 0.0000 0.0000
# 5 0.0000 0.0000 0.0000 0.0000 30.7477 0.0000
# 6 0.0000 0.0000 0.0000 0.0000 0.0000 11.6671
#
#
#
# Elastic Compliance Matrix: (Units=1/GPa)
#
#
# Indices 1 2 3 4 5 6 
#
# 1 0.026855 -0.004861 0.009233 0.000000 0.000000 0.000000
# 2 -0.004861 0.008797 -0.004014 0.000000 0.000000 0.000000
# 3 0.009233 -0.004014 0.020926 0.000000 0.000000 0.000000
# 4 0.000000 0.000000 0.000000 0.037032 0.000000 0.000000
# 5 0.000000 0.000000 0.000000 0.000000 0.032523 0.000000
# 6 0.000000 0.000000 0.000000 0.000000 0.000000 0.085711
#
#
# Mechanical properties :
#
#
# Convention : Reuss Voigt Hill
#
# Bulk Modulus (GPa) = 17.45375 30.29774 23.87574
# Shear Modulus (GPa) = 21.71778 28.43101 25.07440
#
# Velocity S-wave (km/s) = 3.30364 3.77991 3.54977
# Velocity P-wave (km/s) = 4.82942 5.85458 5.36654
#
# Compressibility (1/GPa) = 0.05729427
#
# Stress axis : x y z
#
# Youngs Moduli (GPa) = 37.23743 113.66868 47.78769
#
# Poissons Ratio (x) = 0.55250 -0.44121
# Poissons Ratio (y) = 0.18100 0.19182
# Poissons Ratio (z) = -0.34380 0.45626
#
# Static dielectric constant tensor:
#      x y z
#    x 1.731900 0.000000 0.000000 
#    y 0.000000 1.662070 0.000000 
#    z 0.000000 0.000000 2.116260 
# 
# From -- ./inp_files/10173.got.cif
#   From: 2010.05.17/outbox.cif.g08.bks.cpg/sg20_6_cif.got.tgz:10173.got - 2010.06.03 22:52:26.
