data_PCOD9319103
_publ_section_title
;
Structure prediction by ZEFSAII (Michael W. Deem and Ramdas Pophale) SiO2 
 PCOD9319103
Probable space group: C 2 2 21
;
_chemical_formula_sum "Si O2"
_cell_formula_units_Z 40
_cell_length_a 23.312297
_cell_length_b 7.356757
_cell_length_c 9.352984
_cell_angle_alpha 90.000000
_cell_angle_beta 90.000000
_cell_angle_gamma 90.000000
_cell_volume 1604.063918
_symmetry_space_group_name_H-M "C 2 2 21"
_symmetry_group_IT_number 20
_symmetry_cell_setting 'orthorhombic'
loop_
_space_group_symop_operation_xyz
x,y,z
-x,-y,1/2+z
x,-y,-z
-x,y,1/2-z
1/2+x,1/2+y,z
1/2-x,1/2-y,1/2+z
1/2+x,1/2-y,-z
1/2-x,1/2+y,1/2-z
loop_
_atom_site_type_symbol
_atom_site_label
_atom_site_fract_x
_atom_site_fract_y
_atom_site_fract_z
Si Si1 0.947371 0.000000 0.500000
Si Si2 0.179852 0.297512 0.704443
Si Si3 0.190891 0.120866 0.204596
Si Si4 0.000000 0.763192 0.750000
Si Si5 0.607493 0.287948 0.555029
Si Si6 0.118074 0.320231 0.961957
O O1 0.974446 0.878295 0.621407
O O2 0.920558 0.839364 0.400907
O O3 0.243699 0.347953 0.660439
O O4 0.129824 0.311494 0.587727
O O5 0.162309 0.402790 0.847965
O O6 0.184516 0.091433 0.762166
O O7 0.165725 0.206112 0.349888
O O8 0.150950 0.203849 0.081751
O O9 0.942079 0.700560 0.841935
O O10 0.593890 0.500000 0.500000
O O11 0.082318 0.500000 0.000000
#
# Coordination Sequence:
#
# PCOD9319103 Si02
#       6
#     4   8   8   4   8   8
#     4  12  24  46  76  94 136 186 234 300 368 416
#     4  11  22  39  67 103 146 191 235 298 367 427
#     4  11  21  40  65 102 145 185 239 298 359 427
#     4  12  22  42  78 100 132 192 244 300 358 446
#     4  10  21  39  66 103 135 185 244 287 361 435
#     4  12  24  43  66 101 142 187 238 292 355 436
#
# _framework density 24.936661000000001
#
# number of rings (size 3 to 8) (size 9 to 14) (size 15 to 20)
#    0.000    0.800    5.000    3.600    0.000    1.600 
#    0.000    4.000    0.000    0.000    0.000    0.000 
#    0.000    0.000    0.000    0.000    0.000    0.000 
#
# Total GULP energy -111342.450287 kJ/mol
# GULP energy per Si atom -5567.122514 kJ/mol
# Density = 2.487990 g / cm^3
# Si number density = 24.936661 Si / 1000 Ang^3
#
#
#
# Elastic Constant Matrix: (Units=GPa)
#
#
# Indices 1 2 3 4 5 6 
#
# 1 100.7975 20.2369 23.9835 0.0000 0.0000 0.0000
# 2 20.2369 88.3069 -4.3904 0.0000 0.0000 0.0000
# 3 23.9835 -4.3904 109.4676 0.0000 0.0000 0.0000
# 4 0.0000 0.0000 0.0000 10.1169 0.0000 0.0000
# 5 0.0000 0.0000 0.0000 0.0000 31.1923 0.0000
# 6 0.0000 0.0000 0.0000 0.0000 0.0000 26.1324
#
#
#
# Elastic Compliance Matrix: (Units=1/GPa)
#
#
# Indices 1 2 3 4 5 6 
#
# 1 0.011057 -0.002660 -0.002529 0.000000 0.000000 0.000000
# 2 -0.002660 0.011986 0.001063 0.000000 0.000000 0.000000
# 3 -0.002529 0.001063 0.009732 0.000000 0.000000 0.000000
# 4 0.000000 0.000000 0.000000 0.098844 0.000000 0.000000
# 5 0.000000 0.000000 0.000000 0.000000 0.032059 0.000000
# 6 0.000000 0.000000 0.000000 0.000000 0.000000 0.038267
#
#
# Mechanical properties :
#
#
# Convention : Reuss Voigt Hill
#
# Bulk Modulus (GPa) = 40.77540 42.02577 41.40058
# Shear Modulus (GPa) = 22.89691 30.73781 26.81736
#
# Velocity S-wave (km/s) = 3.03347 3.51470 3.28292
# Velocity P-wave (km/s) = 5.35316 5.77585 5.56852
#
# Compressibility (1/GPa) = 0.02452459
#
# Stress axis : x y z
#
# Youngs Moduli (GPa) = 90.44382 83.42722 102.75512
#
# Poissons Ratio (x) = 0.22188 0.25988
# Poissons Ratio (y) = 0.24054 -0.10927
# Poissons Ratio (z) = 0.22874 -0.08872
#
# Static dielectric constant tensor:
#      x y z
#    x 2.145740 0.000000 0.000000 
#    y 0.000000 2.018090 0.000000 
#    z 0.000000 0.000000 1.814250 
# 
# From -- ./inp_files/10989.got.cif
#   From: 2010.05.17/outbox.cif.g08.bks.cpg/sg20_6_cif.got.tgz:10989.got - 2010.06.03 22:52:26.
