data_PCOD9319366
_publ_section_title
;
Structure prediction by ZEFSAII (Michael W. Deem and Ramdas Pophale) SiO2 
 PCOD9319366
Probable space group: C 2 2 21
;
_chemical_formula_sum "Si O2"
_cell_formula_units_Z 32
_cell_length_a 33.601488
_cell_length_b 7.470240
_cell_length_c 5.275012
_cell_angle_alpha 90.000000
_cell_angle_beta 90.000000
_cell_angle_gamma 90.000000
_cell_volume 1324.086985
_symmetry_space_group_name_H-M "C 2 2 21"
_symmetry_group_IT_number 20
_symmetry_cell_setting 'orthorhombic'
loop_
_space_group_symop_operation_xyz
x,y,z
-x,-y,1/2+z
x,-y,-z
-x,y,1/2-z
1/2+x,1/2+y,z
1/2-x,1/2-y,1/2+z
1/2+x,1/2-y,-z
1/2-x,1/2+y,1/2-z
loop_
_atom_site_type_symbol
_atom_site_label
_atom_site_fract_x
_atom_site_fract_y
_atom_site_fract_z
Si Si1 0.235714 0.500000 0.500000
Si Si2 0.000000 0.389104 0.750000
Si Si3 0.381240 0.290187 0.519733
Si Si4 0.194544 0.851486 0.675544
Si Si5 0.421197 0.715222 0.973479
O O1 0.209173 0.673288 0.541775
O O2 0.266363 0.547376 0.276190
O O3 0.036375 0.276386 0.633544
O O4 0.986455 0.500000 0.500000
O O5 0.392287 0.500000 0.500000
O O6 0.335370 0.291102 0.603704
O O7 0.390257 0.219179 0.241576
O O8 0.407489 0.214362 0.751441
O O9 0.173219 0.000000 0.500000
O O10 0.421796 0.500000 0.000000
#
# Coordination Sequence:
#
# PCOD9319366 Si02
#       5
#     4   4   8   8   8
#     4  12  26  42  70 102 138 192 246 300 370 436
#     4  12  26  46  72 106 156 188 220 300 368 416
#     4  10  21  41  73 101 135 183 235 297 350 411
#     4  12  24  44  69 101 144 187 243 307 363 433
#     4  10  23  44  72 102 134 186 243 277 344 433
#
# _framework density 24.167594999999999
#
# number of rings (size 3 to 8) (size 9 to 14) (size 15 to 20)
#    0.000    1.000    3.750    3.750    0.000    4.000 
#    6.750    0.000    0.000    0.000    0.000    0.000 
#    0.000    0.000    0.000    0.000    0.000    0.000 
#
# Total GULP energy -89521.542545 kJ/mol
# GULP energy per Si atom -5595.096409 kJ/mol
# Density = 2.411259 g / cm^3
# Si number density = 24.167595 Si / 1000 Ang^3
#
#
#
# Elastic Constant Matrix: (Units=GPa)
#
#
# Indices 1 2 3 4 5 6 
#
# 1 131.9171 37.2852 60.5604 0.0000 0.0000 0.0000
# 2 37.2852 106.9646 41.9983 0.0000 0.0000 0.0000
# 3 60.5604 41.9983 153.3153 0.0000 0.0000 0.0000
# 4 0.0000 0.0000 0.0000 22.1769 0.0000 0.0000
# 5 0.0000 0.0000 0.0000 0.0000 49.0360 0.0000
# 6 0.0000 0.0000 0.0000 0.0000 0.0000 146.0802
#
#
#
# Elastic Compliance Matrix: (Units=1/GPa)
#
#
# Indices 1 2 3 4 5 6 
#
# 1 0.009661 -0.002095 -0.003242 0.000000 0.000000 0.000000
# 2 -0.002095 0.010930 -0.002167 0.000000 0.000000 0.000000
# 3 -0.003242 -0.002167 0.008397 0.000000 0.000000 0.000000
# 4 0.000000 0.000000 0.000000 0.045092 0.000000 0.000000
# 5 0.000000 0.000000 0.000000 0.000000 0.020393 0.000000
# 6 0.000000 0.000000 0.000000 0.000000 0.000000 0.006846
#
#
# Mechanical properties :
#
#
# Convention : Reuss Voigt Hill
#
# Bulk Modulus (GPa) = 71.52895 74.65388 73.09142
# Shear Modulus (GPa) = 41.32724 60.28215 50.80469
#
# Velocity S-wave (km/s) = 4.13973 4.99975 4.58993
# Velocity P-wave (km/s) = 7.24646 8.01793 7.64193
#
# Compressibility (1/GPa) = 0.01398035
#
# Stress axis : x y z
#
# Youngs Moduli (GPa) = 103.50860 91.49386 119.09293
#
# Poissons Ratio (x) = 0.19163 0.38615
# Poissons Ratio (y) = 0.21680 0.25804
# Poissons Ratio (z) = 0.33562 0.19824
#
# Static dielectric constant tensor:
#      x y z
#    x 1.908540 0.000000 0.000000 
#    y 0.000000 1.910530 0.000000 
#    z 0.000000 0.000000 1.954930 
# 
# From -- ./inp_files/4488.got.cif
#   From: 2010.05.17/outbox.cif.g08.bks.cpg/sg20_3_cif.got.tgz:4488.got - 2010.06.03 22:52:26.
