data_PCOD9319322
_publ_section_title
;
Structure prediction by ZEFSAII (Michael W. Deem and Ramdas Pophale) SiO2 
 PCOD9319322
Probable space group: C 2 2 21
;
_chemical_formula_sum "Si O2"
_cell_formula_units_Z 56
_cell_length_a 21.459590
_cell_length_b 13.742853
_cell_length_c 9.288185
_cell_angle_alpha 90.000000
_cell_angle_beta 90.000000
_cell_angle_gamma 90.000000
_cell_volume 2739.234282
_symmetry_space_group_name_H-M "C 2 2 21"
_symmetry_group_IT_number 20
_symmetry_cell_setting 'orthorhombic'
loop_
_space_group_symop_operation_xyz
x,y,z
-x,-y,1/2+z
x,-y,-z
-x,y,1/2-z
1/2+x,1/2+y,z
1/2-x,1/2-y,1/2+z
1/2+x,1/2-y,-z
1/2-x,1/2+y,1/2-z
loop_
_atom_site_type_symbol
_atom_site_label
_atom_site_fract_x
_atom_site_fract_y
_atom_site_fract_z
Si Si1 0.951270 0.945274 0.644766
Si Si2 0.691753 0.342084 0.244230
Si Si3 0.336310 0.451997 0.845403
Si Si4 0.239012 0.304301 0.971502
Si Si5 0.106094 0.604800 0.063129
Si Si6 0.502598 0.767403 0.086305
Si Si7 0.068604 0.726281 0.312206
O O1 0.985744 0.847681 0.594174
O O2 0.000000 0.000292 0.750000
O O3 0.932634 0.000000 0.500000
O O4 0.893123 0.920468 0.745690
O O5 0.695682 0.457437 0.263107
O O6 0.732663 0.294616 0.370908
O O7 0.717358 0.296763 0.097894
O O8 0.620625 0.306244 0.271938
O O9 0.290944 0.363210 0.881201
O O10 0.355941 0.500000 0.000000
O O11 0.177586 0.371198 0.969257
O O12 0.091427 0.628016 0.230893
O O13 0.090262 0.500000 0.000000
O O14 0.062263 0.682480 0.984393
O O15 0.500000 0.803067 0.250000
O O16 0.443551 0.785510 0.982353
O O17 0.000000 0.751173 0.250000
#
# Coordination Sequence:
#
# PCOD9319322 Si02
#       7
#     8   8   8   8   8   8   8
#     4  11  26  37  61  92 129 167 205 257 314 382
#     4  10  22  37  67  83 126 168 201 270 308 379
#     4  10  23  40  60  92 123 167 214 254 311 379
#     4  10  23  40  61  92 122 166 210 259 318 364
#     4  10  21  41  67  88 119 166 212 259 312 373
#     4  10  24  38  59  95 129 162 204 265 310 377
#     4   9  21  39  61  89 124 160 210 247 322 366
#
# _framework density 20.443669
#
# number of rings (size 3 to 8) (size 9 to 14) (size 15 to 20)
#    0.000    2.000    0.000    1.714   18.000    1.714 
#    0.000    0.000    0.000    6.857    0.000    0.000 
#    0.000    0.000    0.000    0.000    0.000    0.000 
#
# Total GULP energy -156321.741709 kJ/mol
# GULP energy per Si atom -5582.919347 kJ/mol
# Density = 2.039714 g / cm^3
# Si number density = 20.443669 Si / 1000 Ang^3
#
#
#
# Elastic Constant Matrix: (Units=GPa)
#
#
# Indices 1 2 3 4 5 6 
#
# 1 69.3432 -21.3896 16.4101 0.0000 0.0000 0.0000
# 2 -21.3896 36.5395 10.1368 0.0000 0.0000 0.0000
# 3 16.4101 10.1368 64.6572 0.0000 0.0000 0.0000
# 4 0.0000 0.0000 0.0000 28.6265 0.0000 0.0000
# 5 0.0000 0.0000 0.0000 0.0000 25.7256 0.0000
# 6 0.0000 0.0000 0.0000 0.0000 0.0000 4.5800
#
#
#
# Elastic Compliance Matrix: (Units=1/GPa)
#
#
# Indices 1 2 3 4 5 6 
#
# 1 0.020513 0.014064 -0.007411 0.000000 0.000000 0.000000
# 2 0.014064 0.038255 -0.009567 0.000000 0.000000 0.000000
# 3 -0.007411 -0.009567 0.018847 0.000000 0.000000 0.000000
# 4 0.000000 0.000000 0.000000 0.034933 0.000000 0.000000
# 5 0.000000 0.000000 0.000000 0.000000 0.038872 0.000000
# 6 0.000000 0.000000 0.000000 0.000000 0.000000 0.218342
#
#
# Mechanical properties :
#
#
# Convention : Reuss Voigt Hill
#
# Bulk Modulus (GPa) = 13.93018 20.09494 17.01256
# Shear Modulus (GPa) = 12.51507 22.81192 17.66350
#
# Velocity S-wave (km/s) = 2.47690 3.34405 2.94259
# Velocity P-wave (km/s) = 3.87411 4.97604 4.45924
#
# Compressibility (1/GPa) = 0.07178658
#
# Stress axis : x y z
#
# Youngs Moduli (GPa) = 48.74934 26.14064 53.05872
#
# Poissons Ratio (x) = -0.36764 0.39323
# Poissons Ratio (y) = -0.68561 0.50761
# Poissons Ratio (z) = 0.36129 0.25009
#
# Static dielectric constant tensor:
#      x y z
#    x 1.718780 0.000000 0.000000 
#    y 0.000000 1.709620 0.000000 
#    z 0.000000 0.000000 1.791340 
# 
# From -- ./inp_files/10176.got.cif
#   From: 2010.05.17/outbox.cif.g08.bks.cpg/sg20_6_cif.got.tgz:10176.got - 2010.06.03 22:52:26.
