data_PCOD9319698
_publ_section_title
;
Structure prediction by ZEFSAII (Michael W. Deem and Ramdas Pophale) SiO2 
 PCOD9319698
Probable space group: C 2 2 21
;
_chemical_formula_sum "Si O2"
_cell_formula_units_Z 48
_cell_length_a 14.733278
_cell_length_b 26.289301
_cell_length_c 5.150201
_cell_angle_alpha 90.000000
_cell_angle_beta 90.000000
_cell_angle_gamma 90.000000
_cell_volume 1994.814890
_symmetry_space_group_name_H-M "C 2 2 21"
_symmetry_group_IT_number 20
_symmetry_cell_setting 'orthorhombic'
loop_
_space_group_symop_operation_xyz
x,y,z
-x,-y,1/2+z
x,-y,-z
-x,y,1/2-z
1/2+x,1/2+y,z
1/2-x,1/2-y,1/2+z
1/2+x,1/2-y,-z
1/2-x,1/2+y,1/2-z
loop_
_atom_site_type_symbol
_atom_site_label
_atom_site_fract_x
_atom_site_fract_y
_atom_site_fract_z
Si Si1 0.237323 0.000000 0.000000
Si Si2 0.257003 0.311458 0.453669
Si Si3 0.500000 0.857224 0.250000
Si Si4 0.718551 0.592804 0.281352
Si Si5 0.625072 0.947519 0.109151
Si Si6 0.357147 0.208786 0.453619
Si Si7 0.056730 0.061357 0.500454
O O1 0.300476 0.972085 0.206378
O O2 0.181961 0.042396 0.140983
O O3 0.288785 0.363021 0.579443
O O4 0.335578 0.268940 0.484937
O O5 0.217140 0.313082 0.162550
O O6 0.172478 0.299726 0.654369
O O7 0.577654 0.901971 0.270976
O O8 0.548961 0.818759 0.042477
O O9 0.820850 0.580267 0.375112
O O10 0.649750 0.593658 0.516765
O O11 0.575485 0.000000 0.000000
O O12 0.000000 0.074174 0.750000
O O13 0.068289 0.000000 0.500000
O O14 0.000000 0.077565 0.250000
#
# Coordination Sequence:
#
# PCOD9319698 Si02
#       7
#     4   8   4   8   8   8   8
#     4  10  22  38  64 100 132 194 224 270 326 434
#     4  10  22  45  69  94 126 174 226 286 334 401
#     4  12  22  42  66  98 140 182 232 278 342 402
#     4  11  22  40  67  92 137 177 230 271 356 402
#     4  10  23  39  59  97 138 185 224 273 331 414
#     4  10  23  43  70  96 125 171 232 278 340 393
#     4  10  23  38  60  89 124 167 217 272 326 396
#
# _framework density 24.062380999999998
#
# number of rings (size 3 to 8) (size 9 to 14) (size 15 to 20)
#    0.000    1.667    1.667    2.500    7.000    0.667 
#    7.500    0.000    0.000    0.000    0.000    0.000 
#    0.000    0.000    0.000    0.000    0.000    0.000 
#
# Total GULP energy -133746.402316 kJ/mol
# GULP energy per Si atom -5572.766763 kJ/mol
# Density = 2.400761 g / cm^3
# Si number density = 24.062381 Si / 1000 Ang^3
#
#
#
# Elastic Constant Matrix: (Units=GPa)
#
#
# Indices 1 2 3 4 5 6 
#
# 1 61.5467 35.0365 2.8657 0.0000 0.0000 0.0000
# 2 35.0365 99.4871 1.1127 0.0000 0.0000 0.0000
# 3 2.8657 1.1127 73.4434 0.0000 0.0000 0.0000
# 4 0.0000 0.0000 0.0000 20.5792 0.0000 0.0000
# 5 0.0000 0.0000 0.0000 0.0000 11.5877 0.0000
# 6 0.0000 0.0000 0.0000 0.0000 0.0000 21.8929
#
#
#
# Elastic Compliance Matrix: (Units=1/GPa)
#
#
# Indices 1 2 3 4 5 6 
#
# 1 0.020356 -0.007161 -0.000686 0.000000 0.000000 0.000000
# 2 -0.007161 0.012573 0.000089 0.000000 0.000000 0.000000
# 3 -0.000686 0.000089 0.013641 0.000000 0.000000 0.000000
# 4 0.000000 0.000000 0.000000 0.048593 0.000000 0.000000
# 5 0.000000 0.000000 0.000000 0.000000 0.086299 0.000000
# 6 0.000000 0.000000 0.000000 0.000000 0.000000 0.045677
#
#
# Mechanical properties :
#
#
# Convention : Reuss Voigt Hill
#
# Bulk Modulus (GPa) = 32.20189 34.72300 33.46244
# Shear Modulus (GPa) = 19.76236 23.84279 21.80257
#
# Velocity S-wave (km/s) = 2.86894 3.15123 3.01339
# Velocity P-wave (km/s) = 4.93823 5.26328 5.10334
#
# Compressibility (1/GPa) = 0.03105408
#
# Stress axis : x y z
#
# Youngs Moduli (GPa) = 49.12455 79.53835 73.30663
#
# Poissons Ratio (x) = 0.56960 0.05027
# Poissons Ratio (y) = 0.35179 -0.00652
# Poissons Ratio (z) = 0.03369 -0.00708
#
# Static dielectric constant tensor:
#      x y z
#    x 1.998340 0.000000 0.000000 
#    y 0.000000 2.425060 0.000000 
#    z 0.000000 0.000000 2.032390 
# 
# From -- ./inp_files/2064.got.cif
#   From: 2010.05.17/outbox.cif.g08.bks.cpg/sg20_2_cif.got.tgz:2064.got - 2010.06.03 22:52:26.
