data_PCOD9319008
_publ_section_title
;
Structure prediction by ZEFSAII (Michael W. Deem and Ramdas Pophale) SiO2 
 PCOD9319008
Probable space group: C 2 2 21
;
_chemical_formula_sum "Si O2"
_cell_formula_units_Z 32
_cell_length_a 8.677484
_cell_length_b 16.156405
_cell_length_c 9.774000
_cell_angle_alpha 90.000000
_cell_angle_beta 90.000000
_cell_angle_gamma 90.000000
_cell_volume 1370.284949
_symmetry_space_group_name_H-M "C 2 2 21"
_symmetry_group_IT_number 20
_symmetry_cell_setting 'orthorhombic'
loop_
_space_group_symop_operation_xyz
x,y,z
-x,-y,1/2+z
x,-y,-z
-x,y,1/2-z
1/2+x,1/2+y,z
1/2-x,1/2-y,1/2+z
1/2+x,1/2-y,-z
1/2-x,1/2+y,1/2-z
loop_
_atom_site_type_symbol
_atom_site_label
_atom_site_fract_x
_atom_site_fract_y
_atom_site_fract_z
Si Si1 0.933646 0.576076 0.903248
Si Si2 0.903943 0.728904 0.462508
Si Si3 0.821021 0.803720 0.715069
Si Si4 0.401378 0.412799 0.491024
O O1 0.018212 0.658158 0.512625
O O2 0.748273 0.575344 0.897008
O O3 0.000000 0.574283 0.750000
O O4 0.983507 0.500000 0.000000
O O5 0.789204 0.741016 0.591646
O O6 0.803576 0.703967 0.332032
O O7 0.968715 0.823352 0.449126
O O8 0.000000 0.784535 0.750000
O O9 0.833565 0.892819 0.642891
O O10 0.489613 0.500000 0.500000
#
# Coordination Sequence:
#
# PCOD9319008 Si02
#       4
#     8   8   8   8
#     4  11  24  41  69 102 132 166 222 281 322 390
#     4  10  21  38  70  92 132 174 212 263 332 388
#     4  10  22  41  64  93 134 172 217 269 325 395
#     4   9  22  39  67  90 132 167 213 269 326 381
#
# _framework density 23.352808
#
# number of rings (size 3 to 8) (size 9 to 14) (size 15 to 20)
#    1.500    0.500    0.000    3.750    7.000    0.000 
#    0.000    1.250    5.500    0.000    0.000    0.000 
#    0.000    0.000    0.000    0.000    0.000    0.000 
#
# Total GULP energy -89116.273663 kJ/mol
# GULP energy per Si atom -5569.767104 kJ/mol
# Density = 2.329966 g / cm^3
# Si number density = 23.352808 Si / 1000 Ang^3
#
#
#
# Elastic Constant Matrix: (Units=GPa)
#
#
# Indices 1 2 3 4 5 6 
#
# 1 49.3808 29.5612 -1.0556 0.0000 0.0000 0.0000
# 2 29.5612 193.9705 9.8801 0.0000 0.0000 0.0000
# 3 -1.0556 9.8801 52.9507 0.0000 0.0000 0.0000
# 4 0.0000 0.0000 0.0000 28.0924 0.0000 0.0000
# 5 0.0000 0.0000 0.0000 0.0000 19.5755 0.0000
# 6 0.0000 0.0000 0.0000 0.0000 0.0000 47.5160
#
#
#
# Elastic Compliance Matrix: (Units=1/GPa)
#
#
# Indices 1 2 3 4 5 6 
#
# 1 0.022346 -0.003461 0.001091 0.000000 0.000000 0.000000
# 2 -0.003461 0.005741 -0.001140 0.000000 0.000000 0.000000
# 3 0.001091 -0.001140 0.019120 0.000000 0.000000 0.000000
# 4 0.000000 0.000000 0.000000 0.035597 0.000000 0.000000
# 5 0.000000 0.000000 0.000000 0.000000 0.051084 0.000000
# 6 0.000000 0.000000 0.000000 0.000000 0.000000 0.021046
#
#
# Mechanical properties :
#
#
# Convention : Reuss Voigt Hill
#
# Bulk Modulus (GPa) = 24.88372 41.45261 33.16816
# Shear Modulus (GPa) = 28.51451 36.23121 32.37286
#
# Velocity S-wave (km/s) = 3.49812 3.94315 3.72728
# Velocity P-wave (km/s) = 5.19562 6.20647 5.72341
#
# Compressibility (1/GPa) = 0.04018692
#
# Stress axis : x y z
#
# Youngs Moduli (GPa) = 44.75060 174.18624 52.30122
#
# Poissons Ratio (x) = 0.60288 -0.05708
# Poissons Ratio (y) = 0.15489 0.05963
# Poissons Ratio (z) = -0.04884 0.19861
#
# Static dielectric constant tensor:
#      x y z
#    x 1.886970 0.000000 0.000000 
#    y 0.000000 1.932420 0.000000 
#    z 0.000000 0.000000 1.942310 
# 
# From -- ./inp_files/7894.got.cif
#   From: 2010.05.17/outbox.cif.g08.bks.cpg/sg20_4_cif.got.tgz:7894.got - 2010.06.03 22:52:26.
