data_PCOD9319295
_publ_section_title
;
Structure prediction by ZEFSAII (Michael W. Deem and Ramdas Pophale) SiO2 
 PCOD9319295
Probable space group: C 2 2 21
;
_chemical_formula_sum "Si O2"
_cell_formula_units_Z 64
_cell_length_a 7.896131
_cell_length_b 16.936916
_cell_length_c 20.951292
_cell_angle_alpha 90.000000
_cell_angle_beta 90.000000
_cell_angle_gamma 90.000000
_cell_volume 2801.944239
_symmetry_space_group_name_H-M "C 2 2 21"
_symmetry_group_IT_number 20
_symmetry_cell_setting 'orthorhombic'
loop_
_space_group_symop_operation_xyz
x,y,z
-x,-y,1/2+z
x,-y,-z
-x,y,1/2-z
1/2+x,1/2+y,z
1/2-x,1/2-y,1/2+z
1/2+x,1/2-y,-z
1/2-x,1/2+y,1/2-z
loop_
_atom_site_type_symbol
_atom_site_label
_atom_site_fract_x
_atom_site_fract_y
_atom_site_fract_z
Si Si1 0.077241 0.308852 0.183515
Si Si2 0.891780 0.383665 0.646111
Si Si3 0.011194 0.064371 0.945792
Si Si4 0.852239 0.784704 0.921086
Si Si5 0.606443 0.582629 0.107828
Si Si6 0.869783 0.442534 0.416319
Si Si7 0.736512 0.155689 0.279717
Si Si8 0.327698 0.862430 0.005761
O O1 0.132230 0.383756 0.143441
O O2 0.222195 0.247136 0.205351
O O3 0.000000 0.335453 0.250000
O O4 0.942946 0.264462 0.136356
O O5 0.834278 0.315543 0.596784
O O6 0.882971 0.468157 0.610614
O O7 0.765641 0.370956 0.706632
O O8 0.065125 0.367974 0.683571
O O9 0.060148 0.008830 0.886712
O O10 0.811497 0.074966 0.948767
O O11 0.154494 0.129453 0.952341
O O12 0.057765 0.000000 0.000000
O O13 0.869249 0.729598 0.983281
O O14 0.959667 0.865364 0.925304
O O15 0.624237 0.611847 0.179110
O O16 0.770651 0.607470 0.064178
O O17 0.024544 0.415824 0.462602
#
# Coordination Sequence:
#
# PCOD9319295 Si02
#       8
#     8   8   8   8   8   8   8   8
#     4  10  21  41  64  88 134 172 208 272 340 387
#     4  11  22  40  65 100 127 170 230 277 328 400
#     4  10  22  42  65  92 131 169 216 267 335 396
#     4  10  21  41  66  93 128 170 222 274 326 396
#     4  10  21  44  63  92 129 177 213 272 334 399
#     4  11  24  42  67  99 129 175 221 274 338 406
#     4  10  23  38  65  93 131 170 220 270 333 391
#     4  10  24  43  66  97 134 172 221 276 340 398
#
# _framework density 22.841282
#
# number of rings (size 3 to 8) (size 9 to 14) (size 15 to 20)
#    0.000    1.750    2.500    0.750    3.500    3.500 
#   11.250    0.000    0.000    0.000    0.000    0.000 
#    0.000    0.000    0.000    0.000    0.000    0.000 
#
# Total GULP energy -178528.195518 kJ/mol
# GULP energy per Si atom -5579.006110 kJ/mol
# Density = 2.278929 g / cm^3
# Si number density = 22.841282 Si / 1000 Ang^3
#
#
#
# Elastic Constant Matrix: (Units=GPa)
#
#
# Indices 1 2 3 4 5 6 
#
# 1 79.8367 13.2766 22.9495 0.0000 0.0000 0.0000
# 2 13.2766 78.8090 21.1446 0.0000 0.0000 0.0000
# 3 22.9495 21.1446 85.7822 0.0000 0.0000 0.0000
# 4 0.0000 0.0000 0.0000 30.3659 0.0000 0.0000
# 5 0.0000 0.0000 0.0000 0.0000 34.4847 0.0000
# 6 0.0000 0.0000 0.0000 0.0000 0.0000 19.7609
#
#
#
# Elastic Compliance Matrix: (Units=1/GPa)
#
#
# Indices 1 2 3 4 5 6 
#
# 1 0.013716 -0.001420 -0.003319 0.000000 0.000000 0.000000
# 2 -0.001420 0.013735 -0.003006 0.000000 0.000000 0.000000
# 3 -0.003319 -0.003006 0.013286 0.000000 0.000000 0.000000
# 4 0.000000 0.000000 0.000000 0.032932 0.000000 0.000000
# 5 0.000000 0.000000 0.000000 0.000000 0.028998 0.000000
# 6 0.000000 0.000000 0.000000 0.000000 0.000000 0.050605
#
#
# Mechanical properties :
#
#
# Convention : Reuss Voigt Hill
#
# Bulk Modulus (GPa) = 39.60908 39.90771 39.75839
# Shear Modulus (GPa) = 28.22030 29.39277 28.80654
#
# Velocity S-wave (km/s) = 3.51877 3.59113 3.55514
# Velocity P-wave (km/s) = 5.82131 5.89106 5.85629
#
# Compressibility (1/GPa) = 0.02524674
#
# Stress axis : x y z
#
# Youngs Moduli (GPa) = 72.90812 72.80921 75.26532
#
# Poissons Ratio (x) = 0.10339 0.24984
# Poissons Ratio (y) = 0.10353 0.22621
# Poissons Ratio (z) = 0.24201 0.21883
#
# Static dielectric constant tensor:
#      x y z
#    x 1.943460 0.000000 0.000000 
#    y 0.000000 1.901370 0.000000 
#    z 0.000000 0.000000 1.962370 
# 
# From -- ./inp_files/28870.got.cif
#   From: 2010.05.17/outbox.cif.g08.bks.cpg/sg20_15_cif.got.tgz:28870.got - 2010.06.03 22:52:26.
