data_PCOD9319190
_publ_section_title
;
Structure prediction by ZEFSAII (Michael W. Deem and Ramdas Pophale) SiO2 
 PCOD9319190
Probable space group: C 2 2 21
;
_chemical_formula_sum "Si O2"
_cell_formula_units_Z 56
_cell_length_a 8.988630
_cell_length_b 18.625898
_cell_length_c 16.840082
_cell_angle_alpha 90.000000
_cell_angle_beta 90.000000
_cell_angle_gamma 90.000000
_cell_volume 2819.388514
_symmetry_space_group_name_H-M "C 2 2 21"
_symmetry_group_IT_number 20
_symmetry_cell_setting 'orthorhombic'
loop_
_space_group_symop_operation_xyz
x,y,z
-x,-y,1/2+z
x,-y,-z
-x,y,1/2-z
1/2+x,1/2+y,z
1/2-x,1/2-y,1/2+z
1/2+x,1/2-y,-z
1/2-x,1/2+y,1/2-z
loop_
_atom_site_type_symbol
_atom_site_label
_atom_site_fract_x
_atom_site_fract_y
_atom_site_fract_z
Si Si1 0.325359 0.845225 0.117053
Si Si2 0.101484 0.071702 0.544988
Si Si3 0.612852 0.546864 0.810009
Si Si4 0.660958 0.613011 0.219476
Si Si5 0.846969 0.161292 0.460274
Si Si6 0.826858 0.257345 0.732663
Si Si7 0.667946 0.185883 0.885097
O O1 0.258033 0.910038 0.167675
O O2 0.232200 0.777772 0.151718
O O3 0.499145 0.837477 0.129210
O O4 0.278171 0.855617 0.025713
O O5 0.230083 0.120896 0.583122
O O6 0.986382 0.040827 0.610845
O O7 0.000228 0.126256 0.492415
O O8 0.156097 0.000000 0.500000
O O9 0.500000 0.586089 0.750000
O O10 0.657978 0.472073 0.770424
O O11 0.500000 0.640209 0.250000
O O12 0.680254 0.627512 0.126040
O O13 0.782339 0.659165 0.264975
O O14 0.845191 0.246895 0.446017
O O15 0.738795 0.218419 0.804707
O O16 0.000000 0.249630 0.750000
#
# Coordination Sequence:
#
# PCOD9319190 Si02
#       7
#     8   8   8   8   8   8   8
#     4  11  22  38  65  91 124 168 216 267 323 384
#     4  11  21  39  63  92 127 169 215 261 323 389
#     4  10  21  40  65  91 123 170 211 263 326 400
#     4  10  21  40  64  90 124 165 210 262 326 391
#     4  10  21  40  64  91 126 169 215 262 324 386
#     4  11  22  40  63  89 120 162 214 266 321 391
#     4  11  23  39  62  93 129 168 212 269 321 387
#
# _framework density 19.862463999999999
#
# number of rings (size 3 to 8) (size 9 to 14) (size 15 to 20)
#    0.000    1.429    1.429    6.000    0.000    1.143 
#    2.571    4.286    0.000    0.000    0.000    0.000 
#    0.000    0.000    0.000    0.000    0.000    0.000 
#
# Total GULP energy -156344.888206 kJ/mol
# GULP energy per Si atom -5583.746007 kJ/mol
# Density = 1.981726 g / cm^3
# Si number density = 19.862464 Si / 1000 Ang^3
#
#
#
# Elastic Constant Matrix: (Units=GPa)
#
#
# Indices 1 2 3 4 5 6 
#
# 1 110.5813 24.8023 -5.0436 0.0000 0.0000 0.0000
# 2 24.8023 96.0153 -7.0893 0.0000 0.0000 0.0000
# 3 -5.0436 -7.0893 43.0157 0.0000 0.0000 0.0000
# 4 0.0000 0.0000 0.0000 21.9087 0.0000 0.0000
# 5 0.0000 0.0000 0.0000 0.0000 19.1081 0.0000
# 6 0.0000 0.0000 0.0000 0.0000 0.0000 23.6123
#
#
#
# Elastic Compliance Matrix: (Units=1/GPa)
#
#
# Indices 1 2 3 4 5 6 
#
# 1 0.009622 -0.002432 0.000727 0.000000 0.000000 0.000000
# 2 -0.002432 0.011158 0.001554 0.000000 0.000000 0.000000
# 3 0.000727 0.001554 0.023589 0.000000 0.000000 0.000000
# 4 0.000000 0.000000 0.000000 0.045644 0.000000 0.000000
# 5 0.000000 0.000000 0.000000 0.000000 0.052334 0.000000
# 6 0.000000 0.000000 0.000000 0.000000 0.000000 0.042351
#
#
# Mechanical properties :
#
#
# Convention : Reuss Voigt Hill
#
# Bulk Modulus (GPa) = 22.69264 30.55011 26.62138
# Shear Modulus (GPa) = 25.03917 28.72201 26.88059
#
# Velocity S-wave (km/s) = 3.55438 3.80681 3.68276
# Velocity P-wave (km/s) = 5.31926 5.89378 5.61388
#
# Compressibility (1/GPa) = 0.04406715
#
# Stress axis : x y z
#
# Youngs Moduli (GPa) = 103.93161 89.62274 42.39318
#
# Poissons Ratio (x) = 0.21794 -0.03084
# Poissons Ratio (y) = 0.25273 -0.06587
# Poissons Ratio (z) = -0.07560 -0.13926
#
# Static dielectric constant tensor:
#      x y z
#    x 1.659580 0.000000 0.000000 
#    y 0.000000 1.738060 0.000000 
#    z 0.000000 0.000000 1.729000 
# 
# From -- ./inp_files/19210.got.cif
#   From: 2010.05.17/outbox.cif.g08.bks.cpg/sg20_10_cif.got.tgz:19210.got - 2010.06.03 22:52:26.
