data_PCOD9319061
_publ_section_title
;
Structure prediction by ZEFSAII (Michael W. Deem and Ramdas Pophale) SiO2 
 PCOD9319061
Probable space group: C 2 2 21
;
_chemical_formula_sum "Si O2"
_cell_formula_units_Z 56
_cell_length_a 13.890536
_cell_length_b 6.006225
_cell_length_c 27.138121
_cell_angle_alpha 90.000000
_cell_angle_beta 90.000000
_cell_angle_gamma 90.000000
_cell_volume 2264.124875
_symmetry_space_group_name_H-M "C 2 2 21"
_symmetry_group_IT_number 20
_symmetry_cell_setting 'orthorhombic'
loop_
_space_group_symop_operation_xyz
x,y,z
-x,-y,1/2+z
x,-y,-z
-x,y,1/2-z
1/2+x,1/2+y,z
1/2-x,1/2-y,1/2+z
1/2+x,1/2-y,-z
1/2-x,1/2+y,1/2-z
loop_
_atom_site_type_symbol
_atom_site_label
_atom_site_fract_x
_atom_site_fract_y
_atom_site_fract_z
Si Si1 0.942961 0.096426 0.801360
Si Si2 0.750399 0.318410 0.771467
Si Si3 0.535256 0.224216 0.101733
Si Si4 0.147517 0.157537 0.546782
Si Si5 0.214002 0.995120 0.920667
Si Si6 0.192096 0.161868 0.359489
Si Si7 0.628784 0.860070 0.150604
O O1 0.853782 0.273769 0.798971
O O2 0.000000 0.104901 0.750000
O O3 0.009388 0.131784 0.849534
O O4 0.884763 0.872231 0.816314
O O5 0.748632 0.583504 0.759887
O O6 0.649997 0.281151 0.801210
O O7 0.454284 0.236460 0.060523
O O8 0.633636 0.310812 0.074981
O O9 0.538714 0.984100 0.128012
O O10 0.226402 0.351017 0.540307
O O11 0.144444 0.000000 0.500000
O O12 0.168660 0.003699 0.594798
O O13 0.159290 0.801025 0.892650
O O14 0.291835 0.100984 0.883456
O O15 0.294894 0.064370 0.341077
#
# Coordination Sequence:
#
# PCOD9319061 Si02
#       7
#     8   8   8   8   8   8   8
#     4  10  21  39  63  96 134 177 241 294 347 431
#     4  11  25  42  63  97 140 188 245 304 359 430
#     4  10  22  43  64  99 135 176 237 293 358 428
#     4  10  22  43  66 102 136 172 233 289 366 449
#     4  10  21  42  68  90 134 180 218 288 366 430
#     4   8  19  39  63  91 131 176 217 280 353 417
#     4   9  20  38  65  88 125 180 224 278 351 419
#
# _framework density 24.733618
#
# number of rings (size 3 to 8) (size 9 to 14) (size 15 to 20)
#    0.000    2.286    0.000    1.714    8.000    2.857 
#   10.286    0.714    0.000    0.000    0.000    0.000 
#    0.000    0.000    0.000    0.000    0.000    0.000 
#
# Total GULP energy -155981.778448 kJ/mol
# GULP energy per Si atom -5570.777802 kJ/mol
# Density = 2.467732 g / cm^3
# Si number density = 24.733618 Si / 1000 Ang^3
#
#
#
# Elastic Constant Matrix: (Units=GPa)
#
#
# Indices 1 2 3 4 5 6 
#
# 1 73.7720 45.0561 21.6796 0.0000 0.0000 0.0000
# 2 45.0561 93.9070 26.7900 0.0000 0.0000 0.0000
# 3 21.6796 26.7900 75.9614 0.0000 0.0000 0.0000
# 4 0.0000 0.0000 0.0000 46.5512 0.0000 0.0000
# 5 0.0000 0.0000 0.0000 0.0000 6.6763 0.0000
# 6 0.0000 0.0000 0.0000 0.0000 0.0000 -70.3105
#
#
#
# Elastic Compliance Matrix: (Units=1/GPa)
#
#
# Indices 1 2 3 4 5 6 
#
# 1 0.019602 -0.008683 -0.002532 0.000000 0.000000 0.000000
# 2 -0.008683 0.015686 -0.003054 0.000000 0.000000 0.000000
# 3 -0.002532 -0.003054 0.014964 0.000000 0.000000 0.000000
# 4 0.000000 0.000000 0.000000 0.021482 0.000000 0.000000
# 5 0.000000 0.000000 0.000000 0.000000 0.149783 0.000000
# 6 0.000000 0.000000 0.000000 0.000000 0.000000 -0.014223
#
#
# Mechanical properties :
#
#
# Convention : Reuss Voigt Hill
#
# Bulk Modulus (GPa) = 46.05198 47.85462 46.95330
# Shear Modulus (GPa) = 20.57007 6.59105 13.58056
#
# Velocity S-wave (km/s) = 2.88699 1.63420 2.34577
# Velocity P-wave (km/s) = 5.45642 4.79070 5.13436
#
# Compressibility (1/GPa) = 0.02171459
#
# Stress axis : x y z
#
# Youngs Moduli (GPa) = 51.01410 63.75107 66.82510
#
# Poissons Ratio (x) = 0.55353 0.16923
# Poissons Ratio (y) = 0.44294 0.20409
# Poissons Ratio (z) = 0.12919 0.19470
#
# Static dielectric constant tensor:
#      x y z
#    x 2.072710 0.000000 0.000000 
#    y 0.000000 1.958470 0.000000 
#    z 0.000000 0.000000 2.144530 
# 
# From -- ./inp_files/31282.got.cif
#   From: 2010.05.17/outbox.cif.g08.bks.cpg/sg20_16_cif.got.tgz:31282.got - 2010.06.03 22:52:26.
