data_PCOD9319695
_publ_section_title
;
Structure prediction by ZEFSAII (Michael W. Deem and Ramdas Pophale) SiO2 
 PCOD9319695
Probable space group: C 2 2 21
;
_chemical_formula_sum "Si O2"
_cell_formula_units_Z 56
_cell_length_a 9.000401
_cell_length_b 16.169330
_cell_length_c 20.399483
_cell_angle_alpha 90.000000
_cell_angle_beta 90.000000
_cell_angle_gamma 90.000000
_cell_volume 2968.746020
_symmetry_space_group_name_H-M "C 2 2 21"
_symmetry_group_IT_number 20
_symmetry_cell_setting 'orthorhombic'
loop_
_space_group_symop_operation_xyz
x,y,z
-x,-y,1/2+z
x,-y,-z
-x,y,1/2-z
1/2+x,1/2+y,z
1/2-x,1/2-y,1/2+z
1/2+x,1/2-y,-z
1/2-x,1/2+y,1/2-z
loop_
_atom_site_type_symbol
_atom_site_label
_atom_site_fract_x
_atom_site_fract_y
_atom_site_fract_z
Si Si1 0.428506 0.067719 0.819530
Si Si2 0.558974 0.632490 0.316800
Si Si3 0.308228 0.807467 0.520129
Si Si4 0.923242 0.953317 0.319034
Si Si5 0.341095 0.059481 0.370684
Si Si6 0.561963 0.219592 0.582842
Si Si7 0.109847 0.062383 0.556630
O O1 0.500000 0.090852 0.750000
O O2 0.251968 0.058001 0.813746
O O3 0.454956 0.139767 0.872037
O O4 0.514462 0.984914 0.842608
O O5 0.500000 0.671492 0.250000
O O6 0.461075 0.550610 0.326606
O O7 0.728936 0.599106 0.316968
O O8 0.544604 0.697593 0.374406
O O9 0.368713 0.868699 0.576585
O O10 0.439056 0.783181 0.472615
O O11 0.224640 0.729599 0.551434
O O12 0.184688 0.860301 0.479815
O O13 0.000000 0.926754 0.250000
O O14 0.996404 0.915191 0.384880
O O15 0.241805 0.989796 0.407732
O O16 0.048598 0.000000 0.500000
#
# Coordination Sequence:
#
# PCOD9319695 Si02
#       7
#     8   8   8   8   8   8   8
#     4  12  23  38  63  95 119 150 205 261 304 354
#     4   9  18  39  60  81 114 159 198 238 306 369
#     4  10  22  39  58  83 126 163 197 240 310 358
#     4  10  22  38  63  87 119 157 207 250 306 370
#     4   9  19  38  61  85 114 159 195 247 298 356
#     4  11  24  37  59  87 123 160 197 251 301 363
#     4   9  17  37  60  82 114 159 197 244 295 356
#
# _framework density 18.863182999999999
#
# number of rings (size 3 to 8) (size 9 to 14) (size 15 to 20)
#    0.000    2.000    1.429    3.857    2.000    1.143 
#    2.571    0.000    0.000    3.429    0.000    0.000 
#    0.000    0.000    0.000    0.000    0.000    0.000 
#
# Total GULP energy -156244.543460 kJ/mol
# GULP energy per Si atom -5580.162266 kJ/mol
# Density = 1.882025 g / cm^3
# Si number density = 18.863183 Si / 1000 Ang^3
#
#
#
# Elastic Constant Matrix: (Units=GPa)
#
#
# Indices 1 2 3 4 5 6 
#
# 1 73.4667 19.3153 52.0046 0.0000 0.0000 0.0000
# 2 19.3153 39.9323 20.5925 0.0000 0.0000 0.0000
# 3 52.0046 20.5925 108.2875 0.0000 0.0000 0.0000
# 4 0.0000 0.0000 0.0000 -0.1060 0.0000 0.0000
# 5 0.0000 0.0000 0.0000 0.0000 36.0635 0.0000
# 6 0.0000 0.0000 0.0000 0.0000 0.0000 18.1673
#
#
#
# Elastic Compliance Matrix: (Units=1/GPa)
#
#
# Indices 1 2 3 4 5 6 
#
# 1 0.021727 -0.005686 -0.009353 0.000000 0.000000 0.000000
# 2 -0.005686 0.029253 -0.002832 0.000000 0.000000 0.000000
# 3 -0.009353 -0.002832 0.014265 0.000000 0.000000 0.000000
# 4 0.000000 0.000000 0.000000 -9.431348 0.000000 0.000000
# 5 0.000000 0.000000 0.000000 0.000000 0.027729 0.000000
# 6 0.000000 0.000000 0.000000 0.000000 0.000000 0.055044
#
#
# Mechanical properties :
#
#
# Convention : Reuss Voigt Hill
#
# Bulk Modulus (GPa) = 33.89528 45.05680 39.47604
# Shear Modulus (GPa) = -0.54126 19.47656 9.46765
#
# Velocity S-wave (km/s) = -0.53625 3.21677 2.24277
# Velocity P-wave (km/s) = 4.19817 6.14286 5.26115
#
# Compressibility (1/GPa) = 0.02950263
#
# Stress axis : x y z
#
# Youngs Moduli (GPa) = 46.02482 34.18410 70.10138
#
# Poissons Ratio (x) = 0.19438 0.65567
# Poissons Ratio (y) = 0.26171 0.19854
# Poissons Ratio (z) = 0.43048 0.09681
#
# Static dielectric constant tensor:
#      x y z
#    x 1.638970 0.000000 0.000000 
#    y 0.000000 1.640960 0.000000 
#    z 0.000000 0.000000 1.697060 
# 
# From -- ./inp_files/26709.got.cif
#   From: 2010.05.17/outbox.cif.g08.bks.cpg/sg20_14_cif.got.tgz:26709.got - 2010.06.03 22:52:26.
