data_PCOD9319451
_publ_section_title
;
Structure prediction by ZEFSAII (Michael W. Deem and Ramdas Pophale) SiO2 
 PCOD9319451
Probable space group: C 2 2 21
;
_chemical_formula_sum "Si O2"
_cell_formula_units_Z 40
_cell_length_a 11.791239
_cell_length_b 9.091038
_cell_length_c 15.677256
_cell_angle_alpha 90.000000
_cell_angle_beta 90.000000
_cell_angle_gamma 90.000000
_cell_volume 1680.517214
_symmetry_space_group_name_H-M "C 2 2 21"
_symmetry_group_IT_number 20
_symmetry_cell_setting 'orthorhombic'
loop_
_space_group_symop_operation_xyz
x,y,z
-x,-y,1/2+z
x,-y,-z
-x,y,1/2-z
1/2+x,1/2+y,z
1/2-x,1/2-y,1/2+z
1/2+x,1/2-y,-z
1/2-x,1/2+y,1/2-z
loop_
_atom_site_type_symbol
_atom_site_label
_atom_site_fract_x
_atom_site_fract_y
_atom_site_fract_z
Si Si1 0.444556 0.400259 0.843661
Si Si2 0.202286 0.565285 0.824516
Si Si3 0.011365 0.633975 0.952508
Si Si4 0.446612 0.305744 0.384464
Si Si5 0.840062 0.685079 0.218289
O O1 0.500000 0.381684 0.750000
O O2 0.320363 0.478005 0.841450
O O3 0.442354 0.248080 0.894665
O O4 0.525521 0.522154 0.887785
O O5 0.107065 0.554789 0.895750
O O6 0.159282 0.485783 0.739076
O O7 0.228349 0.737733 0.816525
O O8 0.947297 0.500000 0.000000
O O9 0.071337 0.734814 0.024312
O O10 0.358666 0.266706 0.309741
O O11 0.559683 0.230314 0.344257
#
# Coordination Sequence:
#
# PCOD9319451 Si02
#       5
#     8   8   8   8   8
#     4  11  23  47  76 100 138 195 240 294 366 429
#     4  11  23  42  74 103 137 186 247 293 354 437
#     4  12  26  41  69 104 145 182 231 302 361 423
#     4  10  21  45  67  93 140 185 227 298 357 413
#     4  10  21  42  71  95 136 184 238 288 358 426
#
# _framework density 23.802197
#
# number of rings (size 3 to 8) (size 9 to 14) (size 15 to 20)
#    0.000    1.200    6.000    1.800    0.000    6.400 
#    0.000    0.000    4.400    0.000    0.000    0.000 
#    0.000    0.000    0.000    0.000    0.000    0.000 
#
# Total GULP energy -111787.735761 kJ/mol
# GULP energy per Si atom -5589.386788 kJ/mol
# Density = 2.374802 g / cm^3
# Si number density = 23.802197 Si / 1000 Ang^3
#
#
#
# Elastic Constant Matrix: (Units=GPa)
#
#
# Indices 1 2 3 4 5 6 
#
# 1 47.2948 15.8294 6.1633 0.0000 0.0000 0.0000
# 2 15.8294 105.1347 48.2946 0.0000 0.0000 0.0000
# 3 6.1633 48.2946 67.7249 0.0000 0.0000 0.0000
# 4 0.0000 0.0000 0.0000 62.2251 0.0000 0.0000
# 5 0.0000 0.0000 0.0000 0.0000 3.7377 0.0000
# 6 0.0000 0.0000 0.0000 0.0000 0.0000 21.0237
#
#
#
# Elastic Compliance Matrix: (Units=1/GPa)
#
#
# Indices 1 2 3 4 5 6 
#
# 1 0.022279 -0.003603 0.000542 0.000000 0.000000 0.000000
# 2 -0.003603 0.014728 -0.010175 0.000000 0.000000 0.000000
# 3 0.000542 -0.010175 0.021972 0.000000 0.000000 0.000000
# 4 0.000000 0.000000 0.000000 0.016071 0.000000 0.000000
# 5 0.000000 0.000000 0.000000 0.000000 0.267544 0.000000
# 6 0.000000 0.000000 0.000000 0.000000 0.000000 0.047565
#
#
# Mechanical properties :
#
#
# Convention : Reuss Voigt Hill
#
# Bulk Modulus (GPa) = 30.76238 40.08100 35.42169
# Shear Modulus (GPa) = 11.69681 27.38843 19.54262
#
# Velocity S-wave (km/s) = 2.21920 3.39583 2.86849
# Velocity P-wave (km/s) = 4.41800 5.67902 5.08773
#
# Compressibility (1/GPa) = 0.03250723
#
# Stress axis : x y z
#
# Youngs Moduli (GPa) = 44.88453 67.89822 45.51294
#
# Poissons Ratio (x) = 0.24467 -0.02467
# Poissons Ratio (y) = 0.16174 0.46307
# Poissons Ratio (z) = -0.02433 0.69083
#
# Static dielectric constant tensor:
#      x y z
#    x 1.912140 0.000000 0.000000 
#    y 0.000000 1.960660 0.000000 
#    z 0.000000 0.000000 1.889540 
# 
# From -- ./inp_files/18501.got.cif
#   From: 2010.05.17/outbox.cif.g08.bks.cpg/sg20_10_cif.got.tgz:18501.got - 2010.06.03 22:52:26.
