data_PCOD9319830
_publ_section_title
;
Structure prediction by ZEFSAII (Michael W. Deem and Ramdas Pophale) SiO2 
 PCOD9319830
Probable space group: C 2 2 21
;
_chemical_formula_sum "Si O2"
_cell_formula_units_Z 52
_cell_length_a 8.557135
_cell_length_b 15.893569
_cell_length_c 20.749630
_cell_angle_alpha 90.000000
_cell_angle_beta 90.000000
_cell_angle_gamma 90.000000
_cell_volume 2822.020552
_symmetry_space_group_name_H-M "C 2 2 21"
_symmetry_group_IT_number 20
_symmetry_cell_setting 'orthorhombic'
loop_
_space_group_symop_operation_xyz
x,y,z
-x,-y,1/2+z
x,-y,-z
-x,y,1/2-z
1/2+x,1/2+y,z
1/2-x,1/2-y,1/2+z
1/2+x,1/2-y,-z
1/2-x,1/2+y,1/2-z
loop_
_atom_site_type_symbol
_atom_site_label
_atom_site_fract_x
_atom_site_fract_y
_atom_site_fract_z
Si Si1 0.150724 0.326480 0.471494
Si Si2 0.274274 0.744650 0.333909
Si Si3 0.233161 0.907386 0.159240
Si Si4 0.101199 0.000000 0.500000
Si Si5 0.000000 0.355174 0.250000
Si Si6 0.723764 0.164108 0.963756
Si Si7 0.000000 0.194704 0.750000
Si Si8 0.666515 0.420246 0.913612
O O1 0.221175 0.351210 0.402567
O O2 0.202130 0.231214 0.486952
O O3 0.221717 0.387316 0.527691
O O4 0.963583 0.333612 0.470045
O O5 0.411665 0.794469 0.299212
O O6 0.225923 0.800101 0.394967
O O7 0.128746 0.747025 0.285086
O O8 0.334866 0.657564 0.363927
O O9 0.374122 0.907882 0.210399
O O10 0.088678 0.865202 0.197967
O O11 0.213916 0.998954 0.128134
O O12 0.209330 0.071460 0.529924
O O13 0.990693 0.049229 0.449409
#
# Coordination Sequence:
#
# PCOD9319830 Si02
#       8
#     8   8   8   4   4   8   4   8
#     4  11  23  41  67  94 131 168 206 267 326 382
#     4  10  22  41  61  90 125 169 216 254 317 381
#     4  11  22  42  64  91 129 164 215 261 312 376
#     4  12  24  38  62 102 122 164 206 260 334 378
#     4  10  22  40  64  82 122 178 212 254 308 380
#     4  11  24  39  65  94 129 165 209 263 328 377
#     4  10  24  40  66  88 124 182 212 256 312 386
#     4  11  24  40  66  94 132 159 210 274 321 376
#
# _framework density 18.426513
#
# number of rings (size 3 to 8) (size 9 to 14) (size 15 to 20)
#    0.000    1.231    3.077    2.769    6.462    1.231 
#    0.000    0.000    0.000    0.000    0.000    0.000 
#    0.000    0.000    0.000    0.000    0.000    0.000 
#
# Total GULP energy -145091.742706 kJ/mol
# GULP energy per Si atom -5580.451643 kJ/mol
# Density = 1.838457 g / cm^3
# Si number density = 18.426513 Si / 1000 Ang^3
#
#
#
# Elastic Constant Matrix: (Units=GPa)
#
#
# Indices 1 2 3 4 5 6 
#
# 1 86.6851 30.0299 10.6163 0.0000 0.0000 0.0000
# 2 30.0299 104.4981 35.8447 0.0000 0.0000 0.0000
# 3 10.6163 35.8447 67.2591 0.0000 0.0000 0.0000
# 4 0.0000 0.0000 0.0000 37.1468 0.0000 0.0000
# 5 0.0000 0.0000 0.0000 0.0000 9.6949 0.0000
# 6 0.0000 0.0000 0.0000 0.0000 0.0000 24.0626
#
#
#
# Elastic Compliance Matrix: (Units=1/GPa)
#
#
# Indices 1 2 3 4 5 6 
#
# 1 0.012812 -0.003657 -0.000074 0.000000 0.000000 0.000000
# 2 -0.003657 0.012754 -0.006220 0.000000 0.000000 0.000000
# 3 -0.000074 -0.006220 0.018194 0.000000 0.000000 0.000000
# 4 0.000000 0.000000 0.000000 0.026920 0.000000 0.000000
# 5 0.000000 0.000000 0.000000 0.000000 0.103147 0.000000
# 6 0.000000 0.000000 0.000000 0.000000 0.000000 0.041558
#
#
# Mechanical properties :
#
#
# Convention : Reuss Voigt Hill
#
# Bulk Modulus (GPa) = 41.91102 45.71377 43.81239
# Shear Modulus (GPa) = 20.55598 26.31098 23.43348
#
# Velocity S-wave (km/s) = 3.34363 3.78284 3.57000
# Velocity P-wave (km/s) = 6.14010 6.62890 6.38918
#
# Compressibility (1/GPa) = 0.02386007
#
# Stress axis : x y z
#
# Youngs Moduli (GPa) = 78.05354 78.40778 54.96247
#
# Poissons Ratio (x) = 0.28670 0.00404
# Poissons Ratio (y) = 0.28540 0.34186
# Poissons Ratio (z) = 0.00574 0.48768
#
# Static dielectric constant tensor:
#      x y z
#    x 1.635020 0.000000 0.000000 
#    y 0.000000 1.626130 0.000000 
#    z 0.000000 0.000000 1.553570 
# 
# From -- ./inp_files/26677.got.cif
#   From: 2010.05.17/outbox.cif.g08.bks.cpg/sg20_14_cif.got.tgz:26677.got - 2010.06.03 22:52:26.
