data_PCOD9319597
_publ_section_title
;
Structure prediction by ZEFSAII (Michael W. Deem and Ramdas Pophale) SiO2 
 PCOD9319597
Probable space group: C 2 2 21
;
_chemical_formula_sum "Si O2"
_cell_formula_units_Z 36
_cell_length_a 18.143634
_cell_length_b 11.960585
_cell_length_c 9.369601
_cell_angle_alpha 90.000000
_cell_angle_beta 90.000000
_cell_angle_gamma 90.000000
_cell_volume 2033.282840
_symmetry_space_group_name_H-M "C 2 2 21"
_symmetry_group_IT_number 20
_symmetry_cell_setting 'orthorhombic'
loop_
_space_group_symop_operation_xyz
x,y,z
-x,-y,1/2+z
x,-y,-z
-x,y,1/2-z
1/2+x,1/2+y,z
1/2-x,1/2-y,1/2+z
1/2+x,1/2-y,-z
1/2-x,1/2+y,1/2-z
loop_
_atom_site_type_symbol
_atom_site_label
_atom_site_fract_x
_atom_site_fract_y
_atom_site_fract_z
Si Si1 0.837972 0.178447 0.779664
Si Si2 0.163455 0.076474 0.202460
Si Si3 0.500000 0.656719 0.750000
Si Si4 0.707171 0.000000 0.500000
Si Si5 0.699980 0.770150 0.412411
Si Si6 0.958381 0.000000 0.500000
O O1 0.921658 0.219539 0.752138
O O2 0.782191 0.213099 0.653003
O O3 0.842636 0.043479 0.779818
O O4 0.806429 0.218212 0.930473
O O5 0.163126 0.182010 0.305152
O O6 0.096126 0.078246 0.091998
O O7 0.238907 0.061833 0.112909
O O8 0.501064 0.577167 0.610409
O O9 0.667378 0.103598 0.576632
#
# Coordination Sequence:
#
# PCOD9319597 Si02
#       6
#     8   8   4   4   8   4
#     4  10  22  34  58  85 117 152 197 245 298 359
#     4   9  18  34  54  84 116 146 197 237 289 354
#     4  10  22  36  52  90 124 156 186 246 312 362
#     4   9  18  32  48  88 112 143 188 256 271 336
#     4  11  19  35  58  84 113 159 197 244 294 342
#     4   9  20  34  56  82 130 149 184 242 309 372
#
# _framework density 17.705359000000001
#
# number of rings (size 3 to 8) (size 9 to 14) (size 15 to 20)
#    0.000    2.222    2.222    2.000    6.222    0.000 
#    0.000    0.000    0.000    0.000   11.556    0.000 
#    0.000    0.000    0.000    0.000    0.000    0.000 
#
# Total GULP energy -100224.775517 kJ/mol
# GULP energy per Si atom -5568.043084 kJ/mol
# Density = 1.766506 g / cm^3
# Si number density = 17.705359 Si / 1000 Ang^3
#
#
#
# Elastic Constant Matrix: (Units=GPa)
#
#
# Indices 1 2 3 4 5 6 
#
# 1 77.8641 25.6000 40.5738 0.0000 0.0000 0.0000
# 2 25.6000 83.8023 45.3916 0.0000 0.0000 0.0000
# 3 40.5738 45.3916 114.0825 0.0000 0.0000 0.0000
# 4 0.0000 0.0000 0.0000 42.9854 0.0000 0.0000
# 5 0.0000 0.0000 0.0000 0.0000 30.6376 0.0000
# 6 0.0000 0.0000 0.0000 0.0000 0.0000 9.9286
#
#
#
# Elastic Compliance Matrix: (Units=1/GPa)
#
#
# Indices 1 2 3 4 5 6 
#
# 1 0.016110 -0.002317 -0.004808 0.000000 0.000000 0.000000
# 2 -0.002317 0.015544 -0.005361 0.000000 0.000000 0.000000
# 3 -0.004808 -0.005361 0.012608 0.000000 0.000000 0.000000
# 4 0.000000 0.000000 0.000000 0.023264 0.000000 0.000000
# 5 0.000000 0.000000 0.000000 0.000000 0.032640 0.000000
# 6 0.000000 0.000000 0.000000 0.000000 0.000000 0.100719
#
#
# Mechanical properties :
#
#
# Convention : Reuss Voigt Hill
#
# Bulk Modulus (GPa) = 51.83605 55.43106 53.63356
# Shear Modulus (GPa) = 21.52515 27.65589 24.59052
#
# Velocity S-wave (km/s) = 3.49053 3.95651 3.73080
# Velocity P-wave (km/s) = 6.75172 7.22824 6.99404
#
# Compressibility (1/GPa) = 0.01929159
#
# Stress axis : x y z
#
# Youngs Moduli (GPa) = 62.07366 64.33209 79.31261
#
# Poissons Ratio (x) = 0.14907 0.38130
# Poissons Ratio (y) = 0.14384 0.42517
# Poissons Ratio (z) = 0.29842 0.34487
#
# Static dielectric constant tensor:
#      x y z
#    x 1.635430 0.000000 0.000000 
#    y 0.000000 1.634140 0.000000 
#    z 0.000000 0.000000 1.640380 
# 
# From -- ./inp_files/7194.got.cif
#   From: 2010.05.17/outbox.cif.g08.bks.cpg/sg20_4_cif.got.tgz:7194.got - 2010.06.03 22:52:26.
