data_PCOD9320403
_publ_section_title
;
Structure prediction by ZEFSAII (Michael W. Deem and Ramdas Pophale) SiO2 
 PCOD9320403
Probable space group: C 2 2 21
;
_chemical_formula_sum "Si O2"
_cell_formula_units_Z 56
_cell_length_a 12.766682
_cell_length_b 14.910968
_cell_length_c 13.357313
_cell_angle_alpha 90.000000
_cell_angle_beta 90.000000
_cell_angle_gamma 90.000000
_cell_volume 2542.746012
_symmetry_space_group_name_H-M "C 2 2 21"
_symmetry_group_IT_number 20
_symmetry_cell_setting 'orthorhombic'
loop_
_space_group_symop_operation_xyz
x,y,z
-x,-y,1/2+z
x,-y,-z
-x,y,1/2-z
1/2+x,1/2+y,z
1/2-x,1/2-y,1/2+z
1/2+x,1/2-y,-z
1/2-x,1/2+y,1/2-z
loop_
_atom_site_type_symbol
_atom_site_label
_atom_site_fract_x
_atom_site_fract_y
_atom_site_fract_z
Si Si1 0.185009 0.338853 0.628934
Si Si2 0.414143 0.597177 0.045393
Si Si3 0.975422 0.751174 0.436445
Si Si4 0.634633 0.000000 0.500000
Si Si5 0.000000 0.159616 0.250000
Si Si6 0.134463 0.705973 0.859711
Si Si7 0.196433 0.355356 0.859949
Si Si8 0.050838 0.484444 0.146342
O O1 0.200219 0.420642 0.551512
O O2 0.256712 0.251760 0.610353
O O3 0.207993 0.371156 0.741568
O O4 0.065496 0.307907 0.614495
O O5 0.479664 0.602501 0.149905
O O6 0.303260 0.639834 0.078813
O O7 0.395881 0.500000 0.000000
O O8 0.475904 0.652726 0.960627
O O9 0.943958 0.718138 0.547181
O O10 0.868959 0.736397 0.374531
O O11 0.551848 0.962333 0.418786
O O12 0.093290 0.229974 0.228592
O O13 0.124609 0.601685 0.834889
O O14 0.120607 0.435552 0.898345
O O15 0.000000 0.515624 0.250000
#
# Coordination Sequence:
#
# PCOD9320403 Si02
#       8
#     8   8   8   4   4   8   8   8
#     4  12  24  44  70 107 146 192 238 313 365 433
#     4  11  27  48  77 104 148 202 248 296 374 439
#     4  11  24  44  70  99 144 189 235 298 369 430
#     4  12  24  44  70 104 150 180 250 300 370 426
#     4  10  22  50  70  98 144 196 242 304 356 454
#     4  11  23  42  69 101 143 185 239 296 375 428
#     4  12  24  45  73 112 146 184 252 311 358 430
#     4  12  22  41  73 106 136 191 242 311 365 429
#
# _framework density 22.023434999999999
#
# number of rings (size 3 to 8) (size 9 to 14) (size 15 to 20)
#    0.000    0.571    6.429    1.286    5.000    0.000 
#   10.286    0.000    0.000    0.000    0.000    0.000 
#    0.000    0.000    0.000    0.000    0.000    0.000 
#
# Total GULP energy -156378.743397 kJ/mol
# GULP energy per Si atom -5584.955121 kJ/mol
# Density = 2.197331 g / cm^3
# Si number density = 22.023435 Si / 1000 Ang^3
#
#
#
# Elastic Constant Matrix: (Units=GPa)
#
#
# Indices 1 2 3 4 5 6 
#
# 1 90.1389 56.3800 4.5137 0.0000 0.0000 0.0000
# 2 56.3800 70.6717 37.3789 0.0000 0.0000 0.0000
# 3 4.5137 37.3789 81.9834 0.0000 0.0000 0.0000
# 4 0.0000 0.0000 0.0000 36.9609 0.0000 0.0000
# 5 0.0000 0.0000 0.0000 0.0000 20.1402 0.0000
# 6 0.0000 0.0000 0.0000 0.0000 0.0000 34.6862
#
#
#
# Elastic Compliance Matrix: (Units=1/GPa)
#
#
# Indices 1 2 3 4 5 6 
#
# 1 0.028681 -0.029051 0.011666 0.000000 0.000000 0.000000
# 2 -0.029051 0.048073 -0.020318 0.000000 0.000000 0.000000
# 3 0.011666 -0.020318 0.020819 0.000000 0.000000 0.000000
# 4 0.000000 0.000000 0.000000 0.027056 0.000000 0.000000
# 5 0.000000 0.000000 0.000000 0.000000 0.049652 0.000000
# 6 0.000000 0.000000 0.000000 0.000000 0.000000 0.028830
#
#
# Mechanical properties :
#
#
# Convention : Reuss Voigt Hill
#
# Bulk Modulus (GPa) = 45.11417 48.81548 46.96482
# Shear Modulus (GPa) = 17.48831 27.99222 22.74027
#
# Velocity S-wave (km/s) = 2.82100 3.56900 3.21682
# Velocity P-wave (km/s) = 5.58030 6.26076 5.93030
#
# Compressibility (1/GPa) = 0.02216599
#
# Stress axis : x y z
#
# Youngs Moduli (GPa) = 34.86671 20.80182 48.03275
#
# Poissons Ratio (x) = 0.60431 -0.56036
# Poissons Ratio (y) = 1.01291 0.97595
# Poissons Ratio (z) = -0.40676 0.42266
#
# Static dielectric constant tensor:
#      x y z
#    x 1.868750 0.000000 0.000000 
#    y 0.000000 1.823430 0.000000 
#    z 0.000000 0.000000 1.845670 
# 
# From -- ./inp_files/20108.got.cif
#   From: 2010.05.17/outbox.cif.g08.bks.cpg/sg20_11_cif.got.tgz:20108.got - 2010.06.03 22:52:26.
