data_PCOD9320155
_publ_section_title
;
Structure prediction by ZEFSAII (Michael W. Deem and Ramdas Pophale) SiO2 
 PCOD9320155
Probable space group: C 2 2 21
;
_chemical_formula_sum "Si O2"
_cell_formula_units_Z 48
_cell_length_a 5.993210
_cell_length_b 20.461127
_cell_length_c 17.945120
_cell_angle_alpha 90.000000
_cell_angle_beta 90.000000
_cell_angle_gamma 90.000000
_cell_volume 2200.571142
_symmetry_space_group_name_H-M "C 2 2 21"
_symmetry_group_IT_number 20
_symmetry_cell_setting 'orthorhombic'
loop_
_space_group_symop_operation_xyz
x,y,z
-x,-y,1/2+z
x,-y,-z
-x,y,1/2-z
1/2+x,1/2+y,z
1/2-x,1/2-y,1/2+z
1/2+x,1/2-y,-z
1/2-x,1/2+y,1/2-z
loop_
_atom_site_type_symbol
_atom_site_label
_atom_site_fract_x
_atom_site_fract_y
_atom_site_fract_z
Si Si1 0.246591 0.652920 0.288305
Si Si2 0.692546 0.280151 0.386201
Si Si3 0.441766 0.474717 0.663771
Si Si4 0.952792 0.678360 0.995825
Si Si5 0.708729 0.058293 0.041161
Si Si6 0.070237 0.899375 0.080668
O O1 0.500000 0.654990 0.250000
O O2 0.222545 0.723308 0.326905
O O3 0.284273 0.588886 0.339932
O O4 0.000000 0.643108 0.250000
O O5 0.924979 0.305496 0.418647
O O6 0.586527 0.243565 0.457970
O O7 0.547084 0.343909 0.368374
O O8 0.500000 0.486385 0.750000
O O9 0.668459 0.459337 0.617729
O O10 0.339788 0.540080 0.628141
O O11 0.738757 0.638692 0.971527
O O12 0.092778 0.628196 0.045942
O O13 0.893510 0.070679 0.977099
O O14 0.570424 0.000000 0.000000
#
# Coordination Sequence:
#
# PCOD9320155 Si02
#       6
#     8   8   8   8   8   8
#     4  11  28  48  72 101 141 194 244 293 354 435
#     4  11  24  40  69 102 138 178 234 298 356 429
#     4  10  23  45  69  99 139 183 239 294 356 431
#     4  11  22  38  70  99 133 177 228 299 360 419
#     4   9  21  40  65 100 134 173 230 291 356 425
#     4  10  22  43  66 101 140 181 233 296 368 427
#
# _framework density 21.812518000000001
#
# number of rings (size 3 to 8) (size 9 to 14) (size 15 to 20)
#    0.000    1.667    1.667    1.000    9.333    4.000 
#   12.000    0.000    0.000    0.000    0.000    0.000 
#    0.000    0.000    0.000    0.000    0.000    0.000 
#
# Total GULP energy -133804.242291 kJ/mol
# GULP energy per Si atom -5575.176762 kJ/mol
# Density = 2.176287 g / cm^3
# Si number density = 21.812518 Si / 1000 Ang^3
#
#
#
# Elastic Constant Matrix: (Units=GPa)
#
#
# Indices 1 2 3 4 5 6 
#
# 1 60.1538 26.1854 20.5673 0.0000 0.0000 0.0000
# 2 26.1854 139.4651 35.8623 0.0000 0.0000 0.0000
# 3 20.5673 35.8623 66.3483 0.0000 0.0000 0.0000
# 4 0.0000 0.0000 0.0000 48.0406 0.0000 0.0000
# 5 0.0000 0.0000 0.0000 0.0000 19.0024 0.0000
# 6 0.0000 0.0000 0.0000 0.0000 0.0000 0.6731
#
#
#
# Elastic Compliance Matrix: (Units=1/GPa)
#
#
# Indices 1 2 3 4 5 6 
#
# 1 0.019273 -0.002418 -0.004667 0.000000 0.000000 0.000000
# 2 -0.002418 0.008631 -0.003916 0.000000 0.000000 0.000000
# 3 -0.004667 -0.003916 0.018635 0.000000 0.000000 0.000000
# 4 0.000000 0.000000 0.000000 0.020816 0.000000 0.000000
# 5 0.000000 0.000000 0.000000 0.000000 0.052625 0.000000
# 6 0.000000 0.000000 0.000000 0.000000 0.000000 1.485623
#
#
# Mechanical properties :
#
#
# Convention : Reuss Voigt Hill
#
# Bulk Modulus (GPa) = 40.75538 47.91083 44.33310
# Shear Modulus (GPa) = 3.05664 25.76670 14.41167
#
# Velocity S-wave (km/s) = 1.18506 3.44070 2.57321
# Velocity P-wave (km/s) = 4.53844 6.14794 5.40345
#
# Compressibility (1/GPa) = 0.02453664
#
# Stress axis : x y z
#
# Youngs Moduli (GPa) = 51.88725 115.85885 53.66194
#
# Poissons Ratio (x) = 0.28020 0.25045
# Poissons Ratio (y) = 0.12549 0.21012
# Poissons Ratio (z) = 0.24216 0.45366
#
# Static dielectric constant tensor:
#      x y z
#    x 1.855130 0.000000 0.000000 
#    y 0.000000 1.810940 0.000000 
#    z 0.000000 0.000000 1.814140 
# 
# From -- ./inp_files/26056.got.cif
#   From: 2010.05.17/outbox.cif.g08.bks.cpg/sg20_14_cif.got.tgz:26056.got - 2010.06.03 22:52:26.
