data_PCOD9320500
_publ_section_title
;
Structure prediction by ZEFSAII (Michael W. Deem and Ramdas Pophale) SiO2 
 PCOD9320500
Probable space group: C 2 2 21
;
_chemical_formula_sum "Si O2"
_cell_formula_units_Z 64
_cell_length_a 11.906323
_cell_length_b 15.201743
_cell_length_c 16.438802
_cell_angle_alpha 90.000000
_cell_angle_beta 90.000000
_cell_angle_gamma 90.000000
_cell_volume 2975.371582
_symmetry_space_group_name_H-M "C 2 2 21"
_symmetry_group_IT_number 20
_symmetry_cell_setting 'orthorhombic'
loop_
_space_group_symop_operation_xyz
x,y,z
-x,-y,1/2+z
x,-y,-z
-x,y,1/2-z
1/2+x,1/2+y,z
1/2-x,1/2-y,1/2+z
1/2+x,1/2-y,-z
1/2-x,1/2+y,1/2-z
loop_
_atom_site_type_symbol
_atom_site_label
_atom_site_fract_x
_atom_site_fract_y
_atom_site_fract_z
Si Si1 0.143661 0.306226 0.459979
Si Si2 0.786066 0.765008 0.686119
Si Si3 0.415842 0.575487 0.385250
Si Si4 0.890287 0.120866 0.573309
Si Si5 0.126973 0.582921 0.114281
Si Si6 0.405909 0.881821 0.423668
Si Si7 0.949374 0.275804 0.863655
Si Si8 0.642031 0.343274 0.657910
O O1 0.263034 0.345368 0.435562
O O2 0.120598 0.302185 0.555515
O O3 0.138901 0.208112 0.426607
O O4 0.036938 0.356795 0.423386
O O5 0.820450 0.860704 0.650394
O O6 0.836545 0.690757 0.626650
O O7 0.652309 0.753858 0.697026
O O8 0.848031 0.768929 0.772882
O O9 0.428333 0.601268 0.480475
O O10 0.391557 0.472366 0.381060
O O11 0.531030 0.599151 0.339842
O O12 0.970466 0.193726 0.613941
O O13 0.106960 0.479258 0.111405
O O14 0.244081 0.601816 0.158018
O O15 0.028762 0.641202 0.153860
O O16 0.130306 0.614935 0.019078
#
# Coordination Sequence:
#
# PCOD9320500 Si02
#       8
#     8   8   8   8   8   8   8   8
#     4  11  21  42  68  95 130 172 223 275 333 388
#     4  12  25  43  62  94 138 181 215 267 341 407
#     4  11  24  40  66  98 132 173 223 278 328 393
#     4  11  23  40  70 103 127 168 229 284 328 376
#     4  10  23  42  68 100 128 168 227 282 328 384
#     4  10  23  41  72  97 126 173 226 279 331 393
#     4  11  22  41  67  96 133 166 218 285 327 391
#     4  12  24  43  63  90 138 180 212 269 330 404
#
# _framework density 21.509919
#
# number of rings (size 3 to 8) (size 9 to 14) (size 15 to 20)
#    0.000    1.000    5.000    1.875    3.500    2.500 
#    2.250    2.500    0.000    0.000    0.000    0.000 
#    0.000    0.000    0.000    0.000    0.000    0.000 
#
# Total GULP energy -178917.474472 kJ/mol
# GULP energy per Si atom -5591.171077 kJ/mol
# Density = 2.146096 g / cm^3
# Si number density = 21.509919 Si / 1000 Ang^3
#
#
#
# Elastic Constant Matrix: (Units=GPa)
#
#
# Indices 1 2 3 4 5 6 
#
# 1 151.4634 76.0602 27.9462 0.0000 0.0000 0.0000
# 2 76.0602 112.5741 5.3505 0.0000 0.0000 0.0000
# 3 27.9462 5.3505 30.6919 0.0000 0.0000 0.0000
# 4 0.0000 0.0000 0.0000 14.1806 0.0000 0.0000
# 5 0.0000 0.0000 0.0000 0.0000 16.9520 0.0000
# 6 0.0000 0.0000 0.0000 0.0000 0.0000 27.4868
#
#
#
# Elastic Compliance Matrix: (Units=1/GPa)
#
#
# Indices 1 2 3 4 5 6 
#
# 1 0.012403 -0.007909 -0.009915 0.000000 0.000000 0.000000
# 2 -0.007909 0.014000 0.004761 0.000000 0.000000 0.000000
# 3 -0.009915 0.004761 0.040780 0.000000 0.000000 0.000000
# 4 0.000000 0.000000 0.000000 0.070519 0.000000 0.000000
# 5 0.000000 0.000000 0.000000 0.000000 0.058990 0.000000
# 6 0.000000 0.000000 0.000000 0.000000 0.000000 0.036381
#
#
# Mechanical properties :
#
#
# Convention : Reuss Voigt Hill
#
# Bulk Modulus (GPa) = 24.35619 57.04925 40.70272
# Shear Modulus (GPa) = 18.32268 24.08204 21.20236
#
# Velocity S-wave (km/s) = 2.92177 3.34964 3.14299
# Velocity P-wave (km/s) = 4.76761 6.44515 5.66878
#
# Compressibility (1/GPa) = 0.04105733
#
# Stress axis : x y z
#
# Youngs Moduli (GPa) = 80.62394 71.42643 24.52188
#
# Poissons Ratio (x) = 0.56491 0.24313
# Poissons Ratio (y) = 0.63765 -0.11674
# Poissons Ratio (z) = 0.79938 -0.34004
#
# Static dielectric constant tensor:
#      x y z
#    x 1.825870 0.000000 0.000000 
#    y 0.000000 1.735770 0.000000 
#    z 0.000000 0.000000 1.852050 
# 
# From -- ./inp_files/24443.got.cif
#   From: 2010.05.17/outbox.cif.g08.bks.cpg/sg20_13_cif.got.tgz:24443.got - 2010.06.03 22:52:26.
