data_PCOD9320233
_publ_section_title
;
Structure prediction by ZEFSAII (Michael W. Deem and Ramdas Pophale) SiO2 
 PCOD9320233
Probable space group: C 2 2 21
;
_chemical_formula_sum "Si O2"
_cell_formula_units_Z 24
_cell_length_a 25.462205
_cell_length_b 8.240139
_cell_length_c 5.216599
_cell_angle_alpha 90.000000
_cell_angle_beta 90.000000
_cell_angle_gamma 90.000000
_cell_volume 1094.505635
_symmetry_space_group_name_H-M "C 2 2 21"
_symmetry_group_IT_number 20
_symmetry_cell_setting 'orthorhombic'
loop_
_space_group_symop_operation_xyz
x,y,z
-x,-y,1/2+z
x,-y,-z
-x,y,1/2-z
1/2+x,1/2+y,z
1/2-x,1/2-y,1/2+z
1/2+x,1/2-y,-z
1/2-x,1/2+y,1/2-z
loop_
_atom_site_type_symbol
_atom_site_label
_atom_site_fract_x
_atom_site_fract_y
_atom_site_fract_z
Si Si1 0.284275 0.785264 0.156682
Si Si2 0.114075 0.173921 0.139995
Si Si3 0.657883 0.000000 0.000000
Si Si4 0.500000 0.388303 0.750000
O O1 0.250371 0.731920 0.406383
O O2 0.338088 0.680243 0.156643
O O3 0.306332 0.957812 0.257131
O O4 0.126226 0.332602 0.964860
O O5 0.055826 0.201501 0.249355
O O6 0.115764 0.000000 0.000000
O O7 0.500380 0.500000 0.500000
#
# Coordination Sequence:
#
# PCOD9320233 Si02
#       4
#     8   8   4   4
#     4  10  23  38  62  93 129 161 205 257 313 377
#     4   9  21  40  66  90 131 164 215 260 320 370
#     4   8  22  40  64  98 124 168 220 248 324 384
#     4  10  22  44  66  94 128 168 218 264 322 378
#
# _framework density 21.927706000000001
#
# number of rings (size 3 to 8) (size 9 to 14) (size 15 to 20)
#    2.000    0.667    0.000    0.000    4.667    5.333 
#    0.000    6.667    0.000    0.000    0.000    0.000 
#    0.000    0.000    0.000    0.000    0.000    0.000 
#
# Total GULP energy -66803.824671 kJ/mol
# GULP energy per Si atom -5566.985389 kJ/mol
# Density = 2.187780 g / cm^3
# Si number density = 21.927706 Si / 1000 Ang^3
#
#
#
# Elastic Constant Matrix: (Units=GPa)
#
#
# Indices 1 2 3 4 5 6 
#
# 1 212.3821 49.8035 46.1287 0.0000 0.0000 0.0000
# 2 49.8035 132.0466 26.1055 0.0000 0.0000 0.0000
# 3 46.1287 26.1055 101.7913 0.0000 0.0000 0.0000
# 4 0.0000 0.0000 0.0000 16.6272 0.0000 0.0000
# 5 0.0000 0.0000 0.0000 0.0000 17.8561 0.0000
# 6 0.0000 0.0000 0.0000 0.0000 0.0000 39.4969
#
#
#
# Elastic Compliance Matrix: (Units=1/GPa)
#
#
# Indices 1 2 3 4 5 6 
#
# 1 0.005556 -0.001683 -0.002086 0.000000 0.000000 0.000000
# 2 -0.001683 0.008487 -0.001414 0.000000 0.000000 0.000000
# 3 -0.002086 -0.001414 0.011132 0.000000 0.000000 0.000000
# 4 0.000000 0.000000 0.000000 0.060142 0.000000 0.000000
# 5 0.000000 0.000000 0.000000 0.000000 0.056003 0.000000
# 6 0.000000 0.000000 0.000000 0.000000 0.000000 0.025318
#
#
# Mechanical properties :
#
#
# Convention : Reuss Voigt Hill
#
# Bulk Modulus (GPa) = 67.52630 76.69949 72.11290
# Shear Modulus (GPa) = 27.48109 36.40819 31.94464
#
# Velocity S-wave (km/s) = 3.54398 4.07919 3.82097
# Velocity P-wave (km/s) = 6.89987 7.56576 7.24047
#
# Compressibility (1/GPa) = 0.01480905
#
# Stress axis : x y z
#
# Youngs Moduli (GPa) = 179.97462 117.82078 89.83050
#
# Poissons Ratio (x) = 0.19832 0.18741
# Poissons Ratio (y) = 0.30293 0.12701
# Poissons Ratio (z) = 0.37548 0.16659
#
# Static dielectric constant tensor:
#      x y z
#    x 1.855490 0.000000 0.000000 
#    y 0.000000 1.889450 0.000000 
#    z 0.000000 0.000000 1.825740 
# 
# From -- ./inp_files/3967.got.cif
#   From: 2010.05.17/outbox.cif.g08.bks.cpg/sg20_2_cif.got.tgz:3967.got - 2010.06.03 22:52:26.
