data_PCOD9320907
_publ_section_title
;
Structure prediction by ZEFSAII (Michael W. Deem and Ramdas Pophale) SiO2 
 PCOD9320907
Probable space group: C 2 2 21
;
_chemical_formula_sum "Si O2"
_cell_formula_units_Z 40
_cell_length_a 6.644508
_cell_length_b 8.683840
_cell_length_c 26.590804
_cell_angle_alpha 90.000000
_cell_angle_beta 90.000000
_cell_angle_gamma 90.000000
_cell_volume 1534.285252
_symmetry_space_group_name_H-M "C 2 2 21"
_symmetry_group_IT_number 20
_symmetry_cell_setting 'orthorhombic'
loop_
_space_group_symop_operation_xyz
x,y,z
-x,-y,1/2+z
x,-y,-z
-x,y,1/2-z
1/2+x,1/2+y,z
1/2-x,1/2-y,1/2+z
1/2+x,1/2-y,-z
1/2-x,1/2+y,1/2-z
loop_
_atom_site_type_symbol
_atom_site_label
_atom_site_fract_x
_atom_site_fract_y
_atom_site_fract_z
Si Si1 0.484317 0.500000 0.000000
Si Si2 0.283722 0.731956 0.662152
Si Si3 0.713231 0.423681 0.340614
Si Si4 0.969762 0.578960 0.917928
Si Si5 0.655912 0.810253 0.529507
Si Si6 0.500000 0.865164 0.250000
O O1 0.909081 0.647195 0.972010
O O2 0.356654 0.626827 0.971101
O O3 0.518286 0.682129 0.669359
O O4 0.199253 0.897531 0.643454
O O5 0.209769 0.606972 0.621355
O O6 0.163435 0.717335 0.714671
O O7 0.856473 0.443222 0.291480
O O8 0.847613 0.352171 0.385298
O O9 0.990284 0.396941 0.931886
O O10 0.865900 0.899706 0.534375
#
# Coordination Sequence:
#
# PCOD9320907 Si02
#       6
#     4   8   8   8   8   4
#     4  10  24  44  72 102 146 198 264 304 370 442
#     4  11  26  46  75 113 150 198 256 317 386 460
#     4  11  26  45  79 108 154 196 258 315 388 458
#     4   9  24  48  70 114 152 205 258 320 376 454
#     4  10  24  48  72 108 152 207 253 311 377 446
#     4  10  26  44  74 108 154 192 252 314 392 462
#
# _framework density 26.070772000000002
#
# number of rings (size 3 to 8) (size 9 to 14) (size 15 to 20)
#    0.000    2.000    0.000    0.600   11.200   13.600 
#    0.000    0.000    0.000    0.000    0.000    0.000 
#    0.000    0.000    0.000    0.000    0.000    0.000 
#
# Total GULP energy -111558.778614 kJ/mol
# GULP energy per Si atom -5577.938931 kJ/mol
# Density = 2.601143 g / cm^3
# Si number density = 26.070772 Si / 1000 Ang^3
#
#
#
# Elastic Constant Matrix: (Units=GPa)
#
#
# Indices 1 2 3 4 5 6 
#
# 1 130.8645 35.4868 26.6167 0.0000 0.0000 0.0000
# 2 35.4868 140.7417 10.2606 0.0000 0.0000 0.0000
# 3 26.6167 10.2606 116.1168 0.0000 0.0000 0.0000
# 4 0.0000 0.0000 0.0000 26.7970 0.0000 0.0000
# 5 0.0000 0.0000 0.0000 0.0000 51.6680 0.0000
# 6 0.0000 0.0000 0.0000 0.0000 0.0000 37.7806
#
#
#
# Elastic Compliance Matrix: (Units=1/GPa)
#
#
# Indices 1 2 3 4 5 6 
#
# 1 0.008553 -0.002027 -0.001782 0.000000 0.000000 0.000000
# 2 -0.002027 0.007632 -0.000210 0.000000 0.000000 0.000000
# 3 -0.001782 -0.000210 0.009039 0.000000 0.000000 0.000000
# 4 0.000000 0.000000 0.000000 0.037318 0.000000 0.000000
# 5 0.000000 0.000000 0.000000 0.000000 0.019354 0.000000
# 6 0.000000 0.000000 0.000000 0.000000 0.000000 0.026469
#
#
# Mechanical properties :
#
#
# Convention : Reuss Voigt Hill
#
# Bulk Modulus (GPa) = 58.18119 59.16125 58.67122
# Shear Modulus (GPa) = 40.93999 44.27305 42.60652
#
# Velocity S-wave (km/s) = 3.96705 4.12538 4.04699
# Velocity P-wave (km/s) = 6.58395 6.74044 6.66265
#
# Compressibility (1/GPa) = 0.01718769
#
# Stress axis : x y z
#
# Youngs Moduli (GPa) = 116.91186 131.03501 110.63262
#
# Poissons Ratio (x) = 0.26558 0.19710
# Poissons Ratio (y) = 0.23696 0.02321
# Poissons Ratio (z) = 0.20828 0.02749
#
# Static dielectric constant tensor:
#      x y z
#    x 2.229490 0.000000 0.000000 
#    y 0.000000 2.289460 0.000000 
#    z 0.000000 0.000000 2.052580 
# 
# From -- ./inp_files/29716.got.cif
#   From: 2010.05.17/outbox.cif.g08.bks.cpg/sg20_15_cif.got.tgz:29716.got - 2010.06.03 22:52:26.
