data_PCOD9320602
_publ_section_title
;
Structure prediction by ZEFSAII (Michael W. Deem and Ramdas Pophale) SiO2 
 PCOD9320602
Probable space group: C 2 2 21
;
_chemical_formula_sum "Si O2"
_cell_formula_units_Z 32
_cell_length_a 7.167328
_cell_length_b 15.477629
_cell_length_c 11.759534
_cell_angle_alpha 90.000000
_cell_angle_beta 90.000000
_cell_angle_gamma 90.000000
_cell_volume 1304.523251
_symmetry_space_group_name_H-M "C 2 2 21"
_symmetry_group_IT_number 20
_symmetry_cell_setting 'orthorhombic'
loop_
_space_group_symop_operation_xyz
x,y,z
-x,-y,1/2+z
x,-y,-z
-x,y,1/2-z
1/2+x,1/2+y,z
1/2-x,1/2-y,1/2+z
1/2+x,1/2-y,-z
1/2-x,1/2+y,1/2-z
loop_
_atom_site_type_symbol
_atom_site_label
_atom_site_fract_x
_atom_site_fract_y
_atom_site_fract_z
Si Si1 0.592682 0.102194 0.998909
Si Si2 0.612348 0.328517 0.348707
Si Si3 0.154850 0.099527 0.031304
Si Si4 0.299498 0.858660 0.741545
O O1 0.691963 0.133778 0.886071
O O2 0.372362 0.120671 0.003239
O O3 0.710521 0.141198 0.105685
O O4 0.614028 0.000000 0.000000
O O5 0.500000 0.377681 0.250000
O O6 0.473600 0.336459 0.457108
O O7 0.664035 0.236278 0.294120
O O8 0.152754 0.105053 0.168425
O O9 0.112066 0.000000 0.000000
O O10 0.500000 0.908657 0.750000
#
# Coordination Sequence:
#
# PCOD9320602 Si02
#       4
#     8   8   8   8
#     4  10  23  46  72  98 141 189 238 298 353 419
#     4  11  25  41  67 102 138 180 237 288 351 423
#     4  10  23  43  70  99 138 182 233 286 353 419
#     4   9  22  42  65  99 137 173 234 284 347 427
#
# _framework density 24.530035000000002
#
# number of rings (size 3 to 8) (size 9 to 14) (size 15 to 20)
#    0.000    2.000    0.000    0.750   14.000    2.000 
#    0.000    7.500    0.000    0.000    0.000    0.000 
#    0.000    0.000    0.000    0.000    0.000    0.000 
#
# Total GULP energy -89268.554193 kJ/mol
# GULP energy per Si atom -5579.284637 kJ/mol
# Density = 2.447420 g / cm^3
# Si number density = 24.530035 Si / 1000 Ang^3
#
#
#
# Elastic Constant Matrix: (Units=GPa)
#
#
# Indices 1 2 3 4 5 6 
#
# 1 96.8881 24.2730 63.6462 0.0000 0.0000 0.0000
# 2 24.2730 97.0909 36.7696 0.0000 0.0000 0.0000
# 3 63.6462 36.7696 104.7668 0.0000 0.0000 0.0000
# 4 0.0000 0.0000 0.0000 32.9219 0.0000 0.0000
# 5 0.0000 0.0000 0.0000 0.0000 61.5987 0.0000
# 6 0.0000 0.0000 0.0000 0.0000 0.0000 147.0755
#
#
#
# Elastic Compliance Matrix: (Units=1/GPa)
#
#
# Indices 1 2 3 4 5 6 
#
# 1 0.017189 -0.000395 -0.010303 0.000000 0.000000 0.000000
# 2 -0.000395 0.011888 -0.003932 0.000000 0.000000 0.000000
# 3 -0.010303 -0.003932 0.017184 0.000000 0.000000 0.000000
# 4 0.000000 0.000000 0.000000 0.030375 0.000000 0.000000
# 5 0.000000 0.000000 0.000000 0.000000 0.016234 0.000000
# 6 0.000000 0.000000 0.000000 0.000000 0.000000 0.006799
#
#
# Mechanical properties :
#
#
# Convention : Reuss Voigt Hill
#
# Bulk Modulus (GPa) = 58.82627 60.90260 59.86444
# Shear Modulus (GPa) = 37.14810 59.92302 48.53556
#
# Velocity S-wave (km/s) = 3.89574 4.94787 4.45299
# Velocity P-wave (km/s) = 6.65350 7.58443 7.13417
#
# Compressibility (1/GPa) = 0.01699921
#
# Stress axis : x y z
#
# Youngs Moduli (GPa) = 58.17829 84.12169 58.19235
#
# Poissons Ratio (x) = 0.03324 0.59958
# Poissons Ratio (y) = 0.02299 0.22882
# Poissons Ratio (z) = 0.59944 0.33077
#
# Static dielectric constant tensor:
#      x y z
#    x 2.044680 0.000000 0.000000 
#    y 0.000000 1.987660 0.000000 
#    z 0.000000 0.000000 2.059980 
# 
# From -- ./inp_files/12498.got.cif
#   From: 2010.05.17/outbox.cif.g08.bks.cpg/sg20_7_cif.got.tgz:12498.got - 2010.06.03 22:52:26.
