data_PCOD9320958
_publ_section_title
;
Structure prediction by ZEFSAII (Michael W. Deem and Ramdas Pophale) SiO2 
 PCOD9320958
Probable space group: C 2 2 21
;
_chemical_formula_sum "Si O2"
_cell_formula_units_Z 28
_cell_length_a 7.372103
_cell_length_b 12.051695
_cell_length_c 12.283180
_cell_angle_alpha 90.000000
_cell_angle_beta 90.000000
_cell_angle_gamma 90.000000
_cell_volume 1091.315548
_symmetry_space_group_name_H-M "C 2 2 21"
_symmetry_group_IT_number 20
_symmetry_cell_setting 'orthorhombic'
loop_
_space_group_symop_operation_xyz
x,y,z
-x,-y,1/2+z
x,-y,-z
-x,y,1/2-z
1/2+x,1/2+y,z
1/2-x,1/2-y,1/2+z
1/2+x,1/2-y,-z
1/2-x,1/2+y,1/2-z
loop_
_atom_site_type_symbol
_atom_site_label
_atom_site_fract_x
_atom_site_fract_y
_atom_site_fract_z
Si Si1 0.790555 0.485998 0.711510
Si Si2 0.418997 0.175365 0.454181
Si Si3 0.688803 0.607784 0.062230
Si Si4 0.000000 0.830721 0.250000
O O1 0.790302 0.418991 0.597699
O O2 0.702981 0.416723 0.810452
O O3 0.668492 0.594991 0.710434
O O4 0.000000 0.504834 0.750000
O O5 0.380772 0.267723 0.544199
O O6 0.606908 0.118047 0.484442
O O7 0.444864 0.253391 0.348955
O O8 0.607214 0.500000 0.000000
#
# Coordination Sequence:
#
# PCOD9320958 Si02
#       4
#     8   8   8   4
#     4  10  24  46  66 100 137 175 224 277 331 392
#     4  11  25  44  65 102 134 174 226 272 333 401
#     4  11  23  42  65  99 133 169 227 274 322 401
#     4  12  22  46  72  92 140 178 220 272 334 400
#
# _framework density 25.657107
#
# number of rings (size 3 to 8) (size 9 to 14) (size 15 to 20)
#    0.000    1.143    7.143    0.000    4.000    4.571 
#    2.571    0.000    0.000    0.000    0.000    0.000 
#    0.000    0.000    0.000    0.000    0.000    0.000 
#
# Total GULP energy -78349.476201 kJ/mol
# GULP energy per Si atom -5596.391157 kJ/mol
# Density = 2.559871 g / cm^3
# Si number density = 25.657107 Si / 1000 Ang^3
#
#
#
# Elastic Constant Matrix: (Units=GPa)
#
#
# Indices 1 2 3 4 5 6 
#
# 1 63.9917 65.7471 17.5456 0.0000 0.0000 0.0000
# 2 65.7471 158.0278 37.9358 0.0000 0.0000 0.0000
# 3 17.5456 37.9358 65.0888 0.0000 0.0000 0.0000
# 4 0.0000 0.0000 0.0000 55.5951 0.0000 0.0000
# 5 0.0000 0.0000 0.0000 0.0000 22.7425 0.0000
# 6 0.0000 0.0000 0.0000 0.0000 0.0000 30.4348
#
#
#
# Elastic Compliance Matrix: (Units=1/GPa)
#
#
# Indices 1 2 3 4 5 6 
#
# 1 0.027336 -0.011166 -0.000861 0.000000 0.000000 0.000000
# 2 -0.011166 0.011919 -0.003937 0.000000 0.000000 0.000000
# 3 -0.000861 -0.003937 0.017890 0.000000 0.000000 0.000000
# 4 0.000000 0.000000 0.000000 0.017987 0.000000 0.000000
# 5 0.000000 0.000000 0.000000 0.000000 0.043971 0.000000
# 6 0.000000 0.000000 0.000000 0.000000 0.000000 0.032857
#
#
# Mechanical properties :
#
#
# Convention : Reuss Voigt Hill
#
# Bulk Modulus (GPa) = 39.65531 58.84060 49.24796
# Shear Modulus (GPa) = 26.00211 32.81313 29.40762
#
# Velocity S-wave (km/s) = 3.18692 3.58006 3.38920
# Velocity P-wave (km/s) = 5.38808 6.33028 5.87809
#
# Compressibility (1/GPa) = 0.02521730
#
# Stress axis : x y z
#
# Youngs Moduli (GPa) = 36.58228 83.90151 55.89722
#
# Poissons Ratio (x) = 0.93687 0.04811
# Poissons Ratio (y) = 0.40849 0.22004
# Poissons Ratio (z) = 0.03148 0.33028
#
# Static dielectric constant tensor:
#      x y z
#    x 2.102780 0.000000 0.000000 
#    y 0.000000 2.033130 0.000000 
#    z 0.000000 0.000000 2.063820 
# 
# From -- ./inp_files/12340.got.cif
#   From: 2010.05.17/outbox.cif.g08.bks.cpg/sg20_7_cif.got.tgz:12340.got - 2010.06.03 22:52:26.
