data_PCOD9320015
_publ_section_title
;
Structure prediction by ZEFSAII (Michael W. Deem and Ramdas Pophale) SiO2 
 PCOD9320015
Probable space group: C 2 2 21
;
_chemical_formula_sum "Si O2"
_cell_formula_units_Z 64
_cell_length_a 10.034418
_cell_length_b 10.151456
_cell_length_c 34.371396
_cell_angle_alpha 90.000000
_cell_angle_beta 90.000000
_cell_angle_gamma 90.000000
_cell_volume 3501.206260
_symmetry_space_group_name_H-M "C 2 2 21"
_symmetry_group_IT_number 20
_symmetry_cell_setting 'orthorhombic'
loop_
_space_group_symop_operation_xyz
x,y,z
-x,-y,1/2+z
x,-y,-z
-x,y,1/2-z
1/2+x,1/2+y,z
1/2-x,1/2-y,1/2+z
1/2+x,1/2-y,-z
1/2-x,1/2+y,1/2-z
loop_
_atom_site_type_symbol
_atom_site_label
_atom_site_fract_x
_atom_site_fract_y
_atom_site_fract_z
Si Si1 0.148409 0.601788 0.888375
Si Si2 0.170330 0.398084 0.390013
Si Si3 0.338420 0.143015 0.980483
Si Si4 0.286818 0.633720 0.342131
Si Si5 0.653325 0.140838 0.979123
Si Si6 0.039749 0.964078 0.706002
Si Si7 0.539316 0.779843 0.705792
Si Si8 0.275543 0.848892 0.658684
O O1 0.190410 0.725991 0.862424
O O2 0.183678 0.625412 0.933372
O O3 0.212704 0.469947 0.871232
O O4 0.988685 0.588112 0.886142
O O5 0.198867 0.368889 0.435103
O O6 0.238537 0.530165 0.374408
O O7 0.221354 0.278553 0.363534
O O8 0.496243 0.176777 0.983125
O O9 0.247500 0.250575 0.001540
O O10 0.321058 0.000000 0.000000
O O11 0.420973 0.581005 0.322322
O O12 0.172157 0.650058 0.309642
O O13 0.671868 0.000000 0.000000
O O14 0.057815 0.121813 0.703879
O O15 0.000000 0.929990 0.750000
O O16 0.172835 0.891812 0.692131
O O17 0.500000 0.814533 0.750000
O O18 0.418059 0.819020 0.677665
#
# Coordination Sequence:
#
# PCOD9320015 Si02
#       8
#     8   8   8   8   8   8   8   8
#     4  11  23  39  64  90 126 157 200 251 302 361
#     4  11  23  39  64  90 126 157 200 251 302 361
#     4  10  22  42  62  91 123 159 200 248 301 360
#     4  12  22  42  62  92 121 163 203 248 305 355
#     4  10  22  42  62  91 123 159 200 248 301 360
#     4  11  24  41  61  91 127 159 201 256 303 357
#     4  11  24  41  63  91 123 160 203 253 303 359
#     4  12  22  42  62  92 121 163 203 248 305 355
#
# _framework density 18.279415
#
# number of rings (size 3 to 8) (size 9 to 14) (size 15 to 20)
#    0.000    1.000    5.000    2.250    0.000    0.500 
#    4.500    1.250    0.000    0.000    0.000    0.000 
#    0.000    0.000    0.000    0.000    0.000    0.000 
#
# Total GULP energy -178898.168763 kJ/mol
# GULP energy per Si atom -5590.567774 kJ/mol
# Density = 1.823781 g / cm^3
# Si number density = 18.279415 Si / 1000 Ang^3
#
#
#
# Elastic Constant Matrix: (Units=GPa)
#
#
# Indices 1 2 3 4 5 6 
#
# 1 21.1212 -3.9377 -9.6998 0.0000 0.0000 0.0000
# 2 -3.9377 33.6922 -4.0762 0.0000 0.0000 0.0000
# 3 -9.6998 -4.0762 61.4530 0.0000 0.0000 0.0000
# 4 0.0000 0.0000 0.0000 21.2856 0.0000 0.0000
# 5 0.0000 0.0000 0.0000 0.0000 30.9921 0.0000
# 6 0.0000 0.0000 0.0000 0.0000 0.0000 -1.8759
#
#
#
# Elastic Compliance Matrix: (Units=1/GPa)
#
#
# Indices 1 2 3 4 5 6 
#
# 1 0.052736 0.007229 0.008803 0.000000 0.000000 0.000000
# 2 0.007229 0.030911 0.003191 0.000000 0.000000 0.000000
# 3 0.008803 0.003191 0.017874 0.000000 0.000000 0.000000
# 4 0.000000 0.000000 0.000000 0.046980 0.000000 0.000000
# 5 0.000000 0.000000 0.000000 0.000000 0.032266 0.000000
# 6 0.000000 0.000000 0.000000 0.000000 0.000000 -0.533080
#
#
# Mechanical properties :
#
#
# Convention : Reuss Voigt Hill
#
# Bulk Modulus (GPa) = 7.14450 8.98212 8.06331
# Shear Modulus (GPa) = -14.53054 19.01238 2.24092
#
# Velocity S-wave (km/s) = -2.82248 3.22855 1.10842
# Velocity P-wave (km/s) = 2.58938 4.33849 2.46147
#
# Compressibility (1/GPa) = 0.13996784
#
# Stress axis : x y z
#
# Youngs Moduli (GPa) = 18.96229 32.35055 55.94779
#
# Poissons Ratio (x) = -0.23385 -0.49253
# Poissons Ratio (y) = -0.13707 -0.17855
# Poissons Ratio (z) = -0.16693 -0.10324
#
# Static dielectric constant tensor:
#      x y z
#    x 1.604950 0.000000 0.000000 
#    y 0.000000 1.588410 0.000000 
#    z 0.000000 0.000000 1.606440 
# 
# From -- ./inp_files/31096.got.cif
#   From: 2010.05.17/outbox.cif.g08.bks.cpg/sg20_16_cif.got.tgz:31096.got - 2010.06.03 22:52:26.
