data_PCOD9320274
_publ_section_title
;
Structure prediction by ZEFSAII (Michael W. Deem and Ramdas Pophale) SiO2 
 PCOD9320274
Probable space group: C 2 2 21
;
_chemical_formula_sum "Si O2"
_cell_formula_units_Z 32
_cell_length_a 28.668701
_cell_length_b 5.477831
_cell_length_c 8.986696
_cell_angle_alpha 90.000000
_cell_angle_beta 90.000000
_cell_angle_gamma 90.000000
_cell_volume 1411.291401
_symmetry_space_group_name_H-M "C 2 2 21"
_symmetry_group_IT_number 20
_symmetry_cell_setting 'orthorhombic'
loop_
_space_group_symop_operation_xyz
x,y,z
-x,-y,1/2+z
x,-y,-z
-x,y,1/2-z
1/2+x,1/2+y,z
1/2-x,1/2-y,1/2+z
1/2+x,1/2-y,-z
1/2-x,1/2+y,1/2-z
loop_
_atom_site_type_symbol
_atom_site_label
_atom_site_fract_x
_atom_site_fract_y
_atom_site_fract_z
Si Si1 0.277992 0.246378 0.094997
Si Si2 0.177491 0.050264 0.168651
Si Si3 0.500000 0.336885 0.250000
Si Si4 0.588243 0.636851 0.343286
Si Si5 0.026788 0.500000 0.500000
O O1 0.310197 0.306225 0.236797
O O2 0.225686 0.200405 0.155745
O O3 0.279319 0.500000 0.000000
O O4 0.289611 0.000000 0.000000
O O5 0.135324 0.173650 0.254714
O O6 0.163411 0.000000 0.000000
O O7 0.548078 0.484265 0.261199
O O8 0.502377 0.188324 0.095910
O O9 0.598593 0.500000 0.500000
O O10 0.561473 0.881996 0.381721
#
# Coordination Sequence:
#
# PCOD9320274 Si02
#       5
#     8   8   4   8   4
#     4  11  25  50  75 103 156 202 246 311 379 437
#     4  11  24  45  72 108 141 192 247 310 363 440
#     4  10  22  44  72 100 142 180 238 286 362 432
#     4  10  23  45  68 101 142 188 237 288 367 438
#     4  10  22  44  72 102 138 192 224 298 360 430
#
# _framework density 22.674267
#
# number of rings (size 3 to 8) (size 9 to 14) (size 15 to 20)
#    0.000    1.500    0.000    4.500    0.000    5.000 
#   54.000    0.000    2.750    0.000    0.000    0.000 
#    0.000    0.000    0.000    0.000    0.000    0.000 
#
# Total GULP energy -89480.325528 kJ/mol
# GULP energy per Si atom -5592.520345 kJ/mol
# Density = 2.262266 g / cm^3
# Si number density = 22.674267 Si / 1000 Ang^3
#
#
#
# Elastic Constant Matrix: (Units=GPa)
#
#
# Indices 1 2 3 4 5 6 
#
# 1 85.7114 36.6992 72.6952 0.0000 0.0000 0.0000
# 2 36.6992 115.9198 57.7983 0.0000 0.0000 0.0000
# 3 72.6952 57.7983 133.5066 0.0000 0.0000 0.0000
# 4 0.0000 0.0000 0.0000 36.8697 0.0000 0.0000
# 5 0.0000 0.0000 0.0000 0.0000 40.0815 0.0000
# 6 0.0000 0.0000 0.0000 0.0000 0.0000 1211.0574
#
#
#
# Elastic Compliance Matrix: (Units=1/GPa)
#
#
# Indices 1 2 3 4 5 6 
#
# 1 0.021821 -0.001255 -0.011338 0.000000 0.000000 0.000000
# 2 -0.001255 0.011074 -0.004111 0.000000 0.000000 0.000000
# 3 -0.011338 -0.004111 0.015444 0.000000 0.000000 0.000000
# 4 0.000000 0.000000 0.000000 0.027123 0.000000 0.000000
# 5 0.000000 0.000000 0.000000 0.000000 0.024949 0.000000
# 6 0.000000 0.000000 0.000000 0.000000 0.000000 0.000826
#
#
# Mechanical properties :
#
#
# Convention : Reuss Voigt Hill
#
# Bulk Modulus (GPa) = 66.97832 74.39148 70.68490
# Shear Modulus (GPa) = 35.81144 268.79806 152.30475
#
# Velocity S-wave (km/s) = 3.97846 10.89977 8.20467
# Velocity P-wave (km/s) = 7.12093 13.83064 10.99987
#
# Compressibility (1/GPa) = 0.01493020
#
# Stress axis : x y z
#
# Youngs Moduli (GPa) = 45.82771 90.30507 64.75146
#
# Poissons Ratio (x) = 0.11333 0.73417
# Poissons Ratio (y) = 0.05751 0.26617
# Poissons Ratio (z) = 0.51961 0.37122
#
# Static dielectric constant tensor:
#      x y z
#    x 1.771860 0.000000 0.000000 
#    y 0.000000 1.904030 0.000000 
#    z 0.000000 0.000000 1.861810 
# 
# From -- ./inp_files/11309.got.cif
#   From: 2010.05.17/outbox.cif.g08.bks.cpg/sg20_6_cif.got.tgz:11309.got - 2010.06.03 22:52:26.
