data_PCOD9320853
_publ_section_title
;
Structure prediction by ZEFSAII (Michael W. Deem and Ramdas Pophale) SiO2 
 PCOD9320853
Probable space group: C 2 2 21
;
_chemical_formula_sum "Si O2"
_cell_formula_units_Z 48
_cell_length_a 9.360161
_cell_length_b 27.181031
_cell_length_c 9.407314
_cell_angle_alpha 90.000000
_cell_angle_beta 90.000000
_cell_angle_gamma 90.000000
_cell_volume 2393.397787
_symmetry_space_group_name_H-M "C 2 2 21"
_symmetry_group_IT_number 20
_symmetry_cell_setting 'orthorhombic'
loop_
_space_group_symop_operation_xyz
x,y,z
-x,-y,1/2+z
x,-y,-z
-x,y,1/2-z
1/2+x,1/2+y,z
1/2-x,1/2-y,1/2+z
1/2+x,1/2-y,-z
1/2-x,1/2+y,1/2-z
loop_
_atom_site_type_symbol
_atom_site_label
_atom_site_fract_x
_atom_site_fract_y
_atom_site_fract_z
Si Si1 0.079438 0.702154 0.599717
Si Si2 0.496371 0.369947 0.591787
Si Si3 0.244951 0.950316 0.584252
Si Si4 0.078359 0.221465 0.900660
Si Si5 0.224542 0.956668 0.916249
Si Si6 0.978983 0.412900 0.082175
O O1 0.247350 0.718513 0.604353
O O2 0.066728 0.644088 0.565252
O O3 0.000000 0.709358 0.750000
O O4 0.985187 0.732838 0.488420
O O5 0.500000 0.347410 0.750000
O O6 0.628695 0.406915 0.574732
O O7 0.478433 0.327529 0.478485
O O8 0.363599 0.406559 0.584403
O O9 0.261673 0.965004 0.750758
O O10 0.383147 0.927112 0.509412
O O11 0.207043 0.000000 0.500000
O O12 0.000000 0.223325 0.750000
O O13 0.357510 0.946974 0.017645
O O14 0.142122 0.000000 0.000000
O O15 0.000000 0.421629 0.250000
#
# Coordination Sequence:
#
# PCOD9320853 Si02
#       6
#     8   8   8   8   8   8
#     4  11  26  47  69 102 139 176 227 277 341 408
#     4  10  24  43  66  96 134 172 222 274 334 401
#     4  11  24  40  65  98 131 178 223 276 335 396
#     4  12  26  44  74 102 135 180 223 280 341 405
#     4  11  22  42  65  92 132 172 221 276 332 398
#     4  11  24  42  66  94 133 172 222 275 331 398
#
# _framework density 20.055168999999999
#
# number of rings (size 3 to 8) (size 9 to 14) (size 15 to 20)
#    0.000    1.000    1.667    4.000    7.000    2.667 
#    0.000    0.000    0.000    0.000    0.000    0.000 
#    0.000    0.000    0.000    0.000    0.000    0.000 
#
# Total GULP energy -134058.611456 kJ/mol
# GULP energy per Si atom -5585.775477 kJ/mol
# Density = 2.000952 g / cm^3
# Si number density = 20.055169 Si / 1000 Ang^3
#
#
#
# Elastic Constant Matrix: (Units=GPa)
#
#
# Indices 1 2 3 4 5 6 
#
# 1 103.5865 17.9516 26.9368 0.0000 0.0000 0.0000
# 2 17.9516 90.6871 68.1228 0.0000 0.0000 0.0000
# 3 26.9368 68.1228 145.4633 0.0000 0.0000 0.0000
# 4 0.0000 0.0000 0.0000 34.8328 0.0000 0.0000
# 5 0.0000 0.0000 0.0000 0.0000 26.4522 0.0000
# 6 0.0000 0.0000 0.0000 0.0000 0.0000 5.5217
#
#
#
# Elastic Compliance Matrix: (Units=1/GPa)
#
#
# Indices 1 2 3 4 5 6 
#
# 1 0.010192 -0.000925 -0.001454 0.000000 0.000000 0.000000
# 2 -0.000925 0.017095 -0.007835 0.000000 0.000000 0.000000
# 3 -0.001454 -0.007835 0.010813 0.000000 0.000000 0.000000
# 4 0.000000 0.000000 0.000000 0.028709 0.000000 0.000000
# 5 0.000000 0.000000 0.000000 0.000000 0.037804 0.000000
# 6 0.000000 0.000000 0.000000 0.000000 0.000000 0.181103
#
#
# Mechanical properties :
#
#
# Convention : Reuss Voigt Hill
#
# Bulk Modulus (GPa) = 56.58512 62.86212 59.72362
# Shear Modulus (GPa) = 16.02383 28.47640 22.25012
#
# Velocity S-wave (km/s) = 2.82970 3.77225 3.33445
# Velocity P-wave (km/s) = 6.24118 7.09829 6.68349
#
# Compressibility (1/GPa) = 0.01767249
#
# Stress axis : x y z
#
# Youngs Moduli (GPa) = 98.11385 58.49531 92.48159
#
# Poissons Ratio (x) = 0.05412 0.13447
# Poissons Ratio (y) = 0.09078 0.72457
# Poissons Ratio (z) = 0.14266 0.45829
#
# Static dielectric constant tensor:
#      x y z
#    x 1.743750 0.000000 0.000000 
#    y 0.000000 1.671740 0.000000 
#    z 0.000000 0.000000 1.732540 
# 
# From -- ./inp_files/6537.got.cif
#   From: 2010.05.17/outbox.cif.g08.bks.cpg/sg20_4_cif.got.tgz:6537.got - 2010.06.03 22:52:26.
