data_PCOD9320085
_publ_section_title
;
Structure prediction by ZEFSAII (Michael W. Deem and Ramdas Pophale) SiO2 
 PCOD9320085
Probable space group: C 2 2 21
;
_chemical_formula_sum "Si O2"
_cell_formula_units_Z 48
_cell_length_a 31.086555
_cell_length_b 9.033754
_cell_length_c 8.051399
_cell_angle_alpha 90.000000
_cell_angle_beta 90.000000
_cell_angle_gamma 90.000000
_cell_volume 2261.060618
_symmetry_space_group_name_H-M "C 2 2 21"
_symmetry_group_IT_number 20
_symmetry_cell_setting 'orthorhombic'
loop_
_space_group_symop_operation_xyz
x,y,z
-x,-y,1/2+z
x,-y,-z
-x,y,1/2-z
1/2+x,1/2+y,z
1/2-x,1/2-y,1/2+z
1/2+x,1/2-y,-z
1/2-x,1/2+y,1/2-z
loop_
_atom_site_type_symbol
_atom_site_label
_atom_site_fract_x
_atom_site_fract_y
_atom_site_fract_z
Si Si1 0.120428 0.175382 0.476577
Si Si2 0.449482 0.734448 0.275393
Si Si3 0.351848 0.772630 0.661746
Si Si4 0.733857 0.154645 0.955197
Si Si5 0.194939 0.648766 0.593600
Si Si6 0.584927 0.000000 0.000000
Si Si7 0.099786 0.000000 0.000000
O O1 0.076348 0.238349 0.399661
O O2 0.140103 0.242386 0.645053
O O3 0.157545 0.235050 0.355757
O O4 0.117035 0.000000 0.500000
O O5 0.500000 0.717394 0.250000
O O6 0.429638 0.591362 0.370370
O O7 0.440618 0.880376 0.388131
O O8 0.305768 0.810911 0.580821
O O9 0.370020 0.623279 0.580122
O O10 0.383721 0.905685 0.616338
O O11 0.717230 0.126115 0.770628
O O12 0.768788 0.281565 0.974793
O O13 0.756213 0.000000 0.000000
O O14 0.179787 0.500000 0.500000
#
# Coordination Sequence:
#
# PCOD9320085 Si02
#       7
#     8   8   8   8   8   4   4
#     4  12  26  45  69 106 140 190 238 294 366 429
#     4  11  26  46  74 105 143 183 238 300 367 444
#     4  11  23  42  73 100 145 188 234 293 351 426
#     4  12  25  45  67 103 147 192 245 297 355 423
#     4  12  27  44  71 104 143 195 245 303 354 424
#     4  10  24  46  66 106 136 188 230 288 370 426
#     4  10  22  42  68 100 140 186 232 286 360 430
#
# _framework density 21.228974999999998
#
# number of rings (size 3 to 8) (size 9 to 14) (size 15 to 20)
#    0.000    0.667    2.500    5.500    4.667    1.333 
#    0.000    3.333    0.000    0.000    0.000    0.000 
#    0.000    0.000    0.000    0.000    0.000    0.000 
#
# Total GULP energy -134083.195445 kJ/mol
# GULP energy per Si atom -5586.799810 kJ/mol
# Density = 2.118066 g / cm^3
# Si number density = 21.228975 Si / 1000 Ang^3
#
#
#
# Elastic Constant Matrix: (Units=GPa)
#
#
# Indices 1 2 3 4 5 6 
#
# 1 107.3096 36.5110 16.2487 0.0000 0.0000 0.0000
# 2 36.5110 124.3946 23.9496 0.0000 0.0000 0.0000
# 3 16.2487 23.9496 77.1012 0.0000 0.0000 0.0000
# 4 0.0000 0.0000 0.0000 18.4616 0.0000 0.0000
# 5 0.0000 0.0000 0.0000 0.0000 24.5903 0.0000
# 6 0.0000 0.0000 0.0000 0.0000 0.0000 7.3529
#
#
#
# Elastic Compliance Matrix: (Units=1/GPa)
#
#
# Indices 1 2 3 4 5 6 
#
# 1 0.010480 -0.002819 -0.001333 0.000000 0.000000 0.000000
# 2 -0.002819 0.009309 -0.002297 0.000000 0.000000 0.000000
# 3 -0.001333 -0.002297 0.013964 0.000000 0.000000 0.000000
# 4 0.000000 0.000000 0.000000 0.054166 0.000000 0.000000
# 5 0.000000 0.000000 0.000000 0.000000 0.040666 0.000000
# 6 0.000000 0.000000 0.000000 0.000000 0.000000 0.136001
#
#
# Mechanical properties :
#
#
# Convention : Reuss Voigt Hill
#
# Bulk Modulus (GPa) = 47.95233 51.35822 49.65528
# Shear Modulus (GPa) = 17.57858 25.55405 21.56631
#
# Velocity S-wave (km/s) = 2.88070 3.47325 3.19076
# Velocity P-wave (km/s) = 5.80532 6.35056 6.08405
#
# Compressibility (1/GPa) = 0.02085404
#
# Stress axis : x y z
#
# Youngs Moduli (GPa) = 95.42076 107.42587 71.61028
#
# Poissons Ratio (x) = 0.30287 0.09544
# Poissons Ratio (y) = 0.26902 0.16452
# Poissons Ratio (z) = 0.12718 0.24680
#
# Static dielectric constant tensor:
#      x y z
#    x 1.722070 0.000000 0.000000 
#    y 0.000000 1.769080 0.000000 
#    z 0.000000 0.000000 1.953930 
# 
# From -- ./inp_files/11514.got.cif
#   From: 2010.05.17/outbox.cif.g08.bks.cpg/sg20_6_cif.got.tgz:11514.got - 2010.06.03 22:52:26.
