data_PCOD9320147
_publ_section_title
;
Structure prediction by ZEFSAII (Michael W. Deem and Ramdas Pophale) SiO2 
 PCOD9320147
Probable space group: C 2 2 21
;
_chemical_formula_sum "Si O2"
_cell_formula_units_Z 48
_cell_length_a 4.921610
_cell_length_b 13.959761
_cell_length_c 28.729137
_cell_angle_alpha 90.000000
_cell_angle_beta 90.000000
_cell_angle_gamma 90.000000
_cell_volume 1973.820974
_symmetry_space_group_name_H-M "C 2 2 21"
_symmetry_group_IT_number 20
_symmetry_cell_setting 'orthorhombic'
loop_
_space_group_symop_operation_xyz
x,y,z
-x,-y,1/2+z
x,-y,-z
-x,y,1/2-z
1/2+x,1/2+y,z
1/2-x,1/2-y,1/2+z
1/2+x,1/2-y,-z
1/2-x,1/2+y,1/2-z
loop_
_atom_site_type_symbol
_atom_site_label
_atom_site_fract_x
_atom_site_fract_y
_atom_site_fract_z
Si Si1 0.961671 0.443642 0.156052
Si Si2 0.366071 0.632470 0.027301
Si Si3 0.735511 0.081840 0.218975
Si Si4 0.356194 0.864854 0.027793
Si Si5 0.085873 0.366838 0.877830
Si Si6 0.007706 0.850978 0.383049
O O1 0.114163 0.479248 0.202352
O O2 0.881747 0.546941 0.133940
O O3 0.197853 0.395325 0.125038
O O4 0.695721 0.379645 0.158954
O O5 0.669446 0.602998 0.015387
O O6 0.255865 0.603416 0.077162
O O7 0.159221 0.604112 0.985670
O O8 0.370315 0.748758 0.028256
O O9 0.500000 0.129190 0.250000
O O10 0.766086 0.135583 0.169460
O O11 0.000000 0.074642 0.250000
O O12 0.176540 0.886131 0.073332
O O13 0.960864 0.263251 0.886889
#
# Coordination Sequence:
#
# PCOD9320147 Si02
#       6
#     8   8   8   8   8   8
#     4  10  24  39  65  87 126 155 207 247 312 363
#     4   9  17  34  52  87 115 169 190 246 298 341
#     4  10  22  43  65  87 121 156 196 260 313 366
#     4   9  18  30  57  82 126 152 210 236 284 357
#     4   9  24  40  68  86 130 159 207 251 310 359
#     4  11  21  42  62  96 120 172 199 250 299 362
#
# _framework density 24.318317
#
# number of rings (size 3 to 8) (size 9 to 14) (size 15 to 20)
#    1.000    1.333    0.000    2.000    0.000    9.333 
#    0.000   10.000    0.000    0.000    0.000    0.000 
#    0.000    0.000    0.000    0.000    0.000    0.000 
#
# Total GULP energy -133977.147956 kJ/mol
# GULP energy per Si atom -5582.381165 kJ/mol
# Density = 2.426297 g / cm^3
# Si number density = 24.318317 Si / 1000 Ang^3
#
#
#
# Elastic Constant Matrix: (Units=GPa)
#
#
# Indices 1 2 3 4 5 6 
#
# 1 125.6695 4.3420 17.2413 0.0000 0.0000 0.0000
# 2 4.3420 96.8876 -0.6184 0.0000 0.0000 0.0000
# 3 17.2413 -0.6184 107.9913 0.0000 0.0000 0.0000
# 4 0.0000 0.0000 0.0000 11.1321 0.0000 0.0000
# 5 0.0000 0.0000 0.0000 0.0000 30.8119 0.0000
# 6 0.0000 0.0000 0.0000 0.0000 0.0000 11.3534
#
#
#
# Elastic Compliance Matrix: (Units=1/GPa)
#
#
# Indices 1 2 3 4 5 6 
#
# 1 0.008149 -0.000374 -0.001303 0.000000 0.000000 0.000000
# 2 -0.000374 0.010339 0.000119 0.000000 0.000000 0.000000
# 3 -0.001303 0.000119 0.009469 0.000000 0.000000 0.000000
# 4 0.000000 0.000000 0.000000 0.089830 0.000000 0.000000
# 5 0.000000 0.000000 0.000000 0.000000 0.032455 0.000000
# 6 0.000000 0.000000 0.000000 0.000000 0.000000 0.088079
#
#
# Mechanical properties :
#
#
# Convention : Reuss Voigt Hill
#
# Bulk Modulus (GPa) = 40.25628 41.38647 40.82138
# Shear Modulus (GPa) = 20.02263 31.29837 25.66050
#
# Velocity S-wave (km/s) = 2.87253 3.59141 3.25190
# Velocity P-wave (km/s) = 5.25278 5.85263 5.56080
#
# Compressibility (1/GPa) = 0.02484084
#
# Stress axis : x y z
#
# Youngs Moduli (GPa) = 122.71328 96.72361 105.61061
#
# Poissons Ratio (x) = 0.03613 0.13763
# Poissons Ratio (y) = 0.04584 -0.01255
# Poissons Ratio (z) = 0.15992 -0.01149
#
# Static dielectric constant tensor:
#      x y z
#    x 1.880150 0.000000 0.000000 
#    y 0.000000 1.943090 0.000000 
#    z 0.000000 0.000000 2.064120 
# 
# From -- ./inp_files/29879.got.cif
#   From: 2010.05.17/outbox.cif.g08.bks.cpg/sg20_15_cif.got.tgz:29879.got - 2010.06.03 22:52:26.
