data_PCOD9320498
_publ_section_title
;
Structure prediction by ZEFSAII (Michael W. Deem and Ramdas Pophale) SiO2 
 PCOD9320498
Probable space group: C 2 2 21
;
_chemical_formula_sum "Si O2"
_cell_formula_units_Z 40
_cell_length_a 7.710006
_cell_length_b 12.435292
_cell_length_c 15.930000
_cell_angle_alpha 90.000000
_cell_angle_beta 90.000000
_cell_angle_gamma 90.000000
_cell_volume 1527.307483
_symmetry_space_group_name_H-M "C 2 2 21"
_symmetry_group_IT_number 20
_symmetry_cell_setting 'orthorhombic'
loop_
_space_group_symop_operation_xyz
x,y,z
-x,-y,1/2+z
x,-y,-z
-x,y,1/2-z
1/2+x,1/2+y,z
1/2-x,1/2-y,1/2+z
1/2+x,1/2-y,-z
1/2-x,1/2+y,1/2-z
loop_
_atom_site_type_symbol
_atom_site_label
_atom_site_fract_x
_atom_site_fract_y
_atom_site_fract_z
Si Si1 0.000731 0.021912 0.100484
Si Si2 0.281360 0.152897 0.628869
Si Si3 0.781628 0.220705 0.060546
Si Si4 0.462093 0.156230 0.157978
Si Si5 0.868297 0.560586 0.886291
O O1 0.932060 0.144835 0.099026
O O2 0.849563 0.947415 0.138553
O O3 0.180524 0.984806 0.143766
O O4 0.023249 0.000000 0.000000
O O5 0.276996 0.172251 0.527946
O O6 0.197965 0.262032 0.663845
O O7 0.472340 0.121880 0.659214
O O8 0.623229 0.223920 0.124765
O O9 0.824518 0.345395 0.048301
O O10 0.500000 0.111924 0.250000
O O11 0.453842 0.054246 0.096498
#
# Coordination Sequence:
#
# PCOD9320498 Si02
#       5
#     8   8   8   8   8
#     4  10  23  41  70 113 143 182 240 306 372 435
#     4  11  24  45  74 107 146 192 251 311 369 444
#     4  11  24  45  72 109 147 192 251 315 370 446
#     4  12  28  48  72 110 153 201 249 308 384 459
#     4  12  25  42  73 103 146 195 239 301 378 434
#
# _framework density 26.189879999999999
#
# number of rings (size 3 to 8) (size 9 to 14) (size 15 to 20)
#    0.000    0.800    4.000    2.400    8.400    1.600 
#    0.000    3.000    0.000    0.000    0.000    0.000 
#    0.000    0.000    0.000    0.000    0.000    0.000 
#
# Total GULP energy -111686.851952 kJ/mol
# GULP energy per Si atom -5584.342598 kJ/mol
# Density = 2.613027 g / cm^3
# Si number density = 26.189880 Si / 1000 Ang^3
#
#
#
# Elastic Constant Matrix: (Units=GPa)
#
#
# Indices 1 2 3 4 5 6 
#
# 1 246.0371 106.6889 7.7001 0.0000 0.0000 0.0000
# 2 106.6889 249.8118 24.0135 0.0000 0.0000 0.0000
# 3 7.7001 24.0135 75.8145 0.0000 0.0000 0.0000
# 4 0.0000 0.0000 0.0000 -2.6428 0.0000 0.0000
# 5 0.0000 0.0000 0.0000 0.0000 -14.1123 0.0000
# 6 0.0000 0.0000 0.0000 0.0000 0.0000 56.0238
#
#
#
# Elastic Compliance Matrix: (Units=1/GPa)
#
#
# Indices 1 2 3 4 5 6 
#
# 1 0.004990 -0.002148 0.000173 0.000000 0.000000 0.000000
# 2 -0.002148 0.005053 -0.001382 0.000000 0.000000 0.000000
# 3 0.000173 -0.001382 0.013610 0.000000 0.000000 0.000000
# 4 0.000000 0.000000 0.000000 -0.378391 0.000000 0.000000
# 5 0.000000 0.000000 0.000000 0.000000 -0.070860 0.000000
# 6 0.000000 0.000000 0.000000 0.000000 0.000000 0.017850
#
#
# Mechanical properties :
#
#
# Convention : Reuss Voigt Hill
#
# Bulk Modulus (GPa) = 59.03107 94.27426 76.65267
# Shear Modulus (GPa) = -12.64585 36.73781 12.04598
#
# Velocity S-wave (km/s) = -2.19977 3.74939 2.14697
# Velocity P-wave (km/s) = 4.01704 7.40395 5.95630
#
# Compressibility (1/GPa) = 0.01694023
#
# Stress axis : x y z
#
# Youngs Moduli (GPa) = 200.38385 197.89244 73.47362
#
# Poissons Ratio (x) = 0.42507 -0.01275
# Poissons Ratio (y) = 0.43042 0.10157
# Poissons Ratio (z) = -0.03477 0.27357
#
# Static dielectric constant tensor:
#      x y z
#    x 2.093960 0.000000 0.000000 
#    y 0.000000 1.998870 0.000000 
#    z 0.000000 0.000000 2.101530 
# 
# From -- ./inp_files/26459.got.cif
#   From: 2010.05.17/outbox.cif.g08.bks.cpg/sg20_14_cif.got.tgz:26459.got - 2010.06.03 22:52:26.
