data_PCOD9320324
_publ_section_title
;
Structure prediction by ZEFSAII (Michael W. Deem and Ramdas Pophale) SiO2 
 PCOD9320324
Probable space group: C 2 2 21
;
_chemical_formula_sum "Si O2"
_cell_formula_units_Z 48
_cell_length_a 13.667168
_cell_length_b 5.236270
_cell_length_c 25.460376
_cell_angle_alpha 90.000000
_cell_angle_beta 90.000000
_cell_angle_gamma 90.000000
_cell_volume 1822.071345
_symmetry_space_group_name_H-M "C 2 2 21"
_symmetry_group_IT_number 20
_symmetry_cell_setting 'orthorhombic'
loop_
_space_group_symop_operation_xyz
x,y,z
-x,-y,1/2+z
x,-y,-z
-x,y,1/2-z
1/2+x,1/2+y,z
1/2-x,1/2-y,1/2+z
1/2+x,1/2-y,-z
1/2-x,1/2+y,1/2-z
loop_
_atom_site_type_symbol
_atom_site_label
_atom_site_fract_x
_atom_site_fract_y
_atom_site_fract_z
Si Si1 0.135594 0.226929 0.081901
Si Si2 0.854079 0.296422 0.649179
Si Si3 0.446138 0.333988 0.165864
Si Si4 0.500000 0.268630 0.750000
Si Si5 0.090607 0.205822 0.415267
Si Si6 0.822547 0.558194 0.805901
Si Si7 0.766276 0.000000 0.000000
O O1 0.176623 0.439751 0.122587
O O2 0.020266 0.286524 0.071698
O O3 0.142979 0.941562 0.106816
O O4 0.198120 0.299003 0.031068
O O5 0.964495 0.360937 0.667350
O O6 0.782281 0.186011 0.693433
O O7 0.498517 0.556053 0.198464
O O8 0.423757 0.420291 0.107721
O O9 0.346388 0.240949 0.191404
O O10 0.394780 0.141138 0.759389
O O11 0.136261 0.352145 0.364425
O O12 0.164262 0.171692 0.462717
#
# Coordination Sequence:
#
# PCOD9320324 Si02
#       7
#     8   8   8   4   8   8   4
#     4  11  25  46  67 106 139 184 245 291 351 441
#     4  11  24  45  74  98 140 190 236 288 359 432
#     4  10  22  45  70  99 144 184 236 297 360 430
#     4  10  24  42  66 106 134 176 240 290 356 438
#     4  10  23  44  70  97 142 190 231 300 361 415
#     4  11  21  44  71  96 140 187 229 290 365 422
#     4  12  24  46  72 108 144 190 248 304 368 428
#
# _framework density 26.343644000000001
#
# number of rings (size 3 to 8) (size 9 to 14) (size 15 to 20)
#    0.000    1.333    3.333    1.500    2.333    3.333 
#   12.000    0.000    0.000    0.000    0.000    0.000 
#    0.000    0.000    0.000    0.000    0.000    0.000 
#
# Total GULP energy -134056.231220 kJ/mol
# GULP energy per Si atom -5585.676301 kJ/mol
# Density = 2.628368 g / cm^3
# Si number density = 26.343644 Si / 1000 Ang^3
#
#
#
# Elastic Constant Matrix: (Units=GPa)
#
#
# Indices 1 2 3 4 5 6 
#
# 1 161.9896 20.0332 49.8553 0.0000 0.0000 0.0000
# 2 20.0332 76.7178 11.8186 0.0000 0.0000 0.0000
# 3 49.8553 11.8186 102.4175 0.0000 0.0000 0.0000
# 4 0.0000 0.0000 0.0000 26.5856 0.0000 0.0000
# 5 0.0000 0.0000 0.0000 0.0000 55.5360 0.0000
# 6 0.0000 0.0000 0.0000 0.0000 0.0000 40.9596
#
#
#
# Elastic Compliance Matrix: (Units=1/GPa)
#
#
# Indices 1 2 3 4 5 6 
#
# 1 0.007407 -0.001404 -0.003443 0.000000 0.000000 0.000000
# 2 -0.001404 0.013537 -0.000879 0.000000 0.000000 0.000000
# 3 -0.003443 -0.000879 0.011542 0.000000 0.000000 0.000000
# 4 0.000000 0.000000 0.000000 0.037614 0.000000 0.000000
# 5 0.000000 0.000000 0.000000 0.000000 0.018006 0.000000
# 6 0.000000 0.000000 0.000000 0.000000 0.000000 0.024414
#
#
# Mechanical properties :
#
#
# Convention : Reuss Voigt Hill
#
# Bulk Modulus (GPa) = 47.54407 56.05989 51.80198
# Shear Modulus (GPa) = 38.17300 41.91077 40.04188
#
# Velocity S-wave (km/s) = 3.81076 3.99297 3.90293
# Velocity P-wave (km/s) = 6.11958 6.52570 6.32590
#
# Compressibility (1/GPa) = 0.02103312
#
# Stress axis : x y z
#
# Youngs Moduli (GPa) = 135.01458 73.87330 86.64317
#
# Poissons Ratio (x) = 0.10369 0.29835
# Poissons Ratio (y) = 0.18951 0.07614
# Poissons Ratio (z) = 0.46492 0.06492
#
# Static dielectric constant tensor:
#      x y z
#    x 2.091660 0.000000 0.000000 
#    y 0.000000 2.239230 0.000000 
#    z 0.000000 0.000000 2.087970 
# 
# From -- ./inp_files/30422.got.cif
#   From: 2010.05.17/outbox.cif.g08.bks.cpg/sg20_16_cif.got.tgz:30422.got - 2010.06.03 22:52:26.
