data_PCOD9320277
_publ_section_title
;
Structure prediction by ZEFSAII (Michael W. Deem and Ramdas Pophale) SiO2 
 PCOD9320277
Probable space group: C 2 2 21
;
_chemical_formula_sum "Si O2"
_cell_formula_units_Z 40
_cell_length_a 11.398539
_cell_length_b 8.896061
_cell_length_c 18.296827
_cell_angle_alpha 90.000000
_cell_angle_beta 90.000000
_cell_angle_gamma 90.000000
_cell_volume 1855.336649
_symmetry_space_group_name_H-M "C 2 2 21"
_symmetry_group_IT_number 20
_symmetry_cell_setting 'orthorhombic'
loop_
_space_group_symop_operation_xyz
x,y,z
-x,-y,1/2+z
x,-y,-z
-x,y,1/2-z
1/2+x,1/2+y,z
1/2-x,1/2-y,1/2+z
1/2+x,1/2-y,-z
1/2-x,1/2+y,1/2-z
loop_
_atom_site_type_symbol
_atom_site_label
_atom_site_fract_x
_atom_site_fract_y
_atom_site_fract_z
Si Si1 0.015064 0.432622 0.923961
Si Si2 0.810138 0.814006 0.180953
Si Si3 0.500518 0.580261 0.921645
Si Si4 0.621881 0.025057 0.226230
Si Si5 0.251179 0.456199 0.585637
O O1 0.999828 0.256913 0.937985
O O2 0.886448 0.497910 0.899836
O O3 0.107535 0.448646 0.859873
O O4 0.053493 0.500000 0.000000
O O5 0.900513 0.925539 0.140477
O O6 0.865940 0.681527 0.230493
O O7 0.745062 0.714894 0.117186
O O8 0.728229 0.911666 0.233184
O O9 0.626881 0.531269 0.889101
O O10 0.478308 0.500000 0.000000
O O11 0.500000 0.952106 0.250000
O O12 0.257557 0.500000 0.500000
#
# Coordination Sequence:
#
# PCOD9320277 Si02
#       5
#     8   8   8   8   8
#     4  10  23  44  69 103 139 178 237 287 345 416
#     4  11  27  46  66 104 136 192 233 284 357 412
#     4  10  22  44  72 102 139 180 229 293 347 413
#     4  12  26  48  69  98 144 184 234 289 352 417
#     4   9  20  42  71  98 137 175 230 288 343 409
#
# _framework density 21.559428
#
# number of rings (size 3 to 8) (size 9 to 14) (size 15 to 20)
#    0.000    1.600    4.000    0.000    8.400    2.400 
#   10.800    0.000    0.000    0.000    0.000    0.000 
#    0.000    0.000    0.000    0.000    0.000    0.000 
#
# Total GULP energy -111350.752392 kJ/mol
# GULP energy per Si atom -5567.537620 kJ/mol
# Density = 2.151036 g / cm^3
# Si number density = 21.559428 Si / 1000 Ang^3
#
#
#
# Elastic Constant Matrix: (Units=GPa)
#
#
# Indices 1 2 3 4 5 6 
#
# 1 115.9427 43.3262 47.6458 0.0000 0.0000 0.0000
# 2 43.3262 31.3157 17.3298 0.0000 0.0000 0.0000
# 3 47.6458 17.3298 96.0607 0.0000 0.0000 0.0000
# 4 0.0000 0.0000 0.0000 46.8404 0.0000 0.0000
# 5 0.0000 0.0000 0.0000 0.0000 31.8461 0.0000
# 6 0.0000 0.0000 0.0000 0.0000 0.0000 36.7381
#
#
#
# Elastic Compliance Matrix: (Units=1/GPa)
#
#
# Indices 1 2 3 4 5 6 
#
# 1 0.020194 -0.024880 -0.005528 0.000000 0.000000 0.000000
# 2 -0.024880 0.066127 0.000411 0.000000 0.000000 0.000000
# 3 -0.005528 0.000411 0.013078 0.000000 0.000000 0.000000
# 4 0.000000 0.000000 0.000000 0.021349 0.000000 0.000000
# 5 0.000000 0.000000 0.000000 0.000000 0.031401 0.000000
# 6 0.000000 0.000000 0.000000 0.000000 0.000000 0.027220
#
#
# Mechanical properties :
#
#
# Convention : Reuss Voigt Hill
#
# Bulk Modulus (GPa) = 25.37728 51.10253 38.23991
# Shear Modulus (GPa) = 19.80222 32.08606 25.94414
#
# Velocity S-wave (km/s) = 3.03396 3.86198 3.47274
# Velocity P-wave (km/s) = 4.90608 6.60614 5.81854
#
# Compressibility (1/GPa) = 0.03940533
#
# Stress axis : x y z
#
# Youngs Moduli (GPa) = 49.52047 15.12235 76.46601
#
# Poissons Ratio (x) = 0.37624 0.42267
# Poissons Ratio (y) = 1.23205 -0.03139
# Poissons Ratio (z) = 0.27373 -0.00621
#
# Static dielectric constant tensor:
#      x y z
#    x 1.840380 0.000000 0.000000 
#    y 0.000000 1.740670 0.000000 
#    z 0.000000 0.000000 1.950480 
# 
# From -- ./inp_files/24066.got.cif
#   From: 2010.05.17/outbox.cif.g08.bks.cpg/sg20_13_cif.got.tgz:24066.got - 2010.06.03 22:52:26.
