data_PCOD9320956
_publ_section_title
;
Structure prediction by ZEFSAII (Michael W. Deem and Ramdas Pophale) SiO2 
 PCOD9320956
Probable space group: C 2 2 21
;
_chemical_formula_sum "Si O2"
_cell_formula_units_Z 48
_cell_length_a 7.782567
_cell_length_b 14.578114
_cell_length_c 19.031931
_cell_angle_alpha 90.000000
_cell_angle_beta 90.000000
_cell_angle_gamma 90.000000
_cell_volume 2159.270566
_symmetry_space_group_name_H-M "C 2 2 21"
_symmetry_group_IT_number 20
_symmetry_cell_setting 'orthorhombic'
loop_
_space_group_symop_operation_xyz
x,y,z
-x,-y,1/2+z
x,-y,-z
-x,y,1/2-z
1/2+x,1/2+y,z
1/2-x,1/2-y,1/2+z
1/2+x,1/2-y,-z
1/2-x,1/2+y,1/2-z
loop_
_atom_site_type_symbol
_atom_site_label
_atom_site_fract_x
_atom_site_fract_y
_atom_site_fract_z
Si Si1 0.531983 0.677372 0.942457
Si Si2 0.631351 0.801441 0.070038
Si Si3 0.066613 0.522573 0.628637
Si Si4 0.000000 0.410579 0.750000
Si Si5 0.231361 0.000000 0.000000
Si Si6 0.330982 0.361033 0.294428
Si Si7 0.336013 0.702096 0.289153
O O1 0.328261 0.667246 0.935531
O O2 0.610037 0.692902 0.864856
O O3 0.571869 0.758663 0.996595
O O4 0.618569 0.584454 0.972137
O O5 0.516549 0.886205 0.096040
O O6 0.623117 0.723377 0.130142
O O7 0.944545 0.469522 0.681952
O O8 0.145699 0.467726 0.563547
O O9 0.226330 0.552582 0.677512
O O10 0.160026 0.351780 0.722804
O O11 0.500000 0.383012 0.250000
O O12 0.204024 0.299621 0.248180
O O13 0.500000 0.659901 0.250000
#
# Coordination Sequence:
#
# PCOD9320956 Si02
#       7
#     8   8   8   4   4   8   8
#     4  11  24  42  71 100 135 180 234 288 347 416
#     4  12  24  45  71  98 132 190 232 280 344 428
#     4  11  25  45  69  96 144 181 228 280 358 421
#     4  12  26  44  68 106 142 176 222 302 354 406
#     4  10  24  46  62 104 138 178 226 294 346 418
#     4  11  21  43  75 100 131 178 235 285 344 422
#     4  12  24  44  72 107 134 174 236 291 348 416
#
# _framework density 22.22973
#
# number of rings (size 3 to 8) (size 9 to 14) (size 15 to 20)
#    0.000    0.667    4.167    4.000    0.000    2.667 
#    6.000    0.000    0.000    0.000    0.000    0.000 
#    0.000    0.000    0.000    0.000    0.000    0.000 
#
# Total GULP energy -134350.925675 kJ/mol
# GULP energy per Si atom -5597.955236 kJ/mol
# Density = 2.217913 g / cm^3
# Si number density = 22.229730 Si / 1000 Ang^3
#
#
#
# Elastic Constant Matrix: (Units=GPa)
#
#
# Indices 1 2 3 4 5 6 
#
# 1 90.8489 -2.8087 15.8915 0.0000 0.0000 0.0000
# 2 -2.8087 28.5902 3.7287 0.0000 0.0000 0.0000
# 3 15.8915 3.7287 113.3823 0.0000 0.0000 0.0000
# 4 0.0000 0.0000 0.0000 31.9517 0.0000 0.0000
# 5 0.0000 0.0000 0.0000 0.0000 46.4841 0.0000
# 6 0.0000 0.0000 0.0000 0.0000 0.0000 12.1990
#
#
#
# Elastic Compliance Matrix: (Units=1/GPa)
#
#
# Indices 1 2 3 4 5 6 
#
# 1 0.011334 0.001326 -0.001632 0.000000 0.000000 0.000000
# 2 0.001326 0.035283 -0.001346 0.000000 0.000000 0.000000
# 3 -0.001632 -0.001346 0.009093 0.000000 0.000000 0.000000
# 4 0.000000 0.000000 0.000000 0.031297 0.000000 0.000000
# 5 0.000000 0.000000 0.000000 0.000000 0.021513 0.000000
# 6 0.000000 0.000000 0.000000 0.000000 0.000000 0.081974
#
#
# Mechanical properties :
#
#
# Convention : Reuss Voigt Hill
#
# Bulk Modulus (GPa) = 19.08207 29.60494 24.34351
# Shear Modulus (GPa) = 23.66688 32.52762 28.09725
#
# Velocity S-wave (km/s) = 3.26644 3.82939 3.55906
# Velocity P-wave (km/s) = 4.77795 5.73576 5.27863
#
# Compressibility (1/GPa) = 0.05240522
#
# Stress axis : x y z
#
# Youngs Moduli (GPa) = 88.23177 28.34240 109.97775
#
# Poissons Ratio (x) = -0.03759 0.17950
# Poissons Ratio (y) = -0.11702 0.14805
# Poissons Ratio (z) = 0.14401 0.03815
#
# Static dielectric constant tensor:
#      x y z
#    x 1.811620 0.000000 0.000000 
#    y 0.000000 1.839650 0.000000 
#    z 0.000000 0.000000 1.825440 
# 
# From -- ./inp_files/23508.got.cif
#   From: 2010.05.17/outbox.cif.g08.bks.cpg/sg20_12_cif.got.tgz:23508.got - 2010.06.03 22:52:26.
