data_PCOD9320536
_publ_section_title
;
Structure prediction by ZEFSAII (Michael W. Deem and Ramdas Pophale) SiO2 
 PCOD9320536
Probable space group: C 2 2 21
;
_chemical_formula_sum "Si O2"
_cell_formula_units_Z 32
_cell_length_a 5.388000
_cell_length_b 27.856297
_cell_length_c 8.869098
_cell_angle_alpha 90.000000
_cell_angle_beta 90.000000
_cell_angle_gamma 90.000000
_cell_volume 1331.160509
_symmetry_space_group_name_H-M "C 2 2 21"
_symmetry_group_IT_number 20
_symmetry_cell_setting 'orthorhombic'
loop_
_space_group_symop_operation_xyz
x,y,z
-x,-y,1/2+z
x,-y,-z
-x,y,1/2-z
1/2+x,1/2+y,z
1/2-x,1/2-y,1/2+z
1/2+x,1/2-y,-z
1/2-x,1/2+y,1/2-z
loop_
_atom_site_type_symbol
_atom_site_label
_atom_site_fract_x
_atom_site_fract_y
_atom_site_fract_z
Si Si1 0.305000 0.056827 0.003456
Si Si2 0.500000 0.389866 0.750000
Si Si3 0.839181 0.637785 0.505530
Si Si4 0.000000 0.113004 0.750000
Si Si5 0.431597 0.770636 0.926750
O O1 0.141182 0.079293 0.868969
O O2 0.569141 0.082935 0.989317
O O3 0.184137 0.076113 0.156937
O O4 0.318867 0.000000 0.000000
O O5 0.348442 0.357877 0.867072
O O6 0.695017 0.645593 0.660157
O O7 0.064620 0.672903 0.471567
O O8 0.500000 0.764985 0.750000
O O9 0.167640 0.749608 0.978077
#
# Coordination Sequence:
#
# PCOD9320536 Si02
#       5
#     8   4   8   4   8
#     4  11  23  41  67 101 142 188 241 297 368 441
#     4  10  23  42  68  96 142 186 238 298 365 440
#     4  11  26  46  71 101 143 188 240 303 372 444
#     4  10  25  42  68 100 146 184 244 298 371 438
#     4  12  30  51  82 116 154 200 258 319 388 460
#
# _framework density 24.039176000000001
#
# number of rings (size 3 to 8) (size 9 to 14) (size 15 to 20)
#    0.000    1.000    0.000    4.500   12.250   10.000 
#    0.000    0.000    0.000    0.000    0.000    0.000 
#    0.000    0.000    0.000    0.000    0.000    0.000 
#
# Total GULP energy -89699.781907 kJ/mol
# GULP energy per Si atom -5606.236369 kJ/mol
# Density = 2.398446 g / cm^3
# Si number density = 24.039176 Si / 1000 Ang^3
#
#
#
# Elastic Constant Matrix: (Units=GPa)
#
#
# Indices 1 2 3 4 5 6 
#
# 1 88.9646 8.1459 25.8838 0.0000 0.0000 0.0000
# 2 8.1459 96.1638 10.0727 0.0000 0.0000 0.0000
# 3 25.8838 10.0727 130.9338 0.0000 0.0000 0.0000
# 4 0.0000 0.0000 0.0000 8.8154 0.0000 0.0000
# 5 0.0000 0.0000 0.0000 0.0000 29.7923 0.0000
# 6 0.0000 0.0000 0.0000 0.0000 0.0000 30.6259
#
#
#
# Elastic Compliance Matrix: (Units=1/GPa)
#
#
# Indices 1 2 3 4 5 6 
#
# 1 0.011983 -0.000773 -0.002309 0.000000 0.000000 0.000000
# 2 -0.000773 0.010533 -0.000657 0.000000 0.000000 0.000000
# 3 -0.002309 -0.000657 0.008145 0.000000 0.000000 0.000000
# 4 0.000000 0.000000 0.000000 0.113437 0.000000 0.000000
# 5 0.000000 0.000000 0.000000 0.000000 0.033566 0.000000
# 6 0.000000 0.000000 0.000000 0.000000 0.000000 0.032652
#
#
# Mechanical properties :
#
#
# Convention : Reuss Voigt Hill
#
# Bulk Modulus (GPa) = 43.13905 44.91855 44.02880
# Shear Modulus (GPa) = 22.17067 31.97739 27.07403
#
# Velocity S-wave (km/s) = 3.04019 3.65117 3.35960
# Velocity P-wave (km/s) = 5.50526 6.04160 5.77966
#
# Compressibility (1/GPa) = 0.02318085
#
# Stress axis : x y z
#
# Youngs Moduli (GPa) = 83.45063 94.93717 122.78128
#
# Poissons Ratio (x) = 0.07340 0.28355
# Poissons Ratio (y) = 0.06452 0.08073
# Poissons Ratio (z) = 0.19272 0.06242
#
# Static dielectric constant tensor:
#      x y z
#    x 1.928070 0.000000 0.000000 
#    y 0.000000 1.892750 0.000000 
#    z 0.000000 0.000000 1.913180 
# 
# From -- ./inp_files/5167.got.cif
#   From: 2010.05.17/outbox.cif.g08.bks.cpg/sg20_3_cif.got.tgz:5167.got - 2010.06.03 22:52:26.
