data_PCOD9320618
_publ_section_title
;
Structure prediction by ZEFSAII (Michael W. Deem and Ramdas Pophale) SiO2 
 PCOD9320618
Probable space group: C 2 2 21
;
_chemical_formula_sum "Si O2"
_cell_formula_units_Z 36
_cell_length_a 9.670292
_cell_length_b 20.873100
_cell_length_c 8.289869
_cell_angle_alpha 90.000000
_cell_angle_beta 90.000000
_cell_angle_gamma 90.000000
_cell_volume 1673.301535
_symmetry_space_group_name_H-M "C 2 2 21"
_symmetry_group_IT_number 20
_symmetry_cell_setting 'orthorhombic'
loop_
_space_group_symop_operation_xyz
x,y,z
-x,-y,1/2+z
x,-y,-z
-x,y,1/2-z
1/2+x,1/2+y,z
1/2-x,1/2-y,1/2+z
1/2+x,1/2-y,-z
1/2-x,1/2+y,1/2-z
loop_
_atom_site_type_symbol
_atom_site_label
_atom_site_fract_x
_atom_site_fract_y
_atom_site_fract_z
Si Si1 0.304739 0.670216 0.524123
Si Si2 0.000000 0.295826 0.750000
Si Si3 0.583876 0.731636 0.459313
Si Si4 0.327322 0.500000 0.000000
Si Si5 0.233881 0.378998 0.821798
Si Si6 0.500000 0.414958 0.250000
O O1 0.418552 0.720352 0.447631
O O2 0.176694 0.709116 0.603844
O O3 0.255208 0.627347 0.371556
O O4 0.389934 0.627707 0.650550
O O5 0.097169 0.249877 0.647833
O O6 0.091029 0.342627 0.858165
O O7 0.649651 0.665483 0.403586
O O8 0.241851 0.550768 0.106091
O O9 0.421097 0.459369 0.122182
#
# Coordination Sequence:
#
# PCOD9320618 Si02
#       6
#     8   4   8   4   8   4
#     4  11  24  41  68 100 134 166 214 278 337 384
#     4  10  23  44  64 100 138 165 218 282 320 399
#     4  11  21  39  69  98 133 167 210 273 341 386
#     4  12  26  42  66  90 132 180 230 260 316 388
#     4  11  24  42  66  96 133 178 217 269 325 389
#     4  12  25  44  64  98 128 177 224 278 308 391
#
# _framework density 21.514351999999999
#
# number of rings (size 3 to 8) (size 9 to 14) (size 15 to 20)
#    0.000    0.889    4.444    2.667    3.111    0.000 
#    4.000    4.444    0.000    0.000    0.000    0.000 
#    0.000    0.000    0.000    0.000    0.000    0.000 
#
# Total GULP energy -100402.851548 kJ/mol
# GULP energy per Si atom -5577.936197 kJ/mol
# Density = 2.146538 g / cm^3
# Si number density = 21.514352 Si / 1000 Ang^3
#
#
#
# Elastic Constant Matrix: (Units=GPa)
#
#
# Indices 1 2 3 4 5 6 
#
# 1 58.8718 15.5121 26.6368 0.0000 0.0000 0.0000
# 2 15.5121 121.7102 67.4063 0.0000 0.0000 0.0000
# 3 26.6368 67.4063 88.2837 0.0000 0.0000 0.0000
# 4 0.0000 0.0000 0.0000 45.8525 0.0000 0.0000
# 5 0.0000 0.0000 0.0000 0.0000 35.6488 0.0000
# 6 0.0000 0.0000 0.0000 0.0000 0.0000 38.2671
#
#
#
# Elastic Compliance Matrix: (Units=1/GPa)
#
#
# Indices 1 2 3 4 5 6 
#
# 1 0.019801 0.001360 -0.007013 0.000000 0.000000 0.000000
# 2 0.001360 0.014330 -0.011351 0.000000 0.000000 0.000000
# 3 -0.007013 -0.011351 0.022110 0.000000 0.000000 0.000000
# 4 0.000000 0.000000 0.000000 0.021809 0.000000 0.000000
# 5 0.000000 0.000000 0.000000 0.000000 0.028051 0.000000
# 6 0.000000 0.000000 0.000000 0.000000 0.000000 0.026132
#
#
# Mechanical properties :
#
#
# Convention : Reuss Voigt Hill
#
# Bulk Modulus (GPa) = 44.97931 54.21956 49.59943
# Shear Modulus (GPa) = 28.79337 34.57439 31.68388
#
# Velocity S-wave (km/s) = 3.66229 4.01314 3.84172
# Velocity P-wave (km/s) = 6.23179 6.83593 6.54084
#
# Compressibility (1/GPa) = 0.02223244
#
# Stress axis : x y z
#
# Youngs Moduli (GPa) = 50.50349 69.78601 45.22855
#
# Poissons Ratio (x) = -0.09493 0.31718
# Poissons Ratio (y) = -0.06870 0.51340
# Poissons Ratio (z) = 0.35417 0.79216
#
# Static dielectric constant tensor:
#      x y z
#    x 1.851690 0.000000 0.000000 
#    y 0.000000 1.770100 0.000000 
#    z 0.000000 0.000000 1.893150 
# 
# From -- ./inp_files/5954.got.cif
#   From: 2010.05.17/outbox.cif.g08.bks.cpg/sg20_3_cif.got.tgz:5954.got - 2010.06.03 22:52:26.
