data_PCOD9320041
_publ_section_title
;
Structure prediction by ZEFSAII (Michael W. Deem and Ramdas Pophale) SiO2 
 PCOD9320041
Probable space group: C 2 2 21
;
_chemical_formula_sum "Si O2"
_cell_formula_units_Z 64
_cell_length_a 11.215751
_cell_length_b 8.312362
_cell_length_c 31.966315
_cell_angle_alpha 90.000000
_cell_angle_beta 90.000000
_cell_angle_gamma 90.000000
_cell_volume 2980.199805
_symmetry_space_group_name_H-M "C 2 2 21"
_symmetry_group_IT_number 20
_symmetry_cell_setting 'orthorhombic'
loop_
_space_group_symop_operation_xyz
x,y,z
-x,-y,1/2+z
x,-y,-z
-x,y,1/2-z
1/2+x,1/2+y,z
1/2-x,1/2-y,1/2+z
1/2+x,1/2-y,-z
1/2-x,1/2+y,1/2-z
loop_
_atom_site_type_symbol
_atom_site_label
_atom_site_fract_x
_atom_site_fract_y
_atom_site_fract_z
Si Si1 0.120895 0.435149 0.227451
Si Si2 0.130575 0.823157 0.231551
Si Si3 0.038812 0.737628 0.982040
Si Si4 0.613126 0.043763 0.867888
Si Si5 0.496434 0.430957 0.436378
Si Si6 0.241306 0.806309 0.436455
Si Si7 0.622150 0.034303 0.576767
Si Si8 0.830069 0.177147 0.634544
O O1 0.124801 0.628877 0.232292
O O2 0.249867 0.373342 0.243223
O O3 0.099534 0.397353 0.178983
O O4 0.000000 0.375601 0.250000
O O5 0.154126 0.873502 0.183012
O O6 0.000000 0.878204 0.250000
O O7 0.164546 0.656599 0.972484
O O8 0.929679 0.636813 0.962424
O O9 0.047651 0.901474 0.954811
O O10 0.033028 0.792526 0.029688
O O11 0.687255 0.173752 0.893582
O O12 0.491696 0.012241 0.893166
O O13 0.675361 0.870285 0.865843
O O14 0.637986 0.436957 0.435872
O O15 0.443145 0.385337 0.391982
O O16 0.180256 0.632073 0.438454
O O17 0.719527 0.116436 0.606800
#
# Coordination Sequence:
#
# PCOD9320041 Si02
#       8
#     8   8   8   8   8   8   8   8
#     4  10  22  42  65  92 131 167 210 272 319 385
#     4  10  24  42  64  95 129 167 216 265 328 388
#     4  10  25  42  60  95 126 166 211 262 318 383
#     4  10  23  40  63  94 125 167 217 252 325 380
#     4  11  23  41  64  90 128 166 208 261 321 374
#     4  11  23  41  64  91 124 167 208 258 317 376
#     4  11  22  42  65  92 125 165 213 264 314 384
#     4  11  22  41  65  91 128 169 208 265 319 383
#
# _framework density 21.475069000000001
#
# number of rings (size 3 to 8) (size 9 to 14) (size 15 to 20)
#    0.000    1.500    2.500    1.500    3.500    3.000 
#    0.000    0.000    0.000    0.000    0.000    0.000 
#    0.000    0.000    0.000    0.000    0.000    0.000 
#
# Total GULP energy -178728.317535 kJ/mol
# GULP energy per Si atom -5585.259923 kJ/mol
# Density = 2.142619 g / cm^3
# Si number density = 21.475069 Si / 1000 Ang^3
#
#
#
# Elastic Constant Matrix: (Units=GPa)
#
#
# Indices 1 2 3 4 5 6 
#
# 1 113.2158 11.6321 29.7085 0.0000 0.0000 0.0000
# 2 11.6321 40.4673 19.0938 0.0000 0.0000 0.0000
# 3 29.7085 19.0938 101.9744 0.0000 0.0000 0.0000
# 4 0.0000 0.0000 0.0000 29.5873 0.0000 0.0000
# 5 0.0000 0.0000 0.0000 0.0000 15.7061 0.0000
# 6 0.0000 0.0000 0.0000 0.0000 0.0000 -0.3421
#
#
#
# Elastic Compliance Matrix: (Units=1/GPa)
#
#
# Indices 1 2 3 4 5 6 
#
# 1 0.009656 -0.001589 -0.002516 0.000000 0.000000 0.000000
# 2 -0.001589 0.027367 -0.004661 0.000000 0.000000 0.000000
# 3 -0.002516 -0.004661 0.011412 0.000000 0.000000 0.000000
# 4 0.000000 0.000000 0.000000 0.033798 0.000000 0.000000
# 5 0.000000 0.000000 0.000000 0.000000 0.063670 0.000000
# 6 0.000000 0.000000 0.000000 0.000000 0.000000 -2.923433
#
#
# Mechanical properties :
#
#
# Convention : Reuss Voigt Hill
#
# Bulk Modulus (GPa) = 32.35827 41.83624 37.09726
# Shear Modulus (GPa) = -1.81838 22.00513 10.09337
#
# Velocity S-wave (km/s) = -0.92118 3.20454 2.17031
# Velocity P-wave (km/s) = 3.73753 5.76331 4.85720
#
# Compressibility (1/GPa) = 0.03090400
#
# Stress axis : x y z
#
# Youngs Moduli (GPa) = 103.56216 36.53989 87.62631
#
# Poissons Ratio (x) = 0.05805 0.22044
# Poissons Ratio (y) = 0.16452 0.40847
# Poissons Ratio (z) = 0.26053 0.17033
#
# Static dielectric constant tensor:
#      x y z
#    x 1.820930 0.000000 0.000000 
#    y 0.000000 1.808990 0.000000 
#    z 0.000000 0.000000 1.873350 
# 
# From -- ./inp_files/31221.got.cif
#   From: 2010.05.17/outbox.cif.g08.bks.cpg/sg20_16_cif.got.tgz:31221.got - 2010.06.03 22:52:26.
