data_PCOD9320936
_publ_section_title
;
Structure prediction by ZEFSAII (Michael W. Deem and Ramdas Pophale) SiO2 
 PCOD9320936
Probable space group: C 2 2 21
;
_chemical_formula_sum "Si O2"
_cell_formula_units_Z 32
_cell_length_a 4.861089
_cell_length_b 24.086321
_cell_length_c 11.313998
_cell_angle_alpha 90.000000
_cell_angle_beta 90.000000
_cell_angle_gamma 90.000000
_cell_volume 1324.707942
_symmetry_space_group_name_H-M "C 2 2 21"
_symmetry_group_IT_number 20
_symmetry_cell_setting 'orthorhombic'
loop_
_space_group_symop_operation_xyz
x,y,z
-x,-y,1/2+z
x,-y,-z
-x,y,1/2-z
1/2+x,1/2+y,z
1/2-x,1/2-y,1/2+z
1/2+x,1/2-y,-z
1/2-x,1/2+y,1/2-z
loop_
_atom_site_type_symbol
_atom_site_label
_atom_site_fract_x
_atom_site_fract_y
_atom_site_fract_z
Si Si1 0.500000 0.836140 0.750000
Si Si2 0.289300 0.714202 0.476771
Si Si3 0.500000 0.022354 0.750000
Si Si4 0.215286 0.406576 0.445948
Si Si5 0.788841 0.927676 0.898658
O O1 0.346172 0.801897 0.851391
O O2 0.723503 0.877038 0.810510
O O3 0.589018 0.740282 0.465561
O O4 0.293662 0.658078 0.554184
O O5 0.291977 0.060469 0.824831
O O6 0.675690 0.982357 0.835708
O O7 0.406677 0.432096 0.549567
O O8 0.903704 0.412647 0.490884
#
# Coordination Sequence:
#
# PCOD9320936 Si02
#       5
#     4   8   4   8   8
#     4   9  22  44  70  94 136 188 232 283 350 418
#     4  11  24  43  69 100 134 179 234 288 342 410
#     4  11  26  44  74 106 146 184 224 303 360 394
#     4  11  25  45  68 105 141 179 238 285 344 428
#     4  10  24  45  69  98 137 188 232 275 348 441
#
# _framework density 24.156267
#
# number of rings (size 3 to 8) (size 9 to 14) (size 15 to 20)
#    0.000    1.500    0.000    3.750    0.000   23.000 
#    0.000    5.000    0.000    0.000    0.000    0.000 
#    0.000    0.000    0.000    0.000    0.000    0.000 
#
# Total GULP energy -89697.990207 kJ/mol
# GULP energy per Si atom -5606.124388 kJ/mol
# Density = 2.410129 g / cm^3
# Si number density = 24.156267 Si / 1000 Ang^3
#
#
#
# Elastic Constant Matrix: (Units=GPa)
#
#
# Indices 1 2 3 4 5 6 
#
# 1 69.4043 14.0437 15.8803 0.0000 0.0000 0.0000
# 2 14.0437 151.3237 42.7702 0.0000 0.0000 0.0000
# 3 15.8803 42.7702 65.8410 0.0000 0.0000 0.0000
# 4 0.0000 0.0000 0.0000 29.2173 0.0000 0.0000
# 5 0.0000 0.0000 0.0000 0.0000 38.3066 0.0000
# 6 0.0000 0.0000 0.0000 0.0000 0.0000 19.6707
#
#
#
# Elastic Compliance Matrix: (Units=1/GPa)
#
#
# Indices 1 2 3 4 5 6 
#
# 1 0.015276 -0.000461 -0.003385 0.000000 0.000000 0.000000
# 2 -0.000461 0.008108 -0.005156 0.000000 0.000000 0.000000
# 3 -0.003385 -0.005156 0.019354 0.000000 0.000000 0.000000
# 4 0.000000 0.000000 0.000000 0.034226 0.000000 0.000000
# 5 0.000000 0.000000 0.000000 0.000000 0.026105 0.000000
# 6 0.000000 0.000000 0.000000 0.000000 0.000000 0.050837
#
#
# Mechanical properties :
#
#
# Convention : Reuss Voigt Hill
#
# Bulk Modulus (GPa) = 40.42953 47.99524 44.21238
# Shear Modulus (GPa) = 27.75378 31.69727 29.72552
#
# Velocity S-wave (km/s) = 3.39326 3.62633 3.51173
# Velocity P-wave (km/s) = 5.66792 6.11927 5.89791
#
# Compressibility (1/GPa) = 0.02473440
#
# Stress axis : x y z
#
# Youngs Moduli (GPa) = 65.46162 123.32838 51.66914
#
# Poissons Ratio (x) = 0.05685 0.17490
# Poissons Ratio (y) = 0.03018 0.26641
# Poissons Ratio (z) = 0.22159 0.63589
#
# Static dielectric constant tensor:
#      x y z
#    x 1.894930 0.000000 0.000000 
#    y 0.000000 1.922120 0.000000 
#    z 0.000000 0.000000 1.966140 
# 
# From -- ./inp_files/12023.got.cif
#   From: 2010.05.17/outbox.cif.g08.bks.cpg/sg20_7_cif.got.tgz:12023.got - 2010.06.03 22:52:26.
