data_PCOD9320859
_publ_section_title
;
Structure prediction by ZEFSAII (Michael W. Deem and Ramdas Pophale) SiO2 
 PCOD9320859
Probable space group: C 2 2 21
;
_chemical_formula_sum "Si O2"
_cell_formula_units_Z 60
_cell_length_a 17.503011
_cell_length_b 14.763860
_cell_length_c 11.081205
_cell_angle_alpha 90.000000
_cell_angle_beta 90.000000
_cell_angle_gamma 90.000000
_cell_volume 2863.516391
_symmetry_space_group_name_H-M "C 2 2 21"
_symmetry_group_IT_number 20
_symmetry_cell_setting 'orthorhombic'
loop_
_space_group_symop_operation_xyz
x,y,z
-x,-y,1/2+z
x,-y,-z
-x,y,1/2-z
1/2+x,1/2+y,z
1/2-x,1/2-y,1/2+z
1/2+x,1/2-y,-z
1/2-x,1/2+y,1/2-z
loop_
_atom_site_type_symbol
_atom_site_label
_atom_site_fract_x
_atom_site_fract_y
_atom_site_fract_z
Si Si1 0.187741 0.870485 0.152816
Si Si2 0.146984 0.640008 0.718649
Si Si3 0.831322 0.681707 0.240676
Si Si4 0.556502 0.520254 0.136191
Si Si5 0.581331 0.090101 0.052243
Si Si6 0.424964 0.890343 0.983224
Si Si7 0.500000 0.017572 0.750000
Si Si8 0.170818 0.816976 0.875311
O O1 0.269955 0.904110 0.199884
O O2 0.165731 0.789466 0.243006
O O3 0.125005 0.947873 0.149474
O O4 0.192189 0.828102 0.017040
O O5 0.124013 0.667375 0.582972
O O6 0.152644 0.717267 0.820884
O O7 0.078044 0.572378 0.745874
O O8 0.859704 0.644237 0.369540
O O9 0.889890 0.645602 0.141526
O O10 0.746027 0.654470 0.201100
O O11 0.500000 0.511192 0.250000
O O12 0.598109 0.617842 0.141037
O O13 0.524254 0.500000 0.000000
O O14 0.513496 0.136498 0.976312
O O15 0.515490 0.047937 0.139148
O O16 0.619260 0.000000 0.000000
O O17 0.405037 0.000000 0.000000
#
# Coordination Sequence:
#
# PCOD9320859 Si02
#       8
#     8   8   8   8   8   8   4   8
#     4  10  24  44  68  93 126 174 223 277 324 392
#     4  11  23  39  65  99 129 170 217 258 333 391
#     4  11  22  40  63  98 129 164 222 259 325 390
#     4  10  24  49  71  96 128 177 236 283 339 394
#     4  11  22  36  55  99 136 169 204 251 327 391
#     4  11  20  38  64  94 137 172 205 250 317 406
#     4  12  22  36  62  96 134 170 206 260 310 410
#     4  10  24  43  69  92 127 174 220 279 328 386
#
# _framework density 20.95326
#
# number of rings (size 3 to 8) (size 9 to 14) (size 15 to 20)
#    0.000    1.333    5.333    0.000    6.533    1.067 
#    4.800    0.667    0.000    0.000    0.000    0.000 
#    0.000    0.000    0.000    0.000    0.000    0.000 
#
# Total GULP energy -167011.803655 kJ/mol
# GULP energy per Si atom -5567.060122 kJ/mol
# Density = 2.090557 g / cm^3
# Si number density = 20.953260 Si / 1000 Ang^3
#
#
#
# Elastic Constant Matrix: (Units=GPa)
#
#
# Indices 1 2 3 4 5 6 
#
# 1 109.3605 22.1158 36.1221 0.0000 0.0000 0.0000
# 2 22.1158 26.5177 3.2086 0.0000 0.0000 0.0000
# 3 36.1221 3.2086 62.1221 0.0000 0.0000 0.0000
# 4 0.0000 0.0000 0.0000 31.1521 0.0000 0.0000
# 5 0.0000 0.0000 0.0000 0.0000 39.9656 0.0000
# 6 0.0000 0.0000 0.0000 0.0000 0.0000 13.7156
#
#
#
# Elastic Compliance Matrix: (Units=1/GPa)
#
#
# Indices 1 2 3 4 5 6 
#
# 1 0.013737 -0.010556 -0.007442 0.000000 0.000000 0.000000
# 2 -0.010556 0.046060 0.003759 0.000000 0.000000 0.000000
# 3 -0.007442 0.003759 0.020231 0.000000 0.000000 0.000000
# 4 0.000000 0.000000 0.000000 0.032101 0.000000 0.000000
# 5 0.000000 0.000000 0.000000 0.000000 0.025022 0.000000
# 6 0.000000 0.000000 0.000000 0.000000 0.000000 0.072910
#
#
# Mechanical properties :
#
#
# Convention : Reuss Voigt Hill
#
# Bulk Modulus (GPa) = 19.39924 35.65480 27.52702
# Shear Modulus (GPa) = 19.55257 26.07026 22.81141
#
# Velocity S-wave (km/s) = 3.05807 3.53116 3.30310
# Velocity P-wave (km/s) = 4.66342 5.80334 5.26433
#
# Compressibility (1/GPa) = 0.05154842
#
# Stress axis : x y z
#
# Youngs Moduli (GPa) = 72.79551 21.71099 49.42972
#
# Poissons Ratio (x) = 0.22919 0.36788
# Poissons Ratio (y) = 0.76845 -0.18582
# Poissons Ratio (z) = 0.54178 -0.08162
#
# Static dielectric constant tensor:
#      x y z
#    x 2.214300 0.000000 0.000000 
#    y 0.000000 1.792830 0.000000 
#    z 0.000000 0.000000 4.487360 
# 
# From -- ./inp_files/15868.got.cif
#   From: 2010.05.17/outbox.cif.g08.bks.cpg/sg20_8_cif.got.tgz:15868.got - 2010.06.03 22:52:26.
