data_PCOD9320123
_publ_section_title
;
Structure prediction by ZEFSAII (Michael W. Deem and Ramdas Pophale) SiO2 
 PCOD9320123
Probable space group: C 2 2 21
;
_chemical_formula_sum "Si O2"
_cell_formula_units_Z 40
_cell_length_a 19.776313
_cell_length_b 16.458352
_cell_length_c 5.592964
_cell_angle_alpha 90.000000
_cell_angle_beta 90.000000
_cell_angle_gamma 90.000000
_cell_volume 1820.428799
_symmetry_space_group_name_H-M "C 2 2 21"
_symmetry_group_IT_number 20
_symmetry_cell_setting 'orthorhombic'
loop_
_space_group_symop_operation_xyz
x,y,z
-x,-y,1/2+z
x,-y,-z
-x,y,1/2-z
1/2+x,1/2+y,z
1/2-x,1/2-y,1/2+z
1/2+x,1/2-y,-z
1/2-x,1/2+y,1/2-z
loop_
_atom_site_type_symbol
_atom_site_label
_atom_site_fract_x
_atom_site_fract_y
_atom_site_fract_z
Si Si1 0.080475 0.127445 0.744024
Si Si2 0.359818 0.374662 0.746086
Si Si3 0.892566 0.500000 0.500000
Si Si4 0.107984 0.715924 0.513449
Si Si5 0.708255 0.917054 0.647340
Si Si6 0.500000 0.114034 0.750000
O O1 0.108781 0.091155 0.493806
O O2 0.101708 0.222525 0.709573
O O3 0.000000 0.120449 0.750000
O O4 0.110957 0.096182 0.992611
O O5 0.379006 0.279350 0.771915
O O6 0.279834 0.387449 0.744572
O O7 0.844565 0.558427 0.350497
O O8 0.941301 0.443960 0.344709
O O9 0.169720 0.653496 0.496584
O O10 0.037718 0.669594 0.555877
O O11 0.719180 0.000000 0.500000
#
# Coordination Sequence:
#
# PCOD9320123 Si02
#       6
#     8   8   4   8   8   4
#     4  10  22  42  71 107 135 174 236 307 362 407
#     4  10  26  42  72 103 144 186 239 302 350 425
#     4  12  28  42  66  98 150 196 232 284 358 448
#     4  10  25  38  70  99 142 187 238 301 344 434
#     4  12  27  45  65 102 145 200 241 285 364 432
#     4  12  22  44  64 104 142 188 234 288 364 424
#
# _framework density 21.972847000000002
#
# number of rings (size 3 to 8) (size 9 to 14) (size 15 to 20)
#    1.200    0.000    2.000    3.000   11.200    0.000 
#    0.000    0.000    0.000    2.400    0.000    0.000 
#    0.000    0.000    0.000    0.000    0.000    0.000 
#
# Total GULP energy -111688.212957 kJ/mol
# GULP energy per Si atom -5584.410648 kJ/mol
# Density = 2.192284 g / cm^3
# Si number density = 21.972847 Si / 1000 Ang^3
#
#
#
# Elastic Constant Matrix: (Units=GPa)
#
#
# Indices 1 2 3 4 5 6 
#
# 1 157.1368 21.9638 56.7466 0.0000 0.0000 0.0000
# 2 21.9638 66.2344 22.5390 0.0000 0.0000 0.0000
# 3 56.7466 22.5390 145.6132 0.0000 0.0000 0.0000
# 4 0.0000 0.0000 0.0000 -77.1690 0.0000 0.0000
# 5 0.0000 0.0000 0.0000 0.0000 45.9460 0.0000
# 6 0.0000 0.0000 0.0000 0.0000 0.0000 -115.7883
#
#
#
# Elastic Compliance Matrix: (Units=1/GPa)
#
#
# Indices 1 2 3 4 5 6 
#
# 1 0.007561 -0.001588 -0.002701 0.000000 0.000000 0.000000
# 2 -0.001588 0.016271 -0.001900 0.000000 0.000000 0.000000
# 3 -0.002701 -0.001900 0.008214 0.000000 0.000000 0.000000
# 4 0.000000 0.000000 0.000000 -0.012959 0.000000 0.000000
# 5 0.000000 0.000000 0.000000 0.000000 0.021765 0.000000
# 6 0.000000 0.000000 0.000000 0.000000 0.000000 -0.008636
#
#
# Mechanical properties :
#
#
# Convention : Reuss Voigt Hill
#
# Bulk Modulus (GPa) = 50.84160 63.49814 57.16987
# Shear Modulus (GPa) = 97.75242 -11.55327 43.09958
#
# Velocity S-wave (km/s) = 6.67716 -2.29552 4.43368
# Velocity P-wave (km/s) = 9.09035 4.68352 7.23083
#
# Compressibility (1/GPa) = 0.01966893
#
# Stress axis : x y z
#
# Youngs Moduli (GPa) = 132.25359 61.45905 121.74237
#
# Poissons Ratio (x) = 0.09762 0.32880
# Poissons Ratio (y) = 0.21006 0.23126
# Poissons Ratio (z) = 0.35719 0.11675
#
# Static dielectric constant tensor:
#      x y z
#    x 1.724620 0.000000 0.000000 
#    y 0.000000 1.794060 0.000000 
#    z 0.000000 0.000000 1.824250 
# 
# From -- ./inp_files/2503.got.cif
#   From: 2010.05.17/outbox.cif.g08.bks.cpg/sg20_2_cif.got.tgz:2503.got - 2010.06.03 22:52:26.
