data_PCOD9320173
_publ_section_title
;
Structure prediction by ZEFSAII (Michael W. Deem and Ramdas Pophale) SiO2 
 PCOD9320173
Probable space group: C 2 2 21
;
_chemical_formula_sum "Si O2"
_cell_formula_units_Z 56
_cell_length_a 23.191889
_cell_length_b 8.710653
_cell_length_c 13.460464
_cell_angle_alpha 90.000000
_cell_angle_beta 90.000000
_cell_angle_gamma 90.000000
_cell_volume 2719.235792
_symmetry_space_group_name_H-M "C 2 2 21"
_symmetry_group_IT_number 20
_symmetry_cell_setting 'orthorhombic'
loop_
_space_group_symop_operation_xyz
x,y,z
-x,-y,1/2+z
x,-y,-z
-x,y,1/2-z
1/2+x,1/2+y,z
1/2-x,1/2-y,1/2+z
1/2+x,1/2-y,-z
1/2-x,1/2+y,1/2-z
loop_
_atom_site_type_symbol
_atom_site_label
_atom_site_fract_x
_atom_site_fract_y
_atom_site_fract_z
Si Si1 0.134278 0.324711 0.479227
Si Si2 0.655217 0.306555 0.097666
Si Si3 0.833023 0.845519 0.624226
Si Si4 0.133993 0.392758 0.257892
Si Si5 0.977806 0.500000 0.000000
Si Si6 0.241922 0.400263 0.798705
Si Si7 0.952217 0.378151 0.680579
Si Si8 0.808054 0.000000 0.000000
O O1 0.160643 0.500000 0.500000
O O2 0.140220 0.309493 0.361554
O O3 0.066894 0.356291 0.501170
O O4 0.158340 0.163669 0.521538
O O5 0.643565 0.484667 0.111744
O O6 0.705538 0.249455 0.169921
O O7 0.596477 0.218604 0.123316
O O8 0.679447 0.283690 0.985975
O O9 0.877722 0.729463 0.672656
O O10 0.781647 0.862149 0.704227
O O11 0.193003 0.478722 0.232042
O O12 0.083867 0.516970 0.257142
O O13 0.016748 0.519367 0.096980
O O14 0.273023 0.463266 0.898363
O O15 0.000000 0.296592 0.750000
#
# Coordination Sequence:
#
# PCOD9320173 Si02
#       8
#     8   8   8   8   4   8   8   4
#     4  10  24  44  65  96 139 172 228 281 339 406
#     4  10  25  42  65 102 135 179 231 284 341 421
#     4  11  22  42  64  96 145 175 223 288 345 408
#     4  11  22  43  64  98 131 176 232 280 339 419
#     4  10  22  43  68 100 126 183 226 288 352 398
#     4  11  24  40  67  97 138 189 224 275 346 417
#     4  11  21  43  74  92 131 179 231 285 352 416
#     4  12  24  45  66 104 142 181 234 280 336 422
#
# _framework density 20.594021000000001
#
# number of rings (size 3 to 8) (size 9 to 14) (size 15 to 20)
#    0.429    0.857    2.857    2.571    0.000    8.000 
#    0.000    3.571    0.000    0.000    0.000    0.000 
#    0.000    0.000    0.000    0.000    0.000    0.000 
#
# Total GULP energy -156097.724904 kJ/mol
# GULP energy per Si atom -5574.918747 kJ/mol
# Density = 2.054715 g / cm^3
# Si number density = 20.594021 Si / 1000 Ang^3
#
#
#
# Elastic Constant Matrix: (Units=GPa)
#
#
# Indices 1 2 3 4 5 6 
#
# 1 106.6569 37.1370 46.1200 0.0000 0.0000 0.0000
# 2 37.1370 85.2323 12.7229 0.0000 0.0000 0.0000
# 3 46.1200 12.7229 91.7486 0.0000 0.0000 0.0000
# 4 0.0000 0.0000 0.0000 32.8330 0.0000 0.0000
# 5 0.0000 0.0000 0.0000 0.0000 28.7888 0.0000
# 6 0.0000 0.0000 0.0000 0.0000 0.0000 9.9099
#
#
#
# Elastic Compliance Matrix: (Units=1/GPa)
#
#
# Indices 1 2 3 4 5 6 
#
# 1 0.013860 -0.005105 -0.006259 0.000000 0.000000 0.000000
# 2 -0.005105 0.013861 0.000644 0.000000 0.000000 0.000000
# 3 -0.006259 0.000644 0.013956 0.000000 0.000000 0.000000
# 4 0.000000 0.000000 0.000000 0.030457 0.000000 0.000000
# 5 0.000000 0.000000 0.000000 0.000000 0.034736 0.000000
# 6 0.000000 0.000000 0.000000 0.000000 0.000000 0.100909
#
#
# Mechanical properties :
#
#
# Convention : Reuss Voigt Hill
#
# Bulk Modulus (GPa) = 49.41408 52.84418 51.12913
# Shear Modulus (GPa) = 21.18965 26.81687 24.00326
#
# Velocity S-wave (km/s) = 3.21116 3.61247 3.41771
# Velocity P-wave (km/s) = 6.14778 6.56625 6.36046
#
# Compressibility (1/GPa) = 0.02023715
#
# Stress axis : x y z
#
# Youngs Moduli (GPa) = 72.15122 72.14657 71.65176
#
# Poissons Ratio (x) = 0.36828 0.44848
# Poissons Ratio (y) = 0.36830 -0.04614
# Poissons Ratio (z) = 0.45160 -0.04645
#
# Static dielectric constant tensor:
#      x y z
#    x 1.737260 0.000000 0.000000 
#    y 0.000000 1.797550 0.000000 
#    z 0.000000 0.000000 1.765780 
# 
# From -- ./inp_files/21815.got.cif
#   From: 2010.05.17/outbox.cif.g08.bks.cpg/sg20_11_cif.got.tgz:21815.got - 2010.06.03 22:52:26.
