data_PCOD9320615
_publ_section_title
;
Structure prediction by ZEFSAII (Michael W. Deem and Ramdas Pophale) SiO2 
 PCOD9320615
Probable space group: C 2 2 21
;
_chemical_formula_sum "Si O2"
_cell_formula_units_Z 44
_cell_length_a 11.739431
_cell_length_b 7.912307
_cell_length_c 21.907663
_cell_angle_alpha 90.000000
_cell_angle_beta 90.000000
_cell_angle_gamma 90.000000
_cell_volume 2034.914793
_symmetry_space_group_name_H-M "C 2 2 21"
_symmetry_group_IT_number 20
_symmetry_cell_setting 'orthorhombic'
loop_
_space_group_symop_operation_xyz
x,y,z
-x,-y,1/2+z
x,-y,-z
-x,y,1/2-z
1/2+x,1/2+y,z
1/2-x,1/2-y,1/2+z
1/2+x,1/2-y,-z
1/2-x,1/2+y,1/2-z
loop_
_atom_site_type_symbol
_atom_site_label
_atom_site_fract_x
_atom_site_fract_y
_atom_site_fract_z
Si Si1 0.306818 0.191618 0.975384
Si Si2 0.708937 0.664601 0.717538
Si Si3 0.000000 0.378677 0.750000
Si Si4 0.933528 0.684224 0.667209
Si Si5 0.941215 0.309546 0.477953
Si Si6 0.817193 0.209543 0.167151
O O1 0.432765 0.268801 0.994686
O O2 0.302583 0.231341 0.902658
O O3 0.181272 0.243864 0.999062
O O4 0.315388 0.000000 0.000000
O O5 0.591313 0.763708 0.715425
O O6 0.815199 0.764353 0.688098
O O7 0.743770 0.668768 0.788897
O O8 0.706652 0.486183 0.682843
O O9 0.057178 0.501738 0.799844
O O10 0.934932 0.682294 0.594880
O O11 0.050843 0.771162 0.685277
O O12 0.945845 0.500000 0.500000
#
# Coordination Sequence:
#
# PCOD9320615 Si02
#       6
#     8   8   4   8   8   8
#     4  10  24  47  67 102 135 182 237 285 346 414
#     4  12  24  41  67 101 137 178 225 284 353 416
#     4  12  26  40  66 102 140 182 228 282 354 420
#     4  11  23  45  64  97 140 178 224 285 344 415
#     4  10  23  43  73  96 137 183 228 287 340 408
#     4  11  23  44  70  98 143 179 230 285 349 415
#
# _framework density 21.622527000000002
#
# number of rings (size 3 to 8) (size 9 to 14) (size 15 to 20)
#    0.000    1.091    3.636    1.091    2.545    6.545 
#    3.273    0.000    0.000    0.000    0.000    0.000 
#    0.000    0.000    0.000    0.000    0.000    0.000 
#
# Total GULP energy -122578.718106 kJ/mol
# GULP energy per Si atom -5571.759914 kJ/mol
# Density = 2.157331 g / cm^3
# Si number density = 21.622527 Si / 1000 Ang^3
#
#
#
# Elastic Constant Matrix: (Units=GPa)
#
#
# Indices 1 2 3 4 5 6 
#
# 1 191.8305 43.0560 27.1865 0.0000 0.0000 0.0000
# 2 43.0560 44.4017 0.5961 0.0000 0.0000 0.0000
# 3 27.1865 0.5961 59.3820 0.0000 0.0000 0.0000
# 4 0.0000 0.0000 0.0000 14.2714 0.0000 0.0000
# 5 0.0000 0.0000 0.0000 0.0000 40.5478 0.0000
# 6 0.0000 0.0000 0.0000 0.0000 0.0000 33.4606
#
#
#
# Elastic Compliance Matrix: (Units=1/GPa)
#
#
# Indices 1 2 3 4 5 6 
#
# 1 0.007238 -0.006975 -0.003244 0.000000 0.000000 0.000000
# 2 -0.006975 0.029247 0.002900 0.000000 0.000000 0.000000
# 3 -0.003244 0.002900 0.018296 0.000000 0.000000 0.000000
# 4 0.000000 0.000000 0.000000 0.070070 0.000000 0.000000
# 5 0.000000 0.000000 0.000000 0.000000 0.024662 0.000000
# 6 0.000000 0.000000 0.000000 0.000000 0.000000 0.029886
#
#
# Mechanical properties :
#
#
# Convention : Reuss Voigt Hill
#
# Bulk Modulus (GPa) = 24.91128 48.58793 36.74960
# Shear Modulus (GPa) = 24.10583 32.64100 28.37341
#
# Velocity S-wave (km/s) = 3.34256 3.88955 3.62638
# Velocity P-wave (km/s) = 5.14227 6.53385 5.87938
#
# Compressibility (1/GPa) = 0.04014246
#
# Stress axis : x y z
#
# Youngs Moduli (GPa) = 138.15487 34.19197 54.65647
#
# Poissons Ratio (x) = 0.23850 0.17730
# Poissons Ratio (y) = 0.96368 -0.15850
# Poissons Ratio (z) = 0.44815 -0.09915
#
# Static dielectric constant tensor:
#      x y z
#    x 1.888790 0.000000 0.000000 
#    y 0.000000 1.800470 0.000000 
#    z 0.000000 0.000000 1.840590 
# 
# From -- ./inp_files/29051.got.cif
#   From: 2010.05.17/outbox.cif.g08.bks.cpg/sg20_15_cif.got.tgz:29051.got - 2010.06.03 22:52:26.
