data_PCOD9320782
_publ_section_title
;
Structure prediction by ZEFSAII (Michael W. Deem and Ramdas Pophale) SiO2 
 PCOD9320782
Probable space group: C 2 2 21
;
_chemical_formula_sum "Si O2"
_cell_formula_units_Z 28
_cell_length_a 12.982773
_cell_length_b 11.669450
_cell_length_c 7.977966
_cell_angle_alpha 90.000000
_cell_angle_beta 90.000000
_cell_angle_gamma 90.000000
_cell_volume 1208.676372
_symmetry_space_group_name_H-M "C 2 2 21"
_symmetry_group_IT_number 20
_symmetry_cell_setting 'orthorhombic'
loop_
_space_group_symop_operation_xyz
x,y,z
-x,-y,1/2+z
x,-y,-z
-x,y,1/2-z
1/2+x,1/2+y,z
1/2-x,1/2-y,1/2+z
1/2+x,1/2-y,-z
1/2-x,1/2+y,1/2-z
loop_
_atom_site_type_symbol
_atom_site_label
_atom_site_fract_x
_atom_site_fract_y
_atom_site_fract_z
Si Si1 0.822497 0.332724 0.953422
Si Si2 0.713959 0.589664 0.388320
Si Si3 0.637854 0.421618 0.149597
Si Si4 0.000000 0.713344 0.250000
O O1 0.760893 0.360376 0.782930
O O2 0.939175 0.355806 0.893591
O O3 0.818264 0.199302 0.004937
O O4 0.758224 0.395458 0.100278
O O5 0.780733 0.500000 0.500000
O O6 0.630675 0.499853 0.314347
O O7 0.580380 0.301349 0.163758
O O8 0.597181 0.500000 0.000000
#
# Coordination Sequence:
#
# PCOD9320782 Si02
#       4
#     8   8   8   4
#     4  11  23  42  65 101 138 175 224 285 331 407
#     4  11  20  42  66  92 143 174 217 284 345 385
#     4  10  24  40  66  99 137 174 226 284 341 399
#     4  12  22  40  72  98 134 180 232 272 346 402
#
# _framework density 23.165838999999998
#
# number of rings (size 3 to 8) (size 9 to 14) (size 15 to 20)
#    0.000    1.143    5.714    0.000    4.000    0.000 
#    0.000    4.286    0.000    0.000    0.000    0.000 
#    0.000    0.000    0.000    0.000    0.000    0.000 
#
# Total GULP energy -77957.668289 kJ/mol
# GULP energy per Si atom -5568.404878 kJ/mol
# Density = 2.311311 g / cm^3
# Si number density = 23.165839 Si / 1000 Ang^3
#
#
#
# Elastic Constant Matrix: (Units=GPa)
#
#
# Indices 1 2 3 4 5 6 
#
# 1 90.8745 8.1039 22.9160 0.0000 0.0000 0.0000
# 2 8.1039 56.9797 32.4123 0.0000 0.0000 0.0000
# 3 22.9160 32.4123 116.9992 0.0000 0.0000 0.0000
# 4 0.0000 0.0000 0.0000 62.2764 0.0000 0.0000
# 5 0.0000 0.0000 0.0000 0.0000 37.5138 0.0000
# 6 0.0000 0.0000 0.0000 0.0000 0.0000 13.6866
#
#
#
# Elastic Compliance Matrix: (Units=1/GPa)
#
#
# Indices 1 2 3 4 5 6 
#
# 1 0.011585 -0.000424 -0.002152 0.000000 0.000000 0.000000
# 2 -0.000424 0.020849 -0.005693 0.000000 0.000000 0.000000
# 3 -0.002152 -0.005693 0.010546 0.000000 0.000000 0.000000
# 4 0.000000 0.000000 0.000000 0.016057 0.000000 0.000000
# 5 0.000000 0.000000 0.000000 0.000000 0.026657 0.000000
# 6 0.000000 0.000000 0.000000 0.000000 0.000000 0.073064
#
#
# Mechanical properties :
#
#
# Convention : Reuss Voigt Hill
#
# Bulk Modulus (GPa) = 37.81769 43.52422 40.67095
# Shear Modulus (GPa) = 27.15808 36.12344 31.64076
#
# Velocity S-wave (km/s) = 3.42765 3.95313 3.69973
# Velocity P-wave (km/s) = 5.65909 6.29803 5.98709
#
# Compressibility (1/GPa) = 0.02644265
#
# Stress axis : x y z
#
# Youngs Moduli (GPa) = 86.32185 47.96489 94.82674
#
# Poissons Ratio (x) = 0.02032 0.20403
# Poissons Ratio (y) = 0.03657 0.53982
# Poissons Ratio (z) = 0.18573 0.27305
#
# Static dielectric constant tensor:
#      x y z
#    x 1.990960 0.000000 0.000000 
#    y 0.000000 1.889470 0.000000 
#    z 0.000000 0.000000 1.999350 
# 
# From -- ./inp_files/6686.got.cif
#   From: 2010.05.17/outbox.cif.g08.bks.cpg/sg20_4_cif.got.tgz:6686.got - 2010.06.03 22:52:26.
