data_PCOD9320856
_publ_section_title
;
Structure prediction by ZEFSAII (Michael W. Deem and Ramdas Pophale) SiO2 
 PCOD9320856
Probable space group: C 2 2 21
;
_chemical_formula_sum "Si O2"
_cell_formula_units_Z 36
_cell_length_a 7.277894
_cell_length_b 8.518088
_cell_length_c 22.113133
_cell_angle_alpha 90.000000
_cell_angle_beta 90.000000
_cell_angle_gamma 90.000000
_cell_volume 1370.875852
_symmetry_space_group_name_H-M "C 2 2 21"
_symmetry_group_IT_number 20
_symmetry_cell_setting 'orthorhombic'
loop_
_space_group_symop_operation_xyz
x,y,z
-x,-y,1/2+z
x,-y,-z
-x,y,1/2-z
1/2+x,1/2+y,z
1/2-x,1/2-y,1/2+z
1/2+x,1/2-y,-z
1/2-x,1/2+y,1/2-z
loop_
_atom_site_type_symbol
_atom_site_label
_atom_site_fract_x
_atom_site_fract_y
_atom_site_fract_z
Si Si1 0.538875 0.338540 0.537596
Si Si2 0.477679 0.975151 0.187305
Si Si3 0.500000 0.681160 0.250000
Si Si4 0.934409 0.687730 0.419258
Si Si5 0.564794 0.491710 0.147158
O O1 0.573161 0.500000 0.500000
O O2 0.717272 0.288232 0.573828
O O3 0.497335 0.204988 0.488576
O O4 0.398548 0.392669 0.589748
O O5 0.500000 0.074851 0.250000
O O6 0.537768 0.039233 0.122848
O O7 0.257672 0.955505 0.179660
O O8 0.583586 0.814235 0.205312
O O9 0.431222 0.565890 0.197517
O O10 0.012646 0.833805 0.381575
#
# Coordination Sequence:
#
# PCOD9320856 Si02
#       5
#     8   8   4   8   8
#     4  10  24  43  69 101 132 174 222 288 339 402
#     4  10  26  40  65 100 135 178 223 276 338 397
#     4  10  26  40  66  98 138 176 222 274 332 394
#     4  11  24  45  71  99 133 177 227 276 345 401
#     4  11  24  43  67  95 136 175 226 274 338 397
#
# _framework density 26.260583
#
# number of rings (size 3 to 8) (size 9 to 14) (size 15 to 20)
#    0.667    0.889    0.000    2.667    7.778    7.111 
#    0.000    0.000    0.000    0.000    0.000    0.000 
#    0.000    0.000    0.000    0.000    0.000    0.000 
#
# Total GULP energy -100329.556382 kJ/mol
# GULP energy per Si atom -5573.864243 kJ/mol
# Density = 2.620081 g / cm^3
# Si number density = 26.260583 Si / 1000 Ang^3
#
#
#
# Elastic Constant Matrix: (Units=GPa)
#
#
# Indices 1 2 3 4 5 6 
#
# 1 53.1889 3.6428 22.9193 0.0000 0.0000 0.0000
# 2 3.6428 73.3364 66.8972 0.0000 0.0000 0.0000
# 3 22.9193 66.8972 173.0121 0.0000 0.0000 0.0000
# 4 0.0000 0.0000 0.0000 73.5228 0.0000 0.0000
# 5 0.0000 0.0000 0.0000 0.0000 53.5182 0.0000
# 6 0.0000 0.0000 0.0000 0.0000 0.0000 14.3022
#
#
#
# Elastic Compliance Matrix: (Units=1/GPa)
#
#
# Indices 1 2 3 4 5 6 
#
# 1 0.020170 0.002218 -0.003529 0.000000 0.000000 0.000000
# 2 0.002218 0.021310 -0.008533 0.000000 0.000000 0.000000
# 3 -0.003529 -0.008533 0.009547 0.000000 0.000000 0.000000
# 4 0.000000 0.000000 0.000000 0.013601 0.000000 0.000000
# 5 0.000000 0.000000 0.000000 0.000000 0.018685 0.000000
# 6 0.000000 0.000000 0.000000 0.000000 0.000000 0.069919
#
#
# Mechanical properties :
#
#
# Convention : Reuss Voigt Hill
#
# Bulk Modulus (GPa) = 31.91193 54.05068 42.98131
# Shear Modulus (GPa) = 27.26750 42.00719 34.63734
#
# Velocity S-wave (km/s) = 3.22583 4.00388 3.63572
# Velocity P-wave (km/s) = 5.10422 6.48088 5.83330
#
# Compressibility (1/GPa) = 0.03133624
#
# Stress axis : x y z
#
# Youngs Moduli (GPa) = 49.57888 46.92669 104.74429
#
# Poissons Ratio (x) = -0.10407 0.36969
# Poissons Ratio (y) = -0.10995 0.89383
# Poissons Ratio (z) = 0.17498 0.40045
#
# Static dielectric constant tensor:
#      x y z
#    x 2.103730 0.000000 0.000000 
#    y 0.000000 2.136590 0.000000 
#    z 0.000000 0.000000 2.077570 
# 
# From -- ./inp_files/26400.got.cif
#   From: 2010.05.17/outbox.cif.g08.bks.cpg/sg20_14_cif.got.tgz:26400.got - 2010.06.03 22:52:26.
