data_PCOD9320691
_publ_section_title
;
Structure prediction by ZEFSAII (Michael W. Deem and Ramdas Pophale) SiO2 
 PCOD9320691
Probable space group: C 2 2 21
;
_chemical_formula_sum "Si O2"
_cell_formula_units_Z 56
_cell_length_a 16.024676
_cell_length_b 11.778469
_cell_length_c 13.693798
_cell_angle_alpha 90.000000
_cell_angle_beta 90.000000
_cell_angle_gamma 90.000000
_cell_volume 2584.651645
_symmetry_space_group_name_H-M "C 2 2 21"
_symmetry_group_IT_number 20
_symmetry_cell_setting 'orthorhombic'
loop_
_space_group_symop_operation_xyz
x,y,z
-x,-y,1/2+z
x,-y,-z
-x,y,1/2-z
1/2+x,1/2+y,z
1/2-x,1/2-y,1/2+z
1/2+x,1/2-y,-z
1/2-x,1/2+y,1/2-z
loop_
_atom_site_type_symbol
_atom_site_label
_atom_site_fract_x
_atom_site_fract_y
_atom_site_fract_z
Si Si1 0.988342 0.121331 0.640065
Si Si2 0.626526 0.835892 0.819776
Si Si3 0.153408 0.867258 0.494469
Si Si4 0.092354 0.418415 0.221054
Si Si5 0.663537 0.819809 0.033814
Si Si6 0.644519 0.568188 0.085015
Si Si7 0.188634 0.201720 0.283880
O O1 0.942561 0.241098 0.661935
O O2 0.000000 0.076726 0.750000
O O3 0.069947 0.144040 0.572174
O O4 0.930233 0.021491 0.597546
O O5 0.711928 0.784438 0.780734
O O6 0.603852 0.948169 0.759898
O O7 0.653683 0.871848 0.928086
O O8 0.236733 0.812061 0.447187
O O9 0.152291 0.832391 0.609358
O O10 0.171095 0.000000 0.500000
O O11 0.111230 0.392671 0.108803
O O12 0.153232 0.327647 0.269078
O O13 0.000000 0.385290 0.250000
O O14 0.628187 0.691856 0.038534
O O15 0.669837 0.610507 0.195903
O O16 0.698381 0.500000 0.000000
#
# Coordination Sequence:
#
# PCOD9320691 Si02
#       7
#     8   8   8   8   8   8   8
#     4  12  27  41  72 108 147 189 251 311 372 433
#     4  11  24  46  71 101 143 191 240 307 364 442
#     4  11  24  45  73 111 145 195 245 304 379 456
#     4  11  25  43  70 101 142 187 240 295 368 438
#     4  10  23  45  73 100 141 190 239 291 372 449
#     4  11  23  43  72 109 143 188 233 311 361 443
#     4  10  26  44  76 104 148 190 249 296 380 458
#
# _framework density 21.666361999999999
#
# number of rings (size 3 to 8) (size 9 to 14) (size 15 to 20)
#    0.000    1.143    1.429    3.857    8.000    3.429 
#    0.000    0.000    0.000    0.000    0.000    0.000 
#    0.000    0.000    0.000    0.000    0.000    0.000 
#
# Total GULP energy -155928.362092 kJ/mol
# GULP energy per Si atom -5568.870075 kJ/mol
# Density = 2.161705 g / cm^3
# Si number density = 21.666362 Si / 1000 Ang^3
#
#
#
# Elastic Constant Matrix: (Units=GPa)
#
#
# Indices 1 2 3 4 5 6 
#
# 1 112.0394 50.6686 46.0764 0.0000 0.0000 0.0000
# 2 50.6686 143.7251 17.9584 0.0000 0.0000 0.0000
# 3 46.0764 17.9584 118.6103 0.0000 0.0000 0.0000
# 4 0.0000 0.0000 0.0000 19.3867 0.0000 0.0000
# 5 0.0000 0.0000 0.0000 0.0000 33.5897 0.0000
# 6 0.0000 0.0000 0.0000 0.0000 0.0000 -61.7310
#
#
#
# Elastic Compliance Matrix: (Units=1/GPa)
#
#
# Indices 1 2 3 4 5 6 
#
# 1 0.012407 -0.003844 -0.004238 0.000000 0.000000 0.000000
# 2 -0.003844 0.008283 0.000239 0.000000 0.000000 0.000000
# 3 -0.004238 0.000239 0.010041 0.000000 0.000000 0.000000
# 4 0.000000 0.000000 0.000000 0.051582 0.000000 0.000000
# 5 0.000000 0.000000 0.000000 0.000000 0.029771 0.000000
# 6 0.000000 0.000000 0.000000 0.000000 0.000000 -0.016199
#
#
# Mechanical properties :
#
#
# Convention : Reuss Voigt Hill
#
# Bulk Modulus (GPa) = 66.46516 67.08684 66.77600
# Shear Modulus (GPa) = 42.88729 15.56049 29.22389
#
# Velocity S-wave (km/s) = 4.45392 2.68281 3.67660
# Velocity P-wave (km/s) = 7.56261 6.37396 6.99359
#
# Compressibility (1/GPa) = 0.01504548
#
# Stress axis : x y z
#
# Youngs Moduli (GPa) = 80.60152 120.72752 99.59267
#
# Poissons Ratio (x) = 0.46412 0.42203
# Poissons Ratio (y) = 0.30986 -0.02383
# Poissons Ratio (z) = 0.34155 -0.02889
#
# Static dielectric constant tensor:
#      x y z
#    x 1.865370 0.000000 0.000000 
#    y 0.000000 1.765160 0.000000 
#    z 0.000000 0.000000 2.362940 
# 
# From -- ./inp_files/20720.got.cif
#   From: 2010.05.17/outbox.cif.g08.bks.cpg/sg20_11_cif.got.tgz:20720.got - 2010.06.03 22:52:26.
