data_PCOD9320292
_publ_section_title
;
Structure prediction by ZEFSAII (Michael W. Deem and Ramdas Pophale) SiO2 
 PCOD9320292
Probable space group: C 2 2 21
;
_chemical_formula_sum "Si O2"
_cell_formula_units_Z 48
_cell_length_a 7.628096
_cell_length_b 14.431228
_cell_length_c 18.014769
_cell_angle_alpha 90.000000
_cell_angle_beta 90.000000
_cell_angle_gamma 90.000000
_cell_volume 1983.116079
_symmetry_space_group_name_H-M "C 2 2 21"
_symmetry_group_IT_number 20
_symmetry_cell_setting 'orthorhombic'
loop_
_space_group_symop_operation_xyz
x,y,z
-x,-y,1/2+z
x,-y,-z
-x,y,1/2-z
1/2+x,1/2+y,z
1/2-x,1/2-y,1/2+z
1/2+x,1/2-y,-z
1/2-x,1/2+y,1/2-z
loop_
_atom_site_type_symbol
_atom_site_label
_atom_site_fract_x
_atom_site_fract_y
_atom_site_fract_z
Si Si1 0.680930 0.998961 0.704171
Si Si2 0.359726 0.301091 0.685934
Si Si3 0.461626 0.710153 0.024971
Si Si4 0.388743 0.103750 0.526001
Si Si5 0.140657 0.069090 0.930498
Si Si6 0.680970 0.617734 0.668410
O O1 0.500000 0.988142 0.750000
O O2 0.779215 0.900852 0.702941
O O3 0.695834 0.038997 0.620214
O O4 0.021763 0.067488 0.627163
O O5 0.500000 0.273435 0.750000
O O6 0.463545 0.303628 0.607738
O O7 0.285593 0.572486 0.753455
O O8 0.197954 0.228442 0.678737
O O9 0.461825 0.820567 0.010495
O O10 0.101861 0.831237 0.033498
O O11 0.286794 0.650295 0.010877
O O12 0.341529 0.100887 0.612508
O O13 0.416503 0.000000 0.500000
O O14 0.124210 0.000000 0.000000
#
# Coordination Sequence:
#
# PCOD9320292 Si02
#       6
#     8   8   8   8   8   8
#     4  12  27  45  70 110 150 198 253 308 385 464
#     4  11  24  44  76 104 150 192 247 310 384 456
#     4  10  22  44  74 107 141 192 250 308 381 449
#     4  10  23  43  70 106 147 192 251 307 383 451
#     4  11  22  46  81 102 146 200 254 320 390 453
#     4  10  23  45  70 107 139 191 251 309 379 461
#
# _framework density 24.204332000000001
#
# number of rings (size 3 to 8) (size 9 to 14) (size 15 to 20)
#    0.000    1.333    1.667    4.000    2.333    5.333 
#    9.000    3.333    0.000    0.000    0.000    0.000 
#    0.000    0.000    0.000    0.000    0.000    0.000 
#
# Total GULP energy -134147.986311 kJ/mol
# GULP energy per Si atom -5589.499430 kJ/mol
# Density = 2.414924 g / cm^3
# Si number density = 24.204332 Si / 1000 Ang^3
#
#
#
# Elastic Constant Matrix: (Units=GPa)
#
#
# Indices 1 2 3 4 5 6 
#
# 1 126.4462 12.8034 20.3055 0.0000 0.0000 0.0000
# 2 12.8034 139.8797 51.5729 0.0000 0.0000 0.0000
# 3 20.3055 51.5729 124.6913 0.0000 0.0000 0.0000
# 4 0.0000 0.0000 0.0000 30.7117 0.0000 0.0000
# 5 0.0000 0.0000 0.0000 0.0000 11.0445 0.0000
# 6 0.0000 0.0000 0.0000 0.0000 0.0000 8.8631
#
#
#
# Elastic Compliance Matrix: (Units=1/GPa)
#
#
# Indices 1 2 3 4 5 6 
#
# 1 0.008132 -0.000302 -0.001199 0.000000 0.000000 0.000000
# 2 -0.000302 0.008447 -0.003444 0.000000 0.000000 0.000000
# 3 -0.001199 -0.003444 0.009640 0.000000 0.000000 0.000000
# 4 0.000000 0.000000 0.000000 0.032561 0.000000 0.000000
# 5 0.000000 0.000000 0.000000 0.000000 0.090543 0.000000
# 6 0.000000 0.000000 0.000000 0.000000 0.000000 0.112827
#
#
# Mechanical properties :
#
#
# Convention : Reuss Voigt Hill
#
# Bulk Modulus (GPa) = 61.25021 62.26455 61.75738
# Shear Modulus (GPa) = 18.01919 30.54624 24.28272
#
# Velocity S-wave (km/s) = 2.73144 3.55634 3.17083
# Velocity P-wave (km/s) = 5.94206 6.53022 6.24307
#
# Compressibility (1/GPa) = 0.01632647
#
# Stress axis : x y z
#
# Youngs Moduli (GPa) = 122.97588 118.39138 103.73777
#
# Poissons Ratio (x) = 0.03577 0.12441
# Poissons Ratio (y) = 0.03716 0.35731
# Poissons Ratio (z) = 0.14748 0.40778
#
# Static dielectric constant tensor:
#      x y z
#    x 2.049630 0.000000 0.000000 
#    y 0.000000 1.928960 0.000000 
#    z 0.000000 0.000000 1.904040 
# 
# From -- ./inp_files/24238.got.cif
#   From: 2010.05.17/outbox.cif.g08.bks.cpg/sg20_13_cif.got.tgz:24238.got - 2010.06.03 22:52:26.
