data_PCOD9320767
_publ_section_title
;
Structure prediction by ZEFSAII (Michael W. Deem and Ramdas Pophale) SiO2 
 PCOD9320767
Probable space group: C 2 2 21
;
_chemical_formula_sum "Si O2"
_cell_formula_units_Z 40
_cell_length_a 13.455338
_cell_length_b 11.484922
_cell_length_c 10.967111
_cell_angle_alpha 90.000000
_cell_angle_beta 90.000000
_cell_angle_gamma 90.000000
_cell_volume 1694.786129
_symmetry_space_group_name_H-M "C 2 2 21"
_symmetry_group_IT_number 20
_symmetry_cell_setting 'orthorhombic'
loop_
_space_group_symop_operation_xyz
x,y,z
-x,-y,1/2+z
x,-y,-z
-x,y,1/2-z
1/2+x,1/2+y,z
1/2-x,1/2-y,1/2+z
1/2+x,1/2-y,-z
1/2-x,1/2+y,1/2-z
loop_
_atom_site_type_symbol
_atom_site_label
_atom_site_fract_x
_atom_site_fract_y
_atom_site_fract_z
Si Si1 0.598286 0.690211 0.027104
Si Si2 0.803897 0.263292 0.064467
Si Si3 0.479821 0.917307 0.116356
Si Si4 0.118585 0.933688 0.741842
Si Si5 0.926557 0.821767 0.149280
O O1 0.551104 0.804246 0.093308
O O2 0.648905 0.603856 0.123402
O O3 0.686596 0.726387 0.938182
O O4 0.506793 0.636413 0.952505
O O5 0.867083 0.369329 0.118329
O O6 0.833167 0.149519 0.142017
O O7 0.847800 0.251356 0.926914
O O8 0.500000 0.968155 0.250000
O O9 0.493795 0.000000 0.000000
O O10 0.000000 0.911198 0.750000
O O11 0.127730 0.067436 0.706424
O O12 0.000000 0.765836 0.250000
#
# Coordination Sequence:
#
# PCOD9320767 Si02
#       5
#     8   8   8   8   8
#     4  11  24  45  71  99 137 185 223 287 353 409
#     4  11  23  44  67 101 133 174 232 285 339 416
#     4  11  24  49  70  95 144 191 227 282 353 415
#     4  11  20  44  71  91 138 176 227 283 351 395
#     4  10  24  38  70 102 135 174 229 286 348 411
#
# _framework density 23.601797000000001
#
# number of rings (size 3 to 8) (size 9 to 14) (size 15 to 20)
#    0.000    1.200    6.000    0.600    5.600    4.800 
#   10.800    0.000    0.000    0.000    0.000    0.000 
#    0.000    0.000    0.000    0.000    0.000    0.000 
#
# Total GULP energy -111848.984029 kJ/mol
# GULP energy per Si atom -5592.449201 kJ/mol
# Density = 2.354808 g / cm^3
# Si number density = 23.601797 Si / 1000 Ang^3
#
#
#
# Elastic Constant Matrix: (Units=GPa)
#
#
# Indices 1 2 3 4 5 6 
#
# 1 82.6209 -0.6957 4.3763 0.0000 0.0000 0.0000
# 2 -0.6957 48.1300 28.9700 0.0000 0.0000 0.0000
# 3 4.3763 28.9700 111.2129 0.0000 0.0000 0.0000
# 4 0.0000 0.0000 0.0000 41.0963 0.0000 0.0000
# 5 0.0000 0.0000 0.0000 0.0000 25.7928 0.0000
# 6 0.0000 0.0000 0.0000 0.0000 0.0000 11.8348
#
#
#
# Elastic Compliance Matrix: (Units=1/GPa)
#
#
# Indices 1 2 3 4 5 6 
#
# 1 0.012141 0.000549 -0.000621 0.000000 0.000000 0.000000
# 2 0.000549 0.024665 -0.006447 0.000000 0.000000 0.000000
# 3 -0.000621 -0.006447 0.010696 0.000000 0.000000 0.000000
# 4 0.000000 0.000000 0.000000 0.024333 0.000000 0.000000
# 5 0.000000 0.000000 0.000000 0.000000 0.038770 0.000000
# 6 0.000000 0.000000 0.000000 0.000000 0.000000 0.084496
#
#
# Mechanical properties :
#
#
# Convention : Reuss Voigt Hill
#
# Bulk Modulus (GPa) = 29.01486 34.14057 31.57772
# Shear Modulus (GPa) = 22.76588 29.69900 26.23244
#
# Velocity S-wave (km/s) = 3.10914 3.55115 3.33747
# Velocity P-wave (km/s) = 5.02088 5.59561 5.31602
#
# Compressibility (1/GPa) = 0.03446509
#
# Stress axis : x y z
#
# Youngs Moduli (GPa) = 82.36569 40.54270 93.49717
#
# Poissons Ratio (x) = -0.02226 0.05804
# Poissons Ratio (y) = -0.04523 0.60275
# Poissons Ratio (z) = 0.05113 0.26137
#
# Static dielectric constant tensor:
#      x y z
#    x 1.852130 0.000000 0.000000 
#    y 0.000000 1.891560 0.000000 
#    z 0.000000 0.000000 1.983600 
# 
# From -- ./inp_files/14851.got.cif
#   From: 2010.05.17/outbox.cif.g08.bks.cpg/sg20_8_cif.got.tgz:14851.got - 2010.06.03 22:52:26.
