data_PCOD9320713
_publ_section_title
;
Structure prediction by ZEFSAII (Michael W. Deem and Ramdas Pophale) SiO2 
 PCOD9320713
Probable space group: C 2 2 21
;
_chemical_formula_sum "Si O2"
_cell_formula_units_Z 56
_cell_length_a 8.180636
_cell_length_b 16.472527
_cell_length_c 18.917757
_cell_angle_alpha 90.000000
_cell_angle_beta 90.000000
_cell_angle_gamma 90.000000
_cell_volume 2549.276483
_symmetry_space_group_name_H-M "C 2 2 21"
_symmetry_group_IT_number 20
_symmetry_cell_setting 'orthorhombic'
loop_
_space_group_symop_operation_xyz
x,y,z
-x,-y,1/2+z
x,-y,-z
-x,y,1/2-z
1/2+x,1/2+y,z
1/2-x,1/2-y,1/2+z
1/2+x,1/2-y,-z
1/2-x,1/2+y,1/2-z
loop_
_atom_site_type_symbol
_atom_site_label
_atom_site_fract_x
_atom_site_fract_y
_atom_site_fract_z
Si Si1 0.052002 0.454565 0.169421
Si Si2 0.083586 0.738722 0.024385
Si Si3 0.219026 0.129404 0.869530
Si Si4 0.725295 0.065414 0.062812
Si Si5 0.190159 0.301142 0.226880
Si Si6 0.252021 0.695796 0.400035
Si Si7 0.595452 0.470392 0.919827
O O1 0.118887 0.530467 0.127024
O O2 0.185936 0.383351 0.179876
O O3 0.000000 0.474997 0.250000
O O4 0.899994 0.410966 0.129894
O O5 0.172393 0.811617 0.066695
O O6 0.171053 0.653204 0.037144
O O7 0.904583 0.726793 0.056835
O O8 0.095552 0.764115 0.942569
O O9 0.210887 0.180423 0.797624
O O10 0.105643 0.050293 0.872132
O O11 0.914898 0.065965 0.083588
O O12 0.707102 0.000000 0.000000
O O13 0.251982 0.228956 0.178904
O O14 0.000000 0.287712 0.250000
O O15 0.276055 0.599470 0.401371
O O16 0.626548 0.500000 0.000000
#
# Coordination Sequence:
#
# PCOD9320713 Si02
#       7
#     8   8   8   8   8   8   8
#     4   9  21  44  70  93 137 180 228 274 353 417
#     4  12  27  41  74 101 142 182 236 300 355 425
#     4  10  23  46  68 101 136 181 229 293 346 423
#     4  11  25  42  68 104 137 179 232 295 354 421
#     4   9  23  44  72 100 140 187 229 288 356 432
#     4  12  26  44  72 106 143 188 241 295 362 429
#     4  11  24  44  70 104 139 176 243 298 357 420
#
# _framework density 21.967017999999999
#
# number of rings (size 3 to 8) (size 9 to 14) (size 15 to 20)
#    0.000    1.714    1.429    2.571   14.000    1.714 
#   10.286    0.000    0.000    0.000    0.000    0.000 
#    0.000    0.000    0.000    0.000    0.000    0.000 
#
# Total GULP energy -156644.925386 kJ/mol
# GULP energy per Si atom -5594.461621 kJ/mol
# Density = 2.191702 g / cm^3
# Si number density = 21.967018 Si / 1000 Ang^3
#
#
#
# Elastic Constant Matrix: (Units=GPa)
#
#
# Indices 1 2 3 4 5 6 
#
# 1 36.0260 20.4415 32.3563 0.0000 0.0000 0.0000
# 2 20.4415 110.1971 39.7841 0.0000 0.0000 0.0000
# 3 32.3563 39.7841 71.3450 0.0000 0.0000 0.0000
# 4 0.0000 0.0000 0.0000 35.5130 0.0000 0.0000
# 5 0.0000 0.0000 0.0000 0.0000 19.2227 0.0000
# 6 0.0000 0.0000 0.0000 0.0000 0.0000 25.5387
#
#
#
# Elastic Compliance Matrix: (Units=1/GPa)
#
#
# Indices 1 2 3 4 5 6 
#
# 1 0.046978 -0.001280 -0.020592 0.000000 0.000000 0.000000
# 2 -0.001280 0.011397 -0.005775 0.000000 0.000000 0.000000
# 3 -0.020592 -0.005775 0.026575 0.000000 0.000000 0.000000
# 4 0.000000 0.000000 0.000000 0.028159 0.000000 0.000000
# 5 0.000000 0.000000 0.000000 0.000000 0.052022 0.000000
# 6 0.000000 0.000000 0.000000 0.000000 0.000000 0.039156
#
#
# Mechanical properties :
#
#
# Convention : Reuss Voigt Hill
#
# Bulk Modulus (GPa) = 33.71851 44.74799 39.23325
# Shear Modulus (GPa) = 18.55522 24.38728 21.47125
#
# Velocity S-wave (km/s) = 2.90950 3.33555 3.12978
# Velocity P-wave (km/s) = 5.16429 5.93711 5.56413
#
# Compressibility (1/GPa) = 0.02965730
#
# Stress axis : x y z
#
# Youngs Moduli (GPa) = 21.28648 87.74276 37.62916
#
# Poissons Ratio (x) = 0.11234 0.77484
# Poissons Ratio (y) = 0.02725 0.21729
# Poissons Ratio (z) = 0.43832 0.50668
#
# Static dielectric constant tensor:
#      x y z
#    x 1.845590 0.000000 0.000000 
#    y 0.000000 1.772260 0.000000 
#    z 0.000000 0.000000 1.795410 
# 
# From -- ./inp_files/26736.got.cif
#   From: 2010.05.17/outbox.cif.g08.bks.cpg/sg20_14_cif.got.tgz:26736.got - 2010.06.03 22:52:26.
