data_PCOD9320667
_publ_section_title
;
Structure prediction by ZEFSAII (Michael W. Deem and Ramdas Pophale) SiO2 
 PCOD9320667
Probable space group: C 2 2 21
;
_chemical_formula_sum "Si O2"
_cell_formula_units_Z 48
_cell_length_a 14.515980
_cell_length_b 17.064614
_cell_length_c 8.997235
_cell_angle_alpha 90.000000
_cell_angle_beta 90.000000
_cell_angle_gamma 90.000000
_cell_volume 2228.701443
_symmetry_space_group_name_H-M "C 2 2 21"
_symmetry_group_IT_number 20
_symmetry_cell_setting 'orthorhombic'
loop_
_space_group_symop_operation_xyz
x,y,z
-x,-y,1/2+z
x,-y,-z
-x,y,1/2-z
1/2+x,1/2+y,z
1/2-x,1/2-y,1/2+z
1/2+x,1/2-y,-z
1/2-x,1/2+y,1/2-z
loop_
_atom_site_type_symbol
_atom_site_label
_atom_site_fract_x
_atom_site_fract_y
_atom_site_fract_z
Si Si1 0.121762 0.084477 0.328965
Si Si2 0.000000 0.055132 0.750000
Si Si3 0.157672 0.628856 0.491107
Si Si4 0.393420 0.002396 0.224974
Si Si5 0.869509 0.856358 0.488065
Si Si6 0.519608 0.255078 0.585116
Si Si7 0.224878 0.500000 0.000000
O O1 0.068135 0.160105 0.390279
O O2 0.211895 0.066857 0.425354
O O3 0.130006 0.100023 0.150250
O O4 0.064633 0.004330 0.339590
O O5 0.069182 0.101614 0.860385
O O6 0.117258 0.565562 0.604954
O O7 0.155141 0.581053 0.337197
O O8 0.260989 0.649624 0.543233
O O9 0.088923 0.701694 0.493876
O O10 0.500000 0.019732 0.250000
O O11 0.341569 0.971831 0.369735
O O12 0.921555 0.774135 0.512172
O O13 0.500000 0.222017 0.750000
#
# Coordination Sequence:
#
# PCOD9320667 Si02
#       7
#     8   4   8   8   8   8   4
#     4  11  22  39  69 103 141 175 234 301 365 445
#     4  12  22  40  74 102 146 180 238 310 374 442
#     4  11  24  48  70  96 146 187 241 302 360 446
#     4  11  25  45  72 102 136 190 245 304 357 430
#     4  11  23  44  68 106 142 190 239 304 375 443
#     4  10  23  45  66  99 143 189 228 297 381 436
#     4  12  22  42  70 108 130 182 248 294 372 430
#
# _framework density 21.537203999999999
#
# number of rings (size 3 to 8) (size 9 to 14) (size 15 to 20)
#    0.000    1.000    4.167    4.000    2.333    0.000 
#   19.500    0.000    0.000    0.000    0.000    0.000 
#    0.000    0.000    0.000    0.000    0.000    0.000 
#
# Total GULP energy -134015.029388 kJ/mol
# GULP energy per Si atom -5583.959558 kJ/mol
# Density = 2.148818 g / cm^3
# Si number density = 21.537204 Si / 1000 Ang^3
#
#
#
# Elastic Constant Matrix: (Units=GPa)
#
#
# Indices 1 2 3 4 5 6 
#
# 1 154.1927 47.5384 38.9988 0.0000 0.0000 0.0000
# 2 47.5384 65.1828 27.4894 0.0000 0.0000 0.0000
# 3 38.9988 27.4894 94.2563 0.0000 0.0000 0.0000
# 4 0.0000 0.0000 0.0000 8.1346 0.0000 0.0000
# 5 0.0000 0.0000 0.0000 0.0000 40.2383 0.0000
# 6 0.0000 0.0000 0.0000 0.0000 0.0000 54.7761
#
#
#
# Elastic Compliance Matrix: (Units=1/GPa)
#
#
# Indices 1 2 3 4 5 6 
#
# 1 0.008682 -0.005493 -0.001990 0.000000 0.000000 0.000000
# 2 -0.005493 0.020968 -0.003843 0.000000 0.000000 0.000000
# 3 -0.001990 -0.003843 0.012554 0.000000 0.000000 0.000000
# 4 0.000000 0.000000 0.000000 0.122931 0.000000 0.000000
# 5 0.000000 0.000000 0.000000 0.000000 0.024852 0.000000
# 6 0.000000 0.000000 0.000000 0.000000 0.000000 0.018256
#
#
# Mechanical properties :
#
#
# Convention : Reuss Voigt Hill
#
# Bulk Modulus (GPa) = 51.14458 60.18722 55.66590
# Shear Modulus (GPa) = 21.06047 33.93682 27.49865
#
# Velocity S-wave (km/s) = 3.13048 3.97385 3.57711
# Velocity P-wave (km/s) = 6.07167 7.00441 6.55465
#
# Compressibility (1/GPa) = 0.01955241
#
# Stress axis : x y z
#
# Youngs Moduli (GPa) = 115.17821 47.69223 79.65866
#
# Poissons Ratio (x) = 0.26195 0.15855
# Poissons Ratio (y) = 0.63263 0.30609
# Poissons Ratio (z) = 0.22925 0.18326
#
# Static dielectric constant tensor:
#      x y z
#    x 1.811280 0.000000 0.000000 
#    y 0.000000 1.761810 0.000000 
#    z 0.000000 0.000000 1.790950 
# 
# From -- ./inp_files/8487.got.cif
#   From: 2010.05.17/outbox.cif.g08.bks.cpg/sg20_5_cif.got.tgz:8487.got - 2010.06.03 22:52:26.
