data_PCOD9320776
_publ_section_title
;
Structure prediction by ZEFSAII (Michael W. Deem and Ramdas Pophale) SiO2 
 PCOD9320776
Probable space group: C 2 2 21
;
_chemical_formula_sum "Si O2"
_cell_formula_units_Z 44
_cell_length_a 15.056409
_cell_length_b 18.147054
_cell_length_c 8.258075
_cell_angle_alpha 90.000000
_cell_angle_beta 90.000000
_cell_angle_gamma 90.000000
_cell_volume 2256.349432
_symmetry_space_group_name_H-M "C 2 2 21"
_symmetry_group_IT_number 20
_symmetry_cell_setting 'orthorhombic'
loop_
_space_group_symop_operation_xyz
x,y,z
-x,-y,1/2+z
x,-y,-z
-x,y,1/2-z
1/2+x,1/2+y,z
1/2-x,1/2-y,1/2+z
1/2+x,1/2-y,-z
1/2-x,1/2+y,1/2-z
loop_
_atom_site_type_symbol
_atom_site_label
_atom_site_fract_x
_atom_site_fract_y
_atom_site_fract_z
Si Si1 0.812083 0.175476 0.436423
Si Si2 0.192912 0.679621 0.729143
Si Si3 0.137065 0.893763 0.383023
Si Si4 0.000000 0.679768 0.750000
Si Si5 0.490050 0.267722 0.417895
Si Si6 0.895087 0.048965 0.238493
O O1 0.810332 0.235684 0.292266
O O2 0.723189 0.175745 0.542545
O O3 0.890273 0.203277 0.555888
O O4 0.841675 0.096457 0.368965
O O5 0.269866 0.640855 0.831901
O O6 0.096811 0.643332 0.761998
O O7 0.139823 0.925532 0.564049
O O8 0.059004 0.833976 0.392871
O O9 0.114977 0.960862 0.260797
O O10 0.010627 0.727352 0.585904
O O11 0.500000 0.222840 0.250000
O O12 0.000000 0.066965 0.250000
#
# Coordination Sequence:
#
# PCOD9320776 Si02
#       6
#     8   8   8   4   8   8
#     4  11  22  36  61  89 126 168 212 256 322 389
#     4  11  23  38  59  85 124 167 217 264 314 370
#     4  11  22  38  58  91 131 167 202 256 324 400
#     4  10  24  40  60  84 126 166 224 274 302 354
#     4  11  19  36  58  90 124 163 197 255 321 391
#     4  11  23  37  62  93 135 164 199 259 340 402
#
# _framework density 19.500527000000002
#
# number of rings (size 3 to 8) (size 9 to 14) (size 15 to 20)
#    0.000    1.091    3.636    4.909    1.273    0.727 
#    0.000    0.000    0.000    4.364    0.000    0.000 
#    0.000    0.000    0.000    0.000    0.000    0.000 
#
# Total GULP energy -122829.534023 kJ/mol
# GULP energy per Si atom -5583.160637 kJ/mol
# Density = 1.945614 g / cm^3
# Si number density = 19.500527 Si / 1000 Ang^3
#
#
#
# Elastic Constant Matrix: (Units=GPa)
#
#
# Indices 1 2 3 4 5 6 
#
# 1 137.7966 29.1452 24.0068 0.0000 0.0000 0.0000
# 2 29.1452 43.4698 22.4723 0.0000 0.0000 0.0000
# 3 24.0068 22.4723 114.3913 0.0000 0.0000 0.0000
# 4 0.0000 0.0000 0.0000 16.3292 0.0000 0.0000
# 5 0.0000 0.0000 0.0000 0.0000 40.2300 0.0000
# 6 0.0000 0.0000 0.0000 0.0000 0.0000 22.4668
#
#
#
# Elastic Compliance Matrix: (Units=1/GPa)
#
#
# Indices 1 2 3 4 5 6 
#
# 1 0.008512 -0.005324 -0.000740 0.000000 0.000000 0.000000
# 2 -0.005324 0.028935 -0.004567 0.000000 0.000000 0.000000
# 3 -0.000740 -0.004567 0.009794 0.000000 0.000000 0.000000
# 4 0.000000 0.000000 0.000000 0.061240 0.000000 0.000000
# 5 0.000000 0.000000 0.000000 0.000000 0.024857 0.000000
# 6 0.000000 0.000000 0.000000 0.000000 0.000000 0.044510
#
#
# Mechanical properties :
#
#
# Convention : Reuss Voigt Hill
#
# Bulk Modulus (GPa) = 38.49353 49.65625 44.07489
# Shear Modulus (GPa) = 24.06483 30.47411 27.26947
#
# Velocity S-wave (km/s) = 3.51673 3.95743 3.74357
# Velocity P-wave (km/s) = 6.02266 6.81183 6.42936
#
# Compressibility (1/GPa) = 0.02597839
#
# Stress axis : x y z
#
# Youngs Moduli (GPa) = 117.47795 34.55990 102.09813
#
# Poissons Ratio (x) = 0.18401 0.07560
# Poissons Ratio (y) = 0.62550 0.46628
# Poissons Ratio (z) = 0.08699 0.15783
#
# Static dielectric constant tensor:
#      x y z
#    x 1.704330 0.000000 0.000000 
#    y 0.000000 1.695700 0.000000 
#    z 0.000000 0.000000 1.767950 
# 
# From -- ./inp_files/8295.got.cif
#   From: 2010.05.17/outbox.cif.g08.bks.cpg/sg20_5_cif.got.tgz:8295.got - 2010.06.03 22:52:26.
