data_PCOD9320639
_publ_section_title
;
Structure prediction by ZEFSAII (Michael W. Deem and Ramdas Pophale) SiO2 
 PCOD9320639
Probable space group: C 2 2 21
;
_chemical_formula_sum "Si O2"
_cell_formula_units_Z 56
_cell_length_a 16.133374
_cell_length_b 7.674670
_cell_length_c 19.531806
_cell_angle_alpha 90.000000
_cell_angle_beta 90.000000
_cell_angle_gamma 90.000000
_cell_volume 2418.395434
_symmetry_space_group_name_H-M "C 2 2 21"
_symmetry_group_IT_number 20
_symmetry_cell_setting 'orthorhombic'
loop_
_space_group_symop_operation_xyz
x,y,z
-x,-y,1/2+z
x,-y,-z
-x,y,1/2-z
1/2+x,1/2+y,z
1/2-x,1/2-y,1/2+z
1/2+x,1/2-y,-z
1/2-x,1/2+y,1/2-z
loop_
_atom_site_type_symbol
_atom_site_label
_atom_site_fract_x
_atom_site_fract_y
_atom_site_fract_z
Si Si1 0.056598 0.476235 0.682341
Si Si2 0.482999 0.500000 0.500000
Si Si3 0.719176 0.000000 0.500000
Si Si4 0.748473 0.464996 0.355848
Si Si5 0.889745 0.781173 0.076368
Si Si6 0.643239 0.600234 0.899261
Si Si7 0.235968 0.651584 0.708832
Si Si8 0.918984 0.510049 0.419084
O O1 0.075724 0.288672 0.648644
O O2 0.144605 0.570243 0.696234
O O3 0.000000 0.467353 0.750000
O O4 0.997604 0.558509 0.623421
O O5 0.541827 0.656281 0.523092
O O6 0.422272 0.529156 0.435141
O O7 0.662747 0.123783 0.454662
O O8 0.779606 0.111609 0.548209
O O9 0.672458 0.435955 0.406245
O O10 0.746763 0.343504 0.289167
O O11 0.743167 0.658031 0.324539
O O12 0.832941 0.424629 0.395933
O O13 0.687862 0.551236 0.828763
O O14 0.598690 0.787717 0.897522
O O15 0.930716 0.500000 0.500000
#
# Coordination Sequence:
#
# PCOD9320639 Si02
#       8
#     8   4   4   8   8   8   8   8
#     4  12  25  48  73 104 145 186 242 302 362 435
#     4  11  26  44  62 109 142 180 243 296 360 424
#     4  11  24  44  72  99 142 190 233 292 364 428
#     4  11  26  46  74 105 143 189 244 292 363 445
#     4  12  27  43  72 104 144 190 235 303 361 426
#     4  10  23  44  69  98 144 186 234 290 357 435
#     4  11  24  47  74 102 139 193 241 292 364 437
#     4  11  24  43  73 106 144 187 241 304 367 429
#
# _framework density 23.155849
#
# number of rings (size 3 to 8) (size 9 to 14) (size 15 to 20)
#    0.000    0.857    4.286    1.714    8.000    1.143 
#    0.000    3.571    0.000    0.000    0.000    0.000 
#    0.000    0.000    0.000    0.000    0.000    0.000 
#
# Total GULP energy -156571.804899 kJ/mol
# GULP energy per Si atom -5591.850175 kJ/mol
# Density = 2.310315 g / cm^3
# Si number density = 23.155849 Si / 1000 Ang^3
#
#
#
# Elastic Constant Matrix: (Units=GPa)
#
#
# Indices 1 2 3 4 5 6 
#
# 1 150.6050 25.4448 49.8303 0.0000 0.0000 0.0000
# 2 25.4448 53.6325 8.8107 0.0000 0.0000 0.0000
# 3 49.8303 8.8107 118.0355 0.0000 0.0000 0.0000
# 4 0.0000 0.0000 0.0000 38.5076 0.0000 0.0000
# 5 0.0000 0.0000 0.0000 0.0000 52.6322 0.0000
# 6 0.0000 0.0000 0.0000 0.0000 0.0000 26.8666
#
#
#
# Elastic Compliance Matrix: (Units=1/GPa)
#
#
# Indices 1 2 3 4 5 6 
#
# 1 0.008288 -0.003399 -0.003245 0.000000 0.000000 0.000000
# 2 -0.003399 0.020271 -0.000078 0.000000 0.000000 0.000000
# 3 -0.003245 -0.000078 0.009848 0.000000 0.000000 0.000000
# 4 0.000000 0.000000 0.000000 0.025969 0.000000 0.000000
# 5 0.000000 0.000000 0.000000 0.000000 0.019000 0.000000
# 6 0.000000 0.000000 0.000000 0.000000 0.000000 0.037221
#
#
# Mechanical properties :
#
#
# Convention : Reuss Voigt Hill
#
# Bulk Modulus (GPa) = 40.06085 54.49386 47.27735
# Shear Modulus (GPa) = 35.12192 39.48042 37.30117
#
# Velocity S-wave (km/s) = 3.89879 4.13363 4.01792
# Velocity P-wave (km/s) = 6.13233 6.80934 6.47968
#
# Compressibility (1/GPa) = 0.02496203
#
# Stress axis : x y z
#
# Youngs Moduli (GPa) = 120.65886 49.33203 101.54523
#
# Poissons Ratio (x) = 0.16767 0.32953
# Poissons Ratio (y) = 0.41011 0.00794
# Poissons Ratio (z) = 0.39155 0.00386
#
# Static dielectric constant tensor:
#      x y z
#    x 1.881550 0.000000 0.000000 
#    y 0.000000 1.908020 0.000000 
#    z 0.000000 0.000000 1.877930 
# 
# From -- ./inp_files/27619.got.cif
#   From: 2010.05.17/outbox.cif.g08.bks.cpg/sg20_14_cif.got.tgz:27619.got - 2010.06.03 22:52:26.
