data_PCOD9320855
_publ_section_title
;
Structure prediction by ZEFSAII (Michael W. Deem and Ramdas Pophale) SiO2 
 PCOD9320855
Probable space group: C 2 2 21
;
_chemical_formula_sum "Si O2"
_cell_formula_units_Z 40
_cell_length_a 12.495701
_cell_length_b 18.289964
_cell_length_c 7.410480
_cell_angle_alpha 90.000000
_cell_angle_beta 90.000000
_cell_angle_gamma 90.000000
_cell_volume 1693.634980
_symmetry_space_group_name_H-M "C 2 2 21"
_symmetry_group_IT_number 20
_symmetry_cell_setting 'orthorhombic'
loop_
_space_group_symop_operation_xyz
x,y,z
-x,-y,1/2+z
x,-y,-z
-x,y,1/2-z
1/2+x,1/2+y,z
1/2-x,1/2-y,1/2+z
1/2+x,1/2-y,-z
1/2-x,1/2+y,1/2-z
loop_
_atom_site_type_symbol
_atom_site_label
_atom_site_fract_x
_atom_site_fract_y
_atom_site_fract_z
Si Si1 0.657658 0.494309 0.704490
Si Si2 0.073030 0.135967 0.911782
Si Si3 0.382140 0.038309 0.809056
Si Si4 0.221888 0.685479 0.762463
Si Si5 0.363448 0.663927 0.131934
O O1 0.612175 0.500000 0.500000
O O2 0.604622 0.552798 0.840992
O O3 0.782273 0.511920 0.693008
O O4 0.654535 0.409090 0.752134
O O5 0.184761 0.177410 0.887653
O O6 0.000000 0.166183 0.750000
O O7 0.985455 0.153067 0.064611
O O8 0.500000 0.016852 0.750000
O O9 0.366182 0.125158 0.793079
O O10 0.362678 0.000000 0.000000
O O11 0.167115 0.763661 0.739648
O O12 0.282908 0.666341 0.953601
#
# Coordination Sequence:
#
# PCOD9320855 Si02
#       5
#     8   8   8   8   8
#     4  11  20  44  74  99 139 185 245 310 348 433
#     4   9  19  42  64 101 135 183 236 297 359 439
#     4  11  25  45  71 103 137 190 242 294 359 441
#     4  10  24  43  68  98 151 179 246 295 364 447
#     4  11  23  45  68 106 143 191 237 311 372 430
#
# _framework density 23.617840999999999
#
# number of rings (size 3 to 8) (size 9 to 14) (size 15 to 20)
#    0.000    1.600    6.000    0.600    2.800    1.600 
#   21.600    1.000    0.000    0.000    0.000    0.000 
#    0.000    0.000    0.000    0.000    0.000    0.000 
#
# Total GULP energy -111543.363908 kJ/mol
# GULP energy per Si atom -5577.168195 kJ/mol
# Density = 2.356409 g / cm^3
# Si number density = 23.617841 Si / 1000 Ang^3
#
#
#
# Elastic Constant Matrix: (Units=GPa)
#
#
# Indices 1 2 3 4 5 6 
#
# 1 157.2167 54.9659 32.1129 0.0000 0.0000 0.0000
# 2 54.9659 179.9219 37.3215 0.0000 0.0000 0.0000
# 3 32.1129 37.3215 134.9460 0.0000 0.0000 0.0000
# 4 0.0000 0.0000 0.0000 34.9033 0.0000 0.0000
# 5 0.0000 0.0000 0.0000 0.0000 35.3314 0.0000
# 6 0.0000 0.0000 0.0000 0.0000 0.0000 -2.3152
#
#
#
# Elastic Compliance Matrix: (Units=1/GPa)
#
#
# Indices 1 2 3 4 5 6 
#
# 1 0.007296 -0.001983 -0.001188 0.000000 0.000000 0.000000
# 2 -0.001983 0.006435 -0.001308 0.000000 0.000000 0.000000
# 3 -0.001188 -0.001308 0.008055 0.000000 0.000000 0.000000
# 4 0.000000 0.000000 0.000000 0.028651 0.000000 0.000000
# 5 0.000000 0.000000 0.000000 0.000000 0.028303 0.000000
# 6 0.000000 0.000000 0.000000 0.000000 0.000000 -0.431921
#
#
# Mechanical properties :
#
#
# Convention : Reuss Voigt Hill
#
# Bulk Modulus (GPa) = 77.94730 80.09835 79.02283
# Shear Modulus (GPa) = -14.70815 36.76285 11.02735
#
# Velocity S-wave (km/s) = -2.49822 3.94962 2.16315
# Velocity P-wave (km/s) = 4.97532 7.40184 6.30639
#
# Compressibility (1/GPa) = 0.01282918
#
# Stress axis : x y z
#
# Youngs Moduli (GPa) = 137.05251 155.40121 124.14966
#
# Poissons Ratio (x) = 0.30810 0.14749
# Poissons Ratio (y) = 0.27172 0.16237
# Poissons Ratio (z) = 0.16282 0.20325
#
# Static dielectric constant tensor:
#      x y z
#    x 1.853600 0.000000 0.000000 
#    y 0.000000 1.959590 0.000000 
#    z 0.000000 0.000000 2.219020 
# 
# From -- ./inp_files/7075.got.cif
#   From: 2010.05.17/outbox.cif.g08.bks.cpg/sg20_4_cif.got.tgz:7075.got - 2010.06.03 22:52:26.
