data_PCOD9320858
_publ_section_title
;
Structure prediction by ZEFSAII (Michael W. Deem and Ramdas Pophale) SiO2 
 PCOD9320858
Probable space group: C 2 2 21
;
_chemical_formula_sum "Si O2"
_cell_formula_units_Z 44
_cell_length_a 14.339432
_cell_length_b 14.277498
_cell_length_c 7.892002
_cell_angle_alpha 90.000000
_cell_angle_beta 90.000000
_cell_angle_gamma 90.000000
_cell_volume 1615.739132
_symmetry_space_group_name_H-M "C 2 2 21"
_symmetry_group_IT_number 20
_symmetry_cell_setting 'orthorhombic'
loop_
_space_group_symop_operation_xyz
x,y,z
-x,-y,1/2+z
x,-y,-z
-x,y,1/2-z
1/2+x,1/2+y,z
1/2-x,1/2-y,1/2+z
1/2+x,1/2-y,-z
1/2-x,1/2+y,1/2-z
loop_
_atom_site_type_symbol
_atom_site_label
_atom_site_fract_x
_atom_site_fract_y
_atom_site_fract_z
Si Si1 0.956480 0.798388 0.559919
Si Si2 0.616737 0.172306 0.514891
Si Si3 0.257318 0.254405 0.686114
Si Si4 0.313763 0.438744 0.155489
Si Si5 0.396845 0.500000 0.500000
Si Si6 0.000000 0.473852 0.250000
Si Si7 0.635320 0.000000 0.000000
O O1 0.849728 0.764540 0.567914
O O2 0.000000 0.798032 0.750000
O O3 0.026184 0.731229 0.463195
O O4 0.955485 0.905086 0.500698
O O5 0.686815 0.233920 0.638318
O O6 0.691263 0.156286 0.362330
O O7 0.568028 0.090820 0.631116
O O8 0.178873 0.171958 0.676632
O O9 0.337514 0.491316 0.327905
O O10 0.204868 0.435797 0.102146
O O11 0.354392 0.500000 0.000000
O O12 0.934843 0.538060 0.362442
#
# Coordination Sequence:
#
# PCOD9320858 Si02
#       7
#     8   8   8   8   4   4   4
#     4  10  24  43  73 105 146 198 244 313 380 447
#     4  11  22  45  74  98 149 196 248 315 372 462
#     4  11  22  45  73 103 144 197 243 313 376 448
#     4  10  24  44  73 112 145 195 261 307 380 457
#     4  12  26  47  77 110 152 206 246 324 392 444
#     4  12  22  50  68 106 156 194 252 322 394 448
#     4  10  24  43  69 104 152 194 242 334 372 466
#
# _framework density 27.232116999999999
#
# number of rings (size 3 to 8) (size 9 to 14) (size 15 to 20)
#    0.545    0.727    4.545    1.091    5.091    2.182 
#    3.273    2.727    0.000    0.000    0.000    0.000 
#    0.000    0.000    0.000    0.000    0.000    0.000 
#
# Total GULP energy -122616.896810 kJ/mol
# GULP energy per Si atom -5573.495310 kJ/mol
# Density = 2.717014 g / cm^3
# Si number density = 27.232117 Si / 1000 Ang^3
#
#
#
# Elastic Constant Matrix: (Units=GPa)
#
#
# Indices 1 2 3 4 5 6 
#
# 1 169.3256 55.4913 57.1065 0.0000 0.0000 0.0000
# 2 55.4913 98.2702 38.8471 0.0000 0.0000 0.0000
# 3 57.1065 38.8471 116.0497 0.0000 0.0000 0.0000
# 4 0.0000 0.0000 0.0000 35.6904 0.0000 0.0000
# 5 0.0000 0.0000 0.0000 0.0000 60.3940 0.0000
# 6 0.0000 0.0000 0.0000 0.0000 0.0000 -64.2860
#
#
#
# Elastic Compliance Matrix: (Units=1/GPa)
#
#
# Indices 1 2 3 4 5 6 
#
# 1 0.007955 -0.003394 -0.002779 0.000000 0.000000 0.000000
# 2 -0.003394 0.013176 -0.002741 0.000000 0.000000 0.000000
# 3 -0.002779 -0.002741 0.010902 0.000000 0.000000 0.000000
# 4 0.000000 0.000000 0.000000 0.028019 0.000000 0.000000
# 5 0.000000 0.000000 0.000000 0.000000 0.016558 0.000000
# 6 0.000000 0.000000 0.000000 0.000000 0.000000 -0.015555
#
#
# Mechanical properties :
#
#
# Convention : Reuss Voigt Hill
#
# Bulk Modulus (GPa) = 70.38824 76.28169 73.33496
# Shear Modulus (GPa) = 59.79807 21.83972 40.81889
#
# Velocity S-wave (km/s) = 4.69109 2.83500 3.87580
# Velocity P-wave (km/s) = 7.43272 6.22807 6.85690
#
# Compressibility (1/GPa) = 0.01420692
#
# Stress axis : x y z
#
# Youngs Moduli (GPa) = 125.70644 75.89721 91.72906
#
# Poissons Ratio (x) = 0.25757 0.25487
# Poissons Ratio (y) = 0.42661 0.25139
# Poissons Ratio (z) = 0.34928 0.20800
#
# Static dielectric constant tensor:
#      x y z
#    x 2.101810 0.000000 0.000000 
#    y 0.000000 2.079030 0.000000 
#    z 0.000000 0.000000 2.291900 
# 
# From -- ./inp_files/8341.got.cif
#   From: 2010.05.17/outbox.cif.g08.bks.cpg/sg20_5_cif.got.tgz:8341.got - 2010.06.03 22:52:26.
