data_PCOD9320367
_publ_section_title
;
Structure prediction by ZEFSAII (Michael W. Deem and Ramdas Pophale) SiO2 
 PCOD9320367
Probable space group: C 2 2 21
;
_chemical_formula_sum "Si O2"
_cell_formula_units_Z 60
_cell_length_a 19.167531
_cell_length_b 6.851742
_cell_length_c 23.465421
_cell_angle_alpha 90.000000
_cell_angle_beta 90.000000
_cell_angle_gamma 90.000000
_cell_volume 3081.736670
_symmetry_space_group_name_H-M "C 2 2 21"
_symmetry_group_IT_number 20
_symmetry_cell_setting 'orthorhombic'
loop_
_space_group_symop_operation_xyz
x,y,z
-x,-y,1/2+z
x,-y,-z
-x,y,1/2-z
1/2+x,1/2+y,z
1/2-x,1/2-y,1/2+z
1/2+x,1/2-y,-z
1/2-x,1/2+y,1/2-z
loop_
_atom_site_type_symbol
_atom_site_label
_atom_site_fract_x
_atom_site_fract_y
_atom_site_fract_z
Si Si1 0.362625 0.251408 0.355784
Si Si2 0.027789 0.102158 0.141015
Si Si3 0.362347 0.909764 0.771101
Si Si4 0.000000 0.357262 0.250000
Si Si5 0.389987 0.076916 0.064013
Si Si6 0.048803 0.529094 0.932776
Si Si7 0.627697 0.571642 0.635670
Si Si8 0.707559 0.176906 0.645437
O O1 0.418974 0.424152 0.354587
O O2 0.352240 0.158385 0.293323
O O3 0.287448 0.333955 0.372889
O O4 0.393495 0.087600 0.397431
O O5 0.030159 0.226696 0.199160
O O6 0.045611 0.248041 0.089060
O O7 0.949028 0.023418 0.135862
O O8 0.363873 0.724186 0.812697
O O9 0.437963 0.011560 0.774328
O O10 0.306769 0.067609 0.794478
O O11 0.366410 0.296968 0.078579
O O12 0.471644 0.057689 0.080260
O O13 0.343569 0.936983 0.102894
O O14 0.383718 0.000000 0.000000
O O15 0.060175 0.500000 0.000000
O O16 0.682868 0.400073 0.644236
#
# Coordination Sequence:
#
# PCOD9320367 Si02
#       8
#     8   8   8   4   8   8   8   8
#     4  12  27  43  66 102 139 178 219 275 350 399
#     4  12  22  41  70  98 129 177 223 272 337 400
#     4  11  24  39  67  97 140 169 220 279 328 405
#     4  12  20  40  70  98 132 172 230 280 322 402
#     4  10  22  46  71  96 128 172 233 283 320 390
#     4  11  24  46  70  99 134 173 231 284 328 398
#     4  11  21  42  69  97 128 172 223 265 335 396
#     4  11  26  44  64 101 135 175 219 274 336 405
#
# _framework density 19.469541
#
# number of rings (size 3 to 8) (size 9 to 14) (size 15 to 20)
#    0.000    0.800    5.333    2.400    1.867    3.200 
#    4.800    0.000    0.000    0.000    0.000    0.000 
#    0.000    0.000    0.000    0.000    0.000    0.000 
#
# Total GULP energy -167717.184988 kJ/mol
# GULP energy per Si atom -5590.572833 kJ/mol
# Density = 1.942523 g / cm^3
# Si number density = 19.469541 Si / 1000 Ang^3
#
#
#
# Elastic Constant Matrix: (Units=GPa)
#
#
# Indices 1 2 3 4 5 6 
#
# 1 62.1442 -5.1508 8.3427 0.0000 0.0000 0.0000
# 2 -5.1508 77.3148 20.5228 0.0000 0.0000 0.0000
# 3 8.3427 20.5228 102.9549 0.0000 0.0000 0.0000
# 4 0.0000 0.0000 0.0000 16.3684 0.0000 0.0000
# 5 0.0000 0.0000 0.0000 0.0000 9.7964 0.0000
# 6 0.0000 0.0000 0.0000 0.0000 0.0000 21.6104
#
#
#
# Elastic Compliance Matrix: (Units=1/GPa)
#
#
# Indices 1 2 3 4 5 6 
#
# 1 0.016438 0.001530 -0.001637 0.000000 0.000000 0.000000
# 2 0.001530 0.013799 -0.002875 0.000000 0.000000 0.000000
# 3 -0.001637 -0.002875 0.010419 0.000000 0.000000 0.000000
# 4 0.000000 0.000000 0.000000 0.061093 0.000000 0.000000
# 5 0.000000 0.000000 0.000000 0.000000 0.102078 0.000000
# 6 0.000000 0.000000 0.000000 0.000000 0.000000 0.046274
#
#
# Mechanical properties :
#
#
# Convention : Reuss Voigt Hill
#
# Bulk Modulus (GPa) = 28.82505 32.20481 30.51493
# Shear Modulus (GPa) = 18.68256 24.13500 21.40878
#
# Velocity S-wave (km/s) = 3.10107 3.52466 3.31962
# Velocity P-wave (km/s) = 5.25923 5.75685 5.51366
#
# Compressibility (1/GPa) = 0.03469205
#
# Stress axis : x y z
#
# Youngs Moduli (GPa) = 60.83410 72.46854 95.98164
#
# Poissons Ratio (x) = -0.11085 0.15712
# Poissons Ratio (y) = -0.09305 0.27591
# Poissons Ratio (z) = 0.09958 0.20832
#
# Static dielectric constant tensor:
#      x y z
#    x 1.654020 0.000000 0.000000 
#    y 0.000000 1.684360 0.000000 
#    z 0.000000 0.000000 1.695010 
# 
# From -- ./inp_files/29553.got.cif
#   From: 2010.05.17/outbox.cif.g08.bks.cpg/sg20_15_cif.got.tgz:29553.got - 2010.06.03 22:52:26.
