data_PCOD9320352
_publ_section_title
;
Structure prediction by ZEFSAII (Michael W. Deem and Ramdas Pophale) SiO2 
 PCOD9320352
Probable space group: C 2 2 21
;
_chemical_formula_sum "Si O2"
_cell_formula_units_Z 48
_cell_length_a 13.365701
_cell_length_b 17.361229
_cell_length_c 9.178095
_cell_angle_alpha 90.000000
_cell_angle_beta 90.000000
_cell_angle_gamma 90.000000
_cell_volume 2129.731016
_symmetry_space_group_name_H-M "C 2 2 21"
_symmetry_group_IT_number 20
_symmetry_cell_setting 'orthorhombic'
loop_
_space_group_symop_operation_xyz
x,y,z
-x,-y,1/2+z
x,-y,-z
-x,y,1/2-z
1/2+x,1/2+y,z
1/2-x,1/2-y,1/2+z
1/2+x,1/2-y,-z
1/2-x,1/2+y,1/2-z
loop_
_atom_site_type_symbol
_atom_site_label
_atom_site_fract_x
_atom_site_fract_y
_atom_site_fract_z
Si Si1 0.222023 0.247211 0.886210
Si Si2 0.265195 0.141662 0.113922
Si Si3 0.881453 0.515106 0.268649
Si Si4 0.579405 0.455498 0.864768
Si Si5 0.697518 0.888800 0.046523
Si Si6 0.380997 0.392238 0.220627
O O1 0.248977 0.308519 0.761286
O O2 0.159979 0.182793 0.801761
O O3 0.299135 0.197668 0.983727
O O4 0.169155 0.301137 0.008392
O O5 0.335318 0.067835 0.140565
O O6 0.155910 0.107460 0.079842
O O7 0.844176 0.562411 0.411343
O O8 0.845212 0.428431 0.306956
O O9 0.000000 0.514914 0.250000
O O10 0.500000 0.425192 0.750000
O O11 0.642104 0.522771 0.784472
O O12 0.528959 0.500000 0.000000
O O13 0.818681 0.890741 0.068612
O O14 0.500000 0.388618 0.250000
#
# Coordination Sequence:
#
# PCOD9320352 Si02
#       6
#     8   8   8   8   8   8
#     4  11  23  43  68 101 144 190 226 305 376 431
#     4  11  23  44  67 100 146 181 243 298 369 430
#     4  10  23  46  73  99 132 199 249 298 361 438
#     4  11  24  43  70 105 139 188 248 301 365 445
#     4  10  22  46  68 105 142 181 243 315 364 431
#     4  11  23  43  73 102 139 190 240 297 378 446
#
# _framework density 22.538056000000001
#
# number of rings (size 3 to 8) (size 9 to 14) (size 15 to 20)
#    0.000    1.333    5.000    0.000    0.000    8.000 
#    9.000    0.833    0.000    0.000    0.000    0.000 
#    0.000    0.000    0.000    0.000    0.000    0.000 
#
# Total GULP energy -133642.471484 kJ/mol
# GULP energy per Si atom -5568.436312 kJ/mol
# Density = 2.248676 g / cm^3
# Si number density = 22.538056 Si / 1000 Ang^3
#
#
#
# Elastic Constant Matrix: (Units=GPa)
#
#
# Indices 1 2 3 4 5 6 
#
# 1 95.8811 11.1525 29.9566 0.0000 0.0000 0.0000
# 2 11.1525 101.8585 15.9882 0.0000 0.0000 0.0000
# 3 29.9566 15.9882 62.4126 0.0000 0.0000 0.0000
# 4 0.0000 0.0000 0.0000 58.4289 0.0000 0.0000
# 5 0.0000 0.0000 0.0000 0.0000 23.0014 0.0000
# 6 0.0000 0.0000 0.0000 0.0000 0.0000 -72.3288
#
#
#
# Elastic Compliance Matrix: (Units=1/GPa)
#
#
# Indices 1 2 3 4 5 6 
#
# 1 0.012288 -0.000437 -0.005786 0.000000 0.000000 0.000000
# 2 -0.000437 0.010244 -0.002414 0.000000 0.000000 0.000000
# 3 -0.005786 -0.002414 0.019418 0.000000 0.000000 0.000000
# 4 0.000000 0.000000 0.000000 0.017115 0.000000 0.000000
# 5 0.000000 0.000000 0.000000 0.000000 0.043476 0.000000
# 6 0.000000 0.000000 0.000000 0.000000 0.000000 -0.013826
#
#
# Mechanical properties :
#
#
# Convention : Reuss Voigt Hill
#
# Bulk Modulus (GPa) = 40.52646 41.59410 41.06028
# Shear Modulus (GPa) = 43.77675 15.35730 29.56703
#
# Velocity S-wave (km/s) = 4.41199 2.61318 3.62591
# Velocity P-wave (km/s) = 6.63133 5.25358 5.98225
#
# Compressibility (1/GPa) = 0.02467524
#
# Stress axis : x y z
#
# Youngs Moduli (GPa) = 81.37887 97.61429 51.49838
#
# Poissons Ratio (x) = 0.04268 0.29797
# Poissons Ratio (y) = 0.03558 0.12434
# Poissons Ratio (z) = 0.47086 0.23568
#
# Static dielectric constant tensor:
#      x y z
#    x 1.810480 0.000000 0.000000 
#    y 0.000000 1.859530 0.000000 
#    z 0.000000 0.000000 1.945380 
# 
# From -- ./inp_files/8454.got.cif
#   From: 2010.05.17/outbox.cif.g08.bks.cpg/sg20_5_cif.got.tgz:8454.got - 2010.06.03 22:52:26.
