data_PCOD9320973
_publ_section_title
;
Structure prediction by ZEFSAII (Michael W. Deem and Ramdas Pophale) SiO2 
 PCOD9320973
Probable space group: C 2 2 21
;
_chemical_formula_sum "Si O2"
_cell_formula_units_Z 60
_cell_length_a 25.416826
_cell_length_b 19.296261
_cell_length_c 5.780742
_cell_angle_alpha 90.000000
_cell_angle_beta 90.000000
_cell_angle_gamma 90.000000
_cell_volume 2835.163228
_symmetry_space_group_name_H-M "C 2 2 21"
_symmetry_group_IT_number 20
_symmetry_cell_setting 'orthorhombic'
loop_
_space_group_symop_operation_xyz
x,y,z
-x,-y,1/2+z
x,-y,-z
-x,y,1/2-z
1/2+x,1/2+y,z
1/2-x,1/2-y,1/2+z
1/2+x,1/2-y,-z
1/2-x,1/2+y,1/2-z
loop_
_atom_site_type_symbol
_atom_site_label
_atom_site_fract_x
_atom_site_fract_y
_atom_site_fract_z
Si Si1 0.287758 0.802280 0.835913
Si Si2 0.200493 0.940857 0.152939
Si Si3 0.882669 0.000000 0.000000
Si Si4 0.970959 0.114888 0.998793
Si Si5 0.671162 0.297069 0.983563
Si Si6 0.971672 0.720950 0.003838
Si Si7 0.801294 0.581433 0.540083
Si Si8 0.629634 0.821050 0.290434
O O1 0.321118 0.739583 0.729070
O O2 0.227396 0.782899 0.864158
O O3 0.290526 0.870388 0.680216
O O4 0.316516 0.818714 0.069585
O O5 0.247064 0.911130 0.311559
O O6 0.156319 0.982442 0.291799
O O7 0.170794 0.878957 0.017864
O O8 0.227295 0.000000 0.000000
O O9 0.920025 0.066652 0.021581
O O10 0.959735 0.196781 0.976203
O O11 0.000000 0.105710 0.250000
O O12 0.000000 0.096000 0.750000
O O13 0.627418 0.251612 0.853448
O O14 0.918557 0.677595 0.964736
O O15 0.000000 0.712090 0.750000
O O16 0.000000 0.702849 0.250000
O O17 0.806679 0.500000 0.500000
O O18 0.856669 0.613203 0.632922
#
# Coordination Sequence:
#
# PCOD9320973 Si02
#       8
#     8   8   4   8   8   8   8   8
#     4  11  21  38  64  95 129 180 222 280 334 423
#     4  12  27  39  58  94 144 190 229 286 334 416
#     4  12  28  38  62  96 130 192 240 284 344 398
#     4  10  24  46  70  92 133 183 242 306 355 407
#     4  11  22  37  60  93 139 173 236 280 339 414
#     4  10  25  46  72 104 136 174 236 305 363 419
#     4  11  24  42  62  96 140 178 229 266 355 442
#     4  11  25  39  71  97 131 186 223 295 364 426
#
# _framework density 21.162803
#
# number of rings (size 3 to 8) (size 9 to 14) (size 15 to 20)
#    0.000    1.067    3.333    2.000    9.333    1.067 
#    0.000    0.000    0.000    0.000    3.467    0.000 
#    0.000    0.000    0.000    0.000    0.000    0.000 
#
# Total GULP energy -167276.822722 kJ/mol
# GULP energy per Si atom -5575.894091 kJ/mol
# Density = 2.111464 g / cm^3
# Si number density = 21.162803 Si / 1000 Ang^3
#
#
#
# Elastic Constant Matrix: (Units=GPa)
#
#
# Indices 1 2 3 4 5 6 
#
# 1 81.4402 26.0949 31.7373 0.0000 0.0000 0.0000
# 2 26.0949 65.0809 18.9696 0.0000 0.0000 0.0000
# 3 31.7373 18.9696 72.0583 0.0000 0.0000 0.0000
# 4 0.0000 0.0000 0.0000 84.5975 0.0000 0.0000
# 5 0.0000 0.0000 0.0000 0.0000 29.5790 0.0000
# 6 0.0000 0.0000 0.0000 0.0000 0.0000 21.4828
#
#
#
# Elastic Compliance Matrix: (Units=1/GPa)
#
#
# Indices 1 2 3 4 5 6 
#
# 1 0.016071 -0.004745 -0.005829 0.000000 0.000000 0.000000
# 2 -0.004745 0.018043 -0.002660 0.000000 0.000000 0.000000
# 3 -0.005829 -0.002660 0.017145 0.000000 0.000000 0.000000
# 4 0.000000 0.000000 0.000000 0.011821 0.000000 0.000000
# 5 0.000000 0.000000 0.000000 0.000000 0.033808 0.000000
# 6 0.000000 0.000000 0.000000 0.000000 0.000000 0.046549
#
#
# Mechanical properties :
#
#
# Convention : Reuss Voigt Hill
#
# Bulk Modulus (GPa) = 40.33663 41.35364 40.84514
# Shear Modulus (GPa) = 28.06326 36.58371 32.32348
#
# Velocity S-wave (km/s) = 3.64547 4.16225 3.91240
# Velocity P-wave (km/s) = 6.06801 6.53316 6.30488
#
# Compressibility (1/GPa) = 0.02479136
#
# Stress axis : x y z
#
# Youngs Moduli (GPa) = 62.22439 55.42222 58.32481
#
# Poissons Ratio (x) = 0.26296 0.33999
# Poissons Ratio (y) = 0.29524 0.15516
# Poissons Ratio (z) = 0.36272 0.14743
#
# Static dielectric constant tensor:
#      x y z
#    x 1.754240 0.000000 0.000000 
#    y 0.000000 1.764860 0.000000 
#    z 0.000000 0.000000 1.867160 
# 
# From -- ./inp_files/3823.got.cif
#   From: 2010.05.17/outbox.cif.g08.bks.cpg/sg20_2_cif.got.tgz:3823.got - 2010.06.03 22:52:26.
