data_PCOD9320451
_publ_section_title
;
Structure prediction by ZEFSAII (Michael W. Deem and Ramdas Pophale) SiO2 
 PCOD9320451
Probable space group: C 2 2 21
;
_chemical_formula_sum "Si O2"
_cell_formula_units_Z 64
_cell_length_a 8.574195
_cell_length_b 18.733869
_cell_length_c 18.717530
_cell_angle_alpha 90.000000
_cell_angle_beta 90.000000
_cell_angle_gamma 90.000000
_cell_volume 3006.556525
_symmetry_space_group_name_H-M "C 2 2 21"
_symmetry_group_IT_number 20
_symmetry_cell_setting 'orthorhombic'
loop_
_space_group_symop_operation_xyz
x,y,z
-x,-y,1/2+z
x,-y,-z
-x,y,1/2-z
1/2+x,1/2+y,z
1/2-x,1/2-y,1/2+z
1/2+x,1/2-y,-z
1/2-x,1/2+y,1/2-z
loop_
_atom_site_type_symbol
_atom_site_label
_atom_site_fract_x
_atom_site_fract_y
_atom_site_fract_z
Si Si1 0.099346 0.193563 0.677362
Si Si2 0.055778 0.821719 0.026269
Si Si3 0.495552 0.035062 0.577367
Si Si4 0.819526 0.969872 0.160520
Si Si5 0.561330 0.447969 0.938860
Si Si6 0.687973 0.846118 0.637661
Si Si7 0.427760 0.175562 0.988623
Si Si8 0.151747 0.482253 0.709882
O O1 0.175725 0.115155 0.674570
O O2 0.204587 0.264482 0.663333
O O3 0.000000 0.201715 0.750000
O O4 0.990356 0.189588 0.607727
O O5 0.242464 0.825987 0.024297
O O6 0.974574 0.891282 0.991504
O O7 0.999334 0.753291 0.982253
O O8 0.335225 0.011969 0.614619
O O9 0.492897 0.119029 0.562364
O O10 0.637747 0.015648 0.630788
O O11 0.512303 0.000000 0.500000
O O12 0.797193 0.001899 0.239876
O O13 0.960604 0.004745 0.115676
O O14 0.666269 0.391734 0.893884
O O15 0.634827 0.500000 0.000000
O O16 0.563662 0.846033 0.572497
O O17 0.633653 0.897863 0.700067
O O18 0.000000 0.512563 0.750000
#
# Coordination Sequence:
#
# PCOD9320451 Si02
#       8
#     8   8   8   8   8   8   8   8
#     4  11  25  45  69  97 141 190 229 293 367 446
#     4  10  24  42  66 102 136 181 239 296 361 425
#     4  11  23  40  70  99 134 184 236 303 363 429
#     4  11  26  41  69 102 144 183 241 299 363 438
#     4  11  23  41  69 105 137 176 239 307 351 420
#     4  10  23  42  68  92 135 176 232 278 360 427
#     4  10  23  40  69  97 134 178 230 300 352 422
#     4  10  23  43  62  96 133 177 231 281 354 434
#
# _framework density 21.286809999999999
#
# number of rings (size 3 to 8) (size 9 to 14) (size 15 to 20)
#    0.000    1.500    2.500    0.750   12.250    0.000 
#    4.500    0.000    2.750    0.000    0.000    0.000 
#    0.000    0.000    0.000    0.000    0.000    0.000 
#
# Total GULP energy -178406.636705 kJ/mol
# GULP energy per Si atom -5575.207397 kJ/mol
# Density = 2.123836 g / cm^3
# Si number density = 21.286810 Si / 1000 Ang^3
#
#
#
# Elastic Constant Matrix: (Units=GPa)
#
#
# Indices 1 2 3 4 5 6 
#
# 1 45.7254 17.7510 37.1263 0.0000 0.0000 0.0000
# 2 17.7510 151.2957 62.7549 0.0000 0.0000 0.0000
# 3 37.1263 62.7549 138.0827 0.0000 0.0000 0.0000
# 4 0.0000 0.0000 0.0000 39.3346 0.0000 0.0000
# 5 0.0000 0.0000 0.0000 0.0000 28.1982 0.0000
# 6 0.0000 0.0000 0.0000 0.0000 0.0000 28.4288
#
#
#
# Elastic Compliance Matrix: (Units=1/GPa)
#
#
# Indices 1 2 3 4 5 6 
#
# 1 0.027982 -0.000200 -0.007433 0.000000 0.000000 0.000000
# 2 -0.000200 0.008146 -0.003649 0.000000 0.000000 0.000000
# 3 -0.007433 -0.003649 0.010899 0.000000 0.000000 0.000000
# 4 0.000000 0.000000 0.000000 0.025423 0.000000 0.000000
# 5 0.000000 0.000000 0.000000 0.000000 0.035463 0.000000
# 6 0.000000 0.000000 0.000000 0.000000 0.000000 0.035176
#
#
# Mechanical properties :
#
#
# Convention : Reuss Voigt Hill
#
# Bulk Modulus (GPa) = 40.87527 63.37425 52.12476
# Shear Modulus (GPa) = 28.76764 33.69042 31.22903
#
# Velocity S-wave (km/s) = 3.68017 3.98262 3.83438
# Velocity P-wave (km/s) = 6.10754 7.14035 6.64404
#
# Compressibility (1/GPa) = 0.02446467
#
# Stress axis : x y z
#
# Youngs Moduli (GPa) = 35.73700 122.75371 91.75491
#
# Poissons Ratio (x) = 0.02457 0.68198
# Poissons Ratio (y) = 0.00715 0.33477
# Poissons Ratio (z) = 0.26562 0.44787
#
# Static dielectric constant tensor:
#      x y z
#    x 1.810210 0.000000 0.000000 
#    y 0.000000 1.810940 0.000000 
#    z 0.000000 0.000000 1.844880 
# 
# From -- ./inp_files/23918.got.cif
#   From: 2010.05.17/outbox.cif.g08.bks.cpg/sg20_12_cif.got.tgz:23918.got - 2010.06.03 22:52:26.
