data_PCOD9320547
_publ_section_title
;
Structure prediction by ZEFSAII (Michael W. Deem and Ramdas Pophale) SiO2 
 PCOD9320547
Probable space group: C 2 2 21
;
_chemical_formula_sum "Si O2"
_cell_formula_units_Z 32
_cell_length_a 8.390895
_cell_length_b 29.822033
_cell_length_c 4.982892
_cell_angle_alpha 90.000000
_cell_angle_beta 90.000000
_cell_angle_gamma 90.000000
_cell_volume 1246.886742
_symmetry_space_group_name_H-M "C 2 2 21"
_symmetry_group_IT_number 20
_symmetry_cell_setting 'orthorhombic'
loop_
_space_group_symop_operation_xyz
x,y,z
-x,-y,1/2+z
x,-y,-z
-x,y,1/2-z
1/2+x,1/2+y,z
1/2-x,1/2-y,1/2+z
1/2+x,1/2-y,-z
1/2-x,1/2+y,1/2-z
loop_
_atom_site_type_symbol
_atom_site_label
_atom_site_fract_x
_atom_site_fract_y
_atom_site_fract_z
Si Si1 0.242182 0.905137 0.989065
Si Si2 0.000000 0.533967 0.750000
Si Si3 0.500000 0.469257 0.750000
Si Si4 0.500000 0.340989 0.750000
Si Si5 0.240464 0.279141 0.034251
Si Si6 0.500000 0.161486 0.250000
O O1 0.162115 0.942250 0.800691
O O2 0.371328 0.871672 0.871391
O O3 0.088170 0.871664 0.976866
O O4 0.343948 0.933429 0.209135
O O5 0.987084 0.500000 0.500000
O O6 0.527154 0.500000 0.500000
O O7 0.379619 0.309781 0.914022
O O8 0.237249 0.235567 0.839558
O O9 0.081594 0.306823 0.969986
#
# Coordination Sequence:
#
# PCOD9320547 Si02
#       6
#     8   4   4   4   8   4
#     4  10  24  46  71 104 144 189 244 302 370 441
#     4  12  27  48  77 110 147 196 253 314 375 448
#     4  11  26  48  72 101 141 190 241 303 372 444
#     4   9  22  46  71 104 148 196 244 304 371 442
#     4  11  23  43  69 103 143 190 243 300 363 437
#     4  10  23  42  70 103 140 188 242 303 366 434
#
# _framework density 25.663917999999999
#
# number of rings (size 3 to 8) (size 9 to 14) (size 15 to 20)
#    0.000    1.500    0.000    3.000    0.000   12.000 
#    0.000   22.500    0.000    0.000    0.000    0.000 
#    0.000    0.000    0.000    0.000    0.000    0.000 
#
# Total GULP energy -89504.823878 kJ/mol
# GULP energy per Si atom -5594.051492 kJ/mol
# Density = 2.560551 g / cm^3
# Si number density = 25.663918 Si / 1000 Ang^3
#
#
#
# Elastic Constant Matrix: (Units=GPa)
#
#
# Indices 1 2 3 4 5 6 
#
# 1 157.3854 65.3772 48.3388 0.0000 0.0000 0.0000
# 2 65.3772 140.0449 47.9556 0.0000 0.0000 0.0000
# 3 48.3388 47.9556 110.1261 0.0000 0.0000 0.0000
# 4 0.0000 0.0000 0.0000 5.7726 0.0000 0.0000
# 5 0.0000 0.0000 0.0000 0.0000 35.4527 0.0000
# 6 0.0000 0.0000 0.0000 0.0000 0.0000 -37.2168
#
#
#
# Elastic Compliance Matrix: (Units=1/GPa)
#
#
# Indices 1 2 3 4 5 6 
#
# 1 0.008356 -0.003108 -0.002314 0.000000 0.000000 0.000000
# 2 -0.003108 0.009548 -0.002794 0.000000 0.000000 0.000000
# 3 -0.002314 -0.002794 0.011313 0.000000 0.000000 0.000000
# 4 0.000000 0.000000 0.000000 0.173231 0.000000 0.000000
# 5 0.000000 0.000000 0.000000 0.000000 0.028207 0.000000
# 6 0.000000 0.000000 0.000000 0.000000 0.000000 -0.026870
#
#
# Mechanical properties :
#
#
# Convention : Reuss Voigt Hill
#
# Bulk Modulus (GPa) = 78.21787 81.21107 79.71447
# Shear Modulus (GPa) = 22.27383 17.19403 19.73393
#
# Velocity S-wave (km/s) = 2.94922 2.59118 2.77598
# Velocity P-wave (km/s) = 6.49162 6.37692 6.43452
#
# Compressibility (1/GPa) = 0.01278480
#
# Stress axis : x y z
#
# Youngs Moduli (GPa) = 119.67802 104.73187 88.39596
#
# Poissons Ratio (x) = 0.32554 0.20456
# Poissons Ratio (y) = 0.37199 0.24694
# Poissons Ratio (z) = 0.27695 0.29257
#
# Static dielectric constant tensor:
#      x y z
#    x 2.041050 0.000000 0.000000 
#    y 0.000000 2.025430 0.000000 
#    z 0.000000 0.000000 2.018540 
# 
# From -- ./inp_files/641.got.cif
#   From: 2010.05.17/outbox.cif.g08.bks.cpg/sg20_1_cif.got.tgz:641.got - 2010.06.03 22:52:26.
