data_PCOD9320192
_publ_section_title
;
Structure prediction by ZEFSAII (Michael W. Deem and Ramdas Pophale) SiO2 
 PCOD9320192
Probable space group: C 2 2 21
;
_chemical_formula_sum "Si O2"
_cell_formula_units_Z 64
_cell_length_a 11.256132
_cell_length_b 14.358664
_cell_length_c 17.916969
_cell_angle_alpha 90.000000
_cell_angle_beta 90.000000
_cell_angle_gamma 90.000000
_cell_volume 2895.794591
_symmetry_space_group_name_H-M "C 2 2 21"
_symmetry_group_IT_number 20
_symmetry_cell_setting 'orthorhombic'
loop_
_space_group_symop_operation_xyz
x,y,z
-x,-y,1/2+z
x,-y,-z
-x,y,1/2-z
1/2+x,1/2+y,z
1/2-x,1/2-y,1/2+z
1/2+x,1/2-y,-z
1/2-x,1/2+y,1/2-z
loop_
_atom_site_type_symbol
_atom_site_label
_atom_site_fract_x
_atom_site_fract_y
_atom_site_fract_z
Si Si1 0.176307 0.760796 0.347733
Si Si2 0.719800 0.233395 0.519277
Si Si3 0.931923 0.839891 0.410404
Si Si4 0.926415 0.992907 0.678591
Si Si5 0.561123 0.059007 0.571919
Si Si6 0.890682 0.609222 0.696789
Si Si7 0.429138 0.416059 0.957565
Si Si8 0.674784 0.063826 0.296064
O O1 0.229273 0.730458 0.429155
O O2 0.273994 0.826090 0.307604
O O3 0.137404 0.671268 0.299326
O O4 0.055243 0.812363 0.372212
O O5 0.844330 0.239180 0.562602
O O6 0.649583 0.141264 0.546101
O O7 0.645796 0.323180 0.543351
O O8 0.962312 0.894226 0.486560
O O9 0.871493 0.913746 0.356304
O O10 0.816911 0.928578 0.698465
O O11 0.000000 0.019321 0.750000
O O12 0.017243 0.947849 0.620184
O O13 0.448366 0.101012 0.615188
O O14 0.526609 0.000000 0.500000
O O15 0.622962 0.989424 0.631452
O O16 0.858265 0.505880 0.728451
O O17 0.000000 0.643702 0.750000
O O18 0.361835 0.500000 0.000000
#
# Coordination Sequence:
#
# PCOD9320192 Si02
#       8
#     8   8   8   8   8   8   8   8
#     4  11  24  43  76 106 138 187 241 298 363 425
#     4  11  22  41  77 105 139 179 241 305 364 423
#     4  10  22  43  70 101 136 178 234 302 353 421
#     4  11  22  41  67  95 141 183 234 280 349 421
#     4  11  23  44  76 106 137 191 243 296 364 438
#     4  10  26  49  72 102 152 189 244 298 365 446
#     4   9  22  41  67 102 139 182 234 297 357 420
#     4  11  23  45  69 101 139 192 234 290 355 439
#
# _framework density 22.101016000000001
#
# number of rings (size 3 to 8) (size 9 to 14) (size 15 to 20)
#    0.000    1.500    2.500    1.500    5.250    0.500 
#    2.250   24.375    0.000    0.000    0.000    0.000 
#    0.000    0.000    0.000    0.000    0.000    0.000 
#
# Total GULP energy -178797.712335 kJ/mol
# GULP energy per Si atom -5587.428510 kJ/mol
# Density = 2.205071 g / cm^3
# Si number density = 22.101016 Si / 1000 Ang^3
#
#
#
# Elastic Constant Matrix: (Units=GPa)
#
#
# Indices 1 2 3 4 5 6 
#
# 1 68.2306 32.1965 30.6235 0.0000 0.0000 0.0000
# 2 32.1965 79.1795 26.3819 0.0000 0.0000 0.0000
# 3 30.6235 26.3819 88.9903 0.0000 0.0000 0.0000
# 4 0.0000 0.0000 0.0000 29.6962 0.0000 0.0000
# 5 0.0000 0.0000 0.0000 0.0000 22.8708 0.0000
# 6 0.0000 0.0000 0.0000 0.0000 0.0000 8.8882
#
#
#
# Elastic Compliance Matrix: (Units=1/GPa)
#
#
# Indices 1 2 3 4 5 6 
#
# 1 0.019919 -0.006453 -0.004942 0.000000 0.000000 0.000000
# 2 -0.006453 0.016104 -0.002554 0.000000 0.000000 0.000000
# 3 -0.004942 -0.002554 0.013695 0.000000 0.000000 0.000000
# 4 0.000000 0.000000 0.000000 0.033674 0.000000 0.000000
# 5 0.000000 0.000000 0.000000 0.000000 0.043724 0.000000
# 6 0.000000 0.000000 0.000000 0.000000 0.000000 0.112509
#
#
# Mechanical properties :
#
#
# Convention : Reuss Voigt Hill
#
# Bulk Modulus (GPa) = 45.82605 46.08937 45.95771
# Shear Modulus (GPa) = 18.19530 22.10426 20.14978
#
# Velocity S-wave (km/s) = 2.87240 3.16594 3.02273
# Velocity P-wave (km/s) = 5.63744 5.85350 5.74649
#
# Compressibility (1/GPa) = 0.02182165
#
# Stress axis : x y z
#
# Youngs Moduli (GPa) = 50.20280 62.09471 73.02092
#
# Poissons Ratio (x) = 0.40071 0.36084
# Poissons Ratio (y) = 0.32397 0.18647
# Poissons Ratio (z) = 0.24808 0.15856
#
# Static dielectric constant tensor:
#      x y z
#    x 1.860990 0.000000 0.000000 
#    y 0.000000 1.850880 0.000000 
#    z 0.000000 0.000000 1.812200 
# 
# From -- ./inp_files/24479.got.cif
#   From: 2010.05.17/outbox.cif.g08.bks.cpg/sg20_13_cif.got.tgz:24479.got - 2010.06.03 22:52:26.
