data_PCOD9320271
_publ_section_title
;
Structure prediction by ZEFSAII (Michael W. Deem and Ramdas Pophale) SiO2 
 PCOD9320271
Probable space group: C 2 2 21
;
_chemical_formula_sum "Si O2"
_cell_formula_units_Z 32
_cell_length_a 11.086684
_cell_length_b 13.503867
_cell_length_c 9.157485
_cell_angle_alpha 90.000000
_cell_angle_beta 90.000000
_cell_angle_gamma 90.000000
_cell_volume 1370.995524
_symmetry_space_group_name_H-M "C 2 2 21"
_symmetry_group_IT_number 20
_symmetry_cell_setting 'orthorhombic'
loop_
_space_group_symop_operation_xyz
x,y,z
-x,-y,1/2+z
x,-y,-z
-x,y,1/2-z
1/2+x,1/2+y,z
1/2-x,1/2-y,1/2+z
1/2+x,1/2-y,-z
1/2-x,1/2+y,1/2-z
loop_
_atom_site_type_symbol
_atom_site_label
_atom_site_fract_x
_atom_site_fract_y
_atom_site_fract_z
Si Si1 0.427483 0.591152 0.102360
Si Si2 0.117660 0.221596 0.661371
Si Si3 0.151069 0.590626 0.166801
Si Si4 0.886740 0.361227 0.343519
O O1 0.500000 0.600884 0.250000
O O2 0.291967 0.570164 0.150045
O O3 0.470477 0.500000 0.000000
O O4 0.412409 0.687111 0.001079
O O5 0.126973 0.338069 0.696934
O O6 0.252001 0.178255 0.700434
O O7 0.000000 0.183529 0.750000
O O8 0.104758 0.479749 0.173797
O O9 0.110115 0.649335 0.020220
O O10 0.000000 0.321361 0.250000
#
# Coordination Sequence:
#
# PCOD9320271 Si02
#       4
#     8   8   8   8
#     4  11  23  45  76 111 156 203 255 317 389 465
#     4  11  24  43  73 111 151 197 253 315 378 460
#     4  10  22  44  73 107 152 192 257 315 384 465
#     4  10  22  44  71 102 148 201 246 317 384 453
#
# _framework density 23.340702
#
# number of rings (size 3 to 8) (size 9 to 14) (size 15 to 20)
#    0.000    1.500    5.000    1.500    0.000    9.000 
#    0.000    5.000    0.000    0.000    0.000    0.000 
#    0.000    0.000    0.000    0.000    0.000    0.000 
#
# Total GULP energy -89334.886984 kJ/mol
# GULP energy per Si atom -5583.430436 kJ/mol
# Density = 2.328758 g / cm^3
# Si number density = 23.340702 Si / 1000 Ang^3
#
#
#
# Elastic Constant Matrix: (Units=GPa)
#
#
# Indices 1 2 3 4 5 6 
#
# 1 163.6539 -2.0886 71.4604 0.0000 0.0000 0.0000
# 2 -2.0886 91.6886 45.7124 0.0000 0.0000 0.0000
# 3 71.4604 45.7124 125.0628 0.0000 0.0000 0.0000
# 4 0.0000 0.0000 0.0000 41.0988 0.0000 0.0000
# 5 0.0000 0.0000 0.0000 0.0000 42.6029 0.0000
# 6 0.0000 0.0000 0.0000 0.0000 0.0000 233.5526
#
#
#
# Elastic Compliance Matrix: (Units=1/GPa)
#
#
# Indices 1 2 3 4 5 6 
#
# 1 0.008912 0.003353 -0.006318 0.000000 0.000000 0.000000
# 2 0.003353 0.014598 -0.007252 0.000000 0.000000 0.000000
# 3 -0.006318 -0.007252 0.014257 0.000000 0.000000 0.000000
# 4 0.000000 0.000000 0.000000 0.024332 0.000000 0.000000
# 5 0.000000 0.000000 0.000000 0.000000 0.023473 0.000000
# 6 0.000000 0.000000 0.000000 0.000000 0.000000 0.004282
#
#
# Mechanical properties :
#
#
# Convention : Reuss Voigt Hill
#
# Bulk Modulus (GPa) = 57.69185 67.84151 62.76668
# Shear Modulus (GPa) = 43.07983 81.13894 62.10939
#
# Velocity S-wave (km/s) = 4.30082 5.90240 5.16408
# Velocity P-wave (km/s) = 7.03091 8.69367 7.90612
#
# Compressibility (1/GPa) = 0.01733347
#
# Stress axis : x y z
#
# Youngs Moduli (GPa) = 112.20930 68.50132 70.14340
#
# Poissons Ratio (x) = -0.22967 0.44315
# Poissons Ratio (y) = -0.37621 0.50866
# Poissons Ratio (z) = 0.70891 0.49675
#
# Static dielectric constant tensor:
#      x y z
#    x 1.954150 0.000000 0.000000 
#    y 0.000000 1.902540 0.000000 
#    z 0.000000 0.000000 1.849460 
# 
# From -- ./inp_files/6885.got.cif
#   From: 2010.05.17/outbox.cif.g08.bks.cpg/sg20_4_cif.got.tgz:6885.got - 2010.06.03 22:52:26.
