data_PCOD9320464
_publ_section_title
;
Structure prediction by ZEFSAII (Michael W. Deem and Ramdas Pophale) SiO2 
 PCOD9320464
Probable space group: C 2 2 21
;
_chemical_formula_sum "Si O2"
_cell_formula_units_Z 40
_cell_length_a 18.505464
_cell_length_b 18.068852
_cell_length_c 5.183271
_cell_angle_alpha 90.000000
_cell_angle_beta 90.000000
_cell_angle_gamma 90.000000
_cell_volume 1733.143232
_symmetry_space_group_name_H-M "C 2 2 21"
_symmetry_group_IT_number 20
_symmetry_cell_setting 'orthorhombic'
loop_
_space_group_symop_operation_xyz
x,y,z
-x,-y,1/2+z
x,-y,-z
-x,y,1/2-z
1/2+x,1/2+y,z
1/2-x,1/2-y,1/2+z
1/2+x,1/2-y,-z
1/2-x,1/2+y,1/2-z
loop_
_atom_site_type_symbol
_atom_site_label
_atom_site_fract_x
_atom_site_fract_y
_atom_site_fract_z
Si Si1 0.789997 0.917531 0.964148
Si Si2 0.453573 0.621503 0.000090
Si Si3 0.948892 0.419260 0.995864
Si Si4 0.872252 0.734397 0.118084
Si Si5 0.725724 0.680520 0.953001
O O1 0.776959 0.874842 0.696082
O O2 0.876800 0.918368 0.995463
O O3 0.762469 0.870640 0.204926
O O4 0.761027 0.000000 0.000000
O O5 0.500000 0.602891 0.750000
O O6 0.430898 0.708293 0.987415
O O7 0.500000 0.605446 0.250000
O O8 0.900786 0.348145 0.925060
O O9 0.000000 0.426647 0.750000
O O10 0.910252 0.500000 0.000000
O O11 0.000000 0.407749 0.250000
O O12 0.846390 0.770158 0.393629
O O13 0.794997 0.733036 0.976114
#
# Coordination Sequence:
#
# PCOD9320464 Si02
#       5
#     8   8   8   8   8
#     4  11  25  45  65  94 134 169 215 271 322 391
#     4  11  23  38  63  95 124 168 217 260 324 384
#     4  10  23  41  63  94 130 171 216 265 327 388
#     4  11  23  43  65  94 132 168 216 276 316 381
#     4  11  25  41  67  97 126 174 220 264 330 382
#
# _framework density 23.079453000000001
#
# number of rings (size 3 to 8) (size 9 to 14) (size 15 to 20)
#    0.000    1.200    0.000    6.600    0.000   10.400 
#    0.000    2.000    0.000    0.000    0.000    0.000 
#    0.000    0.000    0.000    0.000    0.000    0.000 
#
# Total GULP energy -111743.994168 kJ/mol
# GULP energy per Si atom -5587.199708 kJ/mol
# Density = 2.302692 g / cm^3
# Si number density = 23.079453 Si / 1000 Ang^3
#
#
#
# Elastic Constant Matrix: (Units=GPa)
#
#
# Indices 1 2 3 4 5 6 
#
# 1 11.3260 -13.5429 8.5291 0.0000 0.0000 0.0000
# 2 -13.5429 175.7549 43.6583 0.0000 0.0000 0.0000
# 3 8.5291 43.6583 183.3356 0.0000 0.0000 0.0000
# 4 0.0000 0.0000 0.0000 23.4229 0.0000 0.0000
# 5 0.0000 0.0000 0.0000 0.0000 27.2935 0.0000
# 6 0.0000 0.0000 0.0000 0.0000 0.0000 183.7883
#
#
#
# Elastic Compliance Matrix: (Units=1/GPa)
#
#
# Indices 1 2 3 4 5 6 
#
# 1 0.105681 0.009953 -0.007287 0.000000 0.000000 0.000000
# 2 0.009953 0.006985 -0.002126 0.000000 0.000000 0.000000
# 3 -0.007287 -0.002126 0.006300 0.000000 0.000000 0.000000
# 4 0.000000 0.000000 0.000000 0.042693 0.000000 0.000000
# 5 0.000000 0.000000 0.000000 0.000000 0.036639 0.000000
# 6 0.000000 0.000000 0.000000 0.000000 0.000000 0.005441
#
#
# Mechanical properties :
#
#
# Convention : Reuss Voigt Hill
#
# Bulk Modulus (GPa) = 8.33010 49.74505 29.03757
# Shear Modulus (GPa) = 20.60378 69.01907 44.81142
#
# Velocity S-wave (km/s) = 2.99110 5.47448 4.41116
# Velocity P-wave (km/s) = 3.94285 7.84605 6.20913
#
# Compressibility (1/GPa) = 0.12004657
#
# Stress axis : x y z
#
# Youngs Moduli (GPa) = 9.46242 143.16571 158.73436
#
# Poissons Ratio (x) = -1.42498 1.15665
# Poissons Ratio (y) = -0.09418 0.33753
# Poissons Ratio (z) = 0.06895 0.30443
#
# Static dielectric constant tensor:
#      x y z
#    x 1.836080 0.000000 0.000000 
#    y 0.000000 1.989420 0.000000 
#    z 0.000000 0.000000 1.856880 
# 
# From -- ./inp_files/2490.got.cif
#   From: 2010.05.17/outbox.cif.g08.bks.cpg/sg20_2_cif.got.tgz:2490.got - 2010.06.03 22:52:26.
