data_PCOD9320486
_publ_section_title
;
Structure prediction by ZEFSAII (Michael W. Deem and Ramdas Pophale) SiO2 
 PCOD9320486
Probable space group: C 2 2 21
;
_chemical_formula_sum "Si O2"
_cell_formula_units_Z 48
_cell_length_a 7.044790
_cell_length_b 20.092233
_cell_length_c 14.913069
_cell_angle_alpha 90.000000
_cell_angle_beta 90.000000
_cell_angle_gamma 90.000000
_cell_volume 2110.878734
_symmetry_space_group_name_H-M "C 2 2 21"
_symmetry_group_IT_number 20
_symmetry_cell_setting 'orthorhombic'
loop_
_space_group_symop_operation_xyz
x,y,z
-x,-y,1/2+z
x,-y,-z
-x,y,1/2-z
1/2+x,1/2+y,z
1/2-x,1/2-y,1/2+z
1/2+x,1/2-y,-z
1/2-x,1/2+y,1/2-z
loop_
_atom_site_type_symbol
_atom_site_label
_atom_site_fract_x
_atom_site_fract_y
_atom_site_fract_z
Si Si1 0.299243 0.288570 0.792121
Si Si2 0.650683 0.069980 0.171348
Si Si3 0.408646 0.185769 0.949155
Si Si4 0.231547 0.000000 0.500000
Si Si5 0.918016 0.095196 0.589830
Si Si6 0.819493 0.218164 0.888653
Si Si7 0.500000 0.506146 0.750000
O O1 0.500000 0.313313 0.750000
O O2 0.179857 0.350523 0.829452
O O3 0.341384 0.236761 0.871005
O O4 0.209821 0.250119 0.708259
O O5 0.500000 0.054842 0.250000
O O6 0.849934 0.039194 0.201167
O O7 0.633778 0.033959 0.075270
O O8 0.283838 0.118540 0.949700
O O9 0.630514 0.180840 0.925408
O O10 0.370324 0.224048 0.041392
O O11 0.078221 0.056070 0.532614
O O12 0.017404 0.164259 0.614059
O O13 0.891897 0.051977 0.678694
#
# Coordination Sequence:
#
# PCOD9320486 Si02
#       7
#     8   8   8   4   8   8   4
#     4  10  23  41  67  99 139 170 226 291 345 409
#     4  11  24  44  72 100 137 184 240 285 351 419
#     4  11  23  40  63  99 132 175 219 283 356 407
#     4  10  26  46  68 100 146 188 232 296 328 428
#     4  11  23  42  66  92 139 176 229 273 351 407
#     4  11  23  39  64  98 133 172 224 287 345 417
#     4  10  24  44  62  94 134 184 222 284 338 414
#
# _framework density 22.739343999999999
#
# number of rings (size 3 to 8) (size 9 to 14) (size 15 to 20)
#    0.000    1.333    2.500    2.000    4.667    4.000 
#    0.000    5.000    0.000    0.000    0.000    0.000 
#    0.000    0.000    0.000    0.000    0.000    0.000 
#
# Total GULP energy -134201.157656 kJ/mol
# GULP energy per Si atom -5591.714902 kJ/mol
# Density = 2.268759 g / cm^3
# Si number density = 22.739344 Si / 1000 Ang^3
#
#
#
# Elastic Constant Matrix: (Units=GPa)
#
#
# Indices 1 2 3 4 5 6 
#
# 1 85.5582 23.6983 3.1162 0.0000 0.0000 0.0000
# 2 23.6983 57.9545 7.9190 0.0000 0.0000 0.0000
# 3 3.1162 7.9190 91.0693 0.0000 0.0000 0.0000
# 4 0.0000 0.0000 0.0000 11.2983 0.0000 0.0000
# 5 0.0000 0.0000 0.0000 0.0000 29.0575 0.0000
# 6 0.0000 0.0000 0.0000 0.0000 0.0000 24.6275
#
#
#
# Elastic Compliance Matrix: (Units=1/GPa)
#
#
# Indices 1 2 3 4 5 6 
#
# 1 0.013181 -0.005392 0.000018 0.000000 0.000000 0.000000
# 2 -0.005392 0.019668 -0.001526 0.000000 0.000000 0.000000
# 3 0.000018 -0.001526 0.011113 0.000000 0.000000 0.000000
# 4 0.000000 0.000000 0.000000 0.088509 0.000000 0.000000
# 5 0.000000 0.000000 0.000000 0.000000 0.034415 0.000000
# 6 0.000000 0.000000 0.000000 0.000000 0.000000 0.040605
#
#
# Mechanical properties :
#
#
# Convention : Reuss Voigt Hill
#
# Bulk Modulus (GPa) = 33.15471 33.78322 33.46896
# Shear Modulus (GPa) = 21.61280 26.31988 23.96634
#
# Velocity S-wave (km/s) = 3.08630 3.40584 3.25000
# Velocity P-wave (km/s) = 5.22611 5.50956 5.36971
#
# Compressibility (1/GPa) = 0.03016163
#
# Stress axis : x y z
#
# Youngs Moduli (GPa) = 75.86751 50.84309 89.98705
#
# Poissons Ratio (x) = 0.27416 -0.00161
# Poissons Ratio (y) = 0.40910 0.13730
# Poissons Ratio (z) = -0.00136 0.07757
#
# Static dielectric constant tensor:
#      x y z
#    x 1.850540 0.000000 0.000000 
#    y 0.000000 1.824250 0.000000 
#    z 0.000000 0.000000 1.818120 
# 
# From -- ./inp_files/18944.got.cif
#   From: 2010.05.17/outbox.cif.g08.bks.cpg/sg20_10_cif.got.tgz:18944.got - 2010.06.03 22:52:26.
