data_PCOD9320915
_publ_section_title
;
Structure prediction by ZEFSAII (Michael W. Deem and Ramdas Pophale) SiO2 
 PCOD9320915
Probable space group: C 2 2 21
;
_chemical_formula_sum "Si O2"
_cell_formula_units_Z 60
_cell_length_a 18.413520
_cell_length_b 16.660749
_cell_length_c 7.968924
_cell_angle_alpha 90.000000
_cell_angle_beta 90.000000
_cell_angle_gamma 90.000000
_cell_volume 2444.730690
_symmetry_space_group_name_H-M "C 2 2 21"
_symmetry_group_IT_number 20
_symmetry_cell_setting 'orthorhombic'
loop_
_space_group_symop_operation_xyz
x,y,z
-x,-y,1/2+z
x,-y,-z
-x,y,1/2-z
1/2+x,1/2+y,z
1/2-x,1/2-y,1/2+z
1/2+x,1/2-y,-z
1/2-x,1/2+y,1/2-z
loop_
_atom_site_type_symbol
_atom_site_label
_atom_site_fract_x
_atom_site_fract_y
_atom_site_fract_z
Si Si1 0.036522 0.112929 0.564590
Si Si2 0.507035 0.204425 0.444336
Si Si3 0.651615 0.181211 0.046040
Si Si4 0.324153 0.970351 0.728386
Si Si5 0.273592 0.744807 0.244925
Si Si6 0.663086 0.431556 0.688147
Si Si7 0.358395 0.119522 0.926757
Si Si8 0.083855 0.000000 0.000000
O O1 0.041952 0.207863 0.556245
O O2 0.109383 0.080518 0.471725
O O3 0.000000 0.094879 0.750000
O O4 0.970356 0.074085 0.463244
O O5 0.500000 0.178381 0.250000
O O6 0.425477 0.214417 0.510869
O O7 0.558999 0.145178 0.542593
O O8 0.637454 0.089768 0.099424
O O9 0.689458 0.226248 0.203983
O O10 0.711745 0.201612 0.908512
O O11 0.242244 0.969037 0.663635
O O12 0.352779 0.057840 0.772351
O O13 0.329209 0.924814 0.907763
O O14 0.316430 0.659462 0.251939
O O15 0.309798 0.802703 0.106787
O O16 0.631762 0.490948 0.832936
#
# Coordination Sequence:
#
# PCOD9320915 Si02
#       8
#     8   8   8   8   8   8   8   4
#     4  11  24  41  69 106 148 201 250 329 411 495
#     4  11  23  42  73 107 151 201 276 328 413 486
#     4  11  24  42  69 110 147 207 266 338 404 493
#     4  10  24  44  76 104 153 206 276 331 409 467
#     4  11  24  44  75 104 159 204 270 332 407 486
#     4  11  23  45  69 110 151 205 270 330 404 515
#     4  11  22  47  73 110 153 214 261 343 401 485
#     4  12  24  42  68 102 154 198 252 318 412 488
#
# _framework density 24.542580999999998
#
# number of rings (size 3 to 8) (size 9 to 14) (size 15 to 20)
#    0.000    1.067    2.667    4.400    0.000    3.200 
#    0.000   10.667    0.000    0.000    0.000    0.000 
#    0.000    0.000    0.000    0.000    0.000    0.000 
#
# Total GULP energy -167513.047368 kJ/mol
# GULP energy per Si atom -5583.768246 kJ/mol
# Density = 2.448672 g / cm^3
# Si number density = 24.542581 Si / 1000 Ang^3
#
#
#
# Elastic Constant Matrix: (Units=GPa)
#
#
# Indices 1 2 3 4 5 6 
#
# 1 126.3559 53.8577 31.2854 0.0000 0.0000 0.0000
# 2 53.8577 136.0470 48.8799 0.0000 0.0000 0.0000
# 3 31.2854 48.8799 111.9678 0.0000 0.0000 0.0000
# 4 0.0000 0.0000 0.0000 37.9609 0.0000 0.0000
# 5 0.0000 0.0000 0.0000 0.0000 19.3217 0.0000
# 6 0.0000 0.0000 0.0000 0.0000 0.0000 24.5926
#
#
#
# Elastic Compliance Matrix: (Units=1/GPa)
#
#
# Indices 1 2 3 4 5 6 
#
# 1 0.009659 -0.003385 -0.001221 0.000000 0.000000 0.000000
# 2 -0.003385 0.009904 -0.003378 0.000000 0.000000 0.000000
# 3 -0.001221 -0.003378 0.010747 0.000000 0.000000 0.000000
# 4 0.000000 0.000000 0.000000 0.026343 0.000000 0.000000
# 5 0.000000 0.000000 0.000000 0.000000 0.051755 0.000000
# 6 0.000000 0.000000 0.000000 0.000000 0.000000 0.040663
#
#
# Mechanical properties :
#
#
# Convention : Reuss Voigt Hill
#
# Bulk Modulus (GPa) = 69.72449 71.37964 70.55207
# Shear Modulus (GPa) = 29.44287 32.39821 30.92054
#
# Velocity S-wave (km/s) = 3.46738 3.63723 3.55332
# Velocity P-wave (km/s) = 6.67095 6.84006 6.75603
#
# Compressibility (1/GPa) = 0.01434216
#
# Stress axis : x y z
#
# Youngs Moduli (GPa) = 103.52613 100.96822 93.04969
#
# Poissons Ratio (x) = 0.34179 0.11363
# Poissons Ratio (y) = 0.35045 0.31430
# Poissons Ratio (z) = 0.12642 0.34105
#
# Static dielectric constant tensor:
#      x y z
#    x 1.980950 0.000000 0.000000 
#    y 0.000000 1.970020 0.000000 
#    z 0.000000 0.000000 2.093980 
# 
# From -- ./inp_files/9591.got.cif
#   From: 2010.05.17/outbox.cif.g08.bks.cpg/sg20_5_cif.got.tgz:9591.got - 2010.06.03 22:52:26.
