data_PCOD9320612
_publ_section_title
;
Structure prediction by ZEFSAII (Michael W. Deem and Ramdas Pophale) SiO2 
 PCOD9320612
Probable space group: C 2 2 21
;
_chemical_formula_sum "Si O2"
_cell_formula_units_Z 40
_cell_length_a 4.901586
_cell_length_b 14.124278
_cell_length_c 22.942695
_cell_angle_alpha 90.000000
_cell_angle_beta 90.000000
_cell_angle_gamma 90.000000
_cell_volume 1588.354053
_symmetry_space_group_name_H-M "C 2 2 21"
_symmetry_group_IT_number 20
_symmetry_cell_setting 'orthorhombic'
loop_
_space_group_symop_operation_xyz
x,y,z
-x,-y,1/2+z
x,-y,-z
-x,y,1/2-z
1/2+x,1/2+y,z
1/2-x,1/2-y,1/2+z
1/2+x,1/2-y,-z
1/2-x,1/2+y,1/2-z
loop_
_atom_site_type_symbol
_atom_site_label
_atom_site_fract_x
_atom_site_fract_y
_atom_site_fract_z
Si Si1 0.500000 0.304863 0.750000
Si Si2 0.918415 0.727279 0.627895
Si Si3 0.458324 0.300464 0.025396
Si Si4 0.839590 0.522154 0.872610
Si Si5 0.842233 0.922005 0.924953
Si Si6 0.500000 0.062574 0.250000
O O1 0.386074 0.243743 0.696606
O O2 0.749061 0.371570 0.730021
O O3 0.081628 0.630484 0.618676
O O4 0.062471 0.823194 0.605249
O O5 0.641196 0.713228 0.591106
O O6 0.765437 0.276467 0.008071
O O7 0.379051 0.397682 0.993208
O O8 0.540453 0.498506 0.895523
O O9 0.889111 0.495943 0.805026
O O10 0.038901 0.453471 0.909420
#
# Coordination Sequence:
#
# PCOD9320612 Si02
#       6
#     4   8   8   8   8   4
#     4  12  25  44  77  98 148 188 233 292 375 400
#     4  11  25  47  72 107 139 192 234 296 349 434
#     4  10  23  43  73 102 143 187 239 289 358 417
#     4  12  25  43  74 101 143 182 242 283 360 419
#     4  11  24  46  68 104 143 186 229 301 344 422
#     4  12  23  46  67 106 140 186 229 306 345 430
#
# _framework density 25.183299000000002
#
# number of rings (size 3 to 8) (size 9 to 14) (size 15 to 20)
#    0.000    0.800    4.000    3.000    0.000    7.200 
#    0.000    8.000    0.000    0.000    0.000    0.000 
#    0.000    0.000    0.000    0.000    0.000    0.000 
#
# Total GULP energy -112115.094002 kJ/mol
# GULP energy per Si atom -5605.754700 kJ/mol
# Density = 2.512598 g / cm^3
# Si number density = 25.183299 Si / 1000 Ang^3
#
#
#
# Elastic Constant Matrix: (Units=GPa)
#
#
# Indices 1 2 3 4 5 6 
#
# 1 65.1423 7.1115 22.7416 0.0000 0.0000 0.0000
# 2 7.1115 130.7055 24.4191 0.0000 0.0000 0.0000
# 3 22.7416 24.4191 172.0463 0.0000 0.0000 0.0000
# 4 0.0000 0.0000 0.0000 30.9896 0.0000 0.0000
# 5 0.0000 0.0000 0.0000 0.0000 39.0204 0.0000
# 6 0.0000 0.0000 0.0000 0.0000 0.0000 39.0523
#
#
#
# Elastic Compliance Matrix: (Units=1/GPa)
#
#
# Indices 1 2 3 4 5 6 
#
# 1 0.016124 -0.000492 -0.002062 0.000000 0.000000 0.000000
# 2 -0.000492 0.007874 -0.001053 0.000000 0.000000 0.000000
# 3 -0.002062 -0.001053 0.006234 0.000000 0.000000 0.000000
# 4 0.000000 0.000000 0.000000 0.032269 0.000000 0.000000
# 5 0.000000 0.000000 0.000000 0.000000 0.025628 0.000000
# 6 0.000000 0.000000 0.000000 0.000000 0.000000 0.025607
#
#
# Mechanical properties :
#
#
# Convention : Reuss Voigt Hill
#
# Bulk Modulus (GPa) = 43.43966 52.93762 48.18864
# Shear Modulus (GPa) = 38.87359 42.72060 40.79709
#
# Velocity S-wave (km/s) = 3.93316 4.12319 4.02930
# Velocity P-wave (km/s) = 6.15737 6.61318 6.38934
#
# Compressibility (1/GPa) = 0.02302044
#
# Stress axis : x y z
#
# Youngs Moduli (GPa) = 62.01767 126.99690 160.40348
#
# Poissons Ratio (x) = 0.06250 0.33068
# Poissons Ratio (y) = 0.03052 0.16883
# Poissons Ratio (z) = 0.12785 0.13367
#
# Static dielectric constant tensor:
#      x y z
#    x 1.935720 0.000000 0.000000 
#    y 0.000000 1.976560 0.000000 
#    z 0.000000 0.000000 2.059840 
# 
# From -- ./inp_files/28285.got.cif
#   From: 2010.05.17/outbox.cif.g08.bks.cpg/sg20_15_cif.got.tgz:28285.got - 2010.06.03 22:52:26.
