data_PCOD9320206
_publ_section_title
;
Structure prediction by ZEFSAII (Michael W. Deem and Ramdas Pophale) SiO2 
 PCOD9320206
Probable space group: C 2 2 21
;
_chemical_formula_sum "Si O2"
_cell_formula_units_Z 48
_cell_length_a 8.900849
_cell_length_b 28.774212
_cell_length_c 8.272521
_cell_angle_alpha 90.000000
_cell_angle_beta 90.000000
_cell_angle_gamma 90.000000
_cell_volume 2118.716022
_symmetry_space_group_name_H-M "C 2 2 21"
_symmetry_group_IT_number 20
_symmetry_cell_setting 'orthorhombic'
loop_
_space_group_symop_operation_xyz
x,y,z
-x,-y,1/2+z
x,-y,-z
-x,y,1/2-z
1/2+x,1/2+y,z
1/2-x,1/2-y,1/2+z
1/2+x,1/2-y,-z
1/2-x,1/2+y,1/2-z
loop_
_atom_site_type_symbol
_atom_site_label
_atom_site_fract_x
_atom_site_fract_y
_atom_site_fract_z
Si Si1 0.500000 0.967253 0.750000
Si Si2 0.814925 0.693566 0.590350
Si Si3 0.645136 0.226617 0.543496
Si Si4 0.780689 0.598116 0.425638
Si Si5 0.857409 0.839547 0.648155
Si Si6 0.527061 0.420695 0.060489
Si Si7 0.733384 0.000000 0.500000
O O1 0.580654 0.934633 0.883395
O O2 0.627128 0.996036 0.656838
O O3 0.683721 0.720053 0.494338
O O4 0.812074 0.708337 0.777821
O O5 0.809605 0.638386 0.558477
O O6 0.971951 0.713328 0.521015
O O7 0.749135 0.199461 0.417509
O O8 0.736488 0.626127 0.263674
O O9 0.632461 0.569555 0.474862
O O10 0.922435 0.870201 0.501705
O O11 0.000000 0.822376 0.750000
O O12 0.500000 0.421942 0.250000
O O13 0.656893 0.456041 0.010502
#
# Coordination Sequence:
#
# PCOD9320206 Si02
#       7
#     4   8   8   8   8   8   4
#     4  12  28  50  74 108 148 182 242 302 378 426
#     4  11  26  43  70 105 147 195 242 295 358 419
#     4  11  25  44  69 105 148 192 248 296 349 428
#     4  11  24  47  73 103 145 192 236 301 361 433
#     4  10  22  43  72 100 141 186 245 294 361 419
#     4  11  26  45  75 103 140 185 241 293 370 442
#     4  12  30  48  76 108 140 192 238 308 368 444
#
# _framework density 22.655231000000001
#
# number of rings (size 3 to 8) (size 9 to 14) (size 15 to 20)
#    0.000    1.000    1.667    3.000   11.667    2.000 
#    0.000    0.000    0.000    0.000    0.000    0.000 
#    0.000    0.000    0.000    0.000    0.000    0.000 
#
# Total GULP energy -134447.207678 kJ/mol
# GULP energy per Si atom -5601.966987 kJ/mol
# Density = 2.260367 g / cm^3
# Si number density = 22.655231 Si / 1000 Ang^3
#
#
#
# Elastic Constant Matrix: (Units=GPa)
#
#
# Indices 1 2 3 4 5 6 
#
# 1 122.3427 51.9304 19.0122 0.0000 0.0000 0.0000
# 2 51.9304 58.2405 27.6360 0.0000 0.0000 0.0000
# 3 19.0122 27.6360 53.4960 0.0000 0.0000 0.0000
# 4 0.0000 0.0000 0.0000 16.6318 0.0000 0.0000
# 5 0.0000 0.0000 0.0000 0.0000 46.2538 0.0000
# 6 0.0000 0.0000 0.0000 0.0000 0.0000 45.0015
#
#
#
# Elastic Compliance Matrix: (Units=1/GPa)
#
#
# Indices 1 2 3 4 5 6 
#
# 1 0.013288 -0.012728 0.001852 0.000000 0.000000 0.000000
# 2 -0.012728 0.034937 -0.013525 0.000000 0.000000 0.000000
# 3 0.001852 -0.013525 0.025022 0.000000 0.000000 0.000000
# 4 0.000000 0.000000 0.000000 0.060126 0.000000 0.000000
# 5 0.000000 0.000000 0.000000 0.000000 0.021620 0.000000
# 6 0.000000 0.000000 0.000000 0.000000 0.000000 0.022221
#
#
# Mechanical properties :
#
#
# Convention : Reuss Voigt Hill
#
# Bulk Modulus (GPa) = 40.90575 47.91513 44.41044
# Shear Modulus (GPa) = 21.35270 30.61080 25.98175
#
# Velocity S-wave (km/s) = 3.07336 3.67980 3.39017
# Velocity P-wave (km/s) = 5.53976 6.26500 5.91351
#
# Compressibility (1/GPa) = 0.02444644
#
# Stress axis : x y z
#
# Youngs Moduli (GPa) = 75.25398 28.62329 39.96555
#
# Poissons Ratio (x) = 0.36431 -0.07404
# Poissons Ratio (y) = 0.95780 0.54053
# Poissons Ratio (z) = -0.13941 0.38713
#
# Static dielectric constant tensor:
#      x y z
#    x 1.821690 0.000000 0.000000 
#    y 0.000000 1.889340 0.000000 
#    z 0.000000 0.000000 1.829550 
# 
# From -- ./inp_files/6597.got.cif
#   From: 2010.05.17/outbox.cif.g08.bks.cpg/sg20_4_cif.got.tgz:6597.got - 2010.06.03 22:52:26.
