data_PCOD9320069
_publ_section_title
;
Structure prediction by ZEFSAII (Michael W. Deem and Ramdas Pophale) SiO2 
 PCOD9320069
Probable space group: C 2 2 21
;
_chemical_formula_sum "Si O2"
_cell_formula_units_Z 44
_cell_length_a 7.820320
_cell_length_b 30.106454
_cell_length_c 8.489327
_cell_angle_alpha 90.000000
_cell_angle_beta 90.000000
_cell_angle_gamma 90.000000
_cell_volume 1998.745013
_symmetry_space_group_name_H-M "C 2 2 21"
_symmetry_group_IT_number 20
_symmetry_cell_setting 'orthorhombic'
loop_
_space_group_symop_operation_xyz
x,y,z
-x,-y,1/2+z
x,-y,-z
-x,y,1/2-z
1/2+x,1/2+y,z
1/2-x,1/2-y,1/2+z
1/2+x,1/2-y,-z
1/2-x,1/2+y,1/2-z
loop_
_atom_site_type_symbol
_atom_site_label
_atom_site_fract_x
_atom_site_fract_y
_atom_site_fract_z
Si Si1 0.257331 0.500000 0.000000
Si Si2 0.500000 0.035472 0.750000
Si Si3 0.771443 0.612427 0.838837
Si Si4 0.676631 0.729307 0.058151
Si Si5 0.000000 0.254153 0.750000
Si Si6 0.000000 0.691721 0.750000
Si Si7 0.000000 0.846167 0.750000
Si Si8 0.908199 0.904175 0.008066
O O1 0.133654 0.507323 0.850494
O O2 0.371259 0.543976 0.014769
O O3 0.393805 0.069771 0.859639
O O4 0.703575 0.610994 0.657558
O O5 0.604842 0.605693 0.945482
O O6 0.879990 0.657463 0.848076
O O7 0.605194 0.775197 0.135612
O O8 0.576340 0.687685 0.125156
O O9 0.866586 0.724131 0.128096
O O10 0.629698 0.731002 0.874045
O O11 0.127499 0.877250 0.651356
#
# Coordination Sequence:
#
# PCOD9320069 Si02
#       8
#     4   4   8   8   4   4   4   8
#     4  10  22  42  66  98 134 188 236 296 384 440
#     4   9  20  41  65  94 132 172 232 288 356 447
#     4   9  21  40  65  96 133 180 238 291 363 429
#     4  11  27  45  74 102 148 193 250 291 375 430
#     4  12  28  52  71 113 143 205 241 311 352 454
#     4  10  22  42  68 102 131 197 232 306 352 436
#     4  11  26  43  62 109 142 190 239 311 358 437
#     4  10  23  40  66  98 137 182 238 303 360 447
#
# _framework density 22.013812000000001
#
# number of rings (size 3 to 8) (size 9 to 14) (size 15 to 20)
#    0.000    1.818    0.000    2.182   10.182    5.091 
#    0.000    0.909    0.000    0.000    0.000    0.000 
#    0.000    0.000    0.000    0.000    0.000    0.000 
#
# Total GULP energy -122780.467619 kJ/mol
# GULP energy per Si atom -5580.930346 kJ/mol
# Density = 2.196371 g / cm^3
# Si number density = 22.013812 Si / 1000 Ang^3
#
#
#
# Elastic Constant Matrix: (Units=GPa)
#
#
# Indices 1 2 3 4 5 6 
#
# 1 84.3931 51.3166 24.3392 0.0000 0.0000 0.0000
# 2 51.3166 159.2125 52.8392 0.0000 0.0000 0.0000
# 3 24.3392 52.8392 115.4510 0.0000 0.0000 0.0000
# 4 0.0000 0.0000 0.0000 27.9225 0.0000 0.0000
# 5 0.0000 0.0000 0.0000 0.0000 38.0717 0.0000
# 6 0.0000 0.0000 0.0000 0.0000 0.0000 24.6920
#
#
#
# Elastic Compliance Matrix: (Units=1/GPa)
#
#
# Indices 1 2 3 4 5 6 
#
# 1 0.014857 -0.004421 -0.001109 0.000000 0.000000 0.000000
# 2 -0.004421 0.008721 -0.003060 0.000000 0.000000 0.000000
# 3 -0.001109 -0.003060 0.010296 0.000000 0.000000 0.000000
# 4 0.000000 0.000000 0.000000 0.035813 0.000000 0.000000
# 5 0.000000 0.000000 0.000000 0.000000 0.026266 0.000000
# 6 0.000000 0.000000 0.000000 0.000000 0.000000 0.040499
#
#
# Mechanical properties :
#
#
# Convention : Reuss Voigt Hill
#
# Bulk Modulus (GPa) = 59.89511 68.44964 64.17238
# Shear Modulus (GPa) = 31.40780 33.50802 32.45791
#
# Velocity S-wave (km/s) = 3.78131 3.90569 3.84400
# Velocity P-wave (km/s) = 6.80672 7.17640 6.99400
#
# Compressibility (1/GPa) = 0.01669585
#
# Stress axis : x y z
#
# Youngs Moduli (GPa) = 67.30744 114.66382 97.12768
#
# Poissons Ratio (x) = 0.50689 0.10771
# Poissons Ratio (y) = 0.29754 0.29716
# Poissons Ratio (z) = 0.07464 0.35081
#
# Static dielectric constant tensor:
#      x y z
#    x 1.894530 0.000000 0.000000 
#    y 0.000000 1.770260 0.000000 
#    z 0.000000 0.000000 1.905160 
# 
# From -- ./inp_files/6427.got.cif
#   From: 2010.05.17/outbox.cif.g08.bks.cpg/sg20_4_cif.got.tgz:6427.got - 2010.06.03 22:52:26.
