data_PCOD9320136
_publ_section_title
;
Structure prediction by ZEFSAII (Michael W. Deem and Ramdas Pophale) SiO2 
 PCOD9320136
Probable space group: C 2 2 21
;
_chemical_formula_sum "Si O2"
_cell_formula_units_Z 48
_cell_length_a 22.898008
_cell_length_b 14.386123
_cell_length_c 7.483911
_cell_angle_alpha 90.000000
_cell_angle_beta 90.000000
_cell_angle_gamma 90.000000
_cell_volume 2465.301762
_symmetry_space_group_name_H-M "C 2 2 21"
_symmetry_group_IT_number 20
_symmetry_cell_setting 'orthorhombic'
loop_
_space_group_symop_operation_xyz
x,y,z
-x,-y,1/2+z
x,-y,-z
-x,y,1/2-z
1/2+x,1/2+y,z
1/2-x,1/2-y,1/2+z
1/2+x,1/2-y,-z
1/2-x,1/2+y,1/2-z
loop_
_atom_site_type_symbol
_atom_site_label
_atom_site_fract_x
_atom_site_fract_y
_atom_site_fract_z
Si Si1 0.230310 0.087908 0.895756
Si Si2 0.207664 0.297390 0.932659
Si Si3 0.500000 0.147280 0.250000
Si Si4 0.381720 0.213943 0.100046
Si Si5 0.174970 0.105530 0.521001
Si Si6 0.057489 0.500000 0.000000
Si Si7 0.646615 0.901259 0.256189
O O1 0.232720 0.193112 0.973623
O O2 0.190638 0.107862 0.727992
O O3 0.292640 0.053921 0.819767
O O4 0.205847 0.000000 0.000000
O O5 0.167332 0.302803 0.755408
O O6 0.264476 0.364976 0.921906
O O7 0.168926 0.329051 0.103069
O O8 0.443932 0.206379 0.194260
O O9 0.481051 0.081497 0.415339
O O10 0.370601 0.311945 0.000917
O O11 0.377934 0.140911 0.938624
O O12 0.156006 0.000000 0.500000
O O13 0.100003 0.534383 0.841407
#
# Coordination Sequence:
#
# PCOD9320136 Si02
#       7
#     8   8   4   8   8   4   8
#     4  10  23  33  62  95 135 172 204 261 329 387
#     4  10  22  43  58  98 137 165 213 270 319 393
#     4  12  26  46  66  88 134 164 228 270 324 390
#     4  11  24  43  66  90 131 179 205 273 330 378
#     4  10  23  37  64  96 129 171 220 261 322 393
#     4  12  26  44  66  98 120 170 228 270 318 398
#     4  11  24  38  66  90 133 168 212 264 321 384
#
# _framework density 19.470234000000001
#
# number of rings (size 3 to 8) (size 9 to 14) (size 15 to 20)
#    0.000    1.333    3.333    1.000   11.667    0.000 
#    0.000    0.000    0.000    6.000    0.000    0.000 
#    0.000    0.000    0.000    0.000    0.000    0.000 
#
# Total GULP energy -133887.295492 kJ/mol
# GULP energy per Si atom -5578.637312 kJ/mol
# Density = 1.942592 g / cm^3
# Si number density = 19.470234 Si / 1000 Ang^3
#
#
#
# Elastic Constant Matrix: (Units=GPa)
#
#
# Indices 1 2 3 4 5 6 
#
# 1 85.0213 31.9437 27.4386 0.0000 0.0000 0.0000
# 2 31.9437 74.4735 17.8448 0.0000 0.0000 0.0000
# 3 27.4386 17.8448 86.3306 0.0000 0.0000 0.0000
# 4 0.0000 0.0000 0.0000 35.6353 0.0000 0.0000
# 5 0.0000 0.0000 0.0000 0.0000 19.3417 0.0000
# 6 0.0000 0.0000 0.0000 0.0000 0.0000 20.9481
#
#
#
# Elastic Compliance Matrix: (Units=1/GPa)
#
#
# Indices 1 2 3 4 5 6 
#
# 1 0.015026 -0.005577 -0.003623 0.000000 0.000000 0.000000
# 2 -0.005577 0.016197 -0.001575 0.000000 0.000000 0.000000
# 3 -0.003623 -0.001575 0.013061 0.000000 0.000000 0.000000
# 4 0.000000 0.000000 0.000000 0.028062 0.000000 0.000000
# 5 0.000000 0.000000 0.000000 0.000000 0.051702 0.000000
# 6 0.000000 0.000000 0.000000 0.000000 0.000000 0.047737
#
#
# Mechanical properties :
#
#
# Convention : Reuss Voigt Hill
#
# Bulk Modulus (GPa) = 43.98892 44.47552 44.23222
# Shear Modulus (GPa) = 24.88626 26.42490 25.65558
#
# Velocity S-wave (km/s) = 3.57903 3.68801 3.63393
# Velocity P-wave (km/s) = 6.30248 6.40528 6.35409
#
# Compressibility (1/GPa) = 0.02273300
#
# Stress axis : x y z
#
# Youngs Moduli (GPa) = 66.54947 61.73878 76.56644
#
# Poissons Ratio (x) = 0.34432 0.27741
# Poissons Ratio (y) = 0.37115 0.12063
# Poissons Ratio (z) = 0.24111 0.09727
#
# Static dielectric constant tensor:
#      x y z
#    x 1.677030 0.000000 0.000000 
#    y 0.000000 1.850550 0.000000 
#    z 0.000000 0.000000 -0.011940 
# 
# From -- ./inp_files/10082.got.cif
#   From: 2010.05.17/outbox.cif.g08.bks.cpg/sg20_6_cif.got.tgz:10082.got - 2010.06.03 22:52:26.
