data_PCOD9320974
_publ_section_title
;
Structure prediction by ZEFSAII (Michael W. Deem and Ramdas Pophale) SiO2 
 PCOD9320974
Probable space group: C 2 2 21
;
_chemical_formula_sum "Si O2"
_cell_formula_units_Z 36
_cell_length_a 8.437617
_cell_length_b 21.626742
_cell_length_c 8.994220
_cell_angle_alpha 90.000000
_cell_angle_beta 90.000000
_cell_angle_gamma 90.000000
_cell_volume 1641.248770
_symmetry_space_group_name_H-M "C 2 2 21"
_symmetry_group_IT_number 20
_symmetry_cell_setting 'orthorhombic'
loop_
_space_group_symop_operation_xyz
x,y,z
-x,-y,1/2+z
x,-y,-z
-x,y,1/2-z
1/2+x,1/2+y,z
1/2-x,1/2-y,1/2+z
1/2+x,1/2-y,-z
1/2-x,1/2+y,1/2-z
loop_
_atom_site_type_symbol
_atom_site_label
_atom_site_fract_x
_atom_site_fract_y
_atom_site_fract_z
Si Si1 0.822106 0.821247 0.259380
Si Si2 0.633494 0.000000 0.000000
Si Si3 0.106394 0.607481 0.521926
Si Si4 0.313415 0.419820 0.761959
Si Si5 0.672768 0.193791 0.062601
O O1 0.704843 0.868599 0.339255
O O2 0.832301 0.760008 0.360733
O O3 0.000000 0.847108 0.250000
O O4 0.752453 0.803972 0.099243
O O5 0.520572 0.945283 0.056453
O O6 0.737240 0.971554 0.868023
O O7 0.224548 0.582272 0.395602
O O8 0.002043 0.664138 0.455402
O O9 0.500000 0.428257 0.750000
O O10 0.273935 0.354177 0.839456
#
# Coordination Sequence:
#
# PCOD9320974 Si02
#       5
#     8   4   8   8   8
#     4  12  24  40  67 102 137 174 222 274 326 392
#     4  10  24  46  70  96 130 176 220 268 334 392
#     4  11  25  46  69  95 134 179 219 269 333 396
#     4  11  24  45  71  99 131 171 223 278 325 387
#     4  11  23  41  67  99 138 177 217 267 336 396
#
# _framework density 21.934519000000002
#
# number of rings (size 3 to 8) (size 9 to 14) (size 15 to 20)
#    0.000    0.889    0.000    8.667    0.000    9.778 
#    0.000    5.556    0.000    0.000    0.000    0.000 
#    0.000    0.000    0.000    0.000    0.000    0.000 
#
# Total GULP energy -100933.497273 kJ/mol
# GULP energy per Si atom -5607.416515 kJ/mol
# Density = 2.188460 g / cm^3
# Si number density = 21.934519 Si / 1000 Ang^3
#
#
#
# Elastic Constant Matrix: (Units=GPa)
#
#
# Indices 1 2 3 4 5 6 
#
# 1 187.7040 52.9417 50.9154 0.0000 0.0000 0.0000
# 2 52.9417 68.9825 23.7439 0.0000 0.0000 0.0000
# 3 50.9154 23.7439 92.8441 0.0000 0.0000 0.0000
# 4 0.0000 0.0000 0.0000 34.5723 0.0000 0.0000
# 5 0.0000 0.0000 0.0000 0.0000 12.8248 0.0000
# 6 0.0000 0.0000 0.0000 0.0000 0.0000 7.6242
#
#
#
# Elastic Compliance Matrix: (Units=1/GPa)
#
#
# Indices 1 2 3 4 5 6 
#
# 1 0.007438 -0.004720 -0.002872 0.000000 0.000000 0.000000
# 2 -0.004720 0.018891 -0.002243 0.000000 0.000000 0.000000
# 3 -0.002872 -0.002243 0.012919 0.000000 0.000000 0.000000
# 4 0.000000 0.000000 0.000000 0.028925 0.000000 0.000000
# 5 0.000000 0.000000 0.000000 0.000000 0.077974 0.000000
# 6 0.000000 0.000000 0.000000 0.000000 0.000000 0.131161
#
#
# Mechanical properties :
#
#
# Convention : Reuss Voigt Hill
#
# Bulk Modulus (GPa) = 51.07537 67.19251 59.13394
# Shear Modulus (GPa) = 16.47434 25.79958 21.13696
#
# Velocity S-wave (km/s) = 2.74354 3.43331 3.10762
# Velocity P-wave (km/s) = 5.77684 6.81297 6.31619
#
# Compressibility (1/GPa) = 0.01957891
#
# Stress axis : x y z
#
# Youngs Moduli (GPa) = 134.44994 52.93634 77.40421
#
# Poissons Ratio (x) = 0.24984 0.22229
# Poissons Ratio (y) = 0.63457 0.17360
# Poissons Ratio (z) = 0.38611 0.11873
#
# Static dielectric constant tensor:
#      x y z
#    x 1.773410 0.000000 0.000000 
#    y 0.000000 1.790800 0.000000 
#    z 0.000000 0.000000 1.779670 
# 
# From -- ./inp_files/5918.got.cif
#   From: 2010.05.17/outbox.cif.g08.bks.cpg/sg20_3_cif.got.tgz:5918.got - 2010.06.03 22:52:26.
