data_PCOD9320201
_publ_section_title
;
Structure prediction by ZEFSAII (Michael W. Deem and Ramdas Pophale) SiO2 
 PCOD9320201
Probable space group: C 2 2 21
;
_chemical_formula_sum "Si O2"
_cell_formula_units_Z 36
_cell_length_a 15.572120
_cell_length_b 8.781421
_cell_length_c 12.526242
_cell_angle_alpha 90.000000
_cell_angle_beta 90.000000
_cell_angle_gamma 90.000000
_cell_volume 1712.905241
_symmetry_space_group_name_H-M "C 2 2 21"
_symmetry_group_IT_number 20
_symmetry_cell_setting 'orthorhombic'
loop_
_space_group_symop_operation_xyz
x,y,z
-x,-y,1/2+z
x,-y,-z
-x,y,1/2-z
1/2+x,1/2+y,z
1/2-x,1/2-y,1/2+z
1/2+x,1/2-y,-z
1/2-x,1/2+y,1/2-z
loop_
_atom_site_type_symbol
_atom_site_label
_atom_site_fract_x
_atom_site_fract_y
_atom_site_fract_z
Si Si1 0.329813 0.554199 0.791109
Si Si2 0.327270 0.088428 0.201410
Si Si3 0.914800 0.642301 0.625788
Si Si4 0.775568 0.500000 0.500000
Si Si5 0.430702 0.000000 0.000000
Si Si6 0.000000 0.909519 0.750000
O O1 0.322477 0.734105 0.771261
O O2 0.268948 0.478231 0.701614
O O3 0.429368 0.514878 0.804354
O O4 0.284351 0.488621 0.897656
O O5 0.382199 0.983242 0.285957
O O6 0.371561 0.081486 0.086365
O O7 0.841166 0.635040 0.534844
O O8 0.003923 0.599750 0.569596
O O9 0.938035 0.799029 0.682158
#
# Coordination Sequence:
#
# PCOD9320201 Si02
#       6
#     8   8   8   4   4   4
#     4  11  26  42  71  99 142 173 235 276 345 404
#     4  11  24  45  71 100 134 186 219 285 340 409
#     4  10  22  43  71  93 140 173 229 279 342 393
#     4   9  22  44  65  98 128 184 215 278 330 411
#     4  11  22  38  77  94 128 178 231 268 344 401
#     4  12  24  44  64 104 138 184 218 294 330 404
#
# _framework density 21.016925000000001
#
# number of rings (size 3 to 8) (size 9 to 14) (size 15 to 20)
#    0.000    1.333    2.222    2.667    6.222    1.778 
#    0.000    1.111    0.000    0.000    0.000    0.000 
#    0.000    0.000    0.000    0.000    0.000    0.000 
#
# Total GULP energy -100299.091644 kJ/mol
# GULP energy per Si atom -5572.171758 kJ/mol
# Density = 2.096909 g / cm^3
# Si number density = 21.016925 Si / 1000 Ang^3
#
#
#
# Elastic Constant Matrix: (Units=GPa)
#
#
# Indices 1 2 3 4 5 6 
#
# 1 167.6718 49.2338 42.1213 0.0000 0.0000 0.0000
# 2 49.2338 111.5834 14.6596 0.0000 0.0000 0.0000
# 3 42.1213 14.6596 47.2591 0.0000 0.0000 0.0000
# 4 0.0000 0.0000 0.0000 -4.4580 0.0000 0.0000
# 5 0.0000 0.0000 0.0000 0.0000 31.6582 0.0000
# 6 0.0000 0.0000 0.0000 0.0000 0.0000 21.0324
#
#
#
# Elastic Compliance Matrix: (Units=1/GPa)
#
#
# Indices 1 2 3 4 5 6 
#
# 1 0.008481 -0.002866 -0.006670 0.000000 0.000000 0.000000
# 2 -0.002866 0.010311 -0.000644 0.000000 0.000000 0.000000
# 3 -0.006670 -0.000644 0.027305 0.000000 0.000000 0.000000
# 4 0.000000 0.000000 0.000000 -0.224315 0.000000 0.000000
# 5 0.000000 0.000000 0.000000 0.000000 0.031587 0.000000
# 6 0.000000 0.000000 0.000000 0.000000 0.000000 0.047546
#
#
# Mechanical properties :
#
#
# Convention : Reuss Voigt Hill
#
# Bulk Modulus (GPa) = 38.85511 59.83819 49.34665
# Shear Modulus (GPa) = -71.28044 24.34649 -23.46697
#
# Velocity S-wave (km/s) = -5.83004 3.40725 -3.34514
# Velocity P-wave (km/s) = 5.17605 6.63419 2.93436
#
# Compressibility (1/GPa) = 0.02573664
#
# Stress axis : x y z
#
# Youngs Moduli (GPa) = 117.90841 96.98360 36.62366
#
# Poissons Ratio (x) = 0.27794 0.24429
# Poissons Ratio (y) = 0.33790 0.02359
# Poissons Ratio (z) = 0.78647 0.06247
#
# Static dielectric constant tensor:
#      x y z
#    x 1.763530 0.000000 0.000000 
#    y 0.000000 1.789900 0.000000 
#    z 0.000000 0.000000 1.829800 
# 
# From -- ./inp_files/20470.got.cif
#   From: 2010.05.17/outbox.cif.g08.bks.cpg/sg20_11_cif.got.tgz:20470.got - 2010.06.03 22:52:26.
