data_PCOD9320353
_publ_section_title
;
Structure prediction by ZEFSAII (Michael W. Deem and Ramdas Pophale) SiO2 
 PCOD9320353
Probable space group: C 2 2 21
;
_chemical_formula_sum "Si O2"
_cell_formula_units_Z 40
_cell_length_a 24.982702
_cell_length_b 7.334228
_cell_length_c 9.204710
_cell_angle_alpha 90.000000
_cell_angle_beta 90.000000
_cell_angle_gamma 90.000000
_cell_volume 1686.568267
_symmetry_space_group_name_H-M "C 2 2 21"
_symmetry_group_IT_number 20
_symmetry_cell_setting 'orthorhombic'
loop_
_space_group_symop_operation_xyz
x,y,z
-x,-y,1/2+z
x,-y,-z
-x,y,1/2-z
1/2+x,1/2+y,z
1/2-x,1/2-y,1/2+z
1/2+x,1/2-y,-z
1/2-x,1/2+y,1/2-z
loop_
_atom_site_type_symbol
_atom_site_label
_atom_site_fract_x
_atom_site_fract_y
_atom_site_fract_z
Si Si1 0.058104 0.818192 0.694060
Si Si2 0.830984 0.658546 0.256270
Si Si3 0.362138 0.500000 0.000000
Si Si4 0.710647 0.571420 0.275236
Si Si5 0.631925 0.294865 0.951760
Si Si6 0.904582 0.500000 0.000000
O O1 0.093442 0.985181 0.630497
O O2 0.089638 0.737198 0.831780
O O3 0.060726 0.662964 0.570088
O O4 0.000000 0.870748 0.750000
O O5 0.773932 0.561566 0.274727
O O6 0.861446 0.670453 0.408802
O O7 0.867098 0.581780 0.127524
O O8 0.812691 0.867257 0.230217
O O9 0.318887 0.360178 0.922630
O O10 0.687799 0.676909 0.135580
O O11 0.616123 0.500000 0.000000
#
# Coordination Sequence:
#
# PCOD9320353 Si02
#       6
#     8   8   4   8   8   4
#     4  11  26  48  75  98 135 185 237 297 362 399
#     4  11  25  42  68 102 148 186 229 277 352 426
#     4  10  22  46  68 106 136 180 240 298 336 426
#     4  10  23  38  70  99 144 186 226 279 353 421
#     4   9  23  45  65 102 135 179 237 287 339 424
#     4  12  28  46  64 108 148 184 232 294 348 432
#
# _framework density 23.716798000000001
#
# number of rings (size 3 to 8) (size 9 to 14) (size 15 to 20)
#    0.000    1.600    2.000    0.000   14.000    2.400 
#    0.000    1.000    0.000    0.000    0.000    0.000 
#    0.000    0.000    0.000    0.000    0.000    0.000 
#
# Total GULP energy -111608.855332 kJ/mol
# GULP energy per Si atom -5580.442767 kJ/mol
# Density = 2.366282 g / cm^3
# Si number density = 23.716798 Si / 1000 Ang^3
#
#
#
# Elastic Constant Matrix: (Units=GPa)
#
#
# Indices 1 2 3 4 5 6 
#
# 1 80.9417 8.9612 30.1058 0.0000 0.0000 0.0000
# 2 8.9612 73.1066 19.8223 0.0000 0.0000 0.0000
# 3 30.1058 19.8223 167.4252 0.0000 0.0000 0.0000
# 4 0.0000 0.0000 0.0000 55.3628 0.0000 0.0000
# 5 0.0000 0.0000 0.0000 0.0000 24.5234 0.0000
# 6 0.0000 0.0000 0.0000 0.0000 0.0000 18.5300
#
#
#
# Elastic Compliance Matrix: (Units=1/GPa)
#
#
# Indices 1 2 3 4 5 6 
#
# 1 0.013313 -0.001015 -0.002274 0.000000 0.000000 0.000000
# 2 -0.001015 0.014210 -0.001500 0.000000 0.000000 0.000000
# 3 -0.002274 -0.001500 0.006559 0.000000 0.000000 0.000000
# 4 0.000000 0.000000 0.000000 0.018063 0.000000 0.000000
# 5 0.000000 0.000000 0.000000 0.000000 0.040777 0.000000
# 6 0.000000 0.000000 0.000000 0.000000 0.000000 0.053966
#
#
# Mechanical properties :
#
#
# Convention : Reuss Voigt Hill
#
# Bulk Modulus (GPa) = 40.80947 48.80579 44.80763
# Shear Modulus (GPa) = 30.37046 37.18885 33.77966
#
# Velocity S-wave (km/s) = 3.58235 3.96414 3.77807
# Velocity P-wave (km/s) = 5.86134 6.44793 6.16162
#
# Compressibility (1/GPa) = 0.02450411
#
# Stress axis : x y z
#
# Youngs Moduli (GPa) = 75.11654 70.37410 152.45724
#
# Poissons Ratio (x) = 0.07145 0.34663
# Poissons Ratio (y) = 0.07627 0.22865
# Poissons Ratio (z) = 0.17079 0.10555
#
# Static dielectric constant tensor:
#      x y z
#    x 1.856080 0.000000 0.000000 
#    y 0.000000 2.298480 0.000000 
#    z 0.000000 0.000000 2.319460 
# 
# From -- ./inp_files/10544.got.cif
#   From: 2010.05.17/outbox.cif.g08.bks.cpg/sg20_6_cif.got.tgz:10544.got - 2010.06.03 22:52:26.
