data_PCOD9320372
_publ_section_title
;
Structure prediction by ZEFSAII (Michael W. Deem and Ramdas Pophale) SiO2 
 PCOD9320372
Probable space group: C 2 2 21
;
_chemical_formula_sum "Si O2"
_cell_formula_units_Z 40
_cell_length_a 10.574917
_cell_length_b 9.456639
_cell_length_c 17.195776
_cell_angle_alpha 90.000000
_cell_angle_beta 90.000000
_cell_angle_gamma 90.000000
_cell_volume 1719.632154
_symmetry_space_group_name_H-M "C 2 2 21"
_symmetry_group_IT_number 20
_symmetry_cell_setting 'orthorhombic'
loop_
_space_group_symop_operation_xyz
x,y,z
-x,-y,1/2+z
x,-y,-z
-x,y,1/2-z
1/2+x,1/2+y,z
1/2-x,1/2-y,1/2+z
1/2+x,1/2-y,-z
1/2-x,1/2+y,1/2-z
loop_
_atom_site_type_symbol
_atom_site_label
_atom_site_fract_x
_atom_site_fract_y
_atom_site_fract_z
Si Si1 0.729362 0.502284 0.341277
Si Si2 0.829674 0.847159 0.467476
Si Si3 0.896333 0.798541 0.047505
Si Si4 0.219059 0.320930 0.308650
Si Si5 0.485458 0.053239 0.159806
O O1 0.637327 0.440656 0.406069
O O2 0.739025 0.386880 0.272681
O O3 0.691685 0.654466 0.306859
O O4 0.873918 0.521429 0.370866
O O5 0.721893 0.739987 0.494246
O O6 0.825920 0.846705 0.373954
O O7 0.969875 0.810371 0.495222
O O8 0.795169 0.000000 0.500000
O O9 0.916104 0.669970 0.108462
O O10 0.098142 0.411685 0.336117
O O11 0.500000 0.101472 0.250000
#
# Coordination Sequence:
#
# PCOD9320372 Si02
#       5
#     8   8   8   8   8
#     4  11  25  46  77 106 145 188 251 300 365 429
#     4  12  29  46  73 107 152 192 245 298 376 437
#     4  12  28  47  77 103 150 193 246 302 366 444
#     4  11  24  48  73 108 145 192 241 305 360 437
#     4  10  22  46  73 107 140 189 240 303 366 429
#
# _framework density 23.260787000000001
#
# number of rings (size 3 to 8) (size 9 to 14) (size 15 to 20)
#    0.000    0.800    4.000    2.400    5.600    0.000 
#    7.200    0.000    0.000    0.000    0.000    0.000 
#    0.000    0.000    0.000    0.000    0.000    0.000 
#
# Total GULP energy -112048.512188 kJ/mol
# GULP energy per Si atom -5602.425609 kJ/mol
# Density = 2.320784 g / cm^3
# Si number density = 23.260787 Si / 1000 Ang^3
#
#
#
# Elastic Constant Matrix: (Units=GPa)
#
#
# Indices 1 2 3 4 5 6 
#
# 1 119.1668 18.4916 22.1409 0.0000 0.0000 0.0000
# 2 18.4916 127.9695 20.7594 0.0000 0.0000 0.0000
# 3 22.1409 20.7594 45.3234 0.0000 0.0000 0.0000
# 4 0.0000 0.0000 0.0000 30.9640 0.0000 0.0000
# 5 0.0000 0.0000 0.0000 0.0000 34.9382 0.0000
# 6 0.0000 0.0000 0.0000 0.0000 0.0000 39.9696
#
#
#
# Elastic Compliance Matrix: (Units=1/GPa)
#
#
# Indices 1 2 3 4 5 6 
#
# 1 0.009280 -0.000654 -0.004234 0.000000 0.000000 0.000000
# 2 -0.000654 0.008488 -0.003568 0.000000 0.000000 0.000000
# 3 -0.004234 -0.003568 0.025766 0.000000 0.000000 0.000000
# 4 0.000000 0.000000 0.000000 0.032296 0.000000 0.000000
# 5 0.000000 0.000000 0.000000 0.000000 0.028622 0.000000
# 6 0.000000 0.000000 0.000000 0.000000 0.000000 0.025019
#
#
# Mechanical properties :
#
#
# Convention : Reuss Voigt Hill
#
# Bulk Modulus (GPa) = 37.56310 46.13817 41.85063
# Shear Modulus (GPa) = 32.20498 36.57890 34.39194
#
# Velocity S-wave (km/s) = 3.72495 3.96985 3.84935
# Velocity P-wave (km/s) = 5.88932 6.39462 6.14716
#
# Compressibility (1/GPa) = 0.02662187
#
# Stress axis : x y z
#
# Youngs Moduli (GPa) = 107.76210 117.81763 38.81075
#
# Poissons Ratio (x) = 0.07707 0.16431
# Poissons Ratio (y) = 0.07049 0.13848
# Poissons Ratio (z) = 0.45622 0.42038
#
# Static dielectric constant tensor:
#      x y z
#    x 1.886240 0.000000 0.000000 
#    y 0.000000 1.872460 0.000000 
#    z 0.000000 0.000000 1.888240 
# 
# From -- ./inp_files/24075.got.cif
#   From: 2010.05.17/outbox.cif.g08.bks.cpg/sg20_13_cif.got.tgz:24075.got - 2010.06.03 22:52:26.
