data_PCOD9320474
_publ_section_title
;
Structure prediction by ZEFSAII (Michael W. Deem and Ramdas Pophale) SiO2 
 PCOD9320474
Probable space group: C 2 2 21
;
_chemical_formula_sum "Si O2"
_cell_formula_units_Z 36
_cell_length_a 22.249526
_cell_length_b 5.041261
_cell_length_c 13.681489
_cell_angle_alpha 90.000000
_cell_angle_beta 90.000000
_cell_angle_gamma 90.000000
_cell_volume 1534.593349
_symmetry_space_group_name_H-M "C 2 2 21"
_symmetry_group_IT_number 20
_symmetry_cell_setting 'orthorhombic'
loop_
_space_group_symop_operation_xyz
x,y,z
-x,-y,1/2+z
x,-y,-z
-x,y,1/2-z
1/2+x,1/2+y,z
1/2-x,1/2-y,1/2+z
1/2+x,1/2-y,-z
1/2-x,1/2+y,1/2-z
loop_
_atom_site_type_symbol
_atom_site_label
_atom_site_fract_x
_atom_site_fract_y
_atom_site_fract_z
Si Si1 0.675562 0.897935 0.888485
Si Si2 0.691933 0.447367 0.384924
Si Si3 0.422575 0.765483 0.930814
Si Si4 0.877292 0.126668 0.298278
Si Si5 0.000000 0.878065 0.250000
O O1 0.661164 0.590318 0.863527
O O2 0.740284 0.003311 0.848555
O O3 0.627207 0.076196 0.834589
O O4 0.672416 0.000000 0.000000
O O5 0.699174 0.500000 0.500000
O O6 0.646863 0.195661 0.393260
O O7 0.650780 0.611499 0.310139
O O8 0.466149 0.764601 0.838510
O O9 0.425057 0.500000 0.000000
O O10 0.440093 0.000000 0.000000
O O11 0.946066 0.043945 0.297401
#
# Coordination Sequence:
#
# PCOD9320474 Si02
#       5
#     8   8   8   8   4
#     4  11  24  41  65  96 129 163 204 259 320 377
#     4   9  21  40  65  94 126 163 209 259 315 377
#     4  10  23  41  65  93 124 167 214 261 312 373
#     4  11  24  42  64  93 127 168 211 257 311 372
#     4  10  26  44  66  92 128 170 216 260 308 370
#
# _framework density 23.458987
#
# number of rings (size 3 to 8) (size 9 to 14) (size 15 to 20)
#    0.000    1.778    0.000    2.000    0.000   22.222 
#    0.000    0.000    0.000    0.000    0.000    0.000 
#    0.000    0.000    0.000    0.000    0.000    0.000 
#
# Total GULP energy -100292.243308 kJ/mol
# GULP energy per Si atom -5571.791295 kJ/mol
# Density = 2.340559 g / cm^3
# Si number density = 23.458987 Si / 1000 Ang^3
#
#
#
# Elastic Constant Matrix: (Units=GPa)
#
#
# Indices 1 2 3 4 5 6 
#
# 1 138.0351 -7.3192 6.8131 0.0000 0.0000 0.0000
# 2 -7.3192 80.0007 15.3495 0.0000 0.0000 0.0000
# 3 6.8131 15.3495 60.2262 0.0000 0.0000 0.0000
# 4 0.0000 0.0000 0.0000 21.2741 0.0000 0.0000
# 5 0.0000 0.0000 0.0000 0.0000 12.0744 0.0000
# 6 0.0000 0.0000 0.0000 0.0000 0.0000 20.7441
#
#
#
# Elastic Compliance Matrix: (Units=1/GPa)
#
#
# Indices 1 2 3 4 5 6 
#
# 1 0.007343 0.000874 -0.001053 0.000000 0.000000 0.000000
# 2 0.000874 0.013247 -0.003475 0.000000 0.000000 0.000000
# 3 -0.001053 -0.003475 0.017609 0.000000 0.000000 0.000000
# 4 0.000000 0.000000 0.000000 0.047005 0.000000 0.000000
# 5 0.000000 0.000000 0.000000 0.000000 0.082820 0.000000
# 6 0.000000 0.000000 0.000000 0.000000 0.000000 0.048206
#
#
# Mechanical properties :
#
#
# Convention : Reuss Voigt Hill
#
# Bulk Modulus (GPa) = 32.37348 34.21651 33.29500
# Shear Modulus (GPa) = 21.38257 28.37977 24.88117
#
# Velocity S-wave (km/s) = 3.02236 3.48194 3.26026
# Velocity P-wave (km/s) = 5.09996 5.54820 5.32879
#
# Compressibility (1/GPa) = 0.03088948
#
# Stress axis : x y z
#
# Youngs Moduli (GPa) = 136.18657 75.49123 56.78958
#
# Poissons Ratio (x) = -0.06597 0.05982
# Poissons Ratio (y) = -0.11901 0.19734
# Poissons Ratio (z) = 0.14346 0.26233
#
# Static dielectric constant tensor:
#      x y z
#    x 1.922240 0.000000 0.000000 
#    y 0.000000 1.868920 0.000000 
#    z 0.000000 0.000000 1.915540 
# 
# From -- ./inp_files/21594.got.cif
#   From: 2010.05.17/outbox.cif.g08.bks.cpg/sg20_11_cif.got.tgz:21594.got - 2010.06.03 22:52:26.
