data_PCOD9320162
_publ_section_title
;
Structure prediction by ZEFSAII (Michael W. Deem and Ramdas Pophale) SiO2 
 PCOD9320162
Probable space group: C 2 2 21
;
_chemical_formula_sum "Si O2"
_cell_formula_units_Z 64
_cell_length_a 15.160747
_cell_length_b 8.723321
_cell_length_c 21.956357
_cell_angle_alpha 90.000000
_cell_angle_beta 90.000000
_cell_angle_gamma 90.000000
_cell_volume 2903.773502
_symmetry_space_group_name_H-M "C 2 2 21"
_symmetry_group_IT_number 20
_symmetry_cell_setting 'orthorhombic'
loop_
_space_group_symop_operation_xyz
x,y,z
-x,-y,1/2+z
x,-y,-z
-x,y,1/2-z
1/2+x,1/2+y,z
1/2-x,1/2-y,1/2+z
1/2+x,1/2-y,-z
1/2-x,1/2+y,1/2-z
loop_
_atom_site_type_symbol
_atom_site_label
_atom_site_fract_x
_atom_site_fract_y
_atom_site_fract_z
Si Si1 0.419626 0.000548 0.792710
Si Si2 0.335733 0.119638 0.098047
Si Si3 0.404546 0.347392 0.753734
Si Si4 0.240297 0.799026 0.094741
Si Si5 0.107253 0.819999 0.515699
Si Si6 0.277688 0.091047 0.301675
Si Si7 0.820254 0.293697 0.365732
Si Si8 0.399394 0.316378 0.507729
O O1 0.500000 0.951335 0.750000
O O2 0.417106 0.940710 0.861563
O O3 0.333422 0.936357 0.758825
O O4 0.417230 0.185661 0.789832
O O5 0.358175 0.202242 0.035498
O O6 0.281032 0.243453 0.135845
O O7 0.270381 0.975257 0.089776
O O8 0.500000 0.424816 0.750000
O O9 0.324379 0.435721 0.784808
O O10 0.373533 0.296101 0.686405
O O11 0.218062 0.753379 0.163962
O O12 0.328306 0.708853 0.072850
O O13 0.158313 0.761060 0.050285
O O14 0.003138 0.783411 0.517184
O O15 0.115855 0.000000 0.500000
O O16 0.319522 0.971148 0.348984
O O17 0.854443 0.250734 0.432018
O O18 0.394301 0.500000 0.500000
#
# Coordination Sequence:
#
# PCOD9320162 Si02
#       8
#     8   8   8   8   8   8   8   8
#     4  10  23  42  67  99 138 176 226 277 336 407
#     4  12  22  45  70  92 138 179 222 278 347 406
#     4  10  22  43  67 100 133 179 224 274 342 401
#     4  12  24  43  67  97 133 178 227 271 345 399
#     4  11  26  44  67 100 134 172 228 285 337 404
#     4  11  24  40  68 102 135 176 228 284 329 402
#     4  11  23  43  69  95 138 179 221 277 339 401
#     4  11  24  45  67  98 134 181 225 275 343 404
#
# _framework density 22.040286999999999
#
# number of rings (size 3 to 8) (size 9 to 14) (size 15 to 20)
#    0.000    1.000    5.000    1.125    3.500    1.000 
#    2.250    0.625    0.000    0.000    0.000    0.000 
#    0.000    0.000    0.000    0.000    0.000    0.000 
#
# Total GULP energy -178714.331511 kJ/mol
# GULP energy per Si atom -5584.822860 kJ/mol
# Density = 2.199012 g / cm^3
# Si number density = 22.040287 Si / 1000 Ang^3
#
#
#
# Elastic Constant Matrix: (Units=GPa)
#
#
# Indices 1 2 3 4 5 6 
#
# 1 88.6166 -0.3557 -11.0503 0.0000 0.0000 0.0000
# 2 -0.3557 54.6312 15.5448 0.0000 0.0000 0.0000
# 3 -11.0503 15.5448 35.1132 0.0000 0.0000 0.0000
# 4 0.0000 0.0000 0.0000 29.4079 0.0000 0.0000
# 5 0.0000 0.0000 0.0000 0.0000 27.4300 0.0000
# 6 0.0000 0.0000 0.0000 0.0000 0.0000 27.1195
#
#
#
# Elastic Compliance Matrix: (Units=1/GPa)
#
#
# Indices 1 2 3 4 5 6 
#
# 1 0.011805 -0.001122 0.004212 0.000000 0.000000 0.000000
# 2 -0.001122 0.021049 -0.009672 0.000000 0.000000 0.000000
# 3 0.004212 -0.009672 0.034086 0.000000 0.000000 0.000000
# 4 0.000000 0.000000 0.000000 0.034004 0.000000 0.000000
# 5 0.000000 0.000000 0.000000 0.000000 0.036456 0.000000
# 6 0.000000 0.000000 0.000000 0.000000 0.000000 0.036874
#
#
# Mechanical properties :
#
#
# Convention : Reuss Voigt Hill
#
# Bulk Modulus (GPa) = 18.59493 20.73761 19.66627
# Shear Modulus (GPa) = 24.34698 28.40630 26.37664
#
# Velocity S-wave (km/s) = 3.32725 3.59393 3.46316
# Velocity P-wave (km/s) = 4.81828 5.16248 4.99335
#
# Compressibility (1/GPa) = 0.05377811
#
# Stress axis : x y z
#
# Youngs Moduli (GPa) = 84.70805 47.50773 29.33722
#
# Poissons Ratio (x) = 0.05328 -0.12356
# Poissons Ratio (y) = 0.09500 0.28374
# Poissons Ratio (z) = -0.35676 0.45947
#
# Static dielectric constant tensor:
#      x y z
#    x 1.843600 0.000000 0.000000 
#    y 0.000000 1.814140 0.000000 
#    z 0.000000 0.000000 1.837120 
# 
# From -- ./inp_files/29383.got.cif
#   From: 2010.05.17/outbox.cif.g08.bks.cpg/sg20_15_cif.got.tgz:29383.got - 2010.06.03 22:52:26.
