data_PCOD9320071
_publ_section_title
;
Structure prediction by ZEFSAII (Michael W. Deem and Ramdas Pophale) SiO2 
 PCOD9320071
Probable space group: C 2 2 21
;
_chemical_formula_sum "Si O2"
_cell_formula_units_Z 40
_cell_length_a 19.630175
_cell_length_b 11.209526
_cell_length_c 8.252065
_cell_angle_alpha 90.000000
_cell_angle_beta 90.000000
_cell_angle_gamma 90.000000
_cell_volume 1815.825288
_symmetry_space_group_name_H-M "C 2 2 21"
_symmetry_group_IT_number 20
_symmetry_cell_setting 'orthorhombic'
loop_
_space_group_symop_operation_xyz
x,y,z
-x,-y,1/2+z
x,-y,-z
-x,y,1/2-z
1/2+x,1/2+y,z
1/2-x,1/2-y,1/2+z
1/2+x,1/2-y,-z
1/2-x,1/2+y,1/2-z
loop_
_atom_site_type_symbol
_atom_site_label
_atom_site_fract_x
_atom_site_fract_y
_atom_site_fract_z
Si Si1 0.785282 0.111029 0.110952
Si Si2 0.000000 0.614916 0.250000
Si Si3 0.902286 0.500000 0.000000
Si Si4 0.577896 0.591453 0.219204
Si Si5 0.196937 0.689950 0.387225
Si Si6 0.096871 0.183850 0.867937
O O1 0.866423 0.117002 0.142810
O O2 0.745613 0.107326 0.279828
O O3 0.763069 0.224541 0.006928
O O4 0.769181 0.000000 0.000000
O O5 0.949801 0.529671 0.151586
O O6 0.958064 0.708589 0.360452
O O7 0.853201 0.613700 0.000324
O O8 0.500000 0.630720 0.250000
O O9 0.575732 0.447508 0.197049
O O10 0.606912 0.654152 0.057082
O O11 0.154268 0.768954 0.257191
#
# Coordination Sequence:
#
# PCOD9320071 Si02
#       6
#     8   4   4   8   8   8
#     4  12  27  46  73 104 142 186 243 297 357 422
#     4  10  22  46  64 106 140 184 230 286 346 436
#     4  10  26  44  74  94 144 188 236 280 358 428
#     4  11  24  39  74 107 141 182 232 292 369 417
#     4  11  26  48  70 100 142 191 238 297 349 428
#     4  10  22  42  67 100 144 179 230 292 347 426
#
# _framework density 22.028551
#
# number of rings (size 3 to 8) (size 9 to 14) (size 15 to 20)
#    0.000    1.200    3.000    1.200   11.200    3.200 
#    7.200    0.000    0.000    0.000    0.000    0.000 
#    0.000    0.000    0.000    0.000    0.000    0.000 
#
# Total GULP energy -111642.102809 kJ/mol
# GULP energy per Si atom -5582.105140 kJ/mol
# Density = 2.197841 g / cm^3
# Si number density = 22.028551 Si / 1000 Ang^3
#
#
#
# Elastic Constant Matrix: (Units=GPa)
#
#
# Indices 1 2 3 4 5 6 
#
# 1 62.8299 35.7952 21.1572 0.0000 0.0000 0.0000
# 2 35.7952 109.0616 63.7729 0.0000 0.0000 0.0000
# 3 21.1572 63.7729 74.9857 0.0000 0.0000 0.0000
# 4 0.0000 0.0000 0.0000 47.4775 0.0000 0.0000
# 5 0.0000 0.0000 0.0000 0.0000 22.7984 0.0000
# 6 0.0000 0.0000 0.0000 0.0000 0.0000 -71.2472
#
#
#
# Elastic Compliance Matrix: (Units=1/GPa)
#
#
# Indices 1 2 3 4 5 6 
#
# 1 0.019577 -0.006357 -0.000117 0.000000 0.000000 0.000000
# 2 -0.006357 0.020304 -0.015474 0.000000 0.000000 0.000000
# 3 -0.000117 -0.015474 0.026529 0.000000 0.000000 0.000000
# 4 0.000000 0.000000 0.000000 0.021063 0.000000 0.000000
# 5 0.000000 0.000000 0.000000 0.000000 0.043863 0.000000
# 6 0.000000 0.000000 0.000000 0.000000 0.000000 -0.014036
#
#
# Mechanical properties :
#
#
# Convention : Reuss Voigt Hill
#
# Bulk Modulus (GPa) = 44.41794 54.25866 49.33830
# Shear Modulus (GPa) = 29.63813 8.21587 18.92700
#
# Velocity S-wave (km/s) = 3.67201 1.93332 2.93440
# Velocity P-wave (km/s) = 6.17946 5.44685 5.82469
#
# Compressibility (1/GPa) = 0.02251342
#
# Stress axis : x y z
#
# Youngs Moduli (GPa) = 51.08019 49.25147 37.69400
#
# Poissons Ratio (x) = 0.31308 0.00443
# Poissons Ratio (y) = 0.32470 0.58329
# Poissons Ratio (z) = 0.00600 0.76213
#
# Static dielectric constant tensor:
#      x y z
#    x 1.847880 0.000000 0.000000 
#    y 0.000000 1.788320 0.000000 
#    z 0.000000 0.000000 2.167230 
# 
# From -- ./inp_files/9161.got.cif
#   From: 2010.05.17/outbox.cif.g08.bks.cpg/sg20_5_cif.got.tgz:9161.got - 2010.06.03 22:52:26.
