data_PCOD9320832
_publ_section_title
;
Structure prediction by ZEFSAII (Michael W. Deem and Ramdas Pophale) SiO2 
 PCOD9320832
Probable space group: C 2 2 21
;
_chemical_formula_sum "Si O2"
_cell_formula_units_Z 64
_cell_length_a 15.090904
_cell_length_b 8.976757
_cell_length_c 21.405807
_cell_angle_alpha 90.000000
_cell_angle_beta 90.000000
_cell_angle_gamma 90.000000
_cell_volume 2899.788551
_symmetry_space_group_name_H-M "C 2 2 21"
_symmetry_group_IT_number 20
_symmetry_cell_setting 'orthorhombic'
loop_
_space_group_symop_operation_xyz
x,y,z
-x,-y,1/2+z
x,-y,-z
-x,y,1/2-z
1/2+x,1/2+y,z
1/2-x,1/2-y,1/2+z
1/2+x,1/2-y,-z
1/2-x,1/2+y,1/2-z
loop_
_atom_site_type_symbol
_atom_site_label
_atom_site_fract_x
_atom_site_fract_y
_atom_site_fract_z
Si Si1 0.380218 0.292502 0.953032
Si Si2 0.601871 0.874082 0.265975
Si Si3 0.313212 0.930152 0.362910
Si Si4 0.591807 0.770757 0.717910
Si Si5 0.816474 0.848862 0.459201
Si Si6 0.953397 0.638721 0.535973
Si Si7 0.629611 0.370112 0.409979
Si Si8 0.223251 0.228306 0.826841
O O1 0.282438 0.223197 0.957835
O O2 0.466443 0.213268 0.926336
O O3 0.376202 0.454293 0.922533
O O4 0.405864 0.302160 0.026418
O O5 0.500000 0.827781 0.250000
O O6 0.650808 0.855988 0.199489
O O7 0.600007 0.049739 0.284118
O O8 0.672188 0.803772 0.315276
O O9 0.286823 0.097917 0.344532
O O10 0.388266 0.934838 0.414286
O O11 0.233116 0.843190 0.395573
O O12 0.500000 0.736812 0.750000
O O13 0.585927 0.696789 0.650613
O O14 0.670147 0.707737 0.761916
O O15 0.891444 0.744348 0.491818
O O16 0.824571 0.863001 0.383388
O O17 0.815958 0.000000 0.500000
O O18 0.994795 0.500000 0.500000
#
# Coordination Sequence:
#
# PCOD9320832 Si02
#       8
#     8   8   8   8   8   8   8   8
#     4  11  26  42  73 101 138 187 236 299 350 425
#     4  10  24  42  69 105 137 181 238 292 347 423
#     4  11  22  44  72  96 141 187 230 283 358 423
#     4  10  24  43  71 100 139 193 232 293 361 428
#     4  12  27  44  67 107 143 184 241 295 354 430
#     4  12  25  46  72 104 138 187 233 292 366 418
#     4  11  22  46  68 100 142 187 235 291 362 415
#     4  11  23  43  70 101 140 187 238 291 351 431
#
# _framework density 22.070575000000002
#
# number of rings (size 3 to 8) (size 9 to 14) (size 15 to 20)
#    0.000    1.000    5.000    0.375    7.000    1.000 
#    0.000    1.875    0.000    0.000    0.000    0.000 
#    0.000    0.000    0.000    0.000    0.000    0.000 
#
# Total GULP energy -178572.849809 kJ/mol
# GULP energy per Si atom -5580.401557 kJ/mol
# Density = 2.202034 g / cm^3
# Si number density = 22.070575 Si / 1000 Ang^3
#
#
#
# Elastic Constant Matrix: (Units=GPa)
#
#
# Indices 1 2 3 4 5 6 
#
# 1 124.0146 20.6229 -4.8499 0.0000 0.0000 0.0000
# 2 20.6229 31.4779 -7.1534 0.0000 0.0000 0.0000
# 3 -4.8499 -7.1534 49.5458 0.0000 0.0000 0.0000
# 4 0.0000 0.0000 0.0000 12.5362 0.0000 0.0000
# 5 0.0000 0.0000 0.0000 0.0000 38.4023 0.0000
# 6 0.0000 0.0000 0.0000 0.0000 0.0000 37.6187
#
#
#
# Elastic Compliance Matrix: (Units=1/GPa)
#
#
# Indices 1 2 3 4 5 6 
#
# 1 0.009050 -0.005922 0.000031 0.000000 0.000000 0.000000
# 2 -0.005922 0.036721 0.004722 0.000000 0.000000 0.000000
# 3 0.000031 0.004722 0.020868 0.000000 0.000000 0.000000
# 4 0.000000 0.000000 0.000000 0.079769 0.000000 0.000000
# 5 0.000000 0.000000 0.000000 0.000000 0.026040 0.000000
# 6 0.000000 0.000000 0.000000 0.000000 0.000000 0.026583
#
#
# Mechanical properties :
#
#
# Convention : Reuss Voigt Hill
#
# Bulk Modulus (GPa) = 15.55185 24.69750 20.12467
# Shear Modulus (GPa) = 22.44142 30.80601 26.62372
#
# Velocity S-wave (km/s) = 3.19219 3.74009 3.47695
# Velocity P-wave (km/s) = 4.54406 5.46494 5.02564
#
# Compressibility (1/GPa) = 0.06430103
#
# Stress axis : x y z
#
# Youngs Moduli (GPa) = 110.50275 27.23225 47.91993
#
# Poissons Ratio (x) = 0.16127 -0.00148
# Poissons Ratio (y) = 0.65438 -0.22628
# Poissons Ratio (z) = -0.00341 -0.12859
#
# Static dielectric constant tensor:
#      x y z
#    x 1.839390 0.000000 0.000000 
#    y 0.000000 1.806670 0.000000 
#    z 0.000000 0.000000 1.855310 
# 
# From -- ./inp_files/29349.got.cif
#   From: 2010.05.17/outbox.cif.g08.bks.cpg/sg20_15_cif.got.tgz:29349.got - 2010.06.03 22:52:26.
