data_PCOD9320241
_publ_section_title
;
Structure prediction by ZEFSAII (Michael W. Deem and Ramdas Pophale) SiO2 
 PCOD9320241
Probable space group: C 2 2 21
;
_chemical_formula_sum "Si O2"
_cell_formula_units_Z 56
_cell_length_a 11.016722
_cell_length_b 11.914726
_cell_length_c 19.817274
_cell_angle_alpha 90.000000
_cell_angle_beta 90.000000
_cell_angle_gamma 90.000000
_cell_volume 2601.239643
_symmetry_space_group_name_H-M "C 2 2 21"
_symmetry_group_IT_number 20
_symmetry_cell_setting 'orthorhombic'
loop_
_space_group_symop_operation_xyz
x,y,z
-x,-y,1/2+z
x,-y,-z
-x,y,1/2-z
1/2+x,1/2+y,z
1/2-x,1/2-y,1/2+z
1/2+x,1/2-y,-z
1/2-x,1/2+y,1/2-z
loop_
_atom_site_type_symbol
_atom_site_label
_atom_site_fract_x
_atom_site_fract_y
_atom_site_fract_z
Si Si1 0.270833 0.500000 0.500000
Si Si2 0.844542 0.808104 0.592821
Si Si3 0.798072 0.572359 0.563567
Si Si4 0.721780 0.472518 0.707788
Si Si5 0.870110 0.343676 0.811764
Si Si6 0.574968 0.046771 0.601573
Si Si7 0.930997 0.756029 0.820336
Si Si8 0.000000 0.867780 0.250000
O O1 0.343938 0.418655 0.548278
O O2 0.179209 0.567717 0.547463
O O3 0.782490 0.705230 0.553399
O O4 0.764269 0.817505 0.660497
O O5 0.978090 0.784216 0.618886
O O6 0.753372 0.500000 0.500000
O O7 0.750920 0.537837 0.638170
O O8 0.943291 0.561064 0.570141
O O9 0.841135 0.426932 0.748268
O O10 0.664280 0.354583 0.684927
O O11 0.618486 0.546136 0.749794
O O12 0.923589 0.420736 0.870426
O O13 0.946686 0.229419 0.801298
O O14 0.608546 0.130825 0.662151
O O15 0.000000 0.752813 0.750000
#
# Coordination Sequence:
#
# PCOD9320241 Si02
#       8
#     4   8   8   8   8   8   8   4
#     4  10  22  46  66  94 130 178 232 280 328 420
#     4  10  22  44  67  94 132 175 226 281 337 416
#     4  11  24  44  65  94 136 178 227 281 338 417
#     4  12  25  43  68 101 140 177 226 290 352 412
#     4  11  23  42  70 101 134 176 225 287 354 401
#     4  10  24  42  69  96 132 178 232 276 344 422
#     4  11  23  42  66  98 134 175 220 287 355 413
#     4  12  24  42  66 110 138 170 232 290 342 420
#
# _framework density 21.528198
#
# number of rings (size 3 to 8) (size 9 to 14) (size 15 to 20)
#    0.000    1.143    4.286    0.857    9.000    0.000 
#    1.286    1.429    0.000    0.000    0.000    0.000 
#    0.000    0.000    0.000    0.000    0.000    0.000 
#
# Total GULP energy -155927.182114 kJ/mol
# GULP energy per Si atom -5568.827933 kJ/mol
# Density = 2.147920 g / cm^3
# Si number density = 21.528198 Si / 1000 Ang^3
#
#
#
# Elastic Constant Matrix: (Units=GPa)
#
#
# Indices 1 2 3 4 5 6 
#
# 1 25.9999 9.9047 17.7731 0.0000 0.0000 0.0000
# 2 9.9047 71.4730 10.5674 0.0000 0.0000 0.0000
# 3 17.7731 10.5674 60.9724 0.0000 0.0000 0.0000
# 4 0.0000 0.0000 0.0000 43.0512 0.0000 0.0000
# 5 0.0000 0.0000 0.0000 0.0000 37.5074 0.0000
# 6 0.0000 0.0000 0.0000 0.0000 0.0000 351.5999
#
#
#
# Elastic Compliance Matrix: (Units=1/GPa)
#
#
# Indices 1 2 3 4 5 6 
#
# 1 0.049627 -0.004863 -0.013623 0.000000 0.000000 0.000000
# 2 -0.004863 0.014836 -0.001154 0.000000 0.000000 0.000000
# 3 -0.013623 -0.001154 0.020572 0.000000 0.000000 0.000000
# 4 0.000000 0.000000 0.000000 0.023228 0.000000 0.000000
# 5 0.000000 0.000000 0.000000 0.000000 0.026661 0.000000
# 6 0.000000 0.000000 0.000000 0.000000 0.000000 0.002844
#
#
# Mechanical properties :
#
#
# Convention : Reuss Voigt Hill
#
# Bulk Modulus (GPa) = 21.85566 26.10396 23.97981
# Shear Modulus (GPa) = 26.00116 94.44505 60.22311
#
# Velocity S-wave (km/s) = 3.47907 6.63066 5.29479
# Velocity P-wave (km/s) = 5.12959 8.41265 6.96726
#
# Compressibility (1/GPa) = 0.04575474
#
# Stress axis : x y z
#
# Youngs Moduli (GPa) = 20.15047 67.40459 48.61011
#
# Poissons Ratio (x) = 0.32779 0.66222
# Poissons Ratio (y) = 0.09799 0.05608
# Poissons Ratio (z) = 0.27451 0.07777
#
# Static dielectric constant tensor:
#      x y z
#    x 1.811810 0.000000 0.000000 
#    y 0.000000 1.833150 0.000000 
#    z 0.000000 0.000000 1.632980 
# 
# From -- ./inp_files/27247.got.cif
#   From: 2010.05.17/outbox.cif.g08.bks.cpg/sg20_14_cif.got.tgz:27247.got - 2010.06.03 22:52:26.
