data_PCOD9320744
_publ_section_title
;
Structure prediction by ZEFSAII (Michael W. Deem and Ramdas Pophale) SiO2 
 PCOD9320744
Probable space group: C 2 2 21
;
_chemical_formula_sum "Si O2"
_cell_formula_units_Z 44
_cell_length_a 8.239216
_cell_length_b 23.206767
_cell_length_c 9.679009
_cell_angle_alpha 90.000000
_cell_angle_beta 90.000000
_cell_angle_gamma 90.000000
_cell_volume 1850.680394
_symmetry_space_group_name_H-M "C 2 2 21"
_symmetry_group_IT_number 20
_symmetry_cell_setting 'orthorhombic'
loop_
_space_group_symop_operation_xyz
x,y,z
-x,-y,1/2+z
x,-y,-z
-x,y,1/2-z
1/2+x,1/2+y,z
1/2-x,1/2-y,1/2+z
1/2+x,1/2-y,-z
1/2-x,1/2+y,1/2-z
loop_
_atom_site_type_symbol
_atom_site_label
_atom_site_fract_x
_atom_site_fract_y
_atom_site_fract_z
Si Si1 0.000000 0.418378 0.750000
Si Si2 0.000000 0.859116 0.750000
Si Si3 0.500000 0.380784 0.250000
Si Si4 0.705264 0.543090 0.402936
Si Si5 0.625814 0.698827 0.981561
Si Si6 0.841410 0.409144 0.328046
Si Si7 0.996914 0.676644 0.005342
O O1 0.160356 0.457511 0.778278
O O2 0.017819 0.373025 0.622110
O O3 0.898752 0.902935 0.847645
O O4 0.904150 0.818735 0.641675
O O5 0.483798 0.341637 0.385088
O O6 0.668817 0.414771 0.254519
O O7 0.591423 0.500000 0.500000
O O8 0.819328 0.444120 0.466670
O O9 0.573923 0.763640 0.946446
O O10 0.815254 0.688145 0.951589
O O11 0.000000 0.427204 0.250000
O O12 0.884493 0.345697 0.384384
#
# Coordination Sequence:
#
# PCOD9320744 Si02
#       7
#     4   4   4   8   8   8   8
#     4  10  23  48  68 104 150 186 256 323 380 470
#     4  12  26  49  70 114 158 194 253 328 390 480
#     4  12  23  43  66 100 138 196 243 305 368 460
#     4  11  26  48  76 107 140 202 260 330 399 458
#     4  12  25  40  69 103 154 200 249 307 388 479
#     4  11  24  44  69 102 143 185 257 321 377 459
#     4  11  24  40  67 103 146 203 239 305 388 474
#
# _framework density 23.775037999999999
#
# number of rings (size 3 to 8) (size 9 to 14) (size 15 to 20)
#    0.000    0.727    5.455    1.636    5.091    2.182 
#    0.000    0.909    0.000    0.000    0.000    0.000 
#    0.000    0.000    0.000    0.000    0.000    0.000 
#
# Total GULP energy -122551.015330 kJ/mol
# GULP energy per Si atom -5570.500697 kJ/mol
# Density = 2.372093 g / cm^3
# Si number density = 23.775038 Si / 1000 Ang^3
#
#
#
# Elastic Constant Matrix: (Units=GPa)
#
#
# Indices 1 2 3 4 5 6 
#
# 1 146.9258 29.0257 27.1900 0.0000 0.0000 0.0000
# 2 29.0257 83.6367 30.0980 0.0000 0.0000 0.0000
# 3 27.1900 30.0980 99.5902 0.0000 0.0000 0.0000
# 4 0.0000 0.0000 0.0000 40.2572 0.0000 0.0000
# 5 0.0000 0.0000 0.0000 0.0000 38.8862 0.0000
# 6 0.0000 0.0000 0.0000 0.0000 0.0000 44.4424
#
#
#
# Elastic Compliance Matrix: (Units=1/GPa)
#
#
# Indices 1 2 3 4 5 6 
#
# 1 0.007480 -0.002088 -0.001411 0.000000 0.000000 0.000000
# 2 -0.002088 0.013998 -0.003661 0.000000 0.000000 0.000000
# 3 -0.001411 -0.003661 0.011533 0.000000 0.000000 0.000000
# 4 0.000000 0.000000 0.000000 0.024840 0.000000 0.000000
# 5 0.000000 0.000000 0.000000 0.000000 0.025716 0.000000
# 6 0.000000 0.000000 0.000000 0.000000 0.000000 0.022501
#
#
# Mechanical properties :
#
#
# Convention : Reuss Voigt Hill
#
# Bulk Modulus (GPa) = 53.49986 55.86446 54.68216
# Shear Modulus (GPa) = 39.48885 40.97309 40.23097
#
# Velocity S-wave (km/s) = 4.07988 4.15585 4.11804
# Velocity P-wave (km/s) = 6.68919 6.82468 6.75727
#
# Compressibility (1/GPa) = 0.01869164
#
# Stress axis : x y z
#
# Youngs Moduli (GPa) = 133.69364 71.43676 86.71012
#
# Poissons Ratio (x) = 0.14916 0.12236
# Poissons Ratio (y) = 0.27915 0.31740
# Poissons Ratio (z) = 0.18865 0.26149
#
# Static dielectric constant tensor:
#      x y z
#    x 1.971380 0.000000 0.000000 
#    y 0.000000 2.359380 0.000000 
#    z 0.000000 0.000000 1.893330 
# 
# From -- ./inp_files/13044.got.cif
#   From: 2010.05.17/outbox.cif.g08.bks.cpg/sg20_7_cif.got.tgz:13044.got - 2010.06.03 22:52:26.
