data_PCOD9320143
_publ_section_title
;
Structure prediction by ZEFSAII (Michael W. Deem and Ramdas Pophale) SiO2 
 PCOD9320143
Probable space group: C 2 2 21
;
_chemical_formula_sum "Si O2"
_cell_formula_units_Z 32
_cell_length_a 7.808162
_cell_length_b 19.046841
_cell_length_c 9.964286
_cell_angle_alpha 90.000000
_cell_angle_beta 90.000000
_cell_angle_gamma 90.000000
_cell_volume 1481.896786
_symmetry_space_group_name_H-M "C 2 2 21"
_symmetry_group_IT_number 20
_symmetry_cell_setting 'orthorhombic'
loop_
_space_group_symop_operation_xyz
x,y,z
-x,-y,1/2+z
x,-y,-z
-x,y,1/2-z
1/2+x,1/2+y,z
1/2-x,1/2-y,1/2+z
1/2+x,1/2-y,-z
1/2-x,1/2+y,1/2-z
loop_
_atom_site_type_symbol
_atom_site_label
_atom_site_fract_x
_atom_site_fract_y
_atom_site_fract_z
Si Si1 0.500000 0.919613 0.250000
Si Si2 0.912551 0.786938 0.940607
Si Si3 0.355956 0.000000 0.000000
Si Si4 0.982030 0.944227 0.600721
Si Si5 0.729420 0.211383 0.796525
O O1 0.535563 0.966213 0.380916
O O2 0.336693 0.867715 0.269585
O O3 0.767628 0.752914 0.843722
O O4 0.934465 0.868594 0.907370
O O5 0.077770 0.746657 0.885098
O O6 0.883792 0.783095 0.099549
O O7 0.219278 0.943166 0.940531
O O8 0.000000 0.972248 0.750000
O O9 0.063746 0.000000 0.500000
#
# Coordination Sequence:
#
# PCOD9320143 Si02
#       5
#     4   8   4   8   8
#     4  10  24  46  62  98 134 170 230 272 336 396
#     4  10  22  43  64  95 132 167 221 268 334 395
#     4  10  26  42  64  96 140 174 222 276 336 400
#     4  10  23  40  66  98 130 175 222 272 329 405
#     4  10  24  41  67  93 132 169 221 277 321 405
#
# _framework density 21.593945999999999
#
# number of rings (size 3 to 8) (size 9 to 14) (size 15 to 20)
#    0.750    1.500    2.500    0.000   10.500    3.000 
#    0.000    0.000    0.000    0.000    0.000    0.000 
#    0.000    0.000    0.000    0.000    0.000    0.000 
#
# Total GULP energy -89244.466601 kJ/mol
# GULP energy per Si atom -5577.779163 kJ/mol
# Density = 2.154480 g / cm^3
# Si number density = 21.593946 Si / 1000 Ang^3
#
#
#
# Elastic Constant Matrix: (Units=GPa)
#
#
# Indices 1 2 3 4 5 6 
#
# 1 46.8667 25.4100 30.7518 0.0000 0.0000 0.0000
# 2 25.4100 93.3993 76.3438 0.0000 0.0000 0.0000
# 3 30.7518 76.3438 169.6068 0.0000 0.0000 0.0000
# 4 0.0000 0.0000 0.0000 30.1616 0.0000 0.0000
# 5 0.0000 0.0000 0.0000 0.0000 46.2022 0.0000
# 6 0.0000 0.0000 0.0000 0.0000 0.0000 -2.0729
#
#
#
# Elastic Compliance Matrix: (Units=1/GPa)
#
#
# Indices 1 2 3 4 5 6 
#
# 1 0.025625 -0.005021 -0.002386 0.000000 0.000000 0.000000
# 2 -0.005021 0.017923 -0.007157 0.000000 0.000000 0.000000
# 3 -0.002386 -0.007157 0.009550 0.000000 0.000000 0.000000
# 4 0.000000 0.000000 0.000000 0.033155 0.000000 0.000000
# 5 0.000000 0.000000 0.000000 0.000000 0.021644 0.000000
# 6 0.000000 0.000000 0.000000 0.000000 0.000000 -0.482423
#
#
# Mechanical properties :
#
#
# Convention : Reuss Voigt Hill
#
# Bulk Modulus (GPa) = 41.71955 63.87599 52.79777
# Shear Modulus (GPa) = -14.81885 26.68268 5.93191
#
# Velocity S-wave (km/s) = -2.62248 3.51900 1.65921
# Velocity P-wave (km/s) = 3.19251 6.79381 5.30792
#
# Compressibility (1/GPa) = 0.02396958
#
# Stress axis : x y z
#
# Youngs Moduli (GPa) = 39.02429 55.79443 104.71022
#
# Poissons Ratio (x) = 0.28016 0.24984
# Poissons Ratio (y) = 0.19595 0.74942
# Poissons Ratio (z) = 0.09311 0.39933
#
# Static dielectric constant tensor:
#      x y z
#    x 1.885580 0.000000 0.000000 
#    y 0.000000 1.767350 0.000000 
#    z 0.000000 0.000000 1.777290 
# 
# From -- ./inp_files/7005.got.cif
#   From: 2010.05.17/outbox.cif.g08.bks.cpg/sg20_4_cif.got.tgz:7005.got - 2010.06.03 22:52:26.
