data_PCOD9320297
_publ_section_title
;
Structure prediction by ZEFSAII (Michael W. Deem and Ramdas Pophale) SiO2 
 PCOD9320297
Probable space group: C 2 2 21
;
_chemical_formula_sum "Si O2"
_cell_formula_units_Z 40
_cell_length_a 13.996387
_cell_length_b 9.287217
_cell_length_c 11.673261
_cell_angle_alpha 90.000000
_cell_angle_beta 90.000000
_cell_angle_gamma 90.000000
_cell_volume 1517.377819
_symmetry_space_group_name_H-M "C 2 2 21"
_symmetry_group_IT_number 20
_symmetry_cell_setting 'orthorhombic'
loop_
_space_group_symop_operation_xyz
x,y,z
-x,-y,1/2+z
x,-y,-z
-x,y,1/2-z
1/2+x,1/2+y,z
1/2-x,1/2-y,1/2+z
1/2+x,1/2-y,-z
1/2-x,1/2+y,1/2-z
loop_
_atom_site_type_symbol
_atom_site_label
_atom_site_fract_x
_atom_site_fract_y
_atom_site_fract_z
Si Si1 0.815483 0.500000 0.000000
Si Si2 0.000000 0.559821 0.250000
Si Si3 0.000000 0.071775 0.250000
Si Si4 0.689695 0.739342 0.941283
Si Si5 0.500442 0.180026 0.574070
Si Si6 0.368440 0.669268 0.782087
Si Si7 0.811668 0.000000 0.000000
O O1 0.737299 0.626254 0.029886
O O2 0.896608 0.609620 0.950726
O O3 0.959107 0.449109 0.345004
O O4 0.919137 0.674360 0.209945
O O5 0.978215 0.177606 0.146424
O O6 0.077287 0.956084 0.211467
O O7 0.713754 0.687459 0.810990
O O8 0.579541 0.774052 0.979794
O O9 0.742489 0.889403 0.939577
O O10 0.363269 0.596933 0.905214
#
# Coordination Sequence:
#
# PCOD9320297 Si02
#       7
#     4   4   4   8   8   8   4
#     4  12  25  44  79 116 158 210 259 324 397 462
#     4  10  22  44  80 112 156 206 256 324 396 462
#     4  10  24  44  74 106 150 202 256 324 394 464
#     4  12  27  47  78 113 155 207 264 326 397 474
#     4  11  24  48  75 115 157 201 262 328 392 471
#     4  11  25  46  72 110 151 203 261 320 392 475
#     4  12  27  46  71 108 154 200 257 324 389 472
#
# _framework density 26.361265
#
# number of rings (size 3 to 8) (size 9 to 14) (size 15 to 20)
#    0.000    0.800    0.000    6.600    0.000   12.800 
#    0.000    1.000    0.000    0.000    0.000    0.000 
#    0.000    0.000    0.000    0.000    0.000    0.000 
#
# Total GULP energy -111346.509350 kJ/mol
# GULP energy per Si atom -5567.325468 kJ/mol
# Density = 2.630127 g / cm^3
# Si number density = 26.361265 Si / 1000 Ang^3
#
#
#
# Elastic Constant Matrix: (Units=GPa)
#
#
# Indices 1 2 3 4 5 6 
#
# 1 85.7682 32.6467 31.8059 0.0000 0.0000 0.0000
# 2 32.6467 196.7762 45.2200 0.0000 0.0000 0.0000
# 3 31.8059 45.2200 112.3452 0.0000 0.0000 0.0000
# 4 0.0000 0.0000 0.0000 56.9730 0.0000 0.0000
# 5 0.0000 0.0000 0.0000 0.0000 7.9509 0.0000
# 6 0.0000 0.0000 0.0000 0.0000 0.0000 23.9105
#
#
#
# Elastic Compliance Matrix: (Units=1/GPa)
#
#
# Indices 1 2 3 4 5 6 
#
# 1 0.013412 -0.001490 -0.003197 0.000000 0.000000 0.000000
# 2 -0.001490 0.005766 -0.001899 0.000000 0.000000 0.000000
# 3 -0.003197 -0.001899 0.010571 0.000000 0.000000 0.000000
# 4 0.000000 0.000000 0.000000 0.017552 0.000000 0.000000
# 5 0.000000 0.000000 0.000000 0.000000 0.125772 0.000000
# 6 0.000000 0.000000 0.000000 0.000000 0.000000 0.041823
#
#
# Mechanical properties :
#
#
# Convention : Reuss Voigt Hill
#
# Bulk Modulus (GPa) = 60.32972 68.24832 64.28902
# Shear Modulus (GPa) = 21.40475 36.78134 29.09305
#
# Velocity S-wave (km/s) = 2.85261 3.73940 3.32569
# Velocity P-wave (km/s) = 5.81251 6.67757 6.26000
#
# Compressibility (1/GPa) = 0.01657558
#
# Stress axis : x y z
#
# Youngs Moduli (GPa) = 74.55841 173.44463 94.60252
#
# Poissons Ratio (x) = 0.25851 0.30246
# Poissons Ratio (y) = 0.11113 0.17962
# Poissons Ratio (z) = 0.23838 0.32932
#
# Static dielectric constant tensor:
#      x y z
#    x 2.266660 0.000000 0.000000 
#    y 0.000000 1.973680 0.000000 
#    z 0.000000 0.000000 2.150020 
# 
# From -- ./inp_files/20528.got.cif
#   From: 2010.05.17/outbox.cif.g08.bks.cpg/sg20_11_cif.got.tgz:20528.got - 2010.06.03 22:52:26.
