data_PCOD9320163
_publ_section_title
;
Structure prediction by ZEFSAII (Michael W. Deem and Ramdas Pophale) SiO2 
 PCOD9320163
Probable space group: C 2 2 21
;
_chemical_formula_sum "Si O2"
_cell_formula_units_Z 32
_cell_length_a 21.242920
_cell_length_b 12.152461
_cell_length_c 5.124251
_cell_angle_alpha 90.000000
_cell_angle_beta 90.000000
_cell_angle_gamma 90.000000
_cell_volume 1322.844647
_symmetry_space_group_name_H-M "C 2 2 21"
_symmetry_group_IT_number 20
_symmetry_cell_setting 'orthorhombic'
loop_
_space_group_symop_operation_xyz
x,y,z
-x,-y,1/2+z
x,-y,-z
-x,y,1/2-z
1/2+x,1/2+y,z
1/2-x,1/2-y,1/2+z
1/2+x,1/2-y,-z
1/2-x,1/2+y,1/2-z
loop_
_atom_site_type_symbol
_atom_site_label
_atom_site_fract_x
_atom_site_fract_y
_atom_site_fract_z
Si Si1 0.931665 0.091895 0.178933
Si Si2 0.500000 0.204986 0.750000
Si Si3 0.829080 0.000000 0.500000
Si Si4 0.887467 0.432436 0.258586
Si Si5 0.739428 0.820962 0.265220
O O1 0.956509 0.210144 0.083228
O O2 0.879211 0.093843 0.401828
O O3 0.000000 0.041184 0.250000
O O4 0.901497 0.000000 0.000000
O O5 0.551889 0.129015 0.877873
O O6 0.782713 0.071420 0.683992
O O7 0.859931 0.500000 0.500000
O O8 0.832141 0.352390 0.171775
O O9 0.906483 0.500000 0.000000
O O10 0.756846 0.726342 0.473763
#
# Coordination Sequence:
#
# PCOD9320163 Si02
#       5
#     8   4   4   8   8
#     4  10  22  43  67 107 143 187 241 302 370 428
#     4  10  24  46  72 108 144 198 242 308 366 444
#     4  12  26  46  74 106 152 192 240 324 360 442
#     4  12  26  51  74 112 147 196 251 302 368 441
#     4  12  29  48  77 111 147 204 246 304 377 446
#
# _framework density 24.190296
#
# number of rings (size 3 to 8) (size 9 to 14) (size 15 to 20)
#    0.750    0.000    2.500    3.750    7.000    0.000 
#    9.000    0.000    0.000    0.000    0.000    0.000 
#    0.000    0.000    0.000    0.000    0.000    0.000 
#
# Total GULP energy -89123.699812 kJ/mol
# GULP energy per Si atom -5570.231238 kJ/mol
# Density = 2.413524 g / cm^3
# Si number density = 24.190296 Si / 1000 Ang^3
#
#
#
# Elastic Constant Matrix: (Units=GPa)
#
#
# Indices 1 2 3 4 5 6 
#
# 1 153.4295 29.0312 -6.7152 0.0000 0.0000 0.0000
# 2 29.0312 72.9406 5.0200 0.0000 0.0000 0.0000
# 3 -6.7152 5.0200 49.3462 0.0000 0.0000 0.0000
# 4 0.0000 0.0000 0.0000 30.3547 0.0000 0.0000
# 5 0.0000 0.0000 0.0000 0.0000 14.1225 0.0000
# 6 0.0000 0.0000 0.0000 0.0000 0.0000 40.7140
#
#
#
# Elastic Compliance Matrix: (Units=1/GPa)
#
#
# Indices 1 2 3 4 5 6 
#
# 1 0.007126 -0.002924 0.001267 0.000000 0.000000 0.000000
# 2 -0.002924 0.015006 -0.001924 0.000000 0.000000 0.000000
# 3 0.001267 -0.001924 0.020633 0.000000 0.000000 0.000000
# 4 0.000000 0.000000 0.000000 0.032944 0.000000 0.000000
# 5 0.000000 0.000000 0.000000 0.000000 0.070809 0.000000
# 6 0.000000 0.000000 0.000000 0.000000 0.000000 0.024562
#
#
# Mechanical properties :
#
#
# Convention : Reuss Voigt Hill
#
# Bulk Modulus (GPa) = 28.08689 36.70980 32.39835
# Shear Modulus (GPa) = 26.30065 33.59691 29.94878
#
# Velocity S-wave (km/s) = 3.30091 3.73078 3.52241
# Velocity P-wave (km/s) = 5.11508 5.81091 5.47406
#
# Compressibility (1/GPa) = 0.03560380
#
# Stress axis : x y z
#
# Youngs Moduli (GPa) = 140.32541 66.64070 48.46561
#
# Poissons Ratio (x) = 0.19483 -0.06141
# Poissons Ratio (y) = 0.41025 0.09327
# Poissons Ratio (z) = -0.17782 0.12824
#
# Static dielectric constant tensor:
#      x y z
#    x 1.824800 0.000000 0.000000 
#    y 0.000000 1.991650 0.000000 
#    z 0.000000 0.000000 2.013660 
# 
# From -- ./inp_files/2999.got.cif
#   From: 2010.05.17/outbox.cif.g08.bks.cpg/sg20_2_cif.got.tgz:2999.got - 2010.06.03 22:52:26.
