data_PCOD9320586
_publ_section_title
;
Structure prediction by ZEFSAII (Michael W. Deem and Ramdas Pophale) SiO2 
 PCOD9320586
Probable space group: C 2 2 21
;
_chemical_formula_sum "Si O2"
_cell_formula_units_Z 36
_cell_length_a 5.009155
_cell_length_b 13.754772
_cell_length_c 22.185509
_cell_angle_alpha 90.000000
_cell_angle_beta 90.000000
_cell_angle_gamma 90.000000
_cell_volume 1528.576799
_symmetry_space_group_name_H-M "C 2 2 21"
_symmetry_group_IT_number 20
_symmetry_cell_setting 'orthorhombic'
loop_
_space_group_symop_operation_xyz
x,y,z
-x,-y,1/2+z
x,-y,-z
-x,y,1/2-z
1/2+x,1/2+y,z
1/2-x,1/2-y,1/2+z
1/2+x,1/2-y,-z
1/2-x,1/2+y,1/2-z
loop_
_atom_site_type_symbol
_atom_site_label
_atom_site_fract_x
_atom_site_fract_y
_atom_site_fract_z
Si Si1 0.613393 0.500000 0.000000
Si Si2 0.752557 0.941378 0.706349
Si Si3 0.444787 0.595985 0.615478
Si Si4 0.369983 0.194243 0.981721
Si Si5 0.754243 0.719977 0.706118
O O1 0.451891 0.533249 0.941477
O O2 0.800860 0.592316 0.013575
O O3 0.500000 0.947366 0.750000
O O4 0.782951 0.830709 0.682549
O O5 0.000000 0.959538 0.750000
O O6 0.771980 0.022187 0.655382
O O7 0.248020 0.676114 0.585384
O O8 0.675122 0.645712 0.653952
O O9 0.672902 0.226571 0.988226
O O10 0.500000 0.720866 0.750000
O O11 0.000000 0.695551 0.750000
#
# Coordination Sequence:
#
# PCOD9320586 Si02
#       5
#     4   8   8   8   8
#     4   8  24  46  68 110 132 190 232 282 354 416
#     4  10  23  44  68 101 136 179 233 286 342 407
#     4  10  23  43  74 101 141 186 229 290 346 423
#     4  10  24  45  67 101 140 180 230 279 342 418
#     4  10  23  43  67  99 135 181 232 285 349 407
#
# _framework density 23.551317000000001
#
# number of rings (size 3 to 8) (size 9 to 14) (size 15 to 20)
#    1.333    0.889    0.000    0.667    3.111    8.000 
#    8.000    0.000    0.000    0.000    0.000    0.000 
#    0.000    0.000    0.000    0.000    0.000    0.000 
#
# Total GULP energy -100632.577071 kJ/mol
# GULP energy per Si atom -5590.698726 kJ/mol
# Density = 2.349771 g / cm^3
# Si number density = 23.551317 Si / 1000 Ang^3
#
#
#
# Elastic Constant Matrix: (Units=GPa)
#
#
# Indices 1 2 3 4 5 6 
#
# 1 88.7526 1.6945 33.5753 0.0000 0.0000 0.0000
# 2 1.6945 121.7788 67.0419 0.0000 0.0000 0.0000
# 3 33.5753 67.0419 113.7392 0.0000 0.0000 0.0000
# 4 0.0000 0.0000 0.0000 84.2826 0.0000 0.0000
# 5 0.0000 0.0000 0.0000 0.0000 5.2742 0.0000
# 6 0.0000 0.0000 0.0000 0.0000 0.0000 7.7237
#
#
#
# Elastic Compliance Matrix: (Units=1/GPa)
#
#
# Indices 1 2 3 4 5 6 
#
# 1 0.013358 0.002939 -0.005675 0.000000 0.000000 0.000000
# 2 0.002939 0.012803 -0.008414 0.000000 0.000000 0.000000
# 3 -0.005675 -0.008414 0.015427 0.000000 0.000000 0.000000
# 4 0.000000 0.000000 0.000000 0.011865 0.000000 0.000000
# 5 0.000000 0.000000 0.000000 0.000000 0.189603 0.000000
# 6 0.000000 0.000000 0.000000 0.000000 0.000000 0.129471
#
#
# Mechanical properties :
#
#
# Convention : Reuss Voigt Hill
#
# Bulk Modulus (GPa) = 51.84999 58.76599 55.30799
# Shear Modulus (GPa) = 12.46087 34.25337 23.35712
#
# Velocity S-wave (km/s) = 2.30270 3.81782 3.15263
# Velocity P-wave (km/s) = 5.39754 6.66639 6.06524
#
# Compressibility (1/GPa) = 0.01928641
#
# Stress axis : x y z
#
# Youngs Moduli (GPa) = 74.86059 78.10843 64.82233
#
# Poissons Ratio (x) = -0.22952 0.36789
# Poissons Ratio (y) = -0.21998 0.54540
# Poissons Ratio (z) = 0.42486 0.65719
#
# Static dielectric constant tensor:
#      x y z
#    x 1.837760 0.000000 0.000000 
#    y 0.000000 1.932860 0.000000 
#    z 0.000000 0.000000 1.897710 
# 
# From -- ./inp_files/28229.got.cif
#   From: 2010.05.17/outbox.cif.g08.bks.cpg/sg20_15_cif.got.tgz:28229.got - 2010.06.03 22:52:26.
