data_PCOD9320326
_publ_section_title
;
Structure prediction by ZEFSAII (Michael W. Deem and Ramdas Pophale) SiO2 
 PCOD9320326
Probable space group: C 2 2 21
;
_chemical_formula_sum "Si O2"
_cell_formula_units_Z 64
_cell_length_a 12.437195
_cell_length_b 9.891021
_cell_length_c 23.373327
_cell_angle_alpha 90.000000
_cell_angle_beta 90.000000
_cell_angle_gamma 90.000000
_cell_volume 2875.306211
_symmetry_space_group_name_H-M "C 2 2 21"
_symmetry_group_IT_number 20
_symmetry_cell_setting 'orthorhombic'
loop_
_space_group_symop_operation_xyz
x,y,z
-x,-y,1/2+z
x,-y,-z
-x,y,1/2-z
1/2+x,1/2+y,z
1/2-x,1/2-y,1/2+z
1/2+x,1/2-y,-z
1/2-x,1/2+y,1/2-z
loop_
_atom_site_type_symbol
_atom_site_label
_atom_site_fract_x
_atom_site_fract_y
_atom_site_fract_z
Si Si1 0.378633 0.744760 0.025765
Si Si2 0.819320 0.592456 0.443893
Si Si3 0.919586 0.066910 0.437343
Si Si4 0.924964 0.648779 0.698899
Si Si5 0.714992 0.543130 0.665102
Si Si6 0.465968 0.991319 0.091222
Si Si7 0.989737 0.956101 0.686622
Si Si8 0.300960 0.795978 0.903081
O O1 0.258581 0.720406 0.050470
O O2 0.466284 0.639041 0.049079
O O3 0.426312 0.888227 0.043143
O O4 0.359914 0.734752 0.958484
O O5 0.808162 0.500000 0.500000
O O6 0.770605 0.509682 0.391923
O O7 0.945325 0.599655 0.430384
O O8 0.941593 0.991834 0.375112
O O9 0.821611 0.170089 0.421939
O O10 0.891849 0.000000 0.500000
O O11 0.811020 0.575245 0.708323
O O12 0.928968 0.812870 0.696287
O O13 0.000000 0.606876 0.750000
O O14 0.977839 0.596714 0.640257
O O15 0.617695 0.443164 0.676603
O O16 0.678800 0.693240 0.648024
O O17 0.359998 0.065905 0.112047
O O18 0.000000 0.027567 0.750000
#
# Coordination Sequence:
#
# PCOD9320326 Si02
#       8
#     8   8   8   8   8   8   8   8
#     4  12  22  39  62  95 129 177 226 273 342 414
#     4  11  20  37  64  90 123 176 220 268 337 408
#     4  12  23  42  66 101 137 177 234 288 352 420
#     4  10  22  45  71  93 128 178 230 289 344 411
#     4  11  21  42  66  96 128 174 230 280 336 413
#     4  11  24  41  59  96 137 170 228 275 348 412
#     4  11  23  44  74 102 132 183 237 289 352 421
#     4  12  25  39  61  96 146 179 220 292 347 422
#
# _framework density 22.258499
#
# number of rings (size 3 to 8) (size 9 to 14) (size 15 to 20)
#    0.000    0.750    5.000    3.750    1.750    1.000 
#    2.250    0.625    5.500    0.000    0.000    0.000 
#    0.000    0.000    0.000    0.000    0.000    0.000 
#
# Total GULP energy -178300.820359 kJ/mol
# GULP energy per Si atom -5571.900636 kJ/mol
# Density = 2.220784 g / cm^3
# Si number density = 22.258499 Si / 1000 Ang^3
#
#
#
# Elastic Constant Matrix: (Units=GPa)
#
#
# Indices 1 2 3 4 5 6 
#
# 1 96.1966 5.9847 16.8323 0.0000 0.0000 0.0000
# 2 5.9847 24.0987 -3.1731 0.0000 0.0000 0.0000
# 3 16.8323 -3.1731 84.6764 0.0000 0.0000 0.0000
# 4 0.0000 0.0000 0.0000 16.7849 0.0000 0.0000
# 5 0.0000 0.0000 0.0000 0.0000 35.7161 0.0000
# 6 0.0000 0.0000 0.0000 0.0000 0.0000 5.6117
#
#
#
# Elastic Compliance Matrix: (Units=1/GPa)
#
#
# Indices 1 2 3 4 5 6 
#
# 1 0.010986 -0.003031 -0.002297 0.000000 0.000000 0.000000
# 2 -0.003031 0.042538 0.002197 0.000000 0.000000 0.000000
# 3 -0.002297 0.002197 0.012349 0.000000 0.000000 0.000000
# 4 0.000000 0.000000 0.000000 0.059577 0.000000 0.000000
# 5 0.000000 0.000000 0.000000 0.000000 0.027999 0.000000
# 6 0.000000 0.000000 0.000000 0.000000 0.000000 0.178200
#
#
# Mechanical properties :
#
#
# Convention : Reuss Voigt Hill
#
# Bulk Modulus (GPa) = 16.77594 27.13994 21.95794
# Shear Modulus (GPa) = 13.97501 23.97773 18.97637
#
# Velocity S-wave (km/s) = 2.50841 3.28569 2.92301
# Velocity P-wave (km/s) = 3.99284 5.15887 4.61284
#
# Compressibility (1/GPa) = 0.05960917
#
# Stress axis : x y z
#
# Youngs Moduli (GPa) = 91.02555 23.50846 80.98042
#
# Poissons Ratio (x) = 0.07125 0.18604
# Poissons Ratio (y) = 0.27588 -0.17787
# Poissons Ratio (z) = 0.20912 -0.05164
#
# Static dielectric constant tensor:
#      x y z
#    x 1.843530 0.000000 0.000000 
#    y 0.000000 1.886960 0.000000 
#    z 0.000000 0.000000 1.870960 
# 
# From -- ./inp_files/29165.got.cif
#   From: 2010.05.17/outbox.cif.g08.bks.cpg/sg20_15_cif.got.tgz:29165.got - 2010.06.03 22:52:26.
