data_PCOD9320987
_publ_section_title
;
Structure prediction by ZEFSAII (Michael W. Deem and Ramdas Pophale) SiO2 
 PCOD9320987
Probable space group: C 2 2 21
;
_chemical_formula_sum "Si O2"
_cell_formula_units_Z 60
_cell_length_a 5.299687
_cell_length_b 18.481681
_cell_length_c 26.089327
_cell_angle_alpha 90.000000
_cell_angle_beta 90.000000
_cell_angle_gamma 90.000000
_cell_volume 2555.374561
_symmetry_space_group_name_H-M "C 2 2 21"
_symmetry_group_IT_number 20
_symmetry_cell_setting 'orthorhombic'
loop_
_space_group_symop_operation_xyz
x,y,z
-x,-y,1/2+z
x,-y,-z
-x,y,1/2-z
1/2+x,1/2+y,z
1/2-x,1/2-y,1/2+z
1/2+x,1/2-y,-z
1/2-x,1/2+y,1/2-z
loop_
_atom_site_type_symbol
_atom_site_label
_atom_site_fract_x
_atom_site_fract_y
_atom_site_fract_z
Si Si1 0.224909 0.829606 0.511129
Si Si2 0.882539 0.900211 0.193606
Si Si3 0.034186 0.970860 0.617238
Si Si4 0.535434 0.194361 0.573921
Si Si5 0.472345 0.124995 0.106081
Si Si6 0.328701 0.739138 0.666214
Si Si7 0.661616 0.434738 0.028995
Si Si8 0.500000 0.185573 0.750000
O O1 0.263429 0.817395 0.450378
O O2 0.145057 0.754604 0.535542
O O3 0.464398 0.853845 0.546235
O O4 0.004192 0.888464 0.510928
O O5 0.604791 0.869324 0.206532
O O6 0.000000 0.905910 0.250000
O O7 0.011771 0.834235 0.163643
O O8 0.935709 0.973831 0.164440
O O9 0.784523 0.919395 0.616489
O O10 0.285459 0.923969 0.617949
O O11 0.019850 0.022758 0.567843
O O12 0.591300 0.228752 0.628134
O O13 0.668548 0.118102 0.562955
O O14 0.509580 0.194676 0.143352
O O15 0.211709 0.736341 0.723589
O O16 0.805946 0.500000 0.000000
#
# Coordination Sequence:
#
# PCOD9320987 Si02
#       8
#     8   8   8   8   8   8   8   4
#     4  11  24  41  65 103 145 194 248 298 353 438
#     4  10  24  46  73 107 139 187 246 307 368 449
#     4  12  27  48  71 107 149 195 242 300 376 442
#     4  11  23  40  68  99 139 191 249 296 364 433
#     4  11  28  48  72 107 153 194 246 304 366 441
#     4  10  24  46  75 104 141 197 246 314 364 451
#     4  12  24  40  63 102 144 196 233 300 358 435
#     4  10  24  46  80 108 144 184 264 314 386 444
#
# _framework density 23.479922999999999
#
# number of rings (size 3 to 8) (size 9 to 14) (size 15 to 20)
#    0.000    1.067    4.000    0.800    9.333    0.533 
#    1.200    0.000    0.000    0.000    0.000    0.000 
#    0.000    0.000    0.000    0.000    0.000    0.000 
#
# Total GULP energy -167592.823435 kJ/mol
# GULP energy per Si atom -5586.427448 kJ/mol
# Density = 2.342648 g / cm^3
# Si number density = 23.479923 Si / 1000 Ang^3
#
#
#
# Elastic Constant Matrix: (Units=GPa)
#
#
# Indices 1 2 3 4 5 6 
#
# 1 97.8598 44.9728 28.0428 0.0000 0.0000 0.0000
# 2 44.9728 141.2490 48.1647 0.0000 0.0000 0.0000
# 3 28.0428 48.1647 72.8506 0.0000 0.0000 0.0000
# 4 0.0000 0.0000 0.0000 40.3602 0.0000 0.0000
# 5 0.0000 0.0000 0.0000 0.0000 26.5709 0.0000
# 6 0.0000 0.0000 0.0000 0.0000 0.0000 36.5275
#
#
#
# Elastic Compliance Matrix: (Units=1/GPa)
#
#
# Indices 1 2 3 4 5 6 
#
# 1 0.012395 -0.002995 -0.002791 0.000000 0.000000 0.000000
# 2 -0.002995 0.009864 -0.005369 0.000000 0.000000 0.000000
# 3 -0.002791 -0.005369 0.018351 0.000000 0.000000 0.000000
# 4 0.000000 0.000000 0.000000 0.024777 0.000000 0.000000
# 5 0.000000 0.000000 0.000000 0.000000 0.037635 0.000000
# 6 0.000000 0.000000 0.000000 0.000000 0.000000 0.027377
#
#
# Mechanical properties :
#
#
# Convention : Reuss Voigt Hill
#
# Bulk Modulus (GPa) = 54.64462 61.59111 58.11786
# Shear Modulus (GPa) = 31.48471 33.41032 32.44752
#
# Velocity S-wave (km/s) = 3.66583 3.77627 3.72146
# Velocity P-wave (km/s) = 6.42193 6.73067 6.57811
#
# Compressibility (1/GPa) = 0.01830006
#
# Stress axis : x y z
#
# Youngs Moduli (GPa) = 80.67897 101.38043 54.49394
#
# Poissons Ratio (x) = 0.30359 0.15211
# Poissons Ratio (y) = 0.24160 0.29256
# Poissons Ratio (z) = 0.22520 0.54428
#
# Static dielectric constant tensor:
#      x y z
#    x 2.015340 0.000000 0.000000 
#    y 0.000000 1.909760 0.000000 
#    z 0.000000 0.000000 1.951480 
# 
# From -- ./inp_files/29945.got.cif
#   From: 2010.05.17/outbox.cif.g08.bks.cpg/sg20_15_cif.got.tgz:29945.got - 2010.06.03 22:52:26.
