data_PCOD9320429
_publ_section_title
;
Structure prediction by ZEFSAII (Michael W. Deem and Ramdas Pophale) SiO2 
 PCOD9320429
Probable space group: C 2 2 21
;
_chemical_formula_sum "Si O2"
_cell_formula_units_Z 64
_cell_length_a 11.652767
_cell_length_b 17.642669
_cell_length_c 14.809269
_cell_angle_alpha 90.000000
_cell_angle_beta 90.000000
_cell_angle_gamma 90.000000
_cell_volume 3044.577060
_symmetry_space_group_name_H-M "C 2 2 21"
_symmetry_group_IT_number 20
_symmetry_cell_setting 'orthorhombic'
loop_
_space_group_symop_operation_xyz
x,y,z
-x,-y,1/2+z
x,-y,-z
-x,y,1/2-z
1/2+x,1/2+y,z
1/2-x,1/2-y,1/2+z
1/2+x,1/2-y,-z
1/2-x,1/2+y,1/2-z
loop_
_atom_site_type_symbol
_atom_site_label
_atom_site_fract_x
_atom_site_fract_y
_atom_site_fract_z
Si Si1 0.794404 0.918266 0.542468
Si Si2 0.872240 0.267615 0.210620
Si Si3 0.142566 0.411301 0.020015
Si Si4 0.134919 0.008326 0.229604
Si Si5 0.182536 0.114704 0.382599
Si Si6 0.089495 0.675012 0.517387
Si Si7 0.700081 0.363077 0.312577
Si Si8 0.480900 0.345695 0.037331
O O1 0.839673 0.942003 0.641472
O O2 0.687656 0.860755 0.545055
O O3 0.892530 0.876881 0.482303
O O4 0.762415 0.000000 0.500000
O O5 0.862682 0.180785 0.181427
O O6 0.860657 0.312904 0.117258
O O7 0.766921 0.290293 0.274579
O O8 0.000000 0.281996 0.250000
O O9 0.201249 0.367496 0.935779
O O10 0.151687 0.500000 0.000000
O O11 0.212244 0.391866 0.110148
O O12 0.013769 0.383529 0.025920
O O13 0.193711 0.043773 0.318197
O O14 0.000000 0.009313 0.250000
O O15 0.180973 0.922664 0.231776
O O16 0.093398 0.105738 0.464674
O O17 0.040143 0.757306 0.487924
O O18 0.578948 0.354759 0.365225
#
# Coordination Sequence:
#
# PCOD9320429 Si02
#       8
#     8   8   8   8   8   8   8   8
#     4  12  26  45  70 101 144 181 233 293 353 414
#     4  11  23  42  69 100 132 181 237 282 342 423
#     4  11  22  44  69  96 137 180 226 275 349 428
#     4  12  23  42  69 102 132 178 236 286 344 406
#     4  10  23  39  67  99 129 173 232 276 333 414
#     4  11  26  44  69 103 136 189 228 284 352 425
#     4  11  24  42  70  99 135 177 232 290 344 409
#     4  10  25  41  70  99 137 181 228 287 351 414
#
# _framework density 21.020983000000001
#
# number of rings (size 3 to 8) (size 9 to 14) (size 15 to 20)
#    0.000    1.000    3.750    2.250    8.750    0.000 
#    0.000    0.625    0.000    0.000    0.000    0.000 
#    0.000    0.000    0.000    0.000    0.000    0.000 
#
# Total GULP energy -178727.185691 kJ/mol
# GULP energy per Si atom -5585.224553 kJ/mol
# Density = 2.097314 g / cm^3
# Si number density = 21.020983 Si / 1000 Ang^3
#
#
#
# Elastic Constant Matrix: (Units=GPa)
#
#
# Indices 1 2 3 4 5 6 
#
# 1 74.3197 20.3020 17.4646 0.0000 0.0000 0.0000
# 2 20.3020 44.9673 24.1314 0.0000 0.0000 0.0000
# 3 17.4646 24.1314 73.0054 0.0000 0.0000 0.0000
# 4 0.0000 0.0000 0.0000 32.7112 0.0000 0.0000
# 5 0.0000 0.0000 0.0000 0.0000 21.5215 0.0000
# 6 0.0000 0.0000 0.0000 0.0000 0.0000 30.2174
#
#
#
# Elastic Compliance Matrix: (Units=1/GPa)
#
#
# Indices 1 2 3 4 5 6 
#
# 1 0.015520 -0.006096 -0.001698 0.000000 0.000000 0.000000
# 2 -0.006096 0.029428 -0.008269 0.000000 0.000000 0.000000
# 3 -0.001698 -0.008269 0.016837 0.000000 0.000000 0.000000
# 4 0.000000 0.000000 0.000000 0.030571 0.000000 0.000000
# 5 0.000000 0.000000 0.000000 0.000000 0.046465 0.000000
# 6 0.000000 0.000000 0.000000 0.000000 0.000000 0.033094
#
#
# Mechanical properties :
#
#
# Convention : Reuss Voigt Hill
#
# Bulk Modulus (GPa) = 33.71584 35.12093 34.41839
# Shear Modulus (GPa) = 23.37267 25.58299 24.47783
#
# Velocity S-wave (km/s) = 3.33809 3.49237 3.41610
# Velocity P-wave (km/s) = 5.56157 5.74509 5.65407
#
# Compressibility (1/GPa) = 0.02965965
#
# Stress axis : x y z
#
# Youngs Moduli (GPa) = 64.43501 33.98127 59.39302
#
# Poissons Ratio (x) = 0.20714 0.10083
# Poissons Ratio (y) = 0.39278 0.49112
# Poissons Ratio (z) = 0.10939 0.28099
#
# Static dielectric constant tensor:
#      x y z
#    x 1.750800 0.000000 0.000000 
#    y 0.000000 1.765800 0.000000 
#    z 0.000000 0.000000 1.821380 
# 
# From -- ./inp_files/20273.got.cif
#   From: 2010.05.17/outbox.cif.g08.bks.cpg/sg20_11_cif.got.tgz:20273.got - 2010.06.03 22:52:26.
