data_PCOD9320031
_publ_section_title
;
Structure prediction by ZEFSAII (Michael W. Deem and Ramdas Pophale) SiO2 
 PCOD9320031
Probable space group: C 2 2 21
;
_chemical_formula_sum "Si O2"
_cell_formula_units_Z 48
_cell_length_a 19.533055
_cell_length_b 15.139816
_cell_length_c 8.076980
_cell_angle_alpha 90.000000
_cell_angle_beta 90.000000
_cell_angle_gamma 90.000000
_cell_volume 2388.579923
_symmetry_space_group_name_H-M "C 2 2 21"
_symmetry_group_IT_number 20
_symmetry_cell_setting 'orthorhombic'
loop_
_space_group_symop_operation_xyz
x,y,z
-x,-y,1/2+z
x,-y,-z
-x,y,1/2-z
1/2+x,1/2+y,z
1/2-x,1/2-y,1/2+z
1/2+x,1/2-y,-z
1/2-x,1/2+y,1/2-z
loop_
_atom_site_type_symbol
_atom_site_label
_atom_site_fract_x
_atom_site_fract_y
_atom_site_fract_z
Si Si1 0.572287 0.761609 0.151858
Si Si2 0.060890 0.587439 0.116760
Si Si3 0.429864 0.440530 0.657050
Si Si4 0.294188 0.511294 0.701687
Si Si5 0.798628 0.350703 0.773685
Si Si6 0.786543 0.314994 0.164342
O O1 0.500000 0.760124 0.250000
O O2 0.591957 0.659680 0.110303
O O3 0.639993 0.797771 0.248058
O O4 0.555182 0.826862 0.001096
O O5 0.128959 0.611305 0.217916
O O6 0.000000 0.576624 0.250000
O O7 0.065715 0.500000 0.000000
O O8 0.443601 0.500000 0.500000
O O9 0.500000 0.431701 0.750000
O O10 0.371736 0.494393 0.756261
O O11 0.296483 0.500000 0.500000
O O12 0.252773 0.429131 0.767578
O O13 0.253421 0.600218 0.737239
O O14 0.766960 0.265080 0.685882
O O15 0.799318 0.331784 0.970107
#
# Coordination Sequence:
#
# PCOD9320031 Si02
#       6
#     8   8   8   8   8   8
#     4  11  23  44  70  97 138 175 222 287 343 412
#     4  12  27  45  68  99 137 180 233 284 350 424
#     4  10  22  42  64  91 127 172 217 272 335 395
#     4   9  20  39  63  89 127 173 211 269 332 387
#     4  11  23  40  67 100 131 179 226 275 345 406
#     4  11  22  42  67 100 140 177 227 283 341 414
#
# _framework density 20.095624000000001
#
# number of rings (size 3 to 8) (size 9 to 14) (size 15 to 20)
#    0.000    1.333    1.667    3.500    4.667    2.667 
#    6.000    0.833    0.000    0.000    0.000    0.000 
#    0.000    0.000    0.000    0.000    0.000    0.000 
#
# Total GULP energy -133909.612986 kJ/mol
# GULP energy per Si atom -5579.567208 kJ/mol
# Density = 2.004989 g / cm^3
# Si number density = 20.095624 Si / 1000 Ang^3
#
#
#
# Elastic Constant Matrix: (Units=GPa)
#
#
# Indices 1 2 3 4 5 6 
#
# 1 129.1692 68.2970 47.0782 0.0000 0.0000 0.0000
# 2 68.2970 166.4762 54.2258 0.0000 0.0000 0.0000
# 3 47.0782 54.2258 74.0101 0.0000 0.0000 0.0000
# 4 0.0000 0.0000 0.0000 29.8821 0.0000 0.0000
# 5 0.0000 0.0000 0.0000 0.0000 20.7951 0.0000
# 6 0.0000 0.0000 0.0000 0.0000 0.0000 37.7950
#
#
#
# Elastic Compliance Matrix: (Units=1/GPa)
#
#
# Indices 1 2 3 4 5 6 
#
# 1 0.011086 -0.002957 -0.004885 0.000000 0.000000 0.000000
# 2 -0.002957 0.008678 -0.004478 0.000000 0.000000 0.000000
# 3 -0.004885 -0.004478 0.019900 0.000000 0.000000 0.000000
# 4 0.000000 0.000000 0.000000 0.033465 0.000000 0.000000
# 5 0.000000 0.000000 0.000000 0.000000 0.048088 0.000000
# 6 0.000000 0.000000 0.000000 0.000000 0.000000 0.026458
#
#
# Mechanical properties :
#
#
# Convention : Reuss Voigt Hill
#
# Bulk Modulus (GPa) = 66.55769 78.76195 72.65982
# Shear Modulus (GPa) = 28.19709 31.03142 29.61425
#
# Velocity S-wave (km/s) = 3.74992 3.93388 3.84300
# Velocity P-wave (km/s) = 7.20705 7.74032 7.47844
#
# Compressibility (1/GPa) = 0.01502456
#
# Stress axis : x y z
#
# Youngs Moduli (GPa) = 90.20689 115.22965 50.25114
#
# Poissons Ratio (x) = 0.34069 0.24550
# Poissons Ratio (y) = 0.26670 0.22501
# Poissons Ratio (z) = 0.44070 0.51597
#
# Static dielectric constant tensor:
#      x y z
#    x 1.930440 0.000000 0.000000 
#    y 0.000000 1.721460 0.000000 
#    z 0.000000 0.000000 1.696650 
# 
# From -- ./inp_files/9335.got.cif
#   From: 2010.05.17/outbox.cif.g08.bks.cpg/sg20_5_cif.got.tgz:9335.got - 2010.06.03 22:52:26.
