data_PCOD9320726
_publ_section_title
;
Structure prediction by ZEFSAII (Michael W. Deem and Ramdas Pophale) SiO2 
 PCOD9320726
Probable space group: C 2 2 21
;
_chemical_formula_sum "Si O2"
_cell_formula_units_Z 36
_cell_length_a 22.645228
_cell_length_b 7.872880
_cell_length_c 8.679214
_cell_angle_alpha 90.000000
_cell_angle_beta 90.000000
_cell_angle_gamma 90.000000
_cell_volume 1547.357721
_symmetry_space_group_name_H-M "C 2 2 21"
_symmetry_group_IT_number 20
_symmetry_cell_setting 'orthorhombic'
loop_
_space_group_symop_operation_xyz
x,y,z
-x,-y,1/2+z
x,-y,-z
-x,y,1/2-z
1/2+x,1/2+y,z
1/2-x,1/2-y,1/2+z
1/2+x,1/2-y,-z
1/2-x,1/2+y,1/2-z
loop_
_atom_site_type_symbol
_atom_site_label
_atom_site_fract_x
_atom_site_fract_y
_atom_site_fract_z
Si Si1 0.641680 0.000000 0.000000
Si Si2 0.572208 0.688357 0.571699
Si Si3 0.435686 0.307712 0.441317
Si Si4 0.263840 0.075429 0.241124
Si Si5 0.806064 0.736065 0.955617
O O1 0.601984 0.165989 0.969552
O O2 0.683229 0.059723 0.138011
O O3 0.578171 0.500000 0.500000
O O4 0.577935 0.693324 0.757557
O O5 0.504777 0.738965 0.537809
O O6 0.625318 0.790788 0.491941
O O7 0.425963 0.500000 0.500000
O O8 0.205761 0.105556 0.343219
O O9 0.272769 0.912192 0.135884
O O10 0.273875 0.229876 0.120389
#
# Coordination Sequence:
#
# PCOD9320726 Si02
#       5
#     4   8   8   8   8
#     4  12  24  46  72 112 150 190 250 322 370 466
#     4  10  23  46  76 104 149 195 250 312 384 451
#     4  10  24  48  74 113 145 196 252 313 385 459
#     4  11  26  44  72 103 145 193 254 296 389 435
#     4  11  25  48  68 105 145 197 246 315 359 470
#
# _framework density 23.265464999999999
#
# number of rings (size 3 to 8) (size 9 to 14) (size 15 to 20)
#    0.000    1.333    2.222    1.333    7.778    1.778 
#    4.000    0.000    0.000    0.000    0.000    0.000 
#    0.000    0.000    0.000    0.000    0.000    0.000 
#
# Total GULP energy -100552.172231 kJ/mol
# GULP energy per Si atom -5586.231791 kJ/mol
# Density = 2.321251 g / cm^3
# Si number density = 23.265465 Si / 1000 Ang^3
#
#
#
# Elastic Constant Matrix: (Units=GPa)
#
#
# Indices 1 2 3 4 5 6 
#
# 1 124.6075 38.0502 65.8805 0.0000 0.0000 0.0000
# 2 38.0502 78.9691 32.4926 0.0000 0.0000 0.0000
# 3 65.8805 32.4926 112.2432 0.0000 0.0000 0.0000
# 4 0.0000 0.0000 0.0000 28.4305 0.0000 0.0000
# 5 0.0000 0.0000 0.0000 0.0000 527.7782 0.0000
# 6 0.0000 0.0000 0.0000 0.0000 0.0000 15.5874
#
#
#
# Elastic Compliance Matrix: (Units=1/GPa)
#
#
# Indices 1 2 3 4 5 6 
#
# 1 0.012382 -0.003378 -0.006290 0.000000 0.000000 0.000000
# 2 -0.003378 0.015297 -0.002445 0.000000 0.000000 0.000000
# 3 -0.006290 -0.002445 0.013309 0.000000 0.000000 0.000000
# 4 0.000000 0.000000 0.000000 0.035173 0.000000 0.000000
# 5 0.000000 0.000000 0.000000 0.000000 0.001895 0.000000
# 6 0.000000 0.000000 0.000000 0.000000 0.000000 0.064154
#
#
# Mechanical properties :
#
#
# Convention : Reuss Voigt Hill
#
# Bulk Modulus (GPa) = 59.66086 65.40737 62.53412
# Shear Modulus (GPa) = 29.06564 126.31900 77.69232
#
# Velocity S-wave (km/s) = 3.53838 7.37648 5.78501
# Velocity P-wave (km/s) = 6.51097 10.03616 8.45923
#
# Compressibility (1/GPa) = 0.01676141
#
# Stress axis : x y z
#
# Youngs Moduli (GPa) = 80.76138 65.37177 75.13800
#
# Poissons Ratio (x) = 0.22084 0.47260
# Poissons Ratio (y) = 0.27283 0.18375
# Poissons Ratio (z) = 0.50796 0.15986
#
# Static dielectric constant tensor:
#      x y z
#    x 1.853190 0.000000 0.000000 
#    y 0.000000 -1.291380 0.000000 
#    z 0.000000 0.000000 2.527420 
# 
# From -- ./inp_files/9845.got.cif
#   From: 2010.05.17/outbox.cif.g08.bks.cpg/sg20_5_cif.got.tgz:9845.got - 2010.06.03 22:52:26.
