data_PCOD9320844
_publ_section_title
;
Structure prediction by ZEFSAII (Michael W. Deem and Ramdas Pophale) SiO2 
 PCOD9320844
Probable space group: C 2 2 21
;
_chemical_formula_sum "Si O2"
_cell_formula_units_Z 48
_cell_length_a 30.036454
_cell_length_b 8.517238
_cell_length_c 8.346281
_cell_angle_alpha 90.000000
_cell_angle_beta 90.000000
_cell_angle_gamma 90.000000
_cell_volume 2135.209266
_symmetry_space_group_name_H-M "C 2 2 21"
_symmetry_group_IT_number 20
_symmetry_cell_setting 'orthorhombic'
loop_
_space_group_symop_operation_xyz
x,y,z
-x,-y,1/2+z
x,-y,-z
-x,y,1/2-z
1/2+x,1/2+y,z
1/2-x,1/2-y,1/2+z
1/2+x,1/2-y,-z
1/2-x,1/2+y,1/2-z
loop_
_atom_site_type_symbol
_atom_site_label
_atom_site_fract_x
_atom_site_fract_y
_atom_site_fract_z
Si Si1 0.591425 0.902372 0.167720
Si Si2 0.987855 0.309828 0.498820
Si Si3 0.162579 0.156780 0.607603
Si Si4 0.431075 0.218286 0.183641
Si Si5 0.815324 0.319822 0.203232
Si Si6 0.765774 0.992375 0.690308
O O1 0.637340 0.819538 0.209212
O O2 0.581153 0.033658 0.300915
O O3 0.547738 0.792644 0.144610
O O4 0.597459 0.000000 0.000000
O O5 0.993739 0.500000 0.500000
O O6 0.959870 0.256378 0.655320
O O7 0.037115 0.245646 0.532188
O O8 0.114878 0.190595 0.683223
O O9 0.174910 0.295888 0.485006
O O10 0.201086 0.121611 0.733854
O O11 0.158957 0.000000 0.500000
O O12 0.784591 0.468689 0.242390
O O13 0.785294 0.171900 0.252209
O O14 0.767559 0.000000 0.500000
#
# Coordination Sequence:
#
# PCOD9320844 Si02
#       6
#     8   8   8   8   8   8
#     4   9  21  35  62  99 130 166 218 269 336 391
#     4   8  17  34  56  97 119 163 201 266 321 383
#     4  10  24  43  61  91 126 169 217 273 325 391
#     4   9  18  35  64  83 132 160 208 262 326 389
#     4  11  25  42  63  98 125 174 212 280 325 395
#     4  11  26  43  67  90 131 170 222 265 331 392
#
# _framework density 22.480233999999999
#
# number of rings (size 3 to 8) (size 9 to 14) (size 15 to 20)
#    0.000    2.667    0.000    1.000   11.667    2.000 
#    0.000    0.000   14.667    0.000    0.000    0.000 
#    0.000    0.000    0.000    0.000    0.000    0.000 
#
# Total GULP energy -133941.137289 kJ/mol
# GULP energy per Si atom -5580.880720 kJ/mol
# Density = 2.242907 g / cm^3
# Si number density = 22.480234 Si / 1000 Ang^3
#
#
#
# Elastic Constant Matrix: (Units=GPa)
#
#
# Indices 1 2 3 4 5 6 
#
# 1 154.0209 29.5557 19.9176 0.0000 0.0000 0.0000
# 2 29.5557 30.5343 0.6100 0.0000 0.0000 0.0000
# 3 19.9176 0.6100 61.7352 0.0000 0.0000 0.0000
# 4 0.0000 0.0000 0.0000 22.0295 0.0000 0.0000
# 5 0.0000 0.0000 0.0000 0.0000 31.4974 0.0000
# 6 0.0000 0.0000 0.0000 0.0000 0.0000 55.5934
#
#
#
# Elastic Compliance Matrix: (Units=1/GPa)
#
#
# Indices 1 2 3 4 5 6 
#
# 1 0.008378 -0.008057 -0.002623 0.000000 0.000000 0.000000
# 2 -0.008057 0.040505 0.002199 0.000000 0.000000 0.000000
# 3 -0.002623 0.002199 0.017023 0.000000 0.000000 0.000000
# 4 0.000000 0.000000 0.000000 0.045394 0.000000 0.000000
# 5 0.000000 0.000000 0.000000 0.000000 0.031749 0.000000
# 6 0.000000 0.000000 0.000000 0.000000 0.000000 0.017988
#
#
# Mechanical properties :
#
#
# Convention : Reuss Voigt Hill
#
# Bulk Modulus (GPa) = 20.43178 38.49521 29.46350
# Shear Modulus (GPa) = 25.73173 34.90454 30.31814
#
# Velocity S-wave (km/s) = 3.38692 3.94468 3.67639
# Velocity P-wave (km/s) = 4.93999 6.15699 5.58176
#
# Compressibility (1/GPa) = 0.04894335
#
# Stress axis : x y z
#
# Youngs Moduli (GPa) = 119.36066 24.68836 58.74457
#
# Poissons Ratio (x) = 0.19892 0.15411
# Poissons Ratio (y) = 0.96169 -0.12919
# Poissons Ratio (z) = 0.31313 -0.05430
#
# Static dielectric constant tensor:
#      x y z
#    x 1.851570 0.000000 0.000000 
#    y 0.000000 1.868940 0.000000 
#    z 0.000000 0.000000 1.887530 
# 
# From -- ./inp_files/11439.got.cif
#   From: 2010.05.17/outbox.cif.g08.bks.cpg/sg20_6_cif.got.tgz:11439.got - 2010.06.03 22:52:26.
