data_PCOD9320171
_publ_section_title
;
Structure prediction by ZEFSAII (Michael W. Deem and Ramdas Pophale) SiO2 
 PCOD9320171
Probable space group: C 2 2 21
;
_chemical_formula_sum "Si O2"
_cell_formula_units_Z 56
_cell_length_a 5.150590
_cell_length_b 29.610069
_cell_length_c 15.141463
_cell_angle_alpha 90.000000
_cell_angle_beta 90.000000
_cell_angle_gamma 90.000000
_cell_volume 2309.214306
_symmetry_space_group_name_H-M "C 2 2 21"
_symmetry_group_IT_number 20
_symmetry_cell_setting 'orthorhombic'
loop_
_space_group_symop_operation_xyz
x,y,z
-x,-y,1/2+z
x,-y,-z
-x,y,1/2-z
1/2+x,1/2+y,z
1/2-x,1/2-y,1/2+z
1/2+x,1/2-y,-z
1/2-x,1/2+y,1/2-z
loop_
_atom_site_type_symbol
_atom_site_label
_atom_site_fract_x
_atom_site_fract_y
_atom_site_fract_z
Si Si1 0.778098 0.485166 0.093553
Si Si2 0.594645 0.689182 0.849455
Si Si3 0.195559 0.016869 0.322374
Si Si4 0.757541 0.122271 0.197847
Si Si5 0.967170 0.733329 0.042523
Si Si6 0.073759 0.604413 0.648229
Si Si7 0.224562 0.643865 0.996437
O O1 0.514561 0.514119 0.099727
O O2 0.720602 0.432632 0.114786
O O3 0.025925 0.496012 0.156341
O O4 0.888227 0.500000 0.000000
O O5 0.500000 0.681908 0.750000
O O6 0.587951 0.742467 0.871090
O O7 0.844572 0.657146 0.852776
O O8 0.420347 0.669405 0.929849
O O9 0.243669 0.067937 0.293487
O O10 0.000000 0.994384 0.250000
O O11 0.500000 0.138419 0.250000
O O12 0.000000 0.142000 0.250000
O O13 0.810302 0.128863 0.093463
O O14 0.165400 0.754718 0.969288
O O15 0.008337 0.680546 0.028287
O O16 0.000000 0.595302 0.750000
O O17 0.872741 0.603651 0.566670
#
# Coordination Sequence:
#
# PCOD9320171 Si02
#       7
#     8   8   8   8   8   8   8
#     4  12  27  42  69 100 139 184 243 292 365 428
#     4  11  24  43  70 106 148 193 236 296 364 441
#     4  11  23  45  66  92 132 183 229 295 353 419
#     4  11  26  45  72 103 138 189 253 307 366 427
#     4  10  22  43  67  98 135 188 233 284 352 428
#     4  12  25  42  68 106 147 192 242 302 363 442
#     4  11  25  44  73 101 150 189 241 304 367 433
#
# _framework density 24.250672999999999
#
# number of rings (size 3 to 8) (size 9 to 14) (size 15 to 20)
#    0.000    0.857    2.857    4.286    6.000    1.143 
#    0.000    3.571    0.000    0.000    0.000    0.000 
#    0.000    0.000    0.000    0.000    0.000    0.000 
#
# Total GULP energy -155939.324978 kJ/mol
# GULP energy per Si atom -5569.261606 kJ/mol
# Density = 2.419548 g / cm^3
# Si number density = 24.250673 Si / 1000 Ang^3
#
#
#
# Elastic Constant Matrix: (Units=GPa)
#
#
# Indices 1 2 3 4 5 6 
#
# 1 105.0424 -0.5269 37.7892 0.0000 0.0000 0.0000
# 2 -0.5269 40.7872 17.6309 0.0000 0.0000 0.0000
# 3 37.7892 17.6309 188.6274 0.0000 0.0000 0.0000
# 4 0.0000 0.0000 0.0000 31.6300 0.0000 0.0000
# 5 0.0000 0.0000 0.0000 0.0000 36.4235 0.0000
# 6 0.0000 0.0000 0.0000 0.0000 0.0000 7.1683
#
#
#
# Elastic Compliance Matrix: (Units=1/GPa)
#
#
# Indices 1 2 3 4 5 6 
#
# 1 0.010304 0.001069 -0.002164 0.000000 0.000000 0.000000
# 2 0.001069 0.025661 -0.002613 0.000000 0.000000 0.000000
# 3 -0.002164 -0.002613 0.005979 0.000000 0.000000 0.000000
# 4 0.000000 0.000000 0.000000 0.031616 0.000000 0.000000
# 5 0.000000 0.000000 0.000000 0.000000 0.027455 0.000000
# 6 0.000000 0.000000 0.000000 0.000000 0.000000 0.139503
#
#
# Mechanical properties :
#
#
# Convention : Reuss Voigt Hill
#
# Bulk Modulus (GPa) = 28.96243 49.36038 39.16140
# Shear Modulus (GPa) = 19.27207 33.68194 26.47700
#
# Velocity S-wave (km/s) = 2.82210 3.73085 3.30783
# Velocity P-wave (km/s) = 4.75267 6.24159 5.54731
#
# Compressibility (1/GPa) = 0.03452749
#
# Stress axis : x y z
#
# Youngs Moduli (GPa) = 97.05080 38.97020 167.24613
#
# Poissons Ratio (x) = -0.04164 0.36194
# Poissons Ratio (y) = -0.10371 0.43694
# Poissons Ratio (z) = 0.21003 0.10181
#
# Static dielectric constant tensor:
#      x y z
#    x 2.029610 0.000000 0.000000 
#    y 0.000000 2.008110 0.000000 
#    z 0.000000 0.000000 2.202200 
# 
# From -- ./inp_files/17942.got.cif
#   From: 2010.05.17/outbox.cif.g08.bks.cpg/sg20_9_cif.got.tgz:17942.got - 2010.06.03 22:52:26.
