data_PCOD9320540
_publ_section_title
;
Structure prediction by ZEFSAII (Michael W. Deem and Ramdas Pophale) SiO2 
 PCOD9320540
Probable space group: C 2 2 21
;
_chemical_formula_sum "Si O2"
_cell_formula_units_Z 40
_cell_length_a 17.347925
_cell_length_b 19.380119
_cell_length_c 5.386518
_cell_angle_alpha 90.000000
_cell_angle_beta 90.000000
_cell_angle_gamma 90.000000
_cell_volume 1810.973481
_symmetry_space_group_name_H-M "C 2 2 21"
_symmetry_group_IT_number 20
_symmetry_cell_setting 'orthorhombic'
loop_
_space_group_symop_operation_xyz
x,y,z
-x,-y,1/2+z
x,-y,-z
-x,y,1/2-z
1/2+x,1/2+y,z
1/2-x,1/2-y,1/2+z
1/2+x,1/2-y,-z
1/2-x,1/2+y,1/2-z
loop_
_atom_site_type_symbol
_atom_site_label
_atom_site_fract_x
_atom_site_fract_y
_atom_site_fract_z
Si Si1 0.151128 0.285612 0.998572
Si Si2 0.454094 0.500000 0.500000
Si Si3 0.164352 0.938184 0.690077
Si Si4 0.698952 0.000000 0.500000
Si Si5 0.083715 0.572745 0.856891
Si Si6 0.162068 0.212051 0.500647
O O1 0.118307 0.363226 0.990384
O O2 0.128728 0.252141 0.262105
O O3 0.244480 0.282073 0.002474
O O4 0.129033 0.242597 0.754804
O O5 0.500000 0.482755 0.250000
O O6 0.396840 0.560400 0.413329
O O7 0.152779 0.868714 0.541947
O O8 0.150212 0.000000 0.500000
O O9 0.246351 0.956299 0.814768
O O10 0.645603 0.946148 0.354980
O O11 0.000000 0.591150 0.750000
O O12 0.074768 0.500000 0.000000
#
# Coordination Sequence:
#
# PCOD9320540 Si02
#       6
#     8   4   8   4   8   8
#     4  10  24  41  69 100 147 182 240 299 367 439
#     4  11  24  44  70 107 148 184 226 297 374 450
#     4  11  24  42  78 110 144 188 251 311 369 443
#     4  11  24  40  74 115 148 188 266 321 358 464
#     4  12  26  45  71 105 149 205 250 315 384 450
#     4  10  23  42  69 105 138 186 234 306 367 423
#
# _framework density 22.087568999999998
#
# number of rings (size 3 to 8) (size 9 to 14) (size 15 to 20)
#    0.000    1.200    2.000    3.000   16.800    0.000 
#    0.000    1.000    4.400    1.200    0.000    0.000 
#    0.000    0.000    0.000    0.000    0.000    0.000 
#
# Total GULP energy -111788.849584 kJ/mol
# GULP energy per Si atom -5589.442479 kJ/mol
# Density = 2.203730 g / cm^3
# Si number density = 22.087569 Si / 1000 Ang^3
#
#
#
# Elastic Constant Matrix: (Units=GPa)
#
#
# Indices 1 2 3 4 5 6 
#
# 1 88.6468 21.8565 60.2358 0.0000 0.0000 0.0000
# 2 21.8565 143.1225 73.3765 0.0000 0.0000 0.0000
# 3 60.2358 73.3765 157.0241 0.0000 0.0000 0.0000
# 4 0.0000 0.0000 0.0000 51.4891 0.0000 0.0000
# 5 0.0000 0.0000 0.0000 0.0000 32.5722 0.0000
# 6 0.0000 0.0000 0.0000 0.0000 0.0000 -10.9532
#
#
#
# Elastic Compliance Matrix: (Units=1/GPa)
#
#
# Indices 1 2 3 4 5 6 
#
# 1 0.015343 0.000887 -0.006300 0.000000 0.000000 0.000000
# 2 0.000887 0.009240 -0.004658 0.000000 0.000000 0.000000
# 3 -0.006300 -0.004658 0.010962 0.000000 0.000000 0.000000
# 4 0.000000 0.000000 0.000000 0.019422 0.000000 0.000000
# 5 0.000000 0.000000 0.000000 0.000000 0.030701 0.000000
# 6 0.000000 0.000000 0.000000 0.000000 0.000000 -0.091298
#
#
# Mechanical properties :
#
#
# Convention : Reuss Voigt Hill
#
# Bulk Modulus (GPa) = 64.92546 77.74788 71.33667
# Shear Modulus (GPa) = 254.51111 30.17659 142.34385
#
# Velocity S-wave (km/s) = 10.74609 3.70026 8.03649
# Velocity P-wave (km/s) = 13.54362 7.31657 10.88489
#
# Compressibility (1/GPa) = 0.01540228
#
# Stress axis : x y z
#
# Youngs Moduli (GPa) = 65.17615 108.23015 91.22562
#
# Poissons Ratio (x) = -0.09599 0.57474
# Poissons Ratio (y) = -0.05781 0.42491
# Poissons Ratio (z) = 0.41062 0.50412
#
# Static dielectric constant tensor:
#      x y z
#    x 1.846160 0.000000 0.000000 
#    y 0.000000 1.798410 0.000000 
#    z 0.000000 0.000000 1.865330 
# 
# From -- ./inp_files/2509.got.cif
#   From: 2010.05.17/outbox.cif.g08.bks.cpg/sg20_2_cif.got.tgz:2509.got - 2010.06.03 22:52:26.
