data_PCOD9320321
_publ_section_title
;
Structure prediction by ZEFSAII (Michael W. Deem and Ramdas Pophale) SiO2 
 PCOD9320321
Probable space group: C 2 2 21
;
_chemical_formula_sum "Si O2"
_cell_formula_units_Z 44
_cell_length_a 21.223065
_cell_length_b 9.335289
_cell_length_c 9.456725
_cell_angle_alpha 90.000000
_cell_angle_beta 90.000000
_cell_angle_gamma 90.000000
_cell_volume 1873.598938
_symmetry_space_group_name_H-M "C 2 2 21"
_symmetry_group_IT_number 20
_symmetry_cell_setting 'orthorhombic'
loop_
_space_group_symop_operation_xyz
x,y,z
-x,-y,1/2+z
x,-y,-z
-x,y,1/2-z
1/2+x,1/2+y,z
1/2-x,1/2-y,1/2+z
1/2+x,1/2-y,-z
1/2-x,1/2+y,1/2-z
loop_
_atom_site_type_symbol
_atom_site_label
_atom_site_fract_x
_atom_site_fract_y
_atom_site_fract_z
Si Si1 0.190896 0.292295 0.173478
Si Si2 0.500000 0.855185 0.750000
Si Si3 0.932917 0.371809 0.195979
Si Si4 0.432402 0.406517 0.367082
Si Si5 0.380157 0.591692 0.133508
Si Si6 0.284485 0.636312 0.586787
O O1 0.123707 0.373076 0.187703
O O2 0.171101 0.140075 0.248253
O O3 0.243750 0.352783 0.274649
O O4 0.219253 0.270561 0.019769
O O5 0.547667 0.963859 0.669373
O O6 0.534327 0.745894 0.854194
O O7 0.906880 0.249339 0.090937
O O8 0.000000 0.312392 0.250000
O O9 0.454360 0.500000 0.500000
O O10 0.430853 0.497537 0.221308
O O11 0.358739 0.374561 0.390134
O O12 0.359350 0.500000 0.000000
O O13 0.260524 0.500000 0.500000
#
# Coordination Sequence:
#
# PCOD9320321 Si02
#       6
#     8   4   8   8   8   8
#     4  10  23  43  76 103 151 194 242 318 363 452
#     4  10  24  44  78 108 144 202 248 304 390 440
#     4   8  20  47  67 110 152 183 245 309 379 433
#     4  11  23  47  72 106 150 201 250 306 377 458
#     4  10  22  45  70 107 142 194 247 298 367 450
#     4  11  23  45  72 105 149 191 253 303 378 445
#
# _framework density 23.484214999999999
#
# number of rings (size 3 to 8) (size 9 to 14) (size 15 to 20)
#    1.636    0.364    3.636    0.000    3.818    2.182 
#    3.273   10.000    0.000    0.000    0.000    0.000 
#    0.000    0.000    0.000    0.000    0.000    0.000 
#
# Total GULP energy -122602.316479 kJ/mol
# GULP energy per Si atom -5572.832567 kJ/mol
# Density = 2.343076 g / cm^3
# Si number density = 23.484215 Si / 1000 Ang^3
#
#
#
# Elastic Constant Matrix: (Units=GPa)
#
#
# Indices 1 2 3 4 5 6 
#
# 1 48.7202 16.2193 21.7108 0.0000 0.0000 0.0000
# 2 16.2193 136.3471 18.9616 0.0000 0.0000 0.0000
# 3 21.7108 18.9616 52.8237 0.0000 0.0000 0.0000
# 4 0.0000 0.0000 0.0000 39.3565 0.0000 0.0000
# 5 0.0000 0.0000 0.0000 0.0000 27.2652 0.0000
# 6 0.0000 0.0000 0.0000 0.0000 0.0000 45.6057
#
#
#
# Elastic Compliance Matrix: (Units=1/GPa)
#
#
# Indices 1 2 3 4 5 6 
#
# 1 0.025478 -0.001657 -0.009877 0.000000 0.000000 0.000000
# 2 -0.001657 0.007827 -0.002129 0.000000 0.000000 0.000000
# 3 -0.009877 -0.002129 0.023754 0.000000 0.000000 0.000000
# 4 0.000000 0.000000 0.000000 0.025409 0.000000 0.000000
# 5 0.000000 0.000000 0.000000 0.000000 0.036677 0.000000
# 6 0.000000 0.000000 0.000000 0.000000 0.000000 0.021927
#
#
# Mechanical properties :
#
#
# Convention : Reuss Voigt Hill
#
# Bulk Modulus (GPa) = 33.63061 39.07494 36.35277
# Shear Modulus (GPa) = 28.04108 34.51209 31.27659
#
# Velocity S-wave (km/s) = 3.45924 3.83768 3.65336
# Velocity P-wave (km/s) = 5.50515 6.02594 5.77142
#
# Compressibility (1/GPa) = 0.02973482
#
# Stress axis : x y z
#
# Youngs Moduli (GPa) = 39.24894 127.75658 42.09743
#
# Poissons Ratio (x) = 0.21172 0.41579
# Poissons Ratio (y) = 0.06505 0.08961
# Poissons Ratio (z) = 0.38766 0.27194
#
# Static dielectric constant tensor:
#      x y z
#    x 1.921050 0.000000 0.000000 
#    y 0.000000 1.931330 0.000000 
#    z 0.000000 0.000000 1.961780 
# 
# From -- ./inp_files/10588.got.cif
#   From: 2010.05.17/outbox.cif.g08.bks.cpg/sg20_6_cif.got.tgz:10588.got - 2010.06.03 22:52:26.
