data_PCOD9320339
_publ_section_title
;
Structure prediction by ZEFSAII (Michael W. Deem and Ramdas Pophale) SiO2 
 PCOD9320339
Probable space group: C 2 2 21
;
_chemical_formula_sum "Si O2"
_cell_formula_units_Z 24
_cell_length_a 6.647156
_cell_length_b 12.052637
_cell_length_c 13.762984
_cell_angle_alpha 90.000000
_cell_angle_beta 90.000000
_cell_angle_gamma 90.000000
_cell_volume 1102.631900
_symmetry_space_group_name_H-M "C 2 2 21"
_symmetry_group_IT_number 20
_symmetry_cell_setting 'orthorhombic'
loop_
_space_group_symop_operation_xyz
x,y,z
-x,-y,1/2+z
x,-y,-z
-x,y,1/2-z
1/2+x,1/2+y,z
1/2-x,1/2-y,1/2+z
1/2+x,1/2-y,-z
1/2-x,1/2+y,1/2-z
loop_
_atom_site_type_symbol
_atom_site_label
_atom_site_fract_x
_atom_site_fract_y
_atom_site_fract_z
Si Si1 0.130627 0.821169 0.150696
Si Si2 0.000000 0.425717 0.250000
Si Si3 0.323889 0.500000 0.500000
Si Si4 0.923708 0.576462 0.413802
O O1 0.355930 0.853120 0.183488
O O2 0.134078 0.702965 0.097723
O O3 0.000000 0.816106 0.250000
O O4 0.068202 0.916116 0.073517
O O5 0.126148 0.508963 0.183094
O O6 0.166071 0.571402 0.433807
O O7 0.841828 0.500000 0.500000
#
# Coordination Sequence:
#
# PCOD9320339 Si02
#       4
#     8   4   4   8
#     4  11  22  45  73  95 138 177 221 276 331 394
#     4  10  22  46  64 100 132 172 220 276 336 396
#     4   8  22  44  64 104 134 174 224 268 330 400
#     4   9  20  44  68  90 140 172 211 285 330 385
#
# _framework density 21.766103000000001
#
# number of rings (size 3 to 8) (size 9 to 14) (size 15 to 20)
#    1.000    1.333    1.667    0.000    0.000    2.667 
#   12.000    0.000    0.000    0.000    0.000    0.000 
#    0.000    0.000    0.000    0.000    0.000    0.000 
#
# Total GULP energy -66893.809525 kJ/mol
# GULP energy per Si atom -5574.484127 kJ/mol
# Density = 2.171656 g / cm^3
# Si number density = 21.766103 Si / 1000 Ang^3
#
#
#
# Elastic Constant Matrix: (Units=GPa)
#
#
# Indices 1 2 3 4 5 6 
#
# 1 38.6077 42.8718 8.1591 0.0000 0.0000 0.0000
# 2 42.8718 208.7543 98.7036 0.0000 0.0000 0.0000
# 3 8.1591 98.7036 127.8200 0.0000 0.0000 0.0000
# 4 0.0000 0.0000 0.0000 42.5464 0.0000 0.0000
# 5 0.0000 0.0000 0.0000 0.0000 29.4386 0.0000
# 6 0.0000 0.0000 0.0000 0.0000 0.0000 20.3687
#
#
#
# Elastic Compliance Matrix: (Units=1/GPa)
#
#
# Indices 1 2 3 4 5 6 
#
# 1 0.035720 -0.009856 0.005331 0.000000 0.000000 0.000000
# 2 -0.009856 0.010265 -0.007298 0.000000 0.000000 0.000000
# 3 0.005331 -0.007298 0.013118 0.000000 0.000000 0.000000
# 4 0.000000 0.000000 0.000000 0.023504 0.000000 0.000000
# 5 0.000000 0.000000 0.000000 0.000000 0.033969 0.000000
# 6 0.000000 0.000000 0.000000 0.000000 0.000000 0.049095
#
#
# Mechanical properties :
#
#
# Convention : Reuss Voigt Hill
#
# Bulk Modulus (GPa) = 28.20264 74.96122 51.58193
# Shear Modulus (GPa) = 24.85881 33.50059 29.17970
#
# Velocity S-wave (km/s) = 3.38315 3.92741 3.66540
# Velocity P-wave (km/s) = 5.31471 7.42161 6.45471
#
# Compressibility (1/GPa) = 0.03545767
#
# Stress axis : x y z
#
# Youngs Moduli (GPa) = 27.99551 97.41859 76.22872
#
# Poissons Ratio (x) = 0.96021 -0.40639
# Poissons Ratio (y) = 0.27594 0.55628
# Poissons Ratio (z) = -0.14925 0.71092
#
# Static dielectric constant tensor:
#      x y z
#    x 1.892840 0.000000 0.000000 
#    y 0.000000 1.735340 0.000000 
#    z 0.000000 0.000000 1.848100 
# 
# From -- ./inp_files/18074.got.cif
#   From: 2010.05.17/outbox.cif.g08.bks.cpg/sg20_10_cif.got.tgz:18074.got - 2010.06.03 22:52:26.
