data_PCOD9320450
_publ_section_title
;
Structure prediction by ZEFSAII (Michael W. Deem and Ramdas Pophale) SiO2 
 PCOD9320450
Probable space group: C 2 2 21
;
_chemical_formula_sum "Si O2"
_cell_formula_units_Z 44
_cell_length_a 18.755018
_cell_length_b 12.963767
_cell_length_c 8.956309
_cell_angle_alpha 90.000000
_cell_angle_beta 90.000000
_cell_angle_gamma 90.000000
_cell_volume 2177.598310
_symmetry_space_group_name_H-M "C 2 2 21"
_symmetry_group_IT_number 20
_symmetry_cell_setting 'orthorhombic'
loop_
_space_group_symop_operation_xyz
x,y,z
-x,-y,1/2+z
x,-y,-z
-x,y,1/2-z
1/2+x,1/2+y,z
1/2-x,1/2-y,1/2+z
1/2+x,1/2-y,-z
1/2-x,1/2+y,1/2-z
loop_
_atom_site_type_symbol
_atom_site_label
_atom_site_fract_x
_atom_site_fract_y
_atom_site_fract_z
Si Si1 0.716885 0.589169 0.801946
Si Si2 0.559678 0.164212 0.353420
Si Si3 0.033807 0.214439 0.089116
Si Si4 0.091168 0.000000 0.000000
Si Si5 0.660708 0.000000 0.500000
Si Si6 0.161430 0.707982 0.090329
Si Si7 0.762552 0.500000 0.500000
O O1 0.644991 0.543456 0.874223
O O2 0.719946 0.705954 0.867245
O O3 0.718659 0.561487 0.627333
O O4 0.786245 0.533660 0.868945
O O5 0.500000 0.108143 0.250000
O O6 0.518635 0.240023 0.463812
O O7 0.609713 0.218269 0.232735
O O8 0.609245 0.089943 0.446880
O O9 0.000000 0.237062 0.250000
O O10 0.045013 0.093099 0.064110
O O11 0.112326 0.263114 0.052952
O O12 0.190678 0.592687 0.071645
#
# Coordination Sequence:
#
# PCOD9320450 Si02
#       7
#     8   8   8   4   4   8   4
#     4  10  24  41  68  95 131 175 219 283 330 401
#     4  10  23  41  61  90 130 172 212 275 324 393
#     4  10  23  40  69  94 129 180 222 276 335 399
#     4   9  22  46  61  97 136 163 228 282 336 405
#     4  11  22  43  64  88 133 171 214 272 344 379
#     4  10  24  43  61 101 137 163 232 272 329 410
#     4  12  24  41  71  97 131 186 214 276 350 392
#
# _framework density 20.205746000000001
#
# number of rings (size 3 to 8) (size 9 to 14) (size 15 to 20)
#    0.000    1.818    1.818    0.000    5.091   10.182 
#    0.000    0.000    0.000    0.000    0.000    0.000 
#    0.000    0.000    0.000    0.000    0.000    0.000 
#
# Total GULP energy -122705.203132 kJ/mol
# GULP energy per Si atom -5577.509233 kJ/mol
# Density = 2.015976 g / cm^3
# Si number density = 20.205746 Si / 1000 Ang^3
#
#
#
# Elastic Constant Matrix: (Units=GPa)
#
#
# Indices 1 2 3 4 5 6 
#
# 1 54.6926 35.1607 33.7480 0.0000 0.0000 0.0000
# 2 35.1607 118.9436 35.2673 0.0000 0.0000 0.0000
# 3 33.7480 35.2673 122.8535 0.0000 0.0000 0.0000
# 4 0.0000 0.0000 0.0000 22.8556 0.0000 0.0000
# 5 0.0000 0.0000 0.0000 0.0000 18.3075 0.0000
# 6 0.0000 0.0000 0.0000 0.0000 0.0000 33.3016
#
#
#
# Elastic Compliance Matrix: (Units=1/GPa)
#
#
# Indices 1 2 3 4 5 6 
#
# 1 0.025343 -0.005932 -0.005259 0.000000 0.000000 0.000000
# 2 -0.005932 0.010578 -0.001407 0.000000 0.000000 0.000000
# 3 -0.005259 -0.001407 0.009988 0.000000 0.000000 0.000000
# 4 0.000000 0.000000 0.000000 0.043753 0.000000 0.000000
# 5 0.000000 0.000000 0.000000 0.000000 0.054622 0.000000
# 6 0.000000 0.000000 0.000000 0.000000 0.000000 0.030029
#
#
# Mechanical properties :
#
#
# Convention : Reuss Voigt Hill
#
# Bulk Modulus (GPa) = 48.27877 56.09351 52.18614
# Shear Modulus (GPa) = 24.22325 27.71384 25.96855
#
# Velocity S-wave (km/s) = 3.46617 3.70751 3.58887
# Velocity P-wave (km/s) = 6.32175 6.79330 6.56176
#
# Compressibility (1/GPa) = 0.02071304
#
# Stress axis : x y z
#
# Youngs Moduli (GPa) = 39.45933 94.53434 100.11751
#
# Poissons Ratio (x) = 0.56080 0.52648
# Poissons Ratio (y) = 0.23408 0.14087
# Poissons Ratio (z) = 0.20750 0.13302
#
# Static dielectric constant tensor:
#      x y z
#    x 1.721160 0.000000 0.000000 
#    y 0.000000 1.731840 0.000000 
#    z 0.000000 0.000000 1.730730 
# 
# From -- ./inp_files/9306.got.cif
#   From: 2010.05.17/outbox.cif.g08.bks.cpg/sg20_5_cif.got.tgz:9306.got - 2010.06.03 22:52:26.
