data_PCOD9320580
_publ_section_title
;
Structure prediction by ZEFSAII (Michael W. Deem and Ramdas Pophale) SiO2 
 PCOD9320580
Probable space group: C 2 2 21
;
_chemical_formula_sum "Si O2"
_cell_formula_units_Z 40
_cell_length_a 18.984623
_cell_length_b 15.872375
_cell_length_c 5.386938
_cell_angle_alpha 90.000000
_cell_angle_beta 90.000000
_cell_angle_gamma 90.000000
_cell_volume 1623.251713
_symmetry_space_group_name_H-M "C 2 2 21"
_symmetry_group_IT_number 20
_symmetry_cell_setting 'orthorhombic'
loop_
_space_group_symop_operation_xyz
x,y,z
-x,-y,1/2+z
x,-y,-z
-x,y,1/2-z
1/2+x,1/2+y,z
1/2-x,1/2-y,1/2+z
1/2+x,1/2-y,-z
1/2-x,1/2+y,1/2-z
loop_
_atom_site_type_symbol
_atom_site_label
_atom_site_fract_x
_atom_site_fract_y
_atom_site_fract_z
Si Si1 0.601070 0.226699 0.920104
Si Si2 0.452629 0.405576 0.497118
Si Si3 0.619512 0.000000 0.500000
Si Si4 0.000000 0.393338 0.250000
Si Si5 0.791545 0.776037 0.930094
Si Si6 0.294005 0.912009 0.636657
O O1 0.529078 0.174310 0.947056
O O2 0.631452 0.242755 0.639892
O O3 0.595138 0.321403 0.020744
O O4 0.655723 0.159197 0.025330
O O5 0.419307 0.500000 0.500000
O O6 0.500000 0.404654 0.250000
O O7 0.500000 0.396227 0.750000
O O8 0.564832 0.953399 0.317955
O O9 0.673350 0.929806 0.596630
O O10 0.741057 0.746808 0.696745
O O11 0.784168 0.876548 0.895427
O O12 0.301714 0.000000 0.500000
#
# Coordination Sequence:
#
# PCOD9320580 Si02
#       6
#     8   8   4   4   8   8
#     4  11  23  43  68 101 138 185 234 288 357 432
#     4  10  23  43  66  95 133 175 228 286 346 414
#     4  12  24  40  64 104 152 186 236 286 362 446
#     4  12  22  36  68 100 146 184 226 284 370 428
#     4  10  24  45  68  95 134 184 239 290 339 405
#     4  11  24  44  67 100 143 187 239 294 353 431
#
# _framework density 24.641895999999999
#
# number of rings (size 3 to 8) (size 9 to 14) (size 15 to 20)
#    0.000    1.200    3.000    2.400    5.600    3.200 
#    1.800    3.000    0.000    0.000    0.000    0.000 
#    0.000    0.000    0.000    0.000    0.000    0.000 
#
# Total GULP energy -111426.525026 kJ/mol
# GULP energy per Si atom -5571.326251 kJ/mol
# Density = 2.458581 g / cm^3
# Si number density = 24.641896 Si / 1000 Ang^3
#
#
#
# Elastic Constant Matrix: (Units=GPa)
#
#
# Indices 1 2 3 4 5 6 
#
# 1 29.9023 17.8606 5.8901 0.0000 0.0000 0.0000
# 2 17.8606 188.0716 15.1535 0.0000 0.0000 0.0000
# 3 5.8901 15.1535 81.6325 0.0000 0.0000 0.0000
# 4 0.0000 0.0000 0.0000 41.2208 0.0000 0.0000
# 5 0.0000 0.0000 0.0000 0.0000 19.4508 0.0000
# 6 0.0000 0.0000 0.0000 0.0000 0.0000 45.9822
#
#
#
# Elastic Compliance Matrix: (Units=1/GPa)
#
#
# Indices 1 2 3 4 5 6 
#
# 1 0.035766 -0.003237 -0.001980 0.000000 0.000000 0.000000
# 2 -0.003237 0.005691 -0.000823 0.000000 0.000000 0.000000
# 3 -0.001980 -0.000823 0.012546 0.000000 0.000000 0.000000
# 4 0.000000 0.000000 0.000000 0.024260 0.000000 0.000000
# 5 0.000000 0.000000 0.000000 0.000000 0.051412 0.000000
# 6 0.000000 0.000000 0.000000 0.000000 0.000000 0.021748
#
#
# Mechanical properties :
#
#
# Convention : Reuss Voigt Hill
#
# Bulk Modulus (GPa) = 23.85328 41.93496 32.89412
# Shear Modulus (GPa) = 28.17307 38.71092 33.44199
#
# Velocity S-wave (km/s) = 3.38494 3.96781 3.68791
# Velocity P-wave (km/s) = 4.99781 6.16815 5.61356
#
# Compressibility (1/GPa) = 0.04192296
#
# Stress axis : x y z
#
# Youngs Moduli (GPa) = 27.95974 175.72115 79.70913
#
# Poissons Ratio (x) = 0.56882 0.15780
# Poissons Ratio (y) = 0.09051 0.06559
# Poissons Ratio (z) = 0.05535 0.14459
#
# Static dielectric constant tensor:
#      x y z
#    x 2.100530 0.000000 0.000000 
#    y 0.000000 2.020410 0.000000 
#    z 0.000000 0.000000 2.138080 
# 
# From -- ./inp_files/3652.got.cif
#   From: 2010.05.17/outbox.cif.g08.bks.cpg/sg20_2_cif.got.tgz:3652.got - 2010.06.03 22:52:26.
