data_PCOD9320941
_publ_section_title
;
Structure prediction by ZEFSAII (Michael W. Deem and Ramdas Pophale) SiO2 
 PCOD9320941
Probable space group: C 2 2 21
;
_chemical_formula_sum "Si O2"
_cell_formula_units_Z 32
_cell_length_a 15.146825
_cell_length_b 7.860162
_cell_length_c 10.994261
_cell_angle_alpha 90.000000
_cell_angle_beta 90.000000
_cell_angle_gamma 90.000000
_cell_volume 1308.938216
_symmetry_space_group_name_H-M "C 2 2 21"
_symmetry_group_IT_number 20
_symmetry_cell_setting 'orthorhombic'
loop_
_space_group_symop_operation_xyz
x,y,z
-x,-y,1/2+z
x,-y,-z
-x,y,1/2-z
1/2+x,1/2+y,z
1/2-x,1/2-y,1/2+z
1/2+x,1/2-y,-z
1/2-x,1/2+y,1/2-z
loop_
_atom_site_type_symbol
_atom_site_label
_atom_site_fract_x
_atom_site_fract_y
_atom_site_fract_z
Si Si1 0.913958 0.801969 0.510145
Si Si2 0.346095 0.085696 0.297535
Si Si3 0.587563 0.842424 0.408718
Si Si4 0.274796 0.681724 0.914531
O O1 0.913261 0.679739 0.390096
O O2 0.812687 0.788753 0.551579
O O3 0.989744 0.731408 0.597120
O O4 0.934152 0.000000 0.500000
O O5 0.314220 0.232433 0.206927
O O6 0.379168 0.928666 0.215030
O O7 0.267308 0.999464 0.375127
O O8 0.651334 0.711076 0.481094
O O9 0.585844 0.000000 0.500000
#
# Coordination Sequence:
#
# PCOD9320941 Si02
#       4
#     8   8   8   8
#     4  12  26  45  71 107 145 189 243 294 353 433
#     4  11  24  46  74 104 149 193 233 303 363 413
#     4  10  24  45  70 104 145 192 243 291 355 432
#     4  11  23  43  72 106 144 194 241 289 358 431
#
# _framework density 24.447296999999999
#
# number of rings (size 3 to 8) (size 9 to 14) (size 15 to 20)
#    0.000    1.000    0.000    7.500    0.000   13.000 
#    0.000    5.000    0.000    0.000    0.000    0.000 
#    0.000    0.000    0.000    0.000    0.000    0.000 
#
# Total GULP energy -89456.507577 kJ/mol
# GULP energy per Si atom -5591.031724 kJ/mol
# Density = 2.439165 g / cm^3
# Si number density = 24.447297 Si / 1000 Ang^3
#
#
#
# Elastic Constant Matrix: (Units=GPa)
#
#
# Indices 1 2 3 4 5 6 
#
# 1 118.8383 22.8636 56.3187 0.0000 0.0000 0.0000
# 2 22.8636 122.5836 50.2743 0.0000 0.0000 0.0000
# 3 56.3187 50.2743 119.4600 0.0000 0.0000 0.0000
# 4 0.0000 0.0000 0.0000 22.6195 0.0000 0.0000
# 5 0.0000 0.0000 0.0000 0.0000 41.4816 0.0000
# 6 0.0000 0.0000 0.0000 0.0000 0.0000 29.7319
#
#
#
# Elastic Compliance Matrix: (Units=1/GPa)
#
#
# Indices 1 2 3 4 5 6 
#
# 1 0.010837 0.000090 -0.005147 0.000000 0.000000 0.000000
# 2 0.000090 0.009860 -0.004192 0.000000 0.000000 0.000000
# 3 -0.005147 -0.004192 0.012561 0.000000 0.000000 0.000000
# 4 0.000000 0.000000 0.000000 0.044210 0.000000 0.000000
# 5 0.000000 0.000000 0.000000 0.000000 0.024107 0.000000
# 6 0.000000 0.000000 0.000000 0.000000 0.000000 0.033634
#
#
# Mechanical properties :
#
#
# Convention : Reuss Voigt Hill
#
# Bulk Modulus (GPa) = 67.74827 68.86611 68.30719
# Shear Modulus (GPa) = 31.52059 34.19495 32.85777
#
# Velocity S-wave (km/s) = 3.59462 3.74401 3.67007
# Velocity P-wave (km/s) = 6.70824 6.84985 6.77942
#
# Compressibility (1/GPa) = 0.01476052
#
# Stress axis : x y z
#
# Youngs Moduli (GPa) = 92.28020 101.41827 79.60893
#
# Poissons Ratio (x) = -0.00908 0.40971
# Poissons Ratio (y) = -0.00826 0.33371
# Poissons Ratio (z) = 0.47492 0.42513
#
# Static dielectric constant tensor:
#      x y z
#    x 1.913730 0.000000 0.000000 
#    y 0.000000 2.046440 0.000000 
#    z 0.000000 0.000000 2.015780 
# 
# From -- ./inp_files/19497.got.cif
#   From: 2010.05.17/outbox.cif.g08.bks.cpg/sg20_10_cif.got.tgz:19497.got - 2010.06.03 22:52:26.
