data_PCOD9320184
_publ_section_title
;
Structure prediction by ZEFSAII (Michael W. Deem and Ramdas Pophale) SiO2 
 PCOD9320184
Probable space group: C 2 2 21
;
_chemical_formula_sum "Si O2"
_cell_formula_units_Z 36
_cell_length_a 22.157798
_cell_length_b 9.170500
_cell_length_c 7.295675
_cell_angle_alpha 90.000000
_cell_angle_beta 90.000000
_cell_angle_gamma 90.000000
_cell_volume 1482.467200
_symmetry_space_group_name_H-M "C 2 2 21"
_symmetry_group_IT_number 20
_symmetry_cell_setting 'orthorhombic'
loop_
_space_group_symop_operation_xyz
x,y,z
-x,-y,1/2+z
x,-y,-z
-x,y,1/2-z
1/2+x,1/2+y,z
1/2-x,1/2-y,1/2+z
1/2+x,1/2-y,-z
1/2-x,1/2+y,1/2-z
loop_
_atom_site_type_symbol
_atom_site_label
_atom_site_fract_x
_atom_site_fract_y
_atom_site_fract_z
Si Si1 0.586335 0.000000 0.500000
Si Si2 0.500000 0.589859 0.250000
Si Si3 0.103280 0.000000 0.500000
Si Si4 0.797836 0.638604 0.625927
Si Si5 0.563397 0.855556 0.116453
Si Si6 0.319553 0.209675 0.024270
O O1 0.559318 0.093553 0.668313
O O2 0.626350 0.118356 0.387556
O O3 0.556401 0.502025 0.330325
O O4 0.527834 0.703339 0.099883
O O5 0.146957 0.861601 0.519005
O O6 0.782235 0.500000 0.500000
O O7 0.866242 0.680152 0.573475
O O8 0.744040 0.755045 0.613751
O O9 0.802951 0.618548 0.842995
O O10 0.547270 0.000000 0.000000
#
# Coordination Sequence:
#
# PCOD9320184 Si02
#       6
#     4   4   4   8   8   8
#     4  10  22  44  69 107 146 188 242 312 370 436
#     4  12  26  50  68 108 152 202 252 316 390 452
#     4  12  26  50  69 105 158 194 252 320 382 458
#     4  10  22  43  69 109 150 188 245 308 381 458
#     4  10  24  44  74 109 138 197 256 299 378 459
#     4  11  24  42  75 108 149 197 245 319 382 454
#
# _framework density 24.283843999999998
#
# number of rings (size 3 to 8) (size 9 to 14) (size 15 to 20)
#    0.000    1.333    5.556    0.000   10.889    1.778 
#    0.000    0.000    0.000    0.000    0.000    0.000 
#    0.000    0.000    0.000    0.000    0.000    0.000 
#
# Total GULP energy -100351.370083 kJ/mol
# GULP energy per Si atom -5575.076116 kJ/mol
# Density = 2.422857 g / cm^3
# Si number density = 24.283844 Si / 1000 Ang^3
#
#
#
# Elastic Constant Matrix: (Units=GPa)
#
#
# Indices 1 2 3 4 5 6 
#
# 1 94.1512 1.8634 15.6098 0.0000 0.0000 0.0000
# 2 1.8634 47.3897 17.1557 0.0000 0.0000 0.0000
# 3 15.6098 17.1557 67.0241 0.0000 0.0000 0.0000
# 4 0.0000 0.0000 0.0000 42.2941 0.0000 0.0000
# 5 0.0000 0.0000 0.0000 0.0000 44.2712 0.0000
# 6 0.0000 0.0000 0.0000 0.0000 0.0000 2.0359
#
#
#
# Elastic Compliance Matrix: (Units=1/GPa)
#
#
# Indices 1 2 3 4 5 6 
#
# 1 0.011061 0.000548 -0.002716 0.000000 0.000000 0.000000
# 2 0.000548 0.023284 -0.006088 0.000000 0.000000 0.000000
# 3 -0.002716 -0.006088 0.017111 0.000000 0.000000 0.000000
# 4 0.000000 0.000000 0.000000 0.023644 0.000000 0.000000
# 5 0.000000 0.000000 0.000000 0.000000 0.022588 0.000000
# 6 0.000000 0.000000 0.000000 0.000000 0.000000 0.491183
#
#
# Mechanical properties :
#
#
# Convention : Reuss Voigt Hill
#
# Bulk Modulus (GPa) = 28.61689 30.86922 29.74305
# Shear Modulus (GPa) = 8.10333 29.31599 18.70966
#
# Velocity S-wave (km/s) = 1.82871 3.47828 2.77872
# Velocity P-wave (km/s) = 4.03346 5.37314 4.75076
#
# Compressibility (1/GPa) = 0.03494440
#
# Stress axis : x y z
#
# Youngs Moduli (GPa) = 90.41001 42.94830 58.44254
#
# Poissons Ratio (x) = -0.02355 0.15875
# Poissons Ratio (y) = -0.04959 0.35577
# Poissons Ratio (z) = 0.24559 0.26145
#
# Static dielectric constant tensor:
#      x y z
#    x 2.068790 0.000000 0.000000 
#    y 0.000000 1.975180 0.000000 
#    z 0.000000 0.000000 1.961460 
# 
# From -- ./inp_files/10947.got.cif
#   From: 2010.05.17/outbox.cif.g08.bks.cpg/sg20_6_cif.got.tgz:10947.got - 2010.06.03 22:52:26.
