data_PCOD9320948
_publ_section_title
;
Structure prediction by ZEFSAII (Michael W. Deem and Ramdas Pophale) SiO2 
 PCOD9320948
Probable space group: C 2 2 21
;
_chemical_formula_sum "Si O2"
_cell_formula_units_Z 40
_cell_length_a 28.252303
_cell_length_b 9.140778
_cell_length_c 7.127016
_cell_angle_alpha 90.000000
_cell_angle_beta 90.000000
_cell_angle_gamma 90.000000
_cell_volume 1840.537840
_symmetry_space_group_name_H-M "C 2 2 21"
_symmetry_group_IT_number 20
_symmetry_cell_setting 'orthorhombic'
loop_
_space_group_symop_operation_xyz
x,y,z
-x,-y,1/2+z
x,-y,-z
-x,y,1/2-z
1/2+x,1/2+y,z
1/2-x,1/2-y,1/2+z
1/2+x,1/2-y,-z
1/2-x,1/2+y,1/2-z
loop_
_atom_site_type_symbol
_atom_site_label
_atom_site_fract_x
_atom_site_fract_y
_atom_site_fract_z
Si Si1 0.614357 0.599556 0.160384
Si Si2 0.195224 0.605339 0.191461
Si Si3 0.712328 0.547434 0.723638
Si Si4 0.000000 0.222014 0.750000
Si Si5 0.549925 0.500000 0.500000
Si Si6 0.595515 0.859178 0.890756
O O1 0.666541 0.536196 0.197945
O O2 0.583704 0.575297 0.345329
O O3 0.591335 0.500000 0.000000
O O4 0.615666 0.753497 0.055572
O O5 0.238011 0.520791 0.291383
O O6 0.209343 0.780100 0.215844
O O7 0.139932 0.611867 0.247014
O O8 0.191825 0.500000 0.000000
O O9 0.710739 0.500000 0.500000
O O10 0.951370 0.302886 0.706091
O O11 0.015485 0.121638 0.579186
O O12 0.580207 0.000000 0.000000
#
# Coordination Sequence:
#
# PCOD9320948 Si02
#       6
#     8   8   8   4   4   8
#     4  12  23  46  76 106 153 197 248 319 378 469
#     4  10  24  45  72 109 152 201 246 313 388 465
#     4  11  24  42  75 111 153 200 253 311 385 473
#     4  12  24  44  76 106 148 194 252 318 372 452
#     4  12  24  44  76 116 140 194 266 306 390 448
#     4  11  26  47  72 103 152 197 245 313 382 445
#
# _framework density 21.732778
#
# number of rings (size 3 to 8) (size 9 to 14) (size 15 to 20)
#    0.000    0.800    5.000    1.200    8.400    1.600 
#    0.000    0.000    0.000    0.000    0.000    0.000 
#    0.000    0.000    0.000    0.000    0.000    0.000 
#
# Total GULP energy -111337.971316 kJ/mol
# GULP energy per Si atom -5566.898566 kJ/mol
# Density = 2.168331 g / cm^3
# Si number density = 21.732778 Si / 1000 Ang^3
#
#
#
# Elastic Constant Matrix: (Units=GPa)
#
#
# Indices 1 2 3 4 5 6 
#
# 1 223.2660 50.7801 38.8259 0.0000 0.0000 0.0000
# 2 50.7801 138.2172 27.5284 0.0000 0.0000 0.0000
# 3 38.8259 27.5284 89.3230 0.0000 0.0000 0.0000
# 4 0.0000 0.0000 0.0000 16.8083 0.0000 0.0000
# 5 0.0000 0.0000 0.0000 0.0000 1.4892 0.0000
# 6 0.0000 0.0000 0.0000 0.0000 0.0000 -99.6787
#
#
#
# Elastic Compliance Matrix: (Units=1/GPa)
#
#
# Indices 1 2 3 4 5 6 
#
# 1 0.005134 -0.001536 -0.001758 0.000000 0.000000 0.000000
# 2 -0.001536 0.008168 -0.001850 0.000000 0.000000 0.000000
# 3 -0.001758 -0.001850 0.012530 0.000000 0.000000 0.000000
# 4 0.000000 0.000000 0.000000 0.059495 0.000000 0.000000
# 5 0.000000 0.000000 0.000000 0.000000 0.671507 0.000000
# 6 0.000000 0.000000 0.000000 0.000000 0.000000 -0.010032
#
#
# Mechanical properties :
#
#
# Convention : Reuss Voigt Hill
#
# Bulk Modulus (GPa) = 64.33457 76.11945 70.22701
# Shear Modulus (GPa) = 6.55936 5.96854 6.26395
#
# Velocity S-wave (km/s) = 1.73918 1.65900 1.69956
# Velocity P-wave (km/s) = 5.80515 6.22663 6.01958
#
# Compressibility (1/GPa) = 0.01554374
#
# Stress axis : x y z
#
# Youngs Moduli (GPa) = 194.77688 122.43372 79.81115
#
# Poissons Ratio (x) = 0.18806 0.14033
# Poissons Ratio (y) = 0.29919 0.14761
# Poissons Ratio (z) = 0.34246 0.22644
#
# Static dielectric constant tensor:
#      x y z
#    x 1.803630 0.000000 0.000000 
#    y 0.000000 1.724790 0.000000 
#    z 0.000000 0.000000 2.071520 
# 
# From -- ./inp_files/11350.got.cif
#   From: 2010.05.17/outbox.cif.g08.bks.cpg/sg20_6_cif.got.tgz:11350.got - 2010.06.03 22:52:26.
