data_PCOD9320733
_publ_section_title
;
Structure prediction by ZEFSAII (Michael W. Deem and Ramdas Pophale) SiO2 
 PCOD9320733
Probable space group: C 2 2 21
;
_chemical_formula_sum "Si O2"
_cell_formula_units_Z 32
_cell_length_a 13.862026
_cell_length_b 4.792355
_cell_length_c 21.031880
_cell_angle_alpha 90.000000
_cell_angle_beta 90.000000
_cell_angle_gamma 90.000000
_cell_volume 1397.184586
_symmetry_space_group_name_H-M "C 2 2 21"
_symmetry_group_IT_number 20
_symmetry_cell_setting 'orthorhombic'
loop_
_space_group_symop_operation_xyz
x,y,z
-x,-y,1/2+z
x,-y,-z
-x,y,1/2-z
1/2+x,1/2+y,z
1/2-x,1/2-y,1/2+z
1/2+x,1/2-y,-z
1/2-x,1/2+y,1/2-z
loop_
_atom_site_type_symbol
_atom_site_label
_atom_site_fract_x
_atom_site_fract_y
_atom_site_fract_z
Si Si1 0.060444 0.736263 0.957848
Si Si2 0.551582 0.055994 0.354895
Si Si3 0.341721 0.559191 0.193113
Si Si4 0.860630 0.270204 0.326330
O O1 0.123539 0.841319 0.897786
O O2 0.973847 0.558539 0.925032
O O3 0.113097 0.500000 0.000000
O O4 0.032827 0.000000 0.000000
O O5 0.579723 0.374025 0.344494
O O6 0.639826 0.876170 0.327440
O O7 0.454341 0.967930 0.318157
O O8 0.236827 0.446004 0.177659
O O9 0.359004 0.553169 0.268660
#
# Coordination Sequence:
#
# PCOD9320733 Si02
#       4
#     8   8   8   8
#     4  10  23  47  68  94 137 185 231 277 336 403
#     4  10  26  42  70  96 138 179 217 286 342 393
#     4  12  23  45  66 108 136 170 234 273 359 407
#     4  10  27  41  72 101 143 174 222 290 341 410
#
# _framework density 22.903203999999999
#
# number of rings (size 3 to 8) (size 9 to 14) (size 15 to 20)
#    1.500    0.000    0.000    3.750    0.000   16.000 
#    0.000    7.500    0.000    0.000    0.000    0.000 
#    0.000    0.000    0.000    0.000    0.000    0.000 
#
# Total GULP energy -89387.350732 kJ/mol
# GULP energy per Si atom -5586.709421 kJ/mol
# Density = 2.285107 g / cm^3
# Si number density = 22.903204 Si / 1000 Ang^3
#
#
#
# Elastic Constant Matrix: (Units=GPa)
#
#
# Indices 1 2 3 4 5 6 
#
# 1 76.6492 2.3600 7.0057 0.0000 0.0000 0.0000
# 2 2.3600 73.0689 18.9681 0.0000 0.0000 0.0000
# 3 7.0057 18.9681 135.5408 0.0000 0.0000 0.0000
# 4 0.0000 0.0000 0.0000 49.0801 0.0000 0.0000
# 5 0.0000 0.0000 0.0000 0.0000 10.8211 0.0000
# 6 0.0000 0.0000 0.0000 0.0000 0.0000 30.3466
#
#
#
# Elastic Compliance Matrix: (Units=1/GPa)
#
#
# Indices 1 2 3 4 5 6 
#
# 1 0.013113 -0.000257 -0.000642 0.000000 0.000000 0.000000
# 2 -0.000257 0.014207 -0.001975 0.000000 0.000000 0.000000
# 3 -0.000642 -0.001975 0.007687 0.000000 0.000000 0.000000
# 4 0.000000 0.000000 0.000000 0.020375 0.000000 0.000000
# 5 0.000000 0.000000 0.000000 0.000000 0.092412 0.000000
# 6 0.000000 0.000000 0.000000 0.000000 0.000000 0.032953
#
#
# Mechanical properties :
#
#
# Convention : Reuss Voigt Hill
#
# Bulk Modulus (GPa) = 34.17644 37.99181 36.08412
# Shear Modulus (GPa) = 25.47809 35.17791 30.32800
#
# Velocity S-wave (km/s) = 3.33892 3.92336 3.64288
# Velocity P-wave (km/s) = 5.46068 6.09489 5.78648
#
# Compressibility (1/GPa) = 0.02925993
#
# Stress axis : x y z
#
# Youngs Moduli (GPa) = 76.26004 70.38949 130.08315
#
# Poissons Ratio (x) = 0.01808 0.08349
# Poissons Ratio (y) = 0.01959 0.25689
# Poissons Ratio (z) = 0.04895 0.13901
#
# Static dielectric constant tensor:
#      x y z
#    x 1.821870 0.000000 0.000000 
#    y 0.000000 1.837840 0.000000 
#    z 0.000000 0.000000 1.931270 
# 
# From -- ./inp_files/27361.got.cif
#   From: 2010.05.17/outbox.cif.g08.bks.cpg/sg20_14_cif.got.tgz:27361.got - 2010.06.03 22:52:26.
