data_PCOD9320819
_publ_section_title
;
Structure prediction by ZEFSAII (Michael W. Deem and Ramdas Pophale) SiO2 
 PCOD9320819
Probable space group: C 2 2 21
;
_chemical_formula_sum "Si O2"
_cell_formula_units_Z 60
_cell_length_a 8.815460
_cell_length_b 17.025783
_cell_length_c 19.194590
_cell_angle_alpha 90.000000
_cell_angle_beta 90.000000
_cell_angle_gamma 90.000000
_cell_volume 2880.918105
_symmetry_space_group_name_H-M "C 2 2 21"
_symmetry_group_IT_number 20
_symmetry_cell_setting 'orthorhombic'
loop_
_space_group_symop_operation_xyz
x,y,z
-x,-y,1/2+z
x,-y,-z
-x,y,1/2-z
1/2+x,1/2+y,z
1/2-x,1/2-y,1/2+z
1/2+x,1/2-y,-z
1/2-x,1/2+y,1/2-z
loop_
_atom_site_type_symbol
_atom_site_label
_atom_site_fract_x
_atom_site_fract_y
_atom_site_fract_z
Si Si1 0.204211 0.941724 0.141560
Si Si2 0.356032 0.666908 0.522842
Si Si3 0.000000 0.136484 0.750000
Si Si4 0.306865 0.111417 0.109372
Si Si5 0.269666 0.715452 0.852692
Si Si6 0.188157 0.818713 0.517425
Si Si7 0.540621 0.912986 0.172885
Si Si8 0.379554 0.041080 0.427481
O O1 0.112059 0.898349 0.080671
O O2 0.127365 0.915977 0.212945
O O3 0.377014 0.909979 0.135766
O O4 0.217514 0.034701 0.133987
O O5 0.237957 0.628972 0.469935
O O6 0.280681 0.746630 0.551467
O O7 0.507248 0.688231 0.480036
O O8 0.914061 0.187106 0.808388
O O9 0.267404 0.190578 0.149902
O O10 0.484338 0.090906 0.106732
O O11 0.123595 0.670208 0.823362
O O12 0.278922 0.690481 0.934339
O O13 0.246291 0.900015 0.549990
O O14 0.500000 0.943096 0.250000
O O15 0.646817 0.972090 0.128649
O O16 0.430248 0.000000 0.500000
#
# Coordination Sequence:
#
# PCOD9320819 Si02
#       8
#     8   8   4   8   8   8   8   8
#     4  11  24  44  66  95 134 181 216 280 341 404
#     4  11  23  39  67  98 134 172 219 280 352 394
#     4  12  24  44  66  92 136 180 226 272 342 406
#     4  10  24  42  65  99 133 166 226 282 335 404
#     4  11  23  44  65  95 132 174 225 279 332 415
#     4  11  23  39  67 103 132 171 230 286 337 406
#     4  11  23  43  69  93 131 185 229 269 343 415
#     4  11  22  41  69  98 134 178 225 286 342 403
#
# _framework density 20.826692999999999
#
# number of rings (size 3 to 8) (size 9 to 14) (size 15 to 20)
#    0.000    1.067    4.000    3.600    3.733    2.133 
#    6.000    0.000    0.000    0.000    0.000    0.000 
#    0.000    0.000    0.000    0.000    0.000    0.000 
#
# Total GULP energy -167556.535729 kJ/mol
# GULP energy per Si atom -5585.217858 kJ/mol
# Density = 2.077929 g / cm^3
# Si number density = 20.826693 Si / 1000 Ang^3
#
#
#
# Elastic Constant Matrix: (Units=GPa)
#
#
# Indices 1 2 3 4 5 6 
#
# 1 54.9520 44.8863 -14.7424 0.0000 0.0000 0.0000
# 2 44.8863 149.6976 32.8351 0.0000 0.0000 0.0000
# 3 -14.7424 32.8351 59.7290 0.0000 0.0000 0.0000
# 4 0.0000 0.0000 0.0000 19.1742 0.0000 0.0000
# 5 0.0000 0.0000 0.0000 0.0000 23.5062 0.0000
# 6 0.0000 0.0000 0.0000 0.0000 0.0000 31.7054
#
#
#
# Elastic Compliance Matrix: (Units=1/GPa)
#
#
# Indices 1 2 3 4 5 6 
#
# 1 0.033352 -0.013425 0.015612 0.000000 0.000000 0.000000
# 2 -0.013425 0.013000 -0.010460 0.000000 0.000000 0.000000
# 3 0.015612 -0.010460 0.026346 0.000000 0.000000 0.000000
# 4 0.000000 0.000000 0.000000 0.052153 0.000000 0.000000
# 5 0.000000 0.000000 0.000000 0.000000 0.042542 0.000000
# 6 0.000000 0.000000 0.000000 0.000000 0.000000 0.031540
#
#
# Mechanical properties :
#
#
# Convention : Reuss Voigt Hill
#
# Bulk Modulus (GPa) = 17.80876 43.37074 30.58975
# Shear Modulus (GPa) = 21.34961 28.30382 24.82672
#
# Velocity S-wave (km/s) = 3.20520 3.69048 3.45637
# Velocity P-wave (km/s) = 4.71882 6.24735 5.53609
#
# Compressibility (1/GPa) = 0.05615213
#
# Stress axis : x y z
#
# Youngs Moduli (GPa) = 29.98331 76.92384 37.95648
#
# Poissons Ratio (x) = 1.03269 -0.59258
# Poissons Ratio (y) = 0.40252 0.39703
# Poissons Ratio (z) = -0.46810 0.80463
#
# Static dielectric constant tensor:
#      x y z
#    x 1.769340 0.000000 0.000000 
#    y 0.000000 1.753490 0.000000 
#    z 0.000000 0.000000 1.757550 
# 
# From -- ./inp_files/23771.got.cif
#   From: 2010.05.17/outbox.cif.g08.bks.cpg/sg20_12_cif.got.tgz:23771.got - 2010.06.03 22:52:26.
