data_PCOD9320187
_publ_section_title
;
Structure prediction by ZEFSAII (Michael W. Deem and Ramdas Pophale) SiO2 
 PCOD9320187
Probable space group: C 2 2 21
;
_chemical_formula_sum "Si O2"
_cell_formula_units_Z 56
_cell_length_a 15.377535
_cell_length_b 7.805401
_cell_length_c 19.617864
_cell_angle_alpha 90.000000
_cell_angle_beta 90.000000
_cell_angle_gamma 90.000000
_cell_volume 2354.689588
_symmetry_space_group_name_H-M "C 2 2 21"
_symmetry_group_IT_number 20
_symmetry_cell_setting 'orthorhombic'
loop_
_space_group_symop_operation_xyz
x,y,z
-x,-y,1/2+z
x,-y,-z
-x,y,1/2-z
1/2+x,1/2+y,z
1/2-x,1/2-y,1/2+z
1/2+x,1/2-y,-z
1/2-x,1/2+y,1/2-z
loop_
_atom_site_type_symbol
_atom_site_label
_atom_site_fract_x
_atom_site_fract_y
_atom_site_fract_z
Si Si1 0.177155 0.741524 0.984581
Si Si2 0.639159 0.988098 0.229066
Si Si3 0.641339 0.441068 0.111391
Si Si4 0.049015 0.921149 0.627494
Si Si5 0.980350 0.500000 0.500000
Si Si6 0.674941 0.587046 0.252666
Si Si7 0.832184 0.000000 0.000000
Si Si8 0.028611 0.513019 0.642677
O O1 0.171053 0.783415 0.065240
O O2 0.264913 0.640018 0.971556
O O3 0.087465 0.640405 0.972340
O O4 0.173985 0.902266 0.935448
O O5 0.652353 0.781203 0.229695
O O6 0.563222 0.036584 0.176618
O O7 0.603850 0.037102 0.304402
O O8 0.730406 0.075305 0.214192
O O9 0.537480 0.467570 0.117017
O O10 0.677126 0.466478 0.186564
O O11 0.102955 0.975351 0.694012
O O12 0.029618 0.720495 0.640131
O O13 0.107663 0.932780 0.560422
O O14 0.035600 0.445491 0.565617
#
# Coordination Sequence:
#
# PCOD9320187 Si02
#       8
#     8   8   8   8   4   8   4   8
#     4  10  24  40  68  95 135 169 213 277 330 387
#     4  10  23  44  65  95 133 170 216 276 338 390
#     4  11  22  46  66  98 131 176 218 272 331 397
#     4  11  23  42  69  92 129 177 221 264 327 406
#     4  11  20  40  72  93 126 174 220 263 326 394
#     4  11  24  40  70  94 128 169 224 271 326 390
#     4  11  26  42  66 101 130 174 222 273 334 398
#     4  10  22  43  69  93 130 175 217 270 338 394
#
# _framework density 23.782326000000001
#
# number of rings (size 3 to 8) (size 9 to 14) (size 15 to 20)
#    0.000    1.429    2.857    1.286   10.000    0.000 
#    5.143    0.000    0.000    0.000    0.000    0.000 
#    0.000    0.000    0.000    0.000    0.000    0.000 
#
# Total GULP energy -156791.380882 kJ/mol
# GULP energy per Si atom -5599.692174 kJ/mol
# Density = 2.372820 g / cm^3
# Si number density = 23.782326 Si / 1000 Ang^3
#
#
#
# Elastic Constant Matrix: (Units=GPa)
#
#
# Indices 1 2 3 4 5 6 
#
# 1 103.1685 5.6850 21.2161 0.0000 0.0000 0.0000
# 2 5.6850 19.5865 -5.4431 0.0000 0.0000 0.0000
# 3 21.2161 -5.4431 119.1749 0.0000 0.0000 0.0000
# 4 0.0000 0.0000 0.0000 30.5523 0.0000 0.0000
# 5 0.0000 0.0000 0.0000 0.0000 48.6911 0.0000
# 6 0.0000 0.0000 0.0000 0.0000 0.0000 29.6138
#
#
#
# Elastic Compliance Matrix: (Units=1/GPa)
#
#
# Indices 1 2 3 4 5 6 
#
# 1 0.010298 -0.003544 -0.001995 0.000000 0.000000 0.000000
# 2 -0.003544 0.052931 0.003048 0.000000 0.000000 0.000000
# 3 -0.001995 0.003048 0.008885 0.000000 0.000000 0.000000
# 4 0.000000 0.000000 0.000000 0.032731 0.000000 0.000000
# 5 0.000000 0.000000 0.000000 0.000000 0.020538 0.000000
# 6 0.000000 0.000000 0.000000 0.000000 0.000000 0.033768
#
#
# Mechanical properties :
#
#
# Convention : Reuss Voigt Hill
#
# Bulk Modulus (GPa) = 14.89549 31.64953 23.27251
# Shear Modulus (GPa) = 26.80812 36.46958 31.63885
#
# Velocity S-wave (km/s) = 3.36107 3.92021 3.65136
# Velocity P-wave (km/s) = 4.61944 5.81615 5.25199
#
# Compressibility (1/GPa) = 0.06713442
#
# Stress axis : x y z
#
# Youngs Moduli (GPa) = 97.10190 18.89239 112.54341
#
# Poissons Ratio (x) = 0.06695 0.22455
# Poissons Ratio (y) = 0.34409 -0.34308
# Poissons Ratio (z) = 0.19374 -0.05759
#
# Static dielectric constant tensor:
#      x y z
#    x 1.852070 0.000000 0.000000 
#    y 0.000000 1.931320 0.000000 
#    z 0.000000 0.000000 1.889680 
# 
# From -- ./inp_files/27613.got.cif
#   From: 2010.05.17/outbox.cif.g08.bks.cpg/sg20_14_cif.got.tgz:27613.got - 2010.06.03 22:52:26.
