data_PCOD9320421
_publ_section_title
;
Structure prediction by ZEFSAII (Michael W. Deem and Ramdas Pophale) SiO2 
 PCOD9320421
Probable space group: C 2 2 21
;
_chemical_formula_sum "Si O2"
_cell_formula_units_Z 40
_cell_length_a 14.913482
_cell_length_b 14.788708
_cell_length_c 8.051715
_cell_angle_alpha 90.000000
_cell_angle_beta 90.000000
_cell_angle_gamma 90.000000
_cell_volume 1775.814846
_symmetry_space_group_name_H-M "C 2 2 21"
_symmetry_group_IT_number 20
_symmetry_cell_setting 'orthorhombic'
loop_
_space_group_symop_operation_xyz
x,y,z
-x,-y,1/2+z
x,-y,-z
-x,y,1/2-z
1/2+x,1/2+y,z
1/2-x,1/2-y,1/2+z
1/2+x,1/2-y,-z
1/2-x,1/2+y,1/2-z
loop_
_atom_site_type_symbol
_atom_site_label
_atom_site_fract_x
_atom_site_fract_y
_atom_site_fract_z
Si Si1 0.018209 0.500000 0.500000
Si Si2 0.000000 0.356003 0.250000
Si Si3 0.899190 0.013652 0.798404
Si Si4 0.823475 0.311712 0.080536
Si Si5 0.000000 0.360228 0.750000
Si Si6 0.637348 0.275734 0.230951
Si Si7 0.231983 0.000000 0.000000
O O1 0.967321 0.426034 0.391731
O O2 0.056631 0.430296 0.637487
O O3 0.911768 0.304723 0.193284
O O4 0.891897 0.120446 0.751074
O O5 0.000000 0.982993 0.750000
O O6 0.829298 0.972419 0.661270
O O7 0.883571 0.000000 0.000000
O O8 0.732990 0.267121 0.145920
O O9 0.850271 0.263464 0.913026
O O10 0.792923 0.416383 0.059782
O O11 0.936793 0.290152 0.651838
#
# Coordination Sequence:
#
# PCOD9320421 Si02
#       7
#     4   4   8   8   4   8   4
#     4  10  23  38  72 101 130 186 225 284 360 433
#     4  11  22  46  66  97 136 182 239 278 374 426
#     4  11  23  46  75 106 141 198 238 294 365 433
#     4  11  26  45  68 102 137 188 232 305 355 435
#     4  11  22  46  70  99 148 174 229 292 348 440
#     4  11  26  44  68 103 141 179 241 292 363 425
#     4  10  25  48  70 105 150 182 251 298 356 441
#
# _framework density 22.524868999999999
#
# number of rings (size 3 to 8) (size 9 to 14) (size 15 to 20)
#    0.000    1.200    4.000    0.600    8.400    0.000 
#    9.000    0.000    0.000    0.000    0.000    0.000 
#    0.000    0.000    0.000    0.000    0.000    0.000 
#
# Total GULP energy -111364.370867 kJ/mol
# GULP energy per Si atom -5568.218543 kJ/mol
# Density = 2.247360 g / cm^3
# Si number density = 22.524869 Si / 1000 Ang^3
#
#
#
# Elastic Constant Matrix: (Units=GPa)
#
#
# Indices 1 2 3 4 5 6 
#
# 1 134.8110 9.6367 10.3116 0.0000 0.0000 0.0000
# 2 9.6367 59.5375 -20.3447 0.0000 0.0000 0.0000
# 3 10.3116 -20.3447 54.4820 0.0000 0.0000 0.0000
# 4 0.0000 0.0000 0.0000 31.4279 0.0000 0.0000
# 5 0.0000 0.0000 0.0000 0.0000 41.8754 0.0000
# 6 0.0000 0.0000 0.0000 0.0000 0.0000 -108.7558
#
#
#
# Elastic Compliance Matrix: (Units=1/GPa)
#
#
# Indices 1 2 3 4 5 6 
#
# 1 0.007731 -0.002007 -0.002213 0.000000 0.000000 0.000000
# 2 -0.002007 0.019774 0.007764 0.000000 0.000000 0.000000
# 3 -0.002213 0.007764 0.021673 0.000000 0.000000 0.000000
# 4 0.000000 0.000000 0.000000 0.031819 0.000000 0.000000
# 5 0.000000 0.000000 0.000000 0.000000 0.023880 0.000000
# 6 0.000000 0.000000 0.000000 0.000000 0.000000 -0.009195
#
#
# Mechanical properties :
#
#
# Convention : Reuss Voigt Hill
#
# Bulk Modulus (GPa) = 17.77299 27.55972 22.66636
# Shear Modulus (GPa) = 46.57708 9.52463 28.05086
#
# Velocity S-wave (km/s) = 4.55225 2.05856 3.53275
# Velocity P-wave (km/s) = 5.96139 4.23226 5.16963
#
# Compressibility (1/GPa) = 0.05626515
#
# Stress axis : x y z
#
# Youngs Moduli (GPa) = 129.35714 50.57119 46.14097
#
# Poissons Ratio (x) = 0.10152 0.10210
# Poissons Ratio (y) = 0.25967 -0.35824
# Poissons Ratio (z) = 0.28623 -0.39263
#
# Static dielectric constant tensor:
#      x y z
#    x 2.107900 0.000000 0.000000 
#    y 0.000000 1.842860 0.000000 
#    z 0.000000 0.000000 2.457000 
# 
# From -- ./inp_files/8185.got.cif
#   From: 2010.05.17/outbox.cif.g08.bks.cpg/sg20_5_cif.got.tgz:8185.got - 2010.06.03 22:52:26.
