data_PCOD9320294
_publ_section_title
;
Structure prediction by ZEFSAII (Michael W. Deem and Ramdas Pophale) SiO2 
 PCOD9320294
Probable space group: C 2 2 21
;
_chemical_formula_sum "Si O2"
_cell_formula_units_Z 40
_cell_length_a 17.836268
_cell_length_b 5.496748
_cell_length_c 17.511601
_cell_angle_alpha 90.000000
_cell_angle_beta 90.000000
_cell_angle_gamma 90.000000
_cell_volume 1716.863112
_symmetry_space_group_name_H-M "C 2 2 21"
_symmetry_group_IT_number 20
_symmetry_cell_setting 'orthorhombic'
loop_
_space_group_symop_operation_xyz
x,y,z
-x,-y,1/2+z
x,-y,-z
-x,y,1/2-z
1/2+x,1/2+y,z
1/2-x,1/2-y,1/2+z
1/2+x,1/2-y,-z
1/2-x,1/2+y,1/2-z
loop_
_atom_site_type_symbol
_atom_site_label
_atom_site_fract_x
_atom_site_fract_y
_atom_site_fract_z
Si Si1 0.199985 0.022953 0.666760
Si Si2 0.557692 0.098355 0.912842
Si Si3 0.102550 0.249746 0.449480
Si Si4 0.150600 0.302141 0.799851
Si Si5 0.707695 0.412469 0.916239
O O1 0.140059 0.138620 0.725209
O O2 0.227554 0.231625 0.609507
O O3 0.164012 0.809169 0.615897
O O4 0.277868 0.980424 0.714688
O O5 0.476739 0.218424 0.905712
O O6 0.628991 0.271975 0.914209
O O7 0.579564 0.919834 0.842508
O O8 0.556926 0.000000 0.000000
O O9 0.111353 0.500000 0.500000
O O10 0.098602 0.000000 0.500000
O O11 0.189461 0.137013 0.863367
O O12 0.723303 0.500000 0.000000
#
# Coordination Sequence:
#
# PCOD9320294 Si02
#       5
#     8   8   8   8   8
#     4  11  26  43  72 114 152 201 254 330 392 455
#     4  10  22  44  75 106 142 203 257 314 371 465
#     4  11  28  48  79 111 157 202 261 326 390 459
#     4  11  23  43  74 105 152 197 255 319 385 460
#     4  11  22  40  75 105 147 198 261 311 381 456
#
# _framework density 23.298304999999999
#
# number of rings (size 3 to 8) (size 9 to 14) (size 15 to 20)
#    0.000    1.200    4.000    0.600    8.400    0.000 
#    0.000    1.000    8.800    0.000    0.000    0.000 
#    0.000    0.000    0.000    0.000    0.000    0.000 
#
# Total GULP energy -111658.072927 kJ/mol
# GULP energy per Si atom -5582.903646 kJ/mol
# Density = 2.324528 g / cm^3
# Si number density = 23.298305 Si / 1000 Ang^3
#
#
#
# Elastic Constant Matrix: (Units=GPa)
#
#
# Indices 1 2 3 4 5 6 
#
# 1 100.3997 18.7177 34.4666 0.0000 0.0000 0.0000
# 2 18.7177 67.3672 38.8270 0.0000 0.0000 0.0000
# 3 34.4666 38.8270 101.9617 0.0000 0.0000 0.0000
# 4 0.0000 0.0000 0.0000 52.5564 0.0000 0.0000
# 5 0.0000 0.0000 0.0000 0.0000 19.9851 0.0000
# 6 0.0000 0.0000 0.0000 0.0000 0.0000 37.1915
#
#
#
# Elastic Compliance Matrix: (Units=1/GPa)
#
#
# Indices 1 2 3 4 5 6 
#
# 1 0.011344 -0.001207 -0.003375 0.000000 0.000000 0.000000
# 2 -0.001207 0.019146 -0.006883 0.000000 0.000000 0.000000
# 3 -0.003375 -0.006883 0.013570 0.000000 0.000000 0.000000
# 4 0.000000 0.000000 0.000000 0.019027 0.000000 0.000000
# 5 0.000000 0.000000 0.000000 0.000000 0.050037 0.000000
# 6 0.000000 0.000000 0.000000 0.000000 0.000000 0.026888
#
#
# Mechanical properties :
#
#
# Convention : Reuss Voigt Hill
#
# Bulk Modulus (GPa) = 47.32571 50.41680 48.87126
# Shear Modulus (GPa) = 29.41439 33.79443 31.60441
#
# Velocity S-wave (km/s) = 3.55704 3.81269 3.68708
# Velocity P-wave (km/s) = 6.10140 6.40849 6.25683
#
# Compressibility (1/GPa) = 0.02113017
#
# Stress axis : x y z
#
# Youngs Moduli (GPa) = 88.15385 52.22943 73.69424
#
# Poissons Ratio (x) = 0.06302 0.24873
# Poissons Ratio (y) = 0.10636 0.50724
# Poissons Ratio (z) = 0.29753 0.35950
#
# Static dielectric constant tensor:
#      x y z
#    x 1.934640 0.000000 0.000000 
#    y 0.000000 2.058280 0.000000 
#    z 0.000000 0.000000 1.925010 
# 
# From -- ./inp_files/25095.got.cif
#   From: 2010.05.17/outbox.cif.g08.bks.cpg/sg20_13_cif.got.tgz:25095.got - 2010.06.03 22:52:26.
