data_PCOD9320301
_publ_section_title
;
Structure prediction by ZEFSAII (Michael W. Deem and Ramdas Pophale) SiO2 
 PCOD9320301
Probable space group: C 2 2 21
;
_chemical_formula_sum "Si O2"
_cell_formula_units_Z 32
_cell_length_a 12.232013
_cell_length_b 7.428239
_cell_length_c 17.053109
_cell_angle_alpha 90.000000
_cell_angle_beta 90.000000
_cell_angle_gamma 90.000000
_cell_volume 1549.484979
_symmetry_space_group_name_H-M "C 2 2 21"
_symmetry_group_IT_number 20
_symmetry_cell_setting 'orthorhombic'
loop_
_space_group_symop_operation_xyz
x,y,z
-x,-y,1/2+z
x,-y,-z
-x,y,1/2-z
1/2+x,1/2+y,z
1/2-x,1/2-y,1/2+z
1/2+x,1/2-y,-z
1/2-x,1/2+y,1/2-z
loop_
_atom_site_type_symbol
_atom_site_label
_atom_site_fract_x
_atom_site_fract_y
_atom_site_fract_z
Si Si1 0.903820 0.472021 0.907025
Si Si2 0.360665 0.948316 0.343898
Si Si3 0.641754 0.566296 0.585253
Si Si4 0.200926 0.758579 0.691111
O O1 0.903229 0.259426 0.892620
O O2 0.808253 0.584282 0.864529
O O3 0.016664 0.547231 0.872206
O O4 0.897170 0.500000 0.000000
O O5 0.274244 0.911767 0.413434
O O6 0.337446 0.804631 0.275790
O O7 0.318306 0.141992 0.310169
O O8 0.605193 0.500000 0.500000
O O9 0.625661 0.412315 0.650499
#
# Coordination Sequence:
#
# PCOD9320301 Si02
#       4
#     8   8   8   8
#     4  12  22  42  69  93 130 170 213 269 323 384
#     4  10  23  43  64  93 128 171 213 265 321 388
#     4  10  22  45  64  94 134 167 216 270 319 383
#     4  10  23  44  63  92 137 162 215 273 315 381
#
# _framework density 20.652021999999999
#
# number of rings (size 3 to 8) (size 9 to 14) (size 15 to 20)
#    1.500    0.000    2.500    3.000    0.000    0.000 
#   13.500    1.250    0.000    0.000    0.000    0.000 
#    0.000    0.000    0.000    0.000    0.000    0.000 
#
# Total GULP energy -89188.603538 kJ/mol
# GULP energy per Si atom -5574.287721 kJ/mol
# Density = 2.060502 g / cm^3
# Si number density = 20.652022 Si / 1000 Ang^3
#
#
#
# Elastic Constant Matrix: (Units=GPa)
#
#
# Indices 1 2 3 4 5 6 
#
# 1 35.2547 -1.4622 -6.0809 0.0000 0.0000 0.0000
# 2 -1.4622 66.9068 3.6676 0.0000 0.0000 0.0000
# 3 -6.0809 3.6676 68.8798 0.0000 0.0000 0.0000
# 4 0.0000 0.0000 0.0000 46.2871 0.0000 0.0000
# 5 0.0000 0.0000 0.0000 0.0000 10.2701 0.0000
# 6 0.0000 0.0000 0.0000 0.0000 0.0000 14.5556
#
#
#
# Elastic Compliance Matrix: (Units=1/GPa)
#
#
# Indices 1 2 3 4 5 6 
#
# 1 0.028820 0.000492 0.002518 0.000000 0.000000 0.000000
# 2 0.000492 0.014998 -0.000755 0.000000 0.000000 0.000000
# 3 0.002518 -0.000755 0.014781 0.000000 0.000000 0.000000
# 4 0.000000 0.000000 0.000000 0.021604 0.000000 0.000000
# 5 0.000000 0.000000 0.000000 0.000000 0.097370 0.000000
# 6 0.000000 0.000000 0.000000 0.000000 0.000000 0.068702
#
#
# Mechanical properties :
#
#
# Convention : Reuss Voigt Hill
#
# Bulk Modulus (GPa) = 15.84585 18.14338 16.99461
# Shear Modulus (GPa) = 19.02576 25.88368 22.45472
#
# Velocity S-wave (km/s) = 3.03851 3.54407 3.30098
# Velocity P-wave (km/s) = 4.47208 5.05486 4.77237
#
# Compressibility (1/GPa) = 0.06310799
#
# Stress axis : x y z
#
# Youngs Moduli (GPa) = 34.69843 66.67418 67.65645
#
# Poissons Ratio (x) = -0.03279 -0.17036
# Poissons Ratio (y) = -0.01706 0.05109
# Poissons Ratio (z) = -0.08737 0.05035
#
# Static dielectric constant tensor:
#      x y z
#    x 1.715070 0.000000 0.000000 
#    y 0.000000 1.747290 0.000000 
#    z 0.000000 0.000000 1.748740 
# 
# From -- ./inp_files/19491.got.cif
#   From: 2010.05.17/outbox.cif.g08.bks.cpg/sg20_10_cif.got.tgz:19491.got - 2010.06.03 22:52:26.
