data_PCOD9320706
_publ_section_title
;
Structure prediction by ZEFSAII (Michael W. Deem and Ramdas Pophale) SiO2 
 PCOD9320706
Probable space group: C 2 2 21
;
_chemical_formula_sum "Si O2"
_cell_formula_units_Z 48
_cell_length_a 25.329532
_cell_length_b 7.424042
_cell_length_c 9.552061
_cell_angle_alpha 90.000000
_cell_angle_beta 90.000000
_cell_angle_gamma 90.000000
_cell_volume 1796.241281
_symmetry_space_group_name_H-M "C 2 2 21"
_symmetry_group_IT_number 20
_symmetry_cell_setting 'orthorhombic'
loop_
_space_group_symop_operation_xyz
x,y,z
-x,-y,1/2+z
x,-y,-z
-x,y,1/2-z
1/2+x,1/2+y,z
1/2-x,1/2-y,1/2+z
1/2+x,1/2-y,-z
1/2-x,1/2+y,1/2-z
loop_
_atom_site_type_symbol
_atom_site_label
_atom_site_fract_x
_atom_site_fract_y
_atom_site_fract_z
Si Si1 0.082741 0.524736 0.347302
Si Si2 0.629174 0.602132 0.640888
Si Si3 0.560047 0.338608 0.794020
Si Si4 0.712150 0.247720 0.037141
Si Si5 0.262252 0.540631 0.264785
Si Si6 0.092048 0.307439 0.928962
O O1 0.056465 0.500000 0.500000
O O2 0.091330 0.323433 0.287499
O O3 0.060762 0.624929 0.208960
O O4 0.127766 0.680036 0.376052
O O5 0.613173 0.500000 0.500000
O O6 0.587423 0.524837 0.753225
O O7 0.685447 0.525609 0.684567
O O8 0.500000 0.331890 0.750000
O O9 0.559615 0.299961 0.957759
O O10 0.750303 0.382478 0.125386
O O11 0.722421 0.076003 0.137275
O O12 0.650481 0.283787 0.068858
O O13 0.723964 0.299459 0.876513
O O14 0.105925 0.500000 0.000000
#
# Coordination Sequence:
#
# PCOD9320706 Si02
#       6
#     8   8   8   8   8   8
#     4  11  24  46  75 110 158 208 264 330 410 488
#     4  12  25  48  78 110 158 211 260 344 403 492
#     4  11  26  50  79 120 153 208 283 337 423 491
#     4  11  25  46  70 109 151 201 265 331 397 495
#     4  11  27  45  72 108 150 205 268 324 410 491
#     4  10  23  45  76 105 154 206 256 345 404 485
#
# _framework density 26.722467999999999
#
# number of rings (size 3 to 8) (size 9 to 14) (size 15 to 20)
#    0.000    1.000    5.000    0.000    4.667    3.333 
#    6.000    0.000    0.000    0.000    0.000    0.000 
#    0.000    0.000    0.000    0.000    0.000    0.000 
#
# Total GULP energy -133835.109222 kJ/mol
# GULP energy per Si atom -5576.462884 kJ/mol
# Density = 2.666165 g / cm^3
# Si number density = 26.722468 Si / 1000 Ang^3
#
#
#
# Elastic Constant Matrix: (Units=GPa)
#
#
# Indices 1 2 3 4 5 6 
#
# 1 102.7596 6.2498 57.2853 0.0000 0.0000 0.0000
# 2 6.2498 120.4107 -16.0147 0.0000 0.0000 0.0000
# 3 57.2853 -16.0147 180.0413 0.0000 0.0000 0.0000
# 4 0.0000 0.0000 0.0000 32.0613 0.0000 0.0000
# 5 0.0000 0.0000 0.0000 0.0000 36.9290 0.0000
# 6 0.0000 0.0000 0.0000 0.0000 0.0000 -130.1111
#
#
#
# Elastic Compliance Matrix: (Units=1/GPa)
#
#
# Indices 1 2 3 4 5 6 
#
# 1 0.011983 -0.001143 -0.003914 0.000000 0.000000 0.000000
# 2 -0.001143 0.008513 0.001121 0.000000 0.000000 0.000000
# 3 -0.003914 0.001121 0.006899 0.000000 0.000000 0.000000
# 4 0.000000 0.000000 0.000000 0.031190 0.000000 0.000000
# 5 0.000000 0.000000 0.000000 0.000000 0.027079 0.000000
# 6 0.000000 0.000000 0.000000 0.000000 0.000000 -0.007686
#
#
# Mechanical properties :
#
#
# Convention : Reuss Voigt Hill
#
# Bulk Modulus (GPa) = 51.22040 55.36137 53.29088
# Shear Modulus (GPa) = 54.13629 11.48860 32.81244
#
# Velocity S-wave (km/s) = 4.50585 2.07571 3.50794
# Velocity P-wave (km/s) = 6.80290 5.14848 6.03267
#
# Compressibility (1/GPa) = 0.01952347
#
# Stress axis : x y z
#
# Youngs Moduli (GPa) = 83.45086 117.46355 144.93895
#
# Poissons Ratio (x) = 0.13421 0.56735
# Poissons Ratio (y) = 0.09535 -0.16245
# Poissons Ratio (z) = 0.32666 -0.13165
#
# Static dielectric constant tensor:
#      x y z
#    x 1.982550 0.000000 0.000000 
#    y 0.000000 2.395820 0.000000 
#    z 0.000000 0.000000 2.510430 
# 
# From -- ./inp_files/11462.got.cif
#   From: 2010.05.17/outbox.cif.g08.bks.cpg/sg20_6_cif.got.tgz:11462.got - 2010.06.03 22:52:26.
