data_PCOD9320984
_publ_section_title
;
Structure prediction by ZEFSAII (Michael W. Deem and Ramdas Pophale) SiO2 
 PCOD9320984
Probable space group: C 2 2 21
;
_chemical_formula_sum "Si O2"
_cell_formula_units_Z 36
_cell_length_a 15.091670
_cell_length_b 5.237090
_cell_length_c 20.809115
_cell_angle_alpha 90.000000
_cell_angle_beta 90.000000
_cell_angle_gamma 90.000000
_cell_volume 1644.678245
_symmetry_space_group_name_H-M "C 2 2 21"
_symmetry_group_IT_number 20
_symmetry_cell_setting 'orthorhombic'
loop_
_space_group_symop_operation_xyz
x,y,z
-x,-y,1/2+z
x,-y,-z
-x,y,1/2-z
1/2+x,1/2+y,z
1/2-x,1/2-y,1/2+z
1/2+x,1/2-y,-z
1/2-x,1/2+y,1/2-z
loop_
_atom_site_type_symbol
_atom_site_label
_atom_site_fract_x
_atom_site_fract_y
_atom_site_fract_z
Si Si1 0.899040 0.202213 0.256938
Si Si2 0.003311 0.118685 0.567606
Si Si3 0.857458 0.296578 0.667564
Si Si4 0.869363 0.500000 0.000000
Si Si5 0.332427 0.707174 0.119953
O O1 0.898995 0.449306 0.302176
O O2 0.862060 0.312195 0.189508
O O3 0.000000 0.110799 0.250000
O O4 0.847766 0.949664 0.284058
O O5 0.063546 0.353497 0.546337
O O6 0.923344 0.190072 0.613258
O O7 0.972111 0.000000 0.500000
O O8 0.078761 0.947571 0.601422
O O9 0.764207 0.395240 0.638977
O O10 0.813267 0.349095 0.052477
#
# Coordination Sequence:
#
# PCOD9320984 Si02
#       5
#     8   8   8   4   8
#     4  12  25  46  73 106 148 194 241 312 368 438
#     4  10  24  47  68 104 141 196 236 309 368 441
#     4  12  27  44  76 107 144 192 247 305 367 446
#     4  10  24  46  72  94 148 186 240 308 362 442
#     4  11  25  45  71 106 144 189 254 295 379 436
#
# _framework density 21.888781000000002
#
# number of rings (size 3 to 8) (size 9 to 14) (size 15 to 20)
#    0.000    0.889    2.222    3.333   10.889    0.000 
#    6.000    0.000    0.000    0.000    0.000    0.000 
#    0.000    0.000    0.000    0.000    0.000    0.000 
#
# Total GULP energy -100242.743688 kJ/mol
# GULP energy per Si atom -5569.041316 kJ/mol
# Density = 2.183896 g / cm^3
# Si number density = 21.888781 Si / 1000 Ang^3
#
#
#
# Elastic Constant Matrix: (Units=GPa)
#
#
# Indices 1 2 3 4 5 6 
#
# 1 169.6687 4.1225 37.7538 0.0000 0.0000 0.0000
# 2 4.1225 54.7726 10.8952 0.0000 0.0000 0.0000
# 3 37.7538 10.8952 99.1339 0.0000 0.0000 0.0000
# 4 0.0000 0.0000 0.0000 -10.4896 0.0000 0.0000
# 5 0.0000 0.0000 0.0000 0.0000 18.5456 0.0000
# 6 0.0000 0.0000 0.0000 0.0000 0.0000 -10.4725
#
#
#
# Elastic Compliance Matrix: (Units=1/GPa)
#
#
# Indices 1 2 3 4 5 6 
#
# 1 0.006440 0.000003 -0.002453 0.000000 0.000000 0.000000
# 2 0.000003 0.018665 -0.002053 0.000000 0.000000 0.000000
# 3 -0.002453 -0.002053 0.011247 0.000000 0.000000 0.000000
# 4 0.000000 0.000000 0.000000 -0.095332 0.000000 0.000000
# 5 0.000000 0.000000 0.000000 0.000000 0.053921 0.000000
# 6 0.000000 0.000000 0.000000 0.000000 0.000000 -0.095488
#
#
# Mechanical properties :
#
#
# Convention : Reuss Voigt Hill
#
# Bulk Modulus (GPa) = 36.56624 47.67979 42.12302
# Shear Modulus (GPa) = -60.65962 17.57027 -21.54467
#
# Velocity S-wave (km/s) = -5.26999 2.83628 -3.14073
# Velocity P-wave (km/s) = 4.50430 5.70579 2.47663
#
# Compressibility (1/GPa) = 0.02734763
#
# Stress axis : x y z
#
# Youngs Moduli (GPa) = 155.29067 53.57519 88.91211
#
# Poissons Ratio (x) = -0.00017 0.21808
# Poissons Ratio (y) = -0.00050 0.18250
# Poissons Ratio (z) = 0.38089 0.10997
#
# Static dielectric constant tensor:
#      x y z
#    x 1.748880 0.000000 0.000000 
#    y 0.000000 1.881100 0.000000 
#    z 0.000000 0.000000 1.802610 
# 
# From -- ./inp_files/25919.got.cif
#   From: 2010.05.17/outbox.cif.g08.bks.cpg/sg20_13_cif.got.tgz:25919.got - 2010.06.03 22:52:26.
