data_PCOD9320829
_publ_section_title
;
Structure prediction by ZEFSAII (Michael W. Deem and Ramdas Pophale) SiO2 
 PCOD9320829
Probable space group: C 2 2 21
;
_chemical_formula_sum "Si O2"
_cell_formula_units_Z 28
_cell_length_a 8.612880
_cell_length_b 17.246019
_cell_length_c 7.400268
_cell_angle_alpha 90.000000
_cell_angle_beta 90.000000
_cell_angle_gamma 90.000000
_cell_volume 1099.220210
_symmetry_space_group_name_H-M "C 2 2 21"
_symmetry_group_IT_number 20
_symmetry_cell_setting 'orthorhombic'
loop_
_space_group_symop_operation_xyz
x,y,z
-x,-y,1/2+z
x,-y,-z
-x,y,1/2-z
1/2+x,1/2+y,z
1/2-x,1/2-y,1/2+z
1/2+x,1/2-y,-z
1/2-x,1/2+y,1/2-z
loop_
_atom_site_type_symbol
_atom_site_label
_atom_site_fract_x
_atom_site_fract_y
_atom_site_fract_z
Si Si1 0.221118 0.942042 0.207010
Si Si2 0.500000 0.951605 0.750000
Si Si3 0.485512 0.500000 0.000000
Si Si4 0.000000 0.777569 0.750000
Si Si5 0.303757 0.169863 0.485718
O O1 0.377411 0.986438 0.173827
O O2 0.128428 0.002893 0.333385
O O3 0.235787 0.868407 0.331445
O O4 0.106814 0.930723 0.038681
O O5 0.412958 0.894377 0.611425
O O6 0.158368 0.811122 0.648255
O O7 0.081074 0.733345 0.923345
#
# Coordination Sequence:
#
# PCOD9320829 Si02
#       5
#     8   4   4   4   8
#     4  11  25  44  75 119 150 203 248 346 409 480
#     4  12  25  46  78 120 155 202 258 352 422 470
#     4  10  24  42  68 116 154 188 252 308 446 452
#     4  12  31  54  80 120 159 240 272 330 396 480
#     4  12  28  52  81 114 167 211 283 328 397 503
#
# _framework density 25.472601000000001
#
# number of rings (size 3 to 8) (size 9 to 14) (size 15 to 20)
#    0.000    0.571    2.857    2.571   12.000    4.571 
#    0.000    0.000    0.000    0.000    0.000    0.000 
#    0.000    0.000    0.000    0.000    0.000    0.000 
#
# Total GULP energy -77945.455223 kJ/mol
# GULP energy per Si atom -5567.532516 kJ/mol
# Density = 2.541462 g / cm^3
# Si number density = 25.472601 Si / 1000 Ang^3
#
#
#
# Elastic Constant Matrix: (Units=GPa)
#
#
# Indices 1 2 3 4 5 6 
#
# 1 190.9278 40.9505 33.2798 0.0000 0.0000 0.0000
# 2 40.9505 57.0420 2.1813 0.0000 0.0000 0.0000
# 3 33.2798 2.1813 57.0630 0.0000 0.0000 0.0000
# 4 0.0000 0.0000 0.0000 33.1481 0.0000 0.0000
# 5 0.0000 0.0000 0.0000 0.0000 52.0344 0.0000
# 6 0.0000 0.0000 0.0000 0.0000 0.0000 261.2104
#
#
#
# Elastic Compliance Matrix: (Units=1/GPa)
#
#
# Indices 1 2 3 4 5 6 
#
# 1 0.006950 -0.004842 -0.003868 0.000000 0.000000 0.000000
# 2 -0.004842 0.020929 0.002024 0.000000 0.000000 0.000000
# 3 -0.003868 0.002024 0.019703 0.000000 0.000000 0.000000
# 4 0.000000 0.000000 0.000000 0.030168 0.000000 0.000000
# 5 0.000000 0.000000 0.000000 0.000000 0.019218 0.000000
# 6 0.000000 0.000000 0.000000 0.000000 0.000000 0.003828
#
#
# Mechanical properties :
#
#
# Convention : Reuss Voigt Hill
#
# Bulk Modulus (GPa) = 29.23114 50.87290 40.05202
# Shear Modulus (GPa) = 39.81737 84.51999 62.16868
#
# Velocity S-wave (km/s) = 3.95795 5.76652 4.94561
# Velocity P-wave (km/s) = 5.69101 8.02197 6.95484
#
# Compressibility (1/GPa) = 0.03421010
#
# Stress axis : x y z
#
# Youngs Moduli (GPa) = 143.87798 47.77956 50.75307
#
# Poissons Ratio (x) = 0.23134 0.19633
# Poissons Ratio (y) = 0.69662 -0.10271
# Poissons Ratio (z) = 0.55658 -0.09669
#
# Static dielectric constant tensor:
#      x y z
#    x 2.075200 0.000000 0.000000 
#    y 0.000000 2.079270 0.000000 
#    z 0.000000 0.000000 1.590530 
# 
# From -- ./inp_files/5633.got.cif
#   From: 2010.05.17/outbox.cif.g08.bks.cpg/sg20_3_cif.got.tgz:5633.got - 2010.06.03 22:52:26.
