data_PCOD9320773
_publ_section_title
;
Structure prediction by ZEFSAII (Michael W. Deem and Ramdas Pophale) SiO2 
 PCOD9320773
Probable space group: C 2 2 21
;
_chemical_formula_sum "Si O2"
_cell_formula_units_Z 32
_cell_length_a 8.664152
_cell_length_b 18.306087
_cell_length_c 7.777279
_cell_angle_alpha 90.000000
_cell_angle_beta 90.000000
_cell_angle_gamma 90.000000
_cell_volume 1233.528715
_symmetry_space_group_name_H-M "C 2 2 21"
_symmetry_group_IT_number 20
_symmetry_cell_setting 'orthorhombic'
loop_
_space_group_symop_operation_xyz
x,y,z
-x,-y,1/2+z
x,-y,-z
-x,y,1/2-z
1/2+x,1/2+y,z
1/2-x,1/2-y,1/2+z
1/2+x,1/2-y,-z
1/2-x,1/2+y,1/2-z
loop_
_atom_site_type_symbol
_atom_site_label
_atom_site_fract_x
_atom_site_fract_y
_atom_site_fract_z
Si Si1 0.793527 0.151271 0.330537
Si Si2 0.139575 0.917060 0.160000
Si Si3 0.257495 0.184105 0.554000
Si Si4 0.964098 0.422842 0.011332
O O1 0.896627 0.104041 0.462816
O O2 0.183103 0.167102 0.368619
O O3 0.777903 0.230129 0.419979
O O4 0.632907 0.107920 0.350592
O O5 0.159818 0.848717 0.289322
O O6 0.318497 0.942010 0.139512
O O7 0.000000 0.960714 0.250000
O O8 0.421784 0.142318 0.560204
O O9 0.049874 0.500000 0.000000
#
# Coordination Sequence:
#
# PCOD9320773 Si02
#       4
#     8   8   8   8
#     4  10  24  39  71 104 143 184 240 302 361 427
#     4  10  25  43  67 100 147 183 240 295 368 424
#     4  12  22  43  71 105 146 191 244 302 360 430
#     4  10  25  49  75 110 145 192 250 302 364 443
#
# _framework density 25.941835000000001
#
# number of rings (size 3 to 8) (size 9 to 14) (size 15 to 20)
#    1.500    0.000    2.500    1.500    3.500    5.000 
#    0.000    3.750    0.000    0.000    0.000    0.000 
#    0.000    0.000    0.000    0.000    0.000    0.000 
#
# Total GULP energy -89201.328076 kJ/mol
# GULP energy per Si atom -5575.083005 kJ/mol
# Density = 2.588279 g / cm^3
# Si number density = 25.941835 Si / 1000 Ang^3
#
#
#
# Elastic Constant Matrix: (Units=GPa)
#
#
# Indices 1 2 3 4 5 6 
#
# 1 98.1292 12.1767 50.5219 0.0000 0.0000 0.0000
# 2 12.1767 126.6913 32.8720 0.0000 0.0000 0.0000
# 3 50.5219 32.8720 158.4675 0.0000 0.0000 0.0000
# 4 0.0000 0.0000 0.0000 27.3760 0.0000 0.0000
# 5 0.0000 0.0000 0.0000 0.0000 17.9709 0.0000
# 6 0.0000 0.0000 0.0000 0.0000 0.0000 1.8542
#
#
#
# Elastic Compliance Matrix: (Units=1/GPa)
#
#
# Indices 1 2 3 4 5 6 
#
# 1 0.012195 -0.000173 -0.003852 0.000000 0.000000 0.000000
# 2 -0.000173 0.008345 -0.001676 0.000000 0.000000 0.000000
# 3 -0.003852 -0.001676 0.007886 0.000000 0.000000 0.000000
# 4 0.000000 0.000000 0.000000 0.036528 0.000000 0.000000
# 5 0.000000 0.000000 0.000000 0.000000 0.055646 0.000000
# 6 0.000000 0.000000 0.000000 0.000000 0.000000 0.539313
#
#
# Mechanical properties :
#
#
# Convention : Reuss Voigt Hill
#
# Bulk Modulus (GPa) = 58.73844 63.82549 61.28196
# Shear Modulus (GPa) = 7.38563 28.62138 18.00350
#
# Velocity S-wave (km/s) = 1.68913 3.32518 2.63724
# Velocity P-wave (km/s) = 5.14740 6.27688 5.73999
#
# Compressibility (1/GPa) = 0.01702463
#
# Stress axis : x y z
#
# Youngs Moduli (GPa) = 81.99798 119.83736 126.80271
#
# Poissons Ratio (x) = 0.02068 0.48848
# Poissons Ratio (y) = 0.01415 0.21252
# Poissons Ratio (z) = 0.31588 0.20084
#
# Static dielectric constant tensor:
#      x y z
#    x 2.108320 0.000000 0.000000 
#    y 0.000000 1.928200 0.000000 
#    z 0.000000 0.000000 2.106380 
# 
# From -- ./inp_files/12818.got.cif
#   From: 2010.05.17/outbox.cif.g08.bks.cpg/sg20_7_cif.got.tgz:12818.got - 2010.06.03 22:52:26.
