data_PCOD9320088
_publ_section_title
;
Structure prediction by ZEFSAII (Michael W. Deem and Ramdas Pophale) SiO2 
 PCOD9320088
Probable space group: C 2 2 21
;
_chemical_formula_sum "Si O2"
_cell_formula_units_Z 60
_cell_length_a 23.152657
_cell_length_b 5.314812
_cell_length_c 21.132446
_cell_angle_alpha 90.000000
_cell_angle_beta 90.000000
_cell_angle_gamma 90.000000
_cell_volume 2600.390152
_symmetry_space_group_name_H-M "C 2 2 21"
_symmetry_group_IT_number 20
_symmetry_cell_setting 'orthorhombic'
loop_
_space_group_symop_operation_xyz
x,y,z
-x,-y,1/2+z
x,-y,-z
-x,y,1/2-z
1/2+x,1/2+y,z
1/2-x,1/2-y,1/2+z
1/2+x,1/2-y,-z
1/2-x,1/2+y,1/2-z
loop_
_atom_site_type_symbol
_atom_site_label
_atom_site_fract_x
_atom_site_fract_y
_atom_site_fract_z
Si Si1 0.000000 0.085164 0.750000
Si Si2 0.516243 0.940811 0.629331
Si Si3 0.286177 0.841986 0.742342
Si Si4 0.582068 0.328375 0.829330
Si Si5 0.351221 0.961381 0.136096
Si Si6 0.199487 0.043107 0.573696
Si Si7 0.573983 0.698809 0.943790
Si Si8 0.672808 0.021625 0.117097
O O1 0.058095 0.925138 0.762950
O O2 0.013541 0.248433 0.688298
O O3 0.580178 0.046312 0.626312
O O4 0.489330 0.820231 0.565272
O O5 0.469271 0.148373 0.647292
O O6 0.257922 0.579387 0.765336
O O7 0.332062 0.950348 0.793262
O O8 0.310436 0.781481 0.672376
O O9 0.582461 0.552209 0.878513
O O10 0.641456 0.186331 0.839315
O O11 0.327639 0.192935 0.094381
O O12 0.324063 0.695790 0.114111
O O13 0.268321 0.060149 0.584685
O O14 0.187355 0.000000 0.500000
O O15 0.626288 0.895336 0.935540
O O16 0.578534 0.500000 0.000000
#
# Coordination Sequence:
#
# PCOD9320088 Si02
#       8
#     4   8   8   8   8   8   8   8
#     4  10  22  42  68 108 140 186 238 296 370 446
#     4  10  25  44  68 106 141 191 242 298 366 446
#     4  12  25  46  70 105 154 188 247 305 365 452
#     4  10  24  42  68 102 142 182 237 299 370 429
#     4  12  27  49  75 110 147 201 247 301 376 438
#     4  12  29  51  75 109 146 196 256 303 367 443
#     4  10  25  46  72 105 141 189 245 304 369 437
#     4  11  26  44  72 109 139 191 241 307 377 432
#
# _framework density 23.073459
#
# number of rings (size 3 to 8) (size 9 to 14) (size 15 to 20)
#    0.000    1.067    2.667    0.800   16.800    2.133 
#    2.400    0.000    0.000    0.000    0.000    0.000 
#    0.000    0.000    0.000    0.000    0.000    0.000 
#
# Total GULP energy -167685.369858 kJ/mol
# GULP energy per Si atom -5589.512329 kJ/mol
# Density = 2.302094 g / cm^3
# Si number density = 23.073459 Si / 1000 Ang^3
#
#
#
# Elastic Constant Matrix: (Units=GPa)
#
#
# Indices 1 2 3 4 5 6 
#
# 1 117.8220 40.4536 13.0576 0.0000 0.0000 0.0000
# 2 40.4536 96.0152 6.1893 0.0000 0.0000 0.0000
# 3 13.0576 6.1893 80.9521 0.0000 0.0000 0.0000
# 4 0.0000 0.0000 0.0000 26.1917 0.0000 0.0000
# 5 0.0000 0.0000 0.0000 0.0000 9.1152 0.0000
# 6 0.0000 0.0000 0.0000 0.0000 0.0000 58.3886
#
#
#
# Elastic Compliance Matrix: (Units=1/GPa)
#
#
# Indices 1 2 3 4 5 6 
#
# 1 0.010058 -0.004154 -0.001305 0.000000 0.000000 0.000000
# 2 -0.004154 0.012182 -0.000261 0.000000 0.000000 0.000000
# 3 -0.001305 -0.000261 0.012583 0.000000 0.000000 0.000000
# 4 0.000000 0.000000 0.000000 0.038180 0.000000 0.000000
# 5 0.000000 0.000000 0.000000 0.000000 0.109706 0.000000
# 6 0.000000 0.000000 0.000000 0.000000 0.000000 0.017127
#
#
# Mechanical properties :
#
#
# Convention : Reuss Voigt Hill
#
# Bulk Modulus (GPa) = 42.76467 46.02113 44.39290
# Shear Modulus (GPa) = 22.82367 34.41170 28.61768
#
# Velocity S-wave (km/s) = 3.14853 3.86605 3.52559
# Velocity P-wave (km/s) = 5.63844 6.31801 5.98787
#
# Compressibility (1/GPa) = 0.02338379
#
# Stress axis : x y z
#
# Youngs Moduli (GPa) = 99.42220 82.08902 79.46954
#
# Poissons Ratio (x) = 0.34097 0.10369
# Poissons Ratio (y) = 0.41296 0.02077
# Poissons Ratio (z) = 0.12973 0.02146
#
# Static dielectric constant tensor:
#      x y z
#    x 2.036600 0.000000 0.000000 
#    y 0.000000 2.016270 0.000000 
#    z 0.000000 0.000000 1.869610 
# 
# From -- ./inp_files/28049.got.cif
#   From: 2010.05.17/outbox.cif.g08.bks.cpg/sg20_15_cif.got.tgz:28049.got - 2010.06.03 22:52:26.
