data_PCOD9320478
_publ_section_title
;
Structure prediction by ZEFSAII (Michael W. Deem and Ramdas Pophale) SiO2 
 PCOD9320478
Probable space group: C 2 2 21
;
_chemical_formula_sum "Si O2"
_cell_formula_units_Z 36
_cell_length_a 11.250961
_cell_length_b 10.383202
_cell_length_c 12.913533
_cell_angle_alpha 90.000000
_cell_angle_beta 90.000000
_cell_angle_gamma 90.000000
_cell_volume 1508.571848
_symmetry_space_group_name_H-M "C 2 2 21"
_symmetry_group_IT_number 20
_symmetry_cell_setting 'orthorhombic'
loop_
_space_group_symop_operation_xyz
x,y,z
-x,-y,1/2+z
x,-y,-z
-x,y,1/2-z
1/2+x,1/2+y,z
1/2-x,1/2-y,1/2+z
1/2+x,1/2-y,-z
1/2-x,1/2+y,1/2-z
loop_
_atom_site_type_symbol
_atom_site_label
_atom_site_fract_x
_atom_site_fract_y
_atom_site_fract_z
Si Si1 0.435003 0.293920 0.347175
Si Si2 0.161562 0.947488 0.387009
Si Si3 0.348523 0.724995 0.422822
Si Si4 0.763546 0.489401 0.188106
Si Si5 0.000000 0.641298 0.750000
O O1 0.500000 0.219942 0.250000
O O2 0.528481 0.410887 0.357945
O O3 0.408678 0.249012 0.464706
O O4 0.310092 0.355903 0.315906
O O5 0.239331 0.819950 0.402399
O O6 0.156854 0.000000 0.500000
O O7 0.225363 0.038349 0.302845
O O8 0.290035 0.585347 0.397612
O O9 0.442942 0.767039 0.336528
O O10 0.900174 0.447938 0.194370
#
# Coordination Sequence:
#
# PCOD9320478 Si02
#       5
#     8   8   8   8   4
#     4  10  23  43  70 102 139 192 250 296 369 451
#     4  10  23  41  66 104 137 184 247 297 357 459
#     4  11  24  43  74 100 145 200 228 311 387 419
#     4  10  23  46  66 102 145 182 242 301 367 449
#     4  10  26  46  70 112 144 182 254 300 362 456
#
# _framework density 23.863631000000002
#
# number of rings (size 3 to 8) (size 9 to 14) (size 15 to 20)
#    0.000    1.778    0.000    2.000   10.889    3.556 
#   18.000    0.000    0.000    0.000    0.000    0.000 
#    0.000    0.000    0.000    0.000    0.000    0.000 
#
# Total GULP energy -100421.249064 kJ/mol
# GULP energy per Si atom -5578.958281 kJ/mol
# Density = 2.380932 g / cm^3
# Si number density = 23.863631 Si / 1000 Ang^3
#
#
#
# Elastic Constant Matrix: (Units=GPa)
#
#
# Indices 1 2 3 4 5 6 
#
# 1 145.4572 43.8138 40.6937 0.0000 0.0000 0.0000
# 2 43.8138 62.3260 46.5716 0.0000 0.0000 0.0000
# 3 40.6937 46.5716 181.9076 0.0000 0.0000 0.0000
# 4 0.0000 0.0000 0.0000 -52.9159 0.0000 0.0000
# 5 0.0000 0.0000 0.0000 0.0000 39.7179 0.0000
# 6 0.0000 0.0000 0.0000 0.0000 0.0000 7.8871
#
#
#
# Elastic Compliance Matrix: (Units=1/GPa)
#
#
# Indices 1 2 3 4 5 6 
#
# 1 0.008755 -0.005800 -0.000473 0.000000 0.000000 0.000000
# 2 -0.005800 0.023683 -0.004766 0.000000 0.000000 0.000000
# 3 -0.000473 -0.004766 0.006823 0.000000 0.000000 0.000000
# 4 0.000000 0.000000 0.000000 -0.018898 0.000000 0.000000
# 5 0.000000 0.000000 0.000000 0.000000 0.025178 0.000000
# 6 0.000000 0.000000 0.000000 0.000000 0.000000 0.126789
#
#
# Mechanical properties :
#
#
# Convention : Reuss Voigt Hill
#
# Bulk Modulus (GPa) = 58.20081 72.42767 65.31424
# Shear Modulus (GPa) = 24.98293 16.17860 20.58077
#
# Velocity S-wave (km/s) = 3.23910 2.60659 2.93991
# Velocity P-wave (km/s) = 6.19926 6.28296 6.24125
#
# Compressibility (1/GPa) = 0.01718189
#
# Stress axis : x y z
#
# Youngs Moduli (GPa) = 114.22689 42.22373 146.55622
#
# Poissons Ratio (x) = 0.24492 0.06938
# Poissons Ratio (y) = 0.66257 0.69845
# Poissons Ratio (z) = 0.05408 0.20123
#
# Static dielectric constant tensor:
#      x y z
#    x 1.903900 0.000000 0.000000 
#    y 0.000000 1.966180 0.000000 
#    z 0.000000 0.000000 1.868640 
# 
# From -- ./inp_files/13648.got.cif
#   From: 2010.05.17/outbox.cif.g08.bks.cpg/sg20_7_cif.got.tgz:13648.got - 2010.06.03 22:52:26.
