data_PCOD9320551
_publ_section_title
;
Structure prediction by ZEFSAII (Michael W. Deem and Ramdas Pophale) SiO2 
 PCOD9320551
Probable space group: C 2 2 21
;
_chemical_formula_sum "Si O2"
_cell_formula_units_Z 40
_cell_length_a 21.883506
_cell_length_b 5.914093
_cell_length_c 13.902756
_cell_angle_alpha 90.000000
_cell_angle_beta 90.000000
_cell_angle_gamma 90.000000
_cell_volume 1799.309831
_symmetry_space_group_name_H-M "C 2 2 21"
_symmetry_group_IT_number 20
_symmetry_cell_setting 'orthorhombic'
loop_
_space_group_symop_operation_xyz
x,y,z
-x,-y,1/2+z
x,-y,-z
-x,y,1/2-z
1/2+x,1/2+y,z
1/2-x,1/2-y,1/2+z
1/2+x,1/2-y,-z
1/2-x,1/2+y,1/2-z
loop_
_atom_site_type_symbol
_atom_site_label
_atom_site_fract_x
_atom_site_fract_y
_atom_site_fract_z
Si Si1 0.437865 0.515257 0.785090
Si Si2 0.161991 0.287816 0.244364
Si Si3 0.116669 0.688696 0.119062
Si Si4 0.988553 0.257264 0.959475
Si Si5 0.736223 0.451250 0.106882
O O1 0.500000 0.395898 0.750000
O O2 0.385371 0.343671 0.814602
O O3 0.405784 0.625061 0.694212
O O4 0.458903 0.715317 0.855053
O O5 0.122590 0.460681 0.180141
O O6 0.211592 0.388614 0.317231
O O7 0.199915 0.148119 0.163823
O O8 0.184653 0.757990 0.088354
O O9 0.062187 0.710406 0.042875
O O10 0.965447 0.500000 0.000000
O O11 0.977519 0.000000 0.000000
O O12 0.760586 0.500000 0.000000
#
# Coordination Sequence:
#
# PCOD9320551 Si02
#       5
#     8   8   8   8   8
#     4   9  23  44  68  97 139 191 239 304 380 435
#     4  11  23  45  73 101 148 191 248 305 385 443
#     4  10  23  42  71  97 142 194 238 310 370 446
#     4  11  26  44  70 111 144 187 254 307 368 450
#     4  11  24  44  69 106 142 189 254 307 379 454
#
# _framework density 22.230747000000001
#
# number of rings (size 3 to 8) (size 9 to 14) (size 15 to 20)
#    0.000    1.600    2.000    0.600   14.000    0.800 
#    3.600    0.000    0.000    0.000    0.000    0.000 
#    0.000    0.000    0.000    0.000    0.000    0.000 
#
# Total GULP energy -111340.011926 kJ/mol
# GULP energy per Si atom -5567.000596 kJ/mol
# Density = 2.218015 g / cm^3
# Si number density = 22.230747 Si / 1000 Ang^3
#
#
#
# Elastic Constant Matrix: (Units=GPa)
#
#
# Indices 1 2 3 4 5 6 
#
# 1 59.8660 23.0124 1.4304 0.0000 0.0000 0.0000
# 2 23.0124 68.7311 17.9977 0.0000 0.0000 0.0000
# 3 1.4304 17.9977 77.5123 0.0000 0.0000 0.0000
# 4 0.0000 0.0000 0.0000 32.5417 0.0000 0.0000
# 5 0.0000 0.0000 0.0000 0.0000 2.1802 0.0000
# 6 0.0000 0.0000 0.0000 0.0000 0.0000 31.3292
#
#
#
# Elastic Compliance Matrix: (Units=1/GPa)
#
#
# Indices 1 2 3 4 5 6 
#
# 1 0.019279 -0.006774 0.001217 0.000000 0.000000 0.000000
# 2 -0.006774 0.017871 -0.004025 0.000000 0.000000 0.000000
# 3 0.001217 -0.004025 0.013813 0.000000 0.000000 0.000000
# 4 0.000000 0.000000 0.000000 0.030730 0.000000 0.000000
# 5 0.000000 0.000000 0.000000 0.000000 0.458668 0.000000
# 6 0.000000 0.000000 0.000000 0.000000 0.000000 0.031919
#
#
# Mechanical properties :
#
#
# Convention : Reuss Voigt Hill
#
# Bulk Modulus (GPa) = 31.44566 32.33226 31.88896
# Shear Modulus (GPa) = 8.30506 24.12147 16.21327
#
# Velocity S-wave (km/s) = 1.93493 3.29758 2.70352
# Velocity P-wave (km/s) = 4.37810 5.39205 4.91131
#
# Compressibility (1/GPa) = 0.03180089
#
# Stress axis : x y z
#
# Youngs Moduli (GPa) = 51.87087 55.95591 72.39464
#
# Poissons Ratio (x) = 0.37902 -0.08810
# Poissons Ratio (y) = 0.35135 0.29136
# Poissons Ratio (z) = -0.06313 0.22520
#
# Static dielectric constant tensor:
#      x y z
#    x 1.842430 0.000000 0.000000 
#    y 0.000000 1.902570 0.000000 
#    z 0.000000 0.000000 1.850560 
# 
# From -- ./inp_files/21920.got.cif
#   From: 2010.05.17/outbox.cif.g08.bks.cpg/sg20_11_cif.got.tgz:21920.got - 2010.06.03 22:52:26.
