data_PCOD9320407
_publ_section_title
;
Structure prediction by ZEFSAII (Michael W. Deem and Ramdas Pophale) SiO2 
 PCOD9320407
Probable space group: C 2 2 21
;
_chemical_formula_sum "Si O2"
_cell_formula_units_Z 44
_cell_length_a 22.818797
_cell_length_b 9.367443
_cell_length_c 6.951894
_cell_angle_alpha 90.000000
_cell_angle_beta 90.000000
_cell_angle_gamma 90.000000
_cell_volume 1485.993622
_symmetry_space_group_name_H-M "C 2 2 21"
_symmetry_group_IT_number 20
_symmetry_cell_setting 'orthorhombic'
loop_
_space_group_symop_operation_xyz
x,y,z
-x,-y,1/2+z
x,-y,-z
-x,y,1/2-z
1/2+x,1/2+y,z
1/2-x,1/2-y,1/2+z
1/2+x,1/2-y,-z
1/2-x,1/2+y,1/2-z
loop_
_atom_site_type_symbol
_atom_site_label
_atom_site_fract_x
_atom_site_fract_y
_atom_site_fract_z
Si Si1 0.500000 0.040643 0.250000
Si Si2 0.563105 0.498926 0.728146
Si Si3 0.809996 0.960357 0.779350
Si Si4 0.553623 0.801028 0.058707
Si Si5 0.781728 0.328402 0.079388
Si Si6 0.330145 0.138001 0.355163
O O1 0.501667 0.143379 0.433765
O O2 0.554368 0.931760 0.211595
O O3 0.570136 0.500000 0.500000
O O4 0.500000 0.576073 0.750000
O O5 0.629871 0.528368 0.794384
O O6 0.448306 0.349233 0.661494
O O7 0.817793 0.786798 0.790274
O O8 0.752912 0.035807 0.681078
O O9 0.804525 0.000000 0.000000
O O10 0.606045 0.804008 0.907996
O O11 0.723417 0.231906 0.064181
O O12 0.820074 0.350769 0.882190
O O13 0.328563 0.000000 0.500000
#
# Coordination Sequence:
#
# PCOD9320407 Si02
#       6
#     4   8   8   8   8   8
#     4  10  22  54  92 132 168 238 312 396 472 550
#     4  11  28  56  88 133 189 260 315 389 481 582
#     4  11  27  60  90 138 186 260 330 401 480 586
#     4  11  25  55  89 135 185 235 320 401 475 573
#     4  12  29  58  93 133 192 252 324 396 489 579
#     4  12  29  54  86 137 188 247 308 407 490 579
#
# _framework density 29.609815000000001
#
# number of rings (size 3 to 8) (size 9 to 14) (size 15 to 20)
#    0.000    0.727    4.545    0.545    2.545    5.091 
#    8.182    0.000    0.000    0.000    0.000    0.000 
#    0.000    0.000    0.000    0.000    0.000    0.000 
#
# Total GULP energy -122526.031242 kJ/mol
# GULP energy per Si atom -5569.365056 kJ/mol
# Density = 2.954242 g / cm^3
# Si number density = 29.609815 Si / 1000 Ang^3
#
#
#
# Elastic Constant Matrix: (Units=GPa)
#
#
# Indices 1 2 3 4 5 6 
#
# 1 179.7548 28.9569 50.1218 0.0000 0.0000 0.0000
# 2 28.9569 188.8529 66.0843 0.0000 0.0000 0.0000
# 3 50.1218 66.0843 225.1555 0.0000 0.0000 0.0000
# 4 0.0000 0.0000 0.0000 51.8337 0.0000 0.0000
# 5 0.0000 0.0000 0.0000 0.0000 77.3912 0.0000
# 6 0.0000 0.0000 0.0000 0.0000 0.0000 -31.8362
#
#
#
# Elastic Compliance Matrix: (Units=1/GPa)
#
#
# Indices 1 2 3 4 5 6 
#
# 1 0.005974 -0.000502 -0.001182 0.000000 0.000000 0.000000
# 2 -0.000502 0.005943 -0.001633 0.000000 0.000000 0.000000
# 3 -0.001182 -0.001633 0.005184 0.000000 0.000000 0.000000
# 4 0.000000 0.000000 0.000000 0.019292 0.000000 0.000000
# 5 0.000000 0.000000 0.000000 0.000000 0.012921 0.000000
# 6 0.000000 0.000000 0.000000 0.000000 0.000000 -0.031411
#
#
# Mechanical properties :
#
#
# Convention : Reuss Voigt Hill
#
# Bulk Modulus (GPa) = 95.54340 98.23213 96.88777
# Shear Modulus (GPa) = 178.39716 49.38439 113.89078
#
# Velocity S-wave (km/s) = 7.77047 4.08835 6.20865
# Velocity P-wave (km/s) = 10.62282 7.45209 9.17546
#
# Compressibility (1/GPa) = 0.01046645
#
# Stress axis : x y z
#
# Youngs Moduli (GPa) = 167.39955 168.25302 192.90946
#
# Poissons Ratio (x) = 0.08450 0.22810
# Poissons Ratio (y) = 0.08407 0.31495
# Poissons Ratio (z) = 0.19794 0.27470
#
# Static dielectric constant tensor:
#      x y z
#    x 2.417660 0.000000 0.000000 
#    y 0.000000 2.259630 0.000000 
#    z 0.000000 0.000000 2.412480 
# 
# From -- ./inp_files/10595.got.cif
#   From: 2010.05.17/outbox.cif.g08.bks.cpg/sg20_6_cif.got.tgz:10595.got - 2010.06.03 22:52:26.
