data_PCOD9320672
_publ_section_title
;
Structure prediction by ZEFSAII (Michael W. Deem and Ramdas Pophale) SiO2 
 PCOD9320672
Probable space group: C 2 2 21
;
_chemical_formula_sum "Si O2"
_cell_formula_units_Z 48
_cell_length_a 5.395496
_cell_length_b 27.276472
_cell_length_c 15.091111
_cell_angle_alpha 90.000000
_cell_angle_beta 90.000000
_cell_angle_gamma 90.000000
_cell_volume 2220.960248
_symmetry_space_group_name_H-M "C 2 2 21"
_symmetry_group_IT_number 20
_symmetry_cell_setting 'orthorhombic'
loop_
_space_group_symop_operation_xyz
x,y,z
-x,-y,1/2+z
x,-y,-z
-x,y,1/2-z
1/2+x,1/2+y,z
1/2-x,1/2-y,1/2+z
1/2+x,1/2-y,-z
1/2-x,1/2+y,1/2-z
loop_
_atom_site_type_symbol
_atom_site_label
_atom_site_fract_x
_atom_site_fract_y
_atom_site_fract_z
Si Si1 0.750004 0.045403 0.705334
Si Si2 0.500000 0.643385 0.250000
Si Si3 0.718229 0.556966 0.138193
Si Si4 0.606683 0.290793 0.588120
Si Si5 0.629458 0.500000 0.500000
Si Si6 0.978372 0.576179 0.963147
Si Si7 0.598825 0.187902 0.522098
O O1 0.500000 0.065371 0.750000
O O2 0.737379 0.056792 0.600991
O O3 0.000000 0.063422 0.750000
O O4 0.740591 0.986435 0.707575
O O5 0.661938 0.606124 0.191187
O O6 0.379974 0.679359 0.178576
O O7 0.510082 0.534636 0.071489
O O8 0.932534 0.568318 0.067541
O O9 0.590580 0.231719 0.593764
O O10 0.365036 0.309199 0.530095
O O11 0.868146 0.299898 0.541056
O O12 0.797148 0.460955 0.444978
O O13 0.970227 0.633748 0.945001
#
# Coordination Sequence:
#
# PCOD9320672 Si02
#       7
#     8   4   8   8   4   8   8
#     4  12  26  42  61  94 140 179 230 282 329 412
#     4  12  24  42  72 104 142 174 246 304 364 404
#     4  12  24  40  67 100 140 187 226 295 346 427
#     4  10  23  45  69 103 134 171 232 301 350 418
#     4  12  22  42  66 104 144 188 240 276 350 440
#     4  12  24  41  69  97 138 193 233 275 356 433
#     4  10  23  45  73  95 133 187 231 280 362 422
#
# _framework density 21.612273999999999
#
# number of rings (size 3 to 8) (size 9 to 14) (size 15 to 20)
#    0.000    0.667    5.833    2.000    0.000    2.000 
#    4.500    0.000    0.000    0.000    0.000    0.000 
#    0.000    0.000    0.000    0.000    0.000    0.000 
#
# Total GULP energy -133879.154529 kJ/mol
# GULP energy per Si atom -5578.298105 kJ/mol
# Density = 2.156308 g / cm^3
# Si number density = 21.612274 Si / 1000 Ang^3
#
#
#
# Elastic Constant Matrix: (Units=GPa)
#
#
# Indices 1 2 3 4 5 6 
#
# 1 99.6254 13.6884 31.8221 0.0000 0.0000 0.0000
# 2 13.6884 128.0338 19.1249 0.0000 0.0000 0.0000
# 3 31.8221 19.1249 67.6108 0.0000 0.0000 0.0000
# 4 0.0000 0.0000 0.0000 45.2915 0.0000 0.0000
# 5 0.0000 0.0000 0.0000 0.0000 27.8701 0.0000
# 6 0.0000 0.0000 0.0000 0.0000 0.0000 -0.9892
#
#
#
# Elastic Compliance Matrix: (Units=1/GPa)
#
#
# Indices 1 2 3 4 5 6 
#
# 1 0.011839 -0.000453 -0.005444 0.000000 0.000000 0.000000
# 2 -0.000453 0.008172 -0.002099 0.000000 0.000000 0.000000
# 3 -0.005444 -0.002099 0.017947 0.000000 0.000000 0.000000
# 4 0.000000 0.000000 0.000000 0.022079 0.000000 0.000000
# 5 0.000000 0.000000 0.000000 0.000000 0.035881 0.000000
# 6 0.000000 0.000000 0.000000 0.000000 0.000000 -1.010939
#
#
# Mechanical properties :
#
#
# Convention : Reuss Voigt Hill
#
# Bulk Modulus (GPa) = 45.52286 47.17120 46.34703
# Shear Modulus (GPa) = -5.60721 29.81013 12.10146
#
# Velocity S-wave (km/s) = -1.61248 3.71794 2.36886
# Velocity P-wave (km/s) = 4.20028 6.34857 5.38269
#
# Compressibility (1/GPa) = 0.02196698
#
# Stress axis : x y z
#
# Youngs Moduli (GPa) = 84.46867 122.36446 55.72107
#
# Poissons Ratio (x) = 0.05537 0.30335
# Poissons Ratio (y) = 0.03822 0.11694
# Poissons Ratio (z) = 0.45985 0.25681
#
# Static dielectric constant tensor:
#      x y z
#    x 1.899080 0.000000 0.000000 
#    y 0.000000 1.849690 0.000000 
#    z 0.000000 0.000000 1.864250 
# 
# From -- ./inp_files/17844.got.cif
#   From: 2010.05.17/outbox.cif.g08.bks.cpg/sg20_9_cif.got.tgz:17844.got - 2010.06.03 22:52:26.
