data_PCOD9320546
_publ_section_title
;
Structure prediction by ZEFSAII (Michael W. Deem and Ramdas Pophale) SiO2 
 PCOD9320546
Probable space group: C 2 2 21
;
_chemical_formula_sum "Si O2"
_cell_formula_units_Z 56
_cell_length_a 5.431410
_cell_length_b 14.262360
_cell_length_c 31.833176
_cell_angle_alpha 90.000000
_cell_angle_beta 90.000000
_cell_angle_gamma 90.000000
_cell_volume 2465.948216
_symmetry_space_group_name_H-M "C 2 2 21"
_symmetry_group_IT_number 20
_symmetry_cell_setting 'orthorhombic'
loop_
_space_group_symop_operation_xyz
x,y,z
-x,-y,1/2+z
x,-y,-z
-x,y,1/2-z
1/2+x,1/2+y,z
1/2-x,1/2-y,1/2+z
1/2+x,1/2-y,-z
1/2-x,1/2+y,1/2-z
loop_
_atom_site_type_symbol
_atom_site_label
_atom_site_fract_x
_atom_site_fract_y
_atom_site_fract_z
Si Si1 0.293033 0.095453 0.626685
Si Si2 0.470244 0.163101 0.960609
Si Si3 0.596902 0.535611 0.924287
Si Si4 0.438631 0.799970 0.793965
Si Si5 0.052002 0.314121 0.293389
Si Si6 0.498419 0.097292 0.119021
Si Si7 0.785820 0.133800 0.041216
O O1 0.412263 0.134687 0.583923
O O2 0.443194 0.136842 0.665251
O O3 0.007413 0.101461 0.613512
O O4 0.312450 0.983795 0.632011
O O5 0.215050 0.106073 0.957944
O O6 0.455927 0.275103 0.963839
O O7 0.620754 0.126737 0.000132
O O8 0.409819 0.465299 0.947739
O O9 0.782727 0.462419 0.902634
O O10 0.500000 0.852096 0.750000
O O11 0.157443 0.766146 0.788495
O O12 0.437198 0.849027 0.838879
O O13 0.664785 0.722384 0.796281
O O14 0.000000 0.370858 0.250000
O O15 0.618243 0.157605 0.082076
#
# Coordination Sequence:
#
# PCOD9320546 Si02
#       7
#     8   8   8   8   8   8   8
#     4  10  24  42  68  96 136 181 230 294 359 424
#     4  11  27  45  68 101 134 186 240 291 366 438
#     4  10  26  47  66 101 140 184 234 307 360 427
#     4  10  23  42  70 103 138 182 235 293 354 425
#     4  10  23  42  70 103 138 182 235 293 354 425
#     4  10  24  42  68  96 136 181 230 294 359 424
#     4  11  27  45  68 101 134 186 240 291 366 438
#
# _framework density 22.709316000000001
#
# number of rings (size 3 to 8) (size 9 to 14) (size 15 to 20)
#    0.000    1.714    0.000    0.857   16.000    6.857 
#    0.000    0.000    0.000    0.000    0.000    0.000 
#    0.000    0.000    0.000    0.000    0.000    0.000 
#
# Total GULP energy -156088.207811 kJ/mol
# GULP energy per Si atom -5574.578850 kJ/mol
# Density = 2.265763 g / cm^3
# Si number density = 22.709316 Si / 1000 Ang^3
#
#
#
# Elastic Constant Matrix: (Units=GPa)
#
#
# Indices 1 2 3 4 5 6 
#
# 1 56.5684 11.4236 -6.4627 0.0000 0.0000 0.0000
# 2 11.4236 54.7324 20.7295 0.0000 0.0000 0.0000
# 3 -6.4627 20.7295 133.4081 0.0000 0.0000 0.0000
# 4 0.0000 0.0000 0.0000 -133.6752 0.0000 0.0000
# 5 0.0000 0.0000 0.0000 0.0000 21.8331 0.0000
# 6 0.0000 0.0000 0.0000 0.0000 0.0000 25.6051
#
#
#
# Elastic Compliance Matrix: (Units=1/GPa)
#
#
# Indices 1 2 3 4 5 6 
#
# 1 0.018777 -0.004530 0.001614 0.000000 0.000000 0.000000
# 2 -0.004530 0.020506 -0.003406 0.000000 0.000000 0.000000
# 3 0.001614 -0.003406 0.008103 0.000000 0.000000 0.000000
# 4 0.000000 0.000000 0.000000 -0.007481 0.000000 0.000000
# 5 0.000000 0.000000 0.000000 0.000000 0.045802 0.000000
# 6 0.000000 0.000000 0.000000 0.000000 0.000000 0.039055
#
#
# Mechanical properties :
#
#
# Convention : Reuss Voigt Hill
#
# Bulk Modulus (GPa) = 28.78415 32.89886 30.84150
# Shear Modulus (GPa) = 33.55986 -2.64617 15.45684
#
# Velocity S-wave (km/s) = 3.84839 -1.08063 2.61174
# Velocity P-wave (km/s) = 5.69643 3.60019 4.76501
#
# Compressibility (1/GPa) = 0.03474134
#
# Stress axis : x y z
#
# Youngs Moduli (GPa) = 53.25697 48.76582 123.40846
#
# Poissons Ratio (x) = 0.22092 -0.19912
# Poissons Ratio (y) = 0.24126 0.42030
# Poissons Ratio (z) = -0.08593 0.16609
#
# Static dielectric constant tensor:
#      x y z
#    x 2.005400 0.000000 0.000000 
#    y 0.000000 1.831060 0.000000 
#    z 0.000000 0.000000 1.927890 
# 
# From -- ./inp_files/30751.got.cif
#   From: 2010.05.17/outbox.cif.g08.bks.cpg/sg20_16_cif.got.tgz:30751.got - 2010.06.03 22:52:26.
