data_PCOD9320570
_publ_section_title
;
Structure prediction by ZEFSAII (Michael W. Deem and Ramdas Pophale) SiO2 
 PCOD9320570
Probable space group: C 2 2 21
;
_chemical_formula_sum "Si O2"
_cell_formula_units_Z 48
_cell_length_a 28.186470
_cell_length_b 8.449162
_cell_length_c 9.976382
_cell_angle_alpha 90.000000
_cell_angle_beta 90.000000
_cell_angle_gamma 90.000000
_cell_volume 2375.895837
_symmetry_space_group_name_H-M "C 2 2 21"
_symmetry_group_IT_number 20
_symmetry_cell_setting 'orthorhombic'
loop_
_space_group_symop_operation_xyz
x,y,z
-x,-y,1/2+z
x,-y,-z
-x,y,1/2-z
1/2+x,1/2+y,z
1/2-x,1/2-y,1/2+z
1/2+x,1/2-y,-z
1/2-x,1/2+y,1/2-z
loop_
_atom_site_type_symbol
_atom_site_label
_atom_site_fract_x
_atom_site_fract_y
_atom_site_fract_z
Si Si1 0.106909 0.808856 0.232649
Si Si2 0.709511 0.310170 0.345010
Si Si3 0.399352 0.318908 0.792454
Si Si4 0.207786 0.807791 0.652517
Si Si5 0.545108 0.815622 0.538977
Si Si6 0.437122 0.812799 0.478779
O O1 0.158631 0.759078 0.285655
O O2 0.066781 0.714642 0.315176
O O3 0.100610 0.994181 0.263540
O O4 0.099464 0.775292 0.076507
O O5 0.751906 0.254143 0.250826
O O6 0.714717 0.254489 0.498610
O O7 0.709233 0.501166 0.347102
O O8 0.344907 0.262043 0.799492
O O9 0.427413 0.232264 0.674153
O O10 0.423496 0.283001 0.934157
O O11 0.490423 0.767457 0.522296
O O12 0.548529 0.000000 0.500000
O O13 0.431951 0.000000 0.500000
#
# Coordination Sequence:
#
# PCOD9320570 Si02
#       6
#     8   8   8   8   8   8
#     4  11  23  42  65  91 125 164 208 256 305 365
#     4  10  23  43  64  91 124 158 201 253 305 363
#     4  11  23  42  65  91 125 164 208 256 305 365
#     4  10  23  43  64  91 124 158 201 253 305 363
#     4  11  23  41  64  91 126 165 206 255 310 365
#     4  11  25  41  60  93 130 163 206 257 306 365
#
# _framework density 20.202905999999999
#
# number of rings (size 3 to 8) (size 9 to 14) (size 15 to 20)
#    0.000    1.333    1.667    3.000    2.333   10.000 
#    0.000    0.000    0.000    0.000    0.000    0.000 
#    0.000    0.000    0.000    0.000    0.000    0.000 
#
# Total GULP energy -134257.035531 kJ/mol
# GULP energy per Si atom -5594.043147 kJ/mol
# Density = 2.015692 g / cm^3
# Si number density = 20.202906 Si / 1000 Ang^3
#
#
#
# Elastic Constant Matrix: (Units=GPa)
#
#
# Indices 1 2 3 4 5 6 
#
# 1 115.4695 11.9340 14.5376 0.0000 0.0000 0.0000
# 2 11.9340 20.5545 -10.8311 0.0000 0.0000 0.0000
# 3 14.5376 -10.8311 34.1227 0.0000 0.0000 0.0000
# 4 0.0000 0.0000 0.0000 37.2976 0.0000 0.0000
# 5 0.0000 0.0000 0.0000 0.0000 41.1367 0.0000
# 6 0.0000 0.0000 0.0000 0.0000 0.0000 23.4925
#
#
#
# Elastic Compliance Matrix: (Units=1/GPa)
#
#
# Indices 1 2 3 4 5 6 
#
# 1 0.010721 -0.010365 -0.007858 0.000000 0.000000 0.000000
# 2 -0.010365 0.068444 0.026141 0.000000 0.000000 0.000000
# 3 -0.007858 0.026141 0.040951 0.000000 0.000000 0.000000
# 4 0.000000 0.000000 0.000000 0.026811 0.000000 0.000000
# 5 0.000000 0.000000 0.000000 0.000000 0.024309 0.000000
# 6 0.000000 0.000000 0.000000 0.000000 0.000000 0.042567
#
#
# Mechanical properties :
#
#
# Convention : Reuss Voigt Hill
#
# Bulk Modulus (GPa) = 7.35547 22.38086 14.86816
# Shear Modulus (GPa) = 20.55210 30.68575 25.61892
#
# Velocity S-wave (km/s) = 3.19295 3.90151 3.56488
# Velocity P-wave (km/s) = 4.15234 5.60337 4.93152
#
# Compressibility (1/GPa) = 0.13595333
#
# Stress axis : x y z
#
# Youngs Moduli (GPa) = 93.27653 14.61046 24.41928
#
# Poissons Ratio (x) = 0.15144 0.19187
# Poissons Ratio (y) = 0.96681 -0.63835
# Poissons Ratio (z) = 0.73292 -0.38193
#
# Static dielectric constant tensor:
#      x y z
#    x 1.691800 0.000000 0.000000 
#    y 0.000000 1.700330 0.000000 
#    z 0.000000 0.000000 1.666900 
# 
# From -- ./inp_files/6463.got.cif
#   From: 2010.05.17/outbox.cif.g08.bks.cpg/sg20_4_cif.got.tgz:6463.got - 2010.06.03 22:52:26.
