data_PCOD9320525
_publ_section_title
;
Structure prediction by ZEFSAII (Michael W. Deem and Ramdas Pophale) SiO2 
 PCOD9320525
Probable space group: C 2 2 21
;
_chemical_formula_sum "Si O2"
_cell_formula_units_Z 40
_cell_length_a 22.591342
_cell_length_b 10.060942
_cell_length_c 7.630017
_cell_angle_alpha 90.000000
_cell_angle_beta 90.000000
_cell_angle_gamma 90.000000
_cell_volume 1734.227949
_symmetry_space_group_name_H-M "C 2 2 21"
_symmetry_group_IT_number 20
_symmetry_cell_setting 'orthorhombic'
loop_
_space_group_symop_operation_xyz
x,y,z
-x,-y,1/2+z
x,-y,-z
-x,y,1/2-z
1/2+x,1/2+y,z
1/2-x,1/2-y,1/2+z
1/2+x,1/2-y,-z
1/2-x,1/2+y,1/2-z
loop_
_atom_site_type_symbol
_atom_site_label
_atom_site_fract_x
_atom_site_fract_y
_atom_site_fract_z
Si Si1 0.255558 0.129284 0.884961
Si Si2 0.932829 0.693247 0.174200
Si Si3 0.569118 0.898384 0.275978
Si Si4 0.342263 0.278727 0.644642
Si Si5 0.354377 0.551716 0.806723
O O1 0.309038 0.216964 0.815352
O O2 0.215116 0.081738 0.722682
O O3 0.208410 0.211557 0.999881
O O4 0.273285 0.000000 0.000000
O O5 0.906764 0.548603 0.225225
O O6 0.893516 0.818795 0.229302
O O7 0.000000 0.706808 0.250000
O O8 0.929426 0.678992 0.961979
O O9 0.500000 0.915115 0.250000
O O10 0.601765 0.816032 0.125738
O O11 0.364975 0.426867 0.679904
O O12 0.366614 0.500000 0.000000
#
# Coordination Sequence:
#
# PCOD9320525 Si02
#       5
#     8   8   8   8   8
#     4  10  25  42  67 100 136 179 228 280 343 411
#     4  10  23  42  66  93 134 172 225 281 341 407
#     4  10  23  42  68  95 129 175 227 279 340 403
#     4  11  23  42  67  96 136 173 226 280 337 416
#     4  11  22  42  65  97 131 173 220 279 346 402
#
# _framework density 23.065020000000001
#
# number of rings (size 3 to 8) (size 9 to 14) (size 15 to 20)
#    0.000    1.600    2.000    1.200    5.600    2.400 
#    0.000    4.000    0.000    0.000    0.000    0.000 
#    0.000    0.000    0.000    0.000    0.000    0.000 
#
# Total GULP energy -111779.585447 kJ/mol
# GULP energy per Si atom -5588.979272 kJ/mol
# Density = 2.301252 g / cm^3
# Si number density = 23.065020 Si / 1000 Ang^3
#
#
#
# Elastic Constant Matrix: (Units=GPa)
#
#
# Indices 1 2 3 4 5 6 
#
# 1 69.8379 51.2317 15.0617 0.0000 0.0000 0.0000
# 2 51.2317 135.1458 15.4741 0.0000 0.0000 0.0000
# 3 15.0617 15.4741 56.2298 0.0000 0.0000 0.0000
# 4 0.0000 0.0000 0.0000 17.6954 0.0000 0.0000
# 5 0.0000 0.0000 0.0000 0.0000 23.1524 0.0000
# 6 0.0000 0.0000 0.0000 0.0000 0.0000 42.4135
#
#
#
# Elastic Compliance Matrix: (Units=1/GPa)
#
#
# Indices 1 2 3 4 5 6 
#
# 1 0.020465 -0.007362 -0.003456 0.000000 0.000000 0.000000
# 2 -0.007362 0.010289 -0.000859 0.000000 0.000000 0.000000
# 3 -0.003456 -0.000859 0.018946 0.000000 0.000000 0.000000
# 4 0.000000 0.000000 0.000000 0.056512 0.000000 0.000000
# 5 0.000000 0.000000 0.000000 0.000000 0.043192 0.000000
# 6 0.000000 0.000000 0.000000 0.000000 0.000000 0.023577
#
#
# Mechanical properties :
#
#
# Convention : Reuss Voigt Hill
#
# Bulk Modulus (GPa) = 37.95729 47.19427 42.57578
# Shear Modulus (GPa) = 24.37625 28.61533 26.49579
#
# Velocity S-wave (km/s) = 3.25445 3.52609 3.39299
# Velocity P-wave (km/s) = 5.53302 6.08963 5.81798
#
# Compressibility (1/GPa) = 0.02634540
#
# Stress axis : x y z
#
# Youngs Moduli (GPa) = 48.86399 97.19360 52.78075
#
# Poissons Ratio (x) = 0.71557 0.18239
# Poissons Ratio (y) = 0.35975 0.04536
# Poissons Ratio (z) = 0.16886 0.08352
#
# Static dielectric constant tensor:
#      x y z
#    x 1.838480 0.000000 0.000000 
#    y 0.000000 1.871450 0.000000 
#    z 0.000000 0.000000 1.956940 
# 
# From -- ./inp_files/6035.got.cif
#   From: 2010.05.17/outbox.cif.g08.bks.cpg/sg20_4_cif.got.tgz:6035.got - 2010.06.03 22:52:26.
