data_PCOD9320947
_publ_section_title
;
Structure prediction by ZEFSAII (Michael W. Deem and Ramdas Pophale) SiO2 
 PCOD9320947
Probable space group: C 2 2 21
;
_chemical_formula_sum "Si O2"
_cell_formula_units_Z 32
_cell_length_a 12.963172
_cell_length_b 19.047485
_cell_length_c 5.470888
_cell_angle_alpha 90.000000
_cell_angle_beta 90.000000
_cell_angle_gamma 90.000000
_cell_volume 1350.848820
_symmetry_space_group_name_H-M "C 2 2 21"
_symmetry_group_IT_number 20
_symmetry_cell_setting 'orthorhombic'
loop_
_space_group_symop_operation_xyz
x,y,z
-x,-y,1/2+z
x,-y,-z
-x,y,1/2-z
1/2+x,1/2+y,z
1/2-x,1/2-y,1/2+z
1/2+x,1/2-y,-z
1/2-x,1/2+y,1/2-z
loop_
_atom_site_type_symbol
_atom_site_label
_atom_site_fract_x
_atom_site_fract_y
_atom_site_fract_z
Si Si1 0.000000 0.546709 0.250000
Si Si2 0.711271 0.916437 0.549030
Si Si3 0.000000 0.176331 0.750000
Si Si4 0.603247 0.568718 0.382288
Si Si5 0.217552 0.785749 0.180126
O O1 0.102015 0.591111 0.315423
O O2 0.981358 0.500000 0.500000
O O3 0.811500 0.899142 0.708850
O O4 0.729359 0.863585 0.324534
O O5 0.717998 0.000000 0.500000
O O6 0.059458 0.126103 0.563110
O O7 0.094420 0.216532 0.870118
O O8 0.652668 0.500000 0.500000
O O9 0.500000 0.541042 0.250000
O O10 0.233148 0.752623 0.446363
#
# Coordination Sequence:
#
# PCOD9320947 Si02
#       5
#     4   8   4   8   8
#     4  10  24  45  72 108 148 199 254 312 362 423
#     4  11  24  48  77 107 148 198 254 310 370 452
#     4  12  26  47  72 102 152 195 250 302 388 459
#     4  12  21  38  70 118 150 189 235 313 381 454
#     4  12  29  50  74 110 151 198 248 311 381 455
#
# _framework density 23.68881
#
# number of rings (size 3 to 8) (size 9 to 14) (size 15 to 20)
#    0.000    0.500    3.750    4.500    0.000    7.000 
#    0.000    7.500    0.000    0.000    0.000    0.000 
#    0.000    0.000    0.000    0.000    0.000    0.000 
#
# Total GULP energy -89458.734948 kJ/mol
# GULP energy per Si atom -5591.170934 kJ/mol
# Density = 2.363489 g / cm^3
# Si number density = 23.688810 Si / 1000 Ang^3
#
#
#
# Elastic Constant Matrix: (Units=GPa)
#
#
# Indices 1 2 3 4 5 6 
#
# 1 158.1181 12.2576 16.7511 0.0000 0.0000 0.0000
# 2 12.2576 81.8286 18.4235 0.0000 0.0000 0.0000
# 3 16.7511 18.4235 73.3294 0.0000 0.0000 0.0000
# 4 0.0000 0.0000 0.0000 43.9223 0.0000 0.0000
# 5 0.0000 0.0000 0.0000 0.0000 30.6207 0.0000
# 6 0.0000 0.0000 0.0000 0.0000 0.0000 288.1894
#
#
#
# Elastic Compliance Matrix: (Units=1/GPa)
#
#
# Indices 1 2 3 4 5 6 
#
# 1 0.006517 -0.000679 -0.001318 0.000000 0.000000 0.000000
# 2 -0.000679 0.013024 -0.003117 0.000000 0.000000 0.000000
# 3 -0.001318 -0.003117 0.014721 0.000000 0.000000 0.000000
# 4 0.000000 0.000000 0.000000 0.022767 0.000000 0.000000
# 5 0.000000 0.000000 0.000000 0.000000 0.032658 0.000000
# 6 0.000000 0.000000 0.000000 0.000000 0.000000 0.003470
#
#
# Mechanical properties :
#
#
# Convention : Reuss Voigt Hill
#
# Bulk Modulus (GPa) = 41.60883 45.34895 43.47889
# Shear Modulus (GPa) = 44.88442 90.26941 67.57692
#
# Velocity S-wave (km/s) = 4.35760 6.17973 5.34686
# Velocity P-wave (km/s) = 6.55142 8.37281 7.51748
#
# Compressibility (1/GPa) = 0.02403336
#
# Stress axis : x y z
#
# Youngs Moduli (GPa) = 153.45233 76.77995 67.92880
#
# Poissons Ratio (x) = 0.05217 0.08953
# Poissons Ratio (y) = 0.10426 0.21174
# Poissons Ratio (z) = 0.20224 0.23933
#
# Static dielectric constant tensor:
#      x y z
#    x 1.904920 0.000000 0.000000 
#    y 0.000000 2.017360 0.000000 
#    z 0.000000 0.000000 1.933050 
# 
# From -- ./inp_files/1043.got.cif
#   From: 2010.05.17/outbox.cif.g08.bks.cpg/sg20_1_cif.got.tgz:1043.got - 2010.06.03 22:52:26.
