data_PCOD9320318
_publ_section_title
;
Structure prediction by ZEFSAII (Michael W. Deem and Ramdas Pophale) SiO2 
 PCOD9320318
Probable space group: C 2 2 21
;
_chemical_formula_sum "Si O2"
_cell_formula_units_Z 44
_cell_length_a 7.134548
_cell_length_b 8.513941
_cell_length_c 26.956531
_cell_angle_alpha 90.000000
_cell_angle_beta 90.000000
_cell_angle_gamma 90.000000
_cell_volume 1637.423817
_symmetry_space_group_name_H-M "C 2 2 21"
_symmetry_group_IT_number 20
_symmetry_cell_setting 'orthorhombic'
loop_
_space_group_symop_operation_xyz
x,y,z
-x,-y,1/2+z
x,-y,-z
-x,y,1/2-z
1/2+x,1/2+y,z
1/2-x,1/2-y,1/2+z
1/2+x,1/2-y,-z
1/2-x,1/2+y,1/2-z
loop_
_atom_site_type_symbol
_atom_site_label
_atom_site_fract_x
_atom_site_fract_y
_atom_site_fract_z
Si Si1 0.503128 0.836028 0.881048
Si Si2 0.080658 0.801928 0.656938
Si Si3 0.989292 0.348613 0.060960
Si Si4 0.622187 0.001923 0.292390
Si Si5 0.500000 0.522881 0.750000
Si Si6 0.059170 0.149270 0.969630
O O1 0.695582 0.791062 0.853500
O O2 0.353842 0.879576 0.838368
O O3 0.446843 0.704099 0.920869
O O4 0.551646 0.990070 0.913700
O O5 0.998451 0.792432 0.601405
O O6 0.013335 0.641385 0.682788
O O7 0.043744 0.931317 0.698199
O O8 0.769361 0.380297 0.049395
O O9 0.072822 0.289928 0.009548
O O10 0.500000 0.082282 0.250000
O O11 0.796487 0.918574 0.265601
O O12 0.986702 0.000000 0.000000
#
# Coordination Sequence:
#
# PCOD9320318 Si02
#       6
#     8   8   8   8   4   8
#     4  10  22  45  69  98 145 192 229 300 364 416
#     4  10  23  42  65 100 138 184 243 290 353 426
#     4  10  24  43  69  97 144 184 230 297 352 429
#     4  11  23  43  69 101 147 184 239 301 349 427
#     4  12  24  40  70 100 132 196 236 282 370 420
#     4  11  23  42  69 104 140 184 238 293 361 431
#
# _framework density 26.871478
#
# number of rings (size 3 to 8) (size 9 to 14) (size 15 to 20)
#    0.000    1.455    2.727    1.636    0.000   10.182 
#    0.000    5.455    0.000    0.000    0.000    0.000 
#    0.000    0.000    0.000    0.000    0.000    0.000 
#
# Total GULP energy -123013.303104 kJ/mol
# GULP energy per Si atom -5591.513777 kJ/mol
# Density = 2.681032 g / cm^3
# Si number density = 26.871478 Si / 1000 Ang^3
#
#
#
# Elastic Constant Matrix: (Units=GPa)
#
#
# Indices 1 2 3 4 5 6 
#
# 1 57.5657 10.8423 39.2205 0.0000 0.0000 0.0000
# 2 10.8423 61.6717 45.5089 0.0000 0.0000 0.0000
# 3 39.2205 45.5089 186.4969 0.0000 0.0000 0.0000
# 4 0.0000 0.0000 0.0000 57.1753 0.0000 0.0000
# 5 0.0000 0.0000 0.0000 0.0000 48.8521 0.0000
# 6 0.0000 0.0000 0.0000 0.0000 0.0000 27.5127
#
#
#
# Elastic Compliance Matrix: (Units=1/GPa)
#
#
# Indices 1 2 3 4 5 6 
#
# 1 0.020290 -0.000510 -0.004142 0.000000 0.000000 0.000000
# 2 -0.000510 0.019789 -0.004722 0.000000 0.000000 0.000000
# 3 -0.004142 -0.004722 0.007385 0.000000 0.000000 0.000000
# 4 0.000000 0.000000 0.000000 0.017490 0.000000 0.000000
# 5 0.000000 0.000000 0.000000 0.000000 0.020470 0.000000
# 6 0.000000 0.000000 0.000000 0.000000 0.000000 0.036347
#
#
# Mechanical properties :
#
#
# Convention : Reuss Voigt Hill
#
# Bulk Modulus (GPa) = 34.82450 55.20863 45.01656
# Shear Modulus (GPa) = 33.31307 40.71884 37.01596
#
# Velocity S-wave (km/s) = 3.52478 3.89693 3.71552
# Velocity P-wave (km/s) = 5.43629 6.39047 5.93260
#
# Compressibility (1/GPa) = 0.02871542
#
# Stress axis : x y z
#
# Youngs Moduli (GPa) = 49.28558 50.53380 135.40351
#
# Poissons Ratio (x) = 0.02579 0.56091
# Poissons Ratio (y) = 0.02515 0.63931
# Poissons Ratio (z) = 0.20416 0.23860
#
# Static dielectric constant tensor:
#      x y z
#    x 2.200340 0.000000 0.000000 
#    y 0.000000 2.102270 0.000000 
#    z 0.000000 0.000000 2.066970 
# 
# From -- ./inp_files/30931.got.cif
#   From: 2010.05.17/outbox.cif.g08.bks.cpg/sg20_16_cif.got.tgz:30931.got - 2010.06.03 22:52:26.
