data_PCOD9320070
_publ_section_title
;
Structure prediction by ZEFSAII (Michael W. Deem and Ramdas Pophale) SiO2 
 PCOD9320070
Probable space group: C 2 2 21
;
_chemical_formula_sum "Si O2"
_cell_formula_units_Z 60
_cell_length_a 9.633906
_cell_length_b 10.433824
_cell_length_c 29.747273
_cell_angle_alpha 90.000000
_cell_angle_beta 90.000000
_cell_angle_gamma 90.000000
_cell_volume 2990.150655
_symmetry_space_group_name_H-M "C 2 2 21"
_symmetry_group_IT_number 20
_symmetry_cell_setting 'orthorhombic'
loop_
_space_group_symop_operation_xyz
x,y,z
-x,-y,1/2+z
x,-y,-z
-x,y,1/2-z
1/2+x,1/2+y,z
1/2-x,1/2-y,1/2+z
1/2+x,1/2-y,-z
1/2-x,1/2+y,1/2-z
loop_
_atom_site_type_symbol
_atom_site_label
_atom_site_fract_x
_atom_site_fract_y
_atom_site_fract_z
Si Si1 0.545566 0.474356 0.576113
Si Si2 0.500000 0.320666 0.750000
Si Si3 0.742811 0.393809 0.960281
Si Si4 0.802635 0.774055 0.228859
Si Si5 0.991958 0.732370 0.084552
Si Si6 0.331525 0.469474 0.824572
Si Si7 0.779247 0.362079 0.518095
Si Si8 0.942734 0.695011 0.313103
O O1 0.386651 0.434371 0.570307
O O2 0.552604 0.626786 0.567818
O O3 0.615064 0.454328 0.624702
O O4 0.629418 0.394750 0.538857
O O5 0.360421 0.249450 0.733600
O O6 0.440161 0.400187 0.791750
O O7 0.874905 0.370424 0.928618
O O8 0.761304 0.500000 0.000000
O O9 0.717474 0.255366 0.983450
O O10 0.868702 0.795072 0.278561
O O11 0.906839 0.663484 0.209369
O O12 0.824826 0.887186 0.193871
O O13 0.127320 0.686146 0.058849
O O14 0.025523 0.741749 0.136990
O O15 0.176880 0.411845 0.817840
O O16 0.831856 0.500000 0.500000
#
# Coordination Sequence:
#
# PCOD9320070 Si02
#       8
#     8   4   8   8   8   8   8   8
#     4  12  25  43  70 102 138 183 229 297 346 427
#     4  10  24  40  66 100 130 178 230 270 340 410
#     4  12  26  45  70 103 137 185 238 291 356 415
#     4  10  22  42  67  93 138 174 218 278 336 410
#     4  12  24  44  69  99 140 176 235 286 351 420
#     4  11  23  42  67  99 135 180 225 277 350 408
#     4  12  24  47  72  96 140 187 229 292 358 414
#     4  10  22  42  66  99 134 179 225 278 346 410
#
# _framework density 20.065878000000001
#
# number of rings (size 3 to 8) (size 9 to 14) (size 15 to 20)
#    0.000    0.800    5.333    2.400    1.867    2.133 
#    0.000    4.000    0.000    0.000    0.000    0.000 
#    0.000    0.000    0.000    0.000    0.000    0.000 
#
# Total GULP energy -167346.936919 kJ/mol
# GULP energy per Si atom -5578.231231 kJ/mol
# Density = 2.002021 g / cm^3
# Si number density = 20.065878 Si / 1000 Ang^3
#
#
#
# Elastic Constant Matrix: (Units=GPa)
#
#
# Indices 1 2 3 4 5 6 
#
# 1 142.3198 25.4565 37.3213 0.0000 0.0000 0.0000
# 2 25.4565 80.2943 33.8309 0.0000 0.0000 0.0000
# 3 37.3213 33.8309 96.0788 0.0000 0.0000 0.0000
# 4 0.0000 0.0000 0.0000 23.3693 0.0000 0.0000
# 5 0.0000 0.0000 0.0000 0.0000 23.0832 0.0000
# 6 0.0000 0.0000 0.0000 0.0000 0.0000 25.5365
#
#
#
# Elastic Compliance Matrix: (Units=1/GPa)
#
#
# Indices 1 2 3 4 5 6 
#
# 1 0.007961 -0.001434 -0.002588 0.000000 0.000000 0.000000
# 2 -0.001434 0.014882 -0.004683 0.000000 0.000000 0.000000
# 3 -0.002588 -0.004683 0.013062 0.000000 0.000000 0.000000
# 4 0.000000 0.000000 0.000000 0.042791 0.000000 0.000000
# 5 0.000000 0.000000 0.000000 0.000000 0.043322 0.000000
# 6 0.000000 0.000000 0.000000 0.000000 0.000000 0.039160
#
#
# Mechanical properties :
#
#
# Convention : Reuss Voigt Hill
#
# Bulk Modulus (GPa) = 54.06491 56.87891 55.47191
# Shear Modulus (GPa) = 27.06314 29.20341 28.13328
#
# Velocity S-wave (km/s) = 3.67647 3.81908 3.74845
# Velocity P-wave (km/s) = 6.71000 6.91771 6.81465
#
# Compressibility (1/GPa) = 0.01849629
#
# Stress axis : x y z
#
# Youngs Moduli (GPa) = 125.60469 67.19537 76.55592
#
# Poissons Ratio (x) = 0.09635 0.19811
# Poissons Ratio (y) = 0.18009 0.35853
# Poissons Ratio (z) = 0.32503 0.31469
#
# Static dielectric constant tensor:
#      x y z
#    x 1.720560 0.000000 0.000000 
#    y 0.000000 1.734870 0.000000 
#    z 0.000000 0.000000 1.725360 
# 
# From -- ./inp_files/31043.got.cif
#   From: 2010.05.17/outbox.cif.g08.bks.cpg/sg20_16_cif.got.tgz:31043.got - 2010.06.03 22:52:26.
