data_PCOD9320835
_publ_section_title
;
Structure prediction by ZEFSAII (Michael W. Deem and Ramdas Pophale) SiO2 
 PCOD9320835
Probable space group: C 2 2 21
;
_chemical_formula_sum "Si O2"
_cell_formula_units_Z 48
_cell_length_a 27.822753
_cell_length_b 5.654840
_cell_length_c 13.978288
_cell_angle_alpha 90.000000
_cell_angle_beta 90.000000
_cell_angle_gamma 90.000000
_cell_volume 2199.249013
_symmetry_space_group_name_H-M "C 2 2 21"
_symmetry_group_IT_number 20
_symmetry_cell_setting 'orthorhombic'
loop_
_space_group_symop_operation_xyz
x,y,z
-x,-y,1/2+z
x,-y,-z
-x,y,1/2-z
1/2+x,1/2+y,z
1/2-x,1/2-y,1/2+z
1/2+x,1/2-y,-z
1/2-x,1/2+y,1/2-z
loop_
_atom_site_type_symbol
_atom_site_label
_atom_site_fract_x
_atom_site_fract_y
_atom_site_fract_z
Si Si1 0.298197 0.721069 0.792152
Si Si2 0.965437 0.923910 0.660738
Si Si3 0.366083 0.326650 0.731689
Si Si4 0.004421 0.407279 0.604174
Si Si5 0.110042 0.522626 0.385649
Si Si6 0.206463 0.453189 0.113224
O O1 0.320555 0.468496 0.769158
O O2 0.342669 0.852762 0.843265
O O3 0.252314 0.710479 0.860889
O O4 0.286160 0.831535 0.688412
O O5 0.909383 0.960269 0.681434
O O6 0.000000 0.970271 0.750000
O O7 0.975212 0.639796 0.642581
O O8 0.979394 0.152103 0.596384
O O9 0.343599 0.152700 0.652364
O O10 0.389674 0.221515 0.827644
O O11 0.015933 0.500000 0.500000
O O12 0.058443 0.368914 0.645318
O O13 0.115076 0.500000 0.500000
O O14 0.205156 0.500000 0.000000
#
# Coordination Sequence:
#
# PCOD9320835 Si02
#       6
#     8   8   8   8   8   8
#     4  11  24  46  69 102 139 180 240 296 370 437
#     4  12  24  43  73 100 146 196 237 296 370 428
#     4  11  25  45  67 102 140 190 238 293 363 444
#     4  11  25  46  68 107 142 189 245 303 362 437
#     4  10  24  42  71 105 141 181 243 301 365 434
#     4  11  26  46  72 103 142 186 239 303 370 442
#
# _framework density 21.825631000000001
#
# number of rings (size 3 to 8) (size 9 to 14) (size 15 to 20)
#    0.000    1.000    3.333    2.000    7.000    1.333 
#    3.000    0.000    0.000    0.000    0.000    0.000 
#    0.000    0.000    0.000    0.000    0.000    0.000 
#
# Total GULP energy -133623.418490 kJ/mol
# GULP energy per Si atom -5567.642437 kJ/mol
# Density = 2.177596 g / cm^3
# Si number density = 21.825631 Si / 1000 Ang^3
#
#
#
# Elastic Constant Matrix: (Units=GPa)
#
#
# Indices 1 2 3 4 5 6 
#
# 1 119.3745 28.2768 30.3249 0.0000 0.0000 0.0000
# 2 28.2768 69.0671 35.7690 0.0000 0.0000 0.0000
# 3 30.3249 35.7690 124.5718 0.0000 0.0000 0.0000
# 4 0.0000 0.0000 0.0000 26.6350 0.0000 0.0000
# 5 0.0000 0.0000 0.0000 0.0000 20.5158 0.0000
# 6 0.0000 0.0000 0.0000 0.0000 0.0000 17.1133
#
#
#
# Elastic Compliance Matrix: (Units=1/GPa)
#
#
# Indices 1 2 3 4 5 6 
#
# 1 0.009481 -0.003155 -0.001402 0.000000 0.000000 0.000000
# 2 -0.003155 0.018058 -0.004417 0.000000 0.000000 0.000000
# 3 -0.001402 -0.004417 0.009637 0.000000 0.000000 0.000000
# 4 0.000000 0.000000 0.000000 0.037545 0.000000 0.000000
# 5 0.000000 0.000000 0.000000 0.000000 0.048743 0.000000
# 6 0.000000 0.000000 0.000000 0.000000 0.000000 0.058434
#
#
# Mechanical properties :
#
#
# Convention : Reuss Voigt Hill
#
# Bulk Modulus (GPa) = 52.00988 55.75054 53.88021
# Shear Modulus (GPa) = 24.24186 27.42899 25.83543
#
# Velocity S-wave (km/s) = 3.33634 3.54889 3.44426
# Velocity P-wave (km/s) = 6.22278 6.51090 6.36847
#
# Compressibility (1/GPa) = 0.01922712
#
# Stress axis : x y z
#
# Youngs Moduli (GPa) = 105.47905 55.37700 103.76649
#
# Poissons Ratio (x) = 0.17474 0.14546
# Poissons Ratio (y) = 0.33283 0.45833
# Poissons Ratio (z) = 0.14787 0.24460
#
# Static dielectric constant tensor:
#      x y z
#    x 1.821260 0.000000 0.000000 
#    y 0.000000 1.956320 0.000000 
#    z 0.000000 0.000000 1.841440 
# 
# From -- ./inp_files/22148.got.cif
#   From: 2010.05.17/outbox.cif.g08.bks.cpg/sg20_12_cif.got.tgz:22148.got - 2010.06.03 22:52:26.
