data_PCOD9320494
_publ_section_title
;
Structure prediction by ZEFSAII (Michael W. Deem and Ramdas Pophale) SiO2 
 PCOD9320494
Probable space group: C 2 2 21
;
_chemical_formula_sum "Si O2"
_cell_formula_units_Z 56
_cell_length_a 15.774215
_cell_length_b 11.507165
_cell_length_c 14.497312
_cell_angle_alpha 90.000000
_cell_angle_beta 90.000000
_cell_angle_gamma 90.000000
_cell_volume 2631.501258
_symmetry_space_group_name_H-M "C 2 2 21"
_symmetry_group_IT_number 20
_symmetry_cell_setting 'orthorhombic'
loop_
_space_group_symop_operation_xyz
x,y,z
-x,-y,1/2+z
x,-y,-z
-x,y,1/2-z
1/2+x,1/2+y,z
1/2-x,1/2-y,1/2+z
1/2+x,1/2-y,-z
1/2-x,1/2+y,1/2-z
loop_
_atom_site_type_symbol
_atom_site_label
_atom_site_fract_x
_atom_site_fract_y
_atom_site_fract_z
Si Si1 0.520775 0.741298 0.147291
Si Si2 0.815795 0.905709 0.644616
Si Si3 0.441145 0.637216 0.979758
Si Si4 0.923780 0.132538 0.678450
Si Si5 0.875085 0.445774 0.404670
Si Si6 0.265023 0.736391 0.976674
Si Si7 0.208239 0.670367 0.180454
O O1 0.500000 0.707394 0.250000
O O2 0.598573 0.660729 0.118562
O O3 0.551221 0.873481 0.143484
O O4 0.450553 0.708467 0.074255
O O5 0.753513 0.865583 0.561983
O O6 0.774231 0.851401 0.737071
O O7 0.851735 0.034069 0.663362
O O8 0.523142 0.654289 0.915453
O O9 0.354513 0.688455 0.940274
O O10 0.432250 0.500000 0.000000
O O11 0.869696 0.245208 0.706283
O O12 0.000000 0.101054 0.750000
O O13 0.907954 0.500000 0.500000
O O14 0.803041 0.353465 0.433503
O O15 0.832319 0.546291 0.345624
O O16 0.251333 0.721472 0.086866
#
# Coordination Sequence:
#
# PCOD9320494 Si02
#       7
#     8   8   8   8   8   8   8
#     4  11  23  40  66  99 136 180 226 285 350 412
#     4  11  24  43  65  98 134 171 229 281 344 422
#     4  12  23  40  69 103 140 175 233 298 351 412
#     4  12  27  42  72 106 139 178 235 302 353 407
#     4   9  20  41  66  91 131 186 229 271 345 421
#     4  10  23  41  69  98 134 180 228 280 348 418
#     4  11  24  42  70  96 137 183 230 279 355 425
#
# _framework density 21.280629000000001
#
# number of rings (size 3 to 8) (size 9 to 14) (size 15 to 20)
#    0.000    1.143    1.429    6.000    8.000    0.571 
#    0.000    1.429    3.143    0.000    0.000    0.000 
#    0.000    0.000    0.000    0.000    0.000    0.000 
#
# Total GULP energy -156329.873895 kJ/mol
# GULP energy per Si atom -5583.209782 kJ/mol
# Density = 2.123219 g / cm^3
# Si number density = 21.280629 Si / 1000 Ang^3
#
#
#
# Elastic Constant Matrix: (Units=GPa)
#
#
# Indices 1 2 3 4 5 6 
#
# 1 82.7508 25.0421 24.4863 0.0000 0.0000 0.0000
# 2 25.0421 58.4497 20.5247 0.0000 0.0000 0.0000
# 3 24.4863 20.5247 92.5624 0.0000 0.0000 0.0000
# 4 0.0000 0.0000 0.0000 20.3326 0.0000 0.0000
# 5 0.0000 0.0000 0.0000 0.0000 35.8206 0.0000
# 6 0.0000 0.0000 0.0000 0.0000 0.0000 18.7333
#
#
#
# Elastic Compliance Matrix: (Units=1/GPa)
#
#
# Indices 1 2 3 4 5 6 
#
# 1 0.014464 -0.005263 -0.002659 0.000000 0.000000 0.000000
# 2 -0.005263 0.020469 -0.003146 0.000000 0.000000 0.000000
# 3 -0.002659 -0.003146 0.012205 0.000000 0.000000 0.000000
# 4 0.000000 0.000000 0.000000 0.049182 0.000000 0.000000
# 5 0.000000 0.000000 0.000000 0.000000 0.027917 0.000000
# 6 0.000000 0.000000 0.000000 0.000000 0.000000 0.053381
#
#
# Mechanical properties :
#
#
# Convention : Reuss Voigt Hill
#
# Bulk Modulus (GPa) = 40.00047 41.54102 40.77074
# Shear Modulus (GPa) = 24.02829 25.89129 24.95979
#
# Velocity S-wave (km/s) = 3.36388 3.49185 3.42846
# Velocity P-wave (km/s) = 5.82452 5.98501 5.90531
#
# Compressibility (1/GPa) = 0.02499971
#
# Stress axis : x y z
#
# Youngs Moduli (GPa) = 69.13669 48.85555 81.93583
#
# Poissons Ratio (x) = 0.25713 0.21789
# Poissons Ratio (y) = 0.36388 0.25780
# Poissons Ratio (z) = 0.18385 0.15372
#
# Static dielectric constant tensor:
#      x y z
#    x 1.653160 0.000000 0.000000 
#    y 0.000000 1.737880 0.000000 
#    z 0.000000 0.000000 1.808030 
# 
# From -- ./inp_files/20744.got.cif
#   From: 2010.05.17/outbox.cif.g08.bks.cpg/sg20_11_cif.got.tgz:20744.got - 2010.06.03 22:52:26.
