data_PCOD9320871
_publ_section_title
;
Structure prediction by ZEFSAII (Michael W. Deem and Ramdas Pophale) SiO2 
 PCOD9320871
Probable space group: C 2 2 21
;
_chemical_formula_sum "Si O2"
_cell_formula_units_Z 40
_cell_length_a 18.961953
_cell_length_b 11.493840
_cell_length_c 8.630158
_cell_angle_alpha 90.000000
_cell_angle_beta 90.000000
_cell_angle_gamma 90.000000
_cell_volume 1880.905428
_symmetry_space_group_name_H-M "C 2 2 21"
_symmetry_group_IT_number 20
_symmetry_cell_setting 'orthorhombic'
loop_
_space_group_symop_operation_xyz
x,y,z
-x,-y,1/2+z
x,-y,-z
-x,y,1/2-z
1/2+x,1/2+y,z
1/2-x,1/2-y,1/2+z
1/2+x,1/2-y,-z
1/2-x,1/2+y,1/2-z
loop_
_atom_site_type_symbol
_atom_site_label
_atom_site_fract_x
_atom_site_fract_y
_atom_site_fract_z
Si Si1 0.605386 0.500000 0.500000
Si Si2 0.500000 0.162122 0.250000
Si Si3 0.007049 0.804009 0.926353
Si Si4 0.717906 0.501542 0.240047
Si Si5 0.332859 0.673749 0.480685
Si Si6 0.862400 0.577668 0.369025
O O1 0.554209 0.601106 0.441290
O O2 0.658688 0.467388 0.363679
O O3 0.498435 0.229049 0.415505
O O4 0.424031 0.100454 0.247367
O O5 0.000000 0.752819 0.750000
O O6 0.085427 0.857206 0.945733
O O7 0.704635 0.408040 0.106314
O O8 0.796242 0.505658 0.305970
O O9 0.705091 0.633571 0.177103
O O10 0.334902 0.803710 0.548860
O O11 0.898343 0.500000 0.500000
#
# Coordination Sequence:
#
# PCOD9320871 Si02
#       6
#     4   4   8   8   8   8
#     4  12  20  34  68 104 136 176 230 278 372 410
#     4  10  26  50  64  98 142 190 248 288 342 426
#     4  11  22  40  73 105 146 189 227 296 352 426
#     4  11  23  41  68 103 137 183 220 301 362 415
#     4  10  24  44  65 103 141 173 241 281 355 431
#     4  11  25  47  71  98 138 188 237 298 347 426
#
# _framework density 21.266355999999998
#
# number of rings (size 3 to 8) (size 9 to 14) (size 15 to 20)
#    0.000    1.200    3.000    3.600    4.200    1.600 
#   10.800    0.000    0.000    0.000    0.000    0.000 
#    0.000    0.000    0.000    0.000    0.000    0.000 
#
# Total GULP energy -111463.603170 kJ/mol
# GULP energy per Si atom -5573.180158 kJ/mol
# Density = 2.121795 g / cm^3
# Si number density = 21.266356 Si / 1000 Ang^3
#
#
#
# Elastic Constant Matrix: (Units=GPa)
#
#
# Indices 1 2 3 4 5 6 
#
# 1 103.3500 5.2463 28.4353 0.0000 0.0000 0.0000
# 2 5.2463 52.7129 19.1829 0.0000 0.0000 0.0000
# 3 28.4353 19.1829 112.1383 0.0000 0.0000 0.0000
# 4 0.0000 0.0000 0.0000 23.1816 0.0000 0.0000
# 5 0.0000 0.0000 0.0000 0.0000 40.5020 0.0000
# 6 0.0000 0.0000 0.0000 0.0000 0.0000 19.1083
#
#
#
# Elastic Compliance Matrix: (Units=1/GPa)
#
#
# Indices 1 2 3 4 5 6 
#
# 1 0.010402 -0.000080 -0.002624 0.000000 0.000000 0.000000
# 2 -0.000080 0.020231 -0.003440 0.000000 0.000000 0.000000
# 3 -0.002624 -0.003440 0.010171 0.000000 0.000000 0.000000
# 4 0.000000 0.000000 0.000000 0.043138 0.000000 0.000000
# 5 0.000000 0.000000 0.000000 0.000000 0.024690 0.000000
# 6 0.000000 0.000000 0.000000 0.000000 0.000000 0.052333
#
#
# Mechanical properties :
#
#
# Convention : Reuss Voigt Hill
#
# Bulk Modulus (GPa) = 35.06964 41.54782 38.30873
# Shear Modulus (GPa) = 27.35840 30.91416 29.13628
#
# Velocity S-wave (km/s) = 3.59062 3.81683 3.70545
# Velocity P-wave (km/s) = 5.80660 6.24528 6.02993
#
# Compressibility (1/GPa) = 0.02851469
#
# Stress axis : x y z
#
# Youngs Moduli (GPa) = 96.13661 49.42982 98.31451
#
# Poissons Ratio (x) = 0.00397 0.25797
# Poissons Ratio (y) = 0.00773 0.33824
# Poissons Ratio (z) = 0.25225 0.17006
#
# Static dielectric constant tensor:
#      x y z
#    x 1.725940 0.000000 0.000000 
#    y 0.000000 1.804560 0.000000 
#    z 0.000000 0.000000 1.806360 
# 
# From -- ./inp_files/9144.got.cif
#   From: 2010.05.17/outbox.cif.g08.bks.cpg/sg20_5_cif.got.tgz:9144.got - 2010.06.03 22:52:26.
