data_PCOD9320908
_publ_section_title
;
Structure prediction by ZEFSAII (Michael W. Deem and Ramdas Pophale) SiO2 
 PCOD9320908
Probable space group: C 2 2 21
;
_chemical_formula_sum "Si O2"
_cell_formula_units_Z 56
_cell_length_a 13.402930
_cell_length_b 5.214497
_cell_length_c 32.230038
_cell_angle_alpha 90.000000
_cell_angle_beta 90.000000
_cell_angle_gamma 90.000000
_cell_volume 2252.542474
_symmetry_space_group_name_H-M "C 2 2 21"
_symmetry_group_IT_number 20
_symmetry_cell_setting 'orthorhombic'
loop_
_space_group_symop_operation_xyz
x,y,z
-x,-y,1/2+z
x,-y,-z
-x,y,1/2-z
1/2+x,1/2+y,z
1/2-x,1/2-y,1/2+z
1/2+x,1/2-y,-z
1/2-x,1/2+y,1/2-z
loop_
_atom_site_type_symbol
_atom_site_label
_atom_site_fract_x
_atom_site_fract_y
_atom_site_fract_z
Si Si1 0.364899 0.032404 0.087180
Si Si2 0.022324 0.443707 0.205029
Si Si3 0.272020 0.873535 0.724692
Si Si4 0.640645 0.294949 0.336674
Si Si5 0.022036 0.163056 0.124596
Si Si6 0.524152 0.360618 0.044129
Si Si7 0.731383 0.237089 0.026580
O O1 0.459449 0.904990 0.109156
O O2 0.302607 0.814694 0.064202
O O3 0.302783 0.156972 0.125072
O O4 0.419781 0.226782 0.055866
O O5 0.112516 0.640263 0.212218
O O6 0.064955 0.259357 0.168696
O O7 0.000000 0.315927 0.250000
O O8 0.922617 0.594068 0.191011
O O9 0.260300 0.095296 0.759705
O O10 0.205345 0.000230 0.688504
O O11 0.555951 0.451669 0.360362
O O12 0.062762 0.044543 0.081786
O O13 0.618297 0.170705 0.039925
O O14 0.512034 0.500000 0.000000
O O15 0.726041 0.500000 0.000000
O O16 0.768230 0.000000 0.000000
#
# Coordination Sequence:
#
# PCOD9320908 Si02
#       7
#     8   8   8   8   8   8   8
#     4  10  25  46  72 104 146 194 245 311 375 440
#     4  11  23  45  73 105 149 195 242 312 369 443
#     4  12  27  46  77 113 146 200 252 307 377 449
#     4  10  24  47  67 109 144 193 253 305 370 455
#     4  10  24  44  72 105 142 196 247 305 379 436
#     4  10  25  47  74 106 150 195 247 308 376 452
#     4  11  28  46  72 112 143 191 252 302 366 450
#
# _framework density 24.860795
#
# number of rings (size 3 to 8) (size 9 to 14) (size 15 to 20)
#    0.000    1.429    1.429    0.857   16.000    0.571 
#    7.714    0.000    0.000    0.000    0.000    0.000 
#    0.000    0.000    0.000    0.000    0.000    0.000 
#
# Total GULP energy -156414.108439 kJ/mol
# GULP energy per Si atom -5586.218159 kJ/mol
# Density = 2.480421 g / cm^3
# Si number density = 24.860795 Si / 1000 Ang^3
#
#
#
# Elastic Constant Matrix: (Units=GPa)
#
#
# Indices 1 2 3 4 5 6 
#
# 1 68.4342 11.1316 35.8469 0.0000 0.0000 0.0000
# 2 11.1316 67.1690 27.1429 0.0000 0.0000 0.0000
# 3 35.8469 27.1429 147.1114 0.0000 0.0000 0.0000
# 4 0.0000 0.0000 0.0000 45.5317 0.0000 0.0000
# 5 0.0000 0.0000 0.0000 0.0000 17.1779 0.0000
# 6 0.0000 0.0000 0.0000 0.0000 0.0000 -7.0541
#
#
#
# Elastic Compliance Matrix: (Units=1/GPa)
#
#
# Indices 1 2 3 4 5 6 
#
# 1 0.016843 -0.001224 -0.003878 0.000000 0.000000 0.000000
# 2 -0.001224 0.016176 -0.002686 0.000000 0.000000 0.000000
# 3 -0.003878 -0.002686 0.008238 0.000000 0.000000 0.000000
# 4 0.000000 0.000000 0.000000 0.021963 0.000000 0.000000
# 5 0.000000 0.000000 0.000000 0.000000 0.058214 0.000000
# 6 0.000000 0.000000 0.000000 0.000000 0.000000 -0.141761
#
#
# Mechanical properties :
#
#
# Convention : Reuss Voigt Hill
#
# Bulk Modulus (GPa) = 38.94063 47.88417 43.41240
# Shear Modulus (GPa) = 1311.94692 25.03731 668.49212
#
# Velocity S-wave (km/s) = 22.99702 3.17693 16.41578
# Velocity P-wave (km/s) = 26.84861 5.72363 19.41144
#
# Compressibility (1/GPa) = 0.02568012
#
# Stress axis : x y z
#
# Youngs Moduli (GPa) = 59.37103 61.81908 121.38483
#
# Poissons Ratio (x) = 0.07567 0.47077
# Poissons Ratio (y) = 0.07268 0.32608
# Poissons Ratio (z) = 0.23026 0.16607
#
# Static dielectric constant tensor:
#      x y z
#    x 1.963540 0.000000 0.000000 
#    y 0.000000 2.024300 0.000000 
#    z 0.000000 0.000000 2.167660 
# 
# From -- ./inp_files/31296.got.cif
#   From: 2010.05.17/outbox.cif.g08.bks.cpg/sg20_16_cif.got.tgz:31296.got - 2010.06.03 22:52:26.
