data_PCOD9320619
_publ_section_title
;
Structure prediction by ZEFSAII (Michael W. Deem and Ramdas Pophale) SiO2 
 PCOD9320619
Probable space group: C 2 2 21
;
_chemical_formula_sum "Si O2"
_cell_formula_units_Z 28
_cell_length_a 7.184154
_cell_length_b 23.707694
_cell_length_c 7.265119
_cell_angle_alpha 90.000000
_cell_angle_beta 90.000000
_cell_angle_gamma 90.000000
_cell_volume 1237.393068
_symmetry_space_group_name_H-M "C 2 2 21"
_symmetry_group_IT_number 20
_symmetry_cell_setting 'orthorhombic'
loop_
_space_group_symop_operation_xyz
x,y,z
-x,-y,1/2+z
x,-y,-z
-x,y,1/2-z
1/2+x,1/2+y,z
1/2-x,1/2-y,1/2+z
1/2+x,1/2-y,-z
1/2-x,1/2+y,1/2-z
loop_
_atom_site_type_symbol
_atom_site_label
_atom_site_fract_x
_atom_site_fract_y
_atom_site_fract_z
Si Si1 0.000000 0.392854 0.250000
Si Si2 0.500000 0.252690 0.250000
Si Si3 0.759591 0.827967 0.976203
Si Si4 0.298592 0.998335 0.721238
Si Si5 0.500000 0.416614 0.750000
O O1 0.165170 0.438043 0.291846
O O2 0.910674 0.354624 0.407029
O O3 0.338172 0.213333 0.331696
O O4 0.599617 0.292091 0.399360
O O5 0.881941 0.876912 0.883741
O O6 0.500000 0.970010 0.750000
O O7 0.150494 0.960889 0.824944
O O8 0.261383 0.000000 0.500000
#
# Coordination Sequence:
#
# PCOD9320619 Si02
#       5
#     4   4   8   8   4
#     4  10  24  48  70 106 150 190 226 298 362 424
#     4  12  28  50  70 106 138 184 260 304 342 424
#     4  12  26  48  74 103 142 194 238 305 360 410
#     4  10  23  44  64 110 150 182 231 284 340 460
#     4  12  24  44  76 110 144 196 228 288 372 428
#
# _framework density 22.628216999999999
#
# number of rings (size 3 to 8) (size 9 to 14) (size 15 to 20)
#    0.857    0.000    2.857    3.429    2.000    4.571 
#    5.143    0.000    0.000    0.000    0.000    0.000 
#    0.000    0.000    0.000    0.000    0.000    0.000 
#
# Total GULP energy -78192.601351 kJ/mol
# GULP energy per Si atom -5585.185811 kJ/mol
# Density = 2.257671 g / cm^3
# Si number density = 22.628217 Si / 1000 Ang^3
#
#
#
# Elastic Constant Matrix: (Units=GPa)
#
#
# Indices 1 2 3 4 5 6 
#
# 1 70.6525 32.1795 26.1476 0.0000 0.0000 0.0000
# 2 32.1795 115.9847 30.9903 0.0000 0.0000 0.0000
# 3 26.1476 30.9903 76.6838 0.0000 0.0000 0.0000
# 4 0.0000 0.0000 0.0000 -0.4670 0.0000 0.0000
# 5 0.0000 0.0000 0.0000 0.0000 55.8607 0.0000
# 6 0.0000 0.0000 0.0000 0.0000 0.0000 13.7924
#
#
#
# Elastic Compliance Matrix: (Units=1/GPa)
#
#
# Indices 1 2 3 4 5 6 
#
# 1 0.017476 -0.003651 -0.004484 0.000000 0.000000 0.000000
# 2 -0.003651 0.010428 -0.002970 0.000000 0.000000 0.000000
# 3 -0.004484 -0.002970 0.015769 0.000000 0.000000 0.000000
# 4 0.000000 0.000000 0.000000 -2.141239 0.000000 0.000000
# 5 0.000000 0.000000 0.000000 0.000000 0.017902 0.000000
# 6 0.000000 0.000000 0.000000 0.000000 0.000000 0.072504
#
#
# Mechanical properties :
#
#
# Convention : Reuss Voigt Hill
#
# Bulk Modulus (GPa) = 46.58545 49.10620 47.84583
# Shear Modulus (GPa) = -2.52806 25.43747 11.45470
#
# Velocity S-wave (km/s) = -1.05813 3.35647 2.25236
# Velocity P-wave (km/s) = 4.37483 6.06379 5.28719
#
# Compressibility (1/GPa) = 0.02146593
#
# Stress axis : x y z
#
# Youngs Moduli (GPa) = 57.22199 95.89459 63.41378
#
# Poissons Ratio (x) = 0.35007 0.28432
# Poissons Ratio (y) = 0.20890 0.18831
# Poissons Ratio (z) = 0.25656 0.28476
#
# Static dielectric constant tensor:
#      x y z
#    x 1.869320 0.000000 0.000000 
#    y 0.000000 1.827240 0.000000 
#    z 0.000000 0.000000 1.907860 
# 
# From -- ./inp_files/5073.got.cif
#   From: 2010.05.17/outbox.cif.g08.bks.cpg/sg20_3_cif.got.tgz:5073.got - 2010.06.03 22:52:26.
