data_PCOD9320075
_publ_section_title
;
Structure prediction by ZEFSAII (Michael W. Deem and Ramdas Pophale) SiO2 
 PCOD9320075
Probable space group: C 2 2 21
;
_chemical_formula_sum "Si O2"
_cell_formula_units_Z 64
_cell_length_a 14.583003
_cell_length_b 17.140997
_cell_length_c 13.093715
_cell_angle_alpha 90.000000
_cell_angle_beta 90.000000
_cell_angle_gamma 90.000000
_cell_volume 3272.999416
_symmetry_space_group_name_H-M "C 2 2 21"
_symmetry_group_IT_number 20
_symmetry_cell_setting 'orthorhombic'
loop_
_space_group_symop_operation_xyz
x,y,z
-x,-y,1/2+z
x,-y,-z
-x,y,1/2-z
1/2+x,1/2+y,z
1/2-x,1/2-y,1/2+z
1/2+x,1/2-y,-z
1/2-x,1/2+y,1/2-z
loop_
_atom_site_type_symbol
_atom_site_label
_atom_site_fract_x
_atom_site_fract_y
_atom_site_fract_z
Si Si1 0.649506 0.447247 0.090281
Si Si2 0.290216 0.972931 0.779326
Si Si3 0.499579 0.087201 0.995061
Si Si4 0.186026 0.367137 0.533279
Si Si5 0.830207 0.353013 0.608084
Si Si6 0.902820 0.379918 0.293004
Si Si7 0.603117 0.301549 0.221311
Si Si8 0.744915 0.300922 0.395520
O O1 0.690699 0.502055 0.178993
O O2 0.598793 0.375036 0.143548
O O3 0.605173 0.500000 0.000000
O O4 0.739876 0.410191 0.036333
O O5 0.333493 0.919258 0.867207
O O6 0.287269 0.919766 0.679086
O O7 0.350838 0.050696 0.765229
O O8 0.412243 0.142730 0.980011
O O9 0.565966 0.118140 0.083301
O O10 0.567090 0.083099 0.899834
O O11 0.461935 0.000000 0.000000
O O12 0.227437 0.287126 0.571954
O O13 0.842951 0.270254 0.666744
O O14 0.772502 0.342659 0.502703
O O15 0.831303 0.312765 0.320226
O O16 0.000000 0.353005 0.250000
O O17 0.500000 0.277333 0.250000
O O18 0.658789 0.325230 0.324436
#
# Coordination Sequence:
#
# PCOD9320075 Si02
#       8
#     8   8   8   8   8   8   8   8
#     4  10  22  42  67  90 121 170 227 268 314 385
#     4  11  21  37  64  92 128 172 209 264 331 405
#     4  11  21  34  56  95 131 159 201 264 329 395
#     4  11  21  38  61  89 125 173 214 253 320 393
#     4  11  24  38  61  96 136 165 209 272 337 407
#     4  11  22  36  60  94 130 163 205 262 334 397
#     4  12  24  44  68  96 129 179 226 276 330 393
#     4  11  24  41  62  93 134 173 213 268 322 394
#
# _framework density 19.553930000000001
#
# number of rings (size 3 to 8) (size 9 to 14) (size 15 to 20)
#    0.000    1.000    5.000    3.375    0.000    0.000 
#    0.000    1.250    0.000    3.000    0.000    0.000 
#    0.000    0.000    0.000    0.000    0.000    0.000 
#
# Total GULP energy -178440.276690 kJ/mol
# GULP energy per Si atom -5576.258647 kJ/mol
# Density = 1.950942 g / cm^3
# Si number density = 19.553930 Si / 1000 Ang^3
#
#
#
# Elastic Constant Matrix: (Units=GPa)
#
#
# Indices 1 2 3 4 5 6 
#
# 1 57.7172 24.1292 30.1338 0.0000 0.0000 0.0000
# 2 24.1292 86.9849 35.3436 0.0000 0.0000 0.0000
# 3 30.1338 35.3436 92.0348 0.0000 0.0000 0.0000
# 4 0.0000 0.0000 0.0000 38.9225 0.0000 0.0000
# 5 0.0000 0.0000 0.0000 0.0000 25.6585 0.0000
# 6 0.0000 0.0000 0.0000 0.0000 0.0000 24.7650
#
#
#
# Elastic Compliance Matrix: (Units=1/GPa)
#
#
# Indices 1 2 3 4 5 6 
#
# 1 0.021880 -0.003743 -0.005727 0.000000 0.000000 0.000000
# 2 -0.003743 0.014262 -0.004252 0.000000 0.000000 0.000000
# 3 -0.005727 -0.004252 0.014373 0.000000 0.000000 0.000000
# 4 0.000000 0.000000 0.000000 0.025692 0.000000 0.000000
# 5 0.000000 0.000000 0.000000 0.000000 0.038973 0.000000
# 6 0.000000 0.000000 0.000000 0.000000 0.000000 0.040380
#
#
# Mechanical properties :
#
#
# Convention : Reuss Voigt Hill
#
# Bulk Modulus (GPa) = 43.33942 46.21666 44.77804
# Shear Modulus (GPa) = 26.22006 27.67788 26.94897
#
# Velocity S-wave (km/s) = 3.66582 3.76635 3.71642
# Velocity P-wave (km/s) = 6.33481 6.52691 6.43158
#
# Compressibility (1/GPa) = 0.02307368
#
# Stress axis : x y z
#
# Youngs Moduli (GPa) = 45.70297 70.11679 69.57400
#
# Poissons Ratio (x) = 0.26242 0.39843
# Poissons Ratio (y) = 0.17105 0.29580
# Poissons Ratio (z) = 0.26173 0.29810
#
# Static dielectric constant tensor:
#      x y z
#    x 1.689490 0.000000 0.000000 
#    y 0.000000 1.692520 0.000000 
#    z 0.000000 0.000000 1.770140 
# 
# From -- ./inp_files/15347.got.cif
#   From: 2010.05.17/outbox.cif.g08.bks.cpg/sg20_8_cif.got.tgz:15347.got - 2010.06.03 22:52:26.
