data_PCOD9320305
_publ_section_title
;
Structure prediction by ZEFSAII (Michael W. Deem and Ramdas Pophale) SiO2 
 PCOD9320305
Probable space group: C 2 2 21
;
_chemical_formula_sum "Si O2"
_cell_formula_units_Z 28
_cell_length_a 11.145472
_cell_length_b 9.876360
_cell_length_c 9.432345
_cell_angle_alpha 90.000000
_cell_angle_beta 90.000000
_cell_angle_gamma 90.000000
_cell_volume 1038.281353
_symmetry_space_group_name_H-M "C 2 2 21"
_symmetry_group_IT_number 20
_symmetry_cell_setting 'orthorhombic'
loop_
_space_group_symop_operation_xyz
x,y,z
-x,-y,1/2+z
x,-y,-z
-x,y,1/2-z
1/2+x,1/2+y,z
1/2-x,1/2-y,1/2+z
1/2+x,1/2-y,-z
1/2-x,1/2+y,1/2-z
loop_
_atom_site_type_symbol
_atom_site_label
_atom_site_fract_x
_atom_site_fract_y
_atom_site_fract_z
Si Si1 0.156157 0.181260 0.032764
Si Si2 0.246799 0.876988 0.268924
Si Si3 0.442895 0.927605 0.625101
Si Si4 0.565280 0.500000 0.500000
O O1 0.211623 0.107370 0.895384
O O2 0.141546 0.329823 0.962550
O O3 0.025187 0.117060 0.055763
O O4 0.227086 0.223023 0.174772
O O5 0.146044 0.940900 0.372672
O O6 0.369383 0.960355 0.289262
O O7 0.500000 0.840427 0.750000
O O8 0.517082 0.000000 0.500000
#
# Coordination Sequence:
#
# PCOD9320305 Si02
#       4
#     8   8   8   4
#     4  11  26  43  75 103 145 195 238 311 360 445
#     4  11  25  47  70 110 149 186 253 302 367 446
#     4  10  22  45  67 102 142 183 240 298 360 435
#     4  12  24  46  72 106 148 194 242 300 376 438
#
# _framework density 26.967642999999999
#
# number of rings (size 3 to 8) (size 9 to 14) (size 15 to 20)
#    0.000    1.143    4.286    2.571    4.000    9.143 
#    0.000    0.000    0.000    0.000    0.000    0.000 
#    0.000    0.000    0.000    0.000    0.000    0.000 
#
# Total GULP energy -78246.561865 kJ/mol
# GULP energy per Si atom -5589.040133 kJ/mol
# Density = 2.690626 g / cm^3
# Si number density = 26.967643 Si / 1000 Ang^3
#
#
#
# Elastic Constant Matrix: (Units=GPa)
#
#
# Indices 1 2 3 4 5 6 
#
# 1 106.4939 22.8652 65.2737 0.0000 0.0000 0.0000
# 2 22.8652 48.5541 34.8551 0.0000 0.0000 0.0000
# 3 65.2737 34.8551 152.6949 0.0000 0.0000 0.0000
# 4 0.0000 0.0000 0.0000 51.8914 0.0000 0.0000
# 5 0.0000 0.0000 0.0000 0.0000 38.2457 0.0000
# 6 0.0000 0.0000 0.0000 0.0000 0.0000 51.3831
#
#
#
# Elastic Compliance Matrix: (Units=1/GPa)
#
#
# Indices 1 2 3 4 5 6 
#
# 1 0.012982 -0.002547 -0.004968 0.000000 0.000000 0.000000
# 2 -0.002547 0.025132 -0.004648 0.000000 0.000000 0.000000
# 3 -0.004968 -0.004648 0.009734 0.000000 0.000000 0.000000
# 4 0.000000 0.000000 0.000000 0.019271 0.000000 0.000000
# 5 0.000000 0.000000 0.000000 0.000000 0.026147 0.000000
# 6 0.000000 0.000000 0.000000 0.000000 0.000000 0.019462
#
#
# Mechanical properties :
#
#
# Convention : Reuss Voigt Hill
#
# Bulk Modulus (GPa) = 42.51480 61.52565 52.02023
# Shear Modulus (GPa) = 34.50800 40.62062 37.56431
#
# Velocity S-wave (km/s) = 3.58104 3.88528 3.73626
# Velocity P-wave (km/s) = 5.73566 6.55678 6.15992
#
# Compressibility (1/GPa) = 0.02352122
#
# Stress axis : x y z
#
# Youngs Moduli (GPa) = 77.02796 39.79050 102.73529
#
# Poissons Ratio (x) = 0.10135 0.51041
# Poissons Ratio (y) = 0.19620 0.47750
# Poissons Ratio (z) = 0.38269 0.18494
#
# Static dielectric constant tensor:
#      x y z
#    x 2.096130 0.000000 0.000000 
#    y 0.000000 2.280460 0.000000 
#    z 0.000000 0.000000 2.318330 
# 
# From -- ./inp_files/13465.got.cif
#   From: 2010.05.17/outbox.cif.g08.bks.cpg/sg20_7_cif.got.tgz:13465.got - 2010.06.03 22:52:26.
