data_PCOD9320453
_publ_section_title
;
Structure prediction by ZEFSAII (Michael W. Deem and Ramdas Pophale) SiO2 
 PCOD9320453
Probable space group: C 2 2 21
;
_chemical_formula_sum "Si O2"
_cell_formula_units_Z 56
_cell_length_a 13.523175
_cell_length_b 11.294316
_cell_length_c 15.790891
_cell_angle_alpha 90.000000
_cell_angle_beta 90.000000
_cell_angle_gamma 90.000000
_cell_volume 2411.821923
_symmetry_space_group_name_H-M "C 2 2 21"
_symmetry_group_IT_number 20
_symmetry_cell_setting 'orthorhombic'
loop_
_space_group_symop_operation_xyz
x,y,z
-x,-y,1/2+z
x,-y,-z
-x,y,1/2-z
1/2+x,1/2+y,z
1/2-x,1/2-y,1/2+z
1/2+x,1/2-y,-z
1/2-x,1/2+y,1/2-z
loop_
_atom_site_type_symbol
_atom_site_label
_atom_site_fract_x
_atom_site_fract_y
_atom_site_fract_z
Si Si1 0.479428 0.621464 0.494230
Si Si2 0.692374 0.518186 0.675307
Si Si3 0.652067 0.608220 0.161454
Si Si4 0.160918 0.230993 0.412999
Si Si5 0.467726 0.720516 0.846531
Si Si6 0.885063 0.639012 0.743028
Si Si7 0.660945 0.887880 0.560489
O O1 0.541502 0.500000 0.500000
O O2 0.396818 0.584767 0.428434
O O3 0.548650 0.713704 0.445914
O O4 0.453384 0.665560 0.587594
O O5 0.633376 0.477891 0.760319
O O6 0.695742 0.397957 0.619171
O O7 0.627675 0.631674 0.646041
O O8 0.803891 0.556435 0.698137
O O9 0.618097 0.737100 0.191756
O O10 0.766475 0.597961 0.139340
O O11 0.157554 0.321695 0.334941
O O12 0.208066 0.289282 0.496339
O O13 0.500000 0.732175 0.750000
O O14 0.436606 0.841231 0.892598
O O15 0.000000 0.599467 0.750000
O O16 0.645799 0.000000 0.500000
#
# Coordination Sequence:
#
# PCOD9320453 Si02
#       7
#     8   8   8   8   8   8   8
#     4  11  20  37  67 106 136 178 238 307 352 412
#     4  11  23  42  74 109 143 188 242 304 364 426
#     4  11  23  41  70 101 136 194 244 289 361 437
#     4  10  23  40  72 100 142 186 238 300 354 436
#     4  11  24  42  71 107 150 183 246 310 372 436
#     4  11  22  43  70 101 149 195 236 287 368 443
#     4  11  24  46  69  99 148 196 247 299 373 438
#
# _framework density 23.218961
#
# number of rings (size 3 to 8) (size 9 to 14) (size 15 to 20)
#    0.000    1.143    4.286    2.143    0.000    1.143 
#    0.000    2.857    6.286    0.000    0.000    0.000 
#    0.000    0.000    0.000    0.000    0.000    0.000 
#
# Total GULP energy -156234.438870 kJ/mol
# GULP energy per Si atom -5579.801388 kJ/mol
# Density = 2.316611 g / cm^3
# Si number density = 23.218961 Si / 1000 Ang^3
#
#
#
# Elastic Constant Matrix: (Units=GPa)
#
#
# Indices 1 2 3 4 5 6 
#
# 1 53.1882 18.6930 0.6997 0.0000 0.0000 0.0000
# 2 18.6930 57.4624 35.6172 0.0000 0.0000 0.0000
# 3 0.6997 35.6172 125.5360 0.0000 0.0000 0.0000
# 4 0.0000 0.0000 0.0000 44.0726 0.0000 0.0000
# 5 0.0000 0.0000 0.0000 0.0000 32.6709 0.0000
# 6 0.0000 0.0000 0.0000 0.0000 0.0000 18.5073
#
#
#
# Elastic Compliance Matrix: (Units=1/GPa)
#
#
# Indices 1 2 3 4 5 6 
#
# 1 0.021757 -0.008497 0.002289 0.000000 0.000000 0.000000
# 2 -0.008497 0.024435 -0.006885 0.000000 0.000000 0.000000
# 3 0.002289 -0.006885 0.009907 0.000000 0.000000 0.000000
# 4 0.000000 0.000000 0.000000 0.022690 0.000000 0.000000
# 5 0.000000 0.000000 0.000000 0.000000 0.030608 0.000000
# 6 0.000000 0.000000 0.000000 0.000000 0.000000 0.054033
#
#
# Mechanical properties :
#
#
# Convention : Reuss Voigt Hill
#
# Bulk Modulus (GPa) = 33.43025 38.46737 35.94881
# Shear Modulus (GPa) = 25.05192 31.12862 28.09027
#
# Velocity S-wave (km/s) = 3.28829 3.66547 3.48199
# Velocity P-wave (km/s) = 5.37087 5.87515 5.62866
#
# Compressibility (1/GPa) = 0.02991303
#
# Stress axis : x y z
#
# Youngs Moduli (GPa) = 45.96157 40.92571 100.94319
#
# Poissons Ratio (x) = 0.34774 -0.23111
# Poissons Ratio (y) = 0.39053 0.69502
# Poissons Ratio (z) = -0.10523 0.28178
#
# Static dielectric constant tensor:
#      x y z
#    x 1.907980 0.000000 0.000000 
#    y 0.000000 1.925320 0.000000 
#    z 0.000000 0.000000 1.896970 
# 
# From -- ./inp_files/20743.got.cif
#   From: 2010.05.17/outbox.cif.g08.bks.cpg/sg20_11_cif.got.tgz:20743.got - 2010.06.03 22:52:26.
