data_PCOD9320438
_publ_section_title
;
Structure prediction by ZEFSAII (Michael W. Deem and Ramdas Pophale) SiO2 
 PCOD9320438
Probable space group: C 2 2 21
;
_chemical_formula_sum "Si O2"
_cell_formula_units_Z 64
_cell_length_a 13.123506
_cell_length_b 9.519546
_cell_length_c 21.565649
_cell_angle_alpha 90.000000
_cell_angle_beta 90.000000
_cell_angle_gamma 90.000000
_cell_volume 2694.192627
_symmetry_space_group_name_H-M "C 2 2 21"
_symmetry_group_IT_number 20
_symmetry_cell_setting 'orthorhombic'
loop_
_space_group_symop_operation_xyz
x,y,z
-x,-y,1/2+z
x,-y,-z
-x,y,1/2-z
1/2+x,1/2+y,z
1/2-x,1/2-y,1/2+z
1/2+x,1/2-y,-z
1/2-x,1/2+y,1/2-z
loop_
_atom_site_type_symbol
_atom_site_label
_atom_site_fract_x
_atom_site_fract_y
_atom_site_fract_z
Si Si1 0.152671 0.417062 0.232880
Si Si2 0.481673 0.425071 0.153541
Si Si3 0.930588 0.141756 0.520498
Si Si4 0.655861 0.809183 0.621649
Si Si5 0.671429 0.413825 0.789244
Si Si6 0.245959 0.333337 0.002224
Si Si7 0.590076 0.684600 0.415107
Si Si8 0.515587 0.961060 0.354054
O O1 0.259950 0.491739 0.243874
O O2 0.151478 0.246640 0.232687
O O3 0.083844 0.461749 0.291493
O O4 0.099288 0.473198 0.170176
O O5 0.540697 0.369731 0.092047
O O6 0.405757 0.295837 0.168659
O O7 0.569816 0.497229 0.195051
O O8 0.412152 0.554303 0.131043
O O9 0.867387 0.276426 0.501344
O O10 0.029262 0.140398 0.476691
O O11 0.871030 0.000000 0.500000
O O12 0.754099 0.884411 0.651821
O O13 0.697886 0.723828 0.563297
O O14 0.568964 0.921952 0.604001
O O15 0.251324 0.500000 0.000000
O O16 0.300144 0.274367 0.940161
O O17 0.530831 0.810913 0.384186
#
# Coordination Sequence:
#
# PCOD9320438 Si02
#       8
#     8   8   8   8   8   8   8   8
#     4  10  24  47  66  98 131 170 232 297 343 414
#     4  11  22  45  67  96 138 183 218 279 351 406
#     4  10  23  40  63  93 137 178 219 270 337 409
#     4  11  24  44  67 101 135 183 226 278 349 420
#     4  11  25  46  72  99 135 176 234 292 354 413
#     4  12  24  41  63  98 138 176 225 270 330 421
#     4  11  21  43  66  96 139 175 220 276 331 420
#     4  10  24  43  69  94 134 173 227 288 347 403
#
# _framework density 23.754797
#
# number of rings (size 3 to 8) (size 9 to 14) (size 15 to 20)
#    0.000    1.250    3.750    1.875    7.000    2.000 
#    0.000    0.000    0.000    0.000    0.000    0.000 
#    0.000    0.000    0.000    0.000    0.000    0.000 
#
# Total GULP energy -178904.717089 kJ/mol
# GULP energy per Si atom -5590.772409 kJ/mol
# Density = 2.370073 g / cm^3
# Si number density = 23.754797 Si / 1000 Ang^3
#
#
#
# Elastic Constant Matrix: (Units=GPa)
#
#
# Indices 1 2 3 4 5 6 
#
# 1 62.1757 9.7259 29.3991 0.0000 0.0000 0.0000
# 2 9.7259 82.0891 25.3568 0.0000 0.0000 0.0000
# 3 29.3991 25.3568 43.2559 0.0000 0.0000 0.0000
# 4 0.0000 0.0000 0.0000 39.0870 0.0000 0.0000
# 5 0.0000 0.0000 0.0000 0.0000 31.0912 0.0000
# 6 0.0000 0.0000 0.0000 0.0000 0.0000 41.5551
#
#
#
# Elastic Compliance Matrix: (Units=1/GPa)
#
#
# Indices 1 2 3 4 5 6 
#
# 1 0.024180 0.002701 -0.018017 0.000000 0.000000 0.000000
# 2 0.002701 0.015177 -0.010732 0.000000 0.000000 0.000000
# 3 -0.018017 -0.010732 0.041655 0.000000 0.000000 0.000000
# 4 0.000000 0.000000 0.000000 0.025584 0.000000 0.000000
# 5 0.000000 0.000000 0.000000 0.000000 0.032163 0.000000
# 6 0.000000 0.000000 0.000000 0.000000 0.000000 0.024064
#
#
# Mechanical properties :
#
#
# Convention : Reuss Voigt Hill
#
# Bulk Modulus (GPa) = 34.58496 35.16494 34.87495
# Shear Modulus (GPa) = 22.26570 30.54926 26.40748
#
# Velocity S-wave (km/s) = 3.06488 3.59001 3.33779
# Velocity P-wave (km/s) = 5.20725 5.65859 5.43760
#
# Compressibility (1/GPa) = 0.02891430
#
# Stress axis : x y z
#
# Youngs Moduli (GPa) = 41.35592 65.88892 24.00665
#
# Poissons Ratio (x) = -0.17794 0.43254
# Poissons Ratio (y) = -0.11168 0.25765
# Poissons Ratio (z) = 0.74513 0.70714
#
# Static dielectric constant tensor:
#      x y z
#    x 1.904370 0.000000 0.000000 
#    y 0.000000 1.887970 0.000000 
#    z 0.000000 0.000000 1.916630 
# 
# From -- ./inp_files/29342.got.cif
#   From: 2010.05.17/outbox.cif.g08.bks.cpg/sg20_15_cif.got.tgz:29342.got - 2010.06.03 22:52:26.
