data_PCOD9320257
_publ_section_title
;
Structure prediction by ZEFSAII (Michael W. Deem and Ramdas Pophale) SiO2 
 PCOD9320257
Probable space group: C 2 2 21
;
_chemical_formula_sum "Si O2"
_cell_formula_units_Z 36
_cell_length_a 11.458178
_cell_length_b 9.676536
_cell_length_c 14.458992
_cell_angle_alpha 90.000000
_cell_angle_beta 90.000000
_cell_angle_gamma 90.000000
_cell_volume 1603.147561
_symmetry_space_group_name_H-M "C 2 2 21"
_symmetry_group_IT_number 20
_symmetry_cell_setting 'orthorhombic'
loop_
_space_group_symop_operation_xyz
x,y,z
-x,-y,1/2+z
x,-y,-z
-x,y,1/2-z
1/2+x,1/2+y,z
1/2-x,1/2-y,1/2+z
1/2+x,1/2-y,-z
1/2-x,1/2+y,1/2-z
loop_
_atom_site_type_symbol
_atom_site_label
_atom_site_fract_x
_atom_site_fract_y
_atom_site_fract_z
Si Si1 0.000000 0.676478 0.250000
Si Si2 0.748023 0.891210 0.139827
Si Si3 0.661200 0.500000 0.000000
Si Si4 0.247112 0.580495 0.305620
Si Si5 0.055778 0.500000 0.000000
Si Si6 0.520227 0.713675 0.558066
O O1 0.109550 0.588383 0.282836
O O2 0.704237 0.493641 0.280654
O O3 0.852995 0.853786 0.068994
O O4 0.715889 0.742123 0.185171
O O5 0.642178 0.962076 0.084971
O O6 0.729807 0.490631 0.903999
O O7 0.573369 0.629193 0.999101
O O8 0.470602 0.270562 0.337839
O O9 0.977671 0.367137 0.981289
#
# Coordination Sequence:
#
# PCOD9320257 Si02
#       6
#     4   8   4   8   4   8
#     4  10  22  44  68  98 144 196 236 304 376 440
#     4  11  25  46  75 106 148 195 246 316 366 456
#     4  12  23  43  70 108 144 190 256 306 376 448
#     4  11  24  44  70 106 146 196 244 311 376 441
#     4  12  23  49  74 110 144 196 250 296 388 438
#     4  11  24  45  73 103 147 193 243 309 367 447
#
# _framework density 22.455825999999998
#
# number of rings (size 3 to 8) (size 9 to 14) (size 15 to 20)
#    0.000    0.889    4.444    3.333    0.000    3.556 
#    0.000    6.667    0.000    0.000    0.000    0.000 
#    0.000    0.000    0.000    0.000    0.000    0.000 
#
# Total GULP energy -100621.808974 kJ/mol
# GULP energy per Si atom -5590.100499 kJ/mol
# Density = 2.240472 g / cm^3
# Si number density = 22.455826 Si / 1000 Ang^3
#
#
#
# Elastic Constant Matrix: (Units=GPa)
#
#
# Indices 1 2 3 4 5 6 
#
# 1 77.6737 16.0995 9.5063 0.0000 0.0000 0.0000
# 2 16.0995 105.4436 19.3211 0.0000 0.0000 0.0000
# 3 9.5063 19.3211 79.4380 0.0000 0.0000 0.0000
# 4 0.0000 0.0000 0.0000 49.8991 0.0000 0.0000
# 5 0.0000 0.0000 0.0000 0.0000 38.3243 0.0000
# 6 0.0000 0.0000 0.0000 0.0000 0.0000 26.4553
#
#
#
# Elastic Compliance Matrix: (Units=1/GPa)
#
#
# Indices 1 2 3 4 5 6 
#
# 1 0.013396 -0.001833 -0.001157 0.000000 0.000000 0.000000
# 2 -0.001833 0.010177 -0.002256 0.000000 0.000000 0.000000
# 3 -0.001157 -0.002256 0.013276 0.000000 0.000000 0.000000
# 4 0.000000 0.000000 0.000000 0.020040 0.000000 0.000000
# 5 0.000000 0.000000 0.000000 0.000000 0.026093 0.000000
# 6 0.000000 0.000000 0.000000 0.000000 0.000000 0.037800
#
#
# Mechanical properties :
#
#
# Convention : Reuss Voigt Hill
#
# Bulk Modulus (GPa) = 37.94226 39.15656 38.54941
# Shear Modulus (GPa) = 35.69902 37.44430 36.57166
#
# Velocity S-wave (km/s) = 3.99149 4.08789 4.03998
# Velocity P-wave (km/s) = 6.17865 6.30525 6.24227
#
# Compressibility (1/GPa) = 0.02635584
#
# Stress axis : x y z
#
# Youngs Moduli (GPa) = 74.64917 98.26057 75.32614
#
# Poissons Ratio (x) = 0.18014 0.08717
# Poissons Ratio (y) = 0.13685 0.16993
# Poissons Ratio (z) = 0.08638 0.22167
#
# Static dielectric constant tensor:
#      x y z
#    x 1.821080 0.000000 0.000000 
#    y 0.000000 1.938430 0.000000 
#    z 0.000000 0.000000 1.854490 
# 
# From -- ./inp_files/28640.got.cif
#   From: 2010.05.17/outbox.cif.g08.bks.cpg/sg20_15_cif.got.tgz:28640.got - 2010.06.03 22:52:26.
