data_PCOD9320149
_publ_section_title
;
Structure prediction by ZEFSAII (Michael W. Deem and Ramdas Pophale) SiO2 
 PCOD9320149
Probable space group: C 2 2 21
;
_chemical_formula_sum "Si O2"
_cell_formula_units_Z 44
_cell_length_a 10.011565
_cell_length_b 10.481636
_cell_length_c 20.814387
_cell_angle_alpha 90.000000
_cell_angle_beta 90.000000
_cell_angle_gamma 90.000000
_cell_volume 2184.211403
_symmetry_space_group_name_H-M "C 2 2 21"
_symmetry_group_IT_number 20
_symmetry_cell_setting 'orthorhombic'
loop_
_space_group_symop_operation_xyz
x,y,z
-x,-y,1/2+z
x,-y,-z
-x,y,1/2-z
1/2+x,1/2+y,z
1/2-x,1/2-y,1/2+z
1/2+x,1/2-y,-z
1/2-x,1/2+y,1/2-z
loop_
_atom_site_type_symbol
_atom_site_label
_atom_site_fract_x
_atom_site_fract_y
_atom_site_fract_z
Si Si1 0.263173 0.849795 0.512694
Si Si2 0.407112 0.981816 0.077318
Si Si3 0.621103 0.483049 0.138022
Si Si4 0.980853 0.755471 0.073644
Si Si5 0.000000 0.114242 0.250000
Si Si6 0.048456 0.212688 0.383808
O O1 0.396933 0.767796 0.523694
O O2 0.179977 0.832167 0.578750
O O3 0.156988 0.796996 0.460649
O O4 0.291239 0.000000 0.500000
O O5 0.265974 0.957198 0.110952
O O6 0.488438 0.855472 0.095540
O O7 0.462434 0.115186 0.102898
O O8 0.393161 0.000000 0.000000
O O9 0.526660 0.364410 0.122009
O O10 0.605649 0.525782 0.211934
O O11 0.563311 0.606857 0.100933
O O12 0.063284 0.198055 0.306918
#
# Coordination Sequence:
#
# PCOD9320149 Si02
#       6
#     8   8   8   8   4   8
#     4  12  24  38  66  99 137 172 216 273 338 402
#     4  12  24  39  67 106 135 164 218 282 347 400
#     4  10  23  45  65  91 130 180 221 271 330 396
#     4  12  25  39  66 103 135 169 218 275 340 400
#     4   8  22  46  68  86 126 186 232 260 326 404
#     4  10  22  43  65  91 133 176 218 272 328 396
#
# _framework density 20.144569000000001
#
# number of rings (size 3 to 8) (size 9 to 14) (size 15 to 20)
#    1.091    0.000    5.455    0.545    5.091    0.000 
#    3.273    2.727    0.000    0.000    0.000    0.000 
#    0.000    0.000    0.000    0.000    0.000    0.000 
#
# Total GULP energy -122679.381093 kJ/mol
# GULP energy per Si atom -5576.335504 kJ/mol
# Density = 2.009872 g / cm^3
# Si number density = 20.144569 Si / 1000 Ang^3
#
#
#
# Elastic Constant Matrix: (Units=GPa)
#
#
# Indices 1 2 3 4 5 6 
#
# 1 20.2617 -15.1587 -19.9551 0.0000 0.0000 0.0000
# 2 -15.1587 136.6747 27.8376 0.0000 0.0000 0.0000
# 3 -19.9551 27.8376 88.4513 0.0000 0.0000 0.0000
# 4 0.0000 0.0000 0.0000 24.9689 0.0000 0.0000
# 5 0.0000 0.0000 0.0000 0.0000 8.1939 0.0000
# 6 0.0000 0.0000 0.0000 0.0000 0.0000 22.0782
#
#
#
# Elastic Compliance Matrix: (Units=1/GPa)
#
#
# Indices 1 2 3 4 5 6 
#
# 1 0.066035 0.004583 0.013455 0.000000 0.000000 0.000000
# 2 0.004583 0.008136 -0.001527 0.000000 0.000000 0.000000
# 3 0.013455 -0.001527 0.014822 0.000000 0.000000 0.000000
# 4 0.000000 0.000000 0.000000 0.040050 0.000000 0.000000
# 5 0.000000 0.000000 0.000000 0.000000 0.122042 0.000000
# 6 0.000000 0.000000 0.000000 0.000000 0.000000 0.045293
#
#
# Mechanical properties :
#
#
# Convention : Reuss Voigt Hill
#
# Bulk Modulus (GPa) = 8.19558 25.64836 16.92197
# Shear Modulus (GPa) = 16.44599 27.89247 22.16923
#
# Velocity S-wave (km/s) = 2.86037 3.72508 3.32099
# Velocity P-wave (km/s) = 3.87120 5.59119 4.80872
#
# Compressibility (1/GPa) = 0.12201697
#
# Stress axis : x y z
#
# Youngs Moduli (GPa) = 15.14352 122.91185 67.46875
#
# Poissons Ratio (x) = -0.56336 -0.90781
# Poissons Ratio (y) = -0.06941 0.10299
# Poissons Ratio (z) = -0.20376 0.18763
#
# Static dielectric constant tensor:
#      x y z
#    x 1.748560 0.000000 0.000000 
#    y 0.000000 1.743860 0.000000 
#    z 0.000000 0.000000 1.718540 
# 
# From -- ./inp_files/28674.got.cif
#   From: 2010.05.17/outbox.cif.g08.bks.cpg/sg20_15_cif.got.tgz:28674.got - 2010.06.03 22:52:26.
