data_PCOD9320409
_publ_section_title
;
Structure prediction by ZEFSAII (Michael W. Deem and Ramdas Pophale) SiO2 
 PCOD9320409
Probable space group: C 2 2 21
;
_chemical_formula_sum "Si O2"
_cell_formula_units_Z 60
_cell_length_a 14.762224
_cell_length_b 18.249494
_cell_length_c 11.593987
_cell_angle_alpha 90.000000
_cell_angle_beta 90.000000
_cell_angle_gamma 90.000000
_cell_volume 3123.456251
_symmetry_space_group_name_H-M "C 2 2 21"
_symmetry_group_IT_number 20
_symmetry_cell_setting 'orthorhombic'
loop_
_space_group_symop_operation_xyz
x,y,z
-x,-y,1/2+z
x,-y,-z
-x,y,1/2-z
1/2+x,1/2+y,z
1/2-x,1/2-y,1/2+z
1/2+x,1/2-y,-z
1/2-x,1/2+y,1/2-z
loop_
_atom_site_type_symbol
_atom_site_label
_atom_site_fract_x
_atom_site_fract_y
_atom_site_fract_z
Si Si1 0.317076 0.104577 0.312101
Si Si2 0.581921 0.153314 0.838279
Si Si3 0.106156 0.162213 0.768766
Si Si4 0.346130 0.000000 0.000000
Si Si5 0.347011 0.789564 0.895591
Si Si6 0.762837 0.552466 0.772736
Si Si7 0.497710 0.104413 0.065894
Si Si8 0.684733 0.239579 0.027510
O O1 0.307603 0.153446 0.197788
O O2 0.423508 0.093548 0.342364
O O3 0.290031 0.160848 0.414602
O O4 0.272118 0.025581 0.293520
O O5 0.500000 0.172085 0.750000
O O6 0.661539 0.108557 0.775765
O O7 0.539952 0.101306 0.938302
O O8 0.627997 0.219380 0.911839
O O9 0.143892 0.211828 0.664956
O O10 0.164656 0.088695 0.767054
O O11 0.128030 0.211577 0.882253
O O12 0.000000 0.151056 0.750000
O O13 0.415050 0.049213 0.073102
O O14 0.286815 0.958987 0.093221
O O15 0.447536 0.817606 0.924534
O O16 0.276887 0.781962 0.998728
#
# Coordination Sequence:
#
# PCOD9320409 Si02
#       8
#     8   8   8   4   8   8   8   8
#     4  10  23  37  62  95 133 167 214 265 332 390
#     4  11  22  37  58  98 135 165 207 269 332 392
#     4  11  24  45  68  91 129 181 227 266 320 395
#     4  12  22  34  62  98 130 162 210 270 324 394
#     4  11  20  40  65  94 128 167 217 267 321 394
#     4  12  24  41  64  98 133 172 218 273 332 391
#     4  11  21  35  62  97 134 170 205 255 341 398
#     4  10  23  41  64  99 127 175 222 267 329 397
#
# _framework density 19.209489000000001
#
# number of rings (size 3 to 8) (size 9 to 14) (size 15 to 20)
#    0.000    1.067    4.000    4.400    0.000    1.600 
#    0.000    0.000    2.933    0.800    0.000    0.000 
#    0.000    0.000    0.000    0.000    0.000    0.000 
#
# Total GULP energy -167482.416498 kJ/mol
# GULP energy per Si atom -5582.747217 kJ/mol
# Density = 1.916577 g / cm^3
# Si number density = 19.209489 Si / 1000 Ang^3
#
#
#
# Elastic Constant Matrix: (Units=GPa)
#
#
# Indices 1 2 3 4 5 6 
#
# 1 114.5178 65.7279 45.3479 0.0000 0.0000 0.0000
# 2 65.7279 101.8897 37.6157 0.0000 0.0000 0.0000
# 3 45.3479 37.6157 82.5648 0.0000 0.0000 0.0000
# 4 0.0000 0.0000 0.0000 26.3171 0.0000 0.0000
# 5 0.0000 0.0000 0.0000 0.0000 36.6272 0.0000
# 6 0.0000 0.0000 0.0000 0.0000 0.0000 39.7914
#
#
#
# Elastic Compliance Matrix: (Units=1/GPa)
#
#
# Indices 1 2 3 4 5 6 
#
# 1 0.015233 -0.008100 -0.004676 0.000000 0.000000 0.000000
# 2 -0.008100 0.016107 -0.002889 0.000000 0.000000 0.000000
# 3 -0.004676 -0.002889 0.015996 0.000000 0.000000 0.000000
# 4 0.000000 0.000000 0.000000 0.037998 0.000000 0.000000
# 5 0.000000 0.000000 0.000000 0.000000 0.027302 0.000000
# 6 0.000000 0.000000 0.000000 0.000000 0.000000 0.025131
#
#
# Mechanical properties :
#
#
# Convention : Reuss Voigt Hill
#
# Bulk Modulus (GPa) = 62.48086 66.26169 64.37128
# Shear Modulus (GPa) = 28.66420 30.56585 29.61502
#
# Velocity S-wave (km/s) = 3.86708 3.99329 3.93069
# Velocity P-wave (km/s) = 7.24815 7.47201 7.36093
#
# Compressibility (1/GPa) = 0.01600490
#
# Stress axis : x y z
#
# Youngs Moduli (GPa) = 65.64566 62.08641 62.51471
#
# Poissons Ratio (x) = 0.50293 0.29233
# Poissons Ratio (y) = 0.53176 0.18060
# Poissons Ratio (z) = 0.30698 0.17936
#
# Static dielectric constant tensor:
#      x y z
#    x 1.659470 0.000000 0.000000 
#    y 0.000000 1.756750 0.000000 
#    z 0.000000 0.000000 1.719730 
# 
# From -- ./inp_files/15310.got.cif
#   From: 2010.05.17/outbox.cif.g08.bks.cpg/sg20_8_cif.got.tgz:15310.got - 2010.06.03 22:52:26.
