data_PCOD9320530
_publ_section_title
;
Structure prediction by ZEFSAII (Michael W. Deem and Ramdas Pophale) SiO2 
 PCOD9320530
Probable space group: C 2 2 21
;
_chemical_formula_sum "Si O2"
_cell_formula_units_Z 36
_cell_length_a 14.134849
_cell_length_b 11.234395
_cell_length_c 8.459560
_cell_angle_alpha 90.000000
_cell_angle_beta 90.000000
_cell_angle_gamma 90.000000
_cell_volume 1343.348324
_symmetry_space_group_name_H-M "C 2 2 21"
_symmetry_group_IT_number 20
_symmetry_cell_setting 'orthorhombic'
loop_
_space_group_symop_operation_xyz
x,y,z
-x,-y,1/2+z
x,-y,-z
-x,y,1/2-z
1/2+x,1/2+y,z
1/2-x,1/2-y,1/2+z
1/2+x,1/2-y,-z
1/2-x,1/2+y,1/2-z
loop_
_atom_site_type_symbol
_atom_site_label
_atom_site_fract_x
_atom_site_fract_y
_atom_site_fract_z
Si Si1 0.370940 0.147347 0.136401
Si Si2 0.368366 0.930104 0.335481
Si Si3 0.500000 0.708196 0.250000
Si Si4 0.486902 0.646486 0.574876
Si Si5 0.220462 0.828694 0.141815
O O1 0.463428 0.224255 0.101122
O O2 0.311888 0.203440 0.283416
O O3 0.398797 0.016778 0.191961
O O4 0.301987 0.163387 0.987734
O O5 0.420638 0.802677 0.313552
O O6 0.258420 0.903032 0.292376
O O7 0.381629 0.000000 0.500000
O O8 0.528137 0.626393 0.399868
O O9 0.500000 0.594955 0.750000
O O10 0.374943 0.630375 0.558365
#
# Coordination Sequence:
#
# PCOD9320530 Si02
#       5
#     8   8   4   8   8
#     4  11  23  43  67 102 140 183 232 302 364 434
#     4  12  26  41  70 107 148 186 241 307 374 440
#     4  12  24  40  68 112 136 188 232 306 374 430
#     4  10  23  42  67  99 145 183 231 295 359 439
#     4  11  23  42  67 103 142 188 236 294 371 446
#
# _framework density 26.798707
#
# number of rings (size 3 to 8) (size 9 to 14) (size 15 to 20)
#    0.000    0.889    2.222    6.000    7.778    0.000 
#    0.000    0.000    0.000   40.000    0.000    0.000 
#    0.000    0.000    0.000    0.000    0.000    0.000 
#
# Total GULP energy -100475.545904 kJ/mol
# GULP energy per Si atom -5581.974772 kJ/mol
# Density = 2.673771 g / cm^3
# Si number density = 26.798707 Si / 1000 Ang^3
#
#
#
# Elastic Constant Matrix: (Units=GPa)
#
#
# Indices 1 2 3 4 5 6 
#
# 1 134.7822 28.6500 33.9753 0.0000 0.0000 0.0000
# 2 28.6500 102.2927 57.3888 0.0000 0.0000 0.0000
# 3 33.9753 57.3888 224.6418 0.0000 0.0000 0.0000
# 4 0.0000 0.0000 0.0000 102.2167 0.0000 0.0000
# 5 0.0000 0.0000 0.0000 0.0000 45.5577 0.0000
# 6 0.0000 0.0000 0.0000 0.0000 0.0000 -33.4974
#
#
#
# Elastic Compliance Matrix: (Units=1/GPa)
#
#
# Indices 1 2 3 4 5 6 
#
# 1 0.007994 -0.001822 -0.000744 0.000000 0.000000 0.000000
# 2 -0.001822 0.011827 -0.002746 0.000000 0.000000 0.000000
# 3 -0.000744 -0.002746 0.005265 0.000000 0.000000 0.000000
# 4 0.000000 0.000000 0.000000 0.009783 0.000000 0.000000
# 5 0.000000 0.000000 0.000000 0.000000 0.021950 0.000000
# 6 0.000000 0.000000 0.000000 0.000000 0.000000 -0.029853
#
#
# Mechanical properties :
#
#
# Convention : Reuss Voigt Hill
#
# Bulk Modulus (GPa) = 69.13850 77.97166 73.55508
# Shear Modulus (GPa) = 117.89669 45.63557 81.76613
#
# Velocity S-wave (km/s) = 6.63995 4.13110 5.52969
# Velocity P-wave (km/s) = 9.20002 7.20508 8.26298
#
# Compressibility (1/GPa) = 0.01446372
#
# Stress axis : x y z
#
# Youngs Moduli (GPa) = 125.09264 84.55538 189.91691
#
# Poissons Ratio (x) = 0.15404 0.14123
# Poissons Ratio (y) = 0.22789 0.52147
# Poissons Ratio (z) = 0.09302 0.23217
#
# Static dielectric constant tensor:
#      x y z
#    x 2.077690 0.000000 0.000000 
#    y 0.000000 2.166280 0.000000 
#    z 0.000000 0.000000 2.153950 
# 
# From -- ./inp_files/7998.got.cif
#   From: 2010.05.17/outbox.cif.g08.bks.cpg/sg20_4_cif.got.tgz:7998.got - 2010.06.03 22:52:26.
