data_PCOD9320801
_publ_section_title
;
Structure prediction by ZEFSAII (Michael W. Deem and Ramdas Pophale) SiO2 
 PCOD9320801
Probable space group: C 2 2 21
;
_chemical_formula_sum "Si O2"
_cell_formula_units_Z 60
_cell_length_a 25.853172
_cell_length_b 5.321166
_cell_length_c 19.871700
_cell_angle_alpha 90.000000
_cell_angle_beta 90.000000
_cell_angle_gamma 90.000000
_cell_volume 2733.730292
_symmetry_space_group_name_H-M "C 2 2 21"
_symmetry_group_IT_number 20
_symmetry_cell_setting 'orthorhombic'
loop_
_space_group_symop_operation_xyz
x,y,z
-x,-y,1/2+z
x,-y,-z
-x,y,1/2-z
1/2+x,1/2+y,z
1/2-x,1/2-y,1/2+z
1/2+x,1/2-y,-z
1/2-x,1/2+y,1/2-z
loop_
_atom_site_type_symbol
_atom_site_label
_atom_site_fract_x
_atom_site_fract_y
_atom_site_fract_z
Si Si1 0.773632 0.642424 0.772343
Si Si2 0.001261 0.965996 0.166148
Si Si3 0.620356 0.958940 0.715988
Si Si4 0.778631 0.000000 0.500000
Si Si5 0.615255 0.536678 0.362940
Si Si6 0.223572 0.867470 0.587395
Si Si7 0.669783 0.122535 0.925048
Si Si8 0.436892 0.026838 0.653228
O O1 0.734729 0.423770 0.752885
O O2 0.828159 0.544891 0.746464
O O3 0.777567 0.662382 0.852758
O O4 0.032583 0.727851 0.137517
O O5 0.000000 0.959327 0.250000
O O6 0.029701 0.222804 0.146291
O O7 0.944988 0.964938 0.130098
O O8 0.612812 0.171094 0.659163
O O9 0.574424 0.992123 0.767495
O O10 0.628915 0.674209 0.693157
O O11 0.740412 0.775897 0.479771
O O12 0.816734 0.914198 0.559749
O O13 0.665667 0.518565 0.411633
O O14 0.275105 0.027570 0.604760
O O15 0.617534 0.062877 0.885576
O O16 0.664120 0.000000 0.000000
#
# Coordination Sequence:
#
# PCOD9320801 Si02
#       8
#     8   8   8   4   8   8   8   8
#     4  11  23  35  56  94 140 170 209 269 337 411
#     4  12  23  42  65 100 142 180 219 268 328 418
#     4  11  21  35  58  94 132 174 206 266 321 407
#     4  10  24  46  70  94 136 180 236 290 348 408
#     4  11  23  40  64  96 138 174 219 268 325 405
#     4  10  24  41  68  95 131 183 225 283 341 410
#     4  10  25  45  67  97 128 173 229 293 341 403
#     4  12  24  39  72  98 133 184 223 268 349 405
#
# _framework density 21.948031
#
# number of rings (size 3 to 8) (size 9 to 14) (size 15 to 20)
#    0.000    1.067    2.667    3.600   11.200    0.000 
#    0.000    0.000    1.467    0.000    0.000    0.000 
#    0.000    0.000    0.000    0.000    0.000    0.000 
#
# Total GULP energy -167160.488380 kJ/mol
# GULP energy per Si atom -5572.016279 kJ/mol
# Density = 2.189808 g / cm^3
# Si number density = 21.948031 Si / 1000 Ang^3
#
#
#
# Elastic Constant Matrix: (Units=GPa)
#
#
# Indices 1 2 3 4 5 6 
#
# 1 172.9947 60.1888 28.5088 0.0000 0.0000 0.0000
# 2 60.1888 102.4970 9.0311 0.0000 0.0000 0.0000
# 3 28.5088 9.0311 38.2224 0.0000 0.0000 0.0000
# 4 0.0000 0.0000 0.0000 23.6834 0.0000 0.0000
# 5 0.0000 0.0000 0.0000 0.0000 25.5078 0.0000
# 6 0.0000 0.0000 0.0000 0.0000 0.0000 43.8557
#
#
#
# Elastic Compliance Matrix: (Units=1/GPa)
#
#
# Indices 1 2 3 4 5 6 
#
# 1 0.008113 -0.004321 -0.005030 0.000000 0.000000 0.000000
# 2 -0.004321 0.012265 0.000325 0.000000 0.000000 0.000000
# 3 -0.005030 0.000325 0.029838 0.000000 0.000000 0.000000
# 4 0.000000 0.000000 0.000000 0.042224 0.000000 0.000000
# 5 0.000000 0.000000 0.000000 0.000000 0.039204 0.000000
# 6 0.000000 0.000000 0.000000 0.000000 0.000000 0.022802
#
#
# Mechanical properties :
#
#
# Convention : Reuss Voigt Hill
#
# Bulk Modulus (GPa) = 31.09140 56.57464 43.83302
# Shear Modulus (GPa) = 27.28984 33.00841 30.14913
#
# Velocity S-wave (km/s) = 3.52999 3.88227 3.71031
# Velocity P-wave (km/s) = 5.55078 6.77706 6.19434
#
# Compressibility (1/GPa) = 0.03216323
#
# Stress axis : x y z
#
# Youngs Moduli (GPa) = 123.26229 81.53243 33.51461
#
# Poissons Ratio (x) = 0.35229 0.16858
# Poissons Ratio (y) = 0.53259 -0.01089
# Poissons Ratio (z) = 0.62003 -0.02648
#
# Static dielectric constant tensor:
#      x y z
#    x 1.846390 0.000000 0.000000 
#    y 0.000000 1.860310 0.000000 
#    z 0.000000 0.000000 1.879270 
# 
# From -- ./inp_files/28024.got.cif
#   From: 2010.05.17/outbox.cif.g08.bks.cpg/sg20_15_cif.got.tgz:28024.got - 2010.06.03 22:52:26.
