data_PCOD9320754
_publ_section_title
;
Structure prediction by ZEFSAII (Michael W. Deem and Ramdas Pophale) SiO2 
 PCOD9320754
Probable space group: C 2 2 21
;
_chemical_formula_sum "Si O2"
_cell_formula_units_Z 40
_cell_length_a 17.404241
_cell_length_b 8.834715
_cell_length_c 12.301370
_cell_angle_alpha 90.000000
_cell_angle_beta 90.000000
_cell_angle_gamma 90.000000
_cell_volume 1891.477214
_symmetry_space_group_name_H-M "C 2 2 21"
_symmetry_group_IT_number 20
_symmetry_cell_setting 'orthorhombic'
loop_
_space_group_symop_operation_xyz
x,y,z
-x,-y,1/2+z
x,-y,-z
-x,y,1/2-z
1/2+x,1/2+y,z
1/2-x,1/2-y,1/2+z
1/2+x,1/2-y,-z
1/2-x,1/2+y,1/2-z
loop_
_atom_site_type_symbol
_atom_site_label
_atom_site_fract_x
_atom_site_fract_y
_atom_site_fract_z
Si Si1 0.888461 0.000000 0.000000
Si Si2 0.283608 0.652130 0.823757
Si Si3 0.035343 0.500000 0.000000
Si Si4 0.677155 0.660859 0.050247
Si Si5 0.169546 0.627852 0.146495
Si Si6 0.502344 0.284852 0.879029
O O1 0.838061 0.891938 0.076413
O O2 0.941726 0.091924 0.082957
O O3 0.226918 0.791399 0.848131
O O4 0.225480 0.507652 0.813503
O O5 0.334445 0.727267 0.727448
O O6 0.089962 0.555722 0.100603
O O7 0.986588 0.366065 0.051551
O O8 0.587934 0.667539 0.082891
O O9 0.695976 0.500000 0.000000
O O10 0.697714 0.791521 0.963763
O O11 0.500000 0.261106 0.750000
#
# Coordination Sequence:
#
# PCOD9320754 Si02
#       6
#     4   8   4   8   8   8
#     4  12  27  46  64 113 138 168 244 296 319 420
#     4  12  24  43  72 105 143 175 237 290 341 403
#     4  10  23  50  64  97 140 182 234 278 339 430
#     4  11  22  45  68 100 137 190 229 274 352 421
#     4  11  22  42  72  97 138 181 228 283 343 402
#     4  11  26  44  72  96 143 183 226 282 353 406
#
# _framework density 21.147492
#
# number of rings (size 3 to 8) (size 9 to 14) (size 15 to 20)
#    0.000    0.800    7.000    1.200    5.600    1.600 
#    5.400    0.000    0.000    0.000    0.000    0.000 
#    0.000    0.000    0.000    0.000    0.000    0.000 
#
# Total GULP energy -111540.453296 kJ/mol
# GULP energy per Si atom -5577.022665 kJ/mol
# Density = 2.109936 g / cm^3
# Si number density = 21.147492 Si / 1000 Ang^3
#
#
#
# Elastic Constant Matrix: (Units=GPa)
#
#
# Indices 1 2 3 4 5 6 
#
# 1 65.5363 29.9397 22.8794 0.0000 0.0000 0.0000
# 2 29.9397 103.8547 22.9294 0.0000 0.0000 0.0000
# 3 22.8794 22.9294 75.6866 0.0000 0.0000 0.0000
# 4 0.0000 0.0000 0.0000 51.9597 0.0000 0.0000
# 5 0.0000 0.0000 0.0000 0.0000 12.1159 0.0000
# 6 0.0000 0.0000 0.0000 0.0000 0.0000 4.3543
#
#
#
# Elastic Compliance Matrix: (Units=1/GPa)
#
#
# Indices 1 2 3 4 5 6 
#
# 1 0.018812 -0.004466 -0.004334 0.000000 0.000000 0.000000
# 2 -0.004466 0.011379 -0.002097 0.000000 0.000000 0.000000
# 3 -0.004334 -0.002097 0.015158 0.000000 0.000000 0.000000
# 4 0.000000 0.000000 0.000000 0.019246 0.000000 0.000000
# 5 0.000000 0.000000 0.000000 0.000000 0.082536 0.000000
# 6 0.000000 0.000000 0.000000 0.000000 0.000000 0.229656
#
#
# Mechanical properties :
#
#
# Convention : Reuss Voigt Hill
#
# Bulk Modulus (GPa) = 42.45441 44.06386 43.25914
# Shear Modulus (GPa) = 12.30213 24.97458 18.63836
#
# Velocity S-wave (km/s) = 2.41452 3.44025 2.97198
# Velocity P-wave (km/s) = 5.28131 6.05493 5.68130
#
# Compressibility (1/GPa) = 0.02355468
#
# Stress axis : x y z
#
# Youngs Moduli (GPa) = 53.15732 87.87744 65.97276
#
# Poissons Ratio (x) = 0.39250 0.28590
# Poissons Ratio (y) = 0.23742 0.13836
# Poissons Ratio (z) = 0.23036 0.18430
#
# Static dielectric constant tensor:
#      x y z
#    x 1.735400 0.000000 0.000000 
#    y 0.000000 1.799000 0.000000 
#    z 0.000000 0.000000 1.812190 
# 
# From -- ./inp_files/15600.got.cif
#   From: 2010.05.17/outbox.cif.g08.bks.cpg/sg20_8_cif.got.tgz:15600.got - 2010.06.03 22:52:26.
