data_PCOD9320937
_publ_section_title
;
Structure prediction by ZEFSAII (Michael W. Deem and Ramdas Pophale) SiO2 
 PCOD9320937
Probable space group: C 2 2 21
;
_chemical_formula_sum "Si O2"
_cell_formula_units_Z 44
_cell_length_a 17.143811
_cell_length_b 13.238244
_cell_length_c 8.978295
_cell_angle_alpha 90.000000
_cell_angle_beta 90.000000
_cell_angle_gamma 90.000000
_cell_volume 2037.659542
_symmetry_space_group_name_H-M "C 2 2 21"
_symmetry_group_IT_number 20
_symmetry_cell_setting 'orthorhombic'
loop_
_space_group_symop_operation_xyz
x,y,z
-x,-y,1/2+z
x,-y,-z
-x,y,1/2-z
1/2+x,1/2+y,z
1/2-x,1/2-y,1/2+z
1/2+x,1/2-y,-z
1/2-x,1/2+y,1/2-z
loop_
_atom_site_type_symbol
_atom_site_label
_atom_site_fract_x
_atom_site_fract_y
_atom_site_fract_z
Si Si1 0.500000 0.676451 0.750000
Si Si2 0.898615 0.347940 0.906648
Si Si3 0.415608 0.932696 0.220911
Si Si4 0.209623 0.650151 0.909881
Si Si5 0.266313 0.340203 0.753990
Si Si6 0.135694 0.966675 0.329773
O O1 0.458081 0.756276 0.865966
O O2 0.428619 0.595258 0.736235
O O3 0.927181 0.452549 0.833577
O O4 0.811431 0.339896 0.844594
O O5 0.886227 0.369870 0.079832
O O6 0.500000 0.888574 0.250000
O O7 0.358129 0.927196 0.361504
O O8 0.186765 0.749015 0.818847
O O9 0.290797 0.606954 0.849637
O O10 0.229178 0.670049 0.081211
O O11 0.324208 0.435450 0.756291
O O12 0.109660 0.000000 0.500000
#
# Coordination Sequence:
#
# PCOD9320937 Si02
#       6
#     4   8   8   8   8   8
#     4  12  24  48  72 100 144 200 230 296 374 432
#     4  11  24  42  71 101 141 181 238 291 366 433
#     4  11  25  41  65 110 142 175 239 309 353 434
#     4  11  23  42  72  97 140 190 240 295 369 432
#     4  11  23  46  70 101 137 192 240 300 363 439
#     4  10  24  45  69  99 145 188 241 298 358 433
#
# _framework density 21.593402000000001
#
# number of rings (size 3 to 8) (size 9 to 14) (size 15 to 20)
#    0.000    1.091    4.545    1.091    5.091    0.000 
#    4.909    0.000    0.000    0.000    0.000    0.000 
#    0.000    0.000    0.000    0.000    0.000    0.000 
#
# Total GULP energy -122549.446737 kJ/mol
# GULP energy per Si atom -5570.429397 kJ/mol
# Density = 2.154425 g / cm^3
# Si number density = 21.593402 Si / 1000 Ang^3
#
#
#
# Elastic Constant Matrix: (Units=GPa)
#
#
# Indices 1 2 3 4 5 6 
#
# 1 105.4501 24.5744 43.6310 0.0000 0.0000 0.0000
# 2 24.5744 128.7854 65.4630 0.0000 0.0000 0.0000
# 3 43.6310 65.4630 59.4136 0.0000 0.0000 0.0000
# 4 0.0000 0.0000 0.0000 7.8260 0.0000 0.0000
# 5 0.0000 0.0000 0.0000 0.0000 20.0970 0.0000
# 6 0.0000 0.0000 0.0000 0.0000 0.0000 42.6411
#
#
#
# Elastic Compliance Matrix: (Units=1/GPa)
#
#
# Indices 1 2 3 4 5 6 
#
# 1 0.015708 0.006515 -0.018713 0.000000 0.000000 0.000000
# 2 0.006515 0.020352 -0.027209 0.000000 0.000000 0.000000
# 3 -0.018713 -0.027209 0.060552 0.000000 0.000000 0.000000
# 4 0.000000 0.000000 0.000000 0.127779 0.000000 0.000000
# 5 0.000000 0.000000 0.000000 0.000000 0.049759 0.000000
# 6 0.000000 0.000000 0.000000 0.000000 0.000000 0.023452
#
#
# Mechanical properties :
#
#
# Convention : Reuss Voigt Hill
#
# Bulk Modulus (GPa) = 56.18567 62.33178 59.25872
# Shear Modulus (GPa) = 13.07708 24.77822 18.92765
#
# Velocity S-wave (km/s) = 2.46357 3.39114 2.96387
# Velocity P-wave (km/s) = 5.84539 6.65296 6.26221
#
# Compressibility (1/GPa) = 0.01779813
#
# Stress axis : x y z
#
# Youngs Moduli (GPa) = 63.66289 49.13490 16.51461
#
# Poissons Ratio (x) = -0.32011 0.30904
# Poissons Ratio (y) = -0.41476 0.44934
# Poissons Ratio (z) = 1.19135 1.33689
#
# Static dielectric constant tensor:
#      x y z
#    x 1.882180 0.000000 0.000000 
#    y 0.000000 1.996360 0.000000 
#    z 0.000000 0.000000 1.749040 
# 
# From -- ./inp_files/9289.got.cif
#   From: 2010.05.17/outbox.cif.g08.bks.cpg/sg20_5_cif.got.tgz:9289.got - 2010.06.03 22:52:26.
