data_PCOD9320645
_publ_section_title
;
Structure prediction by ZEFSAII (Michael W. Deem and Ramdas Pophale) SiO2 
 PCOD9320645
Probable space group: C 2 2 21
;
_chemical_formula_sum "Si O2"
_cell_formula_units_Z 48
_cell_length_a 27.007159
_cell_length_b 9.555420
_cell_length_c 8.923232
_cell_angle_alpha 90.000000
_cell_angle_beta 90.000000
_cell_angle_gamma 90.000000
_cell_volume 2302.771611
_symmetry_space_group_name_H-M "C 2 2 21"
_symmetry_group_IT_number 20
_symmetry_cell_setting 'orthorhombic'
loop_
_space_group_symop_operation_xyz
x,y,z
-x,-y,1/2+z
x,-y,-z
-x,y,1/2-z
1/2+x,1/2+y,z
1/2-x,1/2-y,1/2+z
1/2+x,1/2-y,-z
1/2-x,1/2+y,1/2-z
loop_
_atom_site_type_symbol
_atom_site_label
_atom_site_fract_x
_atom_site_fract_y
_atom_site_fract_z
Si Si1 0.888064 0.667674 0.507574
Si Si2 0.499977 0.847589 0.430057
Si Si3 0.853635 0.876672 0.252741
Si Si4 0.539342 0.382814 0.383851
Si Si5 0.812551 0.824595 0.679889
Si Si6 0.730542 0.662298 0.506891
O O1 0.883687 0.500000 0.500000
O O2 0.945790 0.705270 0.518977
O O3 0.864514 0.750488 0.367321
O O4 0.859764 0.726822 0.651525
O O5 0.500000 0.847891 0.250000
O O6 0.540596 0.754350 0.512632
O O7 0.505053 0.000000 0.500000
O O8 0.906619 0.916040 0.180966
O O9 0.814913 0.836007 0.123598
O O10 0.830382 0.014956 0.329025
O O11 0.522051 0.500000 0.500000
O O12 0.500000 0.367525 0.250000
O O13 0.771737 0.770360 0.562379
O O14 0.789202 0.803140 0.842893
O O15 0.749401 0.500000 0.500000
#
# Coordination Sequence:
#
# PCOD9320645 Si02
#       6
#     8   8   8   8   8   8
#     4  11  25  44  67 100 140 184 235 293 357 425
#     4  11  26  45  72 101 146 195 244 300 361 432
#     4  11  25  46  71 102 145 183 237 298 357 437
#     4  12  25  43  70 109 147 192 243 299 365 439
#     4  11  23  43  71 102 138 182 233 295 360 429
#     4  10  23  44  71 102 137 185 234 297 355 425
#
# _framework density 20.844445
#
# number of rings (size 3 to 8) (size 9 to 14) (size 15 to 20)
#    0.000    1.000    1.667    4.500    9.333    2.667 
#    0.000    4.167    0.000    0.000    0.000    0.000 
#    0.000    0.000    0.000    0.000    0.000    0.000 
#
# Total GULP energy -134207.580795 kJ/mol
# GULP energy per Si atom -5591.982533 kJ/mol
# Density = 2.079700 g / cm^3
# Si number density = 20.844445 Si / 1000 Ang^3
#
#
#
# Elastic Constant Matrix: (Units=GPa)
#
#
# Indices 1 2 3 4 5 6 
#
# 1 66.5158 38.1699 30.5446 0.0000 0.0000 0.0000
# 2 38.1699 90.6408 61.8874 0.0000 0.0000 0.0000
# 3 30.5446 61.8874 136.6357 0.0000 0.0000 0.0000
# 4 0.0000 0.0000 0.0000 41.3719 0.0000 0.0000
# 5 0.0000 0.0000 0.0000 0.0000 40.8669 0.0000
# 6 0.0000 0.0000 0.0000 0.0000 0.0000 50.4040
#
#
#
# Elastic Compliance Matrix: (Units=1/GPa)
#
#
# Indices 1 2 3 4 5 6 
#
# 1 0.019909 -0.007738 -0.000946 0.000000 0.000000 0.000000
# 2 -0.007738 0.018980 -0.006867 0.000000 0.000000 0.000000
# 3 -0.000946 -0.006867 0.010640 0.000000 0.000000 0.000000
# 4 0.000000 0.000000 0.000000 0.024171 0.000000 0.000000
# 5 0.000000 0.000000 0.000000 0.000000 0.024470 0.000000
# 6 0.000000 0.000000 0.000000 0.000000 0.000000 0.019840
#
#
# Mechanical properties :
#
#
# Convention : Reuss Voigt Hill
#
# Bulk Modulus (GPa) = 54.26625 61.66622 57.96623
# Shear Modulus (GPa) = 32.20556 37.40793 34.80674
#
# Velocity S-wave (km/s) = 3.93497 4.24090 4.09079
# Velocity P-wave (km/s) = 6.83635 7.32315 7.08393
#
# Compressibility (1/GPa) = 0.01842766
#
# Stress axis : x y z
#
# Youngs Moduli (GPa) = 50.22906 52.68811 93.98206
#
# Poissons Ratio (x) = 0.40771 0.08888
# Poissons Ratio (y) = 0.38868 0.64535
# Poissons Ratio (z) = 0.04750 0.36179
#
# Static dielectric constant tensor:
#      x y z
#    x 1.738840 0.000000 0.000000 
#    y 0.000000 1.686620 0.000000 
#    z 0.000000 0.000000 1.735420 
# 
# From -- ./inp_files/6531.got.cif
#   From: 2010.05.17/outbox.cif.g08.bks.cpg/sg20_4_cif.got.tgz:6531.got - 2010.06.03 22:52:26.
