data_PCOD9320104
_publ_section_title
;
Structure prediction by ZEFSAII (Michael W. Deem and Ramdas Pophale) SiO2 
 PCOD9320104
Probable space group: C 2 2 21
;
_chemical_formula_sum "Si O2"
_cell_formula_units_Z 48
_cell_length_a 12.043180
_cell_length_b 22.728439
_cell_length_c 7.189349
_cell_angle_alpha 90.000000
_cell_angle_beta 90.000000
_cell_angle_gamma 90.000000
_cell_volume 1967.887890
_symmetry_space_group_name_H-M "C 2 2 21"
_symmetry_group_IT_number 20
_symmetry_cell_setting 'orthorhombic'
loop_
_space_group_symop_operation_xyz
x,y,z
-x,-y,1/2+z
x,-y,-z
-x,y,1/2-z
1/2+x,1/2+y,z
1/2-x,1/2-y,1/2+z
1/2+x,1/2-y,-z
1/2-x,1/2+y,1/2-z
loop_
_atom_site_type_symbol
_atom_site_label
_atom_site_fract_x
_atom_site_fract_y
_atom_site_fract_z
Si Si1 0.271980 0.193328 0.429684
Si Si2 0.125584 0.094582 0.469591
Si Si3 0.496500 0.131930 0.474812
Si Si4 0.228517 0.674138 0.507890
Si Si5 0.309338 0.000000 0.500000
Si Si6 0.377703 0.432375 0.527061
Si Si7 0.500000 0.974855 0.250000
O O1 0.161270 0.161904 0.507717
O O2 0.379757 0.162827 0.518298
O O3 0.276290 0.263289 0.433549
O O4 0.270263 0.175636 0.215149
O O5 0.227139 0.054067 0.535809
O O6 0.121630 0.081091 0.247900
O O7 0.004546 0.076785 0.539858
O O8 0.500000 0.127472 0.250000
O O9 0.598755 0.169688 0.551054
O O10 0.514361 0.069326 0.574978
O O11 0.297448 0.616372 0.563538
O O12 0.387776 0.992521 0.683165
O O13 0.344399 0.500000 0.500000
#
# Coordination Sequence:
#
# PCOD9320104 Si02
#       7
#     8   8   8   8   4   8   4
#     4  10  22  44  66  97 140 181 237 303 364 430
#     4  10  22  44  65  97 145 180 233 313 354 430
#     4  10  24  47  66 101 143 181 243 311 362 444
#     4  10  24  40  70 102 138 187 240 298 363 442
#     4  12  26  44  68 106 140 194 244 306 372 446
#     4  10  22  42  70 100 136 193 237 293 373 438
#     4  12  28  42  74 102 138 196 238 298 386 438
#
# _framework density 24.391634
#
# number of rings (size 3 to 8) (size 9 to 14) (size 15 to 20)
#    0.000    1.667    2.500    0.000    8.167    0.000 
#    0.000    0.000    0.000    0.000    0.000    0.000 
#    0.000    0.000    0.000    0.000    0.000    0.000 
#
# Total GULP energy -134202.212327 kJ/mol
# GULP energy per Si atom -5591.758847 kJ/mol
# Density = 2.433612 g / cm^3
# Si number density = 24.391634 Si / 1000 Ang^3
#
#
#
# Elastic Constant Matrix: (Units=GPa)
#
#
# Indices 1 2 3 4 5 6 
#
# 1 147.5858 82.3470 23.2356 0.0000 0.0000 0.0000
# 2 82.3470 171.7505 8.1538 0.0000 0.0000 0.0000
# 3 23.2356 8.1538 105.3556 0.0000 0.0000 0.0000
# 4 0.0000 0.0000 0.0000 32.3288 0.0000 0.0000
# 5 0.0000 0.0000 0.0000 0.0000 -6.8538 0.0000
# 6 0.0000 0.0000 0.0000 0.0000 0.0000 -30.9136
#
#
#
# Elastic Compliance Matrix: (Units=1/GPa)
#
#
# Indices 1 2 3 4 5 6 
#
# 1 0.009565 -0.004502 -0.001761 0.000000 0.000000 0.000000
# 2 -0.004502 0.007963 0.000377 0.000000 0.000000 0.000000
# 3 -0.001761 0.000377 0.009851 0.000000 0.000000 0.000000
# 4 0.000000 0.000000 0.000000 0.030932 0.000000 0.000000
# 5 0.000000 0.000000 0.000000 0.000000 -0.145905 0.000000
# 6 0.000000 0.000000 0.000000 0.000000 0.000000 -0.032348
#
#
# Mechanical properties :
#
#
# Convention : Reuss Voigt Hill
#
# Bulk Modulus (GPa) = 64.07956 72.46275 68.27115
# Shear Modulus (GPa) = -48.55966 19.64265 -14.45850
#
# Velocity S-wave (km/s) = -4.46672 2.84086 -2.43732
# Velocity P-wave (km/s) = 0.52336 6.36657 4.48661
#
# Compressibility (1/GPa) = 0.01560560
#
# Stress axis : x y z
#
# Youngs Moduli (GPa) = 104.54579 125.57665 101.51350
#
# Poissons Ratio (x) = 0.56541 0.17877
# Poissons Ratio (y) = 0.47072 -0.03824
# Poissons Ratio (z) = 0.18411 -0.04730
#
# Static dielectric constant tensor:
#      x y z
#    x 1.953050 0.000000 0.000000 
#    y 0.000000 1.941030 0.000000 
#    z 0.000000 0.000000 2.005800 
# 
# From -- ./inp_files/7419.got.cif
#   From: 2010.05.17/outbox.cif.g08.bks.cpg/sg20_4_cif.got.tgz:7419.got - 2010.06.03 22:52:26.
