data_PCOD9320902
_publ_section_title
;
Structure prediction by ZEFSAII (Michael W. Deem and Ramdas Pophale) SiO2 
 PCOD9320902
Probable space group: C 2 2 21
;
_chemical_formula_sum "Si O2"
_cell_formula_units_Z 40
_cell_length_a 8.211255
_cell_length_b 12.788338
_cell_length_c 15.201229
_cell_angle_alpha 90.000000
_cell_angle_beta 90.000000
_cell_angle_gamma 90.000000
_cell_volume 1596.255281
_symmetry_space_group_name_H-M "C 2 2 21"
_symmetry_group_IT_number 20
_symmetry_cell_setting 'orthorhombic'
loop_
_space_group_symop_operation_xyz
x,y,z
-x,-y,1/2+z
x,-y,-z
-x,y,1/2-z
1/2+x,1/2+y,z
1/2-x,1/2-y,1/2+z
1/2+x,1/2-y,-z
1/2-x,1/2+y,1/2-z
loop_
_atom_site_type_symbol
_atom_site_label
_atom_site_fract_x
_atom_site_fract_y
_atom_site_fract_z
Si Si1 0.275208 0.102625 0.058075
Si Si2 0.177670 0.556779 0.909388
Si Si3 0.099058 0.290446 0.332369
Si Si4 0.191109 0.981850 0.231809
Si Si5 0.059801 0.799516 0.492482
O O1 0.234754 0.062564 0.155014
O O2 0.119344 0.160430 0.014801
O O3 0.418095 0.187647 0.054218
O O4 0.300950 0.000000 0.000000
O O5 0.034368 0.634125 0.879406
O O6 0.215284 0.491446 0.821959
O O7 0.342156 0.379758 0.067725
O O8 0.140733 0.500000 0.000000
O O9 0.759362 0.367325 0.201482
O O10 0.000000 0.243253 0.250000
O O11 0.142135 0.212193 0.410570
O O12 0.000000 0.978167 0.250000
#
# Coordination Sequence:
#
# PCOD9320902 Si02
#       5
#     8   8   8   8   8
#     4  12  26  47  79 113 158 204 259 333 400 471
#     4  11  25  45  71 109 151 199 264 319 389 479
#     4  10  24  44  71 104 150 199 259 324 392 470
#     4  11  24  46  73 107 153 203 257 329 392 466
#     4  12  24  46  75 112 149 204 262 320 401 468
#
# _framework density 25.058648000000002
#
# number of rings (size 3 to 8) (size 9 to 14) (size 15 to 20)
#    0.000    0.800    4.000    3.000    2.800    2.400 
#    0.000    0.000    4.400    0.000    0.000    0.000 
#    0.000    0.000    0.000    0.000    0.000    0.000 
#
# Total GULP energy -112089.406716 kJ/mol
# GULP energy per Si atom -5604.470336 kJ/mol
# Density = 2.500161 g / cm^3
# Si number density = 25.058648 Si / 1000 Ang^3
#
#
#
# Elastic Constant Matrix: (Units=GPa)
#
#
# Indices 1 2 3 4 5 6 
#
# 1 94.2405 34.5832 33.9850 0.0000 0.0000 0.0000
# 2 34.5832 84.7622 33.0325 0.0000 0.0000 0.0000
# 3 33.9850 33.0325 179.3221 0.0000 0.0000 0.0000
# 4 0.0000 0.0000 0.0000 51.3985 0.0000 0.0000
# 5 0.0000 0.0000 0.0000 0.0000 33.9786 0.0000
# 6 0.0000 0.0000 0.0000 0.0000 0.0000 30.8280
#
#
#
# Elastic Compliance Matrix: (Units=1/GPa)
#
#
# Indices 1 2 3 4 5 6 
#
# 1 0.012886 -0.004639 -0.001588 0.000000 0.000000 0.000000
# 2 -0.004639 0.014380 -0.001770 0.000000 0.000000 0.000000
# 3 -0.001588 -0.001770 0.006203 0.000000 0.000000 0.000000
# 4 0.000000 0.000000 0.000000 0.019456 0.000000 0.000000
# 5 0.000000 0.000000 0.000000 0.000000 0.029430 0.000000
# 6 0.000000 0.000000 0.000000 0.000000 0.000000 0.032438
#
#
# Mechanical properties :
#
#
# Convention : Reuss Voigt Hill
#
# Bulk Modulus (GPa) = 57.21790 62.39181 59.80485
# Shear Modulus (GPa) = 36.60005 40.35593 38.47799
#
# Velocity S-wave (km/s) = 3.82589 4.01741 3.92282
# Velocity P-wave (km/s) = 6.51151 6.81702 6.66602
#
# Compressibility (1/GPa) = 0.01747705
#
# Stress axis : x y z
#
# Youngs Moduli (GPa) = 77.60372 69.54078 161.20054
#
# Poissons Ratio (x) = 0.32259 0.25593
# Poissons Ratio (y) = 0.35999 0.28529
# Poissons Ratio (z) = 0.12321 0.12307
#
# Static dielectric constant tensor:
#      x y z
#    x 1.982660 0.000000 0.000000 
#    y 0.000000 2.019520 0.000000 
#    z 0.000000 0.000000 1.985200 
# 
# From -- ./inp_files/23127.got.cif
#   From: 2010.05.17/outbox.cif.g08.bks.cpg/sg20_12_cif.got.tgz:23127.got - 2010.06.03 22:52:26.
