data_PCOD9320415
_publ_section_title
;
Structure prediction by ZEFSAII (Michael W. Deem and Ramdas Pophale) SiO2 
 PCOD9320415
Probable space group: C 2 2 21
;
_chemical_formula_sum "Si O2"
_cell_formula_units_Z 32
_cell_length_a 9.679327
_cell_length_b 17.187119
_cell_length_c 8.064338
_cell_angle_alpha 90.000000
_cell_angle_beta 90.000000
_cell_angle_gamma 90.000000
_cell_volume 1341.581213
_symmetry_space_group_name_H-M "C 2 2 21"
_symmetry_group_IT_number 20
_symmetry_cell_setting 'orthorhombic'
loop_
_space_group_symop_operation_xyz
x,y,z
-x,-y,1/2+z
x,-y,-z
-x,y,1/2-z
1/2+x,1/2+y,z
1/2-x,1/2-y,1/2+z
1/2+x,1/2-y,-z
1/2-x,1/2+y,1/2-z
loop_
_atom_site_type_symbol
_atom_site_label
_atom_site_fract_x
_atom_site_fract_y
_atom_site_fract_z
Si Si1 0.159693 0.570150 0.738839
Si Si2 0.175154 0.394086 0.612473
Si Si3 0.212541 0.841275 0.544833
Si Si4 0.527204 0.248090 0.066299
O O1 0.142204 0.479991 0.684589
O O2 0.235965 0.601384 0.573203
O O3 0.242022 0.594445 0.905808
O O4 0.000000 0.599557 0.750000
O O5 0.044750 0.337433 0.581625
O O6 0.260078 0.362389 0.765961
O O7 0.318783 0.769952 0.510033
O O8 0.060305 0.807319 0.539569
O O9 0.500000 0.280361 0.250000
#
# Coordination Sequence:
#
# PCOD9320415 Si02
#       4
#     8   8   8   8
#     4  11  21  35  66  94 128 171 220 277 328 369
#     4  10  23  38  59 100 129 162 226 275 321 385
#     4  11  23  42  65  93 136 172 210 274 330 392
#     4  10  23  41  64  99 133 166 222 264 328 399
#
# _framework density 23.852450000000001
#
# number of rings (size 3 to 8) (size 9 to 14) (size 15 to 20)
#    0.000    1.500    2.500    3.000   10.500    0.000 
#    0.000    0.000    0.000    6.000    0.000    0.000 
#    0.000    0.000    0.000    0.000    0.000    0.000 
#
# Total GULP energy -89221.328728 kJ/mol
# GULP energy per Si atom -5576.333046 kJ/mol
# Density = 2.379816 g / cm^3
# Si number density = 23.852450 Si / 1000 Ang^3
#
#
#
# Elastic Constant Matrix: (Units=GPa)
#
#
# Indices 1 2 3 4 5 6 
#
# 1 34.8726 6.3409 20.0283 0.0000 0.0000 0.0000
# 2 6.3409 72.6157 36.1440 0.0000 0.0000 0.0000
# 3 20.0283 36.1440 182.3005 0.0000 0.0000 0.0000
# 4 0.0000 0.0000 0.0000 21.9286 0.0000 0.0000
# 5 0.0000 0.0000 0.0000 0.0000 25.1345 0.0000
# 6 0.0000 0.0000 0.0000 0.0000 0.0000 13.0905
#
#
#
# Elastic Compliance Matrix: (Units=1/GPa)
#
#
# Indices 1 2 3 4 5 6 
#
# 1 0.030688 -0.001111 -0.003151 0.000000 0.000000 0.000000
# 2 -0.001111 0.015319 -0.002915 0.000000 0.000000 0.000000
# 3 -0.003151 -0.002915 0.006410 0.000000 0.000000 0.000000
# 4 0.000000 0.000000 0.000000 0.045603 0.000000 0.000000
# 5 0.000000 0.000000 0.000000 0.000000 0.039786 0.000000
# 6 0.000000 0.000000 0.000000 0.000000 0.000000 0.076391
#
#
# Mechanical properties :
#
#
# Convention : Reuss Voigt Hill
#
# Bulk Modulus (GPa) = 26.27337 46.09058 36.18197
# Shear Modulus (GPa) = 20.72636 27.18241 23.95439
#
# Velocity S-wave (km/s) = 2.95098 3.37947 3.17247
# Velocity P-wave (km/s) = 4.75919 5.88157 5.34990
#
# Compressibility (1/GPa) = 0.03806135
#
# Stress axis : x y z
#
# Youngs Moduli (GPa) = 32.58639 65.27765 156.01520
#
# Poissons Ratio (x) = 0.07254 0.49163
# Poissons Ratio (y) = 0.03621 0.45481
# Poissons Ratio (z) = 0.10268 0.19030
#
# Static dielectric constant tensor:
#      x y z
#    x 1.912150 0.000000 0.000000 
#    y 0.000000 2.053960 0.000000 
#    z 0.000000 0.000000 2.068520 
# 
# From -- ./inp_files/5775.got.cif
#   From: 2010.05.17/outbox.cif.g08.bks.cpg/sg20_3_cif.got.tgz:5775.got - 2010.06.03 22:52:26.
