data_PCOD9320817
_publ_section_title
;
Structure prediction by ZEFSAII (Michael W. Deem and Ramdas Pophale) SiO2 
 PCOD9320817
Probable space group: C 2 2 21
;
_chemical_formula_sum "Si O2"
_cell_formula_units_Z 56
_cell_length_a 13.971833
_cell_length_b 4.935774
_cell_length_c 29.972134
_cell_angle_alpha 90.000000
_cell_angle_beta 90.000000
_cell_angle_gamma 90.000000
_cell_volume 2066.932612
_symmetry_space_group_name_H-M "C 2 2 21"
_symmetry_group_IT_number 20
_symmetry_cell_setting 'orthorhombic'
loop_
_space_group_symop_operation_xyz
x,y,z
-x,-y,1/2+z
x,-y,-z
-x,y,1/2-z
1/2+x,1/2+y,z
1/2-x,1/2-y,1/2+z
1/2+x,1/2-y,-z
1/2-x,1/2+y,1/2-z
loop_
_atom_site_type_symbol
_atom_site_label
_atom_site_fract_x
_atom_site_fract_y
_atom_site_fract_z
Si Si1 0.800895 0.120573 0.597351
Si Si2 0.198443 0.624818 0.954002
Si Si3 0.425815 0.211011 0.186610
Si Si4 0.570094 0.135762 0.602676
Si Si5 0.623238 0.700700 0.785201
Si Si6 0.567885 0.626348 0.547143
Si Si7 0.712698 0.771298 0.177331
O O1 0.832572 0.422882 0.585883
O O2 0.825799 0.927822 0.638691
O O3 0.827093 0.932921 0.555294
O O4 0.685766 0.140935 0.601087
O O5 0.315307 0.624028 0.954922
O O6 0.164306 0.500000 0.000000
O O7 0.453609 0.976398 0.151681
O O8 0.396872 0.154540 0.237795
O O9 0.520508 0.385419 0.194614
O O10 0.325283 0.324032 0.168484
O O11 0.541470 0.925799 0.563347
O O12 0.536857 0.429879 0.587595
O O13 0.667968 0.937991 0.814918
O O14 0.689190 0.434263 0.781402
O O15 0.536557 0.500000 0.500000
#
# Coordination Sequence:
#
# PCOD9320817 Si02
#       7
#     8   8   8   8   8   8   8
#     4   9  17  29  47  75 110 148 193 240 293 359
#     4   9  15  25  44  74 110 145 187 242 295 351
#     4  10  24  42  64  93 128 161 210 258 304 371
#     4   9  18  30  50  77 112 153 188 242 299 344
#     4  11  25  41  64  93 123 167 209 253 313 367
#     4   9  16  27  46  77 112 146 191 239 290 355
#     4  11  23  41  63  90 125 164 206 257 310 362
#
# _framework density 27.093288999999999
#
# number of rings (size 3 to 8) (size 9 to 14) (size 15 to 20)
#    0.000    2.286    0.000    2.571    0.000   12.571 
#    0.000    0.000    0.000    0.000    0.000   20.000 
#    0.000    0.000    0.000    0.000    0.000    0.286 
#
# Total GULP energy -156587.794902 kJ/mol
# GULP energy per Si atom -5592.421246 kJ/mol
# Density = 2.703162 g / cm^3
# Si number density = 27.093289 Si / 1000 Ang^3
#
#
#
# Elastic Constant Matrix: (Units=GPa)
#
#
# Indices 1 2 3 4 5 6 
#
# 1 138.5423 6.3776 7.4655 0.0000 0.0000 0.0000
# 2 6.3776 139.4658 10.7283 0.0000 0.0000 0.0000
# 3 7.4655 10.7283 97.0048 0.0000 0.0000 0.0000
# 4 0.0000 0.0000 0.0000 21.5988 0.0000 0.0000
# 5 0.0000 0.0000 0.0000 0.0000 29.0863 0.0000
# 6 0.0000 0.0000 0.0000 0.0000 0.0000 7.9235
#
#
#
# Elastic Compliance Matrix: (Units=1/GPa)
#
#
# Indices 1 2 3 4 5 6 
#
# 1 0.007260 -0.000291 -0.000526 0.000000 0.000000 0.000000
# 2 -0.000291 0.007243 -0.000779 0.000000 0.000000 0.000000
# 3 -0.000526 -0.000779 0.010435 0.000000 0.000000 0.000000
# 4 0.000000 0.000000 0.000000 0.046299 0.000000 0.000000
# 5 0.000000 0.000000 0.000000 0.000000 0.034380 0.000000
# 6 0.000000 0.000000 0.000000 0.000000 0.000000 0.126206
#
#
# Mechanical properties :
#
#
# Convention : Reuss Voigt Hill
#
# Bulk Modulus (GPa) = 45.98671 47.12839 46.55755
# Shear Modulus (GPa) = 20.63846 35.08450 27.86148
#
# Velocity S-wave (km/s) = 2.76299 3.60245 3.21027
# Velocity P-wave (km/s) = 5.21432 5.89374 5.56441
#
# Compressibility (1/GPa) = 0.02174541
#
# Stress axis : x y z
#
# Youngs Moduli (GPa) = 137.74485 138.05586 95.82766
#
# Poissons Ratio (x) = 0.04024 0.05045
# Poissons Ratio (y) = 0.04015 0.07462
# Poissons Ratio (z) = 0.07252 0.10750
#
# Static dielectric constant tensor:
#      x y z
#    x 2.134590 0.000000 0.000000 
#    y 0.000000 1.984650 0.000000 
#    z 0.000000 0.000000 2.288260 
# 
# From -- ./inp_files/31290.got.cif
#   From: 2010.05.17/outbox.cif.g08.bks.cpg/sg20_16_cif.got.tgz:31290.got - 2010.06.03 22:52:26.
