data_PCOD9320127
_publ_section_title
;
Structure prediction by ZEFSAII (Michael W. Deem and Ramdas Pophale) SiO2 
 PCOD9320127
Probable space group: C 2 2 21
;
_chemical_formula_sum "Si O2"
_cell_formula_units_Z 56
_cell_length_a 30.753335
_cell_length_b 14.318905
_cell_length_c 6.223781
_cell_angle_alpha 90.000000
_cell_angle_beta 90.000000
_cell_angle_gamma 90.000000
_cell_volume 2740.667371
_symmetry_space_group_name_H-M "C 2 2 21"
_symmetry_group_IT_number 20
_symmetry_cell_setting 'orthorhombic'
loop_
_space_group_symop_operation_xyz
x,y,z
-x,-y,1/2+z
x,-y,-z
-x,y,1/2-z
1/2+x,1/2+y,z
1/2-x,1/2-y,1/2+z
1/2+x,1/2-y,-z
1/2-x,1/2+y,1/2-z
loop_
_atom_site_type_symbol
_atom_site_label
_atom_site_fract_x
_atom_site_fract_y
_atom_site_fract_z
Si Si1 0.959604 0.703036 0.401904
Si Si2 0.935630 0.500000 0.500000
Si Si3 0.675796 0.411531 0.338247
Si Si4 0.866481 0.582064 0.828977
Si Si5 0.952475 0.862893 0.745923
Si Si6 0.893371 0.766056 0.067370
Si Si7 0.111968 0.000000 0.000000
Si Si8 0.229169 0.452436 0.248403
O O1 0.962581 0.591830 0.437414
O O2 0.959801 0.767480 0.611348
O O3 0.913805 0.727257 0.287069
O O4 0.000000 0.729731 0.250000
O O5 0.902469 0.540125 0.674010
O O6 0.675103 0.500000 0.500000
O O7 0.652131 0.320513 0.428979
O O8 0.725252 0.397603 0.263217
O O9 0.643770 0.440330 0.147629
O O10 0.817528 0.597915 0.744610
O O11 0.861037 0.500000 0.000000
O O12 0.885880 0.676250 0.922130
O O13 0.000000 0.908509 0.750000
O O14 0.918709 0.930638 0.630859
O O15 0.929839 0.834533 0.968368
O O16 0.231516 0.500000 0.500000
O O17 0.228838 0.500000 0.000000
#
# Coordination Sequence:
#
# PCOD9320127 Si02
#       8
#     8   4   8   8   8   8   4   8
#     4  12  26  42  66  96 135 170 224 285 340 401
#     4  12  24  42  68  98 130 176 224 276 342 416
#     4  11  23  42  68 101 134 176 224 280 344 410
#     4  11  23  42  68 101 134 176 224 280 344 410
#     4  12  26  42  66  96 135 170 224 285 340 401
#     4  12  24  42  68  98 130 180 220 282 338 408
#     4  12  24  42  68  98 130 176 224 276 342 416
#     4  10  22  42  72 104 142 186 230 290 352 416
#
# _framework density 20.432980000000001
#
# number of rings (size 3 to 8) (size 9 to 14) (size 15 to 20)
#    0.000    0.571    8.571    0.000    0.000    3.429 
#    0.000    8.571    0.000    0.000    0.000    0.000 
#    0.000    0.000    0.000    0.000    0.000    0.000 
#
# Total GULP energy -155995.011438 kJ/mol
# GULP energy per Si atom -5571.250409 kJ/mol
# Density = 2.038647 g / cm^3
# Si number density = 20.432980 Si / 1000 Ang^3
#
#
#
# Elastic Constant Matrix: (Units=GPa)
#
#
# Indices 1 2 3 4 5 6 
#
# 1 86.4467 -24.2750 -3.4462 0.0000 0.0000 0.0000
# 2 -24.2750 39.9401 -6.7085 0.0000 0.0000 0.0000
# 3 -3.4462 -6.7085 46.4891 0.0000 0.0000 0.0000
# 4 0.0000 0.0000 0.0000 30.7518 0.0000 0.0000
# 5 0.0000 0.0000 0.0000 0.0000 38.4274 0.0000
# 6 0.0000 0.0000 0.0000 0.0000 0.0000 27.8883
#
#
#
# Elastic Compliance Matrix: (Units=1/GPa)
#
#
# Indices 1 2 3 4 5 6 
#
# 1 0.014195 0.009023 0.002354 0.000000 0.000000 0.000000
# 2 0.009023 0.031395 0.005199 0.000000 0.000000 0.000000
# 3 0.002354 0.005199 0.022435 0.000000 0.000000 0.000000
# 4 0.000000 0.000000 0.000000 0.032518 0.000000 0.000000
# 5 0.000000 0.000000 0.000000 0.000000 0.026023 0.000000
# 6 0.000000 0.000000 0.000000 0.000000 0.000000 0.035857
#
#
# Mechanical properties :
#
#
# Convention : Reuss Voigt Hill
#
# Bulk Modulus (GPa) = 9.88342 11.55738 10.72040
# Shear Modulus (GPa) = 30.67536 33.23387 31.95462
#
# Velocity S-wave (km/s) = 3.87882 4.03734 3.95888
# Velocity P-wave (km/s) = 4.99078 5.23469 5.11419
#
# Compressibility (1/GPa) = 0.10117954
#
# Stress axis : x y z
#
# Youngs Moduli (GPa) = 70.44489 31.85223 44.57276
#
# Poissons Ratio (x) = -0.28741 -0.10494
# Poissons Ratio (y) = -0.63564 -0.23175
# Poissons Ratio (z) = -0.16585 -0.16561
#
# Static dielectric constant tensor:
#      x y z
#    x 1.723090 0.000000 0.000000 
#    y 0.000000 1.759220 0.000000 
#    z 0.000000 0.000000 1.800640 
# 
# From -- ./inp_files/4704.got.cif
#   From: 2010.05.17/outbox.cif.g08.bks.cpg/sg20_3_cif.got.tgz:4704.got - 2010.06.03 22:52:26.
