data_PCOD9320477
_publ_section_title
;
Structure prediction by ZEFSAII (Michael W. Deem and Ramdas Pophale) SiO2 
 PCOD9320477
Probable space group: C 2 2 21
;
_chemical_formula_sum "Si O2"
_cell_formula_units_Z 56
_cell_length_a 15.105351
_cell_length_b 5.205347
_cell_length_c 31.391354
_cell_angle_alpha 90.000000
_cell_angle_beta 90.000000
_cell_angle_gamma 90.000000
_cell_volume 2468.258013
_symmetry_space_group_name_H-M "C 2 2 21"
_symmetry_group_IT_number 20
_symmetry_cell_setting 'orthorhombic'
loop_
_space_group_symop_operation_xyz
x,y,z
-x,-y,1/2+z
x,-y,-z
-x,y,1/2-z
1/2+x,1/2+y,z
1/2-x,1/2-y,1/2+z
1/2+x,1/2-y,-z
1/2-x,1/2+y,1/2-z
loop_
_atom_site_type_symbol
_atom_site_label
_atom_site_fract_x
_atom_site_fract_y
_atom_site_fract_z
Si Si1 0.926527 0.837151 0.176291
Si Si2 0.167689 0.947359 0.591298
Si Si3 0.077513 0.000000 0.500000
Si Si4 0.957740 0.500000 0.500000
Si Si5 0.791403 0.425280 0.155469
Si Si6 0.713636 0.432563 0.727883
Si Si7 0.399146 0.494505 0.640970
Si Si8 0.870395 0.483078 0.409665
O O1 0.894171 0.936144 0.128886
O O2 0.875956 0.562240 0.176532
O O3 0.885905 0.976864 0.217800
O O4 0.030179 0.894426 0.174212
O O5 0.265439 0.068409 0.592108
O O6 0.130993 0.965447 0.543974
O O7 0.182296 0.654887 0.607875
O O8 0.017950 0.749241 0.494284
O O9 0.900018 0.465318 0.458039
O O10 0.698290 0.567596 0.159217
O O11 0.764214 0.163767 0.180222
O O12 0.732762 0.176738 0.754964
O O13 0.424103 0.230064 0.617423
O O14 0.387326 0.730628 0.608051
#
# Coordination Sequence:
#
# PCOD9320477 Si02
#       8
#     8   8   4   4   8   8   8   8
#     4  11  22  42  73  97 131 177 226 272 341 410
#     4  10  23  41  65  96 128 182 226 278 341 405
#     4  12  27  40  63  94 134 174 236 283 336 413
#     4  12  25  40  57  92 130 176 222 291 348 391
#     4  10  23  44  70 100 134 177 227 279 341 415
#     4  11  23  42  72  98 135 175 213 272 339 406
#     4  11  25  40  69  99 130 172 229 281 331 412
#     4  11  23  42  61  92 133 173 226 285 342 400
#
# _framework density 22.688067
#
# number of rings (size 3 to 8) (size 9 to 14) (size 15 to 20)
#    0.000    1.143    2.857    3.000    8.000    0.000 
#    0.000    2.143    6.286    0.000    0.000    0.000 
#    0.000    0.000    0.000    0.000    0.000    0.000 
#
# Total GULP energy -156179.223817 kJ/mol
# GULP energy per Si atom -5577.829422 kJ/mol
# Density = 2.263643 g / cm^3
# Si number density = 22.688067 Si / 1000 Ang^3
#
#
#
# Elastic Constant Matrix: (Units=GPa)
#
#
# Indices 1 2 3 4 5 6 
#
# 1 59.5489 21.7306 1.6486 0.0000 0.0000 0.0000
# 2 21.7306 122.7670 22.9065 0.0000 0.0000 0.0000
# 3 1.6486 22.9065 75.0447 0.0000 0.0000 0.0000
# 4 0.0000 0.0000 0.0000 37.3581 0.0000 0.0000
# 5 0.0000 0.0000 0.0000 0.0000 34.9044 0.0000
# 6 0.0000 0.0000 0.0000 0.0000 0.0000 19.7676
#
#
#
# Elastic Compliance Matrix: (Units=1/GPa)
#
#
# Indices 1 2 3 4 5 6 
#
# 1 0.017979 -0.003296 0.000611 0.000000 0.000000 0.000000
# 2 -0.003296 0.009242 -0.002749 0.000000 0.000000 0.000000
# 3 0.000611 -0.002749 0.014151 0.000000 0.000000 0.000000
# 4 0.000000 0.000000 0.000000 0.026768 0.000000 0.000000
# 5 0.000000 0.000000 0.000000 0.000000 0.028650 0.000000
# 6 0.000000 0.000000 0.000000 0.000000 0.000000 0.050588
#
#
# Mechanical properties :
#
#
# Convention : Reuss Voigt Hill
#
# Bulk Modulus (GPa) = 32.78238 38.88134 35.83186
# Shear Modulus (GPa) = 29.68895 32.47767 31.08331
#
# Velocity S-wave (km/s) = 3.62134 3.78760 3.70541
# Velocity P-wave (km/s) = 5.65385 6.02515 5.84245
#
# Compressibility (1/GPa) = 0.03050420
#
# Stress axis : x y z
#
# Youngs Moduli (GPa) = 55.62064 108.20347 70.66674
#
# Poissons Ratio (x) = 0.35669 -0.04319
# Poissons Ratio (y) = 0.18335 0.19423
# Poissons Ratio (z) = -0.03400 0.29740
#
# Static dielectric constant tensor:
#      x y z
#    x 1.930800 0.000000 0.000000 
#    y 0.000000 1.945970 0.000000 
#    z 0.000000 0.000000 1.864030 
# 
# From -- ./inp_files/30783.got.cif
#   From: 2010.05.17/outbox.cif.g08.bks.cpg/sg20_16_cif.got.tgz:30783.got - 2010.06.03 22:52:26.
