data_PCOD9320119
_publ_section_title
;
Structure prediction by ZEFSAII (Michael W. Deem and Ramdas Pophale) SiO2 
 PCOD9320119
Probable space group: C 2 2 21
;
_chemical_formula_sum "Si O2"
_cell_formula_units_Z 36
_cell_length_a 20.349777
_cell_length_b 5.350599
_cell_length_c 14.295603
_cell_angle_alpha 90.000000
_cell_angle_beta 90.000000
_cell_angle_gamma 90.000000
_cell_volume 1556.555239
_symmetry_space_group_name_H-M "C 2 2 21"
_symmetry_group_IT_number 20
_symmetry_cell_setting 'orthorhombic'
loop_
_space_group_symop_operation_xyz
x,y,z
-x,-y,1/2+z
x,-y,-z
-x,y,1/2-z
1/2+x,1/2+y,z
1/2-x,1/2-y,1/2+z
1/2+x,1/2-y,-z
1/2-x,1/2+y,1/2-z
loop_
_atom_site_type_symbol
_atom_site_label
_atom_site_fract_x
_atom_site_fract_y
_atom_site_fract_z
Si Si1 0.235120 0.939272 0.197062
Si Si2 0.947135 0.500000 0.500000
Si Si3 0.099618 0.892208 0.105669
Si Si4 0.154334 0.252678 0.439726
Si Si5 0.980105 0.804873 0.848002
O O1 0.238196 0.708982 0.270382
O O2 0.160180 0.975260 0.166047
O O3 0.279428 0.834436 0.112548
O O4 0.901208 0.399274 0.582572
O O5 0.994913 0.319219 0.443958
O O6 0.028707 0.954962 0.149853
O O7 0.105877 0.000000 0.000000
O O8 0.135491 0.500000 0.500000
O O9 0.097409 0.185038 0.364056
O O10 0.162649 0.000000 0.500000
O O11 0.000000 0.677412 0.750000
#
# Coordination Sequence:
#
# PCOD9320119 Si02
#       5
#     8   4   8   8   8
#     4  12  28  47  73 109 147 191 255 308 372 451
#     4  10  22  42  70  98 140 186 240 292 372 440
#     4  10  24  43  70  98 141 193 240 300 370 445
#     4  12  26  47  74 107 152 197 247 312 382 440
#     4  11  24  43  70 106 145 192 244 306 365 446
#
# _framework density 23.127996
#
# number of rings (size 3 to 8) (size 9 to 14) (size 15 to 20)
#    0.000    0.889    1.111    5.333   10.889    0.889 
#    0.000    0.000    0.000    0.000    0.000    0.000 
#    0.000    0.000    0.000    0.000    0.000    0.000 
#
# Total GULP energy -100373.456234 kJ/mol
# GULP energy per Si atom -5576.303124 kJ/mol
# Density = 2.307536 g / cm^3
# Si number density = 23.127996 Si / 1000 Ang^3
#
#
#
# Elastic Constant Matrix: (Units=GPa)
#
#
# Indices 1 2 3 4 5 6 
#
# 1 59.5371 15.4773 33.4188 0.0000 0.0000 0.0000
# 2 15.4773 73.9313 24.1388 0.0000 0.0000 0.0000
# 3 33.4188 24.1388 86.6984 0.0000 0.0000 0.0000
# 4 0.0000 0.0000 0.0000 37.4203 0.0000 0.0000
# 5 0.0000 0.0000 0.0000 0.0000 46.2923 0.0000
# 6 0.0000 0.0000 0.0000 0.0000 0.0000-1159.3221
#
#
#
# Elastic Compliance Matrix: (Units=1/GPa)
#
#
# Indices 1 2 3 4 5 6 
#
# 1 0.021697 -0.001993 -0.007809 0.000000 0.000000 0.000000
# 2 -0.001993 0.015062 -0.003425 0.000000 0.000000 0.000000
# 3 -0.007809 -0.003425 0.015498 0.000000 0.000000 0.000000
# 4 0.000000 0.000000 0.000000 0.026723 0.000000 0.000000
# 5 0.000000 0.000000 0.000000 0.000000 0.021602 0.000000
# 6 0.000000 0.000000 0.000000 0.000000 0.000000 -0.000863
#
#
# Mechanical properties :
#
#
# Convention : Reuss Voigt Hill
#
# Bulk Modulus (GPa) = 38.75468 40.69295 39.72382
# Shear Modulus (GPa) = 37.09909 -205.31311 -84.10701
#
# Velocity S-wave (km/s) = 4.00944 -9.43214 -6.03696
# Velocity P-wave (km/s) = 6.18281 10.04925 5.60180
#
# Compressibility (1/GPa) = 0.02580334
#
# Stress axis : x y z
#
# Youngs Moduli (GPa) = 46.08863 66.39386 64.52511
#
# Poissons Ratio (x) = 0.13231 0.50385
# Poissons Ratio (y) = 0.09184 0.22102
# Poissons Ratio (z) = 0.35989 0.22742
#
# Static dielectric constant tensor:
#      x y z
#    x 1.877320 0.000000 0.000000 
#    y 0.000000 2.199680 0.000000 
#    z 0.000000 0.000000 2.021200 
# 
# From -- ./inp_files/21584.got.cif
#   From: 2010.05.17/outbox.cif.g08.bks.cpg/sg20_11_cif.got.tgz:21584.got - 2010.06.03 22:52:26.
