data_PCOD9320368
_publ_section_title
;
Structure prediction by ZEFSAII (Michael W. Deem and Ramdas Pophale) SiO2 
 PCOD9320368
Probable space group: C 2 2 21
;
_chemical_formula_sum "Si O2"
_cell_formula_units_Z 48
_cell_length_a 7.470660
_cell_length_b 14.281748
_cell_length_c 18.572722
_cell_angle_alpha 90.000000
_cell_angle_beta 90.000000
_cell_angle_gamma 90.000000
_cell_volume 1981.599552
_symmetry_space_group_name_H-M "C 2 2 21"
_symmetry_group_IT_number 20
_symmetry_cell_setting 'orthorhombic'
loop_
_space_group_symop_operation_xyz
x,y,z
-x,-y,1/2+z
x,-y,-z
-x,y,1/2-z
1/2+x,1/2+y,z
1/2-x,1/2-y,1/2+z
1/2+x,1/2-y,-z
1/2-x,1/2+y,1/2-z
loop_
_atom_site_type_symbol
_atom_site_label
_atom_site_fract_x
_atom_site_fract_y
_atom_site_fract_z
Si Si1 0.229759 0.353993 0.045301
Si Si2 0.067012 0.827151 0.117457
Si Si3 0.564436 0.000000 0.500000
Si Si4 0.906151 0.235702 0.091892
Si Si5 0.000000 0.067408 0.750000
Si Si6 0.101108 0.377643 0.634285
Si Si7 0.764638 0.898111 0.787563
O O1 0.402236 0.387734 0.089334
O O2 0.109106 0.267497 0.077265
O O3 0.075568 0.428604 0.035744
O O4 0.327951 0.330062 0.970500
O O5 0.262735 0.821240 0.084227
O O6 0.100859 0.862780 0.197164
O O7 0.974577 0.724478 0.110759
O O8 0.658131 0.058445 0.434151
O O9 0.865739 0.183001 0.167054
O O10 0.132202 0.994892 0.713058
O O11 0.231796 0.371191 0.703424
O O12 0.921608 0.417217 0.671876
#
# Coordination Sequence:
#
# PCOD9320368 Si02
#       7
#     8   8   4   8   4   8   8
#     4  12  24  43  76 105 141 190 240 304 381 432
#     4  11  24  46  68 104 145 185 239 299 365 446
#     4  12  22  42  72 112 142 186 250 316 366 448
#     4  11  23  47  70 105 146 188 242 301 379 446
#     4  12  26  44  68 104 138 190 250 302 362 442
#     4  10  22  46  71  97 150 191 236 310 373 438
#     4  10  23  44  69 100 142 191 244 302 371 439
#
# _framework density 24.222857999999999
#
# number of rings (size 3 to 8) (size 9 to 14) (size 15 to 20)
#    0.000    1.000    5.000    3.000    4.667    0.000 
#    0.000    0.833    0.000    0.000    0.000    0.000 
#    0.000    0.000    0.000    0.000    0.000    0.000 
#
# Total GULP energy -133869.807439 kJ/mol
# GULP energy per Si atom -5577.908643 kJ/mol
# Density = 2.416773 g / cm^3
# Si number density = 24.222858 Si / 1000 Ang^3
#
#
#
# Elastic Constant Matrix: (Units=GPa)
#
#
# Indices 1 2 3 4 5 6 
#
# 1 131.8463 17.1324 34.5704 0.0000 0.0000 0.0000
# 2 17.1324 42.3303 24.4691 0.0000 0.0000 0.0000
# 3 34.5704 24.4691 112.9151 0.0000 0.0000 0.0000
# 4 0.0000 0.0000 0.0000 37.3902 0.0000 0.0000
# 5 0.0000 0.0000 0.0000 0.0000 22.3218 0.0000
# 6 0.0000 0.0000 0.0000 0.0000 0.0000 2.9570
#
#
#
# Elastic Compliance Matrix: (Units=1/GPa)
#
#
# Indices 1 2 3 4 5 6 
#
# 1 0.008421 -0.002193 -0.002103 0.000000 0.000000 0.000000
# 2 -0.002193 0.027578 -0.005305 0.000000 0.000000 0.000000
# 3 -0.002103 -0.005305 0.010650 0.000000 0.000000 0.000000
# 4 0.000000 0.000000 0.000000 0.026745 0.000000 0.000000
# 5 0.000000 0.000000 0.000000 0.000000 0.044799 0.000000
# 6 0.000000 0.000000 0.000000 0.000000 0.000000 0.338181
#
#
# Mechanical properties :
#
#
# Convention : Reuss Voigt Hill
#
# Bulk Modulus (GPa) = 36.43351 48.82617 42.62984
# Shear Modulus (GPa) = 10.31516 26.59513 18.45514
#
# Velocity S-wave (km/s) = 2.06584 3.31711 2.76323
# Velocity P-wave (km/s) = 4.55674 5.90523 5.27426
#
# Compressibility (1/GPa) = 0.02744726
#
# Stress axis : x y z
#
# Youngs Moduli (GPa) = 118.75195 36.26127 93.89963
#
# Poissons Ratio (x) = 0.07950 0.19747
# Poissons Ratio (y) = 0.26037 0.49813
# Poissons Ratio (z) = 0.24974 0.19236
#
# Static dielectric constant tensor:
#      x y z
#    x 1.962340 0.000000 0.000000 
#    y 0.000000 2.012610 0.000000 
#    z 0.000000 0.000000 2.169200 
# 
# From -- ./inp_files/23525.got.cif
#   From: 2010.05.17/outbox.cif.g08.bks.cpg/sg20_12_cif.got.tgz:23525.got - 2010.06.03 22:52:26.
