data_PCOD9320503
_publ_section_title
;
Structure prediction by ZEFSAII (Michael W. Deem and Ramdas Pophale) SiO2 
 PCOD9320503
Probable space group: C 2 2 21
;
_chemical_formula_sum "Si O2"
_cell_formula_units_Z 56
_cell_length_a 21.486642
_cell_length_b 13.908325
_cell_length_c 9.236935
_cell_angle_alpha 90.000000
_cell_angle_beta 90.000000
_cell_angle_gamma 90.000000
_cell_volume 2760.395214
_symmetry_space_group_name_H-M "C 2 2 21"
_symmetry_group_IT_number 20
_symmetry_cell_setting 'orthorhombic'
loop_
_space_group_symop_operation_xyz
x,y,z
-x,-y,1/2+z
x,-y,-z
-x,y,1/2-z
1/2+x,1/2+y,z
1/2-x,1/2-y,1/2+z
1/2+x,1/2-y,-z
1/2-x,1/2+y,1/2-z
loop_
_atom_site_type_symbol
_atom_site_label
_atom_site_fract_x
_atom_site_fract_y
_atom_site_fract_z
Si Si1 0.874970 0.717243 0.795195
Si Si2 0.665594 0.596659 0.410324
Si Si3 0.756454 0.007669 0.672311
Si Si4 0.155367 0.624251 0.221496
Si Si5 0.436135 0.889417 0.958484
Si Si6 0.762891 0.801048 0.171796
Si Si7 0.427387 0.115790 0.527106
O O1 0.884866 0.825558 0.856436
O O2 0.882438 0.655557 0.940892
O O3 0.808700 0.719967 0.713014
O O4 0.920009 0.660432 0.686239
O O5 0.647145 0.500000 0.500000
O O6 0.697402 0.559920 0.263082
O O7 0.714733 0.654560 0.516205
O O8 0.690590 0.975831 0.744636
O O9 0.754115 0.000000 0.500000
O O10 0.776758 0.114096 0.714697
O O11 0.088750 0.619893 0.298005
O O12 0.197011 0.707532 0.290882
O O13 0.135260 0.644965 0.058776
O O14 0.504848 0.847493 0.977421
O O15 0.440093 0.000000 0.000000
O O16 0.427620 0.000000 0.500000
#
# Coordination Sequence:
#
# PCOD9320503 Si02
#       7
#     8   8   8   8   8   8   8
#     4  12  22  39  66  91 127 172 216 265 324 396
#     4  10  23  42  58  90 131 169 209 271 330 392
#     4  11  23  36  60  93 128 166 207 260 325 397
#     4  12  22  39  61  92 133 169 205 264 322 402
#     4  11  23  41  62  92 129 173 216 261 320 395
#     4  11  23  37  60  94 126 167 209 255 341 393
#     4  11  25  40  61  95 132 174 218 264 321 395
#
# _framework density 20.286949
#
# number of rings (size 3 to 8) (size 9 to 14) (size 15 to 20)
#    0.000    0.857    2.857    5.571    2.000    3.429 
#    0.000    0.000    0.000    0.000   14.857    0.000 
#    0.000    0.000    0.000    0.000    0.000    0.000 
#
# Total GULP energy -156056.434211 kJ/mol
# GULP energy per Si atom -5573.444079 kJ/mol
# Density = 2.024077 g / cm^3
# Si number density = 20.286949 Si / 1000 Ang^3
#
#
#
# Elastic Constant Matrix: (Units=GPa)
#
#
# Indices 1 2 3 4 5 6 
#
# 1 55.8216 20.2508 8.0135 0.0000 0.0000 0.0000
# 2 20.2508 90.3987 17.4537 0.0000 0.0000 0.0000
# 3 8.0135 17.4537 101.6663 0.0000 0.0000 0.0000
# 4 0.0000 0.0000 0.0000 31.2757 0.0000 0.0000
# 5 0.0000 0.0000 0.0000 0.0000 20.3563 0.0000
# 6 0.0000 0.0000 0.0000 0.0000 0.0000 15.7426
#
#
#
# Elastic Compliance Matrix: (Units=1/GPa)
#
#
# Indices 1 2 3 4 5 6 
#
# 1 0.019564 -0.004225 -0.000817 0.000000 0.000000 0.000000
# 2 -0.004225 0.012354 -0.001788 0.000000 0.000000 0.000000
# 3 -0.000817 -0.001788 0.010207 0.000000 0.000000 0.000000
# 4 0.000000 0.000000 0.000000 0.031974 0.000000 0.000000
# 5 0.000000 0.000000 0.000000 0.000000 0.049125 0.000000
# 6 0.000000 0.000000 0.000000 0.000000 0.000000 0.063522
#
#
# Mechanical properties :
#
#
# Convention : Reuss Voigt Hill
#
# Bulk Modulus (GPa) = 35.12939 37.70251 36.41595
# Shear Modulus (GPa) = 23.82156 26.95281 25.38719
#
# Velocity S-wave (km/s) = 3.43042 3.64892 3.54136
# Velocity P-wave (km/s) = 5.74841 6.03140 5.89161
#
# Compressibility (1/GPa) = 0.02846619
#
# Stress axis : x y z
#
# Youngs Moduli (GPa) = 51.11379 80.94697 97.96812
#
# Poissons Ratio (x) = 0.34200 0.08001
# Poissons Ratio (y) = 0.21596 0.17515
# Poissons Ratio (z) = 0.04175 0.14472
#
# Static dielectric constant tensor:
#      x y z
#    x 1.739590 0.000000 0.000000 
#    y 0.000000 1.744850 0.000000 
#    z 0.000000 0.000000 1.748530 
# 
# From -- ./inp_files/10190.got.cif
#   From: 2010.05.17/outbox.cif.g08.bks.cpg/sg20_6_cif.got.tgz:10190.got - 2010.06.03 22:52:26.
