data_PCOD9320933
_publ_section_title
;
Structure prediction by ZEFSAII (Michael W. Deem and Ramdas Pophale) SiO2 
 PCOD9320933
Probable space group: C 2 2 21
;
_chemical_formula_sum "Si O2"
_cell_formula_units_Z 40
_cell_length_a 12.427536
_cell_length_b 7.462852
_cell_length_c 18.732544
_cell_angle_alpha 90.000000
_cell_angle_beta 90.000000
_cell_angle_gamma 90.000000
_cell_volume 1737.347206
_symmetry_space_group_name_H-M "C 2 2 21"
_symmetry_group_IT_number 20
_symmetry_cell_setting 'orthorhombic'
loop_
_space_group_symop_operation_xyz
x,y,z
-x,-y,1/2+z
x,-y,-z
-x,y,1/2-z
1/2+x,1/2+y,z
1/2-x,1/2-y,1/2+z
1/2+x,1/2-y,-z
1/2-x,1/2+y,1/2-z
loop_
_atom_site_type_symbol
_atom_site_label
_atom_site_fract_x
_atom_site_fract_y
_atom_site_fract_z
Si Si1 0.289504 0.797855 0.472071
Si Si2 0.539661 0.220547 0.080804
Si Si3 0.382677 0.000000 0.000000
Si Si4 0.560511 0.502739 0.681831
Si Si5 0.500000 0.834976 0.250000
Si Si6 0.190775 0.516636 0.828313
O O1 0.401144 0.733770 0.507021
O O2 0.196041 0.670265 0.501137
O O3 0.299589 0.823251 0.387217
O O4 0.270016 0.000000 0.500000
O O5 0.472199 0.380770 0.114261
O O6 0.635535 0.151773 0.131816
O O7 0.461782 0.051647 0.065105
O O8 0.500000 0.589417 0.750000
O O9 0.516915 0.300551 0.683749
O O10 0.687252 0.488779 0.694894
O O11 0.391712 0.940663 0.265221
#
# Coordination Sequence:
#
# PCOD9320933 Si02
#       6
#     8   8   4   8   4   8
#     4  10  24  45  69 106 139 175 230 290 345 421
#     4  11  24  45  66 104 137 175 227 291 348 409
#     4  12  22  44  72 102 138 182 218 276 366 404
#     4  10  26  43  65  96 134 181 232 273 338 412
#     4  10  28  40  64 102 122 188 234 268 348 408
#     4  11  23  46  66  96 139 173 232 287 338 410
#
# _framework density 23.023607999999999
#
# number of rings (size 3 to 8) (size 9 to 14) (size 15 to 20)
#    0.600    0.800    5.000    0.000    7.000    3.200 
#    1.800    0.000    0.000    0.000    0.000    0.000 
#    0.000    0.000    0.000    0.000    0.000    0.000 
#
# Total GULP energy -111648.048104 kJ/mol
# GULP energy per Si atom -5582.402405 kJ/mol
# Density = 2.297121 g / cm^3
# Si number density = 23.023608 Si / 1000 Ang^3
#
#
#
# Elastic Constant Matrix: (Units=GPa)
#
#
# Indices 1 2 3 4 5 6 
#
# 1 167.1000 26.3284 11.4947 0.0000 0.0000 0.0000
# 2 26.3284 40.8714 0.8813 0.0000 0.0000 0.0000
# 3 11.4947 0.8813 25.2528 0.0000 0.0000 0.0000
# 4 0.0000 0.0000 0.0000 18.9620 0.0000 0.0000
# 5 0.0000 0.0000 0.0000 0.0000 40.9526 0.0000
# 6 0.0000 0.0000 0.0000 0.0000 0.0000 24.3898
#
#
#
# Elastic Compliance Matrix: (Units=1/GPa)
#
#
# Indices 1 2 3 4 5 6 
#
# 1 0.006877 -0.004366 -0.002978 0.000000 0.000000 0.000000
# 2 -0.004366 0.027257 0.001036 0.000000 0.000000 0.000000
# 3 -0.002978 0.001036 0.040919 0.000000 0.000000 0.000000
# 4 0.000000 0.000000 0.000000 0.052737 0.000000 0.000000
# 5 0.000000 0.000000 0.000000 0.000000 0.024418 0.000000
# 6 0.000000 0.000000 0.000000 0.000000 0.000000 0.041001
#
#
# Mechanical properties :
#
#
# Convention : Reuss Voigt Hill
#
# Bulk Modulus (GPa) = 16.01606 34.51479 25.26542
# Shear Modulus (GPa) = 22.06163 29.82887 25.94525
#
# Velocity S-wave (km/s) = 3.09887 3.60332 3.36057
# Velocity P-wave (km/s) = 4.44696 5.68643 5.10445
#
# Compressibility (1/GPa) = 0.06243734
#
# Stress axis : x y z
#
# Youngs Moduli (GPa) = 145.40817 36.68778 24.43854
#
# Poissons Ratio (x) = 0.16018 0.07278
# Poissons Ratio (y) = 0.63484 -0.02532
# Poissons Ratio (z) = 0.43303 -0.03801
#
# Static dielectric constant tensor:
#      x y z
#    x 1.850920 0.000000 0.000000 
#    y 0.000000 1.846460 0.000000 
#    z 0.000000 0.000000 1.944600 
# 
# From -- ./inp_files/23209.got.cif
#   From: 2010.05.17/outbox.cif.g08.bks.cpg/sg20_12_cif.got.tgz:23209.got - 2010.06.03 22:52:26.
