data_PCOD9320485
_publ_section_title
;
Structure prediction by ZEFSAII (Michael W. Deem and Ramdas Pophale) SiO2 
 PCOD9320485
Probable space group: C 2 2 21
;
_chemical_formula_sum "Si O2"
_cell_formula_units_Z 48
_cell_length_a 5.079763
_cell_length_b 13.225144
_cell_length_c 29.914439
_cell_angle_alpha 90.000000
_cell_angle_beta 90.000000
_cell_angle_gamma 90.000000
_cell_volume 2009.669876
_symmetry_space_group_name_H-M "C 2 2 21"
_symmetry_group_IT_number 20
_symmetry_cell_setting 'orthorhombic'
loop_
_space_group_symop_operation_xyz
x,y,z
-x,-y,1/2+z
x,-y,-z
-x,y,1/2-z
1/2+x,1/2+y,z
1/2-x,1/2-y,1/2+z
1/2+x,1/2-y,-z
1/2-x,1/2+y,1/2-z
loop_
_atom_site_type_symbol
_atom_site_label
_atom_site_fract_x
_atom_site_fract_y
_atom_site_fract_z
Si Si1 0.076494 0.396946 0.405855
Si Si2 0.586777 0.633007 0.702544
Si Si3 0.926602 0.253207 0.175610
Si Si4 0.644740 0.816349 0.496343
Si Si5 0.970846 0.044162 0.364245
Si Si6 0.269712 0.460947 0.954572
O O1 0.042170 0.306037 0.372569
O O2 0.238708 0.362384 0.449080
O O3 0.820826 0.436057 0.430678
O O4 0.196815 0.492312 0.379134
O O5 0.500000 0.587313 0.750000
O O6 0.863502 0.688367 0.705660
O O7 0.598907 0.549404 0.663351
O O8 0.367758 0.717813 0.690228
O O9 0.007566 0.137682 0.169315
O O10 0.911620 0.765183 0.514578
O O11 0.483974 0.895294 0.528242
O O12 0.084636 0.084397 0.411759
O O13 0.407227 0.500000 0.000000
#
# Coordination Sequence:
#
# PCOD9320485 Si02
#       6
#     8   8   8   8   8   8
#     4  10  24  42  65 101 143 184 238 295 346 411
#     4  11  26  48  73 107 143 178 234 299 358 431
#     4  11  25  45  75 104 141 185 231 288 361 424
#     4  11  26  41  64 100 140 193 248 291 341 408
#     4  11  25  45  76 102 146 190 234 294 357 425
#     4  10  23  41  67  98 144 191 235 292 344 411
#
# _framework density 23.884519999999998
#
# number of rings (size 3 to 8) (size 9 to 14) (size 15 to 20)
#    0.000    1.333    1.667    1.500   11.667    2.000 
#    0.000    0.000    0.000    0.000    0.000    0.000 
#    0.000    0.000    0.000    0.000    0.000    0.000 
#
# Total GULP energy -133925.717363 kJ/mol
# GULP energy per Si atom -5580.238223 kJ/mol
# Density = 2.383016 g / cm^3
# Si number density = 23.884520 Si / 1000 Ang^3
#
#
#
# Elastic Constant Matrix: (Units=GPa)
#
#
# Indices 1 2 3 4 5 6 
#
# 1 100.1011 31.6857 28.0004 0.0000 0.0000 0.0000
# 2 31.6857 88.9989 29.9631 0.0000 0.0000 0.0000
# 3 28.0004 29.9631 122.6728 0.0000 0.0000 0.0000
# 4 0.0000 0.0000 0.0000 12.8430 0.0000 0.0000
# 5 0.0000 0.0000 0.0000 0.0000 40.3079 0.0000
# 6 0.0000 0.0000 0.0000 0.0000 0.0000 30.0969
#
#
#
# Elastic Compliance Matrix: (Units=1/GPa)
#
#
# Indices 1 2 3 4 5 6 
#
# 1 0.011607 -0.003531 -0.001787 0.000000 0.000000 0.000000
# 2 -0.003531 0.013317 -0.002447 0.000000 0.000000 0.000000
# 3 -0.001787 -0.002447 0.009157 0.000000 0.000000 0.000000
# 4 0.000000 0.000000 0.000000 0.077863 0.000000 0.000000
# 5 0.000000 0.000000 0.000000 0.000000 0.024809 0.000000
# 6 0.000000 0.000000 0.000000 0.000000 0.000000 0.033226
#
#
# Mechanical properties :
#
#
# Convention : Reuss Voigt Hill
#
# Bulk Modulus (GPa) = 53.90156 54.56347 54.23252
# Shear Modulus (GPa) = 26.08331 31.45780 28.77056
#
# Velocity S-wave (km/s) = 3.30822 3.63310 3.47446
# Velocity P-wave (km/s) = 6.09992 6.36345 6.23307
#
# Compressibility (1/GPa) = 0.01855234
#
# Stress axis : x y z
#
# Youngs Moduli (GPa) = 86.15175 75.09247 109.20279
#
# Poissons Ratio (x) = 0.26514 0.19515
# Poissons Ratio (y) = 0.30419 0.26719
# Poissons Ratio (z) = 0.15395 0.18373
#
# Static dielectric constant tensor:
#      x y z
#    x 1.978930 0.000000 0.000000 
#    y 0.000000 1.975680 0.000000 
#    z 0.000000 0.000000 2.006690 
# 
# From -- ./inp_files/29833.got.cif
#   From: 2010.05.17/outbox.cif.g08.bks.cpg/sg20_15_cif.got.tgz:29833.got - 2010.06.03 22:52:26.
