data_PCOD9320290
_publ_section_title
;
Structure prediction by ZEFSAII (Michael W. Deem and Ramdas Pophale) SiO2 
 PCOD9320290
Probable space group: C 2 2 21
;
_chemical_formula_sum "Si O2"
_cell_formula_units_Z 56
_cell_length_a 14.261788
_cell_length_b 12.585856
_cell_length_c 15.015862
_cell_angle_alpha 90.000000
_cell_angle_beta 90.000000
_cell_angle_gamma 90.000000
_cell_volume 2695.299329
_symmetry_space_group_name_H-M "C 2 2 21"
_symmetry_group_IT_number 20
_symmetry_cell_setting 'orthorhombic'
loop_
_space_group_symop_operation_xyz
x,y,z
-x,-y,1/2+z
x,-y,-z
-x,y,1/2-z
1/2+x,1/2+y,z
1/2-x,1/2-y,1/2+z
1/2+x,1/2-y,-z
1/2-x,1/2+y,1/2-z
loop_
_atom_site_type_symbol
_atom_site_label
_atom_site_fract_x
_atom_site_fract_y
_atom_site_fract_z
Si Si1 0.802139 0.454048 0.728484
Si Si2 0.722777 0.437562 0.094052
Si Si3 0.645207 0.444852 0.582038
Si Si4 0.043981 0.534131 0.899400
Si Si5 0.511194 0.398725 0.149391
Si Si6 0.578737 0.830767 0.649465
Si Si7 0.113608 0.704789 0.550108
O O1 0.762153 0.498858 0.821034
O O2 0.715590 0.432857 0.664009
O O3 0.871232 0.532999 0.672144
O O4 0.858411 0.350000 0.763252
O O5 0.614620 0.411649 0.111006
O O6 0.790138 0.335498 0.092785
O O7 0.732677 0.500000 0.000000
O O8 0.699627 0.500000 0.500000
O O9 0.563421 0.529691 0.598206
O O10 0.602426 0.329496 0.563278
O O11 0.979739 0.438646 0.862191
O O12 0.975325 0.636136 0.913332
O O13 0.073350 0.500000 0.000000
O O14 0.500000 0.438598 0.250000
O O15 0.481851 0.275651 0.151745
O O16 0.628929 0.818834 0.554484
#
# Coordination Sequence:
#
# PCOD9320290 Si02
#       7
#     8   8   8   8   8   8   8
#     4  12  24  45  74 109 142 182 245 301 358 427
#     4  12  25  47  73 102 142 193 241 289 359 441
#     4  12  27  49  69 104 150 187 236 303 354 429
#     4  10  22  44  74 105 135 182 238 296 364 417
#     4  12  26  47  71 103 144 192 242 288 368 434
#     4  11  23  45  75 101 143 188 237 298 356 431
#     4  11  24  47  75 103 145 188 238 298 363 430
#
# _framework density 20.776913
#
# number of rings (size 3 to 8) (size 9 to 14) (size 15 to 20)
#    0.000    0.571    5.714    2.571    4.000    0.000 
#    2.571    1.429    0.000    0.000    0.000    0.000 
#    0.000    0.000    0.000    0.000    0.000    0.000 
#
# Total GULP energy -156312.771712 kJ/mol
# GULP energy per Si atom -5582.598990 kJ/mol
# Density = 2.072962 g / cm^3
# Si number density = 20.776913 Si / 1000 Ang^3
#
#
#
# Elastic Constant Matrix: (Units=GPa)
#
#
# Indices 1 2 3 4 5 6 
#
# 1 125.8394 62.6850 58.9689 0.0000 0.0000 0.0000
# 2 62.6850 147.6070 51.9757 0.0000 0.0000 0.0000
# 3 58.9689 51.9757 142.4274 0.0000 0.0000 0.0000
# 4 0.0000 0.0000 0.0000 26.3796 0.0000 0.0000
# 5 0.0000 0.0000 0.0000 0.0000 44.6208 0.0000
# 6 0.0000 0.0000 0.0000 0.0000 0.0000 17.6663
#
#
#
# Elastic Compliance Matrix: (Units=1/GPa)
#
#
# Indices 1 2 3 4 5 6 
#
# 1 0.011331 -0.003626 -0.003368 0.000000 0.000000 0.000000
# 2 -0.003626 0.008934 -0.001759 0.000000 0.000000 0.000000
# 3 -0.003368 -0.001759 0.009058 0.000000 0.000000 0.000000
# 4 0.000000 0.000000 0.000000 0.037908 0.000000 0.000000
# 5 0.000000 0.000000 0.000000 0.000000 0.022411 0.000000
# 6 0.000000 0.000000 0.000000 0.000000 0.000000 0.056605
#
#
# Mechanical properties :
#
#
# Convention : Reuss Voigt Hill
#
# Bulk Modulus (GPa) = 84.62868 84.79254 84.71061
# Shear Modulus (GPa) = 29.81653 33.88297 31.84975
#
# Velocity S-wave (km/s) = 3.79235 4.04270 3.91952
# Velocity P-wave (km/s) = 7.74574 7.91775 7.83221
#
# Compressibility (1/GPa) = 0.01181632
#
# Stress axis : x y z
#
# Youngs Moduli (GPa) = 88.25139 111.93162 110.40519
#
# Poissons Ratio (x) = 0.40587 0.37187
# Poissons Ratio (y) = 0.32001 0.19420
# Poissons Ratio (z) = 0.29725 0.19688
#
# Static dielectric constant tensor:
#      x y z
#    x 1.781770 0.000000 0.000000 
#    y 0.000000 1.720070 0.000000 
#    z 0.000000 0.000000 1.883080 
# 
# From -- ./inp_files/20749.got.cif
#   From: 2010.05.17/outbox.cif.g08.bks.cpg/sg20_11_cif.got.tgz:20749.got - 2010.06.03 22:52:26.
