data_PCOD9320095
_publ_section_title
;
Structure prediction by ZEFSAII (Michael W. Deem and Ramdas Pophale) SiO2 
 PCOD9320095
Probable space group: C 2 2 21
;
_chemical_formula_sum "Si O2"
_cell_formula_units_Z 48
_cell_length_a 7.994100
_cell_length_b 16.755640
_cell_length_c 13.554216
_cell_angle_alpha 90.000000
_cell_angle_beta 90.000000
_cell_angle_gamma 90.000000
_cell_volume 1815.536564
_symmetry_space_group_name_H-M "C 2 2 21"
_symmetry_group_IT_number 20
_symmetry_cell_setting 'orthorhombic'
loop_
_space_group_symop_operation_xyz
x,y,z
-x,-y,1/2+z
x,-y,-z
-x,y,1/2-z
1/2+x,1/2+y,z
1/2-x,1/2-y,1/2+z
1/2+x,1/2-y,-z
1/2-x,1/2+y,1/2-z
loop_
_atom_site_type_symbol
_atom_site_label
_atom_site_fract_x
_atom_site_fract_y
_atom_site_fract_z
Si Si1 0.717390 0.721584 0.038525
Si Si2 0.199675 0.759486 0.744804
Si Si3 0.213233 0.412303 0.875504
Si Si4 0.583518 0.078666 0.535659
Si Si5 0.087221 0.126312 0.538345
Si Si6 0.000000 0.479301 0.250000
Si Si7 0.500000 0.366594 0.250000
O O1 0.734107 0.695543 0.151898
O O2 0.749667 0.815875 0.049104
O O3 0.837368 0.664995 0.976095
O O4 0.542871 0.694155 0.994342
O O5 0.252029 0.823006 0.662004
O O6 0.333553 0.688044 0.737353
O O7 0.000000 0.741553 0.750000
O O8 0.158699 0.466398 0.783146
O O9 0.373035 0.428482 0.944880
O O10 0.060194 0.424443 0.951637
O O11 0.537775 0.068370 0.650149
O O12 0.689832 0.000000 0.500000
O O13 0.033170 0.092551 0.644263
#
# Coordination Sequence:
#
# PCOD9320095 Si02
#       7
#     8   8   8   8   8   4   4
#     4  11  22  38  64 101 142 183 237 291 366 437
#     4  11  20  37  64  98 139 190 238 278 353 442
#     4  11  21  42  69  99 134 184 244 296 376 449
#     4  10  22  42  68  96 134 185 238 304 365 439
#     4  11  23  39  65 101 147 190 232 304 371 447
#     4  10  23  44  76  96 132 186 253 306 376 448
#     4  10  23  38  56  96 154 190 225 292 352 434
#
# _framework density 26.438465999999998
#
# number of rings (size 3 to 8) (size 9 to 14) (size 15 to 20)
#    0.000    1.333    1.667    6.500    0.000    1.333 
#    0.000    4.167    0.000    0.000    0.000    0.000 
#    0.000    0.000    0.000    0.000    0.000    0.000 
#
# Total GULP energy -134078.466085 kJ/mol
# GULP energy per Si atom -5586.602754 kJ/mol
# Density = 2.637829 g / cm^3
# Si number density = 26.438466 Si / 1000 Ang^3
#
#
#
# Elastic Constant Matrix: (Units=GPa)
#
#
# Indices 1 2 3 4 5 6 
#
# 1 104.1760 28.2627 31.2467 0.0000 0.0000 0.0000
# 2 28.2627 90.3386 39.5593 0.0000 0.0000 0.0000
# 3 31.2467 39.5593 204.4674 0.0000 0.0000 0.0000
# 4 0.0000 0.0000 0.0000 44.5331 0.0000 0.0000
# 5 0.0000 0.0000 0.0000 0.0000 44.2153 0.0000
# 6 0.0000 0.0000 0.0000 0.0000 0.0000 7.5158
#
#
#
# Elastic Compliance Matrix: (Units=1/GPa)
#
#
# Indices 1 2 3 4 5 6 
#
# 1 0.010703 -0.002876 -0.001079 0.000000 0.000000 0.000000
# 2 -0.002876 0.012867 -0.002050 0.000000 0.000000 0.000000
# 3 -0.001079 -0.002050 0.005452 0.000000 0.000000 0.000000
# 4 0.000000 0.000000 0.000000 0.022455 0.000000 0.000000
# 5 0.000000 0.000000 0.000000 0.000000 0.022617 0.000000
# 6 0.000000 0.000000 0.000000 0.000000 0.000000 0.133053
#
#
# Mechanical properties :
#
#
# Convention : Reuss Voigt Hill
#
# Bulk Modulus (GPa) = 58.78156 66.34659 62.56408
# Shear Modulus (GPa) = 22.23925 39.24707 30.74316
#
# Velocity S-wave (km/s) = 2.90344 3.85706 3.41371
# Velocity P-wave (km/s) = 5.78978 6.70709 6.26525
#
# Compressibility (1/GPa) = 0.01701214
#
# Stress axis : x y z
#
# Youngs Moduli (GPa) = 93.43117 77.71909 183.40917
#
# Poissons Ratio (x) = 0.22351 0.19794
# Poissons Ratio (y) = 0.26870 0.37597
# Poissons Ratio (z) = 0.10083 0.15932
#
# Static dielectric constant tensor:
#      x y z
#    x 2.222710 0.000000 0.000000 
#    y 0.000000 2.103140 0.000000 
#    z 0.000000 0.000000 2.143900 
# 
# From -- ./inp_files/19077.got.cif
#   From: 2010.05.17/outbox.cif.g08.bks.cpg/sg20_10_cif.got.tgz:19077.got - 2010.06.03 22:52:26.
