data_PCOD9320347
_publ_section_title
;
Structure prediction by ZEFSAII (Michael W. Deem and Ramdas Pophale) SiO2 
 PCOD9320347
Probable space group: C 2 2 21
;
_chemical_formula_sum "Si O2"
_cell_formula_units_Z 32
_cell_length_a 12.757347
_cell_length_b 12.054895
_cell_length_c 10.574309
_cell_angle_alpha 90.000000
_cell_angle_beta 90.000000
_cell_angle_gamma 90.000000
_cell_volume 1626.206893
_symmetry_space_group_name_H-M "C 2 2 21"
_symmetry_group_IT_number 20
_symmetry_cell_setting 'orthorhombic'
loop_
_space_group_symop_operation_xyz
x,y,z
-x,-y,1/2+z
x,-y,-z
-x,y,1/2-z
1/2+x,1/2+y,z
1/2-x,1/2-y,1/2+z
1/2+x,1/2-y,-z
1/2-x,1/2+y,1/2-z
loop_
_atom_site_type_symbol
_atom_site_label
_atom_site_fract_x
_atom_site_fract_y
_atom_site_fract_z
Si Si1 0.500000 0.960124 0.750000
Si Si2 0.892154 0.500000 0.000000
Si Si3 0.202472 0.844016 0.015840
Si Si4 0.881494 0.976179 0.705816
Si Si5 0.701189 0.095993 0.103012
O O1 0.542691 0.023428 0.626513
O O2 0.399895 0.896103 0.694577
O O3 0.814773 0.396484 0.979722
O O4 0.211776 0.714815 0.037877
O O5 0.163700 0.912365 0.139297
O O6 0.125911 0.881847 0.902974
O O7 0.803082 0.938361 0.816353
O O8 0.000000 0.991621 0.750000
O O9 0.683818 0.000000 0.000000
#
# Coordination Sequence:
#
# PCOD9320347 Si02
#       5
#     4   4   8   8   8
#     4  12  22  44  66 102 134 176 224 274 336 408
#     4  10  22  46  66  96 142 172 226 278 340 400
#     4  10  24  46  66  99 137 176 219 282 334 399
#     4  10  24  47  68  98 135 175 227 277 334 401
#     4  12  27  42  71 102 133 179 227 273 345 406
#
# _framework density 19.677695
#
# number of rings (size 3 to 8) (size 9 to 14) (size 15 to 20)
#    0.000    1.500    6.250    0.000    8.750    2.000 
#    4.500    0.000    0.000    0.000    0.000    0.000 
#    0.000    0.000    0.000    0.000    0.000    0.000 
#
# Total GULP energy -89279.680049 kJ/mol
# GULP energy per Si atom -5579.980003 kJ/mol
# Density = 1.963291 g / cm^3
# Si number density = 19.677695 Si / 1000 Ang^3
#
#
#
# Elastic Constant Matrix: (Units=GPa)
#
#
# Indices 1 2 3 4 5 6 
#
# 1 116.4469 28.2322 39.7626 0.0000 0.0000 0.0000
# 2 28.2322 146.9559 56.3018 0.0000 0.0000 0.0000
# 3 39.7626 56.3018 109.1418 0.0000 0.0000 0.0000
# 4 0.0000 0.0000 0.0000 20.8720 0.0000 0.0000
# 5 0.0000 0.0000 0.0000 0.0000 69.2867 0.0000
# 6 0.0000 0.0000 0.0000 0.0000 0.0000 1.1851
#
#
#
# Elastic Compliance Matrix: (Units=1/GPa)
#
#
# Indices 1 2 3 4 5 6 
#
# 1 0.009857 -0.000645 -0.003258 0.000000 0.000000 0.000000
# 2 -0.000645 0.008523 -0.004162 0.000000 0.000000 0.000000
# 3 -0.003258 -0.004162 0.012496 0.000000 0.000000 0.000000
# 4 0.000000 0.000000 0.000000 0.047911 0.000000 0.000000
# 5 0.000000 0.000000 0.000000 0.000000 0.014433 0.000000
# 6 0.000000 0.000000 0.000000 0.000000 0.000000 0.843801
#
#
# Mechanical properties :
#
#
# Convention : Reuss Voigt Hill
#
# Bulk Modulus (GPa) = 67.81566 69.01529 68.41547
# Shear Modulus (GPa) = 5.21885 34.81866 20.01875
#
# Velocity S-wave (km/s) = 1.63031 4.21104 3.19302
# Velocity P-wave (km/s) = 6.17106 7.66765 6.95970
#
# Compressibility (1/GPa) = 0.01474586
#
# Stress axis : x y z
#
# Youngs Moduli (GPa) = 101.45516 117.32757 80.02452
#
# Poissons Ratio (x) = 0.07572 0.26072
# Poissons Ratio (y) = 0.06548 0.33303
# Poissons Ratio (z) = 0.33054 0.48827
#
# Static dielectric constant tensor:
#      x y z
#    x 1.697830 0.000000 0.000000 
#    y 0.000000 1.645470 0.000000 
#    z 0.000000 0.000000 1.726860 
# 
# From -- ./inp_files/13598.got.cif
#   From: 2010.05.17/outbox.cif.g08.bks.cpg/sg20_7_cif.got.tgz:13598.got - 2010.06.03 22:52:26.
