data_PCOD9320523
_publ_section_title
;
Structure prediction by ZEFSAII (Michael W. Deem and Ramdas Pophale) SiO2 
 PCOD9320523
Probable space group: C 2 2 21
;
_chemical_formula_sum "Si O2"
_cell_formula_units_Z 48
_cell_length_a 8.930466
_cell_length_b 18.256635
_cell_length_c 14.934133
_cell_angle_alpha 90.000000
_cell_angle_beta 90.000000
_cell_angle_gamma 90.000000
_cell_volume 2434.864899
_symmetry_space_group_name_H-M "C 2 2 21"
_symmetry_group_IT_number 20
_symmetry_cell_setting 'orthorhombic'
loop_
_space_group_symop_operation_xyz
x,y,z
-x,-y,1/2+z
x,-y,-z
-x,y,1/2-z
1/2+x,1/2+y,z
1/2-x,1/2-y,1/2+z
1/2+x,1/2-y,-z
1/2-x,1/2+y,1/2-z
loop_
_atom_site_type_symbol
_atom_site_label
_atom_site_fract_x
_atom_site_fract_y
_atom_site_fract_z
Si Si1 0.176635 0.551883 0.085653
Si Si2 0.500000 0.293615 0.250000
Si Si3 0.295899 0.589563 0.679324
Si Si4 0.523493 0.205559 0.065477
Si Si5 0.000000 0.518518 0.750000
Si Si6 0.484359 0.558814 0.346949
Si Si7 0.187947 0.161917 0.015546
O O1 0.131154 0.635160 0.064652
O O2 0.077116 0.527990 0.170956
O O3 0.351158 0.545584 0.112453
O O4 0.146879 0.500000 0.000000
O O5 0.638840 0.350550 0.248466
O O6 0.515901 0.243578 0.162918
O O7 0.397167 0.516710 0.673095
O O8 0.303508 0.624310 0.581342
O O9 0.130678 0.566538 0.706717
O O10 0.587319 0.265795 0.997053
O O11 0.355829 0.181593 0.042883
O O12 0.500000 0.596705 0.250000
O O13 0.387708 0.607142 0.414449
#
# Coordination Sequence:
#
# PCOD9320523 Si02
#       7
#     8   4   8   8   4   8   8
#     4  12  25  43  71  99 137 181 228 288 340 406
#     4  10  23  42  66  88 139 178 212 270 335 400
#     4  11  22  43  66 100 133 178 219 280 337 403
#     4  11  25  44  65 100 136 180 224 274 341 406
#     4  12  23  40  68 106 137 172 234 280 337 404
#     4  12  24  44  71 100 134 178 234 280 343 404
#     4  11  25  43  68  96 139 180 225 278 341 405
#
# _framework density 19.713621
#
# number of rings (size 3 to 8) (size 9 to 14) (size 15 to 20)
#    0.000    0.667    2.500    5.000    2.333    5.333 
#    0.000    0.000    1.833    0.000    0.000    0.000 
#    0.000    0.000    0.000    0.000    0.000    0.000 
#
# Total GULP energy -134239.780782 kJ/mol
# GULP energy per Si atom -5593.324199 kJ/mol
# Density = 1.966875 g / cm^3
# Si number density = 19.713621 Si / 1000 Ang^3
#
#
#
# Elastic Constant Matrix: (Units=GPa)
#
#
# Indices 1 2 3 4 5 6 
#
# 1 141.8053 57.6938 28.1517 0.0000 0.0000 0.0000
# 2 57.6938 121.3931 49.0997 0.0000 0.0000 0.0000
# 3 28.1517 49.0997 86.1900 0.0000 0.0000 0.0000
# 4 0.0000 0.0000 0.0000 61.9338 0.0000 0.0000
# 5 0.0000 0.0000 0.0000 0.0000 38.7820 0.0000
# 6 0.0000 0.0000 0.0000 0.0000 0.0000 18.0533
#
#
#
# Elastic Compliance Matrix: (Units=1/GPa)
#
#
# Indices 1 2 3 4 5 6 
#
# 1 0.008769 -0.003910 -0.000637 0.000000 0.000000 0.000000
# 2 -0.003910 0.012448 -0.005814 0.000000 0.000000 0.000000
# 3 -0.000637 -0.005814 0.015122 0.000000 0.000000 0.000000
# 4 0.000000 0.000000 0.000000 0.016146 0.000000 0.000000
# 5 0.000000 0.000000 0.000000 0.000000 0.025785 0.000000
# 6 0.000000 0.000000 0.000000 0.000000 0.000000 0.055392
#
#
# Mechanical properties :
#
#
# Convention : Reuss Voigt Hill
#
# Bulk Modulus (GPa) = 64.03067 68.80876 66.41972
# Shear Modulus (GPa) = 31.33044 38.05003 34.69024
#
# Velocity S-wave (km/s) = 3.99090 4.39810 4.19944
# Velocity P-wave (km/s) = 7.33398 7.79558 7.56830
#
# Compressibility (1/GPa) = 0.01561752
#
# Stress axis : x y z
#
# Youngs Moduli (GPa) = 114.03584 80.33704 66.12792
#
# Poissons Ratio (x) = 0.31413 0.04211
# Poissons Ratio (y) = 0.44589 0.38446
# Poissons Ratio (z) = 0.07261 0.46707
#
# Static dielectric constant tensor:
#      x y z
#    x 1.663150 0.000000 0.000000 
#    y 0.000000 1.684780 0.000000 
#    z 0.000000 0.000000 1.703350 
# 
# From -- ./inp_files/18951.got.cif
#   From: 2010.05.17/outbox.cif.g08.bks.cpg/sg20_10_cif.got.tgz:18951.got - 2010.06.03 22:52:26.
