data_PCOD9320960
_publ_section_title
;
Structure prediction by ZEFSAII (Michael W. Deem and Ramdas Pophale) SiO2 
 PCOD9320960
Probable space group: C 2 2 21
;
_chemical_formula_sum "Si O2"
_cell_formula_units_Z 56
_cell_length_a 13.900429
_cell_length_b 23.149256
_cell_length_c 9.227024
_cell_angle_alpha 90.000000
_cell_angle_beta 90.000000
_cell_angle_gamma 90.000000
_cell_volume 2969.114130
_symmetry_space_group_name_H-M "C 2 2 21"
_symmetry_group_IT_number 20
_symmetry_cell_setting 'orthorhombic'
loop_
_space_group_symop_operation_xyz
x,y,z
-x,-y,1/2+z
x,-y,-z
-x,y,1/2-z
1/2+x,1/2+y,z
1/2-x,1/2-y,1/2+z
1/2+x,1/2-y,-z
1/2-x,1/2+y,1/2-z
loop_
_atom_site_type_symbol
_atom_site_label
_atom_site_fract_x
_atom_site_fract_y
_atom_site_fract_z
Si Si1 0.884934 0.754805 0.960141
Si Si2 0.103620 0.855809 0.320098
Si Si3 0.888002 0.149567 0.269004
Si Si4 0.066799 0.552092 0.105624
Si Si5 0.704867 0.561646 0.445129
Si Si6 0.541044 0.186324 0.084578
Si Si7 0.818428 0.207612 0.549892
O O1 0.864690 0.791296 0.817125
O O2 0.788279 0.722273 0.001756
O O3 0.921310 0.802252 0.075088
O O4 0.968447 0.708522 0.961639
O O5 0.169248 0.897583 0.420318
O O6 0.170781 0.827838 0.197624
O O7 0.000000 0.875976 0.250000
O O8 0.836319 0.095703 0.193972
O O9 0.864956 0.165289 0.432230
O O10 0.000000 0.139037 0.250000
O O11 0.184147 0.549677 0.102581
O O12 0.054656 0.618731 0.058604
O O13 0.000000 0.546190 0.250000
O O14 0.035667 0.500000 0.000000
O O15 0.665956 0.500000 0.500000
O O16 0.500000 0.192327 0.250000
O O17 0.630205 0.230203 0.070968
#
# Coordination Sequence:
#
# PCOD9320960 Si02
#       7
#     8   8   8   8   8   8   8
#     4  11  21  34  56  90 127 165 199 251 320 393
#     4  11  20  41  64  87 130 170 206 266 323 392
#     4  11  22  38  59  93 131 157 203 279 319 376
#     4  10  24  47  69  90 127 174 222 274 318 380
#     4  10  24  46  66  88 123 173 217 260 328 387
#     4  11  20  38  63  87 122 171 207 248 328 395
#     4  12  21  35  59  95 128 163 208 260 323 384
#
# _framework density 18.860845999999999
#
# number of rings (size 3 to 8) (size 9 to 14) (size 15 to 20)
#    0.000    1.143    4.286    3.429    4.000    0.571 
#    7.714    0.714    0.000    0.000    0.000    0.000 
#    0.000    0.000    0.000    0.000    0.000    0.000 
#
# Total GULP energy -155880.985269 kJ/mol
# GULP energy per Si atom -5567.178045 kJ/mol
# Density = 1.881792 g / cm^3
# Si number density = 18.860846 Si / 1000 Ang^3
#
#
#
# Elastic Constant Matrix: (Units=GPa)
#
#
# Indices 1 2 3 4 5 6 
#
# 1 78.8757 15.9874 15.9711 0.0000 0.0000 0.0000
# 2 15.9874 123.5584 43.6872 0.0000 0.0000 0.0000
# 3 15.9711 43.6872 74.4499 0.0000 0.0000 0.0000
# 4 0.0000 0.0000 0.0000 13.9413 0.0000 0.0000
# 5 0.0000 0.0000 0.0000 0.0000 28.0183 0.0000
# 6 0.0000 0.0000 0.0000 0.0000 0.0000 12.7530
#
#
#
# Elastic Compliance Matrix: (Units=1/GPa)
#
#
# Indices 1 2 3 4 5 6 
#
# 1 0.013333 -0.000901 -0.002332 0.000000 0.000000 0.000000
# 2 -0.000901 0.010273 -0.005835 0.000000 0.000000 0.000000
# 3 -0.002332 -0.005835 0.017356 0.000000 0.000000 0.000000
# 4 0.000000 0.000000 0.000000 0.071729 0.000000 0.000000
# 5 0.000000 0.000000 0.000000 0.000000 0.035691 0.000000
# 6 0.000000 0.000000 0.000000 0.000000 0.000000 0.078413
#
#
# Mechanical properties :
#
#
# Convention : Reuss Voigt Hill
#
# Bulk Modulus (GPa) = 43.80744 47.57505 45.69125
# Shear Modulus (GPa) = 19.79894 24.35841 22.07868
#
# Velocity S-wave (km/s) = 3.24348 3.59762 3.42513
# Velocity P-wave (km/s) = 6.10770 6.52197 6.31823
#
# Compressibility (1/GPa) = 0.02282717
#
# Stress axis : x y z
#
# Youngs Moduli (GPa) = 75.00268 97.34270 57.61700
#
# Poissons Ratio (x) = 0.08768 0.13434
# Poissons Ratio (y) = 0.06756 0.33619
# Poissons Ratio (z) = 0.17488 0.56799
#
# Static dielectric constant tensor:
#      x y z
#    x 1.700970 0.000000 0.000000 
#    y 0.000000 1.659570 0.000000 
#    z 0.000000 0.000000 1.749170 
# 
# From -- ./inp_files/8733.got.cif
#   From: 2010.05.17/outbox.cif.g08.bks.cpg/sg20_5_cif.got.tgz:8733.got - 2010.06.03 22:52:26.
