data_PCOD9320861
_publ_section_title
;
Structure prediction by ZEFSAII (Michael W. Deem and Ramdas Pophale) SiO2 
 PCOD9320861
Probable space group: C 2 2 21
;
_chemical_formula_sum "Si O2"
_cell_formula_units_Z 40
_cell_length_a 17.899962
_cell_length_b 19.122043
_cell_length_c 4.875296
_cell_angle_alpha 90.000000
_cell_angle_beta 90.000000
_cell_angle_gamma 90.000000
_cell_volume 1668.735051
_symmetry_space_group_name_H-M "C 2 2 21"
_symmetry_group_IT_number 20
_symmetry_cell_setting 'orthorhombic'
loop_
_space_group_symop_operation_xyz
x,y,z
-x,-y,1/2+z
x,-y,-z
-x,y,1/2-z
1/2+x,1/2+y,z
1/2-x,1/2-y,1/2+z
1/2+x,1/2-y,-z
1/2-x,1/2+y,1/2-z
loop_
_atom_site_type_symbol
_atom_site_label
_atom_site_fract_x
_atom_site_fract_y
_atom_site_fract_z
Si Si1 0.310212 0.421248 0.406813
Si Si2 0.777240 0.293606 0.823343
Si Si3 0.411922 0.805001 0.189516
Si Si4 0.447550 0.329448 0.500177
Si Si5 0.837193 0.548383 0.727029
O O1 0.326761 0.500000 0.500000
O O2 0.261424 0.367394 0.596869
O O3 0.388463 0.382808 0.371281
O O4 0.249773 0.433803 0.168376
O O5 0.745192 0.233300 0.025991
O O6 0.865748 0.296698 0.901985
O O7 0.500000 0.813816 0.250000
O O8 0.401807 0.732215 0.350789
O O9 0.377411 0.877956 0.281073
O O10 0.500000 0.304485 0.250000
O O11 0.500000 0.357771 0.750000
O O12 0.872060 0.500000 0.500000
O O13 0.838931 0.500000 0.000000
#
# Coordination Sequence:
#
# PCOD9320861 Si02
#       5
#     8   8   8   8   8
#     4  10  24  45  69 100 136 181 229 285 339 409
#     4  11  24  43  70  99 133 181 229 281 337 403
#     4  10  24  43  70 102 141 181 231 285 342 416
#     4  11  26  44  67 101 140 182 236 282 347 411
#     4  10  24  45  68 103 138 181 233 285 351 413
#
# _framework density 23.970251000000001
#
# number of rings (size 3 to 8) (size 9 to 14) (size 15 to 20)
#    0.000    1.600    2.000    0.000    5.600   17.600 
#    0.000    0.000    0.000    0.000    0.000    0.000 
#    0.000    0.000    0.000    0.000    0.000    0.000 
#
# Total GULP energy -111571.213099 kJ/mol
# GULP energy per Si atom -5578.560655 kJ/mol
# Density = 2.391569 g / cm^3
# Si number density = 23.970251 Si / 1000 Ang^3
#
#
#
# Elastic Constant Matrix: (Units=GPa)
#
#
# Indices 1 2 3 4 5 6 
#
# 1 141.0510 31.1664 -1.5016 0.0000 0.0000 0.0000
# 2 31.1664 156.5637 -4.0559 0.0000 0.0000 0.0000
# 3 -1.5016 -4.0559 52.0400 0.0000 0.0000 0.0000
# 4 0.0000 0.0000 0.0000 34.1239 0.0000 0.0000
# 5 0.0000 0.0000 0.0000 0.0000 17.4571 0.0000
# 6 0.0000 0.0000 0.0000 0.0000 0.0000 19.5883
#
#
#
# Elastic Compliance Matrix: (Units=1/GPa)
#
#
# Indices 1 2 3 4 5 6 
#
# 1 0.007416 -0.001474 0.000099 0.000000 0.000000 0.000000
# 2 -0.001474 0.006693 0.000479 0.000000 0.000000 0.000000
# 3 0.000099 0.000479 0.019256 0.000000 0.000000 0.000000
# 4 0.000000 0.000000 0.000000 0.029305 0.000000 0.000000
# 5 0.000000 0.000000 0.000000 0.000000 0.057283 0.000000
# 6 0.000000 0.000000 0.000000 0.000000 0.000000 0.051051
#
#
# Mechanical properties :
#
#
# Convention : Reuss Voigt Hill
#
# Bulk Modulus (GPa) = 31.67120 44.54141 38.10630
# Shear Modulus (GPa) = 27.27463 35.83690 31.55576
#
# Velocity S-wave (km/s) = 3.37687 3.87079 3.63224
# Velocity P-wave (km/s) = 5.33345 6.21286 5.78988
#
# Compressibility (1/GPa) = 0.03157443
#
# Stress axis : x y z
#
# Youngs Moduli (GPa) = 134.83754 149.41059 51.93135
#
# Poissons Ratio (x) = 0.22020 -0.00515
# Poissons Ratio (y) = 0.19872 -0.02488
# Poissons Ratio (z) = -0.01337 -0.07158
#
# Static dielectric constant tensor:
#      x y z
#    x 1.974840 0.000000 0.000000 
#    y 0.000000 2.121080 0.000000 
#    z 0.000000 0.000000 2.033890 
# 
# From -- ./inp_files/2486.got.cif
#   From: 2010.05.17/outbox.cif.g08.bks.cpg/sg20_2_cif.got.tgz:2486.got - 2010.06.03 22:52:26.
