data_PCOD9320756
_publ_section_title
;
Structure prediction by ZEFSAII (Michael W. Deem and Ramdas Pophale) SiO2 
 PCOD9320756
Probable space group: C 2 2 21
;
_chemical_formula_sum "Si O2"
_cell_formula_units_Z 52
_cell_length_a 6.976678
_cell_length_b 19.534606
_cell_length_c 14.764532
_cell_angle_alpha 90.000000
_cell_angle_beta 90.000000
_cell_angle_gamma 90.000000
_cell_volume 2012.208692
_symmetry_space_group_name_H-M "C 2 2 21"
_symmetry_group_IT_number 20
_symmetry_cell_setting 'orthorhombic'
loop_
_space_group_symop_operation_xyz
x,y,z
-x,-y,1/2+z
x,-y,-z
-x,y,1/2-z
1/2+x,1/2+y,z
1/2-x,1/2-y,1/2+z
1/2+x,1/2-y,-z
1/2-x,1/2+y,1/2-z
loop_
_atom_site_type_symbol
_atom_site_label
_atom_site_fract_x
_atom_site_fract_y
_atom_site_fract_z
Si Si1 0.770982 0.500000 0.000000
Si Si2 0.348423 0.613929 0.623940
Si Si3 0.065632 0.280229 0.457764
Si Si4 0.527962 0.061932 0.135271
Si Si5 0.226805 0.015573 0.742354
Si Si6 0.822677 0.782881 0.140091
Si Si7 0.308915 0.318253 0.802614
O O1 0.918408 0.556041 0.041238
O O2 0.639000 0.456169 0.067090
O O3 0.500000 0.507169 0.750000
O O4 0.232204 0.667827 0.566386
O O5 0.230233 0.588159 0.711343
O O6 0.457909 0.651630 0.849165
O O7 0.111743 0.214006 0.395557
O O8 0.072872 0.264536 0.564091
O O9 0.867724 0.304528 0.414009
O O10 0.645889 0.128665 0.164966
O O11 0.681502 0.000048 0.145866
O O12 0.346233 0.959922 0.801430
O O13 0.773720 0.739652 0.231705
O O14 0.500000 0.346212 0.750000
#
# Coordination Sequence:
#
# PCOD9320756 Si02
#       7
#     4   8   8   8   8   8   8
#     4  10  26  50  74 116 156 212 258 328 394 478
#     4  11  26  47  74 105 156 196 260 314 395 465
#     4  11  25  48  75 119 146 198 264 322 403 476
#     4  10  23  50  77 107 156 199 260 330 392 467
#     4  10  24  45  68 110 144 200 258 311 373 475
#     4  11  25  49  77 111 155 200 250 333 396 471
#     4  10  25  49  82 119 153 202 265 331 405 476
#
# _framework density 25.842251000000001
#
# number of rings (size 3 to 8) (size 9 to 14) (size 15 to 20)
#    0.000    1.538    1.538    0.462    4.308    9.846 
#   13.846    1.538    0.000    0.000    0.000    0.000 
#    0.000    0.000    0.000    0.000    0.000    0.000 
#
# Total GULP energy -145250.537265 kJ/mol
# GULP energy per Si atom -5586.559126 kJ/mol
# Density = 2.578343 g / cm^3
# Si number density = 25.842251 Si / 1000 Ang^3
#
#
#
# Elastic Constant Matrix: (Units=GPa)
#
#
# Indices 1 2 3 4 5 6 
#
# 1 151.2417 40.2814 24.8769 0.0000 0.0000 0.0000
# 2 40.2814 95.4063 32.1238 0.0000 0.0000 0.0000
# 3 24.8769 32.1238 93.5226 0.0000 0.0000 0.0000
# 4 0.0000 0.0000 0.0000 37.9717 0.0000 0.0000
# 5 0.0000 0.0000 0.0000 0.0000 47.1723 0.0000
# 6 0.0000 0.0000 0.0000 0.0000 0.0000 40.1832
#
#
#
# Elastic Compliance Matrix: (Units=1/GPa)
#
#
# Indices 1 2 3 4 5 6 
#
# 1 0.007537 -0.002835 -0.001031 0.000000 0.000000 0.000000
# 2 -0.002835 0.012919 -0.003683 0.000000 0.000000 0.000000
# 3 -0.001031 -0.003683 0.012232 0.000000 0.000000 0.000000
# 4 0.000000 0.000000 0.000000 0.026335 0.000000 0.000000
# 5 0.000000 0.000000 0.000000 0.000000 0.021199 0.000000
# 6 0.000000 0.000000 0.000000 0.000000 0.000000 0.024886
#
#
# Mechanical properties :
#
#
# Convention : Reuss Voigt Hill
#
# Bulk Modulus (GPa) = 56.85416 59.41499 58.13457
# Shear Modulus (GPa) = 39.66095 41.25802 40.45948
#
# Velocity S-wave (km/s) = 3.92182 4.00000 3.96110
# Velocity P-wave (km/s) = 6.52348 6.66143 6.59281
#
# Compressibility (1/GPa) = 0.01758886
#
# Stress axis : x y z
#
# Youngs Moduli (GPa) = 132.68683 77.40796 81.75277
#
# Poissons Ratio (x) = 0.21944 0.08429
# Poissons Ratio (y) = 0.37615 0.30112
# Poissons Ratio (z) = 0.13680 0.28512
#
# Static dielectric constant tensor:
#      x y z
#    x 2.041370 0.000000 0.000000 
#    y 0.000000 2.096370 0.000000 
#    z 0.000000 0.000000 2.275620 
# 
# From -- ./inp_files/19108.got.cif
#   From: 2010.05.17/outbox.cif.g08.bks.cpg/sg20_10_cif.got.tgz:19108.got - 2010.06.03 22:52:26.
