data_PCOD9320621
_publ_section_title
;
Structure prediction by ZEFSAII (Michael W. Deem and Ramdas Pophale) SiO2 
 PCOD9320621
Probable space group: C 2 2 21
;
_chemical_formula_sum "Si O2"
_cell_formula_units_Z 48
_cell_length_a 9.012009
_cell_length_b 10.776336
_cell_length_c 19.860364
_cell_angle_alpha 90.000000
_cell_angle_beta 90.000000
_cell_angle_gamma 90.000000
_cell_volume 1928.767790
_symmetry_space_group_name_H-M "C 2 2 21"
_symmetry_group_IT_number 20
_symmetry_cell_setting 'orthorhombic'
loop_
_space_group_symop_operation_xyz
x,y,z
-x,-y,1/2+z
x,-y,-z
-x,y,1/2-z
1/2+x,1/2+y,z
1/2-x,1/2-y,1/2+z
1/2+x,1/2-y,-z
1/2-x,1/2+y,1/2-z
loop_
_atom_site_type_symbol
_atom_site_label
_atom_site_fract_x
_atom_site_fract_y
_atom_site_fract_z
Si Si1 0.845688 0.391077 0.550519
Si Si2 0.189212 0.721928 0.698117
Si Si3 0.467674 0.966182 0.826425
Si Si4 0.243747 0.753683 0.854933
Si Si5 0.039991 0.852802 0.104115
Si Si6 0.974271 0.129125 0.093084
O O1 0.891307 0.500000 0.500000
O O2 0.922363 0.255002 0.550252
O O3 0.668897 0.367050 0.544999
O O4 0.896236 0.446622 0.623267
O O5 0.088976 0.605207 0.677777
O O6 0.198631 0.731537 0.777841
O O7 0.348917 0.687746 0.664853
O O8 0.109563 0.841165 0.664706
O O9 0.500000 0.924909 0.750000
O O10 0.335725 0.881822 0.854278
O O11 0.368059 0.656731 0.875962
O O12 0.105588 0.770246 0.904186
O O13 0.053878 0.996400 0.085991
#
# Coordination Sequence:
#
# PCOD9320621 Si02
#       6
#     8   8   8   8   8   8
#     4  10  25  50  69  96 139 185 238 300 355 425
#     4  11  23  37  63 103 146 180 232 279 353 425
#     4  11  22  41  68 102 142 185 227 291 360 419
#     4  11  22  37  63 100 140 183 223 283 345 419
#     4  10  23  44  64  98 138 181 228 289 347 418
#     4  11  23  41  65  96 130 181 231 284 341 417
#
# _framework density 24.886353
#
# number of rings (size 3 to 8) (size 9 to 14) (size 15 to 20)
#    0.000    1.333    1.667    5.000    7.000    1.333 
#    6.000    3.333    0.000    0.000    0.000    0.000 
#    0.000    0.000    0.000    0.000    0.000    0.000 
#
# Total GULP energy -134217.685195 kJ/mol
# GULP energy per Si atom -5592.403550 kJ/mol
# Density = 2.482971 g / cm^3
# Si number density = 24.886353 Si / 1000 Ang^3
#
#
#
# Elastic Constant Matrix: (Units=GPa)
#
#
# Indices 1 2 3 4 5 6 
#
# 1 131.9812 23.7654 27.2884 0.0000 0.0000 0.0000
# 2 23.7654 76.9080 -13.3060 0.0000 0.0000 0.0000
# 3 27.2884 -13.3060 100.1662 0.0000 0.0000 0.0000
# 4 0.0000 0.0000 0.0000 25.3721 0.0000 0.0000
# 5 0.0000 0.0000 0.0000 0.0000 20.1852 0.0000
# 6 0.0000 0.0000 0.0000 0.0000 0.0000 54.6306
#
#
#
# Elastic Compliance Matrix: (Units=1/GPa)
#
#
# Indices 1 2 3 4 5 6 
#
# 1 0.008729 -0.003182 -0.002801 0.000000 0.000000 0.000000
# 2 -0.003182 0.014468 0.002789 0.000000 0.000000 0.000000
# 3 -0.002801 0.002789 0.011117 0.000000 0.000000 0.000000
# 4 0.000000 0.000000 0.000000 0.039413 0.000000 0.000000
# 5 0.000000 0.000000 0.000000 0.000000 0.049541 0.000000
# 6 0.000000 0.000000 0.000000 0.000000 0.000000 0.018305
#
#
# Mechanical properties :
#
#
# Convention : Reuss Voigt Hill
#
# Bulk Modulus (GPa) = 35.80831 42.72788 39.26810
# Shear Modulus (GPa) = 31.79252 38.12476 34.95864
#
# Velocity S-wave (km/s) = 3.57810 3.91827 3.75204
# Velocity P-wave (km/s) = 5.61163 6.13815 5.88079
#
# Compressibility (1/GPa) = 0.02792648
#
# Stress axis : x y z
#
# Youngs Moduli (GPa) = 114.56256 69.11672 89.95347
#
# Poissons Ratio (x) = 0.21992 0.25193
# Poissons Ratio (y) = 0.36452 -0.25086
# Poissons Ratio (z) = 0.32085 -0.19275
#
# Static dielectric constant tensor:
#      x y z
#    x 1.994200 0.000000 0.000000 
#    y 0.000000 1.985470 0.000000 
#    z 0.000000 0.000000 1.988420 
# 
# From -- ./inp_files/28713.got.cif
#   From: 2010.05.17/outbox.cif.g08.bks.cpg/sg20_15_cif.got.tgz:28713.got - 2010.06.03 22:52:26.
