data_PCOD9320985
_publ_section_title
;
Structure prediction by ZEFSAII (Michael W. Deem and Ramdas Pophale) SiO2 
 PCOD9320985
Probable space group: C 2 2 21
;
_chemical_formula_sum "Si O2"
_cell_formula_units_Z 32
_cell_length_a 28.192326
_cell_length_b 5.054316
_cell_length_c 8.904738
_cell_angle_alpha 90.000000
_cell_angle_beta 90.000000
_cell_angle_gamma 90.000000
_cell_volume 1268.862158
_symmetry_space_group_name_H-M "C 2 2 21"
_symmetry_group_IT_number 20
_symmetry_cell_setting 'orthorhombic'
loop_
_space_group_symop_operation_xyz
x,y,z
-x,-y,1/2+z
x,-y,-z
-x,y,1/2-z
1/2+x,1/2+y,z
1/2-x,1/2-y,1/2+z
1/2+x,1/2-y,-z
1/2-x,1/2+y,1/2-z
loop_
_atom_site_type_symbol
_atom_site_label
_atom_site_fract_x
_atom_site_fract_y
_atom_site_fract_z
Si Si1 0.443913 0.536160 0.756330
Si Si2 0.108808 0.574804 0.663905
Si Si3 0.309847 0.182643 0.284620
Si Si4 0.880006 0.000000 0.500000
Si Si5 0.272153 0.500000 0.000000
O O1 0.500000 0.543776 0.750000
O O2 0.422893 0.830076 0.773109
O O3 0.418637 0.381054 0.615530
O O4 0.423779 0.326259 0.872527
O O5 0.125960 0.500000 0.500000
O O6 0.158966 0.583839 0.754909
O O7 0.345692 0.338919 0.392524
O O8 0.299839 0.322903 0.124029
O O9 0.262829 0.155275 0.384617
#
# Coordination Sequence:
#
# PCOD9320985 Si02
#       5
#     8   8   8   4   4
#     4  11  25  46  73 110 144 200 250 311 370 466
#     4  11  26  44  75 102 154 190 246 305 387 444
#     4  11  26  44  74 107 152 199 259 320 403 451
#     4  10  24  46  73 104 156 192 251 314 390 452
#     4  12  26  44  75 108 150 200 269 326 382 496
#
# _framework density 25.219446999999999
#
# number of rings (size 3 to 8) (size 9 to 14) (size 15 to 20)
#    0.000    1.000    0.000    4.500   14.000    3.000 
#    0.000    0.000    0.000    0.000    0.000    0.000 
#    0.000    0.000    0.000    0.000    0.000    0.000 
#
# Total GULP energy -89182.070021 kJ/mol
# GULP energy per Si atom -5573.879376 kJ/mol
# Density = 2.516205 g / cm^3
# Si number density = 25.219447 Si / 1000 Ang^3
#
#
#
# Elastic Constant Matrix: (Units=GPa)
#
#
# Indices 1 2 3 4 5 6 
#
# 1 188.7101 64.8027 70.3425 0.0000 0.0000 0.0000
# 2 64.8027 126.6175 39.1962 0.0000 0.0000 0.0000
# 3 70.3425 39.1962 113.5986 0.0000 0.0000 0.0000
# 4 0.0000 0.0000 0.0000 19.4227 0.0000 0.0000
# 5 0.0000 0.0000 0.0000 0.0000 -37.1043 0.0000
# 6 0.0000 0.0000 0.0000 0.0000 0.0000 70.4388
#
#
#
# Elastic Compliance Matrix: (Units=1/GPa)
#
#
# Indices 1 2 3 4 5 6 
#
# 1 0.007655 -0.002744 -0.003794 0.000000 0.000000 0.000000
# 2 -0.002744 0.009826 -0.001691 0.000000 0.000000 0.000000
# 3 -0.003794 -0.001691 0.011736 0.000000 0.000000 0.000000
# 4 0.000000 0.000000 0.000000 0.051486 0.000000 0.000000
# 5 0.000000 0.000000 0.000000 0.000000 -0.026951 0.000000
# 6 0.000000 0.000000 0.000000 0.000000 0.000000 0.014197
#
#
# Mechanical properties :
#
#
# Convention : Reuss Voigt Hill
#
# Bulk Modulus (GPa) = 78.37424 86.40100 82.38762
# Shear Modulus (GPa) = 56.39593 27.52376 41.95984
#
# Velocity S-wave (km/s) = 4.73399 3.30717 4.08338
# Velocity P-wave (km/s) = 7.81186 6.99409 7.41426
#
# Compressibility (1/GPa) = 0.01275929
#
# Stress axis : x y z
#
# Youngs Moduli (GPa) = 130.62650 101.77539 85.21055
#
# Poissons Ratio (x) = 0.27923 0.32326
# Poissons Ratio (y) = 0.35839 0.14412
# Poissons Ratio (z) = 0.49556 0.17213
#
# Static dielectric constant tensor:
#      x y z
#    x 1.943570 0.000000 0.000000 
#    y 0.000000 0.838970 0.000000 
#    z 0.000000 0.000000 -5.789280 
# 
# From -- ./inp_files/11305.got.cif
#   From: 2010.05.17/outbox.cif.g08.bks.cpg/sg20_6_cif.got.tgz:11305.got - 2010.06.03 22:52:26.
