data_PCOD9320156
_publ_section_title
;
Structure prediction by ZEFSAII (Michael W. Deem and Ramdas Pophale) SiO2 
 PCOD9320156
Probable space group: C 2 2 21
;
_chemical_formula_sum "Si O2"
_cell_formula_units_Z 56
_cell_length_a 21.190914
_cell_length_b 11.187059
_cell_length_c 12.326767
_cell_angle_alpha 90.000000
_cell_angle_beta 90.000000
_cell_angle_gamma 90.000000
_cell_volume 2922.232756
_symmetry_space_group_name_H-M "C 2 2 21"
_symmetry_group_IT_number 20
_symmetry_cell_setting 'orthorhombic'
loop_
_space_group_symop_operation_xyz
x,y,z
-x,-y,1/2+z
x,-y,-z
-x,y,1/2-z
1/2+x,1/2+y,z
1/2-x,1/2-y,1/2+z
1/2+x,1/2-y,-z
1/2-x,1/2+y,1/2-z
loop_
_atom_site_type_symbol
_atom_site_label
_atom_site_fract_x
_atom_site_fract_y
_atom_site_fract_z
Si Si1 0.396277 0.428782 0.386755
Si Si2 0.286481 0.166185 0.090822
Si Si3 0.299080 0.593104 0.801671
Si Si4 0.000000 0.042564 0.250000
Si Si5 0.183803 0.593506 0.652985
Si Si6 0.068619 0.725118 0.753025
Si Si7 0.269346 0.000000 0.500000
Si Si8 0.152178 0.740642 0.963798
O O1 0.386665 0.500000 0.500000
O O2 0.348814 0.452428 0.286520
O O3 0.465066 0.462739 0.339995
O O4 0.378215 0.296728 0.428227
O O5 0.318416 0.287094 0.133836
O O6 0.210459 0.181837 0.085498
O O7 0.309159 0.049885 0.155372
O O8 0.302804 0.139422 0.966758
O O9 0.238291 0.636216 0.733473
O O10 0.274593 0.500696 0.892731
O O11 0.947430 0.140224 0.210456
O O12 0.117966 0.647594 0.687935
O O13 0.097987 0.735409 0.873047
O O14 0.000000 0.665513 0.750000
O O15 0.313890 0.115433 0.510357
#
# Coordination Sequence:
#
# PCOD9320156 Si02
#       8
#     8   8   8   4   8   8   4   8
#     4  12  23  46  70 100 135 186 233 288 352 414
#     4  10  23  38  63 108 130 175 217 291 352 414
#     4  11  24  38  69 103 140 173 225 294 352 408
#     4  10  26  42  68  90 130 186 236 274 336 414
#     4  11  21  39  67  90 137 176 228 277 351 412
#     4  10  22  43  66  90 125 190 231 271 339 421
#     4  10  24  42  62 112 142 182 216 292 354 430
#     4  11  21  43  69  98 141 176 229 279 359 411
#
# _framework density 19.163429000000001
#
# number of rings (size 3 to 8) (size 9 to 14) (size 15 to 20)
#    0.429    0.857    5.714    0.857    2.000    2.286 
#    6.429    1.429    3.143    0.000    0.000    0.000 
#    0.000    0.000    0.000    0.000    0.000    0.000 
#
# Total GULP energy -156038.629498 kJ/mol
# GULP energy per Si atom -5572.808196 kJ/mol
# Density = 1.911981 g / cm^3
# Si number density = 19.163429 Si / 1000 Ang^3
#
#
#
# Elastic Constant Matrix: (Units=GPa)
#
#
# Indices 1 2 3 4 5 6 
#
# 1 120.6920 49.6809 53.6002 0.0000 0.0000 0.0000
# 2 49.6809 82.6463 41.3498 0.0000 0.0000 0.0000
# 3 53.6002 41.3498 99.7852 0.0000 0.0000 0.0000
# 4 0.0000 0.0000 0.0000 6.4737 0.0000 0.0000
# 5 0.0000 0.0000 0.0000 0.0000 35.1447 0.0000
# 6 0.0000 0.0000 0.0000 0.0000 0.0000 32.5295
#
#
#
# Elastic Compliance Matrix: (Units=1/GPa)
#
#
# Indices 1 2 3 4 5 6 
#
# 1 0.012441 -0.005216 -0.004521 0.000000 0.000000 0.000000
# 2 -0.005216 0.017452 -0.004430 0.000000 0.000000 0.000000
# 3 -0.004521 -0.004430 0.014286 0.000000 0.000000 0.000000
# 4 0.000000 0.000000 0.000000 0.154471 0.000000 0.000000
# 5 0.000000 0.000000 0.000000 0.000000 0.028454 0.000000
# 6 0.000000 0.000000 0.000000 0.000000 0.000000 0.030741
#
#
# Mechanical properties :
#
#
# Convention : Reuss Voigt Hill
#
# Bulk Modulus (GPa) = 63.11639 65.82059 64.46849
# Shear Modulus (GPa) = 17.15505 25.39575 21.27540
#
# Velocity S-wave (km/s) = 2.99523 3.64431 3.33559
# Velocity P-wave (km/s) = 6.70591 7.22008 6.96774
#
# Compressibility (1/GPa) = 0.01584375
#
# Stress axis : x y z
#
# Youngs Moduli (GPa) = 80.38204 57.30053 70.00059
#
# Poissons Ratio (x) = 0.29891 0.31646
# Poissons Ratio (y) = 0.41931 0.31009
# Poissons Ratio (z) = 0.36340 0.25383
#
# Static dielectric constant tensor:
#      x y z
#    x 1.695360 0.000000 0.000000 
#    y 0.000000 1.751040 0.000000 
#    z 0.000000 0.000000 1.694100 
# 
# From -- ./inp_files/16342.got.cif
#   From: 2010.05.17/outbox.cif.g08.bks.cpg/sg20_9_cif.got.tgz:16342.got - 2010.06.03 22:52:26.
