data_PCOD9320806
_publ_section_title
;
Structure prediction by ZEFSAII (Michael W. Deem and Ramdas Pophale) SiO2 
 PCOD9320806
Probable space group: C 2 2 21
;
_chemical_formula_sum "Si O2"
_cell_formula_units_Z 56
_cell_length_a 16.177950
_cell_length_b 15.189490
_cell_length_c 10.080080
_cell_angle_alpha 90.000000
_cell_angle_beta 90.000000
_cell_angle_gamma 90.000000
_cell_volume 2477.026541
_symmetry_space_group_name_H-M "C 2 2 21"
_symmetry_group_IT_number 20
_symmetry_cell_setting 'orthorhombic'
loop_
_space_group_symop_operation_xyz
x,y,z
-x,-y,1/2+z
x,-y,-z
-x,y,1/2-z
1/2+x,1/2+y,z
1/2-x,1/2-y,1/2+z
1/2+x,1/2-y,-z
1/2-x,1/2+y,1/2-z
loop_
_atom_site_type_symbol
_atom_site_label
_atom_site_fract_x
_atom_site_fract_y
_atom_site_fract_z
Si Si1 0.315676 0.011487 0.752802
Si Si2 0.706854 0.684062 0.798397
Si Si3 0.908562 0.192982 0.446148
Si Si4 0.057217 0.159602 0.625972
Si Si5 0.808526 0.138380 0.197688
Si Si6 0.114038 0.000000 0.500000
Si Si7 0.444948 0.114890 0.615335
Si Si8 0.933463 0.500000 0.000000
O O1 0.253443 0.092742 0.771629
O O2 0.377021 0.039843 0.636360
O O3 0.267735 0.921216 0.743268
O O4 0.375999 0.004329 0.875493
O O5 0.645656 0.699371 0.671685
O O6 0.771412 0.763711 0.822584
O O7 0.650247 0.671034 0.929341
O O8 0.877849 0.143368 0.313820
O O9 0.899186 0.295682 0.415301
O O10 0.004112 0.183506 0.494380
O O11 0.065890 0.053686 0.612549
O O12 0.000000 0.183383 0.750000
O O13 0.839010 0.081162 0.071349
O O14 0.500000 0.125422 0.750000
O O15 0.508121 0.085215 0.502361
#
# Coordination Sequence:
#
# PCOD9320806 Si02
#       8
#     8   8   8   8   8   4   8   4
#     4  11  23  47  69 103 145 181 260 296 370 450
#     4  11  25  48  72 109 148 193 252 312 371 451
#     4  11  26  45  77 101 148 195 242 306 388 449
#     4  10  26  48  70 107 147 189 246 308 372 460
#     4  12  28  43  77 108 145 202 245 317 381 440
#     4  12  28  43  75 104 150 184 254 304 368 453
#     4  10  24  44  66 105 141 182 241 301 372 450
#     4  10  24  41  71  96 140 192 228 314 364 445
#
# _framework density 22.607751
#
# number of rings (size 3 to 8) (size 9 to 14) (size 15 to 20)
#    0.000    1.143    2.857    0.857   12.000    0.000 
#    0.000    0.000    0.000    0.000    0.000    0.000 
#    0.000    0.000    0.000    0.000    0.000    0.000 
#
# Total GULP energy -156314.471000 kJ/mol
# GULP energy per Si atom -5582.659679 kJ/mol
# Density = 2.255629 g / cm^3
# Si number density = 22.607751 Si / 1000 Ang^3
#
#
#
# Elastic Constant Matrix: (Units=GPa)
#
#
# Indices 1 2 3 4 5 6 
#
# 1 63.3326 -9.0696 41.7759 0.0000 0.0000 0.0000
# 2 -9.0696 11.5321 2.0853 0.0000 0.0000 0.0000
# 3 41.7759 2.0853 85.5989 0.0000 0.0000 0.0000
# 4 0.0000 0.0000 0.0000 35.1276 0.0000 0.0000
# 5 0.0000 0.0000 0.0000 0.0000 33.5974 0.0000
# 6 0.0000 0.0000 0.0000 0.0000 0.0000 45.2333
#
#
#
# Elastic Compliance Matrix: (Units=1/GPa)
#
#
# Indices 1 2 3 4 5 6 
#
# 1 0.029341 0.025779 -0.014948 0.000000 0.000000 0.000000
# 2 0.025779 0.109746 -0.015255 0.000000 0.000000 0.000000
# 3 -0.014948 -0.015255 0.019349 0.000000 0.000000 0.000000
# 4 0.000000 0.000000 0.000000 0.028468 0.000000 0.000000
# 5 0.000000 0.000000 0.000000 0.000000 0.029764 0.000000
# 6 0.000000 0.000000 0.000000 0.000000 0.000000 0.022108
#
#
# Mechanical properties :
#
#
# Convention : Reuss Voigt Hill
#
# Bulk Modulus (GPa) = 6.68497 25.56075 16.12286
# Shear Modulus (GPa) = 16.80747 31.16980 23.98864
#
# Velocity S-wave (km/s) = 2.72956 3.71714 3.26096
# Velocity P-wave (km/s) = 3.59129 5.45469 4.61795
#
# Compressibility (1/GPa) = 0.14958938
#
# Stress axis : x y z
#
# Youngs Moduli (GPa) = 34.08172 9.11191 51.68186
#
# Poissons Ratio (x) = -0.23489 0.77253
# Poissons Ratio (y) = -0.87858 0.78839
# Poissons Ratio (z) = 0.50945 0.13900
#
# Static dielectric constant tensor:
#      x y z
#    x 1.910130 0.000000 0.000000 
#    y 0.000000 1.179240 0.000000 
#    z 0.000000 0.000000 1.887980 
# 
# From -- ./inp_files/15189.got.cif
#   From: 2010.05.17/outbox.cif.g08.bks.cpg/sg20_8_cif.got.tgz:15189.got - 2010.06.03 22:52:26.
