data_PCOD9320998
_publ_section_title
;
Structure prediction by ZEFSAII (Michael W. Deem and Ramdas Pophale) SiO2 
 PCOD9320998
Probable space group: C 2 2 21
;
_chemical_formula_sum "Si O2"
_cell_formula_units_Z 32
_cell_length_a 15.900468
_cell_length_b 15.292277
_cell_length_c 5.427128
_cell_angle_alpha 90.000000
_cell_angle_beta 90.000000
_cell_angle_gamma 90.000000
_cell_volume 1319.629841
_symmetry_space_group_name_H-M "C 2 2 21"
_symmetry_group_IT_number 20
_symmetry_cell_setting 'orthorhombic'
loop_
_space_group_symop_operation_xyz
x,y,z
-x,-y,1/2+z
x,-y,-z
-x,y,1/2-z
1/2+x,1/2+y,z
1/2-x,1/2-y,1/2+z
1/2+x,1/2-y,-z
1/2-x,1/2+y,1/2-z
loop_
_atom_site_type_symbol
_atom_site_label
_atom_site_fract_x
_atom_site_fract_y
_atom_site_fract_z
Si Si1 0.000000 0.777134 0.750000
Si Si2 0.133836 0.910984 0.561816
Si Si3 0.794336 0.500000 0.500000
Si Si4 0.073859 0.632127 0.104709
Si Si5 0.698782 0.259521 0.287709
O O1 0.078432 0.841651 0.704937
O O2 0.969650 0.711008 0.539971
O O3 0.158971 0.855499 0.319834
O O4 0.085095 0.000000 0.500000
O O5 0.223536 0.948924 0.665158
O O6 0.862176 0.424498 0.437184
O O7 0.132051 0.681673 0.301526
O O8 0.000000 0.581463 0.250000
O O9 0.742175 0.250674 0.024514
#
# Coordination Sequence:
#
# PCOD9320998 Si02
#       5
#     4   8   4   8   8
#     4  12  26  50  80 112 160 202 272 332 414 488
#     4  10  24  46  76 113 153 204 265 328 403 479
#     4  10  26  48  72 116 154 208 266 328 408 474
#     4  12  27  46  77 114 155 210 266 337 405 486
#     4  12  24  49  79 109 157 215 267 318 410 496
#
# _framework density 24.249227000000001
#
# number of rings (size 3 to 8) (size 9 to 14) (size 15 to 20)
#    0.750    0.000    5.000    1.500    1.750    2.000 
#    0.000    8.750    0.000    0.000    0.000    0.000 
#    0.000    0.000    0.000    0.000    0.000    0.000 
#
# Total GULP energy -89105.461814 kJ/mol
# GULP energy per Si atom -5569.091363 kJ/mol
# Density = 2.419403 g / cm^3
# Si number density = 24.249227 Si / 1000 Ang^3
#
#
#
# Elastic Constant Matrix: (Units=GPa)
#
#
# Indices 1 2 3 4 5 6 
#
# 1 158.1562 47.8159 39.6971 0.0000 0.0000 0.0000
# 2 47.8159 120.4628 25.4838 0.0000 0.0000 0.0000
# 3 39.6971 25.4838 57.7734 0.0000 0.0000 0.0000
# 4 0.0000 0.0000 0.0000 9.3921 0.0000 0.0000
# 5 0.0000 0.0000 0.0000 0.0000 36.8385 0.0000
# 6 0.0000 0.0000 0.0000 0.0000 0.0000 50.5951
#
#
#
# Elastic Compliance Matrix: (Units=1/GPa)
#
#
# Indices 1 2 3 4 5 6 
#
# 1 0.008165 -0.002266 -0.004611 0.000000 0.000000 0.000000
# 2 -0.002266 0.009784 -0.002759 0.000000 0.000000 0.000000
# 3 -0.004611 -0.002759 0.021694 0.000000 0.000000 0.000000
# 4 0.000000 0.000000 0.000000 0.106472 0.000000 0.000000
# 5 0.000000 0.000000 0.000000 0.000000 0.027146 0.000000
# 6 0.000000 0.000000 0.000000 0.000000 0.000000 0.019765
#
#
# Mechanical properties :
#
#
# Convention : Reuss Voigt Hill
#
# Bulk Modulus (GPa) = 49.08628 62.48733 55.78680
# Shear Modulus (GPa) = 22.82178 34.25818 28.53998
#
# Velocity S-wave (km/s) = 3.07112 3.76274 3.43438
# Velocity P-wave (km/s) = 5.73254 6.68598 6.22754
#
# Compressibility (1/GPa) = 0.02037229
#
# Stress axis : x y z
#
# Youngs Moduli (GPa) = 122.47083 102.20461 46.09484
#
# Poissons Ratio (x) = 0.23155 0.21255
# Poissons Ratio (y) = 0.27747 0.12718
# Poissons Ratio (z) = 0.56473 0.28199
#
# Static dielectric constant tensor:
#      x y z
#    x 2.071920 0.000000 0.000000 
#    y 0.000000 1.969180 0.000000 
#    z 0.000000 0.000000 1.952770 
# 
# From -- ./inp_files/1586.got.cif
#   From: 2010.05.17/outbox.cif.g08.bks.cpg/sg20_1_cif.got.tgz:1586.got - 2010.06.03 22:52:26.
