data_PCOD9320594
_publ_section_title
;
Structure prediction by ZEFSAII (Michael W. Deem and Ramdas Pophale) SiO2 
 PCOD9320594
Probable space group: C 2 2 21
;
_chemical_formula_sum "Si O2"
_cell_formula_units_Z 40
_cell_length_a 9.693476
_cell_length_b 24.798731
_cell_length_c 7.743220
_cell_angle_alpha 90.000000
_cell_angle_beta 90.000000
_cell_angle_gamma 90.000000
_cell_volume 1861.360938
_symmetry_space_group_name_H-M "C 2 2 21"
_symmetry_group_IT_number 20
_symmetry_cell_setting 'orthorhombic'
loop_
_space_group_symop_operation_xyz
x,y,z
-x,-y,1/2+z
x,-y,-z
-x,y,1/2-z
1/2+x,1/2+y,z
1/2-x,1/2-y,1/2+z
1/2+x,1/2-y,-z
1/2-x,1/2+y,1/2-z
loop_
_atom_site_type_symbol
_atom_site_label
_atom_site_fract_x
_atom_site_fract_y
_atom_site_fract_z
Si Si1 0.461112 0.710691 0.949558
Si Si2 0.792591 0.356643 0.385365
Si Si3 0.919981 0.664091 0.987037
Si Si4 0.411788 0.563629 0.007623
Si Si5 0.647685 0.623100 0.127185
O O1 0.500000 0.698451 0.750000
O O2 0.305528 0.688421 0.971713
O O3 0.459104 0.774310 0.974605
O O4 0.564394 0.678596 0.077496
O O5 0.844270 0.337304 0.198904
O O6 0.693503 0.408149 0.377523
O O7 0.935386 0.367011 0.483195
O O8 0.806254 0.637986 0.108623
O O9 0.570755 0.582640 0.993362
O O10 0.370145 0.592341 0.190144
O O11 0.401574 0.500000 0.000000
#
# Coordination Sequence:
#
# PCOD9320594 Si02
#       5
#     8   8   8   8   8
#     4  11  22  39  65  98 139 190 222 271 339 429
#     4  10  24  40  61  93 140 166 231 279 342 407
#     4  11  23  39  62 100 138 180 215 277 348 419
#     4  10  24  46  70  94 128 177 237 301 343 403
#     4  10  23  43  68  99 132 174 232 282 344 415
#
# _framework density 21.489653000000001
#
# number of rings (size 3 to 8) (size 9 to 14) (size 15 to 20)
#    0.000    1.600    2.000    1.200    2.800   12.800 
#    0.000    5.000    0.000    0.000    0.000    0.000 
#    0.000    0.000    0.000    0.000    0.000    0.000 
#
# Total GULP energy -111598.965162 kJ/mol
# GULP energy per Si atom -5579.948258 kJ/mol
# Density = 2.144074 g / cm^3
# Si number density = 21.489653 Si / 1000 Ang^3
#
#
#
# Elastic Constant Matrix: (Units=GPa)
#
#
# Indices 1 2 3 4 5 6 
#
# 1 88.0118 9.0924 51.7233 0.0000 0.0000 0.0000
# 2 9.0924 123.1338 36.8597 0.0000 0.0000 0.0000
# 3 51.7233 36.8597 97.2219 0.0000 0.0000 0.0000
# 4 0.0000 0.0000 0.0000 22.3836 0.0000 0.0000
# 5 0.0000 0.0000 0.0000 0.0000 27.6410 0.0000
# 6 0.0000 0.0000 0.0000 0.0000 0.0000 -16.3433
#
#
#
# Elastic Compliance Matrix: (Units=1/GPa)
#
#
# Indices 1 2 3 4 5 6 
#
# 1 0.016812 0.001620 -0.009558 0.000000 0.000000 0.000000
# 2 0.001620 0.009317 -0.004394 0.000000 0.000000 0.000000
# 3 -0.009558 -0.004394 0.017037 0.000000 0.000000 0.000000
# 4 0.000000 0.000000 0.000000 0.044676 0.000000 0.000000
# 5 0.000000 0.000000 0.000000 0.000000 0.036178 0.000000
# 6 0.000000 0.000000 0.000000 0.000000 0.000000 -0.061187
#
#
# Mechanical properties :
#
#
# Convention : Reuss Voigt Hill
#
# Bulk Modulus (GPa) = 54.05223 55.96872 55.01047
# Shear Modulus (GPa) = 53.38180 20.78238 37.08209
#
# Velocity S-wave (km/s) = 4.98945 3.11318 4.15852
# Velocity P-wave (km/s) = 7.64200 6.24688 6.97939
#
# Compressibility (1/GPa) = 0.01850063
#
# Stress axis : x y z
#
# Youngs Moduli (GPa) = 59.48100 107.33063 58.69619
#
# Poissons Ratio (x) = -0.17386 0.56104
# Poissons Ratio (y) = -0.09635 0.25792
# Poissons Ratio (z) = 0.56854 0.47162
#
# Static dielectric constant tensor:
#      x y z
#    x 1.831100 0.000000 0.000000 
#    y 0.000000 1.732320 0.000000 
#    z 0.000000 0.000000 1.921920 
# 
# From -- ./inp_files/6110.got.cif
#   From: 2010.05.17/outbox.cif.g08.bks.cpg/sg20_4_cif.got.tgz:6110.got - 2010.06.03 22:52:26.
