data_PCOD9320711
_publ_section_title
;
Structure prediction by ZEFSAII (Michael W. Deem and Ramdas Pophale) SiO2 
 PCOD9320711
Probable space group: C 2 2 21
;
_chemical_formula_sum "Si O2"
_cell_formula_units_Z 48
_cell_length_a 17.183639
_cell_length_b 11.185295
_cell_length_c 11.421604
_cell_angle_alpha 90.000000
_cell_angle_beta 90.000000
_cell_angle_gamma 90.000000
_cell_volume 2195.278791
_symmetry_space_group_name_H-M "C 2 2 21"
_symmetry_group_IT_number 20
_symmetry_cell_setting 'orthorhombic'
loop_
_space_group_symop_operation_xyz
x,y,z
-x,-y,1/2+z
x,-y,-z
-x,y,1/2-z
1/2+x,1/2+y,z
1/2-x,1/2-y,1/2+z
1/2+x,1/2-y,-z
1/2-x,1/2+y,1/2-z
loop_
_atom_site_type_symbol
_atom_site_label
_atom_site_fract_x
_atom_site_fract_y
_atom_site_fract_z
Si Si1 0.851838 0.577568 0.319340
Si Si2 0.459557 0.745509 0.529265
Si Si3 0.280991 0.500000 0.000000
Si Si4 0.247586 0.158702 0.112335
Si Si5 0.130294 0.238589 0.470059
Si Si6 0.116579 0.311724 0.207721
Si Si7 0.876627 0.000000 0.500000
O O1 0.909085 0.663313 0.392425
O O2 0.778233 0.540887 0.399030
O O3 0.812506 0.638208 0.208710
O O4 0.891150 0.453696 0.280063
O O5 0.551415 0.764472 0.540828
O O6 0.442678 0.771159 0.392194
O O7 0.428696 0.609798 0.547550
O O8 0.337823 0.612214 0.985325
O O9 0.199092 0.275544 0.148947
O O10 0.181912 0.057663 0.095793
O O11 0.296765 0.173766 0.993868
O O12 0.113494 0.245445 0.331692
#
# Coordination Sequence:
#
# PCOD9320711 Si02
#       7
#     8   8   4   8   8   8   4
#     4  12  23  45  71 100 137 186 230 284 345 420
#     4  11  25  45  69 103 145 181 221 292 360 409
#     4  12  21  42  75  96 130 182 240 280 333 418
#     4  11  24  41  74 100 130 180 238 283 334 415
#     4  12  25  45  69 109 136 181 235 288 353 410
#     4  11  23  44  72  98 138 186 230 278 345 425
#     4  10  23  46  67 102 138 178 230 288 343 404
#
# _framework density 21.865103000000001
#
# number of rings (size 3 to 8) (size 9 to 14) (size 15 to 20)
#    0.000    0.667    5.000    3.000    2.333    0.667 
#   12.000    0.000    0.000    0.000    0.000    0.000 
#    0.000    0.000    0.000    0.000    0.000    0.000 
#
# Total GULP energy -134064.753905 kJ/mol
# GULP energy per Si atom -5586.031413 kJ/mol
# Density = 2.181534 g / cm^3
# Si number density = 21.865103 Si / 1000 Ang^3
#
#
#
# Elastic Constant Matrix: (Units=GPa)
#
#
# Indices 1 2 3 4 5 6 
#
# 1 114.7582 44.3311 13.2627 0.0000 0.0000 0.0000
# 2 44.3311 98.8288 -4.7889 0.0000 0.0000 0.0000
# 3 13.2627 -4.7889 41.5154 0.0000 0.0000 0.0000
# 4 0.0000 0.0000 0.0000 17.7009 0.0000 0.0000
# 5 0.0000 0.0000 0.0000 0.0000 -5.1857 0.0000
# 6 0.0000 0.0000 0.0000 0.0000 0.0000 2.2807
#
#
#
# Elastic Compliance Matrix: (Units=1/GPa)
#
#
# Indices 1 2 3 4 5 6 
#
# 1 0.011221 -0.005236 -0.004189 0.000000 0.000000 0.000000
# 2 -0.005236 0.012619 0.003128 0.000000 0.000000 0.000000
# 3 -0.004189 0.003128 0.025786 0.000000 0.000000 0.000000
# 4 0.000000 0.000000 0.000000 0.056494 0.000000 0.000000
# 5 0.000000 0.000000 0.000000 0.000000 -0.192840 0.000000
# 6 0.000000 0.000000 0.000000 0.000000 0.000000 0.438462
#
#
# Mechanical properties :
#
#
# Convention : Reuss Voigt Hill
#
# Bulk Modulus (GPa) = 27.00281 40.07914 33.54097
# Shear Modulus (GPa) = 13.27387 16.44569 14.85978
#
# Velocity S-wave (km/s) = 2.46657 2.74550 2.60976
# Velocity P-wave (km/s) = 4.52642 5.33107 4.94514
#
# Compressibility (1/GPa) = 0.03703319
#
# Stress axis : x y z
#
# Youngs Moduli (GPa) = 89.12007 79.24633 38.78003
#
# Poissons Ratio (x) = 0.41495 0.16244
# Poissons Ratio (y) = 0.46665 -0.12132
# Poissons Ratio (z) = 0.37330 -0.24792
#
# Static dielectric constant tensor:
#      x y z
#    x 1.799070 0.000000 0.000000 
#    y 0.000000 1.879500 0.000000 
#    z 0.000000 0.000000 1.834270 
# 
# From -- ./inp_files/15742.got.cif
#   From: 2010.05.17/outbox.cif.g08.bks.cpg/sg20_8_cif.got.tgz:15742.got - 2010.06.03 22:52:26.
