data_PCOD9320142
_publ_section_title
;
Structure prediction by ZEFSAII (Michael W. Deem and Ramdas Pophale) SiO2 
 PCOD9320142
Probable space group: C 2 2 21
;
_chemical_formula_sum "Si O2"
_cell_formula_units_Z 32
_cell_length_a 27.517463
_cell_length_b 7.170289
_cell_length_c 7.376651
_cell_angle_alpha 90.000000
_cell_angle_beta 90.000000
_cell_angle_gamma 90.000000
_cell_volume 1455.473452
_symmetry_space_group_name_H-M "C 2 2 21"
_symmetry_group_IT_number 20
_symmetry_cell_setting 'orthorhombic'
loop_
_space_group_symop_operation_xyz
x,y,z
-x,-y,1/2+z
x,-y,-z
-x,y,1/2-z
1/2+x,1/2+y,z
1/2-x,1/2-y,1/2+z
1/2+x,1/2-y,-z
1/2-x,1/2+y,1/2-z
loop_
_atom_site_type_symbol
_atom_site_label
_atom_site_fract_x
_atom_site_fract_y
_atom_site_fract_z
Si Si1 0.230881 0.500000 0.000000
Si Si2 0.542846 0.852102 0.361750
Si Si3 0.796548 0.877903 0.334564
Si Si4 0.899950 0.967758 0.783427
Si Si5 0.520513 0.500000 0.000000
O O1 0.201709 0.665290 0.098046
O O2 0.264332 0.406096 0.155384
O O3 0.500000 0.950880 0.250000
O O4 0.586756 0.751158 0.258270
O O5 0.512291 0.677766 0.447224
O O6 0.563154 0.000000 0.500000
O O7 0.849491 0.961418 0.292852
O O8 0.775368 0.000000 0.500000
O O9 0.943999 0.056027 0.666472
O O10 0.898621 0.000000 0.000000
#
# Coordination Sequence:
#
# PCOD9320142 Si02
#       5
#     4   8   8   8   4
#     4  12  26  47  82 102 142 194 240 299 384 446
#     4  10  23  40  65  97 137 195 242 289 353 422
#     4  12  25  48  72 109 143 187 243 305 370 449
#     4  11  23  42  68  99 146 184 233 302 363 418
#     4  10  22  43  64  92 142 194 232 301 340 420
#
# _framework density 21.985975
#
# number of rings (size 3 to 8) (size 9 to 14) (size 15 to 20)
#    0.000    1.000    6.250    0.000    3.500    0.000 
#    6.750    1.250    0.000    0.000    0.000    0.000 
#    0.000    0.000    0.000    0.000    0.000    0.000 
#
# Total GULP energy -89289.322919 kJ/mol
# GULP energy per Si atom -5580.582682 kJ/mol
# Density = 2.193593 g / cm^3
# Si number density = 21.985975 Si / 1000 Ang^3
#
#
#
# Elastic Constant Matrix: (Units=GPa)
#
#
# Indices 1 2 3 4 5 6 
#
# 1 97.3416 44.0549 31.5424 0.0000 0.0000 0.0000
# 2 44.0549 99.6568 26.2832 0.0000 0.0000 0.0000
# 3 31.5424 26.2832 126.0473 0.0000 0.0000 0.0000
# 4 0.0000 0.0000 0.0000 44.7611 0.0000 0.0000
# 5 0.0000 0.0000 0.0000 0.0000 24.5642 0.0000
# 6 0.0000 0.0000 0.0000 0.0000 0.0000 15.9874
#
#
#
# Elastic Compliance Matrix: (Units=1/GPa)
#
#
# Indices 1 2 3 4 5 6 
#
# 1 0.013417 -0.005339 -0.002244 0.000000 0.000000 0.000000
# 2 -0.005339 0.012743 -0.001321 0.000000 0.000000 0.000000
# 3 -0.002244 -0.001321 0.008771 0.000000 0.000000 0.000000
# 4 0.000000 0.000000 0.000000 0.022341 0.000000 0.000000
# 5 0.000000 0.000000 0.000000 0.000000 0.040710 0.000000
# 6 0.000000 0.000000 0.000000 0.000000 0.000000 0.062549
#
#
# Mechanical properties :
#
#
# Convention : Reuss Voigt Hill
#
# Bulk Modulus (GPa) = 58.40573 58.53409 58.46991
# Shear Modulus (GPa) = 27.16709 31.80688 29.48698
#
# Velocity S-wave (km/s) = 3.51900 3.80766 3.66618
# Velocity P-wave (km/s) = 6.56764 6.78323 6.67630
#
# Compressibility (1/GPa) = 0.01712161
#
# Stress axis : x y z
#
# Youngs Moduli (GPa) = 74.53395 78.47356 114.01765
#
# Poissons Ratio (x) = 0.41899 0.25587
# Poissons Ratio (y) = 0.39795 0.15063
# Poissons Ratio (z) = 0.16726 0.10367
#
# Static dielectric constant tensor:
#      x y z
#    x 1.826540 0.000000 0.000000 
#    y 0.000000 1.801400 0.000000 
#    z 0.000000 0.000000 1.936860 
# 
# From -- ./inp_files/11316.got.cif
#   From: 2010.05.17/outbox.cif.g08.bks.cpg/sg20_6_cif.got.tgz:11316.got - 2010.06.03 22:52:26.
