data_PCOD9320703
_publ_section_title
;
Structure prediction by ZEFSAII (Michael W. Deem and Ramdas Pophale) SiO2 
 PCOD9320703
Probable space group: C 2 2 21
;
_chemical_formula_sum "Si O2"
_cell_formula_units_Z 28
_cell_length_a 19.595182
_cell_length_b 4.986799
_cell_length_c 11.072587
_cell_angle_alpha 90.000000
_cell_angle_beta 90.000000
_cell_angle_gamma 90.000000
_cell_volume 1081.982575
_symmetry_space_group_name_H-M "C 2 2 21"
_symmetry_group_IT_number 20
_symmetry_cell_setting 'orthorhombic'
loop_
_space_group_symop_operation_xyz
x,y,z
-x,-y,1/2+z
x,-y,-z
-x,y,1/2-z
1/2+x,1/2+y,z
1/2-x,1/2-y,1/2+z
1/2+x,1/2-y,-z
1/2-x,1/2+y,1/2-z
loop_
_atom_site_type_symbol
_atom_site_label
_atom_site_fract_x
_atom_site_fract_y
_atom_site_fract_z
Si Si1 0.980323 0.329545 0.621412
Si Si2 0.166633 0.854976 0.186011
Si Si3 0.317104 0.852485 0.151471
Si Si4 0.913650 0.000000 0.000000
O O1 0.988229 0.500000 0.500000
O O2 0.903633 0.218018 0.622765
O O3 0.000000 0.463700 0.750000
O O4 0.036080 0.096015 0.605953
O O5 0.237853 0.811823 0.116402
O O6 0.172090 0.651577 0.300161
O O7 0.168343 0.157710 0.234116
O O8 0.366586 0.735278 0.051170
#
# Coordination Sequence:
#
# PCOD9320703 Si02
#       4
#     8   8   8   4
#     4  12  27  46  75 112 153 201 249 319 378 457
#     4  10  23  47  72 108 146 199 252 312 375 453
#     4  10  23  45  75 104 150 196 253 312 377 449
#     4  12  26  42  74 108 150 200 250 318 380 448
#
# _framework density 25.878419999999998
#
# number of rings (size 3 to 8) (size 9 to 14) (size 15 to 20)
#    0.000    1.143    2.857    1.714    6.000    1.143 
#    0.000    0.000    0.000    0.000    0.000    0.000 
#    0.000    0.000    0.000    0.000    0.000    0.000 
#
# Total GULP energy -78495.676487 kJ/mol
# GULP energy per Si atom -5606.834035 kJ/mol
# Density = 2.581952 g / cm^3
# Si number density = 25.878420 Si / 1000 Ang^3
#
#
#
# Elastic Constant Matrix: (Units=GPa)
#
#
# Indices 1 2 3 4 5 6 
#
# 1 225.7064 6.2541 51.7326 0.0000 0.0000 0.0000
# 2 6.2541 58.7567 28.7598 0.0000 0.0000 0.0000
# 3 51.7326 28.7598 124.8302 0.0000 0.0000 0.0000
# 4 0.0000 0.0000 0.0000 39.8849 0.0000 0.0000
# 5 0.0000 0.0000 0.0000 0.0000 43.3012 0.0000
# 6 0.0000 0.0000 0.0000 0.0000 0.0000 11.4292
#
#
#
# Elastic Compliance Matrix: (Units=1/GPa)
#
#
# Indices 1 2 3 4 5 6 
#
# 1 0.004910 0.000534 -0.002158 0.000000 0.000000 0.000000
# 2 0.000534 0.019241 -0.004654 0.000000 0.000000 0.000000
# 3 -0.002158 -0.004654 0.009977 0.000000 0.000000 0.000000
# 4 0.000000 0.000000 0.000000 0.025072 0.000000 0.000000
# 5 0.000000 0.000000 0.000000 0.000000 0.023094 0.000000
# 6 0.000000 0.000000 0.000000 0.000000 0.000000 0.087495
#
#
# Mechanical properties :
#
#
# Convention : Reuss Voigt Hill
#
# Bulk Modulus (GPa) = 46.35707 64.75404 55.55556
# Shear Modulus (GPa) = 26.38012 40.42619 33.40315
#
# Velocity S-wave (km/s) = 3.19625 3.95670 3.59663
# Velocity P-wave (km/s) = 5.61904 6.77870 6.22593
#
# Compressibility (1/GPa) = 0.02157168
#
# Stress axis : x y z
#
# Youngs Moduli (GPa) = 203.65158 51.97357 100.22645
#
# Poissons Ratio (x) = -0.02773 0.21628
# Poissons Ratio (y) = -0.10866 0.46645
# Poissons Ratio (z) = 0.43946 0.24188
#
# Static dielectric constant tensor:
#      x y z
#    x 1.985280 0.000000 0.000000 
#    y 0.000000 2.001910 0.000000 
#    z 0.000000 0.000000 2.091850 
# 
# From -- ./inp_files/11825.got.cif
#   From: 2010.05.17/outbox.cif.g08.bks.cpg/sg20_6_cif.got.tgz:11825.got - 2010.06.03 22:52:26.
