data_PCOD9320137
_publ_section_title
;
Structure prediction by ZEFSAII (Michael W. Deem and Ramdas Pophale) SiO2 
 PCOD9320137
Probable space group: C 2 2 21
;
_chemical_formula_sum "Si O2"
_cell_formula_units_Z 48
_cell_length_a 11.260366
_cell_length_b 11.104064
_cell_length_c 14.669346
_cell_angle_alpha 90.000000
_cell_angle_beta 90.000000
_cell_angle_gamma 90.000000
_cell_volume 1834.193775
_symmetry_space_group_name_H-M "C 2 2 21"
_symmetry_group_IT_number 20
_symmetry_cell_setting 'orthorhombic'
loop_
_space_group_symop_operation_xyz
x,y,z
-x,-y,1/2+z
x,-y,-z
-x,y,1/2-z
1/2+x,1/2+y,z
1/2-x,1/2-y,1/2+z
1/2+x,1/2-y,-z
1/2-x,1/2+y,1/2-z
loop_
_atom_site_type_symbol
_atom_site_label
_atom_site_fract_x
_atom_site_fract_y
_atom_site_fract_z
Si Si1 0.839757 0.605395 0.434781
Si Si2 0.834708 0.941255 0.148243
Si Si3 0.123032 0.308014 0.230386
Si Si4 0.771559 0.342708 0.068970
Si Si5 0.417774 0.817099 0.891095
Si Si6 0.680199 0.564770 0.167534
O O1 0.883313 0.500000 0.500000
O O2 0.706707 0.557418 0.408479
O O3 0.812449 0.738933 0.471828
O O4 0.951849 0.633066 0.369769
O O5 0.705423 0.884202 0.165767
O O6 0.912784 0.828956 0.116413
O O7 0.865664 0.989223 0.247087
O O8 0.185687 0.300150 0.329857
O O9 0.000000 0.370414 0.250000
O O10 0.100657 0.183757 0.175841
O O11 0.699466 0.465081 0.090245
O O12 0.876457 0.351444 0.994569
O O13 0.313193 0.875042 0.828439
#
# Coordination Sequence:
#
# PCOD9320137 Si02
#       6
#     8   8   8   8   8   8
#     4  12  24  42  71  99 136 188 231 294 363 412
#     4  10  23  43  62 100 132 169 236 288 334 436
#     4  10  23  39  65  92 133 182 227 289 360 410
#     4  11  23  43  63  98 139 175 240 297 340 442
#     4  11  25  42  69  99 137 184 239 293 357 421
#     4  10  22  43  61  94 134 174 227 298 342 420
#
# _framework density 26.169536999999998
#
# number of rings (size 3 to 8) (size 9 to 14) (size 15 to 20)
#    0.000    1.333    3.333    1.500    7.000    1.333 
#    0.000    0.000    0.000    0.000    0.000    0.000 
#    0.000    0.000    0.000    0.000    0.000    0.000 
#
# Total GULP energy -133826.645290 kJ/mol
# GULP energy per Si atom -5576.110220 kJ/mol
# Density = 2.610997 g / cm^3
# Si number density = 26.169537 Si / 1000 Ang^3
#
#
#
# Elastic Constant Matrix: (Units=GPa)
#
#
# Indices 1 2 3 4 5 6 
#
# 1 70.7473 14.2887 7.1908 0.0000 0.0000 0.0000
# 2 14.2887 106.1527 11.8134 0.0000 0.0000 0.0000
# 3 7.1908 11.8134 97.4954 0.0000 0.0000 0.0000
# 4 0.0000 0.0000 0.0000 36.2948 0.0000 0.0000
# 5 0.0000 0.0000 0.0000 0.0000 16.0267 0.0000
# 6 0.0000 0.0000 0.0000 0.0000 0.0000 17.8852
#
#
#
# Elastic Compliance Matrix: (Units=1/GPa)
#
#
# Indices 1 2 3 4 5 6 
#
# 1 0.014599 -0.001871 -0.000850 0.000000 0.000000 0.000000
# 2 -0.001871 0.009789 -0.001048 0.000000 0.000000 0.000000
# 3 -0.000850 -0.001048 0.010447 0.000000 0.000000 0.000000
# 4 0.000000 0.000000 0.000000 0.027552 0.000000 0.000000
# 5 0.000000 0.000000 0.000000 0.000000 0.062396 0.000000
# 6 0.000000 0.000000 0.000000 0.000000 0.000000 0.055912
#
#
# Mechanical properties :
#
#
# Convention : Reuss Voigt Hill
#
# Bulk Modulus (GPa) = 36.63418 37.88682 37.26050
# Shear Modulus (GPa) = 25.33813 30.11485 27.72649
#
# Velocity S-wave (km/s) = 3.11502 3.39596 3.25852
# Velocity P-wave (km/s) = 5.19297 5.46678 5.33163
#
# Compressibility (1/GPa) = 0.02729691
#
# Stress axis : x y z
#
# Youngs Moduli (GPa) = 68.49786 102.15744 95.72497
#
# Poissons Ratio (x) = 0.19109 0.08138
# Poissons Ratio (y) = 0.12813 0.10033
# Poissons Ratio (z) = 0.05823 0.10708
#
# Static dielectric constant tensor:
#      x y z
#    x 2.103360 0.000000 0.000000 
#    y 0.000000 2.085530 0.000000 
#    z 0.000000 0.000000 2.179660 
# 
# From -- ./inp_files/20651.got.cif
#   From: 2010.05.17/outbox.cif.g08.bks.cpg/sg20_11_cif.got.tgz:20651.got - 2010.06.03 22:52:26.
