data_PCOD9320769
_publ_section_title
;
Structure prediction by ZEFSAII (Michael W. Deem and Ramdas Pophale) SiO2 
 PCOD9320769
Probable space group: C 2 2 21
;
_chemical_formula_sum "Si O2"
_cell_formula_units_Z 56
_cell_length_a 8.399299
_cell_length_b 14.281679
_cell_length_c 19.237025
_cell_angle_alpha 90.000000
_cell_angle_beta 90.000000
_cell_angle_gamma 90.000000
_cell_volume 2307.598343
_symmetry_space_group_name_H-M "C 2 2 21"
_symmetry_group_IT_number 20
_symmetry_cell_setting 'orthorhombic'
loop_
_space_group_symop_operation_xyz
x,y,z
-x,-y,1/2+z
x,-y,-z
-x,y,1/2-z
1/2+x,1/2+y,z
1/2-x,1/2-y,1/2+z
1/2+x,1/2-y,-z
1/2-x,1/2+y,1/2-z
loop_
_atom_site_type_symbol
_atom_site_label
_atom_site_fract_x
_atom_site_fract_y
_atom_site_fract_z
Si Si1 0.932979 0.061587 0.567190
Si Si2 0.713323 0.315672 0.622575
Si Si3 0.863129 0.772532 0.021913
Si Si4 0.434415 0.921342 0.053295
Si Si5 0.131276 0.985112 0.699403
Si Si6 0.887874 0.280645 0.358898
Si Si7 0.816492 0.177510 0.732677
O O1 0.743438 0.048782 0.577768
O O2 0.987777 0.164286 0.543024
O O3 0.037607 0.032597 0.634113
O O4 0.975533 0.000000 0.500000
O O5 0.733829 0.323601 0.540374
O O6 0.747868 0.408373 0.666594
O O7 0.524537 0.295223 0.629800
O O8 0.788161 0.223976 0.658182
O O9 0.754460 0.761660 0.088527
O O10 0.908235 0.672393 0.991824
O O11 0.540905 0.882401 0.117162
O O12 0.497072 0.000000 0.000000
O O13 0.201644 0.068082 0.747310
O O14 0.000000 0.939537 0.750000
O O15 0.814114 0.277217 0.282942
O O16 0.000000 0.198851 0.750000
#
# Coordination Sequence:
#
# PCOD9320769 Si02
#       7
#     8   8   8   8   8   8   8
#     4  11  22  45  72 103 134 186 242 290 356 437
#     4  11  25  48  70 102 143 186 238 298 359 430
#     4  11  23  42  72 103 142 186 232 295 362 424
#     4  10  24  39  65 106 143 176 230 294 354 421
#     4  11  24  42  75  99 136 191 236 292 354 433
#     4  11  24  42  70 100 140 182 230 302 358 414
#     4  11  26  45  68  99 139 187 239 294 352 437
#
# _framework density 24.267654
#
# number of rings (size 3 to 8) (size 9 to 14) (size 15 to 20)
#    0.000    1.143    2.857    3.000   10.000    4.000 
#    0.000    1.429    0.000    0.000    0.000    0.000 
#    0.000    0.000    0.000    0.000    0.000    0.000 
#
# Total GULP energy -156635.298864 kJ/mol
# GULP energy per Si atom -5594.117817 kJ/mol
# Density = 2.421242 g / cm^3
# Si number density = 24.267654 Si / 1000 Ang^3
#
#
#
# Elastic Constant Matrix: (Units=GPa)
#
#
# Indices 1 2 3 4 5 6 
#
# 1 59.7708 3.3670 8.8171 0.0000 0.0000 0.0000
# 2 3.3670 80.9644 26.9654 0.0000 0.0000 0.0000
# 3 8.8171 26.9654 124.1740 0.0000 0.0000 0.0000
# 4 0.0000 0.0000 0.0000 38.9331 0.0000 0.0000
# 5 0.0000 0.0000 0.0000 0.0000 43.5582 0.0000
# 6 0.0000 0.0000 0.0000 0.0000 0.0000 32.6659
#
#
#
# Elastic Compliance Matrix: (Units=1/GPa)
#
#
# Indices 1 2 3 4 5 6 
#
# 1 0.016916 -0.000327 -0.001130 0.000000 0.000000 0.000000
# 2 -0.000327 0.013320 -0.002869 0.000000 0.000000 0.000000
# 3 -0.001130 -0.002869 0.008757 0.000000 0.000000 0.000000
# 4 0.000000 0.000000 0.000000 0.025685 0.000000 0.000000
# 5 0.000000 0.000000 0.000000 0.000000 0.022958 0.000000
# 6 0.000000 0.000000 0.000000 0.000000 0.000000 0.030613
#
#
# Mechanical properties :
#
#
# Convention : Reuss Voigt Hill
#
# Bulk Modulus (GPa) = 32.96034 38.13425 35.54730
# Shear Modulus (GPa) = 36.49242 38.08210 37.28726
#
# Velocity S-wave (km/s) = 3.88202 3.96568 3.92407
# Velocity P-wave (km/s) = 5.80560 6.05945 5.93388
#
# Compressibility (1/GPa) = 0.03033949
#
# Stress axis : x y z
#
# Youngs Moduli (GPa) = 59.11669 75.07300 114.19993
#
# Poissons Ratio (x) = 0.02456 0.12906
# Poissons Ratio (y) = 0.01934 0.32769
# Poissons Ratio (z) = 0.06681 0.21541
#
# Static dielectric constant tensor:
#      x y z
#    x 1.949480 0.000000 0.000000 
#    y 0.000000 1.957300 0.000000 
#    z 0.000000 0.000000 1.954590 
# 
# From -- ./inp_files/26722.got.cif
#   From: 2010.05.17/outbox.cif.g08.bks.cpg/sg20_14_cif.got.tgz:26722.got - 2010.06.03 22:52:26.
