data_PCOD9320102
_publ_section_title
;
Structure prediction by ZEFSAII (Michael W. Deem and Ramdas Pophale) SiO2 
 PCOD9320102
Probable space group: C 2 2 21
;
_chemical_formula_sum "Si O2"
_cell_formula_units_Z 24
_cell_length_a 14.976480
_cell_length_b 10.348563
_cell_length_c 7.367372
_cell_angle_alpha 90.000000
_cell_angle_beta 90.000000
_cell_angle_gamma 90.000000
_cell_volume 1141.832494
_symmetry_space_group_name_H-M "C 2 2 21"
_symmetry_group_IT_number 20
_symmetry_cell_setting 'orthorhombic'
loop_
_space_group_symop_operation_xyz
x,y,z
-x,-y,1/2+z
x,-y,-z
-x,y,1/2-z
1/2+x,1/2+y,z
1/2-x,1/2-y,1/2+z
1/2+x,1/2-y,-z
1/2-x,1/2+y,1/2-z
loop_
_atom_site_type_symbol
_atom_site_label
_atom_site_fract_x
_atom_site_fract_y
_atom_site_fract_z
Si Si1 0.337662 0.500000 0.500000
Si Si2 0.928762 0.753575 0.392532
Si Si3 0.187126 0.460063 0.790339
Si Si4 0.961153 0.500000 0.000000
O O1 0.396150 0.370931 0.512153
O O2 0.273502 0.496592 0.675505
O O3 0.841160 0.691037 0.297299
O O4 0.000000 0.807028 0.250000
O O5 0.979937 0.629180 0.476350
O O6 0.103816 0.517061 0.673704
O O7 0.195755 0.500000 0.000000
#
# Coordination Sequence:
#
# PCOD9320102 Si02
#       4
#     4   8   8   4
#     4  11  26  44  62 101 138 158 208 279 328 364
#     4  10  22  44  65  97 126 171 218 259 319 380
#     4  10  22  42  69  92 123 174 216 254 313 394
#     4   9  20  44  72  89 120 170 226 257 302 394
#
# _framework density 21.018844000000001
#
# number of rings (size 3 to 8) (size 9 to 14) (size 15 to 20)
#    0.000    2.000    1.667    0.000    4.667    0.000 
#    9.000    3.333    0.000    0.000    0.000    0.000 
#    0.000    0.000    0.000    0.000    0.000    0.000 
#
# Total GULP energy -66907.357202 kJ/mol
# GULP energy per Si atom -5575.613100 kJ/mol
# Density = 2.097100 g / cm^3
# Si number density = 21.018844 Si / 1000 Ang^3
#
#
#
# Elastic Constant Matrix: (Units=GPa)
#
#
# Indices 1 2 3 4 5 6 
#
# 1 97.4706 75.2834 62.0348 0.0000 0.0000 0.0000
# 2 75.2834 103.1670 35.7988 0.0000 0.0000 0.0000
# 3 62.0348 35.7988 157.5609 0.0000 0.0000 0.0000
# 4 0.0000 0.0000 0.0000 20.6626 0.0000 0.0000
# 5 0.0000 0.0000 0.0000 0.0000 27.2359 0.0000
# 6 0.0000 0.0000 0.0000 0.0000 0.0000 8.3779
#
#
#
# Elastic Compliance Matrix: (Units=1/GPa)
#
#
# Indices 1 2 3 4 5 6 
#
# 1 0.029719 -0.019135 -0.007353 0.000000 0.000000 0.000000
# 2 -0.019135 0.022843 0.002344 0.000000 0.000000 0.000000
# 3 -0.007353 0.002344 0.008709 0.000000 0.000000 0.000000
# 4 0.000000 0.000000 0.000000 0.048397 0.000000 0.000000
# 5 0.000000 0.000000 0.000000 0.000000 0.036716 0.000000
# 6 0.000000 0.000000 0.000000 0.000000 0.000000 0.119362
#
#
# Mechanical properties :
#
#
# Convention : Reuss Voigt Hill
#
# Bulk Modulus (GPa) = 77.02883 78.27027 77.64955
# Shear Modulus (GPa) = 15.70539 23.59405 19.64972
#
# Velocity S-wave (km/s) = 2.73647 3.35404 3.06087
# Velocity P-wave (km/s) = 6.83458 7.23315 7.03668
#
# Compressibility (1/GPa) = 0.01298215
#
# Stress axis : x y z
#
# Youngs Moduli (GPa) = 33.64887 43.77724 114.81883
#
# Poissons Ratio (x) = 0.83767 0.84429
# Poissons Ratio (y) = 0.64387 -0.26910
# Poissons Ratio (z) = 0.24743 -0.10260
#
# Static dielectric constant tensor:
#      x y z
#    x 1.785990 0.000000 0.000000 
#    y 0.000000 1.738230 0.000000 
#    z 0.000000 0.000000 1.813490 
# 
# From -- ./inp_files/5556.got.cif
#   From: 2010.05.17/outbox.cif.g08.bks.cpg/sg20_3_cif.got.tgz:5556.got - 2010.06.03 22:52:26.
