data_PCOD9320461
_publ_section_title
;
Structure prediction by ZEFSAII (Michael W. Deem and Ramdas Pophale) SiO2 
 PCOD9320461
Probable space group: C 2 2 21
;
_chemical_formula_sum "Si O2"
_cell_formula_units_Z 40
_cell_length_a 12.757320
_cell_length_b 5.170086
_cell_length_c 26.749520
_cell_angle_alpha 90.000000
_cell_angle_beta 90.000000
_cell_angle_gamma 90.000000
_cell_volume 1764.303152
_symmetry_space_group_name_H-M "C 2 2 21"
_symmetry_group_IT_number 20
_symmetry_cell_setting 'orthorhombic'
loop_
_space_group_symop_operation_xyz
x,y,z
-x,-y,1/2+z
x,-y,-z
-x,y,1/2-z
1/2+x,1/2+y,z
1/2-x,1/2-y,1/2+z
1/2+x,1/2-y,-z
1/2-x,1/2+y,1/2-z
loop_
_atom_site_type_symbol
_atom_site_label
_atom_site_fract_x
_atom_site_fract_y
_atom_site_fract_z
Si Si1 0.482304 0.093729 0.556116
Si Si2 0.622381 0.135218 0.144270
Si Si3 0.244282 0.756229 0.965521
Si Si4 0.143198 0.043048 0.389158
Si Si5 0.970336 0.886516 0.692592
O O1 0.374250 0.262548 0.555599
O O2 0.576593 0.267589 0.575560
O O3 0.498769 0.000000 0.500000
O O4 0.450563 0.864968 0.594523
O O5 0.741362 0.140747 0.125667
O O6 0.604113 0.371724 0.181223
O O7 0.585061 0.870937 0.171230
O O8 0.326680 0.712576 0.920961
O O9 0.249181 0.500000 0.000000
O O10 0.261787 0.000000 0.000000
O O11 0.073938 0.038261 0.339277
O O12 0.000000 0.854407 0.750000
#
# Coordination Sequence:
#
# PCOD9320461 Si02
#       5
#     8   8   8   8   8
#     4   9  21  42  67  97 139 183 220 265 325 397
#     4  10  24  44  68 102 135 170 226 278 323 400
#     4  10  23  41  62  93 131 174 225 268 314 391
#     4  10  24  43  68  97 135 178 219 276 340 392
#     4  11  25  46  71  99 132 173 224 283 343 398
#
# _framework density 22.671842000000002
#
# number of rings (size 3 to 8) (size 9 to 14) (size 15 to 20)
#    0.000    2.000    0.000    0.600    0.000   25.600 
#    0.000   11.000    0.000    0.000    0.000    0.000 
#    0.000    0.000    0.000    0.000    0.000    0.000 
#
# Total GULP energy -111981.650772 kJ/mol
# GULP energy per Si atom -5599.082539 kJ/mol
# Density = 2.262024 g / cm^3
# Si number density = 22.671842 Si / 1000 Ang^3
#
#
#
# Elastic Constant Matrix: (Units=GPa)
#
#
# Indices 1 2 3 4 5 6 
#
# 1 180.2476 38.9719 59.8991 0.0000 0.0000 0.0000
# 2 38.9719 117.6455 49.7660 0.0000 0.0000 0.0000
# 3 59.8991 49.7660 166.6573 0.0000 0.0000 0.0000
# 4 0.0000 0.0000 0.0000 34.2867 0.0000 0.0000
# 5 0.0000 0.0000 0.0000 0.0000 28.7836 0.0000
# 6 0.0000 0.0000 0.0000 0.0000 0.0000 16.6926
#
#
#
# Elastic Compliance Matrix: (Units=1/GPa)
#
#
# Indices 1 2 3 4 5 6 
#
# 1 0.006477 -0.001329 -0.001931 0.000000 0.000000 0.000000
# 2 -0.001329 0.010002 -0.002509 0.000000 0.000000 0.000000
# 3 -0.001931 -0.002509 0.007444 0.000000 0.000000 0.000000
# 4 0.000000 0.000000 0.000000 0.029166 0.000000 0.000000
# 5 0.000000 0.000000 0.000000 0.000000 0.034742 0.000000
# 6 0.000000 0.000000 0.000000 0.000000 0.000000 0.059907
#
#
# Mechanical properties :
#
#
# Convention : Reuss Voigt Hill
#
# Bulk Modulus (GPa) = 80.74642 84.64714 82.69678
# Shear Modulus (GPa) = 30.59922 37.01348 33.80635
#
# Velocity S-wave (km/s) = 3.67775 4.04490 3.86569
# Velocity P-wave (km/s) = 7.32988 7.69622 7.51528
#
# Compressibility (1/GPa) = 0.01238445
#
# Stress axis : x y z
#
# Youngs Moduli (GPa) = 154.39362 99.98365 134.34246
#
# Poissons Ratio (x) = 0.13285 0.25944
# Poissons Ratio (y) = 0.20514 0.33707
# Poissons Ratio (z) = 0.29816 0.25087
#
# Static dielectric constant tensor:
#      x y z
#    x 1.877140 0.000000 0.000000 
#    y 0.000000 1.875960 0.000000 
#    z 0.000000 0.000000 1.829620 
# 
# From -- ./inp_files/30228.got.cif
#   From: 2010.05.17/outbox.cif.g08.bks.cpg/sg20_16_cif.got.tgz:30228.got - 2010.06.03 22:52:26.
