data_PCOD9320222
_publ_section_title
;
Structure prediction by ZEFSAII (Michael W. Deem and Ramdas Pophale) SiO2 
 PCOD9320222
Probable space group: C 2 2 21
;
_chemical_formula_sum "Si O2"
_cell_formula_units_Z 32
_cell_length_a 7.191539
_cell_length_b 13.191485
_cell_length_c 15.097412
_cell_angle_alpha 90.000000
_cell_angle_beta 90.000000
_cell_angle_gamma 90.000000
_cell_volume 1432.247375
_symmetry_space_group_name_H-M "C 2 2 21"
_symmetry_group_IT_number 20
_symmetry_cell_setting 'orthorhombic'
loop_
_space_group_symop_operation_xyz
x,y,z
-x,-y,1/2+z
x,-y,-z
-x,y,1/2-z
1/2+x,1/2+y,z
1/2-x,1/2-y,1/2+z
1/2+x,1/2-y,-z
1/2-x,1/2+y,1/2-z
loop_
_atom_site_type_symbol
_atom_site_label
_atom_site_fract_x
_atom_site_fract_y
_atom_site_fract_z
Si Si1 0.607042 0.585337 0.132373
Si Si2 0.232509 0.517948 0.179739
Si Si3 0.463571 0.843633 0.929532
Si Si4 0.665512 0.805212 0.113520
O O1 0.417399 0.526334 0.118384
O O2 0.701272 0.544274 0.221899
O O3 0.770768 0.593180 0.060438
O O4 0.558726 0.704730 0.146520
O O5 0.157671 0.404637 0.172156
O O6 0.087474 0.599381 0.142696
O O7 0.377409 0.736378 0.897622
O O8 0.579374 0.832817 0.018433
#
# Coordination Sequence:
#
# PCOD9320222 Si02
#       4
#     8   8   8   8
#     4   9  24  42  66 101 132 171 228 275 329 413
#     4  11  21  45  65  98 136 169 230 274 341 401
#     4  10  22  44  64 101 132 174 227 270 333 413
#     4  10  23  43  67  95 139 176 212 289 329 391
#
# _framework density 22.342510000000001
#
# number of rings (size 3 to 8) (size 9 to 14) (size 15 to 20)
#    1.500    0.500    0.000    3.000    0.000    4.000 
#   22.500    0.000    0.000    0.000    0.000    0.000 
#    0.000    0.000    0.000    0.000    0.000    0.000 
#
# Total GULP energy -89218.963938 kJ/mol
# GULP energy per Si atom -5576.185246 kJ/mol
# Density = 2.229166 g / cm^3
# Si number density = 22.342510 Si / 1000 Ang^3
#
#
#
# Elastic Constant Matrix: (Units=GPa)
#
#
# Indices 1 2 3 4 5 6 
#
# 1 94.9036 13.5992 0.7773 0.0000 0.0000 0.0000
# 2 13.5992 112.8749 39.6286 0.0000 0.0000 0.0000
# 3 0.7773 39.6286 32.4562 0.0000 0.0000 0.0000
# 4 0.0000 0.0000 0.0000 3.0039 0.0000 0.0000
# 5 0.0000 0.0000 0.0000 0.0000 26.1559 0.0000
# 6 0.0000 0.0000 0.0000 0.0000 0.0000 -116.2580
#
#
#
# Elastic Compliance Matrix: (Units=1/GPa)
#
#
# Indices 1 2 3 4 5 6 
#
# 1 0.010822 -0.002123 0.002333 0.000000 0.000000 0.000000
# 2 -0.002123 0.015923 -0.019391 0.000000 0.000000 0.000000
# 3 0.002333 -0.019391 0.054431 0.000000 0.000000 0.000000
# 4 0.000000 0.000000 0.000000 0.332904 0.000000 0.000000
# 5 0.000000 0.000000 0.000000 0.000000 0.038232 0.000000
# 6 0.000000 0.000000 0.000000 0.000000 0.000000 -0.008602
#
#
# Mechanical properties :
#
#
# Convention : Reuss Voigt Hill
#
# Bulk Modulus (GPa) = 23.35683 38.69389 31.02536
# Shear Modulus (GPa) = 10.07365 -5.00434 2.53465
#
# Velocity S-wave (km/s) = 2.12568 -1.49823 1.06626
# Velocity P-wave (km/s) = 4.06219 3.78988 3.92839
#
# Compressibility (1/GPa) = 0.04281404
#
# Stress axis : x y z
#
# Youngs Moduli (GPa) = 92.40353 62.80230 18.37191
#
# Poissons Ratio (x) = 0.13332 -0.04286
# Poissons Ratio (y) = 0.19616 0.35625
# Poissons Ratio (z) = -0.21556 1.21779
#
# Static dielectric constant tensor:
#      x y z
#    x 1.890050 0.000000 0.000000 
#    y 0.000000 1.824950 0.000000 
#    z 0.000000 0.000000 1.815040 
# 
# From -- ./inp_files/18277.got.cif
#   From: 2010.05.17/outbox.cif.g08.bks.cpg/sg20_10_cif.got.tgz:18277.got - 2010.06.03 22:52:26.
