data_PCOD9320578
_publ_section_title
;
Structure prediction by ZEFSAII (Michael W. Deem and Ramdas Pophale) SiO2 
 PCOD9320578
Probable space group: C 2 2 21
;
_chemical_formula_sum "Si O2"
_cell_formula_units_Z 48
_cell_length_a 20.500968
_cell_length_b 8.667194
_cell_length_c 14.147843
_cell_angle_alpha 90.000000
_cell_angle_beta 90.000000
_cell_angle_gamma 90.000000
_cell_volume 2513.871747
_symmetry_space_group_name_H-M "C 2 2 21"
_symmetry_group_IT_number 20
_symmetry_cell_setting 'orthorhombic'
loop_
_space_group_symop_operation_xyz
x,y,z
-x,-y,1/2+z
x,-y,-z
-x,y,1/2-z
1/2+x,1/2+y,z
1/2-x,1/2-y,1/2+z
1/2+x,1/2-y,-z
1/2-x,1/2+y,1/2-z
loop_
_atom_site_type_symbol
_atom_site_label
_atom_site_fract_x
_atom_site_fract_y
_atom_site_fract_z
Si Si1 0.433575 0.189799 0.699725
Si Si2 0.299310 0.826360 0.790388
Si Si3 0.563950 0.819855 0.808672
Si Si4 0.760611 0.818038 0.014798
Si Si5 0.189780 0.686016 0.665898
Si Si6 0.385149 0.316533 0.501203
O O1 0.500000 0.241034 0.750000
O O2 0.374972 0.216817 0.773703
O O3 0.417830 0.268461 0.600192
O O4 0.438700 0.005833 0.680017
O O5 0.371112 0.789320 0.752335
O O6 0.247610 0.788429 0.709335
O O7 0.295391 0.005255 0.819960
O O8 0.279732 0.723693 0.879149
O O9 0.500000 0.771469 0.750000
O O10 0.573994 0.741956 0.910627
O O11 0.809729 0.730948 0.943637
O O12 0.686809 0.759364 0.997235
O O13 0.763180 0.000000 0.000000
O O14 0.377623 0.500000 0.500000
#
# Coordination Sequence:
#
# PCOD9320578 Si02
#       6
#     8   8   8   8   8   8
#     4  10  23  43  66  91 125 168 209 252 308 378
#     4  11  22  38  63  93 124 160 208 259 308 365
#     4  10  23  43  66  91 125 168 209 252 308 378
#     4  12  24  39  62  91 127 167 211 261 312 373
#     4  11  22  38  63  93 124 160 208 259 308 365
#     4  12  24  39  64  93 125 163 207 261 318 373
#
# _framework density 19.094052000000001
#
# number of rings (size 3 to 8) (size 9 to 14) (size 15 to 20)
#    0.000    1.000    3.333    4.000    0.000    3.333 
#    0.000    6.667    0.000    0.000    0.000    0.000 
#    0.000    0.000    0.000    0.000    0.000    0.000 
#
# Total GULP energy -134206.105482 kJ/mol
# GULP energy per Si atom -5591.921062 kJ/mol
# Density = 1.905059 g / cm^3
# Si number density = 19.094052 Si / 1000 Ang^3
#
#
#
# Elastic Constant Matrix: (Units=GPa)
#
#
# Indices 1 2 3 4 5 6 
#
# 1 91.0598 36.1262 12.7948 0.0000 0.0000 0.0000
# 2 36.1262 55.7412 16.2097 0.0000 0.0000 0.0000
# 3 12.7948 16.2097 81.5782 0.0000 0.0000 0.0000
# 4 0.0000 0.0000 0.0000 39.3304 0.0000 0.0000
# 5 0.0000 0.0000 0.0000 0.0000 24.0111 0.0000
# 6 0.0000 0.0000 0.0000 0.0000 0.0000 17.4742
#
#
#
# Elastic Compliance Matrix: (Units=1/GPa)
#
#
# Indices 1 2 3 4 5 6 
#
# 1 0.014798 -0.009462 -0.000441 0.000000 0.000000 0.000000
# 2 -0.009462 0.025091 -0.003502 0.000000 0.000000 0.000000
# 3 -0.000441 -0.003502 0.013023 0.000000 0.000000 0.000000
# 4 0.000000 0.000000 0.000000 0.025426 0.000000 0.000000
# 5 0.000000 0.000000 0.000000 0.000000 0.041647 0.000000
# 6 0.000000 0.000000 0.000000 0.000000 0.000000 0.057227
#
#
# Mechanical properties :
#
#
# Convention : Reuss Voigt Hill
#
# Bulk Modulus (GPa) = 38.31042 39.84895 39.07968
# Shear Modulus (GPa) = 23.50489 27.04639 25.27564
#
# Velocity S-wave (km/s) = 3.51238 3.76770 3.64228
# Velocity P-wave (km/s) = 6.04621 6.31210 6.18058
#
# Compressibility (1/GPa) = 0.02610256
#
# Stress axis : x y z
#
# Youngs Moduli (GPa) = 67.57795 39.85509 76.78692
#
# Poissons Ratio (x) = 0.37712 0.03384
# Poissons Ratio (y) = 0.63945 0.26887
# Poissons Ratio (z) = 0.02978 0.13955
#
# Static dielectric constant tensor:
#      x y z
#    x 1.649320 0.000000 0.000000 
#    y 0.000000 1.649500 0.000000 
#    z 0.000000 0.000000 1.648700 
# 
# From -- ./inp_files/18909.got.cif
#   From: 2010.05.17/outbox.cif.g08.bks.cpg/sg20_10_cif.got.tgz:18909.got - 2010.06.03 22:52:26.
