data_PCOD9320181
_publ_section_title
;
Structure prediction by ZEFSAII (Michael W. Deem and Ramdas Pophale) SiO2 
 PCOD9320181
Probable space group: C 2 2 21
;
_chemical_formula_sum "Si O2"
_cell_formula_units_Z 28
_cell_length_a 17.120803
_cell_length_b 8.360185
_cell_length_c 8.002910
_cell_angle_alpha 90.000000
_cell_angle_beta 90.000000
_cell_angle_gamma 90.000000
_cell_volume 1145.481161
_symmetry_space_group_name_H-M "C 2 2 21"
_symmetry_group_IT_number 20
_symmetry_cell_setting 'orthorhombic'
loop_
_space_group_symop_operation_xyz
x,y,z
-x,-y,1/2+z
x,-y,-z
-x,y,1/2-z
1/2+x,1/2+y,z
1/2-x,1/2-y,1/2+z
1/2+x,1/2-y,-z
1/2-x,1/2+y,1/2-z
loop_
_atom_site_type_symbol
_atom_site_label
_atom_site_fract_x
_atom_site_fract_y
_atom_site_fract_z
Si Si1 0.794895 0.000000 0.000000
Si Si2 0.551571 0.665662 0.916090
Si Si3 0.656231 0.935381 0.763233
Si Si4 0.897987 0.284440 0.075950
O O1 0.732746 0.988853 0.153291
O O2 0.855261 0.117529 0.093991
O O3 0.500000 0.627387 0.750000
O O4 0.618768 0.794079 0.874091
O O5 0.577876 0.500000 0.000000
O O6 0.486103 0.754138 0.024867
O O7 0.654681 0.852408 0.580217
O O8 0.604400 0.090480 0.724805
#
# Coordination Sequence:
#
# PCOD9320181 Si02
#       4
#     4   8   8   8
#     4  12  22  42  70 106 136 188 228 286 358 422
#     4  10  22  43  69 101 141 190 239 292 346 416
#     4  10  24  41  66 104 137 182 234 292 351 415
#     4  10  22  45  69  97 146 183 233 293 352 422
#
# _framework density 24.443877000000001
#
# number of rings (size 3 to 8) (size 9 to 14) (size 15 to 20)
#    0.000    1.714    1.429    1.714    0.000    9.143 
#   15.429    0.000    0.000    0.000    0.000    0.000 
#    0.000    0.000    0.000    0.000    0.000    0.000 
#
# Total GULP energy -78030.152974 kJ/mol
# GULP energy per Si atom -5573.582355 kJ/mol
# Density = 2.438824 g / cm^3
# Si number density = 24.443877 Si / 1000 Ang^3
#
#
#
# Elastic Constant Matrix: (Units=GPa)
#
#
# Indices 1 2 3 4 5 6 
#
# 1 36.9190 17.2308 7.2375 0.0000 0.0000 0.0000
# 2 17.2308 112.7245 19.4979 0.0000 0.0000 0.0000
# 3 7.2375 19.4979 52.8766 0.0000 0.0000 0.0000
# 4 0.0000 0.0000 0.0000 56.6417 0.0000 0.0000
# 5 0.0000 0.0000 0.0000 0.0000 52.2725 0.0000
# 6 0.0000 0.0000 0.0000 0.0000 0.0000 36.2972
#
#
#
# Elastic Compliance Matrix: (Units=1/GPa)
#
#
# Indices 1 2 3 4 5 6 
#
# 1 0.029482 -0.004068 -0.002535 0.000000 0.000000 0.000000
# 2 -0.004068 0.010037 -0.003144 0.000000 0.000000 0.000000
# 3 -0.002535 -0.003144 0.020418 0.000000 0.000000 0.000000
# 4 0.000000 0.000000 0.000000 0.017655 0.000000 0.000000
# 5 0.000000 0.000000 0.000000 0.000000 0.019131 0.000000
# 6 0.000000 0.000000 0.000000 0.000000 0.000000 0.027550
#
#
# Mechanical properties :
#
#
# Convention : Reuss Voigt Hill
#
# Bulk Modulus (GPa) = 24.72667 32.27250 28.49958
# Shear Modulus (GPa) = 31.79678 39.61254 35.70466
#
# Velocity S-wave (km/s) = 3.61058 4.02997 3.82603
# Velocity P-wave (km/s) = 5.24589 5.90640 5.58592
#
# Compressibility (1/GPa) = 0.04044217
#
# Stress axis : x y z
#
# Youngs Moduli (GPa) = 33.91906 99.63272 48.97551
#
# Poissons Ratio (x) = 0.40531 0.12417
# Poissons Ratio (y) = 0.13798 0.15399
# Poissons Ratio (z) = 0.08599 0.31327
#
# Static dielectric constant tensor:
#      x y z
#    x 1.873180 0.000000 0.000000 
#    y 0.000000 1.985790 0.000000 
#    z 0.000000 0.000000 2.080030 
# 
# From -- ./inp_files/5657.got.cif
#   From: 2010.05.17/outbox.cif.g08.bks.cpg/sg20_3_cif.got.tgz:5657.got - 2010.06.03 22:52:26.
