data_PCOD9320055
_publ_section_title
;
Structure prediction by ZEFSAII (Michael W. Deem and Ramdas Pophale) SiO2 
 PCOD9320055
Probable space group: C 2 2 21
;
_chemical_formula_sum "Si O2"
_cell_formula_units_Z 40
_cell_length_a 16.665972
_cell_length_b 18.596062
_cell_length_c 5.613605
_cell_angle_alpha 90.000000
_cell_angle_beta 90.000000
_cell_angle_gamma 90.000000
_cell_volume 1739.776593
_symmetry_space_group_name_H-M "C 2 2 21"
_symmetry_group_IT_number 20
_symmetry_cell_setting 'orthorhombic'
loop_
_space_group_symop_operation_xyz
x,y,z
-x,-y,1/2+z
x,-y,-z
-x,y,1/2-z
1/2+x,1/2+y,z
1/2-x,1/2-y,1/2+z
1/2+x,1/2-y,-z
1/2-x,1/2+y,1/2-z
loop_
_atom_site_type_symbol
_atom_site_label
_atom_site_fract_x
_atom_site_fract_y
_atom_site_fract_z
Si Si1 0.148447 0.272191 0.059677
Si Si2 0.500000 0.456430 0.750000
Si Si3 0.171098 0.928011 0.653844
Si Si4 0.707513 0.000000 0.500000
Si Si5 0.087099 0.574108 0.852954
Si Si6 0.166026 0.221531 0.563580
O O1 0.125917 0.356092 0.022760
O O2 0.121437 0.252231 0.328798
O O3 0.242801 0.248089 0.076822
O O4 0.121977 0.234650 0.813672
O O5 0.502223 0.500000 0.500000
O O6 0.583525 0.414918 0.764499
O O7 0.184021 0.861824 0.481585
O O8 0.169355 0.000000 0.500000
O O9 0.236791 0.945974 0.850015
O O10 0.650490 0.050149 0.655262
O O11 0.000000 0.593471 0.750000
O O12 0.076435 0.500000 0.000000
#
# Coordination Sequence:
#
# PCOD9320055 Si02
#       6
#     8   4   8   4   8   8
#     4  10  24  43  70  99 142 191 241 310 371 442
#     4  10  22  42  66 104 146 182 220 306 364 428
#     4  11  24  42  75 107 146 191 250 306 372 459
#     4  12  24  42  80 114 140 200 266 318 384 466
#     4  12  27  47  74 108 151 200 261 329 394 458
#     4  10  23  42  71 102 141 187 249 295 372 450
#
# _framework density 22.99146
#
# number of rings (size 3 to 8) (size 9 to 14) (size 15 to 20)
#    0.000    1.200    2.000    3.000   14.000    0.000 
#    1.800    0.000    0.000    0.000    0.000    0.000 
#    0.000    0.000    0.000    0.000    0.000    0.000 
#
# Total GULP energy -111629.880681 kJ/mol
# GULP energy per Si atom -5581.494034 kJ/mol
# Density = 2.293913 g / cm^3
# Si number density = 22.991460 Si / 1000 Ang^3
#
#
#
# Elastic Constant Matrix: (Units=GPa)
#
#
# Indices 1 2 3 4 5 6 
#
# 1 110.5083 0.2439 33.1193 0.0000 0.0000 0.0000
# 2 0.2439 103.0411 39.6739 0.0000 0.0000 0.0000
# 3 33.1193 39.6739 146.3959 0.0000 0.0000 0.0000
# 4 0.0000 0.0000 0.0000 44.4433 0.0000 0.0000
# 5 0.0000 0.0000 0.0000 0.0000 21.1394 0.0000
# 6 0.0000 0.0000 0.0000 0.0000 0.0000 -644.2189
#
#
#
# Elastic Compliance Matrix: (Units=1/GPa)
#
#
# Indices 1 2 3 4 5 6 
#
# 1 0.009786 0.000926 -0.002465 0.000000 0.000000 0.000000
# 2 0.000926 0.010923 -0.003170 0.000000 0.000000 0.000000
# 3 -0.002465 -0.003170 0.008247 0.000000 0.000000 0.000000
# 4 0.000000 0.000000 0.000000 0.022501 0.000000 0.000000
# 5 0.000000 0.000000 0.000000 0.000000 0.047305 0.000000
# 6 0.000000 0.000000 0.000000 0.000000 0.000000 -0.001552
#
#
# Mechanical properties :
#
#
# Convention : Reuss Voigt Hill
#
# Bulk Modulus (GPa) = 51.17947 56.22438 53.70193
# Shear Modulus (GPa) = 44.19316 -96.60001 -26.20342
#
# Velocity S-wave (km/s) = 4.38900 -6.48898 -3.37961
# Velocity P-wave (km/s) = 6.92769 5.62449 2.85990
#
# Compressibility (1/GPa) = 0.01953908
#
# Stress axis : x y z
#
# Youngs Moduli (GPa) = 102.18964 91.54920 121.25067
#
# Poissons Ratio (x) = -0.08476 0.29885
# Poissons Ratio (y) = -0.09461 0.38432
# Poissons Ratio (z) = 0.25187 0.29018
#
# Static dielectric constant tensor:
#      x y z
#    x 1.927930 0.000000 0.000000 
#    y 0.000000 1.873160 0.000000 
#    z 0.000000 0.000000 2.789540 
# 
# From -- ./inp_files/2502.got.cif
#   From: 2010.05.17/outbox.cif.g08.bks.cpg/sg20_2_cif.got.tgz:2502.got - 2010.06.03 22:52:26.
