data_PCOD9320424
_publ_section_title
;
Structure prediction by ZEFSAII (Michael W. Deem and Ramdas Pophale) SiO2 
 PCOD9320424
Probable space group: C 2 2 21
;
_chemical_formula_sum "Si O2"
_cell_formula_units_Z 48
_cell_length_a 17.828776
_cell_length_b 7.089604
_cell_length_c 20.039349
_cell_angle_alpha 90.000000
_cell_angle_beta 90.000000
_cell_angle_gamma 90.000000
_cell_volume 2532.952906
_symmetry_space_group_name_H-M "C 2 2 21"
_symmetry_group_IT_number 20
_symmetry_cell_setting 'orthorhombic'
loop_
_space_group_symop_operation_xyz
x,y,z
-x,-y,1/2+z
x,-y,-z
-x,y,1/2-z
1/2+x,1/2+y,z
1/2-x,1/2-y,1/2+z
1/2+x,1/2-y,-z
1/2-x,1/2+y,1/2-z
loop_
_atom_site_type_symbol
_atom_site_label
_atom_site_fract_x
_atom_site_fract_y
_atom_site_fract_z
Si Si1 0.396026 0.044642 0.388398
Si Si2 0.338092 0.173006 0.037458
Si Si3 0.020404 0.500000 0.500000
Si Si4 0.343756 0.633052 0.705997
Si Si5 0.228251 0.500000 0.000000
Si Si6 0.587121 0.235428 0.766966
Si Si7 0.185623 0.547820 0.316079
O O1 0.390687 0.235663 0.344814
O O2 0.468295 0.017247 0.435402
O O3 0.325719 0.052738 0.438628
O O4 0.393742 0.869107 0.337028
O O5 0.346341 0.121227 0.114392
O O6 0.420188 0.173753 0.002743
O O7 0.284402 0.344634 0.027305
O O8 0.298378 0.000000 0.000000
O O9 0.391500 0.455328 0.731537
O O10 0.269061 0.536300 0.675815
O O11 0.316831 0.778075 0.763836
O O12 0.500000 0.210837 0.750000
O O13 0.635345 0.120635 0.712951
#
# Coordination Sequence:
#
# PCOD9320424 Si02
#       7
#     8   8   4   8   4   8   8
#     4  10  23  44  63  92 134 171 215 270 326 387
#     4  10  23  39  64  94 126 170 216 268 318 379
#     4   9  22  46  60  91 134 174 208 279 316 374
#     4  11  23  39  67  95 129 172 213 268 326 391
#     4  11  22  40  70  93 128 174 226 261 328 396
#     4  11  24  41  65  96 129 174 215 270 330 388
#     4  11  22  41  66  97 133 162 220 268 324 383
#
# _framework density 18.950213999999999
#
# number of rings (size 3 to 8) (size 9 to 14) (size 15 to 20)
#    0.500    1.000    1.667    3.000    2.333    5.333 
#    3.000    1.667    0.000    0.000    0.000    0.000 
#    0.000    0.000    0.000    0.000    0.000    0.000 
#
# Total GULP energy -133836.810929 kJ/mol
# GULP energy per Si atom -5576.533789 kJ/mol
# Density = 1.890708 g / cm^3
# Si number density = 18.950214 Si / 1000 Ang^3
#
#
#
# Elastic Constant Matrix: (Units=GPa)
#
#
# Indices 1 2 3 4 5 6 
#
# 1 98.6355 22.4383 31.1057 0.0000 0.0000 0.0000
# 2 22.4383 104.7067 44.4211 0.0000 0.0000 0.0000
# 3 31.1057 44.4211 96.8610 0.0000 0.0000 0.0000
# 4 0.0000 0.0000 0.0000 16.8549 0.0000 0.0000
# 5 0.0000 0.0000 0.0000 0.0000 26.9620 0.0000
# 6 0.0000 0.0000 0.0000 0.0000 0.0000 75.3551
#
#
#
# Elastic Compliance Matrix: (Units=1/GPa)
#
#
# Indices 1 2 3 4 5 6 
#
# 1 0.011382 -0.001103 -0.003149 0.000000 0.000000 0.000000
# 2 -0.001103 0.011964 -0.005133 0.000000 0.000000 0.000000
# 3 -0.003149 -0.005133 0.013689 0.000000 0.000000 0.000000
# 4 0.000000 0.000000 0.000000 0.059330 0.000000 0.000000
# 5 0.000000 0.000000 0.000000 0.000000 0.037089 0.000000
# 6 0.000000 0.000000 0.000000 0.000000 0.000000 0.013270
#
#
# Mechanical properties :
#
#
# Convention : Reuss Voigt Hill
#
# Bulk Modulus (GPa) = 54.74729 55.12593 54.93661
# Shear Modulus (GPa) = 29.14009 37.31695 33.22852
#
# Velocity S-wave (km/s) = 3.92563 4.44239 4.19198
# Velocity P-wave (km/s) = 7.03564 7.44756 7.24453
#
# Compressibility (1/GPa) = 0.01826574
#
# Stress axis : x y z
#
# Youngs Moduli (GPa) = 87.85422 83.58139 73.04935
#
# Poissons Ratio (x) = 0.09220 0.23007
# Poissons Ratio (y) = 0.09691 0.37494
# Poissons Ratio (z) = 0.27669 0.42900
#
# Static dielectric constant tensor:
#      x y z
#    x 1.653970 0.000000 0.000000 
#    y 0.000000 1.561670 0.000000 
#    z 0.000000 0.000000 1.655050 
# 
# From -- ./inp_files/27865.got.cif
#   From: 2010.05.17/outbox.cif.g08.bks.cpg/sg20_14_cif.got.tgz:27865.got - 2010.06.03 22:52:26.
