data_PCOD9320323
_publ_section_title
;
Structure prediction by ZEFSAII (Michael W. Deem and Ramdas Pophale) SiO2 
 PCOD9320323
Probable space group: C 2 2 21
;
_chemical_formula_sum "Si O2"
_cell_formula_units_Z 44
_cell_length_a 16.862464
_cell_length_b 8.211812
_cell_length_c 14.152291
_cell_angle_alpha 90.000000
_cell_angle_beta 90.000000
_cell_angle_gamma 90.000000
_cell_volume 1959.687325
_symmetry_space_group_name_H-M "C 2 2 21"
_symmetry_group_IT_number 20
_symmetry_cell_setting 'orthorhombic'
loop_
_space_group_symop_operation_xyz
x,y,z
-x,-y,1/2+z
x,-y,-z
-x,y,1/2-z
1/2+x,1/2+y,z
1/2-x,1/2-y,1/2+z
1/2+x,1/2-y,-z
1/2-x,1/2+y,1/2-z
loop_
_atom_site_type_symbol
_atom_site_label
_atom_site_fract_x
_atom_site_fract_y
_atom_site_fract_z
Si Si1 0.148101 0.000000 0.000000
Si Si2 0.066203 0.595718 0.656269
Si Si3 0.790786 0.278919 0.036571
Si Si4 0.755400 0.009272 0.828744
Si Si5 0.598999 0.776119 0.141823
Si Si6 0.841325 0.699018 0.180999
O O1 0.104693 0.888741 0.920353
O O2 0.207977 0.127712 0.950888
O O3 0.138469 0.627625 0.587455
O O4 0.083402 0.717814 0.744595
O O5 0.079402 0.408117 0.688231
O O6 0.981176 0.629421 0.610897
O O7 0.782706 0.106816 0.087414
O O8 0.815005 0.281227 0.927572
O O9 0.828230 0.115471 0.788181
O O10 0.721141 0.901489 0.743633
O O11 0.680562 0.119900 0.864465
#
# Coordination Sequence:
#
# PCOD9320323 Si02
#       6
#     4   8   8   8   8   8
#     4  12  24  44  68 106 140 180 234 300 344 416
#     4  10  22  45  70  95 141 184 227 285 366 411
#     4  12  23  41  70 103 139 181 235 295 343 423
#     4  11  23  42  72  99 138 188 241 288 353 411
#     4  10  23  44  70 101 136 186 229 293 353 427
#     4  11  22  40  66 103 134 183 234 293 340 418
#
# _framework density 22.452560999999999
#
# number of rings (size 3 to 8) (size 9 to 14) (size 15 to 20)
#    0.000    1.091    3.636    2.727    0.000    0.000 
#    9.818    0.000    0.000    6.545    0.000    0.000 
#    0.000    0.000    0.000    0.000    0.000    0.000 
#
# Total GULP energy -122692.272909 kJ/mol
# GULP energy per Si atom -5576.921496 kJ/mol
# Density = 2.240146 g / cm^3
# Si number density = 22.452561 Si / 1000 Ang^3
#
#
#
# Elastic Constant Matrix: (Units=GPa)
#
#
# Indices 1 2 3 4 5 6 
#
# 1 95.5425 31.7106 13.8518 0.0000 0.0000 0.0000
# 2 31.7106 113.7857 28.2175 0.0000 0.0000 0.0000
# 3 13.8518 28.2175 106.5312 0.0000 0.0000 0.0000
# 4 0.0000 0.0000 0.0000 55.1598 0.0000 0.0000
# 5 0.0000 0.0000 0.0000 0.0000 23.5876 0.0000
# 6 0.0000 0.0000 0.0000 0.0000 0.0000 12.7733
#
#
#
# Elastic Compliance Matrix: (Units=1/GPa)
#
#
# Indices 1 2 3 4 5 6 
#
# 1 0.011581 -0.003055 -0.000697 0.000000 0.000000 0.000000
# 2 -0.003055 0.010212 -0.002308 0.000000 0.000000 0.000000
# 3 -0.000697 -0.002308 0.010089 0.000000 0.000000 0.000000
# 4 0.000000 0.000000 0.000000 0.018129 0.000000 0.000000
# 5 0.000000 0.000000 0.000000 0.000000 0.042395 0.000000
# 6 0.000000 0.000000 0.000000 0.000000 0.000000 0.078288
#
#
# Mechanical properties :
#
#
# Convention : Reuss Voigt Hill
#
# Bulk Modulus (GPa) = 50.59770 51.49101 51.04436
# Shear Modulus (GPa) = 26.39899 34.44279 30.42089
#
# Velocity S-wave (km/s) = 3.43267 3.92091 3.68488
# Velocity P-wave (km/s) = 6.18831 6.59402 6.39439
#
# Compressibility (1/GPa) = 0.01976374
#
# Stress axis : x y z
#
# Youngs Moduli (GPa) = 86.34496 97.92335 99.12012
#
# Poissons Ratio (x) = 0.29914 0.06906
# Poissons Ratio (y) = 0.26377 0.22874
# Poissons Ratio (z) = 0.06016 0.22598
#
# Static dielectric constant tensor:
#      x y z
#    x 1.864220 0.000000 0.000000 
#    y 0.000000 1.974670 0.000000 
#    z 0.000000 0.000000 1.906650 
# 
# From -- ./inp_files/21221.got.cif
#   From: 2010.05.17/outbox.cif.g08.bks.cpg/sg20_11_cif.got.tgz:21221.got - 2010.06.03 22:52:26.
