data_PCOD9320045
_publ_section_title
;
Structure prediction by ZEFSAII (Michael W. Deem and Ramdas Pophale) SiO2 
 PCOD9320045
Probable space group: C 2 2 21
;
_chemical_formula_sum "Si O2"
_cell_formula_units_Z 40
_cell_length_a 8.888992
_cell_length_b 13.749180
_cell_length_c 15.121716
_cell_angle_alpha 90.000000
_cell_angle_beta 90.000000
_cell_angle_gamma 90.000000
_cell_volume 1848.120951
_symmetry_space_group_name_H-M "C 2 2 21"
_symmetry_group_IT_number 20
_symmetry_cell_setting 'orthorhombic'
loop_
_space_group_symop_operation_xyz
x,y,z
-x,-y,1/2+z
x,-y,-z
-x,y,1/2-z
1/2+x,1/2+y,z
1/2-x,1/2-y,1/2+z
1/2+x,1/2-y,-z
1/2-x,1/2+y,1/2-z
loop_
_atom_site_type_symbol
_atom_site_label
_atom_site_fract_x
_atom_site_fract_y
_atom_site_fract_z
Si Si1 0.343710 0.000000 0.000000
Si Si2 0.483573 0.757643 0.355664
Si Si3 0.603775 0.150743 0.021571
Si Si4 0.585190 0.558023 0.411179
Si Si5 0.692535 0.338472 0.108723
Si Si6 0.000000 0.924173 0.250000
O O1 0.459451 0.918236 0.962383
O O2 0.237434 0.057957 0.932858
O O3 0.500000 0.767081 0.250000
O O4 0.378142 0.827796 0.415475
O O5 0.470938 0.645336 0.384918
O O6 0.647823 0.787061 0.388933
O O7 0.747895 0.099812 0.066330
O O8 0.586320 0.260057 0.060124
O O9 0.547438 0.500000 0.500000
O O10 0.577011 0.488191 0.326520
O O11 0.624008 0.358381 0.203523
#
# Coordination Sequence:
#
# PCOD9320045 Si02
#       6
#     4   8   8   8   8   4
#     4  10  22  46  72 100 136 184 232 278 350 416
#     4  10  22  42  65  97 133 174 230 288 343 415
#     4  10  22  45  70  99 136 184 233 288 352 419
#     4  11  23  41  69  96 135 182 225 286 355 420
#     4  10  25  42  67 100 135 184 225 289 350 417
#     4  12  26  42  64 104 138 176 236 286 360 432
#
# _framework density 21.643605999999998
#
# number of rings (size 3 to 8) (size 9 to 14) (size 15 to 20)
#    0.000    1.600    2.000    1.200    7.000    0.000 
#    7.200    0.000    0.000    0.000    0.000    0.000 
#    0.000    0.000    0.000    0.000    0.000    0.000 
#
# Total GULP energy -111487.786772 kJ/mol
# GULP energy per Si atom -5574.389339 kJ/mol
# Density = 2.159434 g / cm^3
# Si number density = 21.643606 Si / 1000 Ang^3
#
#
#
# Elastic Constant Matrix: (Units=GPa)
#
#
# Indices 1 2 3 4 5 6 
#
# 1 52.8189 13.7276 10.8294 0.0000 0.0000 0.0000
# 2 13.7276 100.0994 45.6980 0.0000 0.0000 0.0000
# 3 10.8294 45.6980 128.6295 0.0000 0.0000 0.0000
# 4 0.0000 0.0000 0.0000 484.5677 0.0000 0.0000
# 5 0.0000 0.0000 0.0000 0.0000 34.5548 0.0000
# 6 0.0000 0.0000 0.0000 0.0000 0.0000 82.1795
#
#
#
# Elastic Compliance Matrix: (Units=1/GPa)
#
#
# Indices 1 2 3 4 5 6 
#
# 1 0.019707 -0.002322 -0.000834 0.000000 0.000000 0.000000
# 2 -0.002322 0.012198 -0.004138 0.000000 0.000000 0.000000
# 3 -0.000834 -0.004138 0.009315 0.000000 0.000000 0.000000
# 4 0.000000 0.000000 0.000000 0.002064 0.000000 0.000000
# 5 0.000000 0.000000 0.000000 0.000000 0.028940 0.000000
# 6 0.000000 0.000000 0.000000 0.000000 0.000000 0.012168
#
#
# Mechanical properties :
#
#
# Convention : Reuss Voigt Hill
#
# Bulk Modulus (GPa) = 37.54988 46.89532 42.22260
# Shear Modulus (GPa) = 46.35811 134.34659 90.35235
#
# Velocity S-wave (km/s) = 4.63307 7.88714 6.46809
# Velocity P-wave (km/s) = 6.78287 10.23018 8.67940
#
# Compressibility (1/GPa) = 0.02663125
#
# Stress axis : x y z
#
# Youngs Moduli (GPa) = 50.74319 81.98367 107.35848
#
# Poissons Ratio (x) = 0.19034 0.08957
# Poissons Ratio (y) = 0.11781 0.44424
# Poissons Ratio (z) = 0.04234 0.33924
#
# Static dielectric constant tensor:
#      x y z
#    x 1.719980 0.000000 0.000000 
#    y 0.000000 1.884240 0.000000 
#    z 0.000000 0.000000 0.339090 
# 
# From -- ./inp_files/18580.got.cif
#   From: 2010.05.17/outbox.cif.g08.bks.cpg/sg20_10_cif.got.tgz:18580.got - 2010.06.03 22:52:26.
