data_PCOD9320229
_publ_section_title
;
Structure prediction by ZEFSAII (Michael W. Deem and Ramdas Pophale) SiO2 
 PCOD9320229
Probable space group: C 2 2 21
;
_chemical_formula_sum "Si O2"
_cell_formula_units_Z 32
_cell_length_a 13.113666
_cell_length_b 24.143121
_cell_length_c 4.991076
_cell_angle_alpha 90.000000
_cell_angle_beta 90.000000
_cell_angle_gamma 90.000000
_cell_volume 1580.198743
_symmetry_space_group_name_H-M "C 2 2 21"
_symmetry_group_IT_number 20
_symmetry_cell_setting 'orthorhombic'
loop_
_space_group_symop_operation_xyz
x,y,z
-x,-y,1/2+z
x,-y,-z
-x,y,1/2-z
1/2+x,1/2+y,z
1/2-x,1/2-y,1/2+z
1/2+x,1/2-y,-z
1/2-x,1/2+y,1/2-z
loop_
_atom_site_type_symbol
_atom_site_label
_atom_site_fract_x
_atom_site_fract_y
_atom_site_fract_z
Si Si1 0.249391 0.052099 0.709746
Si Si2 0.569667 0.500000 0.000000
Si Si3 0.430714 0.000000 0.000000
Si Si4 0.263579 0.822442 0.278680
Si Si5 0.620676 0.775769 0.730911
O O1 0.249977 0.114982 0.619246
O O2 0.248557 0.000000 0.500000
O O3 0.148452 0.045418 0.889808
O O4 0.352481 0.044907 0.882600
O O5 0.500000 0.482462 0.750000
O O6 0.500000 0.018630 0.250000
O O7 0.339153 0.793379 0.481961
O O8 0.159172 0.787533 0.301845
O O9 0.318307 0.812778 0.990322
O O10 0.500000 0.781616 0.750000
#
# Coordination Sequence:
#
# PCOD9320229 Si02
#       5
#     8   4   4   8   8
#     4  11  25  43  66  98 136 177 215 271 331 400
#     4  11  24  43  64  92 132 171 218 263 320 398
#     4  11  24  41  60  92 136 175 222 261 316 398
#     4  10  24  41  67  93 131 164 218 269 324 383
#     4  10  22  44  65  96 122 169 218 272 322 379
#
# _framework density 20.250616000000001
#
# number of rings (size 3 to 8) (size 9 to 14) (size 15 to 20)
#    0.000    1.500    2.500    0.750    7.000    4.000 
#    0.000    0.000    0.000    0.000    0.000    0.000 
#    0.000    0.000    0.000    0.000    0.000    0.000 
#
# Total GULP energy -89180.777844 kJ/mol
# GULP energy per Si atom -5573.798615 kJ/mol
# Density = 2.020452 g / cm^3
# Si number density = 20.250616 Si / 1000 Ang^3
#
#
#
# Elastic Constant Matrix: (Units=GPa)
#
#
# Indices 1 2 3 4 5 6 
#
# 1 105.8150 6.8792 24.0728 0.0000 0.0000 0.0000
# 2 6.8792 112.6045 -11.7565 0.0000 0.0000 0.0000
# 3 24.0728 -11.7565 74.4625 0.0000 0.0000 0.0000
# 4 0.0000 0.0000 0.0000 18.8239 0.0000 0.0000
# 5 0.0000 0.0000 0.0000 0.0000 39.8015 0.0000
# 6 0.0000 0.0000 0.0000 0.0000 0.0000 -19.8621
#
#
#
# Elastic Compliance Matrix: (Units=1/GPa)
#
#
# Indices 1 2 3 4 5 6 
#
# 1 0.010309 -0.000994 -0.003490 0.000000 0.000000 0.000000
# 2 -0.000994 0.009125 0.001762 0.000000 0.000000 0.000000
# 3 -0.003490 0.001762 0.014836 0.000000 0.000000 0.000000
# 4 0.000000 0.000000 0.000000 0.053124 0.000000 0.000000
# 5 0.000000 0.000000 0.000000 0.000000 0.025125 0.000000
# 6 0.000000 0.000000 0.000000 0.000000 0.000000 -0.050347
#
#
# Mechanical properties :
#
#
# Convention : Reuss Voigt Hill
#
# Bulk Modulus (GPa) = 34.68985 36.80812 35.74898
# Shear Modulus (GPa) = 64.74646 25.99842 45.37244
#
# Velocity S-wave (km/s) = 5.66057 3.58695 4.73858
# Velocity P-wave (km/s) = 7.73887 5.94733 6.90148
#
# Compressibility (1/GPa) = 0.02882688
#
# Stress axis : x y z
#
# Youngs Moduli (GPa) = 97.00263 109.58484 67.40370
#
# Poissons Ratio (x) = 0.10894 0.23522
# Poissons Ratio (y) = 0.09643 -0.11878
# Poissons Ratio (z) = 0.33851 -0.19310
#
# Static dielectric constant tensor:
#      x y z
#    x 1.767020 0.000000 0.000000 
#    y 0.000000 1.754690 0.000000 
#    z 0.000000 0.000000 1.745760 
# 
# From -- ./inp_files/1066.got.cif
#   From: 2010.05.17/outbox.cif.g08.bks.cpg/sg20_1_cif.got.tgz:1066.got - 2010.06.03 22:52:26.
