data_PCOD9320196
_publ_section_title
;
Structure prediction by ZEFSAII (Michael W. Deem and Ramdas Pophale) SiO2 
 PCOD9320196
Probable space group: C 2 2 21
;
_chemical_formula_sum "Si O2"
_cell_formula_units_Z 56
_cell_length_a 24.314752
_cell_length_b 14.613925
_cell_length_c 7.859150
_cell_angle_alpha 90.000000
_cell_angle_beta 90.000000
_cell_angle_gamma 90.000000
_cell_volume 2792.622908
_symmetry_space_group_name_H-M "C 2 2 21"
_symmetry_group_IT_number 20
_symmetry_cell_setting 'orthorhombic'
loop_
_space_group_symop_operation_xyz
x,y,z
-x,-y,1/2+z
x,-y,-z
-x,y,1/2-z
1/2+x,1/2+y,z
1/2-x,1/2-y,1/2+z
1/2+x,1/2-y,-z
1/2-x,1/2+y,1/2-z
loop_
_atom_site_type_symbol
_atom_site_label
_atom_site_fract_x
_atom_site_fract_y
_atom_site_fract_z
Si Si1 0.551182 0.422880 0.860151
Si Si2 0.168656 0.090876 0.114270
Si Si3 0.954784 0.587647 0.887420
Si Si4 0.847487 0.287235 0.544459
Si Si5 0.791385 0.393197 0.831200
Si Si6 0.525695 0.759241 0.931700
Si Si7 0.831734 0.401013 0.212474
O O1 0.500000 0.453247 0.750000
O O2 0.611882 0.412684 0.778280
O O3 0.559707 0.500000 0.000000
O O4 0.533124 0.328213 0.947458
O O5 0.226619 0.101086 0.206357
O O6 0.160546 0.180706 0.998328
O O7 0.174502 0.000000 0.000000
O O8 0.896636 0.616623 0.812352
O O9 0.000000 0.559225 0.750000
O O10 0.942603 0.500000 0.000000
O O11 0.983099 0.669202 0.989442
O O12 0.818345 0.315759 0.717519
O O13 0.913069 0.302959 0.572634
O O14 0.821368 0.345572 0.386991
O O15 0.818958 0.490346 0.777531
O O16 0.801678 0.375903 0.033496
O O17 0.500000 0.732625 0.750000
#
# Coordination Sequence:
#
# PCOD9320196 Si02
#       7
#     8   8   8   8   8   8   8
#     4  10  22  43  70  95 127 166 214 273 339 391
#     4  10  23  45  68  91 132 171 213 285 334 379
#     4  12  23  36  59  91 131 175 213 258 323 390
#     4  11  25  41  67  98 127 177 223 272 323 398
#     4  11  23  43  65  94 132 173 225 266 328 391
#     4  11  23  39  62  93 133 170 218 268 324 391
#     4  11  23  42  66  91 135 177 215 275 325 381
#
# _framework density 20.052833
#
# number of rings (size 3 to 8) (size 9 to 14) (size 15 to 20)
#    0.000    1.143    4.286    2.571    6.000    0.000 
#    0.000    1.429    0.000    0.000    0.000    0.000 
#    0.000    0.000    0.000    0.000    0.000    0.000 
#
# Total GULP energy -156270.854994 kJ/mol
# GULP energy per Si atom -5581.101964 kJ/mol
# Density = 2.000719 g / cm^3
# Si number density = 20.052833 Si / 1000 Ang^3
#
#
#
# Elastic Constant Matrix: (Units=GPa)
#
#
# Indices 1 2 3 4 5 6 
#
# 1 140.7711 3.4258 2.4406 0.0000 0.0000 0.0000
# 2 3.4258 51.9374 -14.4063 0.0000 0.0000 0.0000
# 3 2.4406 -14.4063 22.9302 0.0000 0.0000 0.0000
# 4 0.0000 0.0000 0.0000 14.5453 0.0000 0.0000
# 5 0.0000 0.0000 0.0000 0.0000 19.7280 0.0000
# 6 0.0000 0.0000 0.0000 0.0000 0.0000 -41.7849
#
#
#
# Elastic Compliance Matrix: (Units=1/GPa)
#
#
# Indices 1 2 3 4 5 6 
#
# 1 0.007146 -0.000826 -0.001280 0.000000 0.000000 0.000000
# 2 -0.000826 0.023413 0.014798 0.000000 0.000000 0.000000
# 3 -0.001280 0.014798 0.053044 0.000000 0.000000 0.000000
# 4 0.000000 0.000000 0.000000 0.068751 0.000000 0.000000
# 5 0.000000 0.000000 0.000000 0.000000 0.050689 0.000000
# 6 0.000000 0.000000 0.000000 0.000000 0.000000 -0.023932
#
#
# Mechanical properties :
#
#
# Convention : Reuss Voigt Hill
#
# Bulk Modulus (GPa) = 9.17552 22.06211 15.61881
# Shear Modulus (GPa) = 26.30797 13.44291 19.87544
#
# Velocity S-wave (km/s) = 3.62599 2.59197 3.15167
# Velocity P-wave (km/s) = 4.70277 4.47030 4.58801
#
# Compressibility (1/GPa) = 0.10898567
#
# Stress axis : x y z
#
# Youngs Moduli (GPa) = 139.93782 42.71136 18.85239
#
# Poissons Ratio (x) = 0.03529 0.02413
# Poissons Ratio (y) = 0.11564 -0.27897
# Poissons Ratio (z) = 0.17909 -0.63203
#
# Static dielectric constant tensor:
#      x y z
#    x 1.758280 0.000000 0.000000 
#    y 0.000000 1.693830 0.000000 
#    z 0.000000 0.000000 1.742380 
# 
# From -- ./inp_files/10219.got.cif
#   From: 2010.05.17/outbox.cif.g08.bks.cpg/sg20_6_cif.got.tgz:10219.got - 2010.06.03 22:52:26.
