data_PCOD9320550
_publ_section_title
;
Structure prediction by ZEFSAII (Michael W. Deem and Ramdas Pophale) SiO2 
 PCOD9320550
Probable space group: C 2 2 21
;
_chemical_formula_sum "Si O2"
_cell_formula_units_Z 28
_cell_length_a 7.586842
_cell_length_b 17.768568
_cell_length_c 10.382174
_cell_angle_alpha 90.000000
_cell_angle_beta 90.000000
_cell_angle_gamma 90.000000
_cell_volume 1399.593032
_symmetry_space_group_name_H-M "C 2 2 21"
_symmetry_group_IT_number 20
_symmetry_cell_setting 'orthorhombic'
loop_
_space_group_symop_operation_xyz
x,y,z
-x,-y,1/2+z
x,-y,-z
-x,y,1/2-z
1/2+x,1/2+y,z
1/2-x,1/2-y,1/2+z
1/2+x,1/2-y,-z
1/2-x,1/2+y,1/2-z
loop_
_atom_site_type_symbol
_atom_site_label
_atom_site_fract_x
_atom_site_fract_y
_atom_site_fract_z
Si Si1 0.000000 0.972470 0.750000
Si Si2 0.360813 0.725681 0.863755
Si Si3 0.800037 0.415155 0.237145
Si Si4 0.861981 0.137686 0.470229
O O1 0.926753 0.921165 0.635441
O O2 0.841181 0.026656 0.795035
O O3 0.500000 0.741217 0.750000
O O4 0.223011 0.664832 0.808393
O O5 0.268683 0.800934 0.909952
O O6 0.471477 0.684018 0.974643
O O7 0.000000 0.441258 0.250000
O O8 0.735301 0.402020 0.090531
#
# Coordination Sequence:
#
# PCOD9320550 Si02
#       4
#     4   8   8   8
#     4  12  26  46  68 106 148 184 226 294 368 418
#     4  10  23  42  71 101 137 182 242 290 347 420
#     4  11  24  48  70 101 142 186 236 294 352 423
#     4  11  24  44  71 102 144 185 235 296 354 413
#
# _framework density 20.005815999999999
#
# number of rings (size 3 to 8) (size 9 to 14) (size 15 to 20)
#    0.000    1.143    4.286    2.571   10.000    1.143 
#   10.286    0.000    0.000    0.000    0.000    0.000 
#    0.000    0.000    0.000    0.000    0.000    0.000 
#
# Total GULP energy -78314.300140 kJ/mol
# GULP energy per Si atom -5593.878581 kJ/mol
# Density = 1.996028 g / cm^3
# Si number density = 20.005816 Si / 1000 Ang^3
#
#
#
# Elastic Constant Matrix: (Units=GPa)
#
#
# Indices 1 2 3 4 5 6 
#
# 1 125.4750 44.6048 6.3094 0.0000 0.0000 0.0000
# 2 44.6048 104.2343 39.1001 0.0000 0.0000 0.0000
# 3 6.3094 39.1001 44.1736 0.0000 0.0000 0.0000
# 4 0.0000 0.0000 0.0000 26.8419 0.0000 0.0000
# 5 0.0000 0.0000 0.0000 0.0000 4.8973 0.0000
# 6 0.0000 0.0000 0.0000 0.0000 0.0000 45.4149
#
#
#
# Elastic Compliance Matrix: (Units=1/GPa)
#
#
# Indices 1 2 3 4 5 6 
#
# 1 0.009737 -0.005457 0.003439 0.000000 0.000000 0.000000
# 2 -0.005457 0.017421 -0.014640 0.000000 0.000000 0.000000
# 3 0.003439 -0.014640 0.035106 0.000000 0.000000 0.000000
# 4 0.000000 0.000000 0.000000 0.037255 0.000000 0.000000
# 5 0.000000 0.000000 0.000000 0.000000 0.204193 0.000000
# 6 0.000000 0.000000 0.000000 0.000000 0.000000 0.022019
#
#
# Mechanical properties :
#
#
# Convention : Reuss Voigt Hill
#
# Bulk Modulus (GPa) = 34.54572 50.43461 42.49017
# Shear Modulus (GPa) = 13.56133 27.68873 20.62503
#
# Velocity S-wave (km/s) = 2.60642 3.72430 3.21433
# Velocity P-wave (km/s) = 5.13451 6.61502 5.92122
#
# Compressibility (1/GPa) = 0.02894715
#
# Stress axis : x y z
#
# Youngs Moduli (GPa) = 102.70577 57.40286 28.48541
#
# Poissons Ratio (x) = 0.31323 -0.09797
# Poissons Ratio (y) = 0.56043 0.41704
# Poissons Ratio (z) = -0.35323 0.84041
#
# Static dielectric constant tensor:
#      x y z
#    x 1.697300 0.000000 0.000000 
#    y 0.000000 1.688600 0.000000 
#    z 0.000000 0.000000 1.707160 
# 
# From -- ./inp_files/5644.got.cif
#   From: 2010.05.17/outbox.cif.g08.bks.cpg/sg20_3_cif.got.tgz:5644.got - 2010.06.03 22:52:26.
