data_PCOD9320250
_publ_section_title
;
Structure prediction by ZEFSAII (Michael W. Deem and Ramdas Pophale) SiO2 
 PCOD9320250
Probable space group: C 2 2 21
;
_chemical_formula_sum "Si O2"
_cell_formula_units_Z 36
_cell_length_a 10.306056
_cell_length_b 17.062740
_cell_length_c 9.286506
_cell_angle_alpha 90.000000
_cell_angle_beta 90.000000
_cell_angle_gamma 90.000000
_cell_volume 1633.027938
_symmetry_space_group_name_H-M "C 2 2 21"
_symmetry_group_IT_number 20
_symmetry_cell_setting 'orthorhombic'
loop_
_space_group_symop_operation_xyz
x,y,z
-x,-y,1/2+z
x,-y,-z
-x,y,1/2-z
1/2+x,1/2+y,z
1/2-x,1/2-y,1/2+z
1/2+x,1/2-y,-z
1/2-x,1/2+y,1/2-z
loop_
_atom_site_type_symbol
_atom_site_label
_atom_site_fract_x
_atom_site_fract_y
_atom_site_fract_z
Si Si1 0.296364 0.641976 0.972800
Si Si2 0.777274 0.185825 0.538067
Si Si3 0.000000 0.833387 0.250000
Si Si4 0.145588 0.563994 0.736989
Si Si5 0.851901 0.928184 0.718998
O O1 0.280873 0.735407 0.972839
O O2 0.310454 0.614400 0.134269
O O3 0.418396 0.620710 0.870895
O O4 0.179104 0.599602 0.893041
O O5 0.889214 0.208266 0.654413
O O6 0.670437 0.134719 0.624106
O O7 0.839034 0.131816 0.413757
O O8 0.251694 0.498897 0.696085
O O9 0.000000 0.533708 0.750000
O O10 0.000000 0.952647 0.750000
#
# Coordination Sequence:
#
# PCOD9320250 Si02
#       5
#     8   8   4   8   8
#     4  11  25  45  74 103 139 185 237 297 354 418
#     4  11  25  45  74 103 139 185 237 297 354 418
#     4  10  22  44  68 106 134 174 238 282 358 402
#     4  11  28  48  67 105 148 187 235 293 356 424
#     4  12  25  45  75 104 143 191 238 287 350 428
#
# _framework density 22.044937000000001
#
# number of rings (size 3 to 8) (size 9 to 14) (size 15 to 20)
#    0.000    0.889    2.222    4.000    9.333    7.111 
#    4.000    0.000    0.000    0.000    0.000    0.000 
#    0.000    0.000    0.000    0.000    0.000    0.000 
#
# Total GULP energy -100622.589146 kJ/mol
# GULP energy per Si atom -5590.143841 kJ/mol
# Density = 2.199476 g / cm^3
# Si number density = 22.044937 Si / 1000 Ang^3
#
#
#
# Elastic Constant Matrix: (Units=GPa)
#
#
# Indices 1 2 3 4 5 6 
#
# 1 82.3902 35.8903 32.0108 0.0000 0.0000 0.0000
# 2 35.8903 116.0455 32.1346 0.0000 0.0000 0.0000
# 3 32.0108 32.1346 142.7106 0.0000 0.0000 0.0000
# 4 0.0000 0.0000 0.0000 53.3030 0.0000 0.0000
# 5 0.0000 0.0000 0.0000 0.0000 24.9320 0.0000
# 6 0.0000 0.0000 0.0000 0.0000 0.0000 9.5495
#
#
#
# Elastic Compliance Matrix: (Units=1/GPa)
#
#
# Indices 1 2 3 4 5 6 
#
# 1 0.014782 -0.003897 -0.002438 0.000000 0.000000 0.000000
# 2 -0.003897 0.010218 -0.001427 0.000000 0.000000 0.000000
# 3 -0.002438 -0.001427 0.007875 0.000000 0.000000 0.000000
# 4 0.000000 0.000000 0.000000 0.018761 0.000000 0.000000
# 5 0.000000 0.000000 0.000000 0.000000 0.040109 0.000000
# 6 0.000000 0.000000 0.000000 0.000000 0.000000 0.104718
#
#
# Mechanical properties :
#
#
# Convention : Reuss Voigt Hill
#
# Bulk Modulus (GPa) = 57.63077 60.13531 58.88304
# Shear Modulus (GPa) = 22.96001 33.63092 28.29547
#
# Velocity S-wave (km/s) = 3.23074 3.91008 3.58653
# Velocity P-wave (km/s) = 6.33373 6.90816 6.62717
#
# Compressibility (1/GPa) = 0.01735184
#
# Stress axis : x y z
#
# Youngs Moduli (GPa) = 67.64928 97.87124 126.97821
#
# Poissons Ratio (x) = 0.38136 0.30961
# Poissons Ratio (y) = 0.26360 0.18116
# Poissons Ratio (z) = 0.16495 0.13963
#
# Static dielectric constant tensor:
#      x y z
#    x 1.794060 0.000000 0.000000 
#    y 0.000000 1.785850 0.000000 
#    z 0.000000 0.000000 1.789120 
# 
# From -- ./inp_files/5911.got.cif
#   From: 2010.05.17/outbox.cif.g08.bks.cpg/sg20_3_cif.got.tgz:5911.got - 2010.06.03 22:52:26.
