data_PCOD9320039
_publ_section_title
;
Structure prediction by ZEFSAII (Michael W. Deem and Ramdas Pophale) SiO2 
 PCOD9320039
Probable space group: C 2 2 21
;
_chemical_formula_sum "Si O2"
_cell_formula_units_Z 40
_cell_length_a 23.373878
_cell_length_b 16.013116
_cell_length_c 4.922118
_cell_angle_alpha 90.000000
_cell_angle_beta 90.000000
_cell_angle_gamma 90.000000
_cell_volume 1842.292753
_symmetry_space_group_name_H-M "C 2 2 21"
_symmetry_group_IT_number 20
_symmetry_cell_setting 'orthorhombic'
loop_
_space_group_symop_operation_xyz
x,y,z
-x,-y,1/2+z
x,-y,-z
-x,y,1/2-z
1/2+x,1/2+y,z
1/2-x,1/2-y,1/2+z
1/2+x,1/2-y,-z
1/2-x,1/2+y,1/2-z
loop_
_atom_site_type_symbol
_atom_site_label
_atom_site_fract_x
_atom_site_fract_y
_atom_site_fract_z
Si Si1 0.000000 0.561276 0.750000
Si Si2 0.172172 0.255963 0.770710
Si Si3 0.500000 0.640405 0.250000
Si Si4 0.210936 0.157519 0.268049
Si Si5 0.048829 0.300548 0.552945
Si Si6 0.655951 0.500000 0.000000
Si Si7 0.082866 0.000000 0.500000
O O1 0.050705 0.627559 0.676775
O O2 0.987402 0.500000 0.500000
O O3 0.176468 0.222610 0.076728
O O4 0.221863 0.324805 0.734699
O O5 0.109649 0.285135 0.688657
O O6 0.192849 0.181280 0.571597
O O7 0.522111 0.711885 0.461282
O O8 0.547624 0.571307 0.340847
O O9 0.192684 0.068104 0.159945
O O10 0.000000 0.334676 0.750000
O O11 0.617698 0.538292 0.755146
#
# Coordination Sequence:
#
# PCOD9320039 Si02
#       7
#     4   8   4   8   8   4   4
#     4  11  24  46  65  94 134 166 209 276 344 399
#     4  10  23  42  67  93 126 173 220 277 321 398
#     4  11  26  40  59 102 138 184 223 262 330 405
#     4  10  22  42  65  92 129 168 225 271 332 381
#     4  11  25  42  72  99 134 179 228 271 339 419
#     4  12  23  40  64  94 128 181 214 280 330 388
#     4  12  27  40  64  94 148 179 218 272 322 402
#
# _framework density 21.712078000000002
#
# number of rings (size 3 to 8) (size 9 to 14) (size 15 to 20)
#    0.000    1.200    1.000    4.200   12.600    0.000 
#    1.800    0.000    2.200    0.000    0.000    0.000 
#    0.000    0.000    0.000    0.000    0.000    0.000 
#
# Total GULP energy -111379.037125 kJ/mol
# GULP energy per Si atom -5568.951856 kJ/mol
# Density = 2.166266 g / cm^3
# Si number density = 21.712078 Si / 1000 Ang^3
#
#
#
# Elastic Constant Matrix: (Units=GPa)
#
#
# Indices 1 2 3 4 5 6 
#
# 1 110.0494 24.7335 24.9905 0.0000 0.0000 0.0000
# 2 24.7335 101.3617 9.2589 0.0000 0.0000 0.0000
# 3 24.9905 9.2589 71.0538 0.0000 0.0000 0.0000
# 4 0.0000 0.0000 0.0000 23.9574 0.0000 0.0000
# 5 0.0000 0.0000 0.0000 0.0000 39.8903 0.0000
# 6 0.0000 0.0000 0.0000 0.0000 0.0000 0.3349
#
#
#
# Elastic Compliance Matrix: (Units=1/GPa)
#
#
# Indices 1 2 3 4 5 6 
#
# 1 0.010346 -0.002219 -0.003350 0.000000 0.000000 0.000000
# 2 -0.002219 0.010460 -0.000583 0.000000 0.000000 0.000000
# 3 -0.003350 -0.000583 0.015328 0.000000 0.000000 0.000000
# 4 0.000000 0.000000 0.000000 0.041741 0.000000 0.000000
# 5 0.000000 0.000000 0.000000 0.000000 0.025069 0.000000
# 6 0.000000 0.000000 0.000000 0.000000 0.000000 2.986224
#
#
# Mechanical properties :
#
#
# Convention : Reuss Voigt Hill
#
# Bulk Modulus (GPa) = 41.96021 44.49229 43.22625
# Shear Modulus (GPa) = 1.60802 27.73532 14.67167
#
# Velocity S-wave (km/s) = 0.86152 3.57797 2.60232
# Velocity P-wave (km/s) = 4.51191 6.13234 5.38344
#
# Compressibility (1/GPa) = 0.02383210
#
# Stress axis : x y z
#
# Youngs Moduli (GPa) = 96.65446 95.60001 65.24040
#
# Poissons Ratio (x) = 0.21210 0.21854
# Poissons Ratio (y) = 0.21444 0.03802
# Poissons Ratio (z) = 0.32377 0.05571
#
# Static dielectric constant tensor:
#      x y z
#    x 1.800930 0.000000 0.000000 
#    y 0.000000 1.806480 0.000000 
#    z 0.000000 0.000000 1.772640 
# 
# From -- ./inp_files/3683.got.cif
#   From: 2010.05.17/outbox.cif.g08.bks.cpg/sg20_2_cif.got.tgz:3683.got - 2010.06.03 22:52:26.
