data_PCOD9320158
_publ_section_title
;
Structure prediction by ZEFSAII (Michael W. Deem and Ramdas Pophale) SiO2 
 PCOD9320158
Probable space group: C 2 2 21
;
_chemical_formula_sum "Si O2"
_cell_formula_units_Z 64
_cell_length_a 26.419551
_cell_length_b 9.359192
_cell_length_c 11.296849
_cell_angle_alpha 90.000000
_cell_angle_beta 90.000000
_cell_angle_gamma 90.000000
_cell_volume 2793.322715
_symmetry_space_group_name_H-M "C 2 2 21"
_symmetry_group_IT_number 20
_symmetry_cell_setting 'orthorhombic'
loop_
_space_group_symop_operation_xyz
x,y,z
-x,-y,1/2+z
x,-y,-z
-x,y,1/2-z
1/2+x,1/2+y,z
1/2-x,1/2-y,1/2+z
1/2+x,1/2-y,-z
1/2-x,1/2+y,1/2-z
loop_
_atom_site_type_symbol
_atom_site_label
_atom_site_fract_x
_atom_site_fract_y
_atom_site_fract_z
Si Si1 0.154359 0.662976 0.223474
Si Si2 0.548497 0.542005 0.322923
Si Si3 0.704133 0.412728 0.115168
Si Si4 0.126222 0.151759 0.139375
Si Si5 0.346813 0.165273 0.012125
Si Si6 0.566188 0.160128 0.054763
Si Si7 0.455587 0.268187 0.040877
Si Si8 0.195311 0.646234 0.731970
O O1 0.188052 0.745943 0.125774
O O2 0.166716 0.719870 0.356281
O O3 0.097241 0.674367 0.176624
O O4 0.163868 0.495079 0.236905
O O5 0.500000 0.498009 0.250000
O O6 0.588423 0.631803 0.248633
O O7 0.528434 0.644374 0.424976
O O8 0.567369 0.393958 0.377199
O O9 0.650623 0.494216 0.129252
O O10 0.748219 0.413684 0.213104
O O11 0.724032 0.500000 0.000000
O O12 0.176652 0.243450 0.169066
O O13 0.093198 0.227614 0.036684
O O14 0.407522 0.174202 0.006957
O O15 0.320207 0.222808 0.893315
O O16 0.333331 0.000000 0.000000
O O17 0.507037 0.191692 0.078657
O O18 0.571463 0.000000 0.000000
#
# Coordination Sequence:
#
# PCOD9320158 Si02
#       8
#     8   8   8   8   8   8   8   8
#     4  11  24  43  67  99 142 179 237 296 356 426
#     4  11  24  41  67  98 140 184 230 288 357 429
#     4  12  25  42  71 104 137 185 246 295 369 421
#     4  12  24  45  72  98 145 187 231 302 364 423
#     4  10  22  43  66  95 135 176 226 287 349 416
#     4  12  25  43  69 105 144 189 234 299 365 433
#     4  11  24  40  66 101 136 181 239 279 352 434
#     4  11  24  46  71  98 140 186 236 303 354 435
#
# _framework density 22.911781999999999
#
# number of rings (size 3 to 8) (size 9 to 14) (size 15 to 20)
#    0.000    0.750    5.000    3.000    3.500    0.000 
#    0.000    0.000    0.000    0.000    0.000    0.000 
#    0.000    0.000    0.000    0.000    0.000    0.000 
#
# Total GULP energy -178291.181444 kJ/mol
# GULP energy per Si atom -5571.599420 kJ/mol
# Density = 2.285963 g / cm^3
# Si number density = 22.911782 Si / 1000 Ang^3
#
#
#
# Elastic Constant Matrix: (Units=GPa)
#
#
# Indices 1 2 3 4 5 6 
#
# 1 75.2964 16.9289 6.6489 0.0000 0.0000 0.0000
# 2 16.9289 57.1559 29.1260 0.0000 0.0000 0.0000
# 3 6.6489 29.1260 71.8970 0.0000 0.0000 0.0000
# 4 0.0000 0.0000 0.0000 22.8220 0.0000 0.0000
# 5 0.0000 0.0000 0.0000 0.0000 36.2947 0.0000
# 6 0.0000 0.0000 0.0000 0.0000 0.0000 30.5371
#
#
#
# Elastic Compliance Matrix: (Units=1/GPa)
#
#
# Indices 1 2 3 4 5 6 
#
# 1 0.014242 -0.004470 0.000494 0.000000 0.000000 0.000000
# 2 -0.004470 0.023450 -0.009087 0.000000 0.000000 0.000000
# 3 0.000494 -0.009087 0.017544 0.000000 0.000000 0.000000
# 4 0.000000 0.000000 0.000000 0.043817 0.000000 0.000000
# 5 0.000000 0.000000 0.000000 0.000000 0.027552 0.000000
# 6 0.000000 0.000000 0.000000 0.000000 0.000000 0.032747
#
#
# Mechanical properties :
#
#
# Convention : Reuss Voigt Hill
#
# Bulk Modulus (GPa) = 34.35109 34.41744 34.38426
# Shear Modulus (GPa) = 25.61704 28.04047 26.82875
#
# Velocity S-wave (km/s) = 3.34739 3.50215 3.42564
# Velocity P-wave (km/s) = 5.47406 5.60426 5.53954
#
# Compressibility (1/GPa) = 0.02911116
#
# Stress axis : x y z
#
# Youngs Moduli (GPa) = 70.21371 42.64327 56.99909
#
# Poissons Ratio (x) = 0.19061 -0.02814
# Poissons Ratio (y) = 0.31385 0.51792
# Poissons Ratio (z) = -0.03467 0.38748
#
# Static dielectric constant tensor:
#      x y z
#    x 1.891120 0.000000 0.000000 
#    y 0.000000 1.854190 0.000000 
#    z 0.000000 0.000000 1.969430 
# 
# From -- ./inp_files/17257.got.cif
#   From: 2010.05.17/outbox.cif.g08.bks.cpg/sg20_9_cif.got.tgz:17257.got - 2010.06.03 22:52:26.
