data_PCOD9320185
_publ_section_title
;
Structure prediction by ZEFSAII (Michael W. Deem and Ramdas Pophale) SiO2 
 PCOD9320185
Probable space group: C 2 2 21
;
_chemical_formula_sum "Si O2"
_cell_formula_units_Z 40
_cell_length_a 11.461606
_cell_length_b 11.048473
_cell_length_c 12.631332
_cell_angle_alpha 90.000000
_cell_angle_beta 90.000000
_cell_angle_gamma 90.000000
_cell_volume 1599.546553
_symmetry_space_group_name_H-M "C 2 2 21"
_symmetry_group_IT_number 20
_symmetry_cell_setting 'orthorhombic'
loop_
_space_group_symop_operation_xyz
x,y,z
-x,-y,1/2+z
x,-y,-z
-x,y,1/2-z
1/2+x,1/2+y,z
1/2-x,1/2-y,1/2+z
1/2+x,1/2-y,-z
1/2-x,1/2+y,1/2-z
loop_
_atom_site_type_symbol
_atom_site_label
_atom_site_fract_x
_atom_site_fract_y
_atom_site_fract_z
Si Si1 0.086886 0.729298 0.883808
Si Si2 0.149861 0.784539 0.326404
Si Si3 0.072515 0.956126 0.618853
Si Si4 0.369456 0.867868 0.042508
Si Si5 0.808753 0.295205 0.612572
O O1 0.208178 0.708424 0.826356
O O2 0.036605 0.865015 0.861634
O O3 0.119029 0.689795 0.005336
O O4 0.969438 0.653177 0.870889
O O5 0.122018 0.722008 0.439754
O O6 0.122969 0.706770 0.221942
O O7 0.096096 0.918169 0.321381
O O8 0.195594 0.882296 0.619993
O O9 0.053257 0.000000 0.500000
O O10 0.245907 0.837948 0.094620
O O11 0.374619 0.000000 0.000000
#
# Coordination Sequence:
#
# PCOD9320185 Si02
#       5
#     8   8   8   8   8
#     4  10  22  43  69  89 136 183 219 284 361 393
#     4  11  24  45  66 103 138 176 237 290 345 417
#     4  11  21  46  67  97 138 184 236 278 351 431
#     4  10  23  41  61  97 130 176 228 268 354 419
#     4  10  24  43  66  99 134 179 228 292 344 411
#
# _framework density 25.007088
#
# number of rings (size 3 to 8) (size 9 to 14) (size 15 to 20)
#    0.000    1.600    6.000    0.000    5.600    7.200 
#    3.600    2.000    0.000    0.000    0.000    0.000 
#    0.000    0.000    0.000    0.000    0.000    0.000 
#
# Total GULP energy -111711.023324 kJ/mol
# GULP energy per Si atom -5585.551166 kJ/mol
# Density = 2.495017 g / cm^3
# Si number density = 25.007088 Si / 1000 Ang^3
#
#
#
# Elastic Constant Matrix: (Units=GPa)
#
#
# Indices 1 2 3 4 5 6 
#
# 1 107.5629 16.7925 1.1227 0.0000 0.0000 0.0000
# 2 16.7925 117.9965 -7.5757 0.0000 0.0000 0.0000
# 3 1.1227 -7.5757 113.0062 0.0000 0.0000 0.0000
# 4 0.0000 0.0000 0.0000 -13.8502 0.0000 0.0000
# 5 0.0000 0.0000 0.0000 0.0000 37.1195 0.0000
# 6 0.0000 0.0000 0.0000 0.0000 0.0000 13.6545
#
#
#
# Elastic Compliance Matrix: (Units=1/GPa)
#
#
# Indices 1 2 3 4 5 6 
#
# 1 0.009512 -0.001366 -0.000186 0.000000 0.000000 0.000000
# 2 -0.001366 0.008708 0.000597 0.000000 0.000000 0.000000
# 3 -0.000186 0.000597 0.008891 0.000000 0.000000 0.000000
# 4 0.000000 0.000000 0.000000 -0.072201 0.000000 0.000000
# 5 0.000000 0.000000 0.000000 0.000000 0.026940 0.000000
# 6 0.000000 0.000000 0.000000 0.000000 0.000000 0.073236
#
#
# Mechanical properties :
#
#
# Convention : Reuss Voigt Hill
#
# Bulk Modulus (GPa) = 39.67977 39.91605 39.79791
# Shear Modulus (GPa) = 76.45896 29.26649 52.86273
#
# Velocity S-wave (km/s) = 5.53546 3.42472 4.60272
# Velocity P-wave (km/s) = 7.53372 5.62448 6.64800
#
# Compressibility (1/GPa) = 0.02520176
#
# Stress axis : x y z
#
# Youngs Moduli (GPa) = 105.13002 114.84316 112.47372
#
# Poissons Ratio (x) = 0.15683 0.02093
# Poissons Ratio (y) = 0.14357 -0.06718
# Poissons Ratio (z) = 0.01956 -0.06860
#
# Static dielectric constant tensor:
#      x y z
#    x 2.001850 0.000000 0.000000 
#    y 0.000000 1.960540 0.000000 
#    z 0.000000 0.000000 2.069540 
# 
# From -- ./inp_files/19661.got.cif
#   From: 2010.05.17/outbox.cif.g08.bks.cpg/sg20_10_cif.got.tgz:19661.got - 2010.06.03 22:52:26.
