data_PCOD9320959
_publ_section_title
;
Structure prediction by ZEFSAII (Michael W. Deem and Ramdas Pophale) SiO2 
 PCOD9320959
Probable space group: C 2 2 21
;
_chemical_formula_sum "Si O2"
_cell_formula_units_Z 60
_cell_length_a 5.753865
_cell_length_b 26.383523
_cell_length_c 16.902571
_cell_angle_alpha 90.000000
_cell_angle_beta 90.000000
_cell_angle_gamma 90.000000
_cell_volume 2565.932476
_symmetry_space_group_name_H-M "C 2 2 21"
_symmetry_group_IT_number 20
_symmetry_cell_setting 'orthorhombic'
loop_
_space_group_symop_operation_xyz
x,y,z
-x,-y,1/2+z
x,-y,-z
-x,y,1/2-z
1/2+x,1/2+y,z
1/2-x,1/2-y,1/2+z
1/2+x,1/2-y,-z
1/2-x,1/2+y,1/2-z
loop_
_atom_site_type_symbol
_atom_site_label
_atom_site_fract_x
_atom_site_fract_y
_atom_site_fract_z
Si Si1 0.495145 0.111513 0.118607
Si Si2 0.500000 0.481360 0.250000
Si Si3 0.576175 0.990682 0.831790
Si Si4 0.896195 0.418856 0.446363
Si Si5 0.955708 0.781519 0.377035
Si Si6 0.687339 0.705524 0.057225
Si Si7 0.106513 0.106686 0.871804
Si Si8 0.816586 0.190788 0.180171
O O1 0.419657 0.059222 0.159271
O O2 0.332565 0.156546 0.086410
O O3 0.666402 0.140359 0.177736
O O4 0.611268 0.088766 0.039749
O O5 0.655421 0.516449 0.307318
O O6 0.390319 0.440213 0.311483
O O7 0.500000 0.017661 0.750000
O O8 0.573135 0.025546 0.908530
O O9 0.639772 0.400849 0.418322
O O10 0.140850 0.393504 0.415833
O O11 0.830066 0.787275 0.463466
O O12 0.934274 0.836735 0.339821
O O13 0.836499 0.741011 0.319999
O O14 0.200317 0.755551 0.402287
O O15 0.439096 0.694586 0.094872
O O16 0.000000 0.190253 0.250000
#
# Coordination Sequence:
#
# PCOD9320959 Si02
#       8
#     8   4   8   8   8   8   8   8
#     4  11  26  42  72 102 143 190 244 301 372 443
#     4  10  24  46  66 106 138 190 234 304 372 446
#     4  11  24  45  71 100 141 188 238 306 375 441
#     4  11  24  47  69 111 139 188 250 304 363 447
#     4  11  23  41  71  99 136 192 232 302 365 429
#     4  11  23  42  69 100 136 184 243 291 363 441
#     4  11  24  42  75 101 148 180 249 298 371 434
#     4  11  27  45  66 105 145 185 246 302 366 450
#
# _framework density 23.383313999999999
#
# number of rings (size 3 to 8) (size 9 to 14) (size 15 to 20)
#    0.000    1.067    4.000    1.200    6.533    2.667 
#    2.400    1.333    0.000    0.000    0.000    0.000 
#    0.000    0.000    0.000    0.000    0.000    0.000 
#
# Total GULP energy -167196.456466 kJ/mol
# GULP energy per Si atom -5573.215216 kJ/mol
# Density = 2.333009 g / cm^3
# Si number density = 23.383314 Si / 1000 Ang^3
#
#
#
# Elastic Constant Matrix: (Units=GPa)
#
#
# Indices 1 2 3 4 5 6 
#
# 1 81.6960 23.4088 23.5208 0.0000 0.0000 0.0000
# 2 23.4088 105.6099 8.7868 0.0000 0.0000 0.0000
# 3 23.5208 8.7868 94.4129 0.0000 0.0000 0.0000
# 4 0.0000 0.0000 0.0000 16.9762 0.0000 0.0000
# 5 0.0000 0.0000 0.0000 0.0000 42.8071 0.0000
# 6 0.0000 0.0000 0.0000 0.0000 0.0000 1.6637
#
#
#
# Elastic Compliance Matrix: (Units=1/GPa)
#
#
# Indices 1 2 3 4 5 6 
#
# 1 0.013978 -0.002831 -0.003219 0.000000 0.000000 0.000000
# 2 -0.002831 0.010116 -0.000236 0.000000 0.000000 0.000000
# 3 -0.003219 -0.000236 0.011416 0.000000 0.000000 0.000000
# 4 0.000000 0.000000 0.000000 0.058906 0.000000 0.000000
# 5 0.000000 0.000000 0.000000 0.000000 0.023361 0.000000
# 6 0.000000 0.000000 0.000000 0.000000 0.000000 0.601084
#
#
# Mechanical properties :
#
#
# Convention : Reuss Voigt Hill
#
# Bulk Modulus (GPa) = 43.59514 43.68349 43.63932
# Shear Modulus (GPa) = 6.76518 27.35620 17.06069
#
# Velocity S-wave (km/s) = 1.70278 3.42409 2.70406
# Velocity P-wave (km/s) = 4.74869 5.86128 5.33407
#
# Compressibility (1/GPa) = 0.02293834
#
# Stress axis : x y z
#
# Youngs Moduli (GPa) = 71.53945 98.85460 87.59871
#
# Poissons Ratio (x) = 0.27981 0.28197
# Poissons Ratio (y) = 0.20249 0.02070
# Poissons Ratio (z) = 0.23028 0.02336
#
# Static dielectric constant tensor:
#      x y z
#    x 2.057120 0.000000 0.000000 
#    y 0.000000 1.905600 0.000000 
#    z 0.000000 0.000000 1.911230 
# 
# From -- ./inp_files/22940.got.cif
#   From: 2010.05.17/outbox.cif.g08.bks.cpg/sg20_12_cif.got.tgz:22940.got - 2010.06.03 22:52:26.
