data_PCOD9320642
_publ_section_title
;
Structure prediction by ZEFSAII (Michael W. Deem and Ramdas Pophale) SiO2 
 PCOD9320642
Probable space group: C 2 2 21
;
_chemical_formula_sum "Si O2"
_cell_formula_units_Z 36
_cell_length_a 23.603433
_cell_length_b 12.361673
_cell_length_c 5.039291
_cell_angle_alpha 90.000000
_cell_angle_beta 90.000000
_cell_angle_gamma 90.000000
_cell_volume 1470.353848
_symmetry_space_group_name_H-M "C 2 2 21"
_symmetry_group_IT_number 20
_symmetry_cell_setting 'orthorhombic'
loop_
_space_group_symop_operation_xyz
x,y,z
-x,-y,1/2+z
x,-y,-z
-x,y,1/2-z
1/2+x,1/2+y,z
1/2-x,1/2-y,1/2+z
1/2+x,1/2-y,-z
1/2-x,1/2+y,1/2-z
loop_
_atom_site_type_symbol
_atom_site_label
_atom_site_fract_x
_atom_site_fract_y
_atom_site_fract_z
Si Si1 0.401859 0.000000 0.000000
Si Si2 0.673928 0.182737 0.769682
Si Si3 0.310438 0.701525 0.757950
Si Si4 0.500000 0.146767 0.250000
Si Si5 0.638979 0.500000 0.000000
Si Si6 0.000000 0.202136 0.250000
Si Si7 0.940534 0.000000 0.000000
O O1 0.359988 0.920976 0.167185
O O2 0.445949 0.925381 0.834963
O O3 0.663380 0.202933 0.079195
O O4 0.742776 0.187012 0.778711
O O5 0.663042 0.277991 0.548882
O O6 0.323805 0.601784 0.567864
O O7 0.480979 0.215337 0.514194
O O8 0.598406 0.498439 0.247138
O O9 0.972614 0.111991 0.050275
#
# Coordination Sequence:
#
# PCOD9320642 Si02
#       7
#     4   8   8   4   4   4   4
#     4  12  29  52  72 112 142 216 243 320 354 450
#     4  10  24  45  75  98 153 189 240 291 381 426
#     4  10  23  44  70 115 139 187 234 304 362 470
#     4  12  30  48  78 104 158 192 276 300 368 434
#     4  12  24  40  74 112 138 176 238 304 376 456
#     4  12  28  54  70 106 150 194 252 318 360 464
#     4  12  27  46  76 106 138 194 233 308 394 428
#
# _framework density 24.483905
#
# number of rings (size 3 to 8) (size 9 to 14) (size 15 to 20)
#    0.000    0.889    0.000    5.333    9.333    4.444 
#    0.000    6.667    0.000    0.000    0.000    0.000 
#    0.000    0.000    0.000    0.000    0.000    0.000 
#
# Total GULP energy -100250.240497 kJ/mol
# GULP energy per Si atom -5569.457805 kJ/mol
# Density = 2.442818 g / cm^3
# Si number density = 24.483905 Si / 1000 Ang^3
#
#
#
# Elastic Constant Matrix: (Units=GPa)
#
#
# Indices 1 2 3 4 5 6 
#
# 1 45.9467 17.2053 36.3489 0.0000 0.0000 0.0000
# 2 17.2053 57.1610 77.2856 0.0000 0.0000 0.0000
# 3 36.3489 77.2856 84.0710 0.0000 0.0000 0.0000
# 4 0.0000 0.0000 0.0000 56.6015 0.0000 0.0000
# 5 0.0000 0.0000 0.0000 0.0000 23.9785 0.0000
# 6 0.0000 0.0000 0.0000 0.0000 0.0000 67.6726
#
#
#
# Elastic Compliance Matrix: (Units=1/GPa)
#
#
# Indices 1 2 3 4 5 6 
#
# 1 0.020345 -0.023748 0.013035 0.000000 0.000000 0.000000
# 2 -0.023748 -0.044289 0.050983 0.000000 0.000000 0.000000
# 3 0.013035 0.050983 -0.040609 0.000000 0.000000 0.000000
# 4 0.000000 0.000000 0.000000 0.017667 0.000000 0.000000
# 5 0.000000 0.000000 0.000000 0.000000 0.041704 0.000000
# 6 0.000000 0.000000 0.000000 0.000000 0.000000 0.014777
#
#
# Mechanical properties :
#
#
# Convention : Reuss Voigt Hill
#
# Bulk Modulus (GPa) = 62.55624 49.87315 56.21470
# Shear Modulus (GPa) = -76.20116 33.40644 -21.39736
#
# Velocity S-wave (km/s) = -5.58485 3.69782 -2.95945
# Velocity P-wave (km/s) = 3.99774 6.21658 3.36629
#
# Compressibility (1/GPa) = 0.01598561
#
# Stress axis : x y z
#
# Youngs Moduli (GPa) = 49.15241 -22.57873 -24.62509
#
# Poissons Ratio (x) = -0.53620 0.32099
# Poissons Ratio (y) = 1.16728 1.25545
# Poissons Ratio (z) = -0.64071 1.15112
#
# Static dielectric constant tensor:
#      x y z
#    x 1.753260 0.000000 0.000000 
#    y 0.000000 2.076820 0.000000 
#    z 0.000000 0.000000 1.908790 
# 
# From -- ./inp_files/3606.got.cif
#   From: 2010.05.17/outbox.cif.g08.bks.cpg/sg20_2_cif.got.tgz:3606.got - 2010.06.03 22:52:26.
