data_PCOD9320553
_publ_section_title
;
Structure prediction by ZEFSAII (Michael W. Deem and Ramdas Pophale) SiO2 
 PCOD9320553
Probable space group: C 2 2 21
;
_chemical_formula_sum "Si O2"
_cell_formula_units_Z 48
_cell_length_a 11.745134
_cell_length_b 11.216006
_cell_length_c 17.138085
_cell_angle_alpha 90.000000
_cell_angle_beta 90.000000
_cell_angle_gamma 90.000000
_cell_volume 2257.659807
_symmetry_space_group_name_H-M "C 2 2 21"
_symmetry_group_IT_number 20
_symmetry_cell_setting 'orthorhombic'
loop_
_space_group_symop_operation_xyz
x,y,z
-x,-y,1/2+z
x,-y,-z
-x,y,1/2-z
1/2+x,1/2+y,z
1/2-x,1/2-y,1/2+z
1/2+x,1/2-y,-z
1/2-x,1/2+y,1/2-z
loop_
_atom_site_type_symbol
_atom_site_label
_atom_site_fract_x
_atom_site_fract_y
_atom_site_fract_z
Si Si1 0.585693 0.576255 0.594658
Si Si2 0.705664 0.931505 0.879843
Si Si3 0.235341 0.959772 0.798562
Si Si4 0.337193 0.168847 0.055629
Si Si5 0.533118 0.000000 0.000000
Si Si6 0.835068 0.844411 0.416937
Si Si7 0.000000 0.012384 0.250000
O O1 0.667542 0.461315 0.585776
O O2 0.653116 0.691090 0.567778
O O3 0.457986 0.597885 0.564445
O O4 0.560311 0.571182 0.687036
O O5 0.710811 0.958063 0.787478
O O6 0.616164 0.013807 0.925982
O O7 0.668019 0.795684 0.895703
O O8 0.307634 0.885365 0.860291
O O9 0.103853 0.914671 0.787916
O O10 0.217539 0.085843 0.842637
O O11 0.240575 0.139990 0.993304
O O12 0.450975 0.110136 0.020193
#
# Coordination Sequence:
#
# PCOD9320553 Si02
#       7
#     8   8   8   8   4   8   4
#     4  10  23  42  73  96 139 188 234 301 358 427
#     4  11  25  46  72 104 142 187 250 298 362 446
#     4  10  23  43  72  99 138 188 242 301 369 432
#     4  12  24  44  70 102 147 190 237 300 370 432
#     4  12  24  46  62 110 140 184 248 284 366 440
#     4  11  23  48  68 105 144 187 246 304 363 439
#     4   8  20  44  64 104 128 174 244 286 358 428
#
# _framework density 21.260953000000001
#
# number of rings (size 3 to 8) (size 9 to 14) (size 15 to 20)
#    0.000    1.333    3.333    1.000    7.000    0.667 
#   24.000    0.000    3.667    0.000    0.000    0.000 
#    0.000    0.000    0.000    0.000    0.000    0.000 
#
# Total GULP energy -133885.826016 kJ/mol
# GULP energy per Si atom -5578.576084 kJ/mol
# Density = 2.121256 g / cm^3
# Si number density = 21.260953 Si / 1000 Ang^3
#
#
#
# Elastic Constant Matrix: (Units=GPa)
#
#
# Indices 1 2 3 4 5 6 
#
# 1 110.1399 33.2468 70.6657 0.0000 0.0000 0.0000
# 2 33.2468 88.3724 33.7160 0.0000 0.0000 0.0000
# 3 70.6657 33.7160 142.0937 0.0000 0.0000 0.0000
# 4 0.0000 0.0000 0.0000 26.0930 0.0000 0.0000
# 5 0.0000 0.0000 0.0000 0.0000 41.2688 0.0000
# 6 0.0000 0.0000 0.0000 0.0000 0.0000 22.5171
#
#
#
# Elastic Compliance Matrix: (Units=1/GPa)
#
#
# Indices 1 2 3 4 5 6 
#
# 1 0.013963 -0.002863 -0.006265 0.000000 0.000000 0.000000
# 2 -0.002863 0.013029 -0.001668 0.000000 0.000000 0.000000
# 3 -0.006265 -0.001668 0.010549 0.000000 0.000000 0.000000
# 4 0.000000 0.000000 0.000000 0.038324 0.000000 0.000000
# 5 0.000000 0.000000 0.000000 0.000000 0.024231 0.000000
# 6 0.000000 0.000000 0.000000 0.000000 0.000000 0.044411
#
#
# Mechanical properties :
#
#
# Convention : Reuss Voigt Hill
#
# Bulk Modulus (GPa) = 62.69527 68.42923 65.56225
# Shear Modulus (GPa) = 29.16894 31.50760 30.33827
#
# Velocity S-wave (km/s) = 3.70800 3.85378 3.78159
# Velocity P-wave (km/s) = 6.91989 7.21509 7.06903
#
# Compressibility (1/GPa) = 0.01595017
#
# Stress axis : x y z
#
# Youngs Moduli (GPa) = 71.61777 76.75125 94.79655
#
# Poissons Ratio (x) = 0.21973 0.59388
# Poissons Ratio (y) = 0.20504 0.15810
# Poissons Ratio (z) = 0.44867 0.12800
#
# Static dielectric constant tensor:
#      x y z
#    x 1.813520 0.000000 0.000000 
#    y 0.000000 1.753330 0.000000 
#    z 0.000000 0.000000 1.777580 
# 
# From -- ./inp_files/24286.got.cif
#   From: 2010.05.17/outbox.cif.g08.bks.cpg/sg20_13_cif.got.tgz:24286.got - 2010.06.03 22:52:26.
