data_PCOD9320317
_publ_section_title
;
Structure prediction by ZEFSAII (Michael W. Deem and Ramdas Pophale) SiO2 
 PCOD9320317
Probable space group: C 2 2 21
;
_chemical_formula_sum "Si O2"
_cell_formula_units_Z 48
_cell_length_a 13.700053
_cell_length_b 5.105890
_cell_length_c 26.703001
_cell_angle_alpha 90.000000
_cell_angle_beta 90.000000
_cell_angle_gamma 90.000000
_cell_volume 1867.900651
_symmetry_space_group_name_H-M "C 2 2 21"
_symmetry_group_IT_number 20
_symmetry_cell_setting 'orthorhombic'
loop_
_space_group_symop_operation_xyz
x,y,z
-x,-y,1/2+z
x,-y,-z
-x,y,1/2-z
1/2+x,1/2+y,z
1/2-x,1/2-y,1/2+z
1/2+x,1/2-y,-z
1/2-x,1/2+y,1/2-z
loop_
_atom_site_type_symbol
_atom_site_label
_atom_site_fract_x
_atom_site_fract_y
_atom_site_fract_z
Si Si1 0.632500 0.500000 0.500000
Si Si2 0.175253 0.436612 0.807791
Si Si3 0.332065 0.433248 0.627827
Si Si4 0.884603 0.004507 0.825007
Si Si5 0.500000 0.851034 0.250000
Si Si6 0.489421 0.247831 0.089921
Si Si7 0.653647 0.855688 0.419696
O O1 0.567494 0.611137 0.544787
O O2 0.689553 0.724307 0.470720
O O3 0.179469 0.135408 0.825360
O O4 0.284042 0.542361 0.794792
O O5 0.092408 0.477852 0.766687
O O6 0.144782 0.642116 0.852538
O O7 0.410517 0.595852 0.595549
O O8 0.231096 0.425011 0.597097
O O9 0.847255 0.840006 0.872997
O O10 0.960379 0.837453 0.793448
O O11 0.942968 0.232435 0.853515
O O12 0.458254 0.953647 0.075487
#
# Coordination Sequence:
#
# PCOD9320317 Si02
#       7
#     4   8   8   8   4   8   8
#     4  10  24  42  66 104 132 176 236 294 364 434
#     4  11  25  46  68 106 138 191 238 298 350 429
#     4  11  24  45  75  98 140 188 238 282 368 425
#     4  10  23  43  69  97 144 187 238 292 361 418
#     4  12  24  46  72 108 148 192 252 296 362 430
#     4  11  21  44  70  97 141 182 231 295 362 429
#     4  10  22  45  69  96 142 186 230 303 359 432
#
# _framework density 25.697296000000001
#
# number of rings (size 3 to 8) (size 9 to 14) (size 15 to 20)
#    0.000    1.333    3.333    1.500    2.333    3.333 
#   12.000    0.000    0.000    0.000    0.000    0.000 
#    0.000    0.000    0.000    0.000    0.000    0.000 
#
# Total GULP energy -134070.996047 kJ/mol
# GULP energy per Si atom -5586.291502 kJ/mol
# Density = 2.563881 g / cm^3
# Si number density = 25.697296 Si / 1000 Ang^3
#
#
#
# Elastic Constant Matrix: (Units=GPa)
#
#
# Indices 1 2 3 4 5 6 
#
# 1 114.2907 2.1815 19.9073 0.0000 0.0000 0.0000
# 2 2.1815 92.5663 13.1460 0.0000 0.0000 0.0000
# 3 19.9073 13.1460 100.4710 0.0000 0.0000 0.0000
# 4 0.0000 0.0000 0.0000 32.8169 0.0000 0.0000
# 5 0.0000 0.0000 0.0000 0.0000 26.9773 0.0000
# 6 0.0000 0.0000 0.0000 0.0000 0.0000 36.6234
#
#
#
# Elastic Compliance Matrix: (Units=1/GPa)
#
#
# Indices 1 2 3 4 5 6 
#
# 1 0.009063 0.000042 -0.001801 0.000000 0.000000 0.000000
# 2 0.000042 0.011008 -0.001449 0.000000 0.000000 0.000000
# 3 -0.001801 -0.001449 0.010500 0.000000 0.000000 0.000000
# 4 0.000000 0.000000 0.000000 0.030472 0.000000 0.000000
# 5 0.000000 0.000000 0.000000 0.000000 0.037068 0.000000
# 6 0.000000 0.000000 0.000000 0.000000 0.000000 0.027305
#
#
# Mechanical properties :
#
#
# Convention : Reuss Voigt Hill
#
# Bulk Modulus (GPa) = 41.39986 41.97750 41.68868
# Shear Modulus (GPa) = 35.74442 37.42307 36.58375
#
# Velocity S-wave (km/s) = 3.73363 3.82029 3.77721
# Velocity P-wave (km/s) = 5.89341 5.98585 5.93981
#
# Compressibility (1/GPa) = 0.02415467
#
# Stress axis : x y z
#
# Youngs Moduli (GPa) = 110.34433 90.84464 95.24216
#
# Poissons Ratio (x) = -0.00384 0.17155
# Poissons Ratio (y) = -0.00466 0.13797
# Poissons Ratio (z) = 0.19875 0.13160
#
# Static dielectric constant tensor:
#      x y z
#    x 2.100290 0.000000 0.000000 
#    y 0.000000 2.154010 0.000000 
#    z 0.000000 0.000000 2.035800 
# 
# From -- ./inp_files/29856.got.cif
#   From: 2010.05.17/outbox.cif.g08.bks.cpg/sg20_15_cif.got.tgz:29856.got - 2010.06.03 22:52:26.
