data_PCOD9320607
_publ_section_title
;
Structure prediction by ZEFSAII (Michael W. Deem and Ramdas Pophale) SiO2 
 PCOD9320607
Probable space group: C 2 2 21
;
_chemical_formula_sum "Si O2"
_cell_formula_units_Z 56
_cell_length_a 6.681757
_cell_length_b 13.986366
_cell_length_c 26.991037
_cell_angle_alpha 90.000000
_cell_angle_beta 90.000000
_cell_angle_gamma 90.000000
_cell_volume 2522.406847
_symmetry_space_group_name_H-M "C 2 2 21"
_symmetry_group_IT_number 20
_symmetry_cell_setting 'orthorhombic'
loop_
_space_group_symop_operation_xyz
x,y,z
-x,-y,1/2+z
x,-y,-z
-x,y,1/2-z
1/2+x,1/2+y,z
1/2-x,1/2-y,1/2+z
1/2+x,1/2-y,-z
1/2-x,1/2+y,1/2-z
loop_
_atom_site_type_symbol
_atom_site_label
_atom_site_fract_x
_atom_site_fract_y
_atom_site_fract_z
Si Si1 0.179813 0.773832 0.788686
Si Si2 0.536875 0.864207 0.532359
Si Si3 0.200341 0.000000 0.500000
Si Si4 0.143451 0.217961 0.099772
Si Si5 0.570507 0.597671 0.598930
Si Si6 0.254412 0.798060 0.057623
Si Si7 0.500000 0.920854 0.750000
Si Si8 0.833277 0.945334 0.207285
O O1 0.101675 0.797481 0.843124
O O2 0.353068 0.850015 0.778870
O O3 0.269646 0.666361 0.787707
O O4 0.000000 0.781108 0.750000
O O5 0.702122 0.856918 0.575324
O O6 0.653025 0.871999 0.480896
O O7 0.421267 0.762439 0.532035
O O8 0.355719 0.936724 0.532167
O O9 0.077161 0.049231 0.544461
O O10 0.256347 0.321040 0.096367
O O11 0.932316 0.228239 0.073080
O O12 0.355293 0.649922 0.602600
O O13 0.599259 0.540682 0.650014
O O14 0.358315 0.988648 0.717390
O O15 0.000000 0.964756 0.250000
#
# Coordination Sequence:
#
# PCOD9320607 Si02
#       8
#     8   8   4   8   8   8   4   8
#     4  11  25  46  75 108 143 187 245 306 372 437
#     4  11  22  39  65  95 134 178 230 282 344 420
#     4  12  24  44  60 106 146 174 236 302 358 430
#     4  10  23  43  71  98 130 192 234 287 362 432
#     4  10  25  42  69 101 141 184 235 294 366 430
#     4  11  20  43  66  92 134 183 231 277 344 436
#     4  12  26  48  76 106 148 188 252 300 362 452
#     4  11  25  49  74 106 147 197 243 311 372 438
#
# _framework density 22.201017
#
# number of rings (size 3 to 8) (size 9 to 14) (size 15 to 20)
#    0.000    1.143    4.286    1.286    4.000    1.714 
#    2.571    0.000    0.000    0.000    0.000    0.000 
#    0.000    0.000    0.000    0.000    0.000    0.000 
#
# Total GULP energy -156389.423193 kJ/mol
# GULP energy per Si atom -5585.336543 kJ/mol
# Density = 2.215049 g / cm^3
# Si number density = 22.201017 Si / 1000 Ang^3
#
#
#
# Elastic Constant Matrix: (Units=GPa)
#
#
# Indices 1 2 3 4 5 6 
#
# 1 114.9384 19.9296 55.6799 0.0000 0.0000 0.0000
# 2 19.9296 68.8273 17.5471 0.0000 0.0000 0.0000
# 3 55.6799 17.5471 140.9479 0.0000 0.0000 0.0000
# 4 0.0000 0.0000 0.0000 1.6055 0.0000 0.0000
# 5 0.0000 0.0000 0.0000 0.0000 29.8481 0.0000
# 6 0.0000 0.0000 0.0000 0.0000 0.0000 37.4690
#
#
#
# Elastic Compliance Matrix: (Units=1/GPa)
#
#
# Indices 1 2 3 4 5 6 
#
# 1 0.011061 -0.002157 -0.004101 0.000000 0.000000 0.000000
# 2 -0.002157 0.015426 -0.001068 0.000000 0.000000 0.000000
# 3 -0.004101 -0.001068 0.008848 0.000000 0.000000 0.000000
# 4 0.000000 0.000000 0.000000 0.622863 0.000000 0.000000
# 5 0.000000 0.000000 0.000000 0.000000 0.033503 0.000000
# 6 0.000000 0.000000 0.000000 0.000000 0.000000 0.026689
#
#
# Mechanical properties :
#
#
# Convention : Reuss Voigt Hill
#
# Bulk Modulus (GPa) = 48.35127 56.78077 52.56602
# Shear Modulus (GPa) = 6.75733 29.22164 17.98949
#
# Velocity S-wave (km/s) = 1.74651 3.63192 2.84967
# Velocity P-wave (km/s) = 5.08854 6.57412 5.87845
#
# Compressibility (1/GPa) = 0.02068198
#
# Stress axis : x y z
#
# Youngs Moduli (GPa) = 90.40759 64.82509 113.02188
#
# Poissons Ratio (x) = 0.13985 0.46350
# Poissons Ratio (y) = 0.19504 0.12073
# Poissons Ratio (z) = 0.37076 0.06925
#
# Static dielectric constant tensor:
#      x y z
#    x 1.934300 0.000000 0.000000 
#    y 0.000000 1.868420 0.000000 
#    z 0.000000 0.000000 1.807970 
# 
# From -- ./inp_files/30762.got.cif
#   From: 2010.05.17/outbox.cif.g08.bks.cpg/sg20_16_cif.got.tgz:30762.got - 2010.06.03 22:52:26.
