data_PCOD9320874
_publ_section_title
;
Structure prediction by ZEFSAII (Michael W. Deem and Ramdas Pophale) SiO2 
 PCOD9320874
Probable space group: C 2 2 21
;
_chemical_formula_sum "Si O2"
_cell_formula_units_Z 32
_cell_length_a 11.616853
_cell_length_b 15.283120
_cell_length_c 7.085998
_cell_angle_alpha 90.000000
_cell_angle_beta 90.000000
_cell_angle_gamma 90.000000
_cell_volume 1258.060545
_symmetry_space_group_name_H-M "C 2 2 21"
_symmetry_group_IT_number 20
_symmetry_cell_setting 'orthorhombic'
loop_
_space_group_symop_operation_xyz
x,y,z
-x,-y,1/2+z
x,-y,-z
-x,y,1/2-z
1/2+x,1/2+y,z
1/2-x,1/2-y,1/2+z
1/2+x,1/2-y,-z
1/2-x,1/2+y,1/2-z
loop_
_atom_site_type_symbol
_atom_site_label
_atom_site_fract_x
_atom_site_fract_y
_atom_site_fract_z
Si Si1 0.706975 0.500000 0.000000
Si Si2 0.297400 0.157970 0.822730
Si Si3 0.348560 0.584077 0.133681
Si Si4 0.500000 0.269592 0.750000
Si Si5 0.364617 0.193549 0.252088
O O1 0.780105 0.445330 0.155501
O O2 0.634344 0.557545 0.145562
O O3 0.395935 0.203771 0.695972
O O4 0.177880 0.207950 0.792038
O O5 0.331222 0.176977 0.036791
O O6 0.436525 0.664821 0.105096
O O7 0.220766 0.628451 0.130458
O O8 0.361597 0.500000 0.000000
O O9 0.500000 0.179105 0.250000
#
# Coordination Sequence:
#
# PCOD9320874 Si02
#       5
#     4   8   8   4   8
#     4  10  24  44  66 106 144 184 252 316 376 466
#     4  10  24  45  71 107 145 194 264 310 396 472
#     4  10  24  46  71 108 149 192 256 318 388 458
#     4  10  24  44  76 104 144 208 246 322 388 462
#     4  10  24  44  72 104 146 204 252 318 395 467
#
# _framework density 25.435979
#
# number of rings (size 3 to 8) (size 9 to 14) (size 15 to 20)
#    0.000    2.000    0.000    0.000   19.250    0.000 
#   20.250    0.000    0.000    0.000    0.000    1.750 
#    0.000    0.000    0.000    0.000    0.000    0.000 
#
# Total GULP energy -89258.040974 kJ/mol
# GULP energy per Si atom -5578.627561 kJ/mol
# Density = 2.537809 g / cm^3
# Si number density = 25.435979 Si / 1000 Ang^3
#
#
#
# Elastic Constant Matrix: (Units=GPa)
#
#
# Indices 1 2 3 4 5 6 
#
# 1 124.4026 62.0067 34.4818 0.0000 0.0000 0.0000
# 2 62.0067 146.9353 16.1637 0.0000 0.0000 0.0000
# 3 34.4818 16.1637 63.6255 0.0000 0.0000 0.0000
# 4 0.0000 0.0000 0.0000 56.6562 0.0000 0.0000
# 5 0.0000 0.0000 0.0000 0.0000 24.2320 0.0000
# 6 0.0000 0.0000 0.0000 0.0000 0.0000 28.7500
#
#
#
# Elastic Compliance Matrix: (Units=1/GPa)
#
#
# Indices 1 2 3 4 5 6 
#
# 1 0.011646 -0.004342 -0.005209 0.000000 0.000000 0.000000
# 2 -0.004342 0.008620 0.000163 0.000000 0.000000 0.000000
# 3 -0.005209 0.000163 0.018498 0.000000 0.000000 0.000000
# 4 0.000000 0.000000 0.000000 0.017650 0.000000 0.000000
# 5 0.000000 0.000000 0.000000 0.000000 0.041268 0.000000
# 6 0.000000 0.000000 0.000000 0.000000 0.000000 0.034783
#
#
# Mechanical properties :
#
#
# Convention : Reuss Voigt Hill
#
# Bulk Modulus (GPa) = 50.02487 62.25197 56.13842
# Shear Modulus (GPa) = 31.66499 36.74839 34.20669
#
# Velocity S-wave (km/s) = 3.53213 3.80510 3.67115
# Velocity P-wave (km/s) = 6.02862 6.62058 6.33152
#
# Compressibility (1/GPa) = 0.01999006
#
# Stress axis : x y z
#
# Youngs Moduli (GPa) = 85.86468 116.00955 54.05880
#
# Poissons Ratio (x) = 0.50368 0.28158
# Poissons Ratio (y) = 0.37280 -0.00882
# Poissons Ratio (z) = 0.44724 -0.01893
#
# Static dielectric constant tensor:
#      x y z
#    x 2.083160 0.000000 0.000000 
#    y 0.000000 2.146820 0.000000 
#    z 0.000000 0.000000 2.054670 
# 
# From -- ./inp_files/6920.got.cif
#   From: 2010.05.17/outbox.cif.g08.bks.cpg/sg20_4_cif.got.tgz:6920.got - 2010.06.03 22:52:26.
