data_PCOD9320857
_publ_section_title
;
Structure prediction by ZEFSAII (Michael W. Deem and Ramdas Pophale) SiO2 
 PCOD9320857
Probable space group: C 2 2 21
;
_chemical_formula_sum "Si O2"
_cell_formula_units_Z 56
_cell_length_a 9.923807
_cell_length_b 16.154673
_cell_length_c 15.667616
_cell_angle_alpha 90.000000
_cell_angle_beta 90.000000
_cell_angle_gamma 90.000000
_cell_volume 2511.767286
_symmetry_space_group_name_H-M "C 2 2 21"
_symmetry_group_IT_number 20
_symmetry_cell_setting 'orthorhombic'
loop_
_space_group_symop_operation_xyz
x,y,z
-x,-y,1/2+z
x,-y,-z
-x,y,1/2-z
1/2+x,1/2+y,z
1/2-x,1/2-y,1/2+z
1/2+x,1/2-y,-z
1/2-x,1/2+y,1/2-z
loop_
_atom_site_type_symbol
_atom_site_label
_atom_site_fract_x
_atom_site_fract_y
_atom_site_fract_z
Si Si1 0.120432 0.328180 0.026470
Si Si2 0.627969 0.407652 0.154064
Si Si3 0.660026 0.430781 0.738883
Si Si4 0.551507 0.228831 0.162171
Si Si5 0.763038 0.302919 0.862785
Si Si6 0.652295 0.090019 0.511015
Si Si7 0.658047 0.462927 0.413401
O O1 0.154284 0.248204 0.083748
O O2 0.223751 0.399718 0.058739
O O3 0.966771 0.353078 0.044962
O O4 0.120675 0.309602 0.923229
O O5 0.686204 0.483493 0.209136
O O6 0.629120 0.313059 0.187578
O O7 0.717545 0.408058 0.069708
O O8 0.471078 0.426468 0.136103
O O9 0.500000 0.418207 0.750000
O O10 0.721124 0.344658 0.773509
O O11 0.704338 0.459600 0.645032
O O12 0.500000 0.182527 0.250000
O O13 0.399687 0.250102 0.130695
O O14 0.800428 0.382429 0.918543
O O15 0.591195 0.000000 0.500000
O O16 0.600022 0.500000 0.500000
#
# Coordination Sequence:
#
# PCOD9320857 Si02
#       7
#     8   8   8   8   8   8   8
#     4  11  25  43  68 105 142 181 240 299 362 427
#     4  11  21  43  69  98 134 186 239 282 354 438
#     4  10  24  43  69 101 136 181 243 297 354 438
#     4  11  24  42  70  99 143 187 235 297 371 428
#     4  11  23  45  67 102 140 179 238 301 361 423
#     4  11  22  43  70  97 136 193 232 282 361 437
#     4  11  24  42  70 100 137 186 243 293 350 433
#
# _framework density 22.295058999999998
#
# number of rings (size 3 to 8) (size 9 to 14) (size 15 to 20)
#    0.000    1.143    4.286    2.143    4.000    0.000 
#    2.571    0.714    0.000    0.000    0.000    0.000 
#    0.000    0.000    0.000    0.000    0.000    0.000 
#
# Total GULP energy -155947.205321 kJ/mol
# GULP energy per Si atom -5569.543047 kJ/mol
# Density = 2.224431 g / cm^3
# Si number density = 22.295059 Si / 1000 Ang^3
#
#
#
# Elastic Constant Matrix: (Units=GPa)
#
#
# Indices 1 2 3 4 5 6 
#
# 1 63.7963 24.1531 4.9617 0.0000 0.0000 0.0000
# 2 24.1531 100.8338 32.7811 0.0000 0.0000 0.0000
# 3 4.9617 32.7811 91.0546 0.0000 0.0000 0.0000
# 4 0.0000 0.0000 0.0000 35.4415 0.0000 0.0000
# 5 0.0000 0.0000 0.0000 0.0000 12.8888 0.0000
# 6 0.0000 0.0000 0.0000 0.0000 0.0000 29.4695
#
#
#
# Elastic Compliance Matrix: (Units=1/GPa)
#
#
# Indices 1 2 3 4 5 6 
#
# 1 0.017269 -0.004338 0.000621 0.000000 0.000000 0.000000
# 2 -0.004338 0.012322 -0.004200 0.000000 0.000000 0.000000
# 3 0.000621 -0.004200 0.012461 0.000000 0.000000 0.000000
# 4 0.000000 0.000000 0.000000 0.028215 0.000000 0.000000
# 5 0.000000 0.000000 0.000000 0.000000 0.077587 0.000000
# 6 0.000000 0.000000 0.000000 0.000000 0.000000 0.033933
#
#
# Mechanical properties :
#
#
# Convention : Reuss Voigt Hill
#
# Bulk Modulus (GPa) = 38.14303 42.16407 40.15355
# Shear Modulus (GPa) = 24.22949 28.47923 26.35436
#
# Velocity S-wave (km/s) = 3.30019 3.57792 3.44186
# Velocity P-wave (km/s) = 5.62735 6.00180 5.81759
#
# Compressibility (1/GPa) = 0.02621711
#
# Stress axis : x y z
#
# Youngs Moduli (GPa) = 57.90690 81.15699 80.25350
#
# Poissons Ratio (x) = 0.35209 -0.04983
# Poissons Ratio (y) = 0.25122 0.33703
# Poissons Ratio (z) = -0.03595 0.34083
#
# Static dielectric constant tensor:
#      x y z
#    x 1.834350 0.000000 0.000000 
#    y 0.000000 1.884330 0.000000 
#    z 0.000000 0.000000 1.889140 
# 
# From -- ./inp_files/20037.got.cif
#   From: 2010.05.17/outbox.cif.g08.bks.cpg/sg20_11_cif.got.tgz:20037.got - 2010.06.03 22:52:26.
