data_PCOD9320012
_publ_section_title
;
Structure prediction by ZEFSAII (Michael W. Deem and Ramdas Pophale) SiO2 
 PCOD9320012
Probable space group: C 2 2 21
;
_chemical_formula_sum "Si O2"
_cell_formula_units_Z 48
_cell_length_a 13.914855
_cell_length_b 9.777339
_cell_length_c 16.422279
_cell_angle_alpha 90.000000
_cell_angle_beta 90.000000
_cell_angle_gamma 90.000000
_cell_volume 2234.255237
_symmetry_space_group_name_H-M "C 2 2 21"
_symmetry_group_IT_number 20
_symmetry_cell_setting 'orthorhombic'
loop_
_space_group_symop_operation_xyz
x,y,z
-x,-y,1/2+z
x,-y,-z
-x,y,1/2-z
1/2+x,1/2+y,z
1/2-x,1/2-y,1/2+z
1/2+x,1/2-y,-z
1/2-x,1/2+y,1/2-z
loop_
_atom_site_type_symbol
_atom_site_label
_atom_site_fract_x
_atom_site_fract_y
_atom_site_fract_z
Si Si1 0.320132 0.157039 0.130378
Si Si2 0.888340 0.444367 0.258116
Si Si3 0.764327 0.059804 0.882976
Si Si4 0.143270 0.770719 0.633479
Si Si5 0.296733 0.272440 0.490548
Si Si6 0.004283 0.661034 0.494378
O O1 0.302731 0.307806 0.166414
O O2 0.235150 0.128832 0.064455
O O3 0.331409 0.044278 0.197889
O O4 0.416623 0.169003 0.076645
O O5 0.841236 0.466746 0.345867
O O6 0.000000 0.478995 0.250000
O O7 0.943726 0.280697 0.075639
O O8 0.624687 0.208198 0.722042
O O9 0.749059 0.131477 0.970784
O O10 0.833897 0.931830 0.870854
O O11 0.237835 0.704515 0.591214
O O12 0.408372 0.247475 0.479588
O O13 0.981968 0.500000 0.500000
#
# Coordination Sequence:
#
# PCOD9320012 Si02
#       6
#     8   8   8   8   8   8
#     4   9  23  38  60  96 124 160 215 266 313 386
#     4  12  24  41  67  91 127 176 224 258 321 401
#     4  10  22  42  60  90 131 167 205 269 339 364
#     4  11  22  39  67  94 128 166 215 274 314 388
#     4   9  22  39  69  90 125 170 212 266 324 370
#     4  11  19  37  67  96 120 162 227 257 310 384
#
# _framework density 21.48367
#
# number of rings (size 3 to 8) (size 9 to 14) (size 15 to 20)
#    1.000    0.667    1.667    3.500    2.333    0.000 
#    0.000    4.167    0.000    0.000    0.000    0.000 
#    0.000    0.000    0.000    0.000    0.000    0.000 
#
# Total GULP energy -133840.249769 kJ/mol
# GULP energy per Si atom -5576.677074 kJ/mol
# Density = 2.143477 g / cm^3
# Si number density = 21.483670 Si / 1000 Ang^3
#
#
#
# Elastic Constant Matrix: (Units=GPa)
#
#
# Indices 1 2 3 4 5 6 
#
# 1 100.4876 -3.6180 2.0785 0.0000 0.0000 0.0000
# 2 -3.6180 68.8902 2.9626 0.0000 0.0000 0.0000
# 3 2.0785 2.9626 33.6505 0.0000 0.0000 0.0000
# 4 0.0000 0.0000 0.0000 16.4335 0.0000 0.0000
# 5 0.0000 0.0000 0.0000 0.0000 23.1100 0.0000
# 6 0.0000 0.0000 0.0000 0.0000 0.0000 22.5583
#
#
#
# Elastic Compliance Matrix: (Units=1/GPa)
#
#
# Indices 1 2 3 4 5 6 
#
# 1 0.009985 0.000553 -0.000665 0.000000 0.000000 0.000000
# 2 0.000553 0.014602 -0.001320 0.000000 0.000000 0.000000
# 3 -0.000665 -0.001320 0.029874 0.000000 0.000000 0.000000
# 4 0.000000 0.000000 0.000000 0.060851 0.000000 0.000000
# 5 0.000000 0.000000 0.000000 0.000000 0.043271 0.000000
# 6 0.000000 0.000000 0.000000 0.000000 0.000000 0.044330
#
#
# Mechanical properties :
#
#
# Convention : Reuss Voigt Hill
#
# Bulk Modulus (GPa) = 19.38093 22.87493 21.12793
# Shear Modulus (GPa) = 22.42389 25.86073 24.14231
#
# Velocity S-wave (km/s) = 3.23424 3.47326 3.35588
# Velocity P-wave (km/s) = 4.79457 5.17256 4.98715
#
# Compressibility (1/GPa) = 0.05159711
#
# Stress axis : x y z
#
# Youngs Moduli (GPa) = 100.14871 68.48545 33.47337
#
# Poissons Ratio (x) = -0.03787 0.02227
# Poissons Ratio (y) = -0.05538 0.04417
# Poissons Ratio (z) = 0.06664 0.09038
#
# Static dielectric constant tensor:
#      x y z
#    x 1.781170 0.000000 0.000000 
#    y 0.000000 1.873030 0.000000 
#    z 0.000000 0.000000 1.836280 
# 
# From -- ./inp_files/20638.got.cif
#   From: 2010.05.17/outbox.cif.g08.bks.cpg/sg20_11_cif.got.tgz:20638.got - 2010.06.03 22:52:26.
