data_PCOD9320847
_publ_section_title
;
Structure prediction by ZEFSAII (Michael W. Deem and Ramdas Pophale) SiO2 
 PCOD9320847
Probable space group: C 2 2 21
;
_chemical_formula_sum "Si O2"
_cell_formula_units_Z 40
_cell_length_a 22.981734
_cell_length_b 8.514882
_cell_length_c 10.305118
_cell_angle_alpha 90.000000
_cell_angle_beta 90.000000
_cell_angle_gamma 90.000000
_cell_volume 2016.575082
_symmetry_space_group_name_H-M "C 2 2 21"
_symmetry_group_IT_number 20
_symmetry_cell_setting 'orthorhombic'
loop_
_space_group_symop_operation_xyz
x,y,z
-x,-y,1/2+z
x,-y,-z
-x,y,1/2-z
1/2+x,1/2+y,z
1/2-x,1/2-y,1/2+z
1/2+x,1/2-y,-z
1/2-x,1/2+y,1/2-z
loop_
_atom_site_type_symbol
_atom_site_label
_atom_site_fract_x
_atom_site_fract_y
_atom_site_fract_z
Si Si1 0.828539 0.296776 0.245312
Si Si2 0.616636 0.812232 0.985167
Si Si3 0.999742 0.857049 0.399692
Si Si4 0.299428 0.833877 0.746318
Si Si5 0.373297 0.687282 0.976338
O O1 0.865170 0.251153 0.372927
O O2 0.768732 0.200046 0.240040
O O3 0.811556 0.480227 0.250443
O O4 0.863655 0.266678 0.114637
O O5 0.555939 0.748933 0.930818
O O6 0.667154 0.772826 0.881800
O O7 0.613022 0.000000 0.000000
O O8 0.000000 0.909558 0.250000
O O9 0.062113 0.777016 0.424279
O O10 0.996691 0.000000 0.500000
O O11 0.327094 0.749966 0.871859
O O12 0.367519 0.500000 0.000000
#
# Coordination Sequence:
#
# PCOD9320847 Si02
#       5
#     8   8   8   8   8
#     4  11  24  39  67  96 128 171 212 266 321 388
#     4  10  24  43  64  93 129 167 211 263 322 385
#     4  11  25  44  68  95 128 166 215 267 321 382
#     4  11  22  43  64  96 132 167 216 263 325 381
#     4  11  24  41  63  94 129 169 215 265 315 382
#
# _framework density 19.835612000000001
#
# number of rings (size 3 to 8) (size 9 to 14) (size 15 to 20)
#    0.000    1.200    2.000    3.000    5.600    4.800 
#    0.000    0.000    0.000    0.000    0.000    0.000 
#    0.000    0.000    0.000    0.000    0.000    0.000 
#
# Total GULP energy -111832.762280 kJ/mol
# GULP energy per Si atom -5591.638114 kJ/mol
# Density = 1.979046 g / cm^3
# Si number density = 19.835612 Si / 1000 Ang^3
#
#
#
# Elastic Constant Matrix: (Units=GPa)
#
#
# Indices 1 2 3 4 5 6 
#
# 1 75.9176 4.2638 42.0653 0.0000 0.0000 0.0000
# 2 4.2638 32.1772 16.9375 0.0000 0.0000 0.0000
# 3 42.0653 16.9375 184.3348 0.0000 0.0000 0.0000
# 4 0.0000 0.0000 0.0000 25.1578 0.0000 0.0000
# 5 0.0000 0.0000 0.0000 0.0000 38.7369 0.0000
# 6 0.0000 0.0000 0.0000 0.0000 0.0000 15.4053
#
#
#
# Elastic Compliance Matrix: (Units=1/GPa)
#
#
# Indices 1 2 3 4 5 6 
#
# 1 0.015080 -0.000196 -0.003423 0.000000 0.000000 0.000000
# 2 -0.000196 0.032660 -0.002956 0.000000 0.000000 0.000000
# 3 -0.003423 -0.002956 0.006478 0.000000 0.000000 0.000000
# 4 0.000000 0.000000 0.000000 0.039749 0.000000 0.000000
# 5 0.000000 0.000000 0.000000 0.000000 0.025815 0.000000
# 6 0.000000 0.000000 0.000000 0.000000 0.000000 0.064913
#
#
# Mechanical properties :
#
#
# Convention : Reuss Voigt Hill
#
# Bulk Modulus (GPa) = 24.35086 46.55142 35.45114
# Shear Modulus (GPa) = 23.63676 31.13753 27.38715
#
# Velocity S-wave (km/s) = 3.45575 3.96634 3.71982
# Velocity P-wave (km/s) = 5.31281 6.67049 6.02998
#
# Compressibility (1/GPa) = 0.04106631
#
# Stress axis : x y z
#
# Youngs Moduli (GPa) = 66.31312 30.61849 154.37546
#
# Poissons Ratio (x) = 0.00601 0.52846
# Poissons Ratio (y) = 0.01302 0.45636
# Poissons Ratio (z) = 0.22700 0.09051
#
# Static dielectric constant tensor:
#      x y z
#    x 1.679280 0.000000 0.000000 
#    y 0.000000 1.686410 0.000000 
#    z 0.000000 0.000000 1.685380 
# 
# From -- ./inp_files/6086.got.cif
#   From: 2010.05.17/outbox.cif.g08.bks.cpg/sg20_4_cif.got.tgz:6086.got - 2010.06.03 22:52:26.
