data_PCOD9320636
_publ_section_title
;
Structure prediction by ZEFSAII (Michael W. Deem and Ramdas Pophale) SiO2 
 PCOD9320636
Probable space group: C 2 2 21
;
_chemical_formula_sum "Si O2"
_cell_formula_units_Z 40
_cell_length_a 23.750937
_cell_length_b 7.497490
_cell_length_c 9.640616
_cell_angle_alpha 90.000000
_cell_angle_beta 90.000000
_cell_angle_gamma 90.000000
_cell_volume 1716.727751
_symmetry_space_group_name_H-M "C 2 2 21"
_symmetry_group_IT_number 20
_symmetry_cell_setting 'orthorhombic'
loop_
_space_group_symop_operation_xyz
x,y,z
-x,-y,1/2+z
x,-y,-z
-x,y,1/2-z
1/2+x,1/2+y,z
1/2-x,1/2-y,1/2+z
1/2+x,1/2-y,-z
1/2-x,1/2+y,1/2-z
loop_
_atom_site_type_symbol
_atom_site_label
_atom_site_fract_x
_atom_site_fract_y
_atom_site_fract_z
Si Si1 0.989347 0.679661 0.412972
Si Si2 0.129205 0.326136 0.834919
Si Si3 0.890258 0.203107 0.979571
Si Si4 0.220654 0.951223 0.145371
Si Si5 0.667509 0.814815 0.240922
O O1 0.989788 0.500000 0.500000
O O2 0.926114 0.754141 0.407976
O O3 0.000000 0.641224 0.250000
O O4 0.041593 0.789919 0.473099
O O5 0.127621 0.280477 0.669566
O O6 0.132454 0.540354 0.846790
O O7 0.184028 0.223725 0.884400
O O8 0.864261 0.303865 0.111113
O O9 0.871569 0.000000 0.000000
O O10 0.180158 0.113124 0.192000
O O11 0.270585 0.903441 0.248610
O O12 0.248759 0.000000 0.000000
#
# Coordination Sequence:
#
# PCOD9320636 Si02
#       5
#     8   8   8   8   8
#     4  10  23  44  69 103 139 189 245 301 358 432
#     4  11  24  46  68 104 144 181 243 297 356 427
#     4  11  22  44  75 101 140 191 241 289 357 439
#     4  12  27  43  70 110 141 186 240 299 358 431
#     4  12  25  47  75 102 145 193 235 294 369 435
#
# _framework density 23.300141
#
# number of rings (size 3 to 8) (size 9 to 14) (size 15 to 20)
#    0.000    0.800    4.000    4.200    2.800    0.800 
#    0.000    1.000    0.000    0.000    0.000    0.000 
#    0.000    0.000    0.000    0.000    0.000    0.000 
#
# Total GULP energy -111790.515496 kJ/mol
# GULP energy per Si atom -5589.525775 kJ/mol
# Density = 2.324711 g / cm^3
# Si number density = 23.300141 Si / 1000 Ang^3
#
#
#
# Elastic Constant Matrix: (Units=GPa)
#
#
# Indices 1 2 3 4 5 6 
#
# 1 85.6649 6.5055 14.0492 0.0000 0.0000 0.0000
# 2 6.5055 103.3442 18.5734 0.0000 0.0000 0.0000
# 3 14.0492 18.5734 58.6843 0.0000 0.0000 0.0000
# 4 0.0000 0.0000 0.0000 25.8249 0.0000 0.0000
# 5 0.0000 0.0000 0.0000 0.0000 33.2469 0.0000
# 6 0.0000 0.0000 0.0000 0.0000 0.0000 1.4521
#
#
#
# Elastic Compliance Matrix: (Units=1/GPa)
#
#
# Indices 1 2 3 4 5 6 
#
# 1 0.012157 -0.000257 -0.002829 0.000000 0.000000 0.000000
# 2 -0.000257 0.010265 -0.003187 0.000000 0.000000 0.000000
# 3 -0.002829 -0.003187 0.018726 0.000000 0.000000 0.000000
# 4 0.000000 0.000000 0.000000 0.038722 0.000000 0.000000
# 5 0.000000 0.000000 0.000000 0.000000 0.030078 0.000000
# 6 0.000000 0.000000 0.000000 0.000000 0.000000 0.688672
#
#
# Mechanical properties :
#
#
# Convention : Reuss Voigt Hill
#
# Bulk Modulus (GPa) = 34.96267 36.21661 35.58964
# Shear Modulus (GPa) = 6.09235 26.00912 16.05073
#
# Velocity S-wave (km/s) = 1.61877 3.34468 2.62748
# Velocity P-wave (km/s) = 4.30486 5.52206 4.95100
#
# Compressibility (1/GPa) = 0.02860193
#
# Stress axis : x y z
#
# Youngs Moduli (GPa) = 82.25793 97.41426 53.40042
#
# Poissons Ratio (x) = 0.02502 0.15108
# Poissons Ratio (y) = 0.02112 0.17021
# Poissons Ratio (z) = 0.23272 0.31051
#
# Static dielectric constant tensor:
#      x y z
#    x 1.892630 0.000000 0.000000 
#    y 0.000000 1.833570 0.000000 
#    z 0.000000 0.000000 1.982810 
# 
# From -- ./inp_files/10515.got.cif
#   From: 2010.05.17/outbox.cif.g08.bks.cpg/sg20_6_cif.got.tgz:10515.got - 2010.06.03 22:52:26.
