data_PCOD9320512
_publ_section_title
;
Structure prediction by ZEFSAII (Michael W. Deem and Ramdas Pophale) SiO2 
 PCOD9320512
Probable space group: C 2 2 21
;
_chemical_formula_sum "Si O2"
_cell_formula_units_Z 64
_cell_length_a 18.259352
_cell_length_b 11.915396
_cell_length_c 15.271598
_cell_angle_alpha 90.000000
_cell_angle_beta 90.000000
_cell_angle_gamma 90.000000
_cell_volume 3322.602020
_symmetry_space_group_name_H-M "C 2 2 21"
_symmetry_group_IT_number 20
_symmetry_cell_setting 'orthorhombic'
loop_
_space_group_symop_operation_xyz
x,y,z
-x,-y,1/2+z
x,-y,-z
-x,y,1/2-z
1/2+x,1/2+y,z
1/2-x,1/2-y,1/2+z
1/2+x,1/2-y,-z
1/2-x,1/2+y,1/2-z
loop_
_atom_site_type_symbol
_atom_site_label
_atom_site_fract_x
_atom_site_fract_y
_atom_site_fract_z
Si Si1 0.935753 0.677833 0.581528
Si Si2 0.165792 0.883795 0.629740
Si Si3 0.351361 0.829466 0.236447
Si Si4 0.297787 0.360499 0.172012
Si Si5 0.553599 0.764225 0.667651
Si Si6 0.071830 0.514079 0.594379
Si Si7 0.025202 0.873057 0.509130
Si Si8 0.288586 0.135068 0.496515
O O1 0.897221 0.657811 0.674516
O O2 0.871677 0.673430 0.508863
O O3 0.997654 0.583101 0.573504
O O4 0.975871 0.796489 0.571868
O O5 0.141956 0.798188 0.704183
O O6 0.105861 0.879542 0.552392
O O7 0.242810 0.839663 0.590239
O O8 0.174444 0.011732 0.660285
O O9 0.267316 0.856446 0.258191
O O10 0.382820 0.910586 0.162007
O O11 0.365318 0.279573 0.191546
O O12 0.259088 0.326142 0.080090
O O13 0.500000 0.752045 0.750000
O O14 0.556202 0.893147 0.636144
O O15 0.529620 0.688962 0.584273
O O16 0.110090 0.500000 0.500000
O O17 0.998124 0.000000 0.500000
O O18 0.290468 0.000000 0.500000
#
# Coordination Sequence:
#
# PCOD9320512 Si02
#       8
#     8   8   8   8   8   8   8   8
#     4  11  23  42  66  99 135 169 225 281 331 395
#     4  11  20  42  69  88 127 186 222 265 329 407
#     4  11  25  41  67 101 134 175 227 280 331 406
#     4  10  23  42  63  94 128 172 220 268 330 392
#     4  12  25  41  69 101 137 169 224 289 334 395
#     4  12  24  44  70  99 133 178 223 279 349 396
#     4  12  23  43  69  94 132 186 225 260 339 414
#     4   9  19  38  66  88 117 168 222 264 318 394
#
# _framework density 19.262011000000001
#
# number of rings (size 3 to 8) (size 9 to 14) (size 15 to 20)
#    0.000    1.000    5.000    1.875    1.750    2.000 
#    0.000    0.000    0.000    0.000    0.000    0.000 
#    0.000    0.000    0.000    0.000    0.000    0.000 
#
# Total GULP energy -178794.401248 kJ/mol
# GULP energy per Si atom -5587.325039 kJ/mol
# Density = 1.921817 g / cm^3
# Si number density = 19.262011 Si / 1000 Ang^3
#
#
#
# Elastic Constant Matrix: (Units=GPa)
#
#
# Indices 1 2 3 4 5 6 
#
# 1 110.1773 46.4338 31.5798 0.0000 0.0000 0.0000
# 2 46.4338 114.1626 23.8982 0.0000 0.0000 0.0000
# 3 31.5798 23.8982 61.9309 0.0000 0.0000 0.0000
# 4 0.0000 0.0000 0.0000 27.5467 0.0000 0.0000
# 5 0.0000 0.0000 0.0000 0.0000 13.7792 0.0000
# 6 0.0000 0.0000 0.0000 0.0000 0.0000 21.2283
#
#
#
# Elastic Compliance Matrix: (Units=1/GPa)
#
#
# Indices 1 2 3 4 5 6 
#
# 1 0.012063 -0.003937 -0.004632 0.000000 0.000000 0.000000
# 2 -0.003937 0.010814 -0.002165 0.000000 0.000000 0.000000
# 3 -0.004632 -0.002165 0.019345 0.000000 0.000000 0.000000
# 4 0.000000 0.000000 0.000000 0.036302 0.000000 0.000000
# 5 0.000000 0.000000 0.000000 0.000000 0.072573 0.000000
# 6 0.000000 0.000000 0.000000 0.000000 0.000000 0.047107
#
#
# Mechanical properties :
#
#
# Convention : Reuss Voigt Hill
#
# Bulk Modulus (GPa) = 48.18579 54.45491 51.32035
# Shear Modulus (GPa) = 22.06627 24.80144 23.43385
#
# Velocity S-wave (km/s) = 3.38832 3.59218 3.49174
# Velocity P-wave (km/s) = 6.35436 6.74811 6.55419
#
# Compressibility (1/GPa) = 0.02075300
#
# Stress axis : x y z
#
# Youngs Moduli (GPa) = 82.89729 92.47275 51.69390
#
# Poissons Ratio (x) = 0.36405 0.23945
# Poissons Ratio (y) = 0.32635 0.11194
# Poissons Ratio (z) = 0.38398 0.20025
#
# Static dielectric constant tensor:
#      x y z
#    x 1.688670 0.000000 0.000000 
#    y 0.000000 1.637160 0.000000 
#    z 0.000000 0.000000 1.679180 
# 
# From -- ./inp_files/21495.got.cif
#   From: 2010.05.17/outbox.cif.g08.bks.cpg/sg20_11_cif.got.tgz:21495.got - 2010.06.03 22:52:26.
