data_PCOD9320212
_publ_section_title
;
Structure prediction by ZEFSAII (Michael W. Deem and Ramdas Pophale) SiO2 
 PCOD9320212
Probable space group: C 2 2 21
;
_chemical_formula_sum "Si O2"
_cell_formula_units_Z 52
_cell_length_a 9.348510
_cell_length_b 11.928340
_cell_length_c 18.511178
_cell_angle_alpha 90.000000
_cell_angle_beta 90.000000
_cell_angle_gamma 90.000000
_cell_volume 2064.222290
_symmetry_space_group_name_H-M "C 2 2 21"
_symmetry_group_IT_number 20
_symmetry_cell_setting 'orthorhombic'
loop_
_space_group_symop_operation_xyz
x,y,z
-x,-y,1/2+z
x,-y,-z
-x,y,1/2-z
1/2+x,1/2+y,z
1/2-x,1/2-y,1/2+z
1/2+x,1/2-y,-z
1/2-x,1/2+y,1/2-z
loop_
_atom_site_type_symbol
_atom_site_label
_atom_site_fract_x
_atom_site_fract_y
_atom_site_fract_z
Si Si1 0.685149 0.146110 0.618539
Si Si2 0.000000 0.036602 0.250000
Si Si3 0.708303 0.172851 0.230356
Si Si4 0.585723 0.671456 0.489060
Si Si5 0.343618 0.000000 0.500000
Si Si6 0.922350 0.538394 0.654922
Si Si7 0.152797 0.000000 0.000000
Si Si8 0.620219 0.660532 0.654121
O O1 0.773981 0.231102 0.668863
O O2 0.597770 0.224549 0.563087
O O3 0.764685 0.058334 0.566367
O O4 0.574871 0.089064 0.674140
O O5 0.861474 0.117699 0.254071
O O6 0.033010 0.947183 0.314861
O O7 0.624986 0.070379 0.196254
O O8 0.627064 0.232023 0.295548
O O9 0.733573 0.601777 0.484561
O O10 0.452950 0.594198 0.467590
O O11 0.571058 0.693337 0.574221
O O12 0.437980 0.010103 0.570227
O O13 0.785967 0.620458 0.654860
#
# Coordination Sequence:
#
# PCOD9320212 Si02
#       8
#     8   4   8   8   4   8   4   8
#     4  12  26  45  75 109 142 194 246 309 375 438
#     4  10  24  46  70 104 148 192 238 304 356 454
#     4  11  24  47  76 105 150 198 242 304 373 441
#     4  10  24  45  73 103 145 193 245 306 372 437
#     4   9  17  42  70 100 135 179 234 296 362 431
#     4  10  22  43  74 107 144 185 243 306 364 441
#     4  11  29  44  70 112 143 185 250 306 366 453
#     4  10  24  45  74 108 146 201 248 298 377 446
#
# _framework density 25.191085999999999
#
# number of rings (size 3 to 8) (size 9 to 14) (size 15 to 20)
#    0.000    1.538    1.538    1.385    8.615    2.462 
#    2.769    0.000    3.385    0.000    0.000    0.000 
#    0.000    0.000    0.000    0.000    0.000    0.000 
#
# Total GULP energy -145763.116116 kJ/mol
# GULP energy per Si atom -5606.273697 kJ/mol
# Density = 2.513375 g / cm^3
# Si number density = 25.191086 Si / 1000 Ang^3
#
#
#
# Elastic Constant Matrix: (Units=GPa)
#
#
# Indices 1 2 3 4 5 6 
#
# 1 107.4090 64.7965 28.8923 0.0000 0.0000 0.0000
# 2 64.7965 134.3680 50.5977 0.0000 0.0000 0.0000
# 3 28.8923 50.5977 81.4651 0.0000 0.0000 0.0000
# 4 0.0000 0.0000 0.0000 35.7579 0.0000 0.0000
# 5 0.0000 0.0000 0.0000 0.0000 69.7374 0.0000
# 6 0.0000 0.0000 0.0000 0.0000 0.0000 31.3171
#
#
#
# Elastic Compliance Matrix: (Units=1/GPa)
#
#
# Indices 1 2 3 4 5 6 
#
# 1 0.013186 -0.006001 -0.000949 0.000000 0.000000 0.000000
# 2 -0.006001 0.012446 -0.005601 0.000000 0.000000 0.000000
# 3 -0.000949 -0.005601 0.016091 0.000000 0.000000 0.000000
# 4 0.000000 0.000000 0.000000 0.027966 0.000000 0.000000
# 5 0.000000 0.000000 0.000000 0.000000 0.014340 0.000000
# 6 0.000000 0.000000 0.000000 0.000000 0.000000 0.031931
#
#
# Mechanical properties :
#
#
# Convention : Reuss Voigt Hill
#
# Bulk Modulus (GPa) = 60.17367 67.97946 64.07657
# Shear Modulus (GPa) = 34.10585 39.29284 36.69935
#
# Velocity S-wave (km/s) = 3.68351 3.95370 3.82100
# Velocity P-wave (km/s) = 6.48304 6.92001 6.70508
#
# Compressibility (1/GPa) = 0.01661856
#
# Stress axis : x y z
#
# Youngs Moduli (GPa) = 75.83872 80.35006 62.14697
#
# Poissons Ratio (x) = 0.48220 0.05899
# Poissons Ratio (y) = 0.45513 0.34812
# Poissons Ratio (z) = 0.07198 0.45008
#
# Static dielectric constant tensor:
#      x y z
#    x 2.051000 0.000000 0.000000 
#    y 0.000000 1.954790 0.000000 
#    z 0.000000 0.000000 1.949500 
# 
# From -- ./inp_files/30143.got.cif
#   From: 2010.05.17/outbox.cif.g08.bks.cpg/sg20_16_cif.got.tgz:30143.got - 2010.06.03 22:52:26.
