data_PCOD9320157
_publ_section_title
;
Structure prediction by ZEFSAII (Michael W. Deem and Ramdas Pophale) SiO2 
 PCOD9320157
Probable space group: C 2 2 21
;
_chemical_formula_sum "Si O2"
_cell_formula_units_Z 48
_cell_length_a 28.392449
_cell_length_b 10.314436
_cell_length_c 8.348476
_cell_angle_alpha 90.000000
_cell_angle_beta 90.000000
_cell_angle_gamma 90.000000
_cell_volume 2444.868712
_symmetry_space_group_name_H-M "C 2 2 21"
_symmetry_group_IT_number 20
_symmetry_cell_setting 'orthorhombic'
loop_
_space_group_symop_operation_xyz
x,y,z
-x,-y,1/2+z
x,-y,-z
-x,y,1/2-z
1/2+x,1/2+y,z
1/2-x,1/2-y,1/2+z
1/2+x,1/2-y,-z
1/2-x,1/2+y,1/2-z
loop_
_atom_site_type_symbol
_atom_site_label
_atom_site_fract_x
_atom_site_fract_y
_atom_site_fract_z
Si Si1 0.855757 0.530672 0.812878
Si Si2 0.707797 0.738389 0.189285
Si Si3 0.546364 0.600482 0.143844
Si Si4 0.355804 0.501700 0.305126
Si Si5 0.813084 0.267355 0.688664
Si Si6 0.547231 0.102879 0.856776
O O1 0.818064 0.643661 0.778099
O O2 0.839289 0.401088 0.722322
O O3 0.906534 0.573314 0.747690
O O4 0.857679 0.500000 0.000000
O O5 0.684209 0.603343 0.244391
O O6 0.763040 0.735945 0.222459
O O7 0.697255 0.753948 0.000536
O O8 0.500000 0.596975 0.250000
O O9 0.593086 0.556542 0.239832
O O10 0.552628 0.748313 0.084399
O O11 0.540879 0.500000 0.000000
O O12 0.356041 0.500000 0.500000
O O13 0.343714 0.356178 0.255513
O O14 0.500000 0.094571 0.750000
O O15 0.544658 0.000000 0.000000
#
# Coordination Sequence:
#
# PCOD9320157 Si02
#       6
#     8   8   8   8   8   8
#     4  12  25  42  62  94 131 174 220 267 318 382
#     4  11  21  41  64  93 130 167 215 266 324 382
#     4  10  22  43  66  95 126 164 206 257 315 383
#     4   9  20  39  62  89 122 164 204 256 317 377
#     4  11  23  39  66  94 127 171 213 266 326 386
#     4  11  24  44  69  97 130 166 212 268 326 392
#
# _framework density 19.632954999999999
#
# number of rings (size 3 to 8) (size 9 to 14) (size 15 to 20)
#    0.000    1.333    1.667    4.000    4.667    2.000 
#    6.000    2.500    0.000    0.000    0.000    0.000 
#    0.000    0.000    0.000    0.000    0.000    0.000 
#
# Total GULP energy -134186.498488 kJ/mol
# GULP energy per Si atom -5591.104104 kJ/mol
# Density = 1.958827 g / cm^3
# Si number density = 19.632955 Si / 1000 Ang^3
#
#
#
# Elastic Constant Matrix: (Units=GPa)
#
#
# Indices 1 2 3 4 5 6 
#
# 1 118.6521 56.4595 4.5880 0.0000 0.0000 0.0000
# 2 56.4595 158.9408 28.5645 0.0000 0.0000 0.0000
# 3 4.5880 28.5645 56.3382 0.0000 0.0000 0.0000
# 4 0.0000 0.0000 0.0000 16.9806 0.0000 0.0000
# 5 0.0000 0.0000 0.0000 0.0000 21.3390 0.0000
# 6 0.0000 0.0000 0.0000 0.0000 0.0000 36.0214
#
#
#
# Elastic Compliance Matrix: (Units=1/GPa)
#
#
# Indices 1 2 3 4 5 6 
#
# 1 0.010205 -0.003824 0.001108 0.000000 0.000000 0.000000
# 2 -0.003824 0.008355 -0.003925 0.000000 0.000000 0.000000
# 3 0.001108 -0.003925 0.019650 0.000000 0.000000 0.000000
# 4 0.000000 0.000000 0.000000 0.058891 0.000000 0.000000
# 5 0.000000 0.000000 0.000000 0.000000 0.046863 0.000000
# 6 0.000000 0.000000 0.000000 0.000000 0.000000 0.027761
#
#
# Mechanical properties :
#
#
# Convention : Reuss Voigt Hill
#
# Bulk Modulus (GPa) = 40.11615 57.01725 48.56670
# Shear Modulus (GPa) = 25.86437 31.15614 28.51025
#
# Velocity S-wave (km/s) = 3.63353 3.98795 3.81486
# Velocity P-wave (km/s) = 6.17097 7.09293 6.64795
#
# Compressibility (1/GPa) = 0.02492762
#
# Stress axis : x y z
#
# Youngs Moduli (GPa) = 97.99290 119.68248 50.89121
#
# Poissons Ratio (x) = 0.45768 -0.05638
# Poissons Ratio (y) = 0.37473 0.19975
# Poissons Ratio (z) = -0.10856 0.46975
#
# Static dielectric constant tensor:
#      x y z
#    x 1.675670 0.000000 0.000000 
#    y 0.000000 1.680440 0.000000 
#    z 0.000000 0.000000 1.667400 
# 
# From -- ./inp_files/11435.got.cif
#   From: 2010.05.17/outbox.cif.g08.bks.cpg/sg20_6_cif.got.tgz:11435.got - 2010.06.03 22:52:26.
