data_PCOD9320725
_publ_section_title
;
Structure prediction by ZEFSAII (Michael W. Deem and Ramdas Pophale) SiO2 
 PCOD9320725
Probable space group: C 2 2 21
;
_chemical_formula_sum "Si O2"
_cell_formula_units_Z 48
_cell_length_a 26.639053
_cell_length_b 9.474405
_cell_length_c 9.087505
_cell_angle_alpha 90.000000
_cell_angle_beta 90.000000
_cell_angle_gamma 90.000000
_cell_volume 2293.587907
_symmetry_space_group_name_H-M "C 2 2 21"
_symmetry_group_IT_number 20
_symmetry_cell_setting 'orthorhombic'
loop_
_space_group_symop_operation_xyz
x,y,z
-x,-y,1/2+z
x,-y,-z
-x,y,1/2-z
1/2+x,1/2+y,z
1/2-x,1/2-y,1/2+z
1/2+x,1/2-y,-z
1/2-x,1/2+y,1/2-z
loop_
_atom_site_type_symbol
_atom_site_label
_atom_site_fract_x
_atom_site_fract_y
_atom_site_fract_z
Si Si1 0.697919 0.341431 0.223204
Si Si2 0.463873 0.377590 0.891692
Si Si3 0.491250 0.848088 0.574386
Si Si4 0.208547 0.340378 0.493952
Si Si5 0.891185 0.169928 0.514978
Si Si6 0.352029 0.632051 0.206691
O O1 0.714996 0.233708 0.348530
O O2 0.645432 0.297308 0.149832
O O3 0.685301 0.498673 0.281901
O O4 0.739624 0.347324 0.096767
O O5 0.500000 0.365519 0.750000
O O6 0.407710 0.414862 0.842035
O O7 0.482184 0.500000 0.000000
O O8 0.465012 0.234956 0.987178
O O9 0.500000 0.854786 0.750000
O O10 0.442144 0.754237 0.537782
O O11 0.485334 0.000000 0.500000
O O12 0.189427 0.500000 0.500000
O O13 0.170356 0.242090 0.406187
O O14 0.861691 0.204126 0.364703
O O15 0.898608 0.000000 0.500000
#
# Coordination Sequence:
#
# PCOD9320725 Si02
#       6
#     8   8   8   8   8   8
#     4  11  24  46  69 105 136 187 234 300 349 429
#     4  12  25  44  72 107 139 192 249 300 354 429
#     4  12  28  45  69 100 149 191 235 301 373 435
#     4  12  25  43  71 103 141 184 230 290 365 425
#     4  10  23  46  72  99 133 185 240 293 349 419
#     4  11  25  45  73 102 144 180 242 298 351 435
#
# _framework density 20.927907999999999
#
# number of rings (size 3 to 8) (size 9 to 14) (size 15 to 20)
#    0.000    0.667    1.667    6.500    9.333    2.000 
#    0.000    3.333    0.000    0.000    0.000    0.000 
#    0.000    0.000    0.000    0.000    0.000    0.000 
#
# Total GULP energy -134286.221870 kJ/mol
# GULP energy per Si atom -5595.259245 kJ/mol
# Density = 2.088028 g / cm^3
# Si number density = 20.927908 Si / 1000 Ang^3
#
#
#
# Elastic Constant Matrix: (Units=GPa)
#
#
# Indices 1 2 3 4 5 6 
#
# 1 70.0241 25.4088 26.0236 0.0000 0.0000 0.0000
# 2 25.4088 85.0515 65.0021 0.0000 0.0000 0.0000
# 3 26.0236 65.0021 144.5701 0.0000 0.0000 0.0000
# 4 0.0000 0.0000 0.0000 39.1806 0.0000 0.0000
# 5 0.0000 0.0000 0.0000 0.0000 30.0682 0.0000
# 6 0.0000 0.0000 0.0000 0.0000 0.0000 18.7646
#
#
#
# Elastic Compliance Matrix: (Units=1/GPa)
#
#
# Indices 1 2 3 4 5 6 
#
# 1 0.016136 -0.003962 -0.001123 0.000000 0.000000 0.000000
# 2 -0.003962 0.018886 -0.007778 0.000000 0.000000 0.000000
# 3 -0.001123 -0.007778 0.010617 0.000000 0.000000 0.000000
# 4 0.000000 0.000000 0.000000 0.025523 0.000000 0.000000
# 5 0.000000 0.000000 0.000000 0.000000 0.033258 0.000000
# 6 0.000000 0.000000 0.000000 0.000000 0.000000 0.053292
#
#
# Mechanical properties :
#
#
# Convention : Reuss Voigt Hill
#
# Bulk Modulus (GPa) = 50.22304 59.16829 54.69567
# Shear Modulus (GPa) = 26.30537 29.81676 28.06106
#
# Velocity S-wave (km/s) = 3.54920 3.77866 3.66573
# Velocity P-wave (km/s) = 6.39108 6.88270 6.64144
#
# Compressibility (1/GPa) = 0.01991118
#
# Stress axis : x y z
#
# Youngs Moduli (GPa) = 61.97371 52.94909 94.19237
#
# Poissons Ratio (x) = 0.20980 0.10578
# Poissons Ratio (y) = 0.24555 0.73267
# Poissons Ratio (z) = 0.06960 0.41186
#
# Static dielectric constant tensor:
#      x y z
#    x 1.747950 0.000000 0.000000 
#    y 0.000000 1.738650 0.000000 
#    z 0.000000 0.000000 1.788430 
# 
# From -- ./inp_files/11477.got.cif
#   From: 2010.05.17/outbox.cif.g08.bks.cpg/sg20_6_cif.got.tgz:11477.got - 2010.06.03 22:52:26.
