data_PCOD9320140
_publ_section_title
;
Structure prediction by ZEFSAII (Michael W. Deem and Ramdas Pophale) SiO2 
 PCOD9320140
Probable space group: C 2 2 21
;
_chemical_formula_sum "Si O2"
_cell_formula_units_Z 32
_cell_length_a 4.917919
_cell_length_b 23.200386
_cell_length_c 10.815875
_cell_angle_alpha 90.000000
_cell_angle_beta 90.000000
_cell_angle_gamma 90.000000
_cell_volume 1234.065586
_symmetry_space_group_name_H-M "C 2 2 21"
_symmetry_group_IT_number 20
_symmetry_cell_setting 'orthorhombic'
loop_
_space_group_symop_operation_xyz
x,y,z
-x,-y,1/2+z
x,-y,-z
-x,y,1/2-z
1/2+x,1/2+y,z
1/2-x,1/2-y,1/2+z
1/2+x,1/2-y,-z
1/2-x,1/2+y,1/2-z
loop_
_atom_site_type_symbol
_atom_site_label
_atom_site_fract_x
_atom_site_fract_y
_atom_site_fract_z
Si Si1 0.500000 0.035779 0.750000
Si Si2 0.725353 0.500000 0.500000
Si Si3 0.031937 0.876307 0.988271
Si Si4 0.000000 0.881519 0.250000
Si Si5 0.000000 0.811492 0.750000
Si Si6 0.894111 0.280275 0.942935
O O1 0.403532 0.002893 0.626164
O O2 0.748369 0.077579 0.716884
O O3 0.537861 0.556657 0.491819
O O4 0.929530 0.851744 0.120745
O O5 0.903038 0.852562 0.861371
O O6 0.334390 0.848042 0.976132
O O7 0.242846 0.775911 0.811037
O O8 0.687608 0.245323 0.033213
#
# Coordination Sequence:
#
# PCOD9320140 Si02
#       6
#     4   4   8   4   4   8
#     4  10  24  40  65  97 138 190 220 278 342 404
#     4  10  22  44  68 106 142 184 232 290 344 424
#     4   9  22  43  68 105 136 184 228 285 350 413
#     4  10  22  43  62  99 140 175 227 276 348 400
#     4   8  22  45  69 106 126 191 221 286 344 416
#     4  10  23  45  68 100 136 176 233 288 339 407
#
# _framework density 25.93055
#
# number of rings (size 3 to 8) (size 9 to 14) (size 15 to 20)
#    1.500    1.000    0.000    0.000    0.000   17.000 
#    4.500    1.250    0.000    0.000    0.000    0.000 
#    0.000    0.000    0.000    0.000    0.000    0.000 
#
# Total GULP energy -89266.697907 kJ/mol
# GULP energy per Si atom -5579.168619 kJ/mol
# Density = 2.587153 g / cm^3
# Si number density = 25.930550 Si / 1000 Ang^3
#
#
#
# Elastic Constant Matrix: (Units=GPa)
#
#
# Indices 1 2 3 4 5 6 
#
# 1 115.2556 45.4142 18.9962 0.0000 0.0000 0.0000
# 2 45.4142 132.1936 51.7808 0.0000 0.0000 0.0000
# 3 18.9962 51.7808 224.5112 0.0000 0.0000 0.0000
# 4 0.0000 0.0000 0.0000 27.7978 0.0000 0.0000
# 5 0.0000 0.0000 0.0000 0.0000 45.8644 0.0000
# 6 0.0000 0.0000 0.0000 0.0000 0.0000 -7.3828
#
#
#
# Elastic Compliance Matrix: (Units=1/GPa)
#
#
# Indices 1 2 3 4 5 6 
#
# 1 0.010035 -0.003424 -0.000059 0.000000 0.000000 0.000000
# 2 -0.003424 0.009484 -0.001898 0.000000 0.000000 0.000000
# 3 -0.000059 -0.001898 0.004897 0.000000 0.000000 0.000000
# 4 0.000000 0.000000 0.000000 0.035974 0.000000 0.000000
# 5 0.000000 0.000000 0.000000 0.000000 0.021803 0.000000
# 6 0.000000 0.000000 0.000000 0.000000 0.000000 -0.135450
#
#
# Mechanical properties :
#
#
# Convention : Reuss Voigt Hill
#
# Bulk Modulus (GPa) = 73.23937 78.26032 75.74984
# Shear Modulus (GPa) = -131.78162 36.97382 -47.40390
#
# Velocity S-wave (km/s) = -7.13662 3.78018 -4.28028
# Velocity P-wave (km/s) = 6.29307 7.02134 2.20188
#
# Compressibility (1/GPa) = 0.01365386
#
# Stress axis : x y z
#
# Youngs Moduli (GPa) = 99.64673 105.43594 204.21380
#
# Poissons Ratio (x) = 0.36105 0.01211
# Poissons Ratio (y) = 0.34123 0.38754
# Poissons Ratio (z) = 0.00591 0.20009
#
# Static dielectric constant tensor:
#      x y z
#    x 2.160760 0.000000 0.000000 
#    y 0.000000 2.046340 0.000000 
#    z 0.000000 0.000000 2.168940 
# 
# From -- ./inp_files/11982.got.cif
#   From: 2010.05.17/outbox.cif.g08.bks.cpg/sg20_6_cif.got.tgz:11982.got - 2010.06.03 22:52:26.
