data_PCOD9320239
_publ_section_title
;
Structure prediction by ZEFSAII (Michael W. Deem and Ramdas Pophale) SiO2 
 PCOD9320239
Probable space group: C 2 2 21
;
_chemical_formula_sum "Si O2"
_cell_formula_units_Z 32
_cell_length_a 28.432222
_cell_length_b 8.908699
_cell_length_c 4.878556
_cell_angle_alpha 90.000000
_cell_angle_beta 90.000000
_cell_angle_gamma 90.000000
_cell_volume 1235.709489
_symmetry_space_group_name_H-M "C 2 2 21"
_symmetry_group_IT_number 20
_symmetry_cell_setting 'orthorhombic'
loop_
_space_group_symop_operation_xyz
x,y,z
-x,-y,1/2+z
x,-y,-z
-x,y,1/2-z
1/2+x,1/2+y,z
1/2-x,1/2-y,1/2+z
1/2+x,1/2-y,-z
1/2-x,1/2+y,1/2-z
loop_
_atom_site_type_symbol
_atom_site_label
_atom_site_fract_x
_atom_site_fract_y
_atom_site_fract_z
Si Si1 0.533191 0.000000 0.500000
Si Si2 0.842159 0.500000 0.000000
Si Si3 0.500000 0.604658 0.250000
Si Si4 0.591357 0.238345 0.682603
Si Si5 0.781125 0.756210 0.286363
Si Si6 0.340963 0.500000 0.000000
O O1 0.562830 0.848974 0.559946
O O2 0.500000 0.029489 0.750000
O O3 0.873046 0.597987 0.780107
O O4 0.811319 0.382277 0.828561
O O5 0.515836 0.500000 0.500000
O O6 0.453426 0.696142 0.345259
O O7 0.625160 0.376810 0.633033
O O8 0.766137 0.742824 0.600330
O O9 0.808890 0.907691 0.211973
#
# Coordination Sequence:
#
# PCOD9320239 Si02
#       6
#     4   4   4   8   8   4
#     4  11  24  42  66  93 132 182 229 274 336 398
#     4   9  22  44  68 104 140 174 232 286 342 410
#     4  12  26  46  70 100 140 192 236 282 344 406
#     4  10  22  44  67 100 137 180 228 286 336 401
#     4  11  23  45  71  99 135 178 222 280 353 419
#     4  10  22  44  68 103 134 176 227 288 336 410
#
# _framework density 25.896052999999998
#
# number of rings (size 3 to 8) (size 9 to 14) (size 15 to 20)
#    0.000    1.500    2.500    1.500    1.750    0.000 
#    9.000   20.000    0.000    0.000    0.000    0.000 
#    0.000    0.000    0.000    0.000    0.000    0.000 
#
# Total GULP energy -89331.277444 kJ/mol
# GULP energy per Si atom -5583.204840 kJ/mol
# Density = 2.583711 g / cm^3
# Si number density = 25.896053 Si / 1000 Ang^3
#
#
#
# Elastic Constant Matrix: (Units=GPa)
#
#
# Indices 1 2 3 4 5 6 
#
# 1 142.2572 68.8058 17.2209 0.0000 0.0000 0.0000
# 2 68.8058 186.4557 22.7002 0.0000 0.0000 0.0000
# 3 17.2209 22.7002 71.0259 0.0000 0.0000 0.0000
# 4 0.0000 0.0000 0.0000 21.2881 0.0000 0.0000
# 5 0.0000 0.0000 0.0000 0.0000 9.2974 0.0000
# 6 0.0000 0.0000 0.0000 0.0000 0.0000 20.2954
#
#
#
# Elastic Compliance Matrix: (Units=1/GPa)
#
#
# Indices 1 2 3 4 5 6 
#
# 1 0.008642 -0.003053 -0.001120 0.000000 0.000000 0.000000
# 2 -0.003053 0.006659 -0.001388 0.000000 0.000000 0.000000
# 3 -0.001120 -0.001388 0.014794 0.000000 0.000000 0.000000
# 4 0.000000 0.000000 0.000000 0.046975 0.000000 0.000000
# 5 0.000000 0.000000 0.000000 0.000000 0.107557 0.000000
# 6 0.000000 0.000000 0.000000 0.000000 0.000000 0.049272
#
#
# Mechanical properties :
#
#
# Convention : Reuss Voigt Hill
#
# Bulk Modulus (GPa) = 52.70304 68.57693 60.63998
# Shear Modulus (GPa) = 19.89307 29.57698 24.73502
#
# Velocity S-wave (km/s) = 2.77463 3.38323 3.09393
# Velocity P-wave (km/s) = 5.53721 6.46535 6.01920
#
# Compressibility (1/GPa) = 0.01897424
#
# Stress axis : x y z
#
# Youngs Moduli (GPa) = 115.72064 150.18058 67.59295
#
# Poissons Ratio (x) = 0.45844 0.07568
# Poissons Ratio (y) = 0.35325 0.09382
# Poissons Ratio (z) = 0.12956 0.20845
#
# Static dielectric constant tensor:
#      x y z
#    x 2.100560 0.000000 0.000000 
#    y 0.000000 2.078350 0.000000 
#    z 0.000000 0.000000 1.975280 
# 
# From -- ./inp_files/640.got.cif
#   From: 2010.05.17/outbox.cif.g08.bks.cpg/sg20_1_cif.got.tgz:640.got - 2010.06.03 22:52:26.
