data_PCOD9320738
_publ_section_title
;
Structure prediction by ZEFSAII (Michael W. Deem and Ramdas Pophale) SiO2 
 PCOD9320738
Probable space group: C 2 2 21
;
_chemical_formula_sum "Si O2"
_cell_formula_units_Z 48
_cell_length_a 13.849828
_cell_length_b 14.510156
_cell_length_c 9.051332
_cell_angle_alpha 90.000000
_cell_angle_beta 90.000000
_cell_angle_gamma 90.000000
_cell_volume 1818.984325
_symmetry_space_group_name_H-M "C 2 2 21"
_symmetry_group_IT_number 20
_symmetry_cell_setting 'orthorhombic'
loop_
_space_group_symop_operation_xyz
x,y,z
-x,-y,1/2+z
x,-y,-z
-x,y,1/2-z
1/2+x,1/2+y,z
1/2-x,1/2-y,1/2+z
1/2+x,1/2-y,-z
1/2-x,1/2+y,1/2-z
loop_
_atom_site_type_symbol
_atom_site_label
_atom_site_fract_x
_atom_site_fract_y
_atom_site_fract_z
Si Si1 0.963975 0.742490 0.918007
Si Si2 0.250549 0.875589 0.244906
Si Si3 0.237312 0.500000 0.000000
Si Si4 0.203840 0.301054 0.614012
Si Si5 0.445837 0.591535 0.595747
Si Si6 0.207351 0.500000 0.500000
Si Si7 0.924633 0.620234 0.353678
O O1 0.000000 0.740181 0.750000
O O2 0.997928 0.836841 0.993963
O O3 0.018301 0.661979 0.008676
O O4 0.850752 0.732655 0.964892
O O5 0.273858 0.779199 0.327048
O O6 0.158186 0.867005 0.138947
O O7 0.210521 0.941068 0.376836
O O8 0.324066 0.938195 0.146078
O O9 0.165586 0.568214 0.083099
O O10 0.237469 0.407039 0.595271
O O11 0.118699 0.306778 0.737201
O O12 0.429370 0.500000 0.500000
O O13 0.500000 0.573971 0.750000
O O14 0.000000 0.565351 0.250000
#
# Coordination Sequence:
#
# PCOD9320738 Si02
#       7
#     8   8   4   8   8   4   8
#     4  11  24  43  77 107 142 203 263 322 392 452
#     4  12  27  47  74 109 157 202 257 326 391 467
#     4  12  28  45  73 116 148 200 256 316 404 465
#     4  11  25  50  72 107 154 198 257 320 389 469
#     4  12  24  45  71 107 154 207 265 324 383 473
#     4  12  28  49  77 110 152 214 254 320 412 473
#     4  10  23  47  73  99 148 193 250 317 383 462
#
# _framework density 26.388355000000001
#
# number of rings (size 3 to 8) (size 9 to 14) (size 15 to 20)
#    0.000    0.667    5.833    1.000    5.833    4.667 
#    0.000    0.000    0.000    0.000    0.000    0.000 
#    0.000    0.000    0.000    0.000    0.000    0.000 
#
# Total GULP energy -133837.149958 kJ/mol
# GULP energy per Si atom -5576.547915 kJ/mol
# Density = 2.632829 g / cm^3
# Si number density = 26.388355 Si / 1000 Ang^3
#
#
#
# Elastic Constant Matrix: (Units=GPa)
#
#
# Indices 1 2 3 4 5 6 
#
# 1 69.7950 26.3947 23.9604 0.0000 0.0000 0.0000
# 2 26.3947 177.3504 72.4315 0.0000 0.0000 0.0000
# 3 23.9604 72.4315 207.6605 0.0000 0.0000 0.0000
# 4 0.0000 0.0000 0.0000 51.0048 0.0000 0.0000
# 5 0.0000 0.0000 0.0000 0.0000 36.2944 0.0000
# 6 0.0000 0.0000 0.0000 0.0000 0.0000 35.4541
#
#
#
# Elastic Compliance Matrix: (Units=1/GPa)
#
#
# Indices 1 2 3 4 5 6 
#
# 1 0.015410 -0.001828 -0.001141 0.000000 0.000000 0.000000
# 2 -0.001828 0.006792 -0.002158 0.000000 0.000000 0.000000
# 3 -0.001141 -0.002158 0.005700 0.000000 0.000000 0.000000
# 4 0.000000 0.000000 0.000000 0.019606 0.000000 0.000000
# 5 0.000000 0.000000 0.000000 0.000000 0.027552 0.000000
# 6 0.000000 0.000000 0.000000 0.000000 0.000000 0.028206
#
#
# Mechanical properties :
#
#
# Convention : Reuss Voigt Hill
#
# Bulk Modulus (GPa) = 56.65892 77.81989 67.23941
# Shear Modulus (GPa) = 41.87524 46.68527 44.28025
#
# Velocity S-wave (km/s) = 3.98789 4.21070 4.10081
# Velocity P-wave (km/s) = 6.53622 7.29344 6.92519
#
# Compressibility (1/GPa) = 0.01764947
#
# Stress axis : x y z
#
# Youngs Moduli (GPa) = 64.89116 147.23277 175.44133
#
# Poissons Ratio (x) = 0.26909 0.20011
# Poissons Ratio (y) = 0.11860 0.37863
# Poissons Ratio (z) = 0.07402 0.31775
#
# Static dielectric constant tensor:
#      x y z
#    x 2.179820 0.000000 0.000000 
#    y 0.000000 2.121700 0.000000 
#    z 0.000000 0.000000 2.117470 
# 
# From -- ./inp_files/8465.got.cif
#   From: 2010.05.17/outbox.cif.g08.bks.cpg/sg20_5_cif.got.tgz:8465.got - 2010.06.03 22:52:26.
