data_PCOD9320585
_publ_section_title
;
Structure prediction by ZEFSAII (Michael W. Deem and Ramdas Pophale) SiO2 
 PCOD9320585
Probable space group: C 2 2 21
;
_chemical_formula_sum "Si O2"
_cell_formula_units_Z 60
_cell_length_a 9.454438
_cell_length_b 24.335506
_cell_length_c 12.837305
_cell_angle_alpha 90.000000
_cell_angle_beta 90.000000
_cell_angle_gamma 90.000000
_cell_volume 2953.588298
_symmetry_space_group_name_H-M "C 2 2 21"
_symmetry_group_IT_number 20
_symmetry_cell_setting 'orthorhombic'
loop_
_space_group_symop_operation_xyz
x,y,z
-x,-y,1/2+z
x,-y,-z
-x,y,1/2-z
1/2+x,1/2+y,z
1/2-x,1/2-y,1/2+z
1/2+x,1/2-y,-z
1/2-x,1/2+y,1/2-z
loop_
_atom_site_type_symbol
_atom_site_label
_atom_site_fract_x
_atom_site_fract_y
_atom_site_fract_z
Si Si1 0.000000 0.460689 0.750000
Si Si2 0.767759 0.480987 0.387318
Si Si3 0.470266 0.659674 0.982138
Si Si4 0.824262 0.557707 0.054318
Si Si5 0.997982 0.058723 0.129708
Si Si6 0.269742 0.151220 0.890704
Si Si7 0.705972 0.146440 0.854644
Si Si8 0.479008 0.762352 0.127201
O O1 0.871731 0.495751 0.700905
O O2 0.925369 0.430187 0.847022
O O3 0.816576 0.500000 0.500000
O O4 0.608454 0.506201 0.374494
O O5 0.782638 0.416105 0.388802
O O6 0.438775 0.606959 0.055531
O O7 0.509189 0.709655 0.058194
O O8 0.604400 0.646330 0.911602
O O9 0.343971 0.673934 0.904575
O O10 0.660500 0.550507 0.093133
O O11 0.861949 0.500000 0.000000
O O12 0.833632 0.606285 0.969587
O O13 0.000000 0.076665 0.250000
O O14 0.301153 0.141513 0.769898
O O15 0.326328 0.213283 0.904555
O O16 0.578048 0.184624 0.890773
O O17 0.500000 0.749019 0.250000
#
# Coordination Sequence:
#
# PCOD9320585 Si02
#       8
#     4   8   8   8   8   8   8   8
#     4  12  26  40  64  92 144 180 218 276 334 424
#     4  12  25  42  65 100 136 178 224 271 336 412
#     4  11  22  42  68  94 128 171 222 284 330 395
#     4  11  24  41  64  92 134 176 220 274 336 404
#     4  11  23  42  64  97 132 174 224 274 338 406
#     4  10  24  41  65  96 129 171 223 273 337 396
#     4  11  24  40  67  98 131 173 223 279 333 402
#     4  10  23  43  67  93 127 174 221 274 341 400
#
# _framework density 20.314274000000001
#
# number of rings (size 3 to 8) (size 9 to 14) (size 15 to 20)
#    0.000    1.067    2.667    3.200    8.400    0.000 
#    0.000    0.000    5.867    0.000    0.000    0.000 
#    0.000    0.000    0.000    0.000    0.000    0.000 
#
# Total GULP energy -167483.250520 kJ/mol
# GULP energy per Si atom -5582.775017 kJ/mol
# Density = 2.026804 g / cm^3
# Si number density = 20.314274 Si / 1000 Ang^3
#
#
#
# Elastic Constant Matrix: (Units=GPa)
#
#
# Indices 1 2 3 4 5 6 
#
# 1 76.6470 10.5700 24.2360 0.0000 0.0000 0.0000
# 2 10.5700 71.5893 18.7372 0.0000 0.0000 0.0000
# 3 24.2360 18.7372 85.1802 0.0000 0.0000 0.0000
# 4 0.0000 0.0000 0.0000 25.4492 0.0000 0.0000
# 5 0.0000 0.0000 0.0000 0.0000 38.3856 0.0000
# 6 0.0000 0.0000 0.0000 0.0000 0.0000 25.3264
#
#
#
# Elastic Compliance Matrix: (Units=1/GPa)
#
#
# Indices 1 2 3 4 5 6 
#
# 1 0.014421 -0.001120 -0.003857 0.000000 0.000000 0.000000
# 2 -0.001120 0.014909 -0.002961 0.000000 0.000000 0.000000
# 3 -0.003857 -0.002961 0.013488 0.000000 0.000000 0.000000
# 4 0.000000 0.000000 0.000000 0.039294 0.000000 0.000000
# 5 0.000000 0.000000 0.000000 0.000000 0.026051 0.000000
# 6 0.000000 0.000000 0.000000 0.000000 0.000000 0.039484
#
#
# Mechanical properties :
#
#
# Convention : Reuss Voigt Hill
#
# Bulk Modulus (GPa) = 37.11509 37.83366 37.47438
# Shear Modulus (GPa) = 28.98485 29.82380 29.40432
#
# Velocity S-wave (km/s) = 3.78143 3.83576 3.80869
# Velocity P-wave (km/s) = 6.11357 6.18725 6.15052
#
# Compressibility (1/GPa) = 0.02694322
#
# Stress axis : x y z
#
# Youngs Moduli (GPa) = 69.34442 67.07420 74.13734
#
# Poissons Ratio (x) = 0.07511 0.28593
# Poissons Ratio (y) = 0.07765 0.21951
# Poissons Ratio (z) = 0.26745 0.19860
#
# Static dielectric constant tensor:
#      x y z
#    x 1.772470 0.000000 0.000000 
#    y 0.000000 1.739300 0.000000 
#    z 0.000000 0.000000 1.728330 
# 
# From -- ./inp_files/13287.got.cif
#   From: 2010.05.17/outbox.cif.g08.bks.cpg/sg20_7_cif.got.tgz:13287.got - 2010.06.03 22:52:26.
