data_PCOD9320331
_publ_section_title
;
Structure prediction by ZEFSAII (Michael W. Deem and Ramdas Pophale) SiO2 
 PCOD9320331
Probable space group: C 2 2 21
;
_chemical_formula_sum "Si O2"
_cell_formula_units_Z 32
_cell_length_a 22.899231
_cell_length_b 11.160655
_cell_length_c 5.247565
_cell_angle_alpha 90.000000
_cell_angle_beta 90.000000
_cell_angle_gamma 90.000000
_cell_volume 1341.122375
_symmetry_space_group_name_H-M "C 2 2 21"
_symmetry_group_IT_number 20
_symmetry_cell_setting 'orthorhombic'
loop_
_space_group_symop_operation_xyz
x,y,z
-x,-y,1/2+z
x,-y,-z
-x,y,1/2-z
1/2+x,1/2+y,z
1/2-x,1/2-y,1/2+z
1/2+x,1/2-y,-z
1/2-x,1/2+y,1/2-z
loop_
_atom_site_type_symbol
_atom_site_label
_atom_site_fract_x
_atom_site_fract_y
_atom_site_fract_z
Si Si1 0.039644 0.132919 0.498801
Si Si2 0.931805 0.388561 0.824014
Si Si3 0.331065 0.216430 0.486418
Si Si4 0.300658 0.362504 0.988641
O O1 0.068875 0.263273 0.520742
O O2 0.000000 0.137629 0.250000
O O3 0.068246 0.000000 0.500000
O O4 0.000000 0.130782 0.750000
O O5 0.888347 0.361772 0.585017
O O6 0.000000 0.409976 0.750000
O O7 0.912108 0.500000 0.000000
O O8 0.327413 0.293681 0.744847
O O9 0.269907 0.145898 0.481301
O O10 0.323285 0.305479 0.249037
O O11 0.314142 0.500000 0.000000
#
# Coordination Sequence:
#
# PCOD9320331 Si02
#       4
#     8   8   8   8
#     4   9  19  38  62  88 125 178 238 293 342 403
#     4  11  25  43  68 104 150 198 241 290 360 446
#     4  10  24  42  69 107 141 182 241 304 363 435
#     4  10  22  45  73 101 137 184 240 307 376 432
#
# _framework density 23.860613000000001
#
# number of rings (size 3 to 8) (size 9 to 14) (size 15 to 20)
#    0.000    2.000    0.000    1.500    0.000   14.000 
#    0.000   15.000    0.000    0.000    0.000    0.000 
#    0.000    0.000    0.000    0.000    0.000    0.000 
#
# Total GULP energy -89378.068949 kJ/mol
# GULP energy per Si atom -5586.129309 kJ/mol
# Density = 2.380630 g / cm^3
# Si number density = 23.860613 Si / 1000 Ang^3
#
#
#
# Elastic Constant Matrix: (Units=GPa)
#
#
# Indices 1 2 3 4 5 6 
#
# 1 142.9025 40.9530 54.8517 0.0000 0.0000 0.0000
# 2 40.9530 199.9237 59.8674 0.0000 0.0000 0.0000
# 3 54.8517 59.8674 177.4437 0.0000 0.0000 0.0000
# 4 0.0000 0.0000 0.0000 107.3182 0.0000 0.0000
# 5 0.0000 0.0000 0.0000 0.0000 40.0245 0.0000
# 6 0.0000 0.0000 0.0000 0.0000 0.0000 -41.3893
#
#
#
# Elastic Compliance Matrix: (Units=1/GPa)
#
#
# Indices 1 2 3 4 5 6 
#
# 1 0.008121 -0.001014 -0.002168 0.000000 0.000000 0.000000
# 2 -0.001014 0.005691 -0.001606 0.000000 0.000000 0.000000
# 3 -0.002168 -0.001606 0.006848 0.000000 0.000000 0.000000
# 4 0.000000 0.000000 0.000000 0.009318 0.000000 0.000000
# 5 0.000000 0.000000 0.000000 0.000000 0.024985 0.000000
# 6 0.000000 0.000000 0.000000 0.000000 0.000000 -0.024161
#
#
# Mechanical properties :
#
#
# Convention : Reuss Voigt Hill
#
# Bulk Modulus (GPa) = 90.23955 92.40158 91.32056
# Shear Modulus (GPa) = 113.44936 45.49719 79.47327
#
# Velocity S-wave (km/s) = 6.90289 4.37142 5.77751
# Velocity P-wave (km/s) = 10.07148 8.01802 9.10284
#
# Compressibility (1/GPa) = 0.01108162
#
# Stress axis : x y z
#
# Youngs Moduli (GPa) = 123.14318 175.72459 146.03250
#
# Poissons Ratio (x) = 0.17822 0.31661
# Poissons Ratio (y) = 0.12489 0.23460
# Poissons Ratio (z) = 0.26698 0.28230
#
# Static dielectric constant tensor:
#      x y z
#    x 1.984060 0.000000 0.000000 
#    y 0.000000 1.864980 0.000000 
#    z 0.000000 0.000000 1.849330 
# 
# From -- ./inp_files/3507.got.cif
#   From: 2010.05.17/outbox.cif.g08.bks.cpg/sg20_2_cif.got.tgz:3507.got - 2010.06.03 22:52:26.
