data_PCOD9320013
_publ_section_title
;
Structure prediction by ZEFSAII (Michael W. Deem and Ramdas Pophale) SiO2 
 PCOD9320013
Probable space group: C 2 2 21
;
_chemical_formula_sum "Si O2"
_cell_formula_units_Z 36
_cell_length_a 28.707252
_cell_length_b 11.569809
_cell_length_c 5.054541
_cell_angle_alpha 90.000000
_cell_angle_beta 90.000000
_cell_angle_gamma 90.000000
_cell_volume 1678.802220
_symmetry_space_group_name_H-M "C 2 2 21"
_symmetry_group_IT_number 20
_symmetry_cell_setting 'orthorhombic'
loop_
_space_group_symop_operation_xyz
x,y,z
-x,-y,1/2+z
x,-y,-z
-x,y,1/2-z
1/2+x,1/2+y,z
1/2-x,1/2-y,1/2+z
1/2+x,1/2-y,-z
1/2-x,1/2+y,1/2-z
loop_
_atom_site_type_symbol
_atom_site_label
_atom_site_fract_x
_atom_site_fract_y
_atom_site_fract_z
Si Si1 0.698342 0.000000 0.000000
Si Si2 0.919911 0.253381 0.776059
Si Si3 0.142778 0.722647 0.782916
Si Si4 0.000000 0.573544 0.250000
Si Si5 0.237944 0.819849 0.779262
Si Si6 0.500000 0.574482 0.750000
O O1 0.732092 0.068650 0.202870
O O2 0.666924 0.900327 0.138067
O O3 0.884700 0.232118 0.537830
O O4 0.955328 0.351396 0.675056
O O5 0.955615 0.150259 0.837356
O O6 0.891239 0.289768 0.034268
O O7 0.183281 0.814932 0.716324
O O8 0.014032 0.500000 0.500000
O O9 0.257194 0.719108 0.582907
O O10 0.485240 0.500000 0.500000
#
# Coordination Sequence:
#
# PCOD9320013 Si02
#       6
#     4   8   8   4   8   4
#     4  10  24  42  70  92 134 196 200 276 356 386
#     4  11  25  43  66 104 132 167 222 281 315 397
#     4  11  23  41  68  99 136 168 233 271 316 405
#     4  11  24  41  62  96 142 169 200 259 342 398
#     4  10  22  42  61  93 131 172 222 272 322 391
#     4  11  24  49  76  92 138 179 216 271 356 390
#
# _framework density 21.443861999999999
#
# number of rings (size 3 to 8) (size 9 to 14) (size 15 to 20)
#    0.000    1.333    0.000    5.333    4.667   10.667 
#    6.000    0.000    4.889    0.000    0.000    0.000 
#    0.000    0.000    0.000    0.000    0.000    0.000 
#
# Total GULP energy -100603.260867 kJ/mol
# GULP energy per Si atom -5589.070048 kJ/mol
# Density = 2.139505 g / cm^3
# Si number density = 21.443862 Si / 1000 Ang^3
#
#
#
# Elastic Constant Matrix: (Units=GPa)
#
#
# Indices 1 2 3 4 5 6 
#
# 1 131.3562 33.5774 17.8195 0.0000 0.0000 0.0000
# 2 33.5774 46.0874 -2.0694 0.0000 0.0000 0.0000
# 3 17.8195 -2.0694 54.4450 0.0000 0.0000 0.0000
# 4 0.0000 0.0000 0.0000 11.2132 0.0000 0.0000
# 5 0.0000 0.0000 0.0000 0.0000 52.2626 0.0000
# 6 0.0000 0.0000 0.0000 0.0000 0.0000 -12.1661
#
#
#
# Elastic Compliance Matrix: (Units=1/GPa)
#
#
# Indices 1 2 3 4 5 6 
#
# 1 0.009998 -0.007444 -0.003555 0.000000 0.000000 0.000000
# 2 -0.007444 0.027277 0.003473 0.000000 0.000000 0.000000
# 3 -0.003555 0.003473 0.019663 0.000000 0.000000 0.000000
# 4 0.000000 0.000000 0.000000 0.089181 0.000000 0.000000
# 5 0.000000 0.000000 0.000000 0.000000 0.019134 0.000000
# 6 0.000000 0.000000 0.000000 0.000000 0.000000 -0.082196
#
#
# Mechanical properties :
#
#
# Convention : Reuss Voigt Hill
#
# Bulk Modulus (GPa) = 23.87431 36.72706 30.30069
# Shear Modulus (GPa) = 44.61475 22.43269 33.52372
#
# Velocity S-wave (km/s) = 4.56624 3.23787 3.95818
# Velocity P-wave (km/s) = 6.24166 5.58056 5.92035
#
# Compressibility (1/GPa) = 0.04188603
#
# Stress axis : x y z
#
# Youngs Moduli (GPa) = 100.02050 36.66083 50.85757
#
# Poissons Ratio (x) = 0.27289 0.18081
# Poissons Ratio (y) = 0.74453 -0.17663
# Poissons Ratio (z) = 0.35559 -0.12732
#
# Static dielectric constant tensor:
#      x y z
#    x 1.777680 0.000000 0.000000 
#    y 0.000000 1.792020 0.000000 
#    z 0.000000 0.000000 1.746540 
# 
# From -- ./inp_files/3596.got.cif
#   From: 2010.05.17/outbox.cif.g08.bks.cpg/sg20_2_cif.got.tgz:3596.got - 2010.06.03 22:52:26.
