data_PCOD9320113
_publ_section_title
;
Structure prediction by ZEFSAII (Michael W. Deem and Ramdas Pophale) SiO2 
 PCOD9320113
Probable space group: C 2 2 21
;
_chemical_formula_sum "Si O2"
_cell_formula_units_Z 44
_cell_length_a 33.341189
_cell_length_b 5.284565
_cell_length_c 8.876871
_cell_angle_alpha 90.000000
_cell_angle_beta 90.000000
_cell_angle_gamma 90.000000
_cell_volume 1564.048572
_symmetry_space_group_name_H-M "C 2 2 21"
_symmetry_group_IT_number 20
_symmetry_cell_setting 'orthorhombic'
loop_
_space_group_symop_operation_xyz
x,y,z
-x,-y,1/2+z
x,-y,-z
-x,y,1/2-z
1/2+x,1/2+y,z
1/2-x,1/2-y,1/2+z
1/2+x,1/2-y,-z
1/2-x,1/2+y,1/2-z
loop_
_atom_site_type_symbol
_atom_site_label
_atom_site_fract_x
_atom_site_fract_y
_atom_site_fract_z
Si Si1 0.378276 0.728261 0.140669
Si Si2 0.206192 0.242471 0.852038
Si Si3 0.500000 0.195951 0.750000
Si Si4 0.291818 0.757662 0.146943
Si Si5 0.945106 0.500000 0.000000
Si Si6 0.550106 0.500000 0.000000
Si Si7 0.880683 0.729842 0.344490
O O1 0.334440 0.747549 0.064062
O O2 0.380408 0.472708 0.234491
O O3 0.414597 0.769542 0.026265
O O4 0.382011 0.967278 0.254426
O O5 0.248995 0.249780 0.936891
O O6 0.207100 0.485723 0.743418
O O7 0.162620 0.254948 0.928556
O O8 0.207178 0.984903 0.756210
O O9 0.523934 0.377050 0.866344
O O10 0.972615 0.484438 0.146583
O O11 0.580280 0.719022 0.943107
#
# Coordination Sequence:
#
# PCOD9320113 Si02
#       7
#     8   8   4   8   4   4   8
#     4  10  22  42  70 104 148 194 248 308 378 454
#     4   8  14  28  55  93 138 187 237 293 358 436
#     4  12  32  48  84 112 162 198 270 324 422 466
#     4   8  14  28  55  93 138 187 237 293 358 436
#     4  12  28  52  75 116 144 206 245 338 380 494
#     4  12  28  52  75 116 144 206 245 338 380 494
#     4  10  22  42  70 104 148 194 248 308 378 454
#
# _framework density 28.13212
#
# number of rings (size 3 to 8) (size 9 to 14) (size 15 to 20)
#    0.000    2.182    1.818    0.000    5.091    1.455 
#    0.000    0.909    0.000    0.000    0.000   25.455 
#    0.000    0.000    0.000    0.000    0.000    0.000 
#
# Total GULP energy -123343.963165 kJ/mol
# GULP energy per Si atom -5606.543780 kJ/mol
# Density = 2.806809 g / cm^3
# Si number density = 28.132120 Si / 1000 Ang^3
#
#
#
# Elastic Constant Matrix: (Units=GPa)
#
#
# Indices 1 2 3 4 5 6 
#
# 1 270.2291 28.6894 106.7259 0.0000 0.0000 0.0000
# 2 28.6894 242.3048 84.7873 0.0000 0.0000 0.0000
# 3 106.7259 84.7873 128.8274 0.0000 0.0000 0.0000
# 4 0.0000 0.0000 0.0000 88.7333 0.0000 0.0000
# 5 0.0000 0.0000 0.0000 0.0000 -19.6392 0.0000
# 6 0.0000 0.0000 0.0000 0.0000 0.0000 60.8034
#
#
#
# Elastic Compliance Matrix: (Units=1/GPa)
#
#
# Indices 1 2 3 4 5 6 
#
# 1 0.005795 0.001291 -0.005651 0.000000 0.000000 0.000000
# 2 0.001291 0.005650 -0.004788 0.000000 0.000000 0.000000
# 3 -0.005651 -0.004788 0.015595 0.000000 0.000000 0.000000
# 4 0.000000 0.000000 0.000000 0.011270 0.000000 0.000000
# 5 0.000000 0.000000 0.000000 0.000000 -0.050919 0.000000
# 6 0.000000 0.000000 0.000000 0.000000 0.000000 0.016446
#
#
# Mechanical properties :
#
#
# Convention : Reuss Voigt Hill
#
# Bulk Modulus (GPa) = 114.35674 120.19628 117.27651
# Shear Modulus (GPa) = 199.62487 54.05674 126.84081
#
# Velocity S-wave (km/s) = 8.43290 4.38828 6.72201
# Velocity P-wave (km/s) = 11.64288 8.27614 10.10077
#
# Compressibility (1/GPa) = 0.00874457
#
# Stress axis : x y z
#
# Youngs Moduli (GPa) = 172.55545 177.00600 64.12403
#
# Poissons Ratio (x) = -0.22854 0.36235
# Poissons Ratio (y) = -0.22280 0.30702
# Poissons Ratio (z) = 0.97507 0.84748
#
# Static dielectric constant tensor:
#      x y z
#    x 2.219580 0.000000 0.000000 
#    y 0.000000 2.132520 0.000000 
#    z 0.000000 0.000000 2.325290 
# 
# From -- ./inp_files/22235.got.cif
#   From: 2010.05.17/outbox.cif.g08.bks.cpg/sg20_12_cif.got.tgz:22235.got - 2010.06.03 22:52:26.
