data_PCOD9320484
_publ_section_title
;
Structure prediction by ZEFSAII (Michael W. Deem and Ramdas Pophale) SiO2 
 PCOD9320484
Probable space group: C 2 2 21
;
_chemical_formula_sum "Si O2"
_cell_formula_units_Z 40
_cell_length_a 10.770831
_cell_length_b 21.117413
_cell_length_c 8.336999
_cell_angle_alpha 90.000000
_cell_angle_beta 90.000000
_cell_angle_gamma 90.000000
_cell_volume 1896.267818
_symmetry_space_group_name_H-M "C 2 2 21"
_symmetry_group_IT_number 20
_symmetry_cell_setting 'orthorhombic'
loop_
_space_group_symop_operation_xyz
x,y,z
-x,-y,1/2+z
x,-y,-z
-x,y,1/2-z
1/2+x,1/2+y,z
1/2-x,1/2-y,1/2+z
1/2+x,1/2-y,-z
1/2-x,1/2+y,1/2-z
loop_
_atom_site_type_symbol
_atom_site_label
_atom_site_fract_x
_atom_site_fract_y
_atom_site_fract_z
Si Si1 0.401761 0.821974 0.466660
Si Si2 0.500000 0.542925 0.750000
Si Si3 0.500000 0.248202 0.250000
Si Si4 0.445716 0.933595 0.931060
Si Si5 0.872640 0.853025 0.036068
Si Si6 0.500000 0.711003 0.250000
Si Si7 0.800664 0.000000 0.500000
O O1 0.408603 0.793827 0.645220
O O2 0.511321 0.873582 0.464368
O O3 0.273581 0.857453 0.442850
O O4 0.419852 0.760879 0.354779
O O5 0.560620 0.586907 0.612409
O O6 0.389168 0.508696 0.654381
O O7 0.419404 0.292690 0.137073
O O8 0.500000 0.927186 0.750000
O O9 0.702584 0.943939 0.545727
O O10 0.498690 0.000000 0.000000
O O11 0.915861 0.834385 0.858792
#
# Coordination Sequence:
#
# PCOD9320484 Si02
#       7
#     8   4   4   8   8   4   4
#     4  11  21  39  68  96 134 179 212 288 347 402
#     4  11  26  47  70  92 137 188 225 302 338 404
#     4   9  20  42  55 103 132 174 219 272 334 416
#     4  10  25  43  67 104 135 173 237 292 346 415
#     4  10  23  41  67  97 135 174 229 271 347 421
#     4  10  24  39  65 105 133 178 226 274 350 424
#     4  10  28  48  68 102 138 178 252 278 352 418
#
# _framework density 21.094066999999999
#
# number of rings (size 3 to 8) (size 9 to 14) (size 15 to 20)
#    0.600    1.200    1.000    1.200    7.000    4.000 
#    7.200    0.000    0.000    0.000    0.000    0.000 
#    0.000    0.000    0.000    0.000    0.000    0.000 
#
# Total GULP energy -111543.671249 kJ/mol
# GULP energy per Si atom -5577.183562 kJ/mol
# Density = 2.104606 g / cm^3
# Si number density = 21.094067 Si / 1000 Ang^3
#
#
#
# Elastic Constant Matrix: (Units=GPa)
#
#
# Indices 1 2 3 4 5 6 
#
# 1 151.0610 36.4369 36.2823 0.0000 0.0000 0.0000
# 2 36.4369 60.5339 19.6370 0.0000 0.0000 0.0000
# 3 36.2823 19.6370 87.3837 0.0000 0.0000 0.0000
# 4 0.0000 0.0000 0.0000 8.1780 0.0000 0.0000
# 5 0.0000 0.0000 0.0000 0.0000 24.7918 0.0000
# 6 0.0000 0.0000 0.0000 0.0000 0.0000 43.3232
#
#
#
# Elastic Compliance Matrix: (Units=1/GPa)
#
#
# Indices 1 2 3 4 5 6 
#
# 1 0.008214 -0.004140 -0.002480 0.000000 0.000000 0.000000
# 2 -0.004140 0.019905 -0.002754 0.000000 0.000000 0.000000
# 3 -0.002480 -0.002754 0.013093 0.000000 0.000000 0.000000
# 4 0.000000 0.000000 0.000000 0.122280 0.000000 0.000000
# 5 0.000000 0.000000 0.000000 0.000000 0.040336 0.000000
# 6 0.000000 0.000000 0.000000 0.000000 0.000000 0.023082
#
#
# Mechanical properties :
#
#
# Convention : Reuss Voigt Hill
#
# Bulk Modulus (GPa) = 44.51731 53.74344 49.13038
# Shear Modulus (GPa) = 19.75146 29.03340 24.39243
#
# Velocity S-wave (km/s) = 3.06331 3.71398 3.40423
# Velocity P-wave (km/s) = 5.80188 6.62758 6.22843
#
# Compressibility (1/GPa) = 0.02246317
#
# Stress axis : x y z
#
# Youngs Moduli (GPa) = 121.74218 50.23882 76.37935
#
# Poissons Ratio (x) = 0.20797 0.18944
# Poissons Ratio (y) = 0.50397 0.21037
# Poissons Ratio (z) = 0.30195 0.13837
#
# Static dielectric constant tensor:
#      x y z
#    x 1.751390 0.000000 0.000000 
#    y 0.000000 1.744200 0.000000 
#    z 0.000000 0.000000 1.795800 
# 
# From -- ./inp_files/7274.got.cif
#   From: 2010.05.17/outbox.cif.g08.bks.cpg/sg20_4_cif.got.tgz:7274.got - 2010.06.03 22:52:26.
