data_PCOD9320428
_publ_section_title
;
Structure prediction by ZEFSAII (Michael W. Deem and Ramdas Pophale) SiO2 
 PCOD9320428
Probable space group: C 2 2 21
;
_chemical_formula_sum "Si O2"
_cell_formula_units_Z 60
_cell_length_a 12.115409
_cell_length_b 14.423258
_cell_length_c 13.490522
_cell_angle_alpha 90.000000
_cell_angle_beta 90.000000
_cell_angle_gamma 90.000000
_cell_volume 2357.383322
_symmetry_space_group_name_H-M "C 2 2 21"
_symmetry_group_IT_number 20
_symmetry_cell_setting 'orthorhombic'
loop_
_space_group_symop_operation_xyz
x,y,z
-x,-y,1/2+z
x,-y,-z
-x,y,1/2-z
1/2+x,1/2+y,z
1/2-x,1/2-y,1/2+z
1/2+x,1/2-y,-z
1/2-x,1/2+y,1/2-z
loop_
_atom_site_type_symbol
_atom_site_label
_atom_site_fract_x
_atom_site_fract_y
_atom_site_fract_z
Si Si1 0.213032 0.008963 0.285132
Si Si2 0.286466 0.712003 0.757117
Si Si3 0.932917 0.866182 0.465806
Si Si4 0.314062 0.833339 0.070128
Si Si5 0.402048 0.996465 0.880128
Si Si6 0.094255 0.820178 0.813972
Si Si7 0.627311 0.500000 0.500000
Si Si8 0.038857 0.694802 0.379196
O O1 0.192137 0.898142 0.266710
O O2 0.316889 0.026884 0.209257
O O3 0.129838 0.084534 0.240034
O O4 0.205650 0.024445 0.404932
O O5 0.229084 0.737627 0.652414
O O6 0.192558 0.748041 0.831381
O O7 0.392922 0.770301 0.785222
O O8 0.803048 0.889044 0.450311
O O9 0.949513 0.849233 0.580634
O O10 0.951258 0.770497 0.409356
O O11 0.035964 0.933315 0.444369
O O12 0.407384 0.893496 0.128232
O O13 0.370902 0.800652 0.970237
O O14 0.490121 0.914020 0.873820
O O15 0.372835 0.000000 0.000000
O O16 0.000000 0.775310 0.750000
#
# Coordination Sequence:
#
# PCOD9320428 Si02
#       8
#     8   8   8   8   8   8   4   8
#     4  11  23  40  64  97 136 183 221 288 347 420
#     4  11  23  40  64  96 134 179 227 277 347 424
#     4  12  25  39  66 101 139 170 227 294 353 412
#     4  10  23  39  67  94 128 178 228 279 344 416
#     4   9  19  39  67  91 125 179 230 271 341 416
#     4  12  23  42  68  97 134 183 233 288 351 413
#     4  12  26  36  60 106 144 164 232 278 352 406
#     4  11  21  41  62 100 134 172 228 288 348 416
#
# _framework density 25.451948000000002
#
# number of rings (size 3 to 8) (size 9 to 14) (size 15 to 20)
#    0.000    1.067    5.333    1.600    6.533    0.533 
#    0.000    0.000    0.000    8.000    5.200    0.000 
#    0.000    0.000    0.000    0.000    0.000    0.000 
#
# Total GULP energy -167002.726435 kJ/mol
# GULP energy per Si atom -5566.757548 kJ/mol
# Density = 2.539402 g / cm^3
# Si number density = 25.451948 Si / 1000 Ang^3
#
#
#
# Elastic Constant Matrix: (Units=GPa)
#
#
# Indices 1 2 3 4 5 6 
#
# 1 46.5393 32.5872 -0.8413 0.0000 0.0000 0.0000
# 2 32.5872 132.5895 10.4422 0.0000 0.0000 0.0000
# 3 -0.8413 10.4422 126.8650 0.0000 0.0000 0.0000
# 4 0.0000 0.0000 0.0000 33.8974 0.0000 0.0000
# 5 0.0000 0.0000 0.0000 0.0000 35.7963 0.0000
# 6 0.0000 0.0000 0.0000 0.0000 0.0000 -88.8314
#
#
#
# Elastic Compliance Matrix: (Units=1/GPa)
#
#
# Indices 1 2 3 4 5 6 
#
# 1 0.026016 -0.006449 0.000703 0.000000 0.000000 0.000000
# 2 -0.006449 0.009190 -0.000799 0.000000 0.000000 0.000000
# 3 0.000703 -0.000799 0.007953 0.000000 0.000000 0.000000
# 4 0.000000 0.000000 0.000000 0.029501 0.000000 0.000000
# 5 0.000000 0.000000 0.000000 0.000000 0.027936 0.000000
# 6 0.000000 0.000000 0.000000 0.000000 0.000000 -0.011257
#
#
# Mechanical properties :
#
#
# Convention : Reuss Voigt Hill
#
# Bulk Modulus (GPa) = 33.25760 43.37445 38.31602
# Shear Modulus (GPa) = 44.46358 13.75950 29.11154
#
# Velocity S-wave (km/s) = 4.18420 2.32762 3.38566
# Velocity P-wave (km/s) = 6.03644 4.92975 5.51094
#
# Compressibility (1/GPa) = 0.03006831
#
# Stress axis : x y z
#
# Youngs Moduli (GPa) = 38.43802 108.81238 125.74121
#
# Poissons Ratio (x) = 0.70178 -0.08844
# Poissons Ratio (y) = 0.24790 0.10049
# Poissons Ratio (z) = -0.02704 0.08696
#
# Static dielectric constant tensor:
#      x y z
#    x 2.040140 0.000000 0.000000 
#    y 0.000000 2.115930 0.000000 
#    z 0.000000 0.000000 2.104470 
# 
# From -- ./inp_files/20927.got.cif
#   From: 2010.05.17/outbox.cif.g08.bks.cpg/sg20_11_cif.got.tgz:20927.got - 2010.06.03 22:52:26.
