data_PCOD9320218
_publ_section_title
;
Structure prediction by ZEFSAII (Michael W. Deem and Ramdas Pophale) SiO2 
 PCOD9320218
Probable space group: C 2 2 21
;
_chemical_formula_sum "Si O2"
_cell_formula_units_Z 40
_cell_length_a 28.930785
_cell_length_b 13.487388
_cell_length_c 5.472042
_cell_angle_alpha 90.000000
_cell_angle_beta 90.000000
_cell_angle_gamma 90.000000
_cell_volume 2135.194742
_symmetry_space_group_name_H-M "C 2 2 21"
_symmetry_group_IT_number 20
_symmetry_cell_setting 'orthorhombic'
loop_
_space_group_symop_operation_xyz
x,y,z
-x,-y,1/2+z
x,-y,-z
-x,y,1/2-z
1/2+x,1/2+y,z
1/2-x,1/2-y,1/2+z
1/2+x,1/2-y,-z
1/2-x,1/2+y,1/2-z
loop_
_atom_site_type_symbol
_atom_site_label
_atom_site_fract_x
_atom_site_fract_y
_atom_site_fract_z
Si Si1 0.771669 0.000000 0.500000
Si Si2 0.336606 0.319513 0.586070
Si Si3 0.119133 0.500000 0.000000
Si Si4 0.126547 0.247360 0.574475
Si Si5 0.309005 0.876218 0.203928
Si Si6 0.051573 0.601670 0.339917
O O1 0.804569 0.915017 0.602824
O O2 0.737031 0.938825 0.325424
O O3 0.364189 0.307579 0.330750
O O4 0.305993 0.218816 0.618593
O O5 0.367714 0.317498 0.829967
O O6 0.151620 0.448786 0.196466
O O7 0.085109 0.580356 0.112511
O O8 0.168711 0.327861 0.540629
O O9 0.078351 0.305983 0.544108
O O10 0.051106 0.500000 0.500000
O O11 0.000000 0.621644 0.250000
#
# Coordination Sequence:
#
# PCOD9320218 Si02
#       6
#     4   8   4   8   8   8
#     4  12  26  40  65  98 114 178 231 270 300 374
#     4  10  25  43  61  85 127 167 217 266 310 377
#     4  12  20  38  59  88 138 170 199 252 334 378
#     4  10  22  44  57  83 131 172 192 261 330 368
#     4  10  24  37  62  86 131 174 203 263 317 386
#     4  12  21  34  59  97 127 164 216 254 312 412
#
# _framework density 18.733651999999999
#
# number of rings (size 3 to 8) (size 9 to 14) (size 15 to 20)
#    1.200    0.000    5.000    1.200    2.800    2.400 
#    0.000    0.000    0.000    0.000    0.000    2.800 
#    0.000    0.000    0.000    0.000    0.000    0.000 
#
# Total GULP energy -111423.274243 kJ/mol
# GULP energy per Si atom -5571.163712 kJ/mol
# Density = 1.869101 g / cm^3
# Si number density = 18.733652 Si / 1000 Ang^3
#
#
#
# Elastic Constant Matrix: (Units=GPa)
#
#
# Indices 1 2 3 4 5 6 
#
# 1 125.0322 52.1628 41.8846 0.0000 0.0000 0.0000
# 2 52.1628 56.3557 20.6908 0.0000 0.0000 0.0000
# 3 41.8846 20.6908 94.8708 0.0000 0.0000 0.0000
# 4 0.0000 0.0000 0.0000 15.8455 0.0000 0.0000
# 5 0.0000 0.0000 0.0000 0.0000 35.5451 0.0000
# 6 0.0000 0.0000 0.0000 0.0000 0.0000 146.7335
#
#
#
# Elastic Compliance Matrix: (Units=1/GPa)
#
#
# Indices 1 2 3 4 5 6 
#
# 1 0.014119 -0.011718 -0.003678 0.000000 0.000000 0.000000
# 2 -0.011718 0.029014 -0.001155 0.000000 0.000000 0.000000
# 3 -0.003678 -0.001155 0.012416 0.000000 0.000000 0.000000
# 4 0.000000 0.000000 0.000000 0.063110 0.000000 0.000000
# 5 0.000000 0.000000 0.000000 0.000000 0.028133 0.000000
# 6 0.000000 0.000000 0.000000 0.000000 0.000000 0.006815
#
#
# Mechanical properties :
#
#
# Convention : Reuss Voigt Hill
#
# Bulk Modulus (GPa) = 44.54549 56.19277 50.36913
# Shear Modulus (GPa) = 25.74797 50.39283 38.07040
#
# Velocity S-wave (km/s) = 3.71134 5.19211 4.51288
# Velocity P-wave (km/s) = 6.49580 8.12433 7.35528
#
# Compressibility (1/GPa) = 0.02244896
#
# Stress axis : x y z
#
# Youngs Moduli (GPa) = 70.82880 34.46566 80.54075
#
# Poissons Ratio (x) = 0.40386 0.29620
# Poissons Ratio (y) = 0.82996 0.09299
# Poissons Ratio (z) = 0.26048 0.03979
#
# Static dielectric constant tensor:
#      x y z
#    x 1.625550 0.000000 0.000000 
#    y 0.000000 1.678680 0.000000 
#    z 0.000000 0.000000 1.642380 
# 
# From -- ./inp_files/4190.got.cif
#   From: 2010.05.17/outbox.cif.g08.bks.cpg/sg20_3_cif.got.tgz:4190.got - 2010.06.03 22:52:26.
