data_PCOD9320903
_publ_section_title
;
Structure prediction by ZEFSAII (Michael W. Deem and Ramdas Pophale) SiO2 
 PCOD9320903
Probable space group: C 2 2 21
;
_chemical_formula_sum "Si O2"
_cell_formula_units_Z 40
_cell_length_a 7.692202
_cell_length_b 11.777456
_cell_length_c 17.069914
_cell_angle_alpha 90.000000
_cell_angle_beta 90.000000
_cell_angle_gamma 90.000000
_cell_volume 1546.441529
_symmetry_space_group_name_H-M "C 2 2 21"
_symmetry_group_IT_number 20
_symmetry_cell_setting 'orthorhombic'
loop_
_space_group_symop_operation_xyz
x,y,z
-x,-y,1/2+z
x,-y,-z
-x,y,1/2-z
1/2+x,1/2+y,z
1/2-x,1/2-y,1/2+z
1/2+x,1/2-y,-z
1/2-x,1/2+y,1/2-z
loop_
_atom_site_type_symbol
_atom_site_label
_atom_site_fract_x
_atom_site_fract_y
_atom_site_fract_z
Si Si1 0.899493 0.736975 0.102386
Si Si2 0.960693 0.492050 0.839595
Si Si3 0.348192 0.604670 0.046590
Si Si4 0.439951 0.453431 0.334076
Si Si5 0.979091 0.260567 0.342739
O O1 0.993895 0.615055 0.104565
O O2 0.703662 0.707727 0.129235
O O3 0.987129 0.826199 0.160520
O O4 0.897801 0.803783 0.020804
O O5 0.764778 0.537401 0.839701
O O6 0.000000 0.457186 0.750000
O O7 0.058874 0.606736 0.861446
O O8 0.481469 0.521055 0.092643
O O9 0.354002 0.700790 0.117441
O O10 0.249853 0.500000 0.000000
O O11 0.500000 0.501106 0.250000
O O12 0.000000 0.256423 0.250000
#
# Coordination Sequence:
#
# PCOD9320903 Si02
#       5
#     8   8   8   8   8
#     4  11  25  48  70 109 147 192 245 307 380 432
#     4  11  25  44  71 109 140 190 249 301 365 437
#     4  10  24  44  71 106 142 193 242 296 377 434
#     4  11  22  47  73 101 146 192 242 306 369 443
#     4  11  24  49  76 110 146 195 254 304 370 447
#
# _framework density 25.865832999999999
#
# number of rings (size 3 to 8) (size 9 to 14) (size 15 to 20)
#    0.000    1.200    2.000    3.600    0.000    4.000 
#   21.600    0.000    0.000    0.000    0.000    0.000 
#    0.000    0.000    0.000    0.000    0.000    0.000 
#
# Total GULP energy -111505.007305 kJ/mol
# GULP energy per Si atom -5575.250365 kJ/mol
# Density = 2.580696 g / cm^3
# Si number density = 25.865833 Si / 1000 Ang^3
#
#
#
# Elastic Constant Matrix: (Units=GPa)
#
#
# Indices 1 2 3 4 5 6 
#
# 1 48.2937 5.0747 35.4760 0.0000 0.0000 0.0000
# 2 5.0747 217.0121 44.6507 0.0000 0.0000 0.0000
# 3 35.4760 44.6507 138.6069 0.0000 0.0000 0.0000
# 4 0.0000 0.0000 0.0000 40.9555 0.0000 0.0000
# 5 0.0000 0.0000 0.0000 0.0000 7.6273 0.0000
# 6 0.0000 0.0000 0.0000 0.0000 0.0000 46.0924
#
#
#
# Elastic Compliance Matrix: (Units=1/GPa)
#
#
# Indices 1 2 3 4 5 6 
#
# 1 0.025632 0.000804 -0.006819 0.000000 0.000000 0.000000
# 2 0.000804 0.004960 -0.001804 0.000000 0.000000 0.000000
# 3 -0.006819 -0.001804 0.009541 0.000000 0.000000 0.000000
# 4 0.000000 0.000000 0.000000 0.024417 0.000000 0.000000
# 5 0.000000 0.000000 0.000000 0.000000 0.131108 0.000000
# 6 0.000000 0.000000 0.000000 0.000000 0.000000 0.021696
#
#
# Mechanical properties :
#
#
# Convention : Reuss Voigt Hill
#
# Bulk Modulus (GPa) = 40.82533 63.81283 52.31908
# Shear Modulus (GPa) = 20.73343 40.18245 30.45794
#
# Velocity S-wave (km/s) = 2.83428 3.94572 3.43525
# Velocity P-wave (km/s) = 5.15060 6.74407 6.00046
#
# Compressibility (1/GPa) = 0.02449460
#
# Stress axis : x y z
#
# Youngs Moduli (GPa) = 39.01446 201.59894 104.81058
#
# Poissons Ratio (x) = -0.16202 0.71473
# Poissons Ratio (y) = -0.03136 0.18904
# Poissons Ratio (z) = 0.26605 0.36361
#
# Static dielectric constant tensor:
#      x y z
#    x 2.179230 0.000000 0.000000 
#    y 0.000000 2.163640 0.000000 
#    z 0.000000 0.000000 1.945030 
# 
# From -- ./inp_files/23150.got.cif
#   From: 2010.05.17/outbox.cif.g08.bks.cpg/sg20_12_cif.got.tgz:23150.got - 2010.06.03 22:52:26.
