data_PCOD9320731
_publ_section_title
;
Structure prediction by ZEFSAII (Michael W. Deem and Ramdas Pophale) SiO2 
 PCOD9320731
Probable space group: C 2 2 21
;
_chemical_formula_sum "Si O2"
_cell_formula_units_Z 28
_cell_length_a 12.181314
_cell_length_b 5.997478
_cell_length_c 13.407829
_cell_angle_alpha 90.000000
_cell_angle_beta 90.000000
_cell_angle_gamma 90.000000
_cell_volume 979.537945
_symmetry_space_group_name_H-M "C 2 2 21"
_symmetry_group_IT_number 20
_symmetry_cell_setting 'orthorhombic'
loop_
_space_group_symop_operation_xyz
x,y,z
-x,-y,1/2+z
x,-y,-z
-x,y,1/2-z
1/2+x,1/2+y,z
1/2-x,1/2-y,1/2+z
1/2+x,1/2-y,-z
1/2-x,1/2+y,1/2-z
loop_
_atom_site_type_symbol
_atom_site_label
_atom_site_fract_x
_atom_site_fract_y
_atom_site_fract_z
Si Si1 0.894035 0.785124 0.676382
Si Si2 0.017843 0.361251 0.632345
Si Si3 0.128398 0.000000 0.500000
Si Si4 0.733818 0.853331 0.360014
O O1 0.845833 0.010374 0.628056
O O2 0.790474 0.721097 0.746855
O O3 0.000000 0.819651 0.750000
O O4 0.930702 0.565293 0.614548
O O5 0.000000 0.310070 0.750000
O O6 0.046330 0.149507 0.565662
O O7 0.133512 0.484373 0.619128
O O8 0.207307 0.852116 0.568845
#
# Coordination Sequence:
#
# PCOD9320731 Si02
#       4
#     8   8   4   8
#     4   9  22  50  86 122 162 237 289 347 443 519
#     4   9  23  49  85 125 171 238 289 358 432 523
#     4  12  24  46  90 132 180 222 294 368 438 516
#     4  10  23  46  85 124 170 226 288 363 431 519
#
# _framework density 28.584906
#
# number of rings (size 3 to 8) (size 9 to 14) (size 15 to 20)
#    0.000    2.857    0.000    0.857    4.000    4.571 
#   10.286    0.000   37.714   48.000    0.000    0.000 
#    0.000    0.000    0.000    0.000    0.000    0.000 
#
# Total GULP energy -78403.798233 kJ/mol
# GULP energy per Si atom -5600.271302 kJ/mol
# Density = 2.851985 g / cm^3
# Si number density = 28.584906 Si / 1000 Ang^3
#
#
#
# Elastic Constant Matrix: (Units=GPa)
#
#
# Indices 1 2 3 4 5 6 
#
# 1 213.7726 135.0841 77.4043 0.0000 0.0000 0.0000
# 2 135.0841 247.7362 115.9030 0.0000 0.0000 0.0000
# 3 77.4043 115.9030 122.8608 0.0000 0.0000 0.0000
# 4 0.0000 0.0000 0.0000 72.3829 0.0000 0.0000
# 5 0.0000 0.0000 0.0000 0.0000 27.5011 0.0000
# 6 0.0000 0.0000 0.0000 0.0000 0.0000 82.6186
#
#
#
# Elastic Compliance Matrix: (Units=1/GPa)
#
#
# Indices 1 2 3 4 5 6 
#
# 1 0.007290 -0.003269 -0.001509 0.000000 0.000000 0.000000
# 2 -0.003269 0.008692 -0.006140 0.000000 0.000000 0.000000
# 3 -0.001509 -0.006140 0.014882 0.000000 0.000000 0.000000
# 4 0.000000 0.000000 0.000000 0.013815 0.000000 0.000000
# 5 0.000000 0.000000 0.000000 0.000000 0.036362 0.000000
# 6 0.000000 0.000000 0.000000 0.000000 0.000000 0.012104
#
#
# Mechanical properties :
#
#
# Convention : Reuss Voigt Hill
#
# Bulk Modulus (GPa) = 110.76553 137.90582 124.33567
# Shear Modulus (GPa) = 42.37660 53.56575 47.97118
#
# Velocity S-wave (km/s) = 3.85448 4.33357 4.10103
# Velocity P-wave (km/s) = 7.65788 8.56673 8.12502
#
# Compressibility (1/GPa) = 0.00902808
#
# Stress axis : x y z
#
# Youngs Moduli (GPa) = 137.17471 115.05341 67.19563
#
# Poissons Ratio (x) = 0.37613 0.10138
# Poissons Ratio (y) = 0.44844 0.41257
# Poissons Ratio (z) = 0.20697 0.70640
#
# Static dielectric constant tensor:
#      x y z
#    x 2.147810 0.000000 0.000000 
#    y 0.000000 2.388630 0.000000 
#    z 0.000000 0.000000 2.328300 
# 
# From -- ./inp_files/19455.got.cif
#   From: 2010.05.17/outbox.cif.g08.bks.cpg/sg20_10_cif.got.tgz:19455.got - 2010.06.03 22:52:26.
