data_PCOD9320334
_publ_section_title
;
Structure prediction by ZEFSAII (Michael W. Deem and Ramdas Pophale) SiO2 
 PCOD9320334
Probable space group: C 2 2 21
;
_chemical_formula_sum "Si O2"
_cell_formula_units_Z 48
_cell_length_a 5.223697
_cell_length_b 13.101279
_cell_length_c 29.672747
_cell_angle_alpha 90.000000
_cell_angle_beta 90.000000
_cell_angle_gamma 90.000000
_cell_volume 2030.717104
_symmetry_space_group_name_H-M "C 2 2 21"
_symmetry_group_IT_number 20
_symmetry_cell_setting 'orthorhombic'
loop_
_space_group_symop_operation_xyz
x,y,z
-x,-y,1/2+z
x,-y,-z
-x,y,1/2-z
1/2+x,1/2+y,z
1/2-x,1/2-y,1/2+z
1/2+x,1/2-y,-z
1/2-x,1/2+y,1/2-z
loop_
_atom_site_type_symbol
_atom_site_label
_atom_site_fract_x
_atom_site_fract_y
_atom_site_fract_z
Si Si1 0.131267 0.322117 0.707776
Si Si2 0.591598 0.621642 0.801520
Si Si3 0.531482 0.556544 0.136625
Si Si4 0.000000 0.655601 0.750000
Si Si5 0.198072 0.000000 0.500000
Si Si6 0.464183 0.711395 0.524248
Si Si7 0.973630 0.607776 0.416597
O O1 0.324179 0.380561 0.676150
O O2 0.292704 0.233684 0.731828
O O3 0.000000 0.379779 0.750000
O O4 0.934209 0.241512 0.685270
O O5 0.500000 0.587967 0.750000
O O6 0.485047 0.552878 0.840736
O O7 0.892209 0.598950 0.793340
O O8 0.258871 0.594763 0.118752
O O9 0.753570 0.562592 0.098783
O O10 0.371277 0.950536 0.539052
O O11 0.031368 0.907719 0.478847
O O12 0.675105 0.765056 0.491435
O O13 0.505331 0.773015 0.570510
#
# Coordination Sequence:
#
# PCOD9320334 Si02
#       7
#     8   8   8   4   4   8   8
#     4   9  22  41  64  93 131 185 226 281 337 394
#     4   9  22  41  66  98 135 188 235 272 330 408
#     4  12  27  42  68 104 143 175 231 287 344 401
#     4   8  18  40  64  90 124 184 236 266 330 402
#     4  10  24  52  78  92 138 188 222 286 374 412
#     4  10  22  45  75 100 129 170 228 273 333 427
#     4  11  27  45  68 110 134 178 232 287 349 429
#
# _framework density 23.636970999999999
#
# number of rings (size 3 to 8) (size 9 to 14) (size 15 to 20)
#    0.000    2.333    0.000    2.000   11.667    7.333 
#    0.000    5.000    0.000    0.000    0.000    0.000 
#    0.000    0.000    0.000    0.000    0.000    0.000 
#
# Total GULP energy -133671.338037 kJ/mol
# GULP energy per Si atom -5569.639085 kJ/mol
# Density = 2.358317 g / cm^3
# Si number density = 23.636971 Si / 1000 Ang^3
#
#
#
# Elastic Constant Matrix: (Units=GPa)
#
#
# Indices 1 2 3 4 5 6 
#
# 1 62.2736 4.9109 -2.4715 0.0000 0.0000 0.0000
# 2 4.9109 97.6663 22.9971 0.0000 0.0000 0.0000
# 3 -2.4715 22.9971 56.8734 0.0000 0.0000 0.0000
# 4 0.0000 0.0000 0.0000 54.6032 0.0000 0.0000
# 5 0.0000 0.0000 0.0000 0.0000 48.3804 0.0000
# 6 0.0000 0.0000 0.0000 0.0000 0.0000 21.7623
#
#
#
# Elastic Compliance Matrix: (Units=1/GPa)
#
#
# Indices 1 2 3 4 5 6 
#
# 1 0.016189 -0.001083 0.001141 0.000000 0.000000 0.000000
# 2 -0.001083 0.011389 -0.004652 0.000000 0.000000 0.000000
# 3 0.001141 -0.004652 0.019514 0.000000 0.000000 0.000000
# 4 0.000000 0.000000 0.000000 0.018314 0.000000 0.000000
# 5 0.000000 0.000000 0.000000 0.000000 0.020670 0.000000
# 6 0.000000 0.000000 0.000000 0.000000 0.000000 0.045951
#
#
# Mechanical properties :
#
#
# Convention : Reuss Voigt Hill
#
# Bulk Modulus (GPa) = 26.38238 29.74291 28.06265
# Shear Modulus (GPa) = 32.49967 37.70763 35.10365
#
# Velocity S-wave (km/s) = 3.71206 3.99843 3.85790
# Velocity P-wave (km/s) = 5.43674 5.82470 5.63406
#
# Compressibility (1/GPa) = 0.03790409
#
# Stress axis : x y z
#
# Youngs Moduli (GPa) = 61.77086 87.80540 51.24618
#
# Poissons Ratio (x) = 0.09507 -0.05849
# Poissons Ratio (y) = 0.06688 0.23841
# Poissons Ratio (z) = -0.07050 0.40849
#
# Static dielectric constant tensor:
#      x y z
#    x 1.444340 0.000000 0.000000 
#    y 0.000000 1.921240 0.000000 
#    z 0.000000 0.000000 1.979830 
# 
# From -- ./inp_files/29842.got.cif
#   From: 2010.05.17/outbox.cif.g08.bks.cpg/sg20_15_cif.got.tgz:29842.got - 2010.06.03 22:52:26.
