data_PCOD9320202
_publ_section_title
;
Structure prediction by ZEFSAII (Michael W. Deem and Ramdas Pophale) SiO2 
 PCOD9320202
Probable space group: C 2 2 21
;
_chemical_formula_sum "Si O2"
_cell_formula_units_Z 40
_cell_length_a 21.346012
_cell_length_b 8.000338
_cell_length_c 8.573863
_cell_angle_alpha 90.000000
_cell_angle_beta 90.000000
_cell_angle_gamma 90.000000
_cell_volume 1464.204120
_symmetry_space_group_name_H-M "C 2 2 21"
_symmetry_group_IT_number 20
_symmetry_cell_setting 'orthorhombic'
loop_
_space_group_symop_operation_xyz
x,y,z
-x,-y,1/2+z
x,-y,-z
-x,y,1/2-z
1/2+x,1/2+y,z
1/2-x,1/2-y,1/2+z
1/2+x,1/2-y,-z
1/2-x,1/2+y,1/2-z
loop_
_atom_site_type_symbol
_atom_site_label
_atom_site_fract_x
_atom_site_fract_y
_atom_site_fract_z
Si Si1 0.950287 0.211941 0.887342
Si Si2 0.168362 0.176698 0.961480
Si Si3 0.208869 0.715428 0.701094
Si Si4 0.590619 0.000000 0.000000
Si Si5 0.342857 0.500000 0.000000
Si Si6 0.430594 0.103724 0.830506
O O1 0.943690 0.411588 0.875275
O O2 0.000000 0.166226 0.750000
O O3 0.954647 0.227529 0.079871
O O4 0.888084 0.101307 0.879566
O O5 0.201882 0.234065 0.120934
O O6 0.224249 0.142299 0.841572
O O7 0.127267 0.341439 0.924996
O O8 0.134497 0.000000 0.000000
O O9 0.145724 0.613915 0.662960
O O10 0.200218 0.875883 0.593873
O O11 0.555675 0.090762 0.856555
#
# Coordination Sequence:
#
# PCOD9320202 Si02
#       6
#     8   8   8   4   4   8
#     4  10  22  43  71  98 126 174 239 301 375 446
#     4  11  26  38  66 101 145 194 243 294 333 419
#     4  10  24  41  63 100 139 190 236 281 352 409
#     4  10  23  44  62 106 146 190 244 286 357 436
#     4  10  23  42  68  94 140 184 230 298 369 424
#     4   9  22  43  69  96 132 181 227 296 363 442
#
# _framework density 27.318594000000001
#
# number of rings (size 3 to 8) (size 9 to 14) (size 15 to 20)
#    0.000    2.000    0.000    0.600   16.800    1.600 
#    0.000   15.000    0.000    0.000    0.000    0.000 
#    0.000    0.000    0.000    0.000    0.000    0.000 
#
# Total GULP energy -111591.383752 kJ/mol
# GULP energy per Si atom -5579.569188 kJ/mol
# Density = 2.725642 g / cm^3
# Si number density = 27.318594 Si / 1000 Ang^3
#
#
#
# Elastic Constant Matrix: (Units=GPa)
#
#
# Indices 1 2 3 4 5 6 
#
# 1 39.5942 44.4903 -3.6937 0.0000 0.0000 0.0000
# 2 44.4903 92.2357 12.8643 0.0000 0.0000 0.0000
# 3 -3.6937 12.8643 101.6069 0.0000 0.0000 0.0000
# 4 0.0000 0.0000 0.0000 51.3432 0.0000 0.0000
# 5 0.0000 0.0000 0.0000 0.0000 61.0209 0.0000
# 6 0.0000 0.0000 0.0000 0.0000 0.0000 54.3723
#
#
#
# Elastic Compliance Matrix: (Units=1/GPa)
#
#
# Indices 1 2 3 4 5 6 
#
# 1 0.058301 -0.028928 0.005782 0.000000 0.000000 0.000000
# 2 -0.028928 0.025390 -0.004266 0.000000 0.000000 0.000000
# 3 0.005782 -0.004266 0.010592 0.000000 0.000000 0.000000
# 4 0.000000 0.000000 0.000000 0.019477 0.000000 0.000000
# 5 0.000000 0.000000 0.000000 0.000000 0.016388 0.000000
# 6 0.000000 0.000000 0.000000 0.000000 0.000000 0.018392
#
#
# Mechanical properties :
#
#
# Convention : Reuss Voigt Hill
#
# Bulk Modulus (GPa) = 25.34298 37.86206 31.60252
# Shear Modulus (GPa) = 23.09276 45.33232 34.21254
#
# Velocity S-wave (km/s) = 2.91058 4.07799 3.54270
# Velocity P-wave (km/s) = 4.53787 6.00523 5.32236
#
# Compressibility (1/GPa) = 0.03945867
#
# Stress axis : x y z
#
# Youngs Moduli (GPa) = 17.15233 39.38482 94.40926
#
# Poissons Ratio (x) = 1.13933 -0.54587
# Poissons Ratio (y) = 0.49619 0.40277
# Poissons Ratio (z) = -0.09917 0.16803
#
# Static dielectric constant tensor:
#      x y z
#    x 2.254180 0.000000 0.000000 
#    y 0.000000 2.005290 0.000000 
#    z 0.000000 0.000000 2.703110 
# 
# From -- ./inp_files/10531.got.cif
#   From: 2010.05.17/outbox.cif.g08.bks.cpg/sg20_6_cif.got.tgz:10531.got - 2010.06.03 22:52:26.
