data_PCOD9320940
_publ_section_title
;
Structure prediction by ZEFSAII (Michael W. Deem and Ramdas Pophale) SiO2 
 PCOD9320940
Probable space group: C 2 2 21
;
_chemical_formula_sum "Si O2"
_cell_formula_units_Z 24
_cell_length_a 7.096508
_cell_length_b 11.836283
_cell_length_c 10.721018
_cell_angle_alpha 90.000000
_cell_angle_beta 90.000000
_cell_angle_gamma 90.000000
_cell_volume 900.525598
_symmetry_space_group_name_H-M "C 2 2 21"
_symmetry_group_IT_number 20
_symmetry_cell_setting 'orthorhombic'
loop_
_space_group_symop_operation_xyz
x,y,z
-x,-y,1/2+z
x,-y,-z
-x,y,1/2-z
1/2+x,1/2+y,z
1/2-x,1/2-y,1/2+z
1/2+x,1/2-y,-z
1/2-x,1/2+y,1/2-z
loop_
_atom_site_type_symbol
_atom_site_label
_atom_site_fract_x
_atom_site_fract_y
_atom_site_fract_z
Si Si1 0.843814 0.479394 0.639686
Si Si2 0.501600 0.660879 0.616665
Si Si3 0.135199 0.261637 0.368140
O O1 0.926331 0.500000 0.500000
O O2 0.663083 0.567277 0.632634
O O3 0.739599 0.358849 0.650803
O O4 0.000000 0.488667 0.750000
O O5 0.500000 0.721164 0.750000
O O6 0.279980 0.635271 0.608598
O O7 0.533352 0.739224 0.498500
O O8 0.000000 0.277710 0.250000
#
# Coordination Sequence:
#
# PCOD9320940 Si02
#       3
#     8   8   8
#     4  10  24  45  70 103 141 183 233 293 354 418
#     4  11  24  42  69 102 137 184 232 286 351 417
#     4  11  24  45  70 103 143 183 235 293 352 419
#
# _framework density 26.651101000000001
#
# number of rings (size 3 to 8) (size 9 to 14) (size 15 to 20)
#    0.000    1.333    0.000    4.000    0.000    9.333 
#    0.000    0.000    0.000    0.000    0.000    0.000 
#    0.000    0.000    0.000    0.000    0.000    0.000 
#
# Total GULP energy -66950.035183 kJ/mol
# GULP energy per Si atom -5579.169599 kJ/mol
# Density = 2.659044 g / cm^3
# Si number density = 26.651101 Si / 1000 Ang^3
#
#
#
# Elastic Constant Matrix: (Units=GPa)
#
#
# Indices 1 2 3 4 5 6 
#
# 1 209.3832 73.6866 107.9851 0.0000 0.0000 0.0000
# 2 73.6866 106.2327 31.7953 0.0000 0.0000 0.0000
# 3 107.9851 31.7953 238.8069 0.0000 0.0000 0.0000
# 4 0.0000 0.0000 0.0000 -29.8446 0.0000 0.0000
# 5 0.0000 0.0000 0.0000 0.0000 78.6155 0.0000
# 6 0.0000 0.0000 0.0000 0.0000 0.0000 9.8330
#
#
#
# Elastic Compliance Matrix: (Units=1/GPa)
#
#
# Indices 1 2 3 4 5 6 
#
# 1 0.007932 -0.004612 -0.002973 0.000000 0.000000 0.000000
# 2 -0.004612 0.012486 0.000423 0.000000 0.000000 0.000000
# 3 -0.002973 0.000423 0.005475 0.000000 0.000000 0.000000
# 4 0.000000 0.000000 0.000000 -0.033507 0.000000 0.000000
# 5 0.000000 0.000000 0.000000 0.000000 0.012720 0.000000
# 6 0.000000 0.000000 0.000000 0.000000 0.000000 0.101699
#
#
# Mechanical properties :
#
#
# Convention : Reuss Voigt Hill
#
# Bulk Modulus (GPa) = 86.43188 109.03964 97.73576
# Shear Modulus (GPa) = 40.00458 34.45117 37.22787
#
# Velocity S-wave (km/s) = 3.87854 3.59928 3.74151
# Velocity P-wave (km/s) = 7.24974 7.63385 7.44427
#
# Compressibility (1/GPa) = 0.01156980
#
# Stress axis : x y z
#
# Youngs Moduli (GPa) = 126.06753 80.09030 182.63600
#
# Poissons Ratio (x) = 0.36940 0.54293
# Poissons Ratio (y) = 0.58147 -0.07730
# Poissons Ratio (z) = 0.37477 -0.03390
#
# Static dielectric constant tensor:
#      x y z
#    x 2.457250 0.000000 0.000000 
#    y 0.000000 2.111590 0.000000 
#    z 0.000000 0.000000 2.426960 
# 
# From -- ./inp_files/11737.got.cif
#   From: 2010.05.17/outbox.cif.g08.bks.cpg/sg20_6_cif.got.tgz:11737.got - 2010.06.03 22:52:26.
