data_PCOD9320215
_publ_section_title
;
Structure prediction by ZEFSAII (Michael W. Deem and Ramdas Pophale) SiO2 
 PCOD9320215
Probable space group: C 2 2 21
;
_chemical_formula_sum "Si O2"
_cell_formula_units_Z 56
_cell_length_a 5.326612
_cell_length_b 29.791943
_cell_length_c 14.433025
_cell_angle_alpha 90.000000
_cell_angle_beta 90.000000
_cell_angle_gamma 90.000000
_cell_volume 2290.378485
_symmetry_space_group_name_H-M "C 2 2 21"
_symmetry_group_IT_number 20
_symmetry_cell_setting 'orthorhombic'
loop_
_space_group_symop_operation_xyz
x,y,z
-x,-y,1/2+z
x,-y,-z
-x,y,1/2-z
1/2+x,1/2+y,z
1/2-x,1/2-y,1/2+z
1/2+x,1/2-y,-z
1/2-x,1/2+y,1/2-z
loop_
_atom_site_type_symbol
_atom_site_label
_atom_site_fract_x
_atom_site_fract_y
_atom_site_fract_z
Si Si1 0.604554 0.802779 0.645035
Si Si2 0.149892 0.389199 0.894747
Si Si3 0.500000 0.842657 0.250000
Si Si4 0.394364 0.008420 0.395059
Si Si5 0.500000 0.336592 0.750000
Si Si6 0.627138 0.624796 0.594769
Si Si7 0.883962 0.787488 0.354490
Si Si8 0.885404 0.039662 0.650375
O O1 0.500000 0.807046 0.750000
O O2 0.562701 0.850978 0.600418
O O3 0.456674 0.760846 0.603831
O O4 0.895240 0.801894 0.671402
O O5 0.078439 0.439601 0.868884
O O6 0.335139 0.369903 0.814842
O O7 0.248373 0.390496 0.999627
O O8 0.695935 0.871843 0.187690
O O9 0.617794 0.809254 0.328070
O O10 0.476068 0.000000 0.500000
O O11 0.608266 0.979836 0.344284
O O12 0.103210 0.992898 0.391332
O O13 0.520522 0.674700 0.585990
O O14 0.403586 0.588945 0.606792
O O15 0.000000 0.786162 0.250000
O O16 0.000000 0.045743 0.750000
#
# Coordination Sequence:
#
# PCOD9320215 Si02
#       8
#     8   8   4   8   4   8   8   8
#     4   9  21  42  68 104 138 190 242 297 368 438
#     4  11  26  46  69 107 140 196 248 310 372 452
#     4  10  22  43  76 104 152 194 240 306 379 460
#     4  12  28  49  75 105 149 196 251 317 385 447
#     4  10  24  45  78  96 154 194 250 306 373 446
#     4  11  25  44  70 109 144 192 241 308 379 456
#     4   9  20  40  69 106 142 186 240 291 375 441
#     4  12  28  47  76 110 145 193 251 311 382 456
#
# _framework density 24.450109999999999
#
# number of rings (size 3 to 8) (size 9 to 14) (size 15 to 20)
#    0.000    1.429    1.429    2.143    7.000   12.571 
#    5.143    0.000    0.000    0.000    0.000    0.000 
#    0.000    0.000    0.000    0.000    0.000    0.000 
#
# Total GULP energy -156093.891272 kJ/mol
# GULP energy per Si atom -5574.781831 kJ/mol
# Density = 2.439446 g / cm^3
# Si number density = 24.450110 Si / 1000 Ang^3
#
#
#
# Elastic Constant Matrix: (Units=GPa)
#
#
# Indices 1 2 3 4 5 6 
#
# 1 75.7551 39.0426 15.4551 0.0000 0.0000 0.0000
# 2 39.0426 167.1076 22.4337 0.0000 0.0000 0.0000
# 3 15.4551 22.4337 57.7180 0.0000 0.0000 0.0000
# 4 0.0000 0.0000 0.0000 81.3423 0.0000 0.0000
# 5 0.0000 0.0000 0.0000 0.0000 1.2563 0.0000
# 6 0.0000 0.0000 0.0000 0.0000 0.0000 13.3393
#
#
#
# Elastic Compliance Matrix: (Units=1/GPa)
#
#
# Indices 1 2 3 4 5 6 
#
# 1 0.015450 -0.003222 -0.002884 0.000000 0.000000 0.000000
# 2 -0.003222 0.006986 -0.001852 0.000000 0.000000 0.000000
# 3 -0.002884 -0.001852 0.018818 0.000000 0.000000 0.000000
# 4 0.000000 0.000000 0.000000 0.012294 0.000000 0.000000
# 5 0.000000 0.000000 0.000000 0.000000 0.795967 0.000000
# 6 0.000000 0.000000 0.000000 0.000000 0.000000 0.074966
#
#
# Mechanical properties :
#
#
# Convention : Reuss Voigt Hill
#
# Bulk Modulus (GPa) = 39.47120 50.49374 44.98247
# Shear Modulus (GPa) = 5.26957 34.09754 19.68355
#
# Velocity S-wave (km/s) = 1.46966 3.73845 2.84042
# Velocity P-wave (km/s) = 4.36560 6.27147 5.40323
#
# Compressibility (1/GPa) = 0.02533493
#
# Stress axis : x y z
#
# Youngs Moduli (GPa) = 64.72638 143.14937 53.14069
#
# Poissons Ratio (x) = 0.46128 0.15328
# Poissons Ratio (y) = 0.20857 0.09843
# Poissons Ratio (z) = 0.18670 0.26516
#
# Static dielectric constant tensor:
#      x y z
#    x 1.810260 0.000000 0.000000 
#    y 0.000000 2.229780 0.000000 
#    z 0.000000 0.000000 2.024540 
# 
# From -- ./inp_files/18026.got.cif
#   From: 2010.05.17/outbox.cif.g08.bks.cpg/sg20_10_cif.got.tgz:18026.got - 2010.06.03 22:52:26.
