data_PCOD9320813
_publ_section_title
;
Structure prediction by ZEFSAII (Michael W. Deem and Ramdas Pophale) SiO2 
 PCOD9320813
Probable space group: C 2 2 21
;
_chemical_formula_sum "Si O2"
_cell_formula_units_Z 44
_cell_length_a 6.825680
_cell_length_b 24.936426
_cell_length_c 13.117286
_cell_angle_alpha 90.000000
_cell_angle_beta 90.000000
_cell_angle_gamma 90.000000
_cell_volume 2232.667858
_symmetry_space_group_name_H-M "C 2 2 21"
_symmetry_group_IT_number 20
_symmetry_cell_setting 'orthorhombic'
loop_
_space_group_symop_operation_xyz
x,y,z
-x,-y,1/2+z
x,-y,-z
-x,y,1/2-z
1/2+x,1/2+y,z
1/2-x,1/2-y,1/2+z
1/2+x,1/2-y,-z
1/2-x,1/2+y,1/2-z
loop_
_atom_site_type_symbol
_atom_site_label
_atom_site_fract_x
_atom_site_fract_y
_atom_site_fract_z
Si Si1 0.612448 0.978271 0.154946
Si Si2 0.000000 0.046799 0.750000
Si Si3 0.859079 0.125556 0.572648
Si Si4 0.492948 0.082492 0.046781
Si Si5 0.934894 0.720204 0.866411
Si Si6 0.256606 0.678716 0.024040
O O1 0.500000 0.952646 0.250000
O O2 0.833533 0.986278 0.191731
O O3 0.510218 0.034026 0.125426
O O4 0.594132 0.940222 0.057142
O O5 0.905042 0.084501 0.663507
O O6 0.727188 0.097154 0.485710
O O7 0.724348 0.173612 0.614745
O O8 0.059589 0.149015 0.527825
O O9 0.615800 0.134813 0.076792
O O10 0.000000 0.721311 0.750000
O O11 0.120829 0.706583 0.938123
O O12 0.839921 0.776000 0.901714
#
# Coordination Sequence:
#
# PCOD9320813 Si02
#       6
#     8   4   8   8   8   8
#     4  11  23  43  62  94 125 165 214 270 315 377
#     4  12  22  38  72  96 118 166 228 266 320 372
#     4  11  22  40  67  94 125 167 213 271 313 379
#     4  10  24  42  63  89 133 164 209 264 323 375
#     4  11  24  41  66  96 131 166 215 265 321 386
#     4  11  22  44  64  96 131 171 212 262 324 387
#
# _framework density 19.707363999999998
#
# number of rings (size 3 to 8) (size 9 to 14) (size 15 to 20)
#    0.000    1.091    5.455    1.091    2.545    1.455 
#    4.909    0.000    0.000    0.000    0.000    0.000 
#    0.000    0.000    0.000    0.000    0.000    0.000 
#
# Total GULP energy -122968.895127 kJ/mol
# GULP energy per Si atom -5589.495233 kJ/mol
# Density = 1.966251 g / cm^3
# Si number density = 19.707364 Si / 1000 Ang^3
#
#
#
# Elastic Constant Matrix: (Units=GPa)
#
#
# Indices 1 2 3 4 5 6 
#
# 1 98.2120 20.5719 -0.4954 0.0000 0.0000 0.0000
# 2 20.5719 78.8038 -0.5744 0.0000 0.0000 0.0000
# 3 -0.4954 -0.5744 19.6424 0.0000 0.0000 0.0000
# 4 0.0000 0.0000 0.0000 8.7062 0.0000 0.0000
# 5 0.0000 0.0000 0.0000 0.0000 16.7596 0.0000
# 6 0.0000 0.0000 0.0000 0.0000 0.0000 27.2738
#
#
#
# Elastic Compliance Matrix: (Units=1/GPa)
#
#
# Indices 1 2 3 4 5 6 
#
# 1 0.010772 -0.002811 0.000189 0.000000 0.000000 0.000000
# 2 -0.002811 0.013426 0.000322 0.000000 0.000000 0.000000
# 3 0.000189 0.000322 0.050924 0.000000 0.000000 0.000000
# 4 0.000000 0.000000 0.000000 0.114861 0.000000 0.000000
# 5 0.000000 0.000000 0.000000 0.000000 0.059667 0.000000
# 6 0.000000 0.000000 0.000000 0.000000 0.000000 0.036665
#
#
# Mechanical properties :
#
#
# Convention : Reuss Voigt Hill
#
# Bulk Modulus (GPa) = 14.17972 26.18470 20.18221
# Shear Modulus (GPa) = 15.90218 22.35832 19.13025
#
# Velocity S-wave (km/s) = 2.84371 3.37191 3.11901
# Velocity P-wave (km/s) = 4.24181 5.33623 4.82018
#
# Compressibility (1/GPa) = 0.07052326
#
# Stress axis : x y z
#
# Youngs Moduli (GPa) = 92.83560 74.48343 19.63693
#
# Poissons Ratio (x) = 0.20934 -0.00372
# Poissons Ratio (y) = 0.26092 -0.00632
# Poissons Ratio (z) = -0.01759 -0.02396
#
# Static dielectric constant tensor:
#      x y z
#    x 1.701780 0.000000 0.000000 
#    y 0.000000 1.686530 0.000000 
#    z 0.000000 0.000000 1.696120 
# 
# From -- ./inp_files/17722.got.cif
#   From: 2010.05.17/outbox.cif.g08.bks.cpg/sg20_9_cif.got.tgz:17722.got - 2010.06.03 22:52:26.
