data_PCOD9320374
_publ_section_title
;
Structure prediction by ZEFSAII (Michael W. Deem and Ramdas Pophale) SiO2 
 PCOD9320374
Probable space group: C 2 2 21
;
_chemical_formula_sum "Si O2"
_cell_formula_units_Z 40
_cell_length_a 14.855222
_cell_length_b 9.120208
_cell_length_c 10.943512
_cell_angle_alpha 90.000000
_cell_angle_beta 90.000000
_cell_angle_gamma 90.000000
_cell_volume 1482.656712
_symmetry_space_group_name_H-M "C 2 2 21"
_symmetry_group_IT_number 20
_symmetry_cell_setting 'orthorhombic'
loop_
_space_group_symop_operation_xyz
x,y,z
-x,-y,1/2+z
x,-y,-z
-x,y,1/2-z
1/2+x,1/2+y,z
1/2-x,1/2-y,1/2+z
1/2+x,1/2-y,-z
1/2-x,1/2+y,1/2-z
loop_
_atom_site_type_symbol
_atom_site_label
_atom_site_fract_x
_atom_site_fract_y
_atom_site_fract_z
Si Si1 0.000000 0.091639 0.250000
Si Si2 0.298243 0.535520 0.742635
Si Si3 0.437238 0.675441 0.495528
Si Si4 0.653248 0.117268 0.406635
Si Si5 0.760325 0.312721 0.574545
Si Si6 0.500000 0.797166 0.750000
O O1 0.095514 0.002833 0.256163
O O2 0.008406 0.189744 0.129112
O O3 0.249875 0.441685 0.637334
O O4 0.256160 0.470589 0.866501
O O5 0.273010 0.696911 0.691305
O O6 0.418076 0.500000 0.500000
O O7 0.351431 0.780804 0.501148
O O8 0.486943 0.714809 0.621088
O O9 0.678392 0.258696 0.488134
O O10 0.612402 0.000000 0.500000
O O11 0.910138 0.381308 0.788032
#
# Coordination Sequence:
#
# PCOD9320374 Si02
#       6
#     4   8   8   8   8   4
#     4  12  23  42  75 116 146 203 259 324 370 475
#     4  11  23  43  75 108 154 202 257 312 398 450
#     4  12  23  41  73 108 151 195 253 313 387 450
#     4  10  22  46  74 106 150 208 255 322 384 461
#     4  11  22  46  74 110 155 206 251 328 388 464
#     4  12  25  44  77 110 152 205 267 312 392 465
#
# _framework density 26.9786
#
# number of rings (size 3 to 8) (size 9 to 14) (size 15 to 20)
#    0.000    0.800    6.000    2.400    0.000    0.000 
#    0.000   10.000    0.000    1.200    0.000    0.000 
#    0.000    0.000    0.000    0.000    0.000    0.000 
#
# Total GULP energy -111806.099458 kJ/mol
# GULP energy per Si atom -5590.304973 kJ/mol
# Density = 2.691720 g / cm^3
# Si number density = 26.978600 Si / 1000 Ang^3
#
#
#
# Elastic Constant Matrix: (Units=GPa)
#
#
# Indices 1 2 3 4 5 6 
#
# 1 151.6290 26.1067 68.5104 0.0000 0.0000 0.0000
# 2 26.1067 89.9258 44.9102 0.0000 0.0000 0.0000
# 3 68.5104 44.9102 203.1768 0.0000 0.0000 0.0000
# 4 0.0000 0.0000 0.0000 52.4415 0.0000 0.0000
# 5 0.0000 0.0000 0.0000 0.0000 76.0991 0.0000
# 6 0.0000 0.0000 0.0000 0.0000 0.0000 14.4475
#
#
#
# Elastic Compliance Matrix: (Units=1/GPa)
#
#
# Indices 1 2 3 4 5 6 
#
# 1 0.007872 -0.001079 -0.002416 0.000000 0.000000 0.000000
# 2 -0.001079 0.012648 -0.002432 0.000000 0.000000 0.000000
# 3 -0.002416 -0.002432 0.006274 0.000000 0.000000 0.000000
# 4 0.000000 0.000000 0.000000 0.019069 0.000000 0.000000
# 5 0.000000 0.000000 0.000000 0.000000 0.013141 0.000000
# 6 0.000000 0.000000 0.000000 0.000000 0.000000 0.069216
#
#
# Mechanical properties :
#
#
# Convention : Reuss Voigt Hill
#
# Bulk Modulus (GPa) = 66.93084 80.42070 73.67577
# Shear Modulus (GPa) = 34.46984 48.94457 41.70720
#
# Velocity S-wave (km/s) = 3.57833 4.26396 3.93611
# Velocity P-wave (km/s) = 6.47575 7.35633 6.93004
#
# Compressibility (1/GPa) = 0.01494080
#
# Stress axis : x y z
#
# Youngs Moduli (GPa) = 127.02513 79.06369 159.38612
#
# Poissons Ratio (x) = 0.08530 0.38509
# Poissons Ratio (y) = 0.13704 0.38762
# Poissons Ratio (z) = 0.30690 0.19228
#
# Static dielectric constant tensor:
#      x y z
#    x 2.166170 0.000000 0.000000 
#    y 0.000000 2.251060 0.000000 
#    z 0.000000 0.000000 2.167470 
# 
# From -- ./inp_files/14895.got.cif
#   From: 2010.05.17/outbox.cif.g08.bks.cpg/sg20_8_cif.got.tgz:14895.got - 2010.06.03 22:52:26.
