data_PCOD9320090
_publ_section_title
;
Structure prediction by ZEFSAII (Michael W. Deem and Ramdas Pophale) SiO2 
 PCOD9320090
Probable space group: C 2 2 21
;
_chemical_formula_sum "Si O2"
_cell_formula_units_Z 28
_cell_length_a 12.222279
_cell_length_b 8.106809
_cell_length_c 11.488534
_cell_angle_alpha 90.000000
_cell_angle_beta 90.000000
_cell_angle_gamma 90.000000
_cell_volume 1138.326243
_symmetry_space_group_name_H-M "C 2 2 21"
_symmetry_group_IT_number 20
_symmetry_cell_setting 'orthorhombic'
loop_
_space_group_symop_operation_xyz
x,y,z
-x,-y,1/2+z
x,-y,-z
-x,y,1/2-z
1/2+x,1/2+y,z
1/2-x,1/2-y,1/2+z
1/2+x,1/2-y,-z
1/2-x,1/2+y,1/2-z
loop_
_atom_site_type_symbol
_atom_site_label
_atom_site_fract_x
_atom_site_fract_y
_atom_site_fract_z
Si Si1 0.048400 0.327347 0.948028
Si Si2 0.663155 0.000000 0.500000
Si Si3 0.193004 0.866202 0.212546
Si Si4 0.103524 0.793160 0.815085
O O1 0.070074 0.196304 0.050621
O O2 0.093791 0.500000 0.000000
O O3 0.109340 0.271574 0.832969
O O4 0.919685 0.366691 0.942500
O O5 0.734986 0.081989 0.599535
O O6 0.283337 0.804318 0.302167
O O7 0.127039 0.030702 0.244314
O O8 0.000000 0.711209 0.750000
#
# Coordination Sequence:
#
# PCOD9320090 Si02
#       4
#     8   4   8   8
#     4  10  22  44  64  92 130 170 209 267 321 374
#     4  10  22  42  68  86 136 168 210 266 320 376
#     4  12  24  44  65  97 131 172 213 265 326 376
#     4  12  24  41  65  99 128 167 223 264 315 390
#
# _framework density 24.597518000000001
#
# number of rings (size 3 to 8) (size 9 to 14) (size 15 to 20)
#    0.857    0.000    5.714    1.714    0.000    2.286 
#    5.143    0.000    0.000    0.000    0.000    0.000 
#    0.000    0.000    0.000    0.000    0.000    0.000 
#
# Total GULP energy -78323.226123 kJ/mol
# GULP energy per Si atom -5594.516152 kJ/mol
# Density = 2.454153 g / cm^3
# Si number density = 24.597518 Si / 1000 Ang^3
#
#
#
# Elastic Constant Matrix: (Units=GPa)
#
#
# Indices 1 2 3 4 5 6 
#
# 1 147.9232 12.4056 34.1214 0.0000 0.0000 0.0000
# 2 12.4056 64.0791 -16.0707 0.0000 0.0000 0.0000
# 3 34.1214 -16.0707 57.5932 0.0000 0.0000 0.0000
# 4 0.0000 0.0000 0.0000 29.5155 0.0000 0.0000
# 5 0.0000 0.0000 0.0000 0.0000 35.8068 0.0000
# 6 0.0000 0.0000 0.0000 0.0000 0.0000 42.2110
#
#
#
# Elastic Compliance Matrix: (Units=1/GPa)
#
#
# Indices 1 2 3 4 5 6 
#
# 1 0.008358 -0.003075 -0.005810 0.000000 0.000000 0.000000
# 2 -0.003075 0.017912 0.006820 0.000000 0.000000 0.000000
# 3 -0.005810 0.006820 0.022708 0.000000 0.000000 0.000000
# 4 0.000000 0.000000 0.000000 0.033881 0.000000 0.000000
# 5 0.000000 0.000000 0.000000 0.000000 0.027928 0.000000
# 6 0.000000 0.000000 0.000000 0.000000 0.000000 0.023691
#
#
# Mechanical properties :
#
#
# Convention : Reuss Voigt Hill
#
# Bulk Modulus (GPa) = 22.29782 36.72312 29.51047
# Shear Modulus (GPa) = 32.56120 37.44928 35.00524
#
# Velocity S-wave (km/s) = 3.64230 3.90613 3.77652
# Velocity P-wave (km/s) = 5.17428 5.94187 5.57131
#
# Compressibility (1/GPa) = 0.04484744
#
# Stress axis : x y z
#
# Youngs Moduli (GPa) = 119.64030 55.83003 44.03654
#
# Poissons Ratio (x) = 0.17169 0.25586
# Poissons Ratio (y) = 0.36793 -0.30033
# Poissons Ratio (z) = 0.69512 -0.38076
#
# Static dielectric constant tensor:
#      x y z
#    x 1.914590 0.000000 0.000000 
#    y 0.000000 2.046790 0.000000 
#    z 0.000000 0.000000 1.970600 
# 
# From -- ./inp_files/14594.got.cif
#   From: 2010.05.17/outbox.cif.g08.bks.cpg/sg20_8_cif.got.tgz:14594.got - 2010.06.03 22:52:26.
