data_PCOD9320381
_publ_section_title
;
Structure prediction by ZEFSAII (Michael W. Deem and Ramdas Pophale) SiO2 
 PCOD9320381
Probable space group: C 2 2 21
;
_chemical_formula_sum "Si O2"
_cell_formula_units_Z 48
_cell_length_a 6.151741
_cell_length_b 26.620527
_cell_length_c 14.578890
_cell_angle_alpha 90.000000
_cell_angle_beta 90.000000
_cell_angle_gamma 90.000000
_cell_volume 2387.476748
_symmetry_space_group_name_H-M "C 2 2 21"
_symmetry_group_IT_number 20
_symmetry_cell_setting 'orthorhombic'
loop_
_space_group_symop_operation_xyz
x,y,z
-x,-y,1/2+z
x,-y,-z
-x,y,1/2-z
1/2+x,1/2+y,z
1/2-x,1/2-y,1/2+z
1/2+x,1/2-y,-z
1/2-x,1/2+y,1/2-z
loop_
_atom_site_type_symbol
_atom_site_label
_atom_site_fract_x
_atom_site_fract_y
_atom_site_fract_z
Si Si1 0.239575 0.870128 0.505579
Si Si2 0.000000 0.496552 0.250000
Si Si3 0.393236 0.237850 0.459364
Si Si4 0.391019 0.500000 0.500000
Si Si5 0.128858 0.053634 0.344118
Si Si6 0.093486 0.832262 0.149190
Si Si7 0.114061 0.578955 0.595982
O O1 0.376381 0.822235 0.540524
O O2 0.140172 0.897021 0.593889
O O3 0.383983 0.910477 0.450771
O O4 0.067091 0.850984 0.431223
O O5 0.140351 0.532467 0.186326
O O6 0.121325 0.458897 0.318611
O O7 0.648227 0.248037 0.494881
O O8 0.376975 0.273059 0.369654
O O9 0.527648 0.511239 0.409543
O O10 0.253713 0.550115 0.519407
O O11 0.000000 0.060919 0.250000
O O12 0.301534 0.867278 0.131553
O O13 0.000000 0.841243 0.250000
#
# Coordination Sequence:
#
# PCOD9320381 Si02
#       7
#     8   4   8   4   8   8   8
#     4  11  24  45  72  98 143 187 234 292 373 436
#     4  12  26  40  66  98 140 176 240 290 346 426
#     4  10  22  47  71 102 142 189 238 304 368 433
#     4  12  24  44  66  92 142 180 224 292 350 418
#     4  12  26  46  65 101 135 186 234 289 356 435
#     4  11  24  43  70 106 138 185 241 300 361 437
#     4  12  23  41  67 100 136 185 231 293 353 430
#
# _framework density 20.104906
#
# number of rings (size 3 to 8) (size 9 to 14) (size 15 to 20)
#    0.000    0.667    5.000    3.000    2.333    0.000 
#    1.500    3.333    0.000    0.000    0.000    0.000 
#    0.000    0.000    0.000    0.000    0.000    0.000 
#
# Total GULP energy -133693.451339 kJ/mol
# GULP energy per Si atom -5570.560472 kJ/mol
# Density = 2.005915 g / cm^3
# Si number density = 20.104906 Si / 1000 Ang^3
#
#
#
# Elastic Constant Matrix: (Units=GPa)
#
#
# Indices 1 2 3 4 5 6 
#
# 1 46.9024 0.5963 20.5687 0.0000 0.0000 0.0000
# 2 0.5963 64.5840 25.3839 0.0000 0.0000 0.0000
# 3 20.5687 25.3839 116.9780 0.0000 0.0000 0.0000
# 4 0.0000 0.0000 0.0000 36.8840 0.0000 0.0000
# 5 0.0000 0.0000 0.0000 0.0000 28.9653 0.0000
# 6 0.0000 0.0000 0.0000 0.0000 0.0000 36.1903
#
#
#
# Elastic Compliance Matrix: (Units=1/GPa)
#
#
# Indices 1 2 3 4 5 6 
#
# 1 0.023238 0.001521 -0.004416 0.000000 0.000000 0.000000
# 2 0.001521 0.017027 -0.003962 0.000000 0.000000 0.000000
# 3 -0.004416 -0.003962 0.010185 0.000000 0.000000 0.000000
# 4 0.000000 0.000000 0.000000 0.027112 0.000000 0.000000
# 5 0.000000 0.000000 0.000000 0.000000 0.034524 0.000000
# 6 0.000000 0.000000 0.000000 0.000000 0.000000 0.027632
#
#
# Mechanical properties :
#
#
# Convention : Reuss Voigt Hill
#
# Bulk Modulus (GPa) = 27.22156 35.72914 31.47535
# Shear Modulus (GPa) = 30.17907 32.53562 31.35735
#
# Velocity S-wave (km/s) = 3.87858 4.02716 3.95357
# Velocity P-wave (km/s) = 5.79888 6.27965 6.04405
#
# Compressibility (1/GPa) = 0.03673559
#
# Stress axis : x y z
#
# Youngs Moduli (GPa) = 43.03256 58.73031 98.18429
#
# Poissons Ratio (x) = -0.08934 0.43360
# Poissons Ratio (y) = -0.06546 0.38903
# Poissons Ratio (z) = 0.19004 0.23271
#
# Static dielectric constant tensor:
#      x y z
#    x 1.765740 0.000000 0.000000 
#    y 0.000000 1.707040 0.000000 
#    z 0.000000 0.000000 1.750850 
# 
# From -- ./inp_files/17823.got.cif
#   From: 2010.05.17/outbox.cif.g08.bks.cpg/sg20_9_cif.got.tgz:17823.got - 2010.06.03 22:52:26.
