data_PCOD9320900
_publ_section_title
;
Structure prediction by ZEFSAII (Michael W. Deem and Ramdas Pophale) SiO2 
 PCOD9320900
Probable space group: C 2 2 21
;
_chemical_formula_sum "Si O2"
_cell_formula_units_Z 52
_cell_length_a 6.866617
_cell_length_b 18.126049
_cell_length_c 20.106849
_cell_angle_alpha 90.000000
_cell_angle_beta 90.000000
_cell_angle_gamma 90.000000
_cell_volume 2502.591646
_symmetry_space_group_name_H-M "C 2 2 21"
_symmetry_group_IT_number 20
_symmetry_cell_setting 'orthorhombic'
loop_
_space_group_symop_operation_xyz
x,y,z
-x,-y,1/2+z
x,-y,-z
-x,y,1/2-z
1/2+x,1/2+y,z
1/2-x,1/2-y,1/2+z
1/2+x,1/2-y,-z
1/2-x,1/2+y,1/2-z
loop_
_atom_site_type_symbol
_atom_site_label
_atom_site_fract_x
_atom_site_fract_y
_atom_site_fract_z
Si Si1 0.538514 0.704255 0.674693
Si Si2 0.504147 0.949992 0.064828
Si Si3 0.690145 0.207567 0.569747
Si Si4 0.327342 0.703956 0.420852
Si Si5 0.500000 0.042604 0.250000
Si Si6 0.782269 0.947890 0.642770
Si Si7 0.828646 0.962487 0.165616
O O1 0.500000 0.732451 0.750000
O O2 0.348957 0.697912 0.627370
O O3 0.689793 0.752470 0.630963
O O4 0.615719 0.620690 0.683203
O O5 0.443169 0.865094 0.059012
O O6 0.720000 0.958525 0.094657
O O7 0.343174 0.985143 0.113555
O O8 0.492747 0.000000 0.000000
O O9 0.548173 0.272636 0.591763
O O10 0.781069 0.223640 0.497425
O O11 0.309643 0.616653 0.410208
O O12 0.362794 0.085567 0.198668
O O13 0.661038 0.992605 0.213768
O O14 0.986718 0.982762 0.665750
#
# Coordination Sequence:
#
# PCOD9320900 Si02
#       7
#     8   8   8   8   4   8   8
#     4  12  27  45  73 104 143 189 243 292 354 430
#     4  11  23  41  72 105 135 178 243 285 344 432
#     4  12  25  47  72 103 143 186 238 295 359 421
#     4  12  27  45  73 103 144 188 233 298 362 417
#     4  10  24  44  70  96 142 176 238 288 354 418
#     4  11  24  43  68 101 135 182 230 290 350 418
#     4  11  24  43  72 102 137 186 232 295 353 417
#
# _framework density 20.778459999999999
#
# number of rings (size 3 to 8) (size 9 to 14) (size 15 to 20)
#    0.000    0.615    6.154    1.385    3.231    6.154 
#    2.769    0.000    0.000    0.000    0.000    0.000 
#    0.000    0.000    0.000    0.000    0.000    0.000 
#
# Total GULP energy -145218.652579 kJ/mol
# GULP energy per Si atom -5585.332791 kJ/mol
# Density = 2.073117 g / cm^3
# Si number density = 20.778460 Si / 1000 Ang^3
#
#
#
# Elastic Constant Matrix: (Units=GPa)
#
#
# Indices 1 2 3 4 5 6 
#
# 1 111.4845 13.0051 34.7522 0.0000 0.0000 0.0000
# 2 13.0051 52.0883 -1.4290 0.0000 0.0000 0.0000
# 3 34.7522 -1.4290 110.0815 0.0000 0.0000 0.0000
# 4 0.0000 0.0000 0.0000 20.9852 0.0000 0.0000
# 5 0.0000 0.0000 0.0000 0.0000 36.0936 0.0000
# 6 0.0000 0.0000 0.0000 0.0000 0.0000 9.2798
#
#
#
# Elastic Compliance Matrix: (Units=1/GPa)
#
#
# Indices 1 2 3 4 5 6 
#
# 1 0.010305 -0.002663 -0.003288 0.000000 0.000000 0.000000
# 2 -0.002663 0.019893 0.001099 0.000000 0.000000 0.000000
# 3 -0.003288 0.001099 0.010136 0.000000 0.000000 0.000000
# 4 0.000000 0.000000 0.000000 0.047653 0.000000 0.000000
# 5 0.000000 0.000000 0.000000 0.000000 0.027706 0.000000
# 6 0.000000 0.000000 0.000000 0.000000 0.000000 0.107761
#
#
# Mechanical properties :
#
#
# Convention : Reuss Voigt Hill
#
# Bulk Modulus (GPa) = 32.64687 40.70122 36.67404
# Shear Modulus (GPa) = 20.54488 28.42676 24.48582
#
# Velocity S-wave (km/s) = 3.14786 3.70278 3.43654
# Velocity P-wave (km/s) = 5.38127 6.15723 5.78228
#
# Compressibility (1/GPa) = 0.03063081
#
# Stress axis : x y z
#
# Youngs Moduli (GPa) = 97.03592 50.26830 98.65405
#
# Poissons Ratio (x) = 0.13388 0.32437
# Poissons Ratio (y) = 0.25843 -0.10842
# Poissons Ratio (z) = 0.31905 -0.05525
#
# Static dielectric constant tensor:
#      x y z
#    x 1.729170 0.000000 0.000000 
#    y 0.000000 1.707180 0.000000 
#    z 0.000000 0.000000 1.826590 
# 
# From -- ./inp_files/26093.got.cif
#   From: 2010.05.17/outbox.cif.g08.bks.cpg/sg20_14_cif.got.tgz:26093.got - 2010.06.03 22:52:26.
