data_PCOD9320385
_publ_section_title
;
Structure prediction by ZEFSAII (Michael W. Deem and Ramdas Pophale) SiO2 
 PCOD9320385
Probable space group: C 2 2 21
;
_chemical_formula_sum "Si O2"
_cell_formula_units_Z 52
_cell_length_a 11.204254
_cell_length_b 8.856302
_cell_length_c 26.160557
_cell_angle_alpha 90.000000
_cell_angle_beta 90.000000
_cell_angle_gamma 90.000000
_cell_volume 2595.866476
_symmetry_space_group_name_H-M "C 2 2 21"
_symmetry_group_IT_number 20
_symmetry_cell_setting 'orthorhombic'
loop_
_space_group_symop_operation_xyz
x,y,z
-x,-y,1/2+z
x,-y,-z
-x,y,1/2-z
1/2+x,1/2+y,z
1/2-x,1/2-y,1/2+z
1/2+x,1/2-y,-z
1/2-x,1/2+y,1/2-z
loop_
_atom_site_type_symbol
_atom_site_label
_atom_site_fract_x
_atom_site_fract_y
_atom_site_fract_z
Si Si1 0.280908 0.761713 0.928318
Si Si2 0.995359 0.758819 0.566998
Si Si3 0.926104 0.700149 0.174954
Si Si4 0.877076 0.000000 0.000000
Si Si5 0.406515 0.000000 0.000000
Si Si6 0.653935 0.654801 0.776551
Si Si7 0.408747 0.152079 0.830087
Si Si8 0.000000 0.122679 0.250000
O O1 0.358218 0.750438 0.876422
O O2 0.303385 0.620710 0.966439
O O3 0.141154 0.772097 0.915764
O O4 0.325698 0.909573 0.959200
O O5 0.010853 0.623230 0.526954
O O6 0.082989 0.714420 0.612946
O O7 0.040606 0.908111 0.539219
O O8 0.850465 0.740786 0.225905
O O9 0.950176 0.521385 0.171938
O O10 0.050193 0.786389 0.185398
O O11 0.778327 0.654610 0.805070
O O12 0.611461 0.490094 0.757404
O O13 0.488078 0.266731 0.797551
#
# Coordination Sequence:
#
# PCOD9320385 Si02
#       8
#     8   8   8   4   4   8   8   4
#     4  11  23  44  68  93 132 163 215 268 318 385
#     4  11  25  41  69  98 123 172 213 264 328 381
#     4  10  23  45  65  95 130 176 208 266 324 373
#     4  10  26  44  64  96 128 170 214 264 328 372
#     4  10  22  48  60  96 128 166 212 268 324 382
#     4  10  25  45  62  94 138 168 212 268 315 385
#     4  12  24  40  68  97 126 169 215 259 323 380
#     4  10  24  40  64  94 130 170 216 252 316 386
#
# _framework density 20.031846999999999
#
# number of rings (size 3 to 8) (size 9 to 14) (size 15 to 20)
#    0.000    1.538    1.538    2.769    8.615    1.231 
#   11.077    0.000    0.000    0.000    0.000    0.000 
#    0.000    0.000    0.000    0.000    0.000    0.000 
#
# Total GULP energy -145285.216475 kJ/mol
# GULP energy per Si atom -5587.892941 kJ/mol
# Density = 1.998625 g / cm^3
# Si number density = 20.031847 Si / 1000 Ang^3
#
#
#
# Elastic Constant Matrix: (Units=GPa)
#
#
# Indices 1 2 3 4 5 6 
#
# 1 14.6552 6.3150 13.7450 0.0000 0.0000 0.0000
# 2 6.3150 99.0710 13.5328 0.0000 0.0000 0.0000
# 3 13.7450 13.5328 81.2971 0.0000 0.0000 0.0000
# 4 0.0000 0.0000 0.0000 27.5385 0.0000 0.0000
# 5 0.0000 0.0000 0.0000 0.0000 27.8017 0.0000
# 6 0.0000 0.0000 0.0000 0.0000 0.0000-1840.3709
#
#
#
# Elastic Compliance Matrix: (Units=1/GPa)
#
#
# Indices 1 2 3 4 5 6 
#
# 1 0.082211 -0.003419 -0.013330 0.000000 0.000000 0.000000
# 2 -0.003419 0.010471 -0.001165 0.000000 0.000000 0.000000
# 3 -0.013330 -0.001165 0.014748 0.000000 0.000000 0.000000
# 4 0.000000 0.000000 0.000000 0.036313 0.000000 0.000000
# 5 0.000000 0.000000 0.000000 0.000000 0.035969 0.000000
# 6 0.000000 0.000000 0.000000 0.000000 0.000000 -0.000543
#
#
# Mechanical properties :
#
#
# Convention : Reuss Voigt Hill
#
# Bulk Modulus (GPa) = 13.96634 29.13432 21.55033
# Shear Modulus (GPa) = 20.93240 -346.24412 -162.65586
#
# Velocity S-wave (km/s) = 3.23608 -13.16139 -9.02080
# Velocity P-wave (km/s) = 4.57714 14.71010 9.88527
#
# Compressibility (1/GPa) = 0.07160072
#
# Stress axis : x y z
#
# Youngs Moduli (GPa) = 12.16387 95.50322 67.80470
#
# Poissons Ratio (x) = 0.32656 0.90386
# Poissons Ratio (y) = 0.04159 0.07898
# Poissons Ratio (z) = 0.16215 0.11125
#
# Static dielectric constant tensor:
#      x y z
#    x 1.689550 0.000000 0.000000 
#    y 0.000000 1.701070 0.000000 
#    z 0.000000 0.000000 14.010360 
# 
# From -- ./inp_files/30313.got.cif
#   From: 2010.05.17/outbox.cif.g08.bks.cpg/sg20_16_cif.got.tgz:30313.got - 2010.06.03 22:52:26.
