data_PCOD9320868
_publ_section_title
;
Structure prediction by ZEFSAII (Michael W. Deem and Ramdas Pophale) SiO2 
 PCOD9320868
Probable space group: C 2 2 21
;
_chemical_formula_sum "Si O2"
_cell_formula_units_Z 48
_cell_length_a 21.894299
_cell_length_b 8.991243
_cell_length_c 10.642218
_cell_angle_alpha 90.000000
_cell_angle_beta 90.000000
_cell_angle_gamma 90.000000
_cell_volume 2094.994711
_symmetry_space_group_name_H-M "C 2 2 21"
_symmetry_group_IT_number 20
_symmetry_cell_setting 'orthorhombic'
loop_
_space_group_symop_operation_xyz
x,y,z
-x,-y,1/2+z
x,-y,-z
-x,y,1/2-z
1/2+x,1/2+y,z
1/2-x,1/2-y,1/2+z
1/2+x,1/2-y,-z
1/2-x,1/2+y,1/2-z
loop_
_atom_site_type_symbol
_atom_site_label
_atom_site_fract_x
_atom_site_fract_y
_atom_site_fract_z
Si Si1 0.464923 0.750000 0.943090
Si Si2 0.833900 0.750000 0.407373
Si Si3 0.431165 0.750000 0.364190
Si Si4 0.246370 0.500000 0.500000
Si Si5 0.746370 0.500000 0.500000
Si Si6 0.500000 0.502632 0.250000
Si Si7 0.000000 0.497368 0.250000
Si Si8 0.165719 0.250000 0.622610
O O1 0.484424 0.604984 0.865093
O O2 0.484424 0.895016 0.865093
O O3 0.393361 0.750000 0.964885
O O4 0.503494 0.750000 0.067509
O O5 0.880996 0.750000 0.525359
O O6 0.790394 0.607687 0.421607
O O7 0.859078 0.750000 0.265834
O O8 0.790394 0.892313 0.421607
O O9 0.439528 0.600451 0.283459
O O10 0.439528 0.899549 0.283459
O O11 0.205856 0.394205 0.588764
O O12 0.705856 0.605795 0.588764
#
# Coordination Sequence:
#
# PCOD9320868 Si02
#       8
#     8   8   8   4   4   4   4   8
#     4  11  24  40  70  97 135 176 217 278 348 404
#     4  11  24  45  74  93 135 174 235 279 336 410
#     4  11  25  43  69 107 134 176 225 278 349 408
#     4  10  26  46  66 100 130 180 230 282 338 396
#     4  10  26  46  66 100 130 180 230 282 338 396
#     4  10  24  44  64 108 138 174 224 276 348 408
#     4  10  24  44  64 108 138 174 224 276 348 408
#     4  11  25  45  67  97 136 177 226 283 339 409
#
# _framework density 22.911750999999999
#
# number of rings (size 3 to 8) (size 9 to 14) (size 15 to 20)
#    0.000    1.333    0.000    4.000   14.000    0.000 
#    0.000    0.000    0.000    0.000    0.000    0.000 
#    0.000    0.000    0.000    0.000    0.000    0.000 
#
# Total GULP energy -134262.948099 kJ/mol
# GULP energy per Si atom -5594.289504 kJ/mol
# Density = 2.285960 g / cm^3
# Si number density = 22.911751 Si / 1000 Ang^3
#
#
#
# Elastic Constant Matrix: (Units=GPa)
#
#
# Indices 1 2 3 4 5 6 
#
# 1 76.5837 21.3396 -7.8333 0.0000 0.0000 0.0000
# 2 21.3396 138.5106 17.8578 0.0000 0.0000 0.0000
# 3 -7.8333 17.8578 63.4903 0.0000 0.0000 0.0000
# 4 0.0000 0.0000 0.0000 42.0776 0.0000 0.0000
# 5 0.0000 0.0000 0.0000 0.0000 39.0180 0.0000
# 6 0.0000 0.0000 0.0000 0.0000 0.0000 2.6109
#
#
#
# Elastic Compliance Matrix: (Units=1/GPa)
#
#
# Indices 1 2 3 4 5 6 
#
# 1 0.013993 -0.002468 0.002421 0.000000 0.000000 0.000000
# 2 -0.002468 0.007927 -0.002534 0.000000 0.000000 0.000000
# 3 0.002421 -0.002534 0.016762 0.000000 0.000000 0.000000
# 4 0.000000 0.000000 0.000000 0.023766 0.000000 0.000000
# 5 0.000000 0.000000 0.000000 0.000000 0.025629 0.000000
# 6 0.000000 0.000000 0.000000 0.000000 0.000000 0.383005
#
#
# Mechanical properties :
#
#
# Convention : Reuss Voigt Hill
#
# Bulk Modulus (GPa) = 29.83417 37.92366 33.87891
# Shear Modulus (GPa) = 10.25817 33.22269 21.74043
#
# Velocity S-wave (km/s) = 2.11825 3.81205 3.08373
# Velocity P-wave (km/s) = 4.36260 5.99697 5.24385
#
# Compressibility (1/GPa) = 0.03351861
#
# Stress axis : x y z
#
# Youngs Moduli (GPa) = 71.46501 126.15786 59.65947
#
# Poissons Ratio (x) = 0.31134 -0.14441
# Poissons Ratio (y) = 0.17637 0.15118
# Poissons Ratio (z) = -0.17298 0.31968
#
# Static dielectric constant tensor:
#      x y z
#    x 1.821220 0.000000 0.000000 
#    y 0.000000 1.913620 0.000000 
#    z 0.000000 0.000000 1.876830 
# 
# From -- ./inp_files/16700.got.cif
#   From: 2010.05.17/outbox.cif.g08.bks.cpg/sg20_9_cif.got.tgz:16700.got - 2010.06.03 22:52:26.
