data_PCOD9320771
_publ_section_title
;
Structure prediction by ZEFSAII (Michael W. Deem and Ramdas Pophale) SiO2 
 PCOD9320771
Probable space group: C 2 2 21
;
_chemical_formula_sum "Si O2"
_cell_formula_units_Z 52
_cell_length_a 9.340028
_cell_length_b 16.781971
_cell_length_c 14.285265
_cell_angle_alpha 90.000000
_cell_angle_beta 90.000000
_cell_angle_gamma 90.000000
_cell_volume 2239.130706
_symmetry_space_group_name_H-M "C 2 2 21"
_symmetry_group_IT_number 20
_symmetry_cell_setting 'orthorhombic'
loop_
_space_group_symop_operation_xyz
x,y,z
-x,-y,1/2+z
x,-y,-z
-x,y,1/2-z
1/2+x,1/2+y,z
1/2-x,1/2-y,1/2+z
1/2+x,1/2-y,-z
1/2-x,1/2+y,1/2-z
loop_
_atom_site_type_symbol
_atom_site_label
_atom_site_fract_x
_atom_site_fract_y
_atom_site_fract_z
Si Si1 0.235899 0.937828 0.634167
Si Si2 0.069237 0.272510 0.111815
Si Si3 0.000000 0.865926 0.750000
Si Si4 0.500000 0.904793 0.250000
Si Si5 0.462341 0.582900 0.860479
Si Si6 0.186725 0.000000 0.000000
Si Si7 0.046377 0.470208 0.598866
Si Si8 0.348264 0.703370 0.993507
O O1 0.407053 0.927357 0.642809
O O2 0.180490 0.874621 0.557641
O O3 0.139036 0.915210 0.722915
O O4 0.179730 0.028090 0.619972
O O5 0.051434 0.192194 0.168950
O O6 0.198006 0.267740 0.042114
O O7 0.088244 0.344713 0.184166
O O8 0.925813 0.273277 0.050381
O O9 0.421057 0.960933 0.175065
O O10 0.500000 0.585557 0.750000
O O11 0.436167 0.669782 0.904957
O O12 0.586602 0.542559 0.923831
O O13 0.299379 0.056187 0.058226
O O14 0.977685 0.500000 0.500000
#
# Coordination Sequence:
#
# PCOD9320771 Si02
#       8
#     8   8   4   4   8   4   8   8
#     4  11  20  43  68 101 134 184 220 297 368 421
#     4  10  24  45  68  94 134 195 240 289 348 425
#     4   9  22  42  70  94 138 181 240 280 354 433
#     4  11  22  44  70 102 142 191 230 288 368 441
#     4  12  24  43  76 104 140 187 237 298 379 444
#     4  10  26  42  62 118 140 174 230 296 378 440
#     4  10  24  39  68 109 144 174 229 302 372 419
#     4  11  24  46  68  92 139 185 241 295 348 425
#
# _framework density 23.223299000000001
#
# number of rings (size 3 to 8) (size 9 to 14) (size 15 to 20)
#    0.462    0.923    2.308    2.769    4.308    1.231 
#    5.538    0.000    0.000    0.000    0.000    0.000 
#    0.000    0.000    0.000    0.000    0.000    0.000 
#
# Total GULP energy -144990.472496 kJ/mol
# GULP energy per Si atom -5576.556634 kJ/mol
# Density = 2.317044 g / cm^3
# Si number density = 23.223299 Si / 1000 Ang^3
#
#
#
# Elastic Constant Matrix: (Units=GPa)
#
#
# Indices 1 2 3 4 5 6 
#
# 1 96.8791 17.6326 34.7987 0.0000 0.0000 0.0000
# 2 17.6326 45.3352 31.8199 0.0000 0.0000 0.0000
# 3 34.7987 31.8199 106.7033 0.0000 0.0000 0.0000
# 4 0.0000 0.0000 0.0000 34.1333 0.0000 0.0000
# 5 0.0000 0.0000 0.0000 0.0000 37.6580 0.0000
# 6 0.0000 0.0000 0.0000 0.0000 0.0000 37.5353
#
#
#
# Elastic Compliance Matrix: (Units=1/GPa)
#
#
# Indices 1 2 3 4 5 6 
#
# 1 0.011896 -0.002408 -0.003162 0.000000 0.000000 0.000000
# 2 -0.002408 0.028384 -0.007679 0.000000 0.000000 0.000000
# 3 -0.003162 -0.007679 0.012693 0.000000 0.000000 0.000000
# 4 0.000000 0.000000 0.000000 0.029297 0.000000 0.000000
# 5 0.000000 0.000000 0.000000 0.000000 0.026555 0.000000
# 6 0.000000 0.000000 0.000000 0.000000 0.000000 0.026642
#
#
# Mechanical properties :
#
#
# Convention : Reuss Voigt Hill
#
# Bulk Modulus (GPa) = 37.77000 46.38001 42.07500
# Shear Modulus (GPa) = 29.27591 32.84308 31.05950
#
# Velocity S-wave (km/s) = 3.55438 3.76470 3.66105
# Velocity P-wave (km/s) = 5.75708 6.23795 6.00233
#
# Compressibility (1/GPa) = 0.02647604
#
# Stress axis : x y z
#
# Youngs Moduli (GPa) = 84.06187 35.23074 78.78448
#
# Poissons Ratio (x) = 0.08483 0.24908
# Poissons Ratio (y) = 0.20240 0.60500
# Poissons Ratio (z) = 0.26577 0.27054
#
# Static dielectric constant tensor:
#      x y z
#    x 1.871880 0.000000 0.000000 
#    y 0.000000 1.898090 0.000000 
#    z 0.000000 0.000000 1.910120 
# 
# From -- ./inp_files/19174.got.cif
#   From: 2010.05.17/outbox.cif.g08.bks.cpg/sg20_10_cif.got.tgz:19174.got - 2010.06.03 22:52:26.
