data_PCOD9320267
_publ_section_title
;
Structure prediction by ZEFSAII (Michael W. Deem and Ramdas Pophale) SiO2 
 PCOD9320267
Probable space group: C 2 2 21
;
_chemical_formula_sum "Si O2"
_cell_formula_units_Z 64
_cell_length_a 13.748735
_cell_length_b 10.086913
_cell_length_c 22.128545
_cell_angle_alpha 90.000000
_cell_angle_beta 90.000000
_cell_angle_gamma 90.000000
_cell_volume 3068.837379
_symmetry_space_group_name_H-M "C 2 2 21"
_symmetry_group_IT_number 20
_symmetry_cell_setting 'orthorhombic'
loop_
_space_group_symop_operation_xyz
x,y,z
-x,-y,1/2+z
x,-y,-z
-x,y,1/2-z
1/2+x,1/2+y,z
1/2-x,1/2-y,1/2+z
1/2+x,1/2-y,-z
1/2-x,1/2+y,1/2-z
loop_
_atom_site_type_symbol
_atom_site_label
_atom_site_fract_x
_atom_site_fract_y
_atom_site_fract_z
Si Si1 0.906693 0.914893 0.374161
Si Si2 0.166857 0.039174 0.311577
Si Si3 0.838138 0.882383 0.952338
Si Si4 0.562919 0.254720 0.308361
Si Si5 0.539776 0.314107 0.913649
Si Si6 0.204411 0.144634 0.994147
Si Si7 0.054624 0.306195 0.307224
Si Si8 0.786204 0.479206 0.804633
O O1 0.871829 0.882371 0.441028
O O2 0.974067 0.794489 0.352791
O O3 0.970962 0.045910 0.379363
O O4 0.815097 0.972396 0.335776
O O5 0.184631 0.069066 0.383252
O O6 0.099337 0.162412 0.290930
O O7 0.259446 0.040631 0.266235
O O8 0.117122 0.896519 0.300215
O O9 0.769979 0.762722 0.971818
O O10 0.946892 0.821908 0.956689
O O11 0.828547 0.000000 0.000000
O O12 0.500000 0.211799 0.250000
O O13 0.648581 0.149408 0.323757
O O14 0.518414 0.205222 0.863373
O O15 0.642566 0.314347 0.946859
O O16 0.254877 0.000000 0.000000
O O17 0.144623 0.398857 0.320425
O O18 0.000000 0.362225 0.250000
#
# Coordination Sequence:
#
# PCOD9320267 Si02
#       8
#     8   8   8   8   8   8   8   8
#     4  11  21  45  68  95 134 184 233 277 350 426
#     4  11  23  42  67  95 136 183 232 291 356 439
#     4  11  23  42  67  97 128 174 231 285 357 423
#     4  12  24  42  67 104 139 190 235 287 361 434
#     4  10  22  44  70  91 133 179 232 279 350 427
#     4  10  24  44  69  95 129 178 230 289 342 430
#     4  11  22  42  65  97 137 179 226 293 365 428
#     4  12  26  40  67 107 140 180 238 300 358 433
#
# _framework density 20.854801999999999
#
# number of rings (size 3 to 8) (size 9 to 14) (size 15 to 20)
#    0.000    1.000    3.750    4.875    1.750    3.000 
#    2.250    0.625    0.000    0.000    0.000    0.000 
#    0.000    0.000    0.000    0.000    0.000    0.000 
#
# Total GULP energy -178370.552985 kJ/mol
# GULP energy per Si atom -5574.079781 kJ/mol
# Density = 2.080734 g / cm^3
# Si number density = 20.854802 Si / 1000 Ang^3
#
#
#
# Elastic Constant Matrix: (Units=GPa)
#
#
# Indices 1 2 3 4 5 6 
#
# 1 75.5790 36.7019 21.2640 0.0000 0.0000 0.0000
# 2 36.7019 72.8097 8.0330 0.0000 0.0000 0.0000
# 3 21.2640 8.0330 75.4170 0.0000 0.0000 0.0000
# 4 0.0000 0.0000 0.0000 30.1261 0.0000 0.0000
# 5 0.0000 0.0000 0.0000 0.0000 29.2908 0.0000
# 6 0.0000 0.0000 0.0000 0.0000 0.0000 42.3849
#
#
#
# Elastic Compliance Matrix: (Units=1/GPa)
#
#
# Indices 1 2 3 4 5 6 
#
# 1 0.018832 -0.009013 -0.004350 0.000000 0.000000 0.000000
# 2 -0.009013 0.018211 0.000601 0.000000 0.000000 0.000000
# 3 -0.004350 0.000601 0.014422 0.000000 0.000000 0.000000
# 4 0.000000 0.000000 0.000000 0.033194 0.000000 0.000000
# 5 0.000000 0.000000 0.000000 0.000000 0.034140 0.000000
# 6 0.000000 0.000000 0.000000 0.000000 0.000000 0.023593
#
#
# Mechanical properties :
#
#
# Convention : Reuss Voigt Hill
#
# Bulk Modulus (GPa) = 38.54627 39.53371 39.03999
# Shear Modulus (GPa) = 28.31868 30.88082 29.59975
#
# Velocity S-wave (km/s) = 3.68896 3.85223 3.77148
# Velocity P-wave (km/s) = 6.05540 6.22768 6.14215
#
# Compressibility (1/GPa) = 0.02594285
#
# Stress axis : x y z
#
# Youngs Moduli (GPa) = 53.10215 54.91117 69.33879
#
# Poissons Ratio (x) = 0.49490 0.30160
# Poissons Ratio (y) = 0.47860 -0.04170
# Poissons Ratio (z) = 0.23098 -0.03302
#
# Static dielectric constant tensor:
#      x y z
#    x 1.823870 0.000000 0.000000 
#    y 0.000000 1.747900 0.000000 
#    z 0.000000 0.000000 1.800830 
# 
# From -- ./inp_files/29387.got.cif
#   From: 2010.05.17/outbox.cif.g08.bks.cpg/sg20_15_cif.got.tgz:29387.got - 2010.06.03 22:52:26.
