data_PCOD9320231
_publ_section_title
;
Structure prediction by ZEFSAII (Michael W. Deem and Ramdas Pophale) SiO2 
 PCOD9320231
Probable space group: C 2 2 21
;
_chemical_formula_sum "Si O2"
_cell_formula_units_Z 28
_cell_length_a 5.518203
_cell_length_b 13.149661
_cell_length_c 14.659206
_cell_angle_alpha 90.000000
_cell_angle_beta 90.000000
_cell_angle_gamma 90.000000
_cell_volume 1063.708617
_symmetry_space_group_name_H-M "C 2 2 21"
_symmetry_group_IT_number 20
_symmetry_cell_setting 'orthorhombic'
loop_
_space_group_symop_operation_xyz
x,y,z
-x,-y,1/2+z
x,-y,-z
-x,y,1/2-z
1/2+x,1/2+y,z
1/2-x,1/2-y,1/2+z
1/2+x,1/2-y,-z
1/2-x,1/2+y,1/2-z
loop_
_atom_site_type_symbol
_atom_site_label
_atom_site_fract_x
_atom_site_fract_y
_atom_site_fract_z
Si Si1 0.500000 0.650285 0.250000
Si Si2 0.716995 0.876409 0.494089
Si Si3 0.290981 0.401418 0.934444
Si Si4 0.259808 0.151117 0.780208
O O1 0.616694 0.585682 0.331202
O O2 0.706503 0.737340 0.232859
O O3 0.476445 0.855704 0.553471
O O4 0.708286 0.845595 0.388604
O O5 0.977487 0.838702 0.529218
O O6 0.735455 0.000000 0.500000
O O7 0.277509 0.500000 0.000000
O O8 0.500000 0.090012 0.750000
O O9 0.000000 0.113862 0.750000
#
# Coordination Sequence:
#
# PCOD9320231 Si02
#       4
#     4   8   8   8
#     4  10  26  42  70 100 142 178 232 284 344 416
#     4  10  22  44  65  99 137 176 228 285 340 408
#     4  10  23  43  67 101 136 182 229 285 342 411
#     4  10  23  42  68 100 133 180 228 281 345 412
#
# _framework density 26.322997999999998
#
# number of rings (size 3 to 8) (size 9 to 14) (size 15 to 20)
#    0.857    1.143    0.000    1.714    4.000    2.286 
#   30.857    0.000    0.000    0.000    0.000    0.000 
#    0.000    0.000    0.000    0.000    0.000    0.000 
#
# Total GULP energy -78037.243395 kJ/mol
# GULP energy per Si atom -5574.088814 kJ/mol
# Density = 2.626309 g / cm^3
# Si number density = 26.322998 Si / 1000 Ang^3
#
#
#
# Elastic Constant Matrix: (Units=GPa)
#
#
# Indices 1 2 3 4 5 6 
#
# 1 240.4452 -0.1032 60.0207 0.0000 0.0000 0.0000
# 2 -0.1032 116.5411 16.7069 0.0000 0.0000 0.0000
# 3 60.0207 16.7069 116.6062 0.0000 0.0000 0.0000
# 4 0.0000 0.0000 0.0000 36.5036 0.0000 0.0000
# 5 0.0000 0.0000 0.0000 0.0000 -2.6091 0.0000
# 6 0.0000 0.0000 0.0000 0.0000 0.0000 -8.8123
#
#
#
# Elastic Compliance Matrix: (Units=1/GPa)
#
#
# Indices 1 2 3 4 5 6 
#
# 1 0.004787 0.000365 -0.002516 0.000000 0.000000 0.000000
# 2 0.000365 0.008788 -0.001447 0.000000 0.000000 0.000000
# 3 -0.002516 -0.001447 0.010078 0.000000 0.000000 0.000000
# 4 0.000000 0.000000 0.000000 0.027395 0.000000 0.000000
# 5 0.000000 0.000000 0.000000 0.000000 -0.383280 0.000000
# 6 0.000000 0.000000 0.000000 0.000000 0.000000 -0.113478
#
#
# Mechanical properties :
#
#
# Convention : Reuss Voigt Hill
#
# Bulk Modulus (GPa) = 60.76371 69.64904 65.20638
# Shear Modulus (GPa) = -11.54664 31.48098 9.96717
#
# Velocity S-wave (km/s) = -2.09667 3.46200 1.94800
# Velocity P-wave (km/s) = 4.15603 6.51901 5.46672
#
# Compressibility (1/GPa) = 0.01645719
#
# Stress axis : x y z
#
# Youngs Moduli (GPa) = 208.88723 113.78595 99.22119
#
# Poissons Ratio (x) = -0.04153 0.24968
# Poissons Ratio (y) = -0.07624 0.14358
# Poissons Ratio (z) = 0.52565 0.16465
#
# Static dielectric constant tensor:
#      x y z
#    x 2.120430 0.000000 0.000000 
#    y 0.000000 2.335010 0.000000 
#    z 0.000000 0.000000 2.036470 
# 
# From -- ./inp_files/11862.got.cif
#   From: 2010.05.17/outbox.cif.g08.bks.cpg/sg20_6_cif.got.tgz:11862.got - 2010.06.03 22:52:26.
