data_PCOD9320807
_publ_section_title
;
Structure prediction by ZEFSAII (Michael W. Deem and Ramdas Pophale) SiO2 
 PCOD9320807
Probable space group: C 2 2 21
;
_chemical_formula_sum "Si O2"
_cell_formula_units_Z 40
_cell_length_a 9.730881
_cell_length_b 20.511688
_cell_length_c 7.660228
_cell_angle_alpha 90.000000
_cell_angle_beta 90.000000
_cell_angle_gamma 90.000000
_cell_volume 1528.956958
_symmetry_space_group_name_H-M "C 2 2 21"
_symmetry_group_IT_number 20
_symmetry_cell_setting 'orthorhombic'
loop_
_space_group_symop_operation_xyz
x,y,z
-x,-y,1/2+z
x,-y,-z
-x,y,1/2-z
1/2+x,1/2+y,z
1/2-x,1/2-y,1/2+z
1/2+x,1/2-y,-z
1/2-x,1/2+y,1/2-z
loop_
_atom_site_type_symbol
_atom_site_label
_atom_site_fract_x
_atom_site_fract_y
_atom_site_fract_z
Si Si1 0.814953 0.223673 0.178391
Si Si2 0.788816 0.918195 0.834752
Si Si3 0.656021 0.434842 0.268166
Si Si4 0.397475 0.927162 0.979012
Si Si5 0.043945 0.707977 0.991749
O O1 0.852077 0.149754 0.227900
O O2 0.653253 0.221817 0.142620
O O3 0.910081 0.246360 0.017564
O O4 0.864042 0.273170 0.324727
O O5 0.651671 0.922297 0.720367
O O6 0.857205 0.986629 0.787041
O O7 0.783408 0.086577 0.955702
O O8 0.500000 0.408623 0.250000
O O9 0.762411 0.422792 0.108599
O O10 0.491347 0.865664 0.018734
O O11 0.457414 0.000000 0.000000
#
# Coordination Sequence:
#
# PCOD9320807 Si02
#       5
#     8   8   8   8   8
#     4  11  27  49  78 114 165 214 279 350 431 516
#     4  10  24  44  74 115 162 224 273 351 427 493
#     4  10  24  41  77 123 165 222 289 343 425 516
#     4  10  24  50  79 116 170 217 291 362 425 515
#     4  11  27  51  80 118 160 223 283 349 438 517
#
# _framework density 26.161628
#
# number of rings (size 3 to 8) (size 9 to 14) (size 15 to 20)
#    0.000    1.600    0.000    1.200   16.800    4.800 
#    3.600    0.000    0.000    0.000    0.000    0.000 
#    0.000    0.000    0.000    0.000    0.000    0.000 
#
# Total GULP energy -111963.875561 kJ/mol
# GULP energy per Si atom -5598.193778 kJ/mol
# Density = 2.610208 g / cm^3
# Si number density = 26.161628 Si / 1000 Ang^3
#
#
#
# Elastic Constant Matrix: (Units=GPa)
#
#
# Indices 1 2 3 4 5 6 
#
# 1 163.4481 81.0161 61.1634 0.0000 0.0000 0.0000
# 2 81.0161 189.6787 46.9494 0.0000 0.0000 0.0000
# 3 61.1634 46.9494 149.0784 0.0000 0.0000 0.0000
# 4 0.0000 0.0000 0.0000 35.5994 0.0000 0.0000
# 5 0.0000 0.0000 0.0000 0.0000 118.8666 0.0000
# 6 0.0000 0.0000 0.0000 0.0000 0.0000 46.7045
#
#
#
# Elastic Compliance Matrix: (Units=1/GPa)
#
#
# Indices 1 2 3 4 5 6 
#
# 1 0.008580 -0.003030 -0.002566 0.000000 0.000000 0.000000
# 2 -0.003030 0.006788 -0.000895 0.000000 0.000000 0.000000
# 3 -0.002566 -0.000895 0.008042 0.000000 0.000000 0.000000
# 4 0.000000 0.000000 0.000000 0.028090 0.000000 0.000000
# 5 0.000000 0.000000 0.000000 0.000000 0.008413 0.000000
# 6 0.000000 0.000000 0.000000 0.000000 0.000000 0.021411
#
#
# Mechanical properties :
#
#
# Convention : Reuss Voigt Hill
#
# Bulk Modulus (GPa) = 95.88275 97.82923 96.85599
# Shear Modulus (GPa) = 51.13444 61.10585 56.12015
#
# Velocity S-wave (km/s) = 4.42584 4.83816 4.63658
# Velocity P-wave (km/s) = 7.92761 8.28768 8.10965
#
# Compressibility (1/GPa) = 0.01042940
#
# Stress axis : x y z
#
# Youngs Moduli (GPa) = 116.54921 147.32931 124.34045
#
# Poissons Ratio (x) = 0.44635 0.31907
# Poissons Ratio (y) = 0.35310 0.11124
# Poissons Ratio (z) = 0.29908 0.13181
#
# Static dielectric constant tensor:
#      x y z
#    x 2.110490 0.000000 0.000000 
#    y 0.000000 1.999120 0.000000 
#    z 0.000000 0.000000 2.154410 
# 
# From -- ./inp_files/19762.got.cif
#   From: 2010.05.17/outbox.cif.g08.bks.cpg/sg20_10_cif.got.tgz:19762.got - 2010.06.03 22:52:26.
