data_PCOD9320991
_publ_section_title
;
Structure prediction by ZEFSAII (Michael W. Deem and Ramdas Pophale) SiO2 
 PCOD9320991
Probable space group: C 2 2 21
;
_chemical_formula_sum "Si O2"
_cell_formula_units_Z 48
_cell_length_a 16.541790
_cell_length_b 14.721219
_cell_length_c 8.459841
_cell_angle_alpha 90.000000
_cell_angle_beta 90.000000
_cell_angle_gamma 90.000000
_cell_volume 2060.100831
_symmetry_space_group_name_H-M "C 2 2 21"
_symmetry_group_IT_number 20
_symmetry_cell_setting 'orthorhombic'
loop_
_space_group_symop_operation_xyz
x,y,z
-x,-y,1/2+z
x,-y,-z
-x,y,1/2-z
1/2+x,1/2+y,z
1/2-x,1/2-y,1/2+z
1/2+x,1/2-y,-z
1/2-x,1/2+y,1/2-z
loop_
_atom_site_type_symbol
_atom_site_label
_atom_site_fract_x
_atom_site_fract_y
_atom_site_fract_z
Si Si1 0.967402 0.500000 0.500000
Si Si2 0.028138 0.225254 0.567038
Si Si3 0.860073 0.145900 0.538797
Si Si4 0.247985 0.500000 0.500000
Si Si5 0.156232 0.650928 0.969687
Si Si6 0.400768 0.112462 0.867974
Si Si7 0.335143 0.413055 0.102451
O O1 0.904879 0.420028 0.553323
O O2 0.034086 0.466715 0.376034
O O3 0.057133 0.318200 0.488956
O O4 0.107935 0.167181 0.547238
O O5 0.000000 0.238187 0.750000
O O6 0.953341 0.166319 0.497037
O O7 0.829681 0.250536 0.547431
O O8 0.850545 0.094243 0.707763
O O9 0.807165 0.079034 0.428449
O O10 0.184610 0.435270 0.407100
O O11 0.113082 0.661783 0.798785
O O12 0.242286 0.606243 0.938278
O O13 0.359199 0.500000 0.000000
#
# Coordination Sequence:
#
# PCOD9320991 Si02
#       7
#     4   8   8   4   8   8   8
#     4  11  24  42  71 110 150 198 255 326 394 467
#     4  10  24  46  74 106 147 200 258 323 396 472
#     4  11  25  48  71 110 151 198 260 327 394 476
#     4  11  24  44  69 110 150 204 255 318 396 477
#     4  12  24  48  74 109 155 202 265 329 408 470
#     4  11  24  46  72 110 149 201 262 327 397 468
#     4  11  25  47  71 106 148 206 258 318 400 480
#
# _framework density 23.299828000000002
#
# number of rings (size 3 to 8) (size 9 to 14) (size 15 to 20)
#    0.000    1.000    4.167    1.500    1.167    4.000 
#    9.000    0.000    0.000    0.000    0.000    0.000 
#    0.000    0.000    0.000    0.000    0.000    0.000 
#
# Total GULP energy -133636.893628 kJ/mol
# GULP energy per Si atom -5568.203901 kJ/mol
# Density = 2.324680 g / cm^3
# Si number density = 23.299828 Si / 1000 Ang^3
#
#
#
# Elastic Constant Matrix: (Units=GPa)
#
#
# Indices 1 2 3 4 5 6 
#
# 1 148.0223 41.6956 15.8182 0.0000 0.0000 0.0000
# 2 41.6956 134.4541 47.6969 0.0000 0.0000 0.0000
# 3 15.8182 47.6969 56.3196 0.0000 0.0000 0.0000
# 4 0.0000 0.0000 0.0000 21.8340 0.0000 0.0000
# 5 0.0000 0.0000 0.0000 0.0000 17.9759 0.0000
# 6 0.0000 0.0000 0.0000 0.0000 0.0000 58.4640
#
#
#
# Elastic Compliance Matrix: (Units=1/GPa)
#
#
# Indices 1 2 3 4 5 6 
#
# 1 0.007404 -0.002228 -0.000193 0.000000 0.000000 0.000000
# 2 -0.002228 0.011302 -0.008946 0.000000 0.000000 0.000000
# 3 -0.000193 -0.008946 0.025386 0.000000 0.000000 0.000000
# 4 0.000000 0.000000 0.000000 0.045800 0.000000 0.000000
# 5 0.000000 0.000000 0.000000 0.000000 0.055630 0.000000
# 6 0.000000 0.000000 0.000000 0.000000 0.000000 0.017105
#
#
# Mechanical properties :
#
#
# Convention : Reuss Voigt Hill
#
# Bulk Modulus (GPa) = 46.81840 61.02419 53.92129
# Shear Modulus (GPa) = 25.97688 35.22713 30.60200
#
# Velocity S-wave (km/s) = 3.34263 3.89254 3.62802
# Velocity P-wave (km/s) = 5.91904 6.81544 6.38299
#
# Compressibility (1/GPa) = 0.02135913
#
# Stress axis : x y z
#
# Youngs Moduli (GPa) = 135.06529 88.48203 39.39158
#
# Poissons Ratio (x) = 0.19710 0.00760
# Poissons Ratio (y) = 0.30086 0.35239
# Poissons Ratio (z) = 0.02606 0.79154
#
# Static dielectric constant tensor:
#      x y z
#    x 1.898030 0.000000 0.000000 
#    y 0.000000 1.858690 0.000000 
#    z 0.000000 0.000000 1.850750 
# 
# From -- ./inp_files/9363.got.cif
#   From: 2010.05.17/outbox.cif.g08.bks.cpg/sg20_5_cif.got.tgz:9363.got - 2010.06.03 22:52:26.
