data_PCOD9320073
_publ_section_title
;
Structure prediction by ZEFSAII (Michael W. Deem and Ramdas Pophale) SiO2 
 PCOD9320073
Probable space group: C 2 2 21
;
_chemical_formula_sum "Si O2"
_cell_formula_units_Z 60
_cell_length_a 5.238664
_cell_length_b 25.057863
_cell_length_c 19.195501
_cell_angle_alpha 90.000000
_cell_angle_beta 90.000000
_cell_angle_gamma 90.000000
_cell_volume 2519.788134
_symmetry_space_group_name_H-M "C 2 2 21"
_symmetry_group_IT_number 20
_symmetry_cell_setting 'orthorhombic'
loop_
_space_group_symop_operation_xyz
x,y,z
-x,-y,1/2+z
x,-y,-z
-x,y,1/2-z
1/2+x,1/2+y,z
1/2-x,1/2-y,1/2+z
1/2+x,1/2-y,-z
1/2-x,1/2+y,1/2-z
loop_
_atom_site_type_symbol
_atom_site_label
_atom_site_fract_x
_atom_site_fract_y
_atom_site_fract_z
Si Si1 0.813818 0.646372 0.389315
Si Si2 0.585910 0.165987 0.870429
Si Si3 0.595222 0.393051 0.171733
Si Si4 0.614221 0.719070 0.177504
Si Si5 0.500000 0.861715 0.750000
Si Si6 0.903575 0.714649 0.007491
Si Si7 0.865428 0.995876 0.415374
Si Si8 0.138722 0.461707 0.932305
O O1 0.594342 0.688398 0.369644
O O2 0.042257 0.681536 0.422207
O O3 0.765544 0.598584 0.443692
O O4 0.857079 0.614432 0.316268
O O5 0.339507 0.147136 0.825074
O O6 0.694696 0.225725 0.856978
O O7 0.835569 0.129678 0.863121
O O8 0.463333 0.172627 0.946587
O O9 0.500000 0.407730 0.250000
O O10 0.696530 0.440181 0.121087
O O11 0.500000 0.740612 0.250000
O O12 0.806154 0.676356 0.209290
O O13 0.126170 0.759757 0.003724
O O14 0.894984 0.000000 0.500000
O O15 0.641801 0.037420 0.399577
O O16 0.142376 0.011037 0.387304
O O17 0.107376 0.500000 0.000000
#
# Coordination Sequence:
#
# PCOD9320073 Si02
#       8
#     8   8   8   8   4   8   8   8
#     4  11  25  43  71 103 146 186 249 301 370 440
#     4  12  26  43  73 107 150 198 240 295 372 443
#     4  12  27  47  72 107 147 193 251 310 372 454
#     4  10  22  42  67 102 145 194 236 285 349 443
#     4  10  24  44  72  98 150 190 244 290 360 432
#     4  12  26  44  68 108 151 194 244 301 363 444
#     4  10  24  46  71  97 135 183 247 305 377 434
#     4  10  24  45  72  99 131 183 238 302 372 435
#
# _framework density 23.811527999999999
#
# number of rings (size 3 to 8) (size 9 to 14) (size 15 to 20)
#    0.000    1.067    1.333    3.600   14.000    0.000 
#    2.400    0.000    0.000    0.000    0.000    0.000 
#    0.000    0.000    0.000    0.000    0.000    0.000 
#
# Total GULP energy -167182.132211 kJ/mol
# GULP energy per Si atom -5572.737740 kJ/mol
# Density = 2.375733 g / cm^3
# Si number density = 23.811528 Si / 1000 Ang^3
#
#
#
# Elastic Constant Matrix: (Units=GPa)
#
#
# Indices 1 2 3 4 5 6 
#
# 1 90.7138 -7.5004 1.5259 0.0000 0.0000 0.0000
# 2 -7.5004 86.1730 30.2695 0.0000 0.0000 0.0000
# 3 1.5259 30.2695 112.6090 0.0000 0.0000 0.0000
# 4 0.0000 0.0000 0.0000 32.0728 0.0000 0.0000
# 5 0.0000 0.0000 0.0000 0.0000 32.0471 0.0000
# 6 0.0000 0.0000 0.0000 0.0000 0.0000 -3.0415
#
#
#
# Elastic Compliance Matrix: (Units=1/GPa)
#
#
# Indices 1 2 3 4 5 6 
#
# 1 0.011125 0.001128 -0.000454 0.000000 0.000000 0.000000
# 2 0.001128 0.012929 -0.003491 0.000000 0.000000 0.000000
# 3 -0.000454 -0.003491 0.009825 0.000000 0.000000 0.000000
# 4 0.000000 0.000000 0.000000 0.031179 0.000000 0.000000
# 5 0.000000 0.000000 0.000000 0.000000 0.031204 0.000000
# 6 0.000000 0.000000 0.000000 0.000000 0.000000 -0.328785
#
#
# Mechanical properties :
#
#
# Convention : Reuss Voigt Hill
#
# Bulk Modulus (GPa) = 35.40501 37.56510 36.48506
# Shear Modulus (GPa) = -22.99110 29.89572 3.45231
#
# Velocity S-wave (km/s) = -3.11069 3.54717 1.20540
# Velocity P-wave (km/s) = 1.41395 5.70848 4.15849
#
# Compressibility (1/GPa) = 0.02824459
#
# Stress axis : x y z
#
# Youngs Moduli (GPa) = 89.89121 77.34649 101.78416
#
# Poissons Ratio (x) = -0.08722 0.04620
# Poissons Ratio (y) = -0.10137 0.35529
# Poissons Ratio (z) = 0.04080 0.26998
#
# Static dielectric constant tensor:
#      x y z
#    x 2.020930 0.000000 0.000000 
#    y 0.000000 1.892380 0.000000 
#    z 0.000000 0.000000 2.436820 
# 
# From -- ./inp_files/26224.got.cif
#   From: 2010.05.17/outbox.cif.g08.bks.cpg/sg20_14_cif.got.tgz:26224.got - 2010.06.03 22:52:26.
