data_PCOD9320203
_publ_section_title
;
Structure prediction by ZEFSAII (Michael W. Deem and Ramdas Pophale) SiO2 
 PCOD9320203
Probable space group: C 2 2 21
;
_chemical_formula_sum "Si O2"
_cell_formula_units_Z 44
_cell_length_a 4.727617
_cell_length_b 14.430966
_cell_length_c 26.573301
_cell_angle_alpha 90.000000
_cell_angle_beta 90.000000
_cell_angle_gamma 90.000000
_cell_volume 1812.939018
_symmetry_space_group_name_H-M "C 2 2 21"
_symmetry_group_IT_number 20
_symmetry_cell_setting 'orthorhombic'
loop_
_space_group_symop_operation_xyz
x,y,z
-x,-y,1/2+z
x,-y,-z
-x,y,1/2-z
1/2+x,1/2+y,z
1/2-x,1/2-y,1/2+z
1/2+x,1/2-y,-z
1/2-x,1/2+y,1/2-z
loop_
_atom_site_type_symbol
_atom_site_label
_atom_site_fract_x
_atom_site_fract_y
_atom_site_fract_z
Si Si1 0.265401 0.302888 0.612139
Si Si2 0.953347 0.300364 0.023060
Si Si3 0.926364 0.174585 0.804426
Si Si4 0.317538 0.000000 0.500000
Si Si5 0.727226 0.070424 0.105027
Si Si6 0.935750 0.543795 0.805509
O O1 0.430374 0.229620 0.577624
O O2 0.512982 0.372993 0.629059
O O3 0.077064 0.250968 0.653255
O O4 0.028457 0.364720 0.585335
O O5 0.133959 0.230044 0.987380
O O6 0.008641 0.408456 0.015724
O O7 0.117351 0.081857 0.812061
O O8 0.000000 0.213296 0.750000
O O9 0.607396 0.139423 0.803670
O O10 0.160858 0.024005 0.447033
O O11 0.567490 0.010823 0.147632
O O12 0.000000 0.500166 0.750000
#
# Coordination Sequence:
#
# PCOD9320203 Si02
#       6
#     8   8   8   4   8   8
#     4  12  24  45  67 105 147 182 246 307 367 442
#     4  12  25  46  68 102 141 186 238 300 348 443
#     4  10  22  43  71  99 138 189 241 304 370 435
#     4  12  26  46  74 100 146 194 242 296 380 420
#     4  12  26  42  70 105 143 193 241 306 373 443
#     4  10  22  44  69 101 138 188 249 299 366 450
#
# _framework density 24.269984000000001
#
# number of rings (size 3 to 8) (size 9 to 14) (size 15 to 20)
#    0.000    0.727    3.636    3.273    0.000    5.091 
#    0.000    1.818    0.000    0.000    0.000    0.000 
#    0.000    0.000    0.000    0.000    0.000    0.000 
#
# Total GULP energy -122858.131100 kJ/mol
# GULP energy per Si atom -5584.460505 kJ/mol
# Density = 2.421474 g / cm^3
# Si number density = 24.269984 Si / 1000 Ang^3
#
#
#
# Elastic Constant Matrix: (Units=GPa)
#
#
# Indices 1 2 3 4 5 6 
#
# 1 69.0740 8.5867 6.5349 0.0000 0.0000 0.0000
# 2 8.5867 87.1883 48.8446 0.0000 0.0000 0.0000
# 3 6.5349 48.8446 169.5748 0.0000 0.0000 0.0000
# 4 0.0000 0.0000 0.0000 30.0041 0.0000 0.0000
# 5 0.0000 0.0000 0.0000 0.0000 34.2451 0.0000
# 6 0.0000 0.0000 0.0000 0.0000 0.0000 12.7170
#
#
#
# Elastic Compliance Matrix: (Units=1/GPa)
#
#
# Indices 1 2 3 4 5 6 
#
# 1 0.014661 -0.001344 -0.000178 0.000000 0.000000 0.000000
# 2 -0.001344 0.013800 -0.003923 0.000000 0.000000 0.000000
# 3 -0.000178 -0.003923 0.007034 0.000000 0.000000 0.000000
# 4 0.000000 0.000000 0.000000 0.033329 0.000000 0.000000
# 5 0.000000 0.000000 0.000000 0.000000 0.029201 0.000000
# 6 0.000000 0.000000 0.000000 0.000000 0.000000 0.078635
#
#
# Mechanical properties :
#
#
# Convention : Reuss Voigt Hill
#
# Bulk Modulus (GPa) = 40.64309 50.41885 45.53097
# Shear Modulus (GPa) = 25.54258 32.85128 29.19693
#
# Velocity S-wave (km/s) = 3.24764 3.68309 3.47220
# Velocity P-wave (km/s) = 5.55387 6.23748 5.90558
#
# Compressibility (1/GPa) = 0.02460443
#
# Stress axis : x y z
#
# Youngs Moduli (GPa) = 68.20744 72.46585 142.16746
#
# Poissons Ratio (x) = 0.09742 0.02527
# Poissons Ratio (y) = 0.09169 0.55773
# Poissons Ratio (z) = 0.01213 0.28429
#
# Static dielectric constant tensor:
#      x y z
#    x 1.875960 0.000000 0.000000 
#    y 0.000000 1.924250 0.000000 
#    z 0.000000 0.000000 2.099720 
# 
# From -- ./inp_files/29780.got.cif
#   From: 2010.05.17/outbox.cif.g08.bks.cpg/sg20_15_cif.got.tgz:29780.got - 2010.06.03 22:52:26.
