data_PCOD9320221
_publ_section_title
;
Structure prediction by ZEFSAII (Michael W. Deem and Ramdas Pophale) SiO2 
 PCOD9320221
Probable space group: C 2 2 21
;
_chemical_formula_sum "Si O2"
_cell_formula_units_Z 60
_cell_length_a 8.873104
_cell_length_b 17.139418
_cell_length_c 17.310332
_cell_angle_alpha 90.000000
_cell_angle_beta 90.000000
_cell_angle_gamma 90.000000
_cell_volume 2632.552493
_symmetry_space_group_name_H-M "C 2 2 21"
_symmetry_group_IT_number 20
_symmetry_cell_setting 'orthorhombic'
loop_
_space_group_symop_operation_xyz
x,y,z
-x,-y,1/2+z
x,-y,-z
-x,y,1/2-z
1/2+x,1/2+y,z
1/2-x,1/2-y,1/2+z
1/2+x,1/2-y,-z
1/2-x,1/2+y,1/2-z
loop_
_atom_site_type_symbol
_atom_site_label
_atom_site_fract_x
_atom_site_fract_y
_atom_site_fract_z
Si Si1 0.500000 0.436888 0.250000
Si Si2 0.618981 0.243630 0.082975
Si Si3 0.920416 0.412293 0.888844
Si Si4 0.664716 0.331378 0.371191
Si Si5 0.829581 0.196281 0.419411
Si Si6 0.329030 0.978104 0.416608
Si Si7 0.267375 0.557801 0.244432
Si Si8 0.103963 0.219075 0.314270
O O1 0.599696 0.379833 0.300736
O O2 0.381158 0.497763 0.287032
O O3 0.540695 0.158874 0.097446
O O4 0.486740 0.308170 0.083426
O O5 0.747421 0.257079 0.147648
O O6 0.686261 0.254718 0.997986
O O7 0.764849 0.382857 0.927528
O O8 0.871711 0.427017 0.800705
O O9 0.000088 0.490894 0.917339
O O10 0.738437 0.247909 0.356147
O O11 0.791907 0.387658 0.406253
O O12 0.996980 0.194306 0.386346
O O13 0.266041 0.021301 0.339966
O O14 0.260696 0.000000 0.500000
O O15 0.342874 0.640317 0.227485
O O16 0.000000 0.262817 0.250000
#
# Coordination Sequence:
#
# PCOD9320221 Si02
#       8
#     4   8   8   8   8   8   8   8
#     4  10  22  44  62  98 144 174 220 302 366 420
#     4  11  25  42  74 102 147 190 242 299 375 431
#     4  11  22  44  75 101 139 194 246 292 359 457
#     4  10  25  44  68  98 144 184 229 296 374 427
#     4  11  24  45  71 107 146 184 243 303 368 446
#     4  11  24  42  71 102 144 184 239 299 374 432
#     4  11  22  42  71 105 132 187 248 291 352 453
#     4  12  23  40  73 106 136 178 253 301 350 436
#
# _framework density 22.791568999999999
#
# number of rings (size 3 to 8) (size 9 to 14) (size 15 to 20)
#    0.000    1.067    3.333    2.800    3.733    0.000 
#    4.800    0.000    0.000    0.000    0.000    0.000 
#    0.000    0.000    0.000    0.000    0.000    0.000 
#
# Total GULP energy -167270.389552 kJ/mol
# GULP energy per Si atom -5575.679652 kJ/mol
# Density = 2.273969 g / cm^3
# Si number density = 22.791569 Si / 1000 Ang^3
#
#
#
# Elastic Constant Matrix: (Units=GPa)
#
#
# Indices 1 2 3 4 5 6 
#
# 1 107.3766 31.8571 32.4725 0.0000 0.0000 0.0000
# 2 31.8571 82.3669 22.5444 0.0000 0.0000 0.0000
# 3 32.4725 22.5444 96.1488 0.0000 0.0000 0.0000
# 4 0.0000 0.0000 0.0000 26.6565 0.0000 0.0000
# 5 0.0000 0.0000 0.0000 0.0000 33.2504 0.0000
# 6 0.0000 0.0000 0.0000 0.0000 0.0000 43.8265
#
#
#
# Elastic Compliance Matrix: (Units=1/GPa)
#
#
# Indices 1 2 3 4 5 6 
#
# 1 0.011263 -0.003542 -0.002973 0.000000 0.000000 0.000000
# 2 -0.003542 0.014088 -0.002107 0.000000 0.000000 0.000000
# 3 -0.002973 -0.002107 0.011899 0.000000 0.000000 0.000000
# 4 0.000000 0.000000 0.000000 0.037514 0.000000 0.000000
# 5 0.000000 0.000000 0.000000 0.000000 0.030075 0.000000
# 6 0.000000 0.000000 0.000000 0.000000 0.000000 0.022817
#
#
# Mechanical properties :
#
#
# Convention : Reuss Voigt Hill
#
# Bulk Modulus (GPa) = 49.98905 51.07112 50.53009
# Shear Modulus (GPa) = 32.98827 34.01457 33.50142
#
# Velocity S-wave (km/s) = 3.80858 3.86738 3.83809
# Velocity P-wave (km/s) = 6.42815 6.51143 6.46992
#
# Compressibility (1/GPa) = 0.02000438
#
# Stress axis : x y z
#
# Youngs Moduli (GPa) = 88.78477 70.98462 84.04268
#
# Poissons Ratio (x) = 0.25146 0.24989
# Poissons Ratio (y) = 0.31452 0.17706
# Poissons Ratio (z) = 0.26399 0.14955
#
# Static dielectric constant tensor:
#      x y z
#    x 1.946540 0.000000 0.000000 
#    y 0.000000 1.845720 0.000000 
#    z 0.000000 0.000000 1.979220 
# 
# From -- ./inp_files/23770.got.cif
#   From: 2010.05.17/outbox.cif.g08.bks.cpg/sg20_12_cif.got.tgz:23770.got - 2010.06.03 22:52:26.
