data_PCOD9320897
_publ_section_title
;
Structure prediction by ZEFSAII (Michael W. Deem and Ramdas Pophale) SiO2 
 PCOD9320897
Probable space group: C 2 2 21
;
_chemical_formula_sum "Si O2"
_cell_formula_units_Z 32
_cell_length_a 14.505535
_cell_length_b 16.812950
_cell_length_c 5.497388
_cell_angle_alpha 90.000000
_cell_angle_beta 90.000000
_cell_angle_gamma 90.000000
_cell_volume 1340.707574
_symmetry_space_group_name_H-M "C 2 2 21"
_symmetry_group_IT_number 20
_symmetry_cell_setting 'orthorhombic'
loop_
_space_group_symop_operation_xyz
x,y,z
-x,-y,1/2+z
x,-y,-z
-x,y,1/2-z
1/2+x,1/2+y,z
1/2-x,1/2-y,1/2+z
1/2+x,1/2-y,-z
1/2-x,1/2+y,1/2-z
loop_
_atom_site_type_symbol
_atom_site_label
_atom_site_fract_x
_atom_site_fract_y
_atom_site_fract_z
Si Si1 0.635438 0.170246 0.407518
Si Si2 0.157029 0.199063 0.933829
Si Si3 0.000000 0.230892 0.250000
Si Si4 0.557683 0.000000 0.500000
Si Si5 0.388941 0.540696 0.754084
O O1 0.737917 0.192976 0.490828
O O2 0.631980 0.211321 0.143563
O O3 0.558101 0.214802 0.565346
O O4 0.616822 0.077562 0.431737
O O5 0.141530 0.132624 0.730939
O O6 0.078616 0.177418 0.127731
O O7 0.500000 0.016540 0.750000
O O8 0.355831 0.500000 0.500000
O O9 0.500000 0.537306 0.750000
O O10 0.354554 0.500000 0.000000
#
# Coordination Sequence:
#
# PCOD9320897 Si02
#       5
#     8   8   4   4   8
#     4  12  27  50  79 118 159 213 281 337 415 496
#     4  12  27  47  79 116 156 216 272 340 411 490
#     4  12  24  50  80 110 160 210 266 344 408 492
#     4  12  28  54  84 120 166 220 272 344 422 490
#     4  10  24  44  70 107 152 206 258 324 399 479
#
# _framework density 23.867992999999998
#
# number of rings (size 3 to 8) (size 9 to 14) (size 15 to 20)
#    0.000    0.500    3.750    3.750   10.500    0.000 
#    2.250    0.000    0.000    0.000    0.000    0.000 
#    0.000    0.000    0.000    0.000    0.000    0.000 
#
# Total GULP energy -89541.631206 kJ/mol
# GULP energy per Si atom -5596.351950 kJ/mol
# Density = 2.381367 g / cm^3
# Si number density = 23.867993 Si / 1000 Ang^3
#
#
#
# Elastic Constant Matrix: (Units=GPa)
#
#
# Indices 1 2 3 4 5 6 
#
# 1 166.9969 35.2853 52.7046 0.0000 0.0000 0.0000
# 2 35.2853 128.9095 32.0181 0.0000 0.0000 0.0000
# 3 52.7046 32.0181 92.0601 0.0000 0.0000 0.0000
# 4 0.0000 0.0000 0.0000 35.4213 0.0000 0.0000
# 5 0.0000 0.0000 0.0000 0.0000 21.6755 0.0000
# 6 0.0000 0.0000 0.0000 0.0000 0.0000 21.9577
#
#
#
# Elastic Compliance Matrix: (Units=1/GPa)
#
#
# Indices 1 2 3 4 5 6 
#
# 1 0.007441 -0.001071 -0.003888 0.000000 0.000000 0.000000
# 2 -0.001071 0.008645 -0.002393 0.000000 0.000000 0.000000
# 3 -0.003888 -0.002393 0.013921 0.000000 0.000000 0.000000
# 4 0.000000 0.000000 0.000000 0.028232 0.000000 0.000000
# 5 0.000000 0.000000 0.000000 0.000000 0.046135 0.000000
# 6 0.000000 0.000000 0.000000 0.000000 0.000000 0.045542
#
#
# Mechanical properties :
#
#
# Convention : Reuss Voigt Hill
#
# Bulk Modulus (GPa) = 65.34918 69.77582 67.56250
# Shear Modulus (GPa) = 29.46007 33.67480 31.56744
#
# Velocity S-wave (km/s) = 3.51706 3.76024 3.64068
# Velocity P-wave (km/s) = 6.62811 6.93902 6.78535
#
# Compressibility (1/GPa) = 0.01530241
#
# Stress axis : x y z
#
# Youngs Moduli (GPa) = 134.38262 115.67271 71.83607
#
# Poissons Ratio (x) = 0.12392 0.27927
# Poissons Ratio (y) = 0.14396 0.17193
# Poissons Ratio (z) = 0.52243 0.27685
#
# Static dielectric constant tensor:
#      x y z
#    x 1.947260 0.000000 0.000000 
#    y 0.000000 1.934250 0.000000 
#    z 0.000000 0.000000 2.054610 
# 
# From -- ./inp_files/1672.got.cif
#   From: 2010.05.17/outbox.cif.g08.bks.cpg/sg20_1_cif.got.tgz:1672.got - 2010.06.03 22:52:26.
