data_PCOD9320729
_publ_section_title
;
Structure prediction by ZEFSAII (Michael W. Deem and Ramdas Pophale) SiO2 
 PCOD9320729
Probable space group: C 2 2 21
;
_chemical_formula_sum "Si O2"
_cell_formula_units_Z 36
_cell_length_a 13.965145
_cell_length_b 5.191260
_cell_length_c 17.739136
_cell_angle_alpha 90.000000
_cell_angle_beta 90.000000
_cell_angle_gamma 90.000000
_cell_volume 1286.028797
_symmetry_space_group_name_H-M "C 2 2 21"
_symmetry_group_IT_number 20
_symmetry_cell_setting 'orthorhombic'
loop_
_space_group_symop_operation_xyz
x,y,z
-x,-y,1/2+z
x,-y,-z
-x,y,1/2-z
1/2+x,1/2+y,z
1/2-x,1/2-y,1/2+z
1/2+x,1/2-y,-z
1/2-x,1/2+y,1/2-z
loop_
_atom_site_type_symbol
_atom_site_label
_atom_site_fract_x
_atom_site_fract_y
_atom_site_fract_z
Si Si1 0.380524 0.800737 0.364982
Si Si2 0.000000 0.008302 0.750000
Si Si3 0.031543 0.500000 0.000000
Si Si4 0.331004 0.237822 0.175009
Si Si5 0.865056 0.771997 0.922045
Si Si6 0.796221 0.000000 0.500000
O O1 0.466016 0.687094 0.315531
O O2 0.282197 0.807335 0.315240
O O3 0.354527 0.597280 0.429791
O O4 0.410449 0.036459 0.421084
O O5 0.907140 0.193869 0.760011
O O6 0.957707 0.716473 0.972047
O O7 0.362945 0.452230 0.114840
O O8 0.348800 0.955983 0.140489
O O9 0.774367 0.725773 0.975009
#
# Coordination Sequence:
#
# PCOD9320729 Si02
#       6
#     8   4   4   8   8   4
#     4  11  25  47  81 119 165 220 280 349 420 498
#     4  12  28  52  80 122 172 224 276 340 430 516
#     4  11  22  42  79 118 152 206 275 346 399 480
#     4  11  26  52  74 113 159 213 267 332 406 500
#     4  10  23  46  79 111 154 201 272 337 405 473
#     4   9  22  42  75 112 150 212 273 340 401 482
#
# _framework density 27.993154000000001
#
# number of rings (size 3 to 8) (size 9 to 14) (size 15 to 20)
#    0.000    1.333    2.222    1.333    3.111   11.556 
#    4.000    0.000    0.000    0.000    0.000    0.000 
#    0.000    0.000    0.000    0.000    0.000    0.000 
#
# Total GULP energy -100790.043042 kJ/mol
# GULP energy per Si atom -5599.446836 kJ/mol
# Density = 2.792944 g / cm^3
# Si number density = 27.993154 Si / 1000 Ang^3
#
#
#
# Elastic Constant Matrix: (Units=GPa)
#
#
# Indices 1 2 3 4 5 6 
#
# 1 189.0712 0.6694 43.9900 0.0000 0.0000 0.0000
# 2 0.6694 66.8723 25.9671 0.0000 0.0000 0.0000
# 3 43.9900 25.9671 119.8179 0.0000 0.0000 0.0000
# 4 0.0000 0.0000 0.0000 45.7770 0.0000 0.0000
# 5 0.0000 0.0000 0.0000 0.0000 74.6359 0.0000
# 6 0.0000 0.0000 0.0000 0.0000 0.0000 37.0615
#
#
#
# Elastic Compliance Matrix: (Units=1/GPa)
#
#
# Indices 1 2 3 4 5 6 
#
# 1 0.005826 0.000843 -0.002322 0.000000 0.000000 0.000000
# 2 0.000843 0.016450 -0.003875 0.000000 0.000000 0.000000
# 3 -0.002322 -0.003875 0.010038 0.000000 0.000000 0.000000
# 4 0.000000 0.000000 0.000000 0.021845 0.000000 0.000000
# 5 0.000000 0.000000 0.000000 0.000000 0.013398 0.000000
# 6 0.000000 0.000000 0.000000 0.000000 0.000000 0.026982
#
#
# Mechanical properties :
#
#
# Convention : Reuss Voigt Hill
#
# Bulk Modulus (GPa) = 46.27924 57.44605 51.86264
# Shear Modulus (GPa) = 44.46459 51.83720 48.15089
#
# Velocity S-wave (km/s) = 3.98981 4.30790 4.15190
# Velocity P-wave (km/s) = 6.14760 6.73127 6.44605
#
# Compressibility (1/GPa) = 0.02160796
#
# Stress axis : x y z
#
# Youngs Moduli (GPa) = 171.63780 60.79032 99.62007
#
# Poissons Ratio (x) = -0.05126 0.23130
# Poissons Ratio (y) = -0.14473 0.38599
# Poissons Ratio (z) = 0.39851 0.23554
#
# Static dielectric constant tensor:
#      x y z
#    x 2.287220 0.000000 0.000000 
#    y 0.000000 2.236730 0.000000 
#    z 0.000000 0.000000 2.277330 
# 
# From -- ./inp_files/27415.got.cif
#   From: 2010.05.17/outbox.cif.g08.bks.cpg/sg20_14_cif.got.tgz:27415.got - 2010.06.03 22:52:26.
