data_PCOD9320920
_publ_section_title
;
Structure prediction by ZEFSAII (Michael W. Deem and Ramdas Pophale) SiO2 
 PCOD9320920
Probable space group: C 2 2 21
;
_chemical_formula_sum "Si O2"
_cell_formula_units_Z 48
_cell_length_a 9.168714
_cell_length_b 15.627828
_cell_length_c 14.470034
_cell_angle_alpha 90.000000
_cell_angle_beta 90.000000
_cell_angle_gamma 90.000000
_cell_volume 2073.368997
_symmetry_space_group_name_H-M "C 2 2 21"
_symmetry_group_IT_number 20
_symmetry_cell_setting 'orthorhombic'
loop_
_space_group_symop_operation_xyz
x,y,z
-x,-y,1/2+z
x,-y,-z
-x,y,1/2-z
1/2+x,1/2+y,z
1/2-x,1/2-y,1/2+z
1/2+x,1/2-y,-z
1/2-x,1/2+y,1/2-z
loop_
_atom_site_type_symbol
_atom_site_label
_atom_site_fract_x
_atom_site_fract_y
_atom_site_fract_z
Si Si1 0.500000 0.684082 0.750000
Si Si2 0.497583 0.019699 0.860539
Si Si3 0.816173 0.923176 0.377672
Si Si4 0.371681 0.710627 0.474229
Si Si5 0.252785 0.500000 0.000000
Si Si6 0.992718 0.084083 0.138359
Si Si7 0.549974 0.821177 0.591058
O O1 0.631296 0.621484 0.782226
O O2 0.541004 0.751065 0.671375
O O3 0.500000 0.033668 0.750000
O O4 0.355748 0.072000 0.893188
O O5 0.465652 0.918217 0.875632
O O6 0.639668 0.039086 0.922889
O O7 0.897675 0.865055 0.451900
O O8 0.877083 0.018400 0.385517
O O9 0.467473 0.681116 0.387920
O O10 0.420781 0.797180 0.521123
O O11 0.203477 0.701964 0.453417
O O12 0.357905 0.553419 0.072265
O O13 0.000000 0.078439 0.250000
#
# Coordination Sequence:
#
# PCOD9320920 Si02
#       7
#     4   8   8   8   4   8   8
#     4  10  24  44  78 100 146 194 254 300 386 468
#     4  12  26  45  75 113 157 198 256 325 396 460
#     4  11  22  47  72 103 140 200 248 310 371 457
#     4  11  25  45  71  96 148 191 245 311 390 450
#     4  12  28  42  76 114 150 194 270 326 382 466
#     4  12  24  45  78 107 141 200 267 313 375 466
#     4  11  25  46  69 104 147 194 241 321 390 457
#
# _framework density 23.150728000000001
#
# number of rings (size 3 to 8) (size 9 to 14) (size 15 to 20)
#    0.000    0.667    5.000    2.000    2.333    0.000 
#    6.000    0.000    0.000    0.000    0.000    0.000 
#    0.000    0.000    0.000    0.000    0.000    0.000 
#
# Total GULP energy -133916.264954 kJ/mol
# GULP energy per Si atom -5579.844373 kJ/mol
# Density = 2.309804 g / cm^3
# Si number density = 23.150728 Si / 1000 Ang^3
#
#
#
# Elastic Constant Matrix: (Units=GPa)
#
#
# Indices 1 2 3 4 5 6 
#
# 1 108.7988 12.4321 49.0404 0.0000 0.0000 0.0000
# 2 12.4321 70.3077 27.8254 0.0000 0.0000 0.0000
# 3 49.0404 27.8254 140.7833 0.0000 0.0000 0.0000
# 4 0.0000 0.0000 0.0000 12.1965 0.0000 0.0000
# 5 0.0000 0.0000 0.0000 0.0000 36.3171 0.0000
# 6 0.0000 0.0000 0.0000 0.0000 0.0000 24.0641
#
#
#
# Elastic Compliance Matrix: (Units=1/GPa)
#
#
# Indices 1 2 3 4 5 6 
#
# 1 0.010917 -0.000461 -0.003712 0.000000 0.000000 0.000000
# 2 -0.000461 0.015450 -0.002893 0.000000 0.000000 0.000000
# 3 -0.003712 -0.002893 0.008968 0.000000 0.000000 0.000000
# 4 0.000000 0.000000 0.000000 0.081991 0.000000 0.000000
# 5 0.000000 0.000000 0.000000 0.000000 0.027535 0.000000
# 6 0.000000 0.000000 0.000000 0.000000 0.000000 0.041556
#
#
# Mechanical properties :
#
#
# Convention : Reuss Voigt Hill
#
# Bulk Modulus (GPa) = 47.16396 55.38729 51.27563
# Shear Modulus (GPa) = 24.08297 29.88833 26.98565
#
# Velocity S-wave (km/s) = 3.22882 3.59699 3.41787
# Velocity P-wave (km/s) = 5.85808 6.42088 6.14593
#
# Compressibility (1/GPa) = 0.02120263
#
# Stress axis : x y z
#
# Youngs Moduli (GPa) = 91.60029 64.72628 111.51028
#
# Poissons Ratio (x) = 0.02987 0.41388
# Poissons Ratio (y) = 0.04227 0.32258
# Poissons Ratio (z) = 0.33999 0.18724
#
# Static dielectric constant tensor:
#      x y z
#    x 1.854030 0.000000 0.000000 
#    y 0.000000 1.847000 0.000000 
#    z 0.000000 0.000000 2.406300 
# 
# From -- ./inp_files/18954.got.cif
#   From: 2010.05.17/outbox.cif.g08.bks.cpg/sg20_10_cif.got.tgz:18954.got - 2010.06.03 22:52:26.
