data_PCOD9320116
_publ_section_title
;
Structure prediction by ZEFSAII (Michael W. Deem and Ramdas Pophale) SiO2 
 PCOD9320116
Probable space group: C 2 2 21
;
_chemical_formula_sum "Si O2"
_cell_formula_units_Z 56
_cell_length_a 13.503356
_cell_length_b 6.426847
_cell_length_c 29.474794
_cell_angle_alpha 90.000000
_cell_angle_beta 90.000000
_cell_angle_gamma 90.000000
_cell_volume 2557.940611
_symmetry_space_group_name_H-M "C 2 2 21"
_symmetry_group_IT_number 20
_symmetry_cell_setting 'orthorhombic'
loop_
_space_group_symop_operation_xyz
x,y,z
-x,-y,1/2+z
x,-y,-z
-x,y,1/2-z
1/2+x,1/2+y,z
1/2-x,1/2-y,1/2+z
1/2+x,1/2-y,-z
1/2-x,1/2+y,1/2-z
loop_
_atom_site_type_symbol
_atom_site_label
_atom_site_fract_x
_atom_site_fract_y
_atom_site_fract_z
Si Si1 0.666497 0.182081 0.221522
Si Si2 0.241197 0.180854 0.683325
Si Si3 0.248718 0.619188 0.953760
Si Si4 0.933997 0.928639 0.672293
Si Si5 0.950723 0.385433 0.545145
Si Si6 0.079085 0.829360 0.385745
Si Si7 0.500000 0.142191 0.750000
Si Si8 0.841131 0.000000 0.500000
O O1 0.734533 0.064387 0.184718
O O2 0.591381 0.009565 0.240717
O O3 0.730237 0.257512 0.264038
O O4 0.605152 0.368801 0.199414
O O5 0.334624 0.298960 0.661801
O O6 0.139172 0.236640 0.658934
O O7 0.144458 0.517693 0.939500
O O8 0.334482 0.587416 0.918031
O O9 0.276395 0.500000 0.000000
O O10 0.225769 0.857654 0.967012
O O11 0.997026 0.005758 0.629838
O O12 0.001584 0.791876 0.706174
O O13 0.991705 0.500000 0.500000
O O14 0.025550 0.350334 0.585860
O O15 0.908752 0.162938 0.527732
#
# Coordination Sequence:
#
# PCOD9320116 Si02
#       8
#     8   8   8   8   8   8   4   4
#     4  11  22  46  69  92 142 183 229 280 355 412
#     4  11  25  43  70 100 136 186 229 288 342 415
#     4   9  22  46  68  98 135 178 225 277 344 416
#     4  11  25  43  65 105 138 174 235 286 338 415
#     4   9  22  46  67  97 135 175 228 284 338 418
#     4  12  26  40  72 104 135 180 231 286 346 402
#     4  10  22  42  70  92 130 186 224 276 348 412
#     4   8  18  44  74  88 128 182 222 274 342 418
#
# _framework density 21.892612
#
# number of rings (size 3 to 8) (size 9 to 14) (size 15 to 20)
#    0.000    2.000    1.429    2.143    8.000    0.000 
#    0.000    8.571    0.000    0.000    0.000    0.000 
#    0.000    0.000    0.000    0.000    0.000    0.000 
#
# Total GULP energy -156512.571528 kJ/mol
# GULP energy per Si atom -5589.734697 kJ/mol
# Density = 2.184278 g / cm^3
# Si number density = 21.892612 Si / 1000 Ang^3
#
#
#
# Elastic Constant Matrix: (Units=GPa)
#
#
# Indices 1 2 3 4 5 6 
#
# 1 70.9544 12.5486 20.7494 0.0000 0.0000 0.0000
# 2 12.5486 93.3074 13.8192 0.0000 0.0000 0.0000
# 3 20.7494 13.8192 46.4919 0.0000 0.0000 0.0000
# 4 0.0000 0.0000 0.0000 10.7485 0.0000 0.0000
# 5 0.0000 0.0000 0.0000 0.0000 63.6897 0.0000
# 6 0.0000 0.0000 0.0000 0.0000 0.0000 21.2190
#
#
#
# Elastic Compliance Matrix: (Units=1/GPa)
#
#
# Indices 1 2 3 4 5 6 
#
# 1 0.016330 -0.001168 -0.006941 0.000000 0.000000 0.000000
# 2 -0.001168 0.011294 -0.002836 0.000000 0.000000 0.000000
# 3 -0.006941 -0.002836 0.025450 0.000000 0.000000 0.000000
# 4 0.000000 0.000000 0.000000 0.093037 0.000000 0.000000
# 5 0.000000 0.000000 0.000000 0.000000 0.015701 0.000000
# 6 0.000000 0.000000 0.000000 0.000000 0.000000 0.047128
#
#
# Mechanical properties :
#
#
# Convention : Reuss Voigt Hill
#
# Bulk Modulus (GPa) = 32.06729 33.88756 32.97742
# Shear Modulus (GPa) = 20.72766 30.04053 25.38409
#
# Velocity S-wave (km/s) = 3.08033 3.70831 3.40881
# Velocity P-wave (km/s) = 5.22787 5.81790 5.53076
#
# Compressibility (1/GPa) = 0.03118443
#
# Stress axis : x y z
#
# Youngs Moduli (GPa) = 61.23744 88.53982 39.29319
#
# Poissons Ratio (x) = 0.10343 0.27273
# Poissons Ratio (y) = 0.07154 0.11143
# Poissons Ratio (z) = 0.42504 0.25108
#
# Static dielectric constant tensor:
#      x y z
#    x 1.795260 0.000000 0.000000 
#    y 0.000000 1.807740 0.000000 
#    z 0.000000 0.000000 1.831030 
# 
# From -- ./inp_files/31310.got.cif
#   From: 2010.05.17/outbox.cif.g08.bks.cpg/sg20_16_cif.got.tgz:31310.got - 2010.06.03 22:52:26.
