data_PCOD9320657
_publ_section_title
;
Structure prediction by ZEFSAII (Michael W. Deem and Ramdas Pophale) SiO2 
 PCOD9320657
Probable space group: C 2 2 21
;
_chemical_formula_sum "Si O2"
_cell_formula_units_Z 48
_cell_length_a 16.176504
_cell_length_b 16.176374
_cell_length_c 7.666551
_cell_angle_alpha 90.000000
_cell_angle_beta 90.000000
_cell_angle_gamma 90.000000
_cell_volume 2006.161436
_symmetry_space_group_name_H-M "C 2 2 21"
_symmetry_group_IT_number 20
_symmetry_cell_setting 'orthorhombic'
loop_
_space_group_symop_operation_xyz
x,y,z
-x,-y,1/2+z
x,-y,-z
-x,y,1/2-z
1/2+x,1/2+y,z
1/2-x,1/2-y,1/2+z
1/2+x,1/2-y,-z
1/2-x,1/2+y,1/2-z
loop_
_atom_site_type_symbol
_atom_site_label
_atom_site_fract_x
_atom_site_fract_y
_atom_site_fract_z
Si Si1 0.871278 0.089241 0.601162
Si Si2 0.589241 0.128722 0.851158
Si Si3 0.551633 0.595916 0.524697
Si Si4 0.840828 0.213029 0.166442
Si Si5 0.786969 0.340827 0.916446
Si Si6 0.595916 0.051637 0.225304
O O1 0.886143 0.091097 0.809328
O O2 0.787733 0.135004 0.545058
O O3 0.959140 0.131721 0.548667
O O4 0.864746 0.000000 0.500000
O O5 0.500000 0.135252 0.750000
O O6 0.635003 0.212266 0.795048
O O7 0.631719 0.040858 0.798664
O O8 0.591100 0.113859 0.059325
O O9 0.534903 0.500000 0.500000
O O10 0.593108 0.641703 0.363750
O O11 0.757858 0.171474 0.233029
O O12 0.828521 0.257853 0.983024
O O13 0.858297 0.406888 0.886253
O O14 0.500000 0.034910 0.250000
#
# Coordination Sequence:
#
# PCOD9320657 Si02
#       6
#     8   8   8   8   8   8
#     4  10  23  44  74 101 137 185 238 291 353 434
#     4  10  23  44  74 101 137 185 238 291 353 434
#     4  10  23  48  72 100 139 191 238 285 357 434
#     4  12  26  43  67 105 143 181 233 297 354 421
#     4  12  26  43  67 105 143 181 233 297 354 421
#     4  10  23  48  72 100 139 191 238 285 357 434
#
# _framework density 23.926289000000001
#
# number of rings (size 3 to 8) (size 9 to 14) (size 15 to 20)
#    0.000    1.333    0.000    4.000    4.667    2.667 
#   18.000    0.000    0.000    0.000    0.000    0.000 
#    0.000    0.000    0.000    0.000    0.000    0.000 
#
# Total GULP energy -133957.517465 kJ/mol
# GULP energy per Si atom -5581.563228 kJ/mol
# Density = 2.387183 g / cm^3
# Si number density = 23.926289 Si / 1000 Ang^3
#
#
#
# Elastic Constant Matrix: (Units=GPa)
#
#
# Indices 1 2 3 4 5 6 
#
# 1 52.8636 38.8421 1.6467 0.0000 0.0000 0.0000
# 2 38.8421 52.8555 1.6449 0.0000 0.0000 0.0000
# 3 1.6467 1.6449 63.8881 0.0000 0.0000 0.0000
# 4 0.0000 0.0000 0.0000 41.0999 0.0000 0.0000
# 5 0.0000 0.0000 0.0000 0.0000 41.0999 0.0000
# 6 0.0000 0.0000 0.0000 0.0000 0.0000 24.8573
#
#
#
# Elastic Compliance Matrix: (Units=1/GPa)
#
#
# Indices 1 2 3 4 5 6 
#
# 1 0.041124 -0.030212 -0.000282 0.000000 0.000000 0.000000
# 2 -0.030212 0.041130 -0.000280 0.000000 0.000000 0.000000
# 3 -0.000282 -0.000280 0.015667 0.000000 0.000000 0.000000
# 4 0.000000 0.000000 0.000000 0.024331 0.000000 0.000000
# 5 0.000000 0.000000 0.000000 0.000000 0.024331 0.000000
# 6 0.000000 0.000000 0.000000 0.000000 0.000000 0.040230
#
#
# Mechanical properties :
#
#
# Convention : Reuss Voigt Hill
#
# Bulk Modulus (GPa) = 27.49353 28.20828 27.85091
# Shear Modulus (GPa) = 19.19484 29.90964 24.55224
#
# Velocity S-wave (km/s) = 2.83547 3.53947 3.20685
# Velocity P-wave (km/s) = 4.71548 5.34033 5.03760
#
# Compressibility (1/GPa) = 0.03637219
#
# Stress axis : x y z
#
# Youngs Moduli (GPa) = 24.31655 24.31288 63.82903
#
# Poissons Ratio (x) = 0.73455 0.01801
# Poissons Ratio (y) = 0.73466 0.01789
# Poissons Ratio (z) = 0.00686 0.00681
#
# Static dielectric constant tensor:
#      x y z
#    x 1.903150 0.000000 0.000000 
#    y 0.000000 1.903150 0.000000 
#    z 0.000000 0.000000 1.964470 
# 
# From -- ./inp_files/8446.got.cif
#   From: 2010.05.17/outbox.cif.g08.bks.cpg/sg20_5_cif.got.tgz:8446.got - 2010.06.03 22:52:26.
