data_PCOD9320884
_publ_section_title
;
Structure prediction by ZEFSAII (Michael W. Deem and Ramdas Pophale) SiO2 
 PCOD9320884
Probable space group: C 2 2 21
;
_chemical_formula_sum "Si O2"
_cell_formula_units_Z 56
_cell_length_a 13.696063
_cell_length_b 11.793578
_cell_length_c 17.531135
_cell_angle_alpha 90.000000
_cell_angle_beta 90.000000
_cell_angle_gamma 90.000000
_cell_volume 2831.726877
_symmetry_space_group_name_H-M "C 2 2 21"
_symmetry_group_IT_number 20
_symmetry_cell_setting 'orthorhombic'
loop_
_space_group_symop_operation_xyz
x,y,z
-x,-y,1/2+z
x,-y,-z
-x,y,1/2-z
1/2+x,1/2+y,z
1/2-x,1/2-y,1/2+z
1/2+x,1/2-y,-z
1/2-x,1/2+y,1/2-z
loop_
_atom_site_type_symbol
_atom_site_label
_atom_site_fract_x
_atom_site_fract_y
_atom_site_fract_z
Si Si1 0.070293 0.172163 0.427469
Si Si2 0.575249 0.891614 0.679723
Si Si3 0.397210 0.153252 0.793351
Si Si4 0.533997 0.551468 0.664308
Si Si5 0.270468 0.693327 0.829923
Si Si6 0.276051 0.868649 0.497521
Si Si7 0.951040 0.256157 0.568565
O O1 0.102552 0.263615 0.365057
O O2 0.164222 0.136819 0.476607
O O3 0.993398 0.222903 0.486533
O O4 0.029890 0.061640 0.385107
O O5 0.500000 0.870057 0.750000
O O6 0.668575 0.808958 0.682498
O O7 0.515238 0.856988 0.604605
O O8 0.605173 0.021998 0.681975
O O9 0.500000 0.170793 0.750000
O O10 0.308458 0.176859 0.735880
O O11 0.500000 0.530926 0.750000
O O12 0.645241 0.597092 0.668212
O O13 0.469700 0.650169 0.624776
O O14 0.219351 0.682805 0.912486
O O15 0.341681 0.797360 0.555950
O O16 0.308211 0.000000 0.500000
#
# Coordination Sequence:
#
# PCOD9320884 Si02
#       7
#     8   8   8   8   8   8   8
#     4  12  24  46  68 102 138 177 230 287 338 416
#     4  10  24  44  68  96 136 178 228 282 341 416
#     4  11  27  42  66 102 136 180 229 281 346 412
#     4  11  24  45  70 100 137 184 225 285 342 415
#     4  11  23  45  67 101 130 176 231 277 348 411
#     4  12  25  42  72  97 134 182 226 281 346 410
#     4  11  24  43  71  98 134 176 233 277 347 401
#
# _framework density 19.775918000000001
#
# number of rings (size 3 to 8) (size 9 to 14) (size 15 to 20)
#    0.000    0.857    4.286    3.429   12.000    0.000 
#    0.000    1.429    0.000    0.000    0.000    0.000 
#    0.000    0.000    0.000    0.000    0.000    0.000 
#
# Total GULP energy -156616.926905 kJ/mol
# GULP energy per Si atom -5593.461675 kJ/mol
# Density = 1.973091 g / cm^3
# Si number density = 19.775918 Si / 1000 Ang^3
#
#
#
# Elastic Constant Matrix: (Units=GPa)
#
#
# Indices 1 2 3 4 5 6 
#
# 1 48.7369 8.1361 -12.4434 0.0000 0.0000 0.0000
# 2 8.1361 74.8834 16.5620 0.0000 0.0000 0.0000
# 3 -12.4434 16.5620 58.4565 0.0000 0.0000 0.0000
# 4 0.0000 0.0000 0.0000 19.7964 0.0000 0.0000
# 5 0.0000 0.0000 0.0000 0.0000 43.7799 0.0000
# 6 0.0000 0.0000 0.0000 0.0000 0.0000 3.4186
#
#
#
# Elastic Compliance Matrix: (Units=1/GPa)
#
#
# Indices 1 2 3 4 5 6 
#
# 1 0.022650 -0.003763 0.005887 0.000000 0.000000 0.000000
# 2 -0.003763 0.014872 -0.005015 0.000000 0.000000 0.000000
# 3 0.005887 -0.005015 0.019781 0.000000 0.000000 0.000000
# 4 0.000000 0.000000 0.000000 0.050514 0.000000 0.000000
# 5 0.000000 0.000000 0.000000 0.000000 0.022842 0.000000
# 6 0.000000 0.000000 0.000000 0.000000 0.000000 0.292513
#
#
# Mechanical properties :
#
#
# Convention : Reuss Voigt Hill
#
# Bulk Modulus (GPa) = 19.40908 22.95399 21.18154
# Shear Modulus (GPa) = 11.20760 24.72046 17.96403
#
# Velocity S-wave (km/s) = 2.38319 3.53941 3.01720
# Velocity P-wave (km/s) = 4.17236 5.32311 4.78247
#
# Compressibility (1/GPa) = 0.05152228
#
# Stress axis : x y z
#
# Youngs Moduli (GPa) = 44.15065 67.24037 50.55425
#
# Poissons Ratio (x) = 0.25303 -0.29764
# Poissons Ratio (y) = 0.16614 0.25351
# Poissons Ratio (z) = -0.25994 0.33718
#
# Static dielectric constant tensor:
#      x y z
#    x 1.699820 0.000000 0.000000 
#    y 0.000000 1.687330 0.000000 
#    z 0.000000 0.000000 1.687460 
# 
# From -- ./inp_files/20757.got.cif
#   From: 2010.05.17/outbox.cif.g08.bks.cpg/sg20_11_cif.got.tgz:20757.got - 2010.06.03 22:52:26.
