data_PCOD9320261
_publ_section_title
;
Structure prediction by ZEFSAII (Michael W. Deem and Ramdas Pophale) SiO2 
 PCOD9320261
Probable space group: C 2 2 21
;
_chemical_formula_sum "Si O2"
_cell_formula_units_Z 40
_cell_length_a 7.447748
_cell_length_b 12.486657
_cell_length_c 17.717810
_cell_angle_alpha 90.000000
_cell_angle_beta 90.000000
_cell_angle_gamma 90.000000
_cell_volume 1647.711587
_symmetry_space_group_name_H-M "C 2 2 21"
_symmetry_group_IT_number 20
_symmetry_cell_setting 'orthorhombic'
loop_
_space_group_symop_operation_xyz
x,y,z
-x,-y,1/2+z
x,-y,-z
-x,y,1/2-z
1/2+x,1/2+y,z
1/2-x,1/2-y,1/2+z
1/2+x,1/2-y,-z
1/2-x,1/2+y,1/2-z
loop_
_atom_site_type_symbol
_atom_site_label
_atom_site_fract_x
_atom_site_fract_y
_atom_site_fract_z
Si Si1 0.157923 0.986067 0.141980
Si Si2 0.800258 0.221076 0.560531
Si Si3 0.806948 0.603829 0.709611
Si Si4 0.092878 0.783369 0.890548
Si Si5 0.943134 0.545151 0.415448
O O1 0.103997 0.886646 0.089306
O O2 0.178340 0.936977 0.224950
O O3 0.050828 0.095982 0.134635
O O4 0.355142 0.023656 0.112991
O O5 0.803933 0.218361 0.470108
O O6 0.596973 0.223885 0.593003
O O7 0.893552 0.330350 0.586047
O O8 0.793860 0.721159 0.672930
O O9 0.816946 0.522088 0.640338
O O10 0.000000 0.603766 0.750000
O O11 0.925284 0.500000 0.500000
#
# Coordination Sequence:
#
# PCOD9320261 Si02
#       5
#     8   8   8   8   8
#     4  11  25  44  70  98 138 180 230 282 353 415
#     4  12  24  44  72 103 137 177 235 288 344 412
#     4  10  22  44  69  95 136 188 221 279 354 416
#     4  12  24  44  75  99 141 182 231 287 350 411
#     4  11  21  44  70  96 138 181 223 281 344 410
#
# _framework density 24.276094000000001
#
# number of rings (size 3 to 8) (size 9 to 14) (size 15 to 20)
#    0.000    0.800    6.000    3.000    2.800    1.600 
#    3.600    0.000    0.000    0.000    0.000    0.000 
#    0.000    0.000    0.000    0.000    0.000    0.000 
#
# Total GULP energy -112076.326004 kJ/mol
# GULP energy per Si atom -5603.816300 kJ/mol
# Density = 2.422084 g / cm^3
# Si number density = 24.276094 Si / 1000 Ang^3
#
#
#
# Elastic Constant Matrix: (Units=GPa)
#
#
# Indices 1 2 3 4 5 6 
#
# 1 134.7688 25.5986 40.3243 0.0000 0.0000 0.0000
# 2 25.5986 198.3904 58.6089 0.0000 0.0000 0.0000
# 3 40.3243 58.6089 164.4389 0.0000 0.0000 0.0000
# 4 0.0000 0.0000 0.0000 54.1673 0.0000 0.0000
# 5 0.0000 0.0000 0.0000 0.0000 -8.0481 0.0000
# 6 0.0000 0.0000 0.0000 0.0000 0.0000 32.5460
#
#
#
# Elastic Compliance Matrix: (Units=1/GPa)
#
#
# Indices 1 2 3 4 5 6 
#
# 1 0.008053 -0.000509 -0.001793 0.000000 0.000000 0.000000
# 2 -0.000509 0.005666 -0.001895 0.000000 0.000000 0.000000
# 3 -0.001793 -0.001895 0.007196 0.000000 0.000000 0.000000
# 4 0.000000 0.000000 0.000000 0.018461 0.000000 0.000000
# 5 0.000000 0.000000 0.000000 0.000000 -0.124252 0.000000
# 6 0.000000 0.000000 0.000000 0.000000 0.000000 0.030726
#
#
# Mechanical properties :
#
#
# Convention : Reuss Voigt Hill
#
# Bulk Modulus (GPa) = 79.86435 82.96241 81.41338
# Shear Modulus (GPa) = -120.24686 40.60411 -39.82138
#
# Velocity S-wave (km/s) = -7.04561 4.09418 -4.05452
# Velocity P-wave (km/s) = 5.76348 7.52319 3.41912
#
# Compressibility (1/GPa) = 0.01252123
#
# Stress axis : x y z
#
# Youngs Moduli (GPa) = 124.17030 176.49194 138.96014
#
# Poissons Ratio (x) = 0.08990 0.24920
# Poissons Ratio (y) = 0.06325 0.26327
# Poissons Ratio (z) = 0.22268 0.33437
#
# Static dielectric constant tensor:
#      x y z
#    x 1.992480 0.000000 0.000000 
#    y 0.000000 1.911060 0.000000 
#    z 0.000000 0.000000 1.889790 
# 
# From -- ./inp_files/23134.got.cif
#   From: 2010.05.17/outbox.cif.g08.bks.cpg/sg20_12_cif.got.tgz:23134.got - 2010.06.03 22:52:26.
