data_PCOD9320785
_publ_section_title
;
Structure prediction by ZEFSAII (Michael W. Deem and Ramdas Pophale) SiO2 
 PCOD9320785
Probable space group: C 2 2 21
;
_chemical_formula_sum "Si O2"
_cell_formula_units_Z 28
_cell_length_a 18.263826
_cell_length_b 12.742206
_cell_length_c 4.703195
_cell_angle_alpha 90.000000
_cell_angle_beta 90.000000
_cell_angle_gamma 90.000000
_cell_volume 1094.534281
_symmetry_space_group_name_H-M "C 2 2 21"
_symmetry_group_IT_number 20
_symmetry_cell_setting 'orthorhombic'
loop_
_space_group_symop_operation_xyz
x,y,z
-x,-y,1/2+z
x,-y,-z
-x,y,1/2-z
1/2+x,1/2+y,z
1/2-x,1/2-y,1/2+z
1/2+x,1/2-y,-z
1/2-x,1/2+y,1/2-z
loop_
_atom_site_type_symbol
_atom_site_label
_atom_site_fract_x
_atom_site_fract_y
_atom_site_fract_z
Si Si1 0.579370 0.391158 0.121651
Si Si2 0.500000 0.220792 0.750000
Si Si3 0.119206 0.428579 0.248344
Si Si4 0.701491 0.240988 0.141749
O O1 0.500000 0.421369 0.250000
O O2 0.609030 0.500000 0.000000
O O3 0.552402 0.300113 0.912386
O O4 0.643784 0.325833 0.272336
O O5 0.442388 0.143883 0.899376
O O6 0.151020 0.500000 0.500000
O O7 0.169497 0.353678 0.050806
O O8 0.083799 0.500000 0.000000
O O9 0.751520 0.298922 0.906607
#
# Coordination Sequence:
#
# PCOD9320785 Si02
#       4
#     8   4   8   8
#     4  11  25  44  76 107 144 192 252 310 374 437
#     4  10  24  40  68 102 144 176 236 308 366 426
#     4  11  24  42  70 101 139 188 240 294 363 440
#     4  11  27  47  72 105 152 196 244 307 371 445
#
# _framework density 25.581658000000001
#
# number of rings (size 3 to 8) (size 9 to 14) (size 15 to 20)
#    0.000    1.143    1.429    2.571   16.000    3.429 
#    0.000    0.000    0.000    0.000    0.000    0.000 
#    0.000    0.000    0.000    0.000    0.000    0.000 
#
# Total GULP energy -78032.497256 kJ/mol
# GULP energy per Si atom -5573.749804 kJ/mol
# Density = 2.552343 g / cm^3
# Si number density = 25.581658 Si / 1000 Ang^3
#
#
#
# Elastic Constant Matrix: (Units=GPa)
#
#
# Indices 1 2 3 4 5 6 
#
# 1 61.8676 38.8668 16.0846 0.0000 0.0000 0.0000
# 2 38.8668 136.3467 38.3952 0.0000 0.0000 0.0000
# 3 16.0846 38.3952 92.1367 0.0000 0.0000 0.0000
# 4 0.0000 0.0000 0.0000 41.4265 0.0000 0.0000
# 5 0.0000 0.0000 0.0000 0.0000 -30.9022 0.0000
# 6 0.0000 0.0000 0.0000 0.0000 0.0000 25.7545
#
#
#
# Elastic Compliance Matrix: (Units=1/GPa)
#
#
# Indices 1 2 3 4 5 6 
#
# 1 0.019816 -0.005296 -0.001252 0.000000 0.000000 0.000000
# 2 -0.005296 0.009725 -0.003128 0.000000 0.000000 0.000000
# 3 -0.001252 -0.003128 0.012376 0.000000 0.000000 0.000000
# 4 0.000000 0.000000 0.000000 0.024139 0.000000 0.000000
# 5 0.000000 0.000000 0.000000 0.000000 -0.032360 0.000000
# 6 0.000000 0.000000 0.000000 0.000000 0.000000 0.038828
#
#
# Mechanical properties :
#
#
# Convention : Reuss Voigt Hill
#
# Bulk Modulus (GPa) = 44.31898 53.00491 48.66194
# Shear Modulus (GPa) = 50.30283 20.38938 35.34611
#
# Velocity S-wave (km/s) = 4.43918 2.82624 3.72115
# Velocity P-wave (km/s) = 6.60585 5.60491 6.12586
#
# Compressibility (1/GPa) = 0.02256370
#
# Stress axis : x y z
#
# Youngs Moduli (GPa) = 50.46349 102.83006 80.80451
#
# Poissons Ratio (x) = 0.54460 0.10120
# Poissons Ratio (y) = 0.26726 0.25275
# Poissons Ratio (z) = 0.06320 0.32165
#
# Static dielectric constant tensor:
#      x y z
#    x 2.243060 0.000000 0.000000 
#    y 0.000000 2.096960 0.000000 
#    z 0.000000 0.000000 2.310090 
# 
# From -- ./inp_files/2364.got.cif
#   From: 2010.05.17/outbox.cif.g08.bks.cpg/sg20_2_cif.got.tgz:2364.got - 2010.06.03 22:52:26.
