data_PCOD9320971
_publ_section_title
;
Structure prediction by ZEFSAII (Michael W. Deem and Ramdas Pophale) SiO2 
 PCOD9320971
Probable space group: C 2 2 21
;
_chemical_formula_sum "Si O2"
_cell_formula_units_Z 24
_cell_length_a 17.554740
_cell_length_b 10.358555
_cell_length_c 4.913770
_cell_angle_alpha 90.000000
_cell_angle_beta 90.000000
_cell_angle_gamma 90.000000
_cell_volume 893.528486
_symmetry_space_group_name_H-M "C 2 2 21"
_symmetry_group_IT_number 20
_symmetry_cell_setting 'orthorhombic'
loop_
_space_group_symop_operation_xyz
x,y,z
-x,-y,1/2+z
x,-y,-z
-x,y,1/2-z
1/2+x,1/2+y,z
1/2-x,1/2-y,1/2+z
1/2+x,1/2-y,-z
1/2-x,1/2+y,1/2-z
loop_
_atom_site_type_symbol
_atom_site_label
_atom_site_fract_x
_atom_site_fract_y
_atom_site_fract_z
Si Si1 0.298119 0.276326 0.347980
Si Si2 0.426200 0.114555 0.145278
Si Si3 0.626650 0.500000 0.500000
Si Si4 0.500000 0.671362 0.250000
O O1 0.262387 0.290555 0.643199
O O2 0.371560 0.183366 0.360145
O O3 0.324053 0.402295 0.182407
O O4 0.500000 0.959297 0.750000
O O5 0.466468 0.228963 0.975195
O O6 0.379788 0.000000 0.000000
O O7 0.570964 0.571934 0.281819
#
# Coordination Sequence:
#
# PCOD9320971 Si02
#       4
#     8   8   4   4
#     4  11  29  48  73 108 149 200 243 305 375 439
#     4  11  25  45  77 106 148 188 251 307 369 441
#     4  10  26  44  78 102 150 190 254 302 372 446
#     4  10  24  46  70 112 132 194 240 314 358 432
#
# _framework density 26.859805000000001
#
# number of rings (size 3 to 8) (size 9 to 14) (size 15 to 20)
#    0.000    1.333    1.667    0.000   23.333    0.000 
#    0.000    0.000    0.000    0.000    0.000    0.000 
#    0.000    0.000    0.000    0.000    0.000    0.000 
#
# Total GULP energy -67007.404677 kJ/mol
# GULP energy per Si atom -5583.950390 kJ/mol
# Density = 2.679867 g / cm^3
# Si number density = 26.859805 Si / 1000 Ang^3
#
#
#
# Elastic Constant Matrix: (Units=GPa)
#
#
# Indices 1 2 3 4 5 6 
#
# 1 112.6370 19.0428 21.1919 0.0000 0.0000 0.0000
# 2 19.0428 111.8811 13.8273 0.0000 0.0000 0.0000
# 3 21.1919 13.8273 112.3491 0.0000 0.0000 0.0000
# 4 0.0000 0.0000 0.0000 26.7354 0.0000 0.0000
# 5 0.0000 0.0000 0.0000 0.0000 52.0323 0.0000
# 6 0.0000 0.0000 0.0000 0.0000 0.0000 49.5135
#
#
#
# Elastic Compliance Matrix: (Units=1/GPa)
#
#
# Indices 1 2 3 4 5 6 
#
# 1 0.009417 -0.001405 -0.001603 0.000000 0.000000 0.000000
# 2 -0.001405 0.009286 -0.000878 0.000000 0.000000 0.000000
# 3 -0.001603 -0.000878 0.009311 0.000000 0.000000 0.000000
# 4 0.000000 0.000000 0.000000 0.037404 0.000000 0.000000
# 5 0.000000 0.000000 0.000000 0.000000 0.019219 0.000000
# 6 0.000000 0.000000 0.000000 0.000000 0.000000 0.020197
#
#
# Mechanical properties :
#
#
# Convention : Reuss Voigt Hill
#
# Bulk Modulus (GPa) = 49.40177 49.44345 49.42261
# Shear Modulus (GPa) = 41.89268 44.50992 43.20130
#
# Velocity S-wave (km/s) = 3.95356 4.07519 4.01484
# Velocity P-wave (km/s) = 6.26684 6.37109 6.31918
#
# Compressibility (1/GPa) = 0.02024219
#
# Stress axis : x y z
#
# Youngs Moduli (GPa) = 106.18823 107.69317 107.39613
#
# Poissons Ratio (x) = 0.15128 0.17220
# Poissons Ratio (y) = 0.14916 0.09428
# Poissons Ratio (z) = 0.17027 0.09454
#
# Static dielectric constant tensor:
#      x y z
#    x 2.088070 0.000000 0.000000 
#    y 0.000000 2.078780 0.000000 
#    z 0.000000 0.000000 2.073450 
# 
# From -- ./inp_files/912.got.cif
#   From: 2010.05.17/outbox.cif.g08.bks.cpg/sg20_1_cif.got.tgz:912.got - 2010.06.03 22:52:26.
