data_PCOD9320995
_publ_section_title
;
Structure prediction by ZEFSAII (Michael W. Deem and Ramdas Pophale) SiO2 
 PCOD9320995
Probable space group: C 2 2 21
;
_chemical_formula_sum "Si O2"
_cell_formula_units_Z 52
_cell_length_a 5.584704
_cell_length_b 20.534923
_cell_length_c 17.816322
_cell_angle_alpha 90.000000
_cell_angle_beta 90.000000
_cell_angle_gamma 90.000000
_cell_volume 2043.201937
_symmetry_space_group_name_H-M "C 2 2 21"
_symmetry_group_IT_number 20
_symmetry_cell_setting 'orthorhombic'
loop_
_space_group_symop_operation_xyz
x,y,z
-x,-y,1/2+z
x,-y,-z
-x,y,1/2-z
1/2+x,1/2+y,z
1/2-x,1/2-y,1/2+z
1/2+x,1/2-y,-z
1/2-x,1/2+y,1/2-z
loop_
_atom_site_type_symbol
_atom_site_label
_atom_site_fract_x
_atom_site_fract_y
_atom_site_fract_z
Si Si1 0.779634 0.640487 0.427009
Si Si2 0.539399 0.136702 0.830833
Si Si3 0.000000 0.731735 0.250000
Si Si4 0.574085 0.410760 0.434957
Si Si5 0.224708 0.128274 0.163418
Si Si6 0.197216 0.216159 0.908405
Si Si7 0.665651 0.481648 0.179409
O O1 0.746782 0.589548 0.494519
O O2 0.536695 0.635754 0.375895
O O3 0.797166 0.716309 0.451284
O O4 0.037525 0.630111 0.388865
O O5 0.500000 0.166838 0.750000
O O6 0.786307 0.110847 0.860298
O O7 0.460603 0.192067 0.887956
O O8 0.368902 0.073222 0.826995
O O9 0.216143 0.683918 0.275640
O O10 0.070645 0.770316 0.173619
O O11 0.407646 0.347586 0.448952
O O12 0.449649 0.475619 0.404401
O O13 0.237879 0.055295 0.195234
O O14 0.500000 0.464968 0.250000
#
# Coordination Sequence:
#
# PCOD9320995 Si02
#       7
#     8   8   4   8   8   8   8
#     4  11  29  49  73 111 148 200 249 295 390 448
#     4  11  23  40  73 103 139 187 245 308 372 433
#     4  10  24  46  74 110 146 188 250 306 382 424
#     4  11  26  47  71 105 150 196 245 310 369 456
#     4  11  29  49  77 108 148 197 248 313 364 457
#     4  10  25  40  72 104 145 188 242 306 367 449
#     4  11  26  47  73 107 141 193 255 310 374 433
#
# _framework density 25.450251000000002
#
# number of rings (size 3 to 8) (size 9 to 14) (size 15 to 20)
#    0.000    1.231    1.538    0.923   22.615    0.615 
#    0.000    0.000    0.000    0.000    0.000    0.000 
#    0.000    0.000    0.000    0.000    0.000    0.000 
#
# Total GULP energy -145231.954905 kJ/mol
# GULP energy per Si atom -5585.844419 kJ/mol
# Density = 2.539232 g / cm^3
# Si number density = 25.450251 Si / 1000 Ang^3
#
#
#
# Elastic Constant Matrix: (Units=GPa)
#
#
# Indices 1 2 3 4 5 6 
#
# 1 81.7030 16.0163 22.8934 0.0000 0.0000 0.0000
# 2 16.0163 91.8333 1.2964 0.0000 0.0000 0.0000
# 3 22.8934 1.2964 59.2764 0.0000 0.0000 0.0000
# 4 0.0000 0.0000 0.0000 18.2051 0.0000 0.0000
# 5 0.0000 0.0000 0.0000 0.0000 40.3641 0.0000
# 6 0.0000 0.0000 0.0000 0.0000 0.0000 14.9120
#
#
#
# Elastic Compliance Matrix: (Units=1/GPa)
#
#
# Indices 1 2 3 4 5 6 
#
# 1 0.014237 -0.002406 -0.005446 0.000000 0.000000 0.000000
# 2 -0.002406 0.011299 0.000682 0.000000 0.000000 0.000000
# 3 -0.005446 0.000682 0.018959 0.000000 0.000000 0.000000
# 4 0.000000 0.000000 0.000000 0.054930 0.000000 0.000000
# 5 0.000000 0.000000 0.000000 0.000000 0.024774 0.000000
# 6 0.000000 0.000000 0.000000 0.000000 0.000000 0.067060
#
#
# Mechanical properties :
#
#
# Convention : Reuss Voigt Hill
#
# Bulk Modulus (GPa) = 33.16193 34.80275 33.98234
# Shear Modulus (GPa) = 23.18562 27.53668 25.36115
#
# Velocity S-wave (km/s) = 3.02158 3.29292 3.16016
# Velocity P-wave (km/s) = 5.02311 5.30681 5.16691
#
# Compressibility (1/GPa) = 0.03015506
#
# Stress axis : x y z
#
# Youngs Moduli (GPa) = 70.23895 88.50088 52.74678
#
# Poissons Ratio (x) = 0.21295 0.28726
# Poissons Ratio (y) = 0.16901 -0.03598
# Poissons Ratio (z) = 0.38252 -0.06037
#
# Static dielectric constant tensor:
#      x y z
#    x 2.075240 0.000000 0.000000 
#    y 0.000000 1.940640 0.000000 
#    z 0.000000 0.000000 2.403610 
# 
# From -- ./inp_files/26122.got.cif
#   From: 2010.05.17/outbox.cif.g08.bks.cpg/sg20_14_cif.got.tgz:26122.got - 2010.06.03 22:52:26.
