data_PCOD9320899
_publ_section_title
;
Structure prediction by ZEFSAII (Michael W. Deem and Ramdas Pophale) SiO2 
 PCOD9320899
Probable space group: C 2 2 21
;
_chemical_formula_sum "Si O2"
_cell_formula_units_Z 56
_cell_length_a 8.411287
_cell_length_b 22.644752
_cell_length_c 13.776638
_cell_angle_alpha 90.000000
_cell_angle_beta 90.000000
_cell_angle_gamma 90.000000
_cell_volume 2624.057017
_symmetry_space_group_name_H-M "C 2 2 21"
_symmetry_group_IT_number 20
_symmetry_cell_setting 'orthorhombic'
loop_
_space_group_symop_operation_xyz
x,y,z
-x,-y,1/2+z
x,-y,-z
-x,y,1/2-z
1/2+x,1/2+y,z
1/2-x,1/2-y,1/2+z
1/2+x,1/2-y,-z
1/2-x,1/2+y,1/2-z
loop_
_atom_site_type_symbol
_atom_site_label
_atom_site_fract_x
_atom_site_fract_y
_atom_site_fract_z
Si Si1 0.310230 0.068783 0.888465
Si Si2 0.179858 0.768934 0.790933
Si Si3 0.322226 0.789934 0.594269
Si Si4 0.055864 0.500000 0.000000
Si Si5 0.678758 0.183274 0.479273
Si Si6 0.059872 0.000000 0.000000
Si Si7 0.319814 0.361177 0.209224
Si Si8 0.813346 0.094972 0.007658
O O1 0.281844 0.101976 0.787797
O O2 0.456098 0.025313 0.909630
O O3 0.321599 0.119372 0.971589
O O4 0.162257 0.027651 0.914292
O O5 0.302545 0.791057 0.709258
O O6 0.207215 0.807306 0.886986
O O7 0.232498 0.701173 0.811039
O O8 0.000000 0.770701 0.750000
O O9 0.500437 0.798708 0.554028
O O10 0.248292 0.728189 0.559101
O O11 0.210957 0.841420 0.552583
O O12 0.162143 0.554865 0.031737
O O13 0.957823 0.945675 0.960003
O O14 0.500000 0.351871 0.250000
O O15 0.327916 0.395742 0.108001
#
# Coordination Sequence:
#
# PCOD9320899 Si02
#       8
#     8   8   8   4   8   4   8   8
#     4  11  24  45  73 100 142 180 235 280 349 408
#     4  12  28  42  67 108 140 183 236 284 363 425
#     4  12  25  44  70 102 143 181 226 293 352 409
#     4  10  24  48  66  98 128 194 226 282 336 410
#     4  12  25  44  70 102 143 181 226 293 352 409
#     4  10  24  44  70  94 136 186 230 278 336 414
#     4  12  24  42  71 108 136 177 236 286 339 429
#     4  11  24  45  73 100 142 180 235 280 349 408
#
# _framework density 21.340997999999999
#
# number of rings (size 3 to 8) (size 9 to 14) (size 15 to 20)
#    0.000    0.571    5.714    2.143    6.000    0.000 
#    0.000    8.571    0.000    0.000    0.000    0.000 
#    0.000    0.000    0.000    0.000    0.000    0.000 
#
# Total GULP energy -156606.210677 kJ/mol
# GULP energy per Si atom -5593.078953 kJ/mol
# Density = 2.129243 g / cm^3
# Si number density = 21.340998 Si / 1000 Ang^3
#
#
#
# Elastic Constant Matrix: (Units=GPa)
#
#
# Indices 1 2 3 4 5 6 
#
# 1 88.0021 31.3753 -1.8486 0.0000 0.0000 0.0000
# 2 31.3753 82.9101 40.4527 0.0000 0.0000 0.0000
# 3 -1.8486 40.4527 76.4609 0.0000 0.0000 0.0000
# 4 0.0000 0.0000 0.0000 15.5788 0.0000 0.0000
# 5 0.0000 0.0000 0.0000 0.0000 11.2455 0.0000
# 6 0.0000 0.0000 0.0000 0.0000 0.0000 29.5970
#
#
#
# Elastic Compliance Matrix: (Units=1/GPa)
#
#
# Indices 1 2 3 4 5 6 
#
# 1 0.014097 -0.007415 0.004264 0.000000 0.000000 0.000000
# 2 -0.007415 0.020158 -0.010844 0.000000 0.000000 0.000000
# 3 0.004264 -0.010844 0.018919 0.000000 0.000000 0.000000
# 4 0.000000 0.000000 0.000000 0.064190 0.000000 0.000000
# 5 0.000000 0.000000 0.000000 0.000000 0.088924 0.000000
# 6 0.000000 0.000000 0.000000 0.000000 0.000000 0.033787
#
#
# Mechanical properties :
#
#
# Convention : Reuss Voigt Hill
#
# Bulk Modulus (GPa) = 39.70926 43.03688 41.37307
# Shear Modulus (GPa) = 18.08579 23.11051 20.59815
#
# Velocity S-wave (km/s) = 2.91429 3.29434 3.11012
# Velocity P-wave (km/s) = 5.47462 5.88900 5.68559
#
# Compressibility (1/GPa) = 0.02518304
#
# Stress axis : x y z
#
# Youngs Moduli (GPa) = 70.93953 49.60750 52.85696
#
# Poissons Ratio (x) = 0.36783 -0.22537
# Poissons Ratio (y) = 0.52600 0.57320
# Poissons Ratio (z) = -0.30247 0.53796
#
# Static dielectric constant tensor:
#      x y z
#    x 1.835670 0.000000 0.000000 
#    y 0.000000 1.767640 0.000000 
#    z 0.000000 0.000000 1.740730 
# 
# From -- ./inp_files/19254.got.cif
#   From: 2010.05.17/outbox.cif.g08.bks.cpg/sg20_10_cif.got.tgz:19254.got - 2010.06.03 22:52:26.
