data_PCOD9320278
_publ_section_title
;
Structure prediction by ZEFSAII (Michael W. Deem and Ramdas Pophale) SiO2 
 PCOD9320278
Probable space group: C 2 2 21
;
_chemical_formula_sum "Si O2"
_cell_formula_units_Z 44
_cell_length_a 5.672707
_cell_length_b 12.654110
_cell_length_c 24.727612
_cell_angle_alpha 90.000000
_cell_angle_beta 90.000000
_cell_angle_gamma 90.000000
_cell_volume 1775.023616
_symmetry_space_group_name_H-M "C 2 2 21"
_symmetry_group_IT_number 20
_symmetry_cell_setting 'orthorhombic'
loop_
_space_group_symop_operation_xyz
x,y,z
-x,-y,1/2+z
x,-y,-z
-x,y,1/2-z
1/2+x,1/2+y,z
1/2-x,1/2-y,1/2+z
1/2+x,1/2-y,-z
1/2-x,1/2+y,1/2-z
loop_
_atom_site_type_symbol
_atom_site_label
_atom_site_fract_x
_atom_site_fract_y
_atom_site_fract_z
Si Si1 0.773220 0.384448 0.518290
Si Si2 0.000000 0.124264 0.750000
Si Si3 0.746791 0.128988 0.648529
Si Si4 0.124299 0.533553 0.195095
Si Si5 0.112043 0.764444 0.414272
Si Si6 0.523625 0.662344 0.382538
O O1 0.848969 0.500000 0.500000
O O2 0.743103 0.314648 0.465293
O O3 0.544738 0.389956 0.558072
O O4 0.944881 0.321258 0.557483
O O5 0.162547 0.177777 0.794681
O O6 0.189821 0.052871 0.718183
O O7 0.583759 0.028813 0.662127
O O8 0.599168 0.215091 0.616937
O O9 0.984477 0.134158 0.613055
O O10 0.300954 0.604303 0.158685
O O11 0.000000 0.578874 0.250000
O O12 0.250432 0.689641 0.371326
#
# Coordination Sequence:
#
# PCOD9320278 Si02
#       6
#     8   4   8   8   8   8
#     4  11  26  45  72 104 147 199 249 312 381 452
#     4  10  22  44  72 102 142 190 246 312 384 454
#     4  10  24  44  73 101 148 190 250 314 385 450
#     4  10  24  47  71 109 148 196 255 315 383 469
#     4  11  24  49  71 109 150 196 259 316 378 473
#     4  11  25  45  72 106 147 194 253 314 389 459
#
# _framework density 24.788402000000001
#
# number of rings (size 3 to 8) (size 9 to 14) (size 15 to 20)
#    0.000    1.455    1.818    1.091    6.364    6.545 
#    4.909    0.000    0.000    0.000    0.000    0.000 
#    0.000    0.000    0.000    0.000    0.000    0.000 
#
# Total GULP energy -122538.156873 kJ/mol
# GULP energy per Si atom -5569.916222 kJ/mol
# Density = 2.473198 g / cm^3
# Si number density = 24.788402 Si / 1000 Ang^3
#
#
#
# Elastic Constant Matrix: (Units=GPa)
#
#
# Indices 1 2 3 4 5 6 
#
# 1 106.1227 40.2597 44.1046 0.0000 0.0000 0.0000
# 2 40.2597 102.0775 42.4109 0.0000 0.0000 0.0000
# 3 44.1046 42.4109 105.0703 0.0000 0.0000 0.0000
# 4 0.0000 0.0000 0.0000 43.3171 0.0000 0.0000
# 5 0.0000 0.0000 0.0000 0.0000 37.9985 0.0000
# 6 0.0000 0.0000 0.0000 0.0000 0.0000 26.2710
#
#
#
# Elastic Compliance Matrix: (Units=1/GPa)
#
#
# Indices 1 2 3 4 5 6 
#
# 1 0.012244 -0.003236 -0.003833 0.000000 0.000000 0.000000
# 2 -0.003236 0.012626 -0.003738 0.000000 0.000000 0.000000
# 3 -0.003833 -0.003738 0.012635 0.000000 0.000000 0.000000
# 4 0.000000 0.000000 0.000000 0.023086 0.000000 0.000000
# 5 0.000000 0.000000 0.000000 0.000000 0.026317 0.000000
# 6 0.000000 0.000000 0.000000 0.000000 0.000000 0.038065
#
#
# Mechanical properties :
#
#
# Convention : Reuss Voigt Hill
#
# Bulk Modulus (GPa) = 62.93201 62.98010 62.95606
# Shear Modulus (GPa) = 32.91990 33.95035 33.43512
#
# Velocity S-wave (km/s) = 3.64818 3.70483 3.67661
# Velocity P-wave (km/s) = 6.57179 6.61538 6.59362
#
# Compressibility (1/GPa) = 0.01589016
#
# Stress axis : x y z
#
# Youngs Moduli (GPa) = 81.67308 79.20209 79.14398
#
# Poissons Ratio (x) = 0.25633 0.30337
# Poissons Ratio (y) = 0.26433 0.29583
# Poissons Ratio (z) = 0.31307 0.29604
#
# Static dielectric constant tensor:
#      x y z
#    x 2.319600 0.000000 0.000000 
#    y 0.000000 1.920060 0.000000 
#    z 0.000000 0.000000 2.074050 
# 
# From -- ./inp_files/29767.got.cif
#   From: 2010.05.17/outbox.cif.g08.bks.cpg/sg20_15_cif.got.tgz:29767.got - 2010.06.03 22:52:26.
