data_PCOD9320787
_publ_section_title
;
Structure prediction by ZEFSAII (Michael W. Deem and Ramdas Pophale) SiO2 
 PCOD9320787
Probable space group: C 2 2 21
;
_chemical_formula_sum "Si O2"
_cell_formula_units_Z 40
_cell_length_a 12.357888
_cell_length_b 19.167924
_cell_length_c 8.476199
_cell_angle_alpha 90.000000
_cell_angle_beta 90.000000
_cell_angle_gamma 90.000000
_cell_volume 2007.800130
_symmetry_space_group_name_H-M "C 2 2 21"
_symmetry_group_IT_number 20
_symmetry_cell_setting 'orthorhombic'
loop_
_space_group_symop_operation_xyz
x,y,z
-x,-y,1/2+z
x,-y,-z
-x,y,1/2-z
1/2+x,1/2+y,z
1/2-x,1/2-y,1/2+z
1/2+x,1/2-y,-z
1/2-x,1/2+y,1/2-z
loop_
_atom_site_type_symbol
_atom_site_label
_atom_site_fract_x
_atom_site_fract_y
_atom_site_fract_z
Si Si1 0.212031 0.048236 0.345575
Si Si2 0.802069 0.695564 0.393675
Si Si3 0.164464 0.000000 0.000000
Si Si4 0.996675 0.123504 0.464935
Si Si5 0.500000 0.282411 0.250000
Si Si6 0.887544 0.744233 0.706498
O O1 0.288761 0.115760 0.344456
O O2 0.091071 0.080949 0.375375
O O3 0.232014 0.000000 0.500000
O O4 0.219253 0.012733 0.172189
O O5 0.822294 0.701488 0.578552
O O6 0.692282 0.735965 0.346678
O O7 0.902809 0.734278 0.311915
O O8 0.088843 0.067158 0.976399
O O9 0.042623 0.166728 0.612344
O O10 0.928736 0.183153 0.372820
O O11 0.000000 0.707724 0.750000
#
# Coordination Sequence:
#
# PCOD9320787 Si02
#       6
#     8   8   4   8   4   8
#     4  12  24  40  65  98 137 177 221 279 347 407
#     4  11  24  42  65  96 137 175 229 280 333 406
#     4  12  22  36  64 100 138 172 206 282 354 414
#     4  11  20  38  61  99 134 166 220 282 348 405
#     4  10  24  40  68  92 128 188 228 272 344 398
#     4  11  22  41  66  97 135 172 221 282 338 404
#
# _framework density 19.922301999999998
#
# number of rings (size 3 to 8) (size 9 to 14) (size 15 to 20)
#    0.000    0.800    5.000    3.000    2.800    1.600 
#    0.000    0.000    4.400    0.000    0.000    0.000 
#    0.000    0.000    0.000    0.000    0.000    0.000 
#
# Total GULP energy -111624.419907 kJ/mol
# GULP energy per Si atom -5581.220995 kJ/mol
# Density = 1.987696 g / cm^3
# Si number density = 19.922302 Si / 1000 Ang^3
#
#
#
# Elastic Constant Matrix: (Units=GPa)
#
#
# Indices 1 2 3 4 5 6 
#
# 1 70.1595 2.7305 38.9963 0.0000 0.0000 0.0000
# 2 2.7305 57.4935 40.1122 0.0000 0.0000 0.0000
# 3 38.9963 40.1122 145.8218 0.0000 0.0000 0.0000
# 4 0.0000 0.0000 0.0000 43.7319 0.0000 0.0000
# 5 0.0000 0.0000 0.0000 0.0000 34.1304 0.0000
# 6 0.0000 0.0000 0.0000 0.0000 0.0000 34.1967
#
#
#
# Elastic Compliance Matrix: (Units=1/GPa)
#
#
# Indices 1 2 3 4 5 6 
#
# 1 0.017137 0.002950 -0.005394 0.000000 0.000000 0.000000
# 2 0.002950 0.022032 -0.006849 0.000000 0.000000 0.000000
# 3 -0.005394 -0.006849 0.010184 0.000000 0.000000 0.000000
# 4 0.000000 0.000000 0.000000 0.022867 0.000000 0.000000
# 5 0.000000 0.000000 0.000000 0.000000 0.029299 0.000000
# 6 0.000000 0.000000 0.000000 0.000000 0.000000 0.029243
#
#
# Mechanical properties :
#
#
# Convention : Reuss Voigt Hill
#
# Bulk Modulus (GPa) = 32.50440 48.57253 40.53846
# Shear Modulus (GPa) = 31.32759 35.18753 33.25756
#
# Velocity S-wave (km/s) = 3.96976 4.20722 4.09022
# Velocity P-wave (km/s) = 6.11253 6.93072 6.53444
#
# Compressibility (1/GPa) = 0.03076507
#
# Stress axis : x y z
#
# Youngs Moduli (GPa) = 58.35458 45.38901 98.19084
#
# Poissons Ratio (x) = -0.13387 0.52965
# Poissons Ratio (y) = -0.17212 0.67253
# Poissons Ratio (z) = 0.31477 0.31088
#
# Static dielectric constant tensor:
#      x y z
#    x 1.700550 0.000000 0.000000 
#    y 0.000000 1.695690 0.000000 
#    z 0.000000 0.000000 1.849490 
# 
# From -- ./inp_files/7256.got.cif
#   From: 2010.05.17/outbox.cif.g08.bks.cpg/sg20_4_cif.got.tgz:7256.got - 2010.06.03 22:52:26.
