data_PCOD9320592
_publ_section_title
;
Structure prediction by ZEFSAII (Michael W. Deem and Ramdas Pophale) SiO2 
 PCOD9320592
Probable space group: C 2 2 21
;
_chemical_formula_sum "Si O2"
_cell_formula_units_Z 32
_cell_length_a 21.776611
_cell_length_b 11.542835
_cell_length_c 4.943480
_cell_angle_alpha 90.000000
_cell_angle_beta 90.000000
_cell_angle_gamma 90.000000
_cell_volume 1242.612055
_symmetry_space_group_name_H-M "C 2 2 21"
_symmetry_group_IT_number 20
_symmetry_cell_setting 'orthorhombic'
loop_
_space_group_symop_operation_xyz
x,y,z
-x,-y,1/2+z
x,-y,-z
-x,y,1/2-z
1/2+x,1/2+y,z
1/2-x,1/2-y,1/2+z
1/2+x,1/2-y,-z
1/2-x,1/2+y,1/2-z
loop_
_atom_site_type_symbol
_atom_site_label
_atom_site_fract_x
_atom_site_fract_y
_atom_site_fract_z
Si Si1 0.615993 0.296600 0.195257
Si Si2 0.500000 0.427437 0.250000
Si Si3 0.727015 0.821009 0.842502
Si Si4 0.703704 0.500000 0.000000
Si Si5 0.546347 0.872610 0.495905
O O1 0.551456 0.350285 0.104196
O O2 0.655926 0.190945 0.069812
O O3 0.593345 0.234199 0.472590
O O4 0.659959 0.406111 0.141946
O O5 0.528270 0.500000 0.500000
O O6 0.734214 0.735899 0.582049
O O7 0.753806 0.938786 0.724374
O O8 0.500000 0.874075 0.750000
O O9 0.577352 0.000000 0.500000
O O10 0.500000 0.861555 0.250000
#
# Coordination Sequence:
#
# PCOD9320592 Si02
#       5
#     8   4   8   4   8
#     4  11  24  45  76 102 155 184 250 303 373 442
#     4  12  28  42  70 110 144 192 232 302 380 438
#     4  10  25  44  68  97 138 193 244 296 355 424
#     4  10  24  48  72 108 144 200 250 304 362 438
#     4  10  23  43  68 105 145 191 241 292 368 446
#
# _framework density 25.752206000000001
#
# number of rings (size 3 to 8) (size 9 to 14) (size 15 to 20)
#    0.000    1.500    2.500    0.000    7.000    7.000 
#    0.000    0.000    0.000    0.000    0.000    0.000 
#    0.000    0.000    0.000    0.000    0.000    0.000 
#
# Total GULP energy -89229.153509 kJ/mol
# GULP energy per Si atom -5576.822094 kJ/mol
# Density = 2.569359 g / cm^3
# Si number density = 25.752206 Si / 1000 Ang^3
#
#
#
# Elastic Constant Matrix: (Units=GPa)
#
#
# Indices 1 2 3 4 5 6 
#
# 1 132.9245 46.5843 12.3940 0.0000 0.0000 0.0000
# 2 46.5843 151.5283 39.7824 0.0000 0.0000 0.0000
# 3 12.3940 39.7824 139.2347 0.0000 0.0000 0.0000
# 4 0.0000 0.0000 0.0000 50.8014 0.0000 0.0000
# 5 0.0000 0.0000 0.0000 0.0000 15.5576 0.0000
# 6 0.0000 0.0000 0.0000 0.0000 0.0000 8.9491
#
#
#
# Elastic Compliance Matrix: (Units=1/GPa)
#
#
# Indices 1 2 3 4 5 6 
#
# 1 0.008431 -0.002589 -0.000011 0.000000 0.000000 0.000000
# 2 -0.002589 0.007930 -0.002035 0.000000 0.000000 0.000000
# 3 -0.000011 -0.002035 0.007765 0.000000 0.000000 0.000000
# 4 0.000000 0.000000 0.000000 0.019685 0.000000 0.000000
# 5 0.000000 0.000000 0.000000 0.000000 0.064277 0.000000
# 6 0.000000 0.000000 0.000000 0.000000 0.000000 0.111744
#
#
# Mechanical properties :
#
#
# Convention : Reuss Voigt Hill
#
# Bulk Modulus (GPa) = 67.31554 69.02322 68.16938
# Shear Modulus (GPa) = 21.36266 36.72340 29.04303
#
# Velocity S-wave (km/s) = 2.88331 3.78038 3.36190
# Velocity P-wave (km/s) = 6.10583 6.77614 6.44969
#
# Compressibility (1/GPa) = 0.01485541
#
# Stress axis : x y z
#
# Youngs Moduli (GPa) = 118.60286 126.10696 128.78995
#
# Poissons Ratio (x) = 0.32653 0.00138
# Poissons Ratio (y) = 0.30710 0.26212
# Poissons Ratio (z) = 0.00127 0.25666
#
# Static dielectric constant tensor:
#      x y z
#    x 2.110280 0.000000 0.000000 
#    y 0.000000 2.134090 0.000000 
#    z 0.000000 0.000000 2.177510 
# 
# From -- ./inp_files/2995.got.cif
#   From: 2010.05.17/outbox.cif.g08.bks.cpg/sg20_2_cif.got.tgz:2995.got - 2010.06.03 22:52:26.
