data_PCOD9320066
_publ_section_title
;
Structure prediction by ZEFSAII (Michael W. Deem and Ramdas Pophale) SiO2 
 PCOD9320066
Probable space group: C 2 2 21
;
_chemical_formula_sum "Si O2"
_cell_formula_units_Z 40
_cell_length_a 17.328490
_cell_length_b 20.342827
_cell_length_c 5.289289
_cell_angle_alpha 90.000000
_cell_angle_beta 90.000000
_cell_angle_gamma 90.000000
_cell_volume 1864.529774
_symmetry_space_group_name_H-M "C 2 2 21"
_symmetry_group_IT_number 20
_symmetry_cell_setting 'orthorhombic'
loop_
_space_group_symop_operation_xyz
x,y,z
-x,-y,1/2+z
x,-y,-z
-x,y,1/2-z
1/2+x,1/2+y,z
1/2-x,1/2-y,1/2+z
1/2+x,1/2-y,-z
1/2-x,1/2+y,1/2-z
loop_
_atom_site_type_symbol
_atom_site_label
_atom_site_fract_x
_atom_site_fract_y
_atom_site_fract_z
Si Si1 0.337973 0.603335 0.170255
Si Si2 0.304859 0.885352 0.324363
Si Si3 0.793933 0.244394 0.329103
Si Si4 0.457849 0.078897 0.494038
Si Si5 0.242653 0.500000 0.500000
Si Si6 0.500000 0.541594 0.250000
O O1 0.333630 0.673684 0.311485
O O2 0.296041 0.542985 0.313364
O O3 0.426644 0.582909 0.150276
O O4 0.283768 0.613591 0.923076
O O5 0.328531 0.813297 0.228584
O O6 0.368249 0.902680 0.530173
O O7 0.309247 0.945295 0.132285
O O8 0.774998 0.260416 0.621311
O O9 0.500000 0.105384 0.250000
O O10 0.462823 0.000000 0.500000
O O11 0.500000 0.102511 0.750000
O O12 0.475943 0.500000 0.500000
#
# Coordination Sequence:
#
# PCOD9320066 Si02
#       6
#     8   8   8   8   4   4
#     4  11  24  42  68  99 140 182 231 284 349 412
#     4  11  24  40  69 100 134 176 235 282 343 417
#     4  10  22  42  66  96 135 177 222 284 342 407
#     4  10  23  39  60  92 131 167 211 280 339 395
#     4  12  20  38  72 104 122 182 234 282 330 424
#     4  12  26  44  68 104 142 180 230 296 342 400
#
# _framework density 21.453130999999999
#
# number of rings (size 3 to 8) (size 9 to 14) (size 15 to 20)
#    0.000    1.200    3.000    3.000    7.000    0.000 
#    1.800    0.000    2.200    0.000    0.000    0.000 
#    0.000    0.000    0.000    0.000    0.000    0.000 
#
# Total GULP energy -111478.972858 kJ/mol
# GULP energy per Si atom -5573.948643 kJ/mol
# Density = 2.140430 g / cm^3
# Si number density = 21.453131 Si / 1000 Ang^3
#
#
#
# Elastic Constant Matrix: (Units=GPa)
#
#
# Indices 1 2 3 4 5 6 
#
# 1 97.2595 5.2696 21.3658 0.0000 0.0000 0.0000
# 2 5.2696 112.5965 17.9492 0.0000 0.0000 0.0000
# 3 21.3658 17.9492 69.5818 0.0000 0.0000 0.0000
# 4 0.0000 0.0000 0.0000 23.9105 0.0000 0.0000
# 5 0.0000 0.0000 0.0000 0.0000 17.2176 0.0000
# 6 0.0000 0.0000 0.0000 0.0000 0.0000 -109.4069
#
#
#
# Elastic Compliance Matrix: (Units=1/GPa)
#
#
# Indices 1 2 3 4 5 6 
#
# 1 0.011026 0.000025 -0.003392 0.000000 0.000000 0.000000
# 2 0.000025 0.009262 -0.002397 0.000000 0.000000 0.000000
# 3 -0.003392 -0.002397 0.016031 0.000000 0.000000 0.000000
# 4 0.000000 0.000000 0.000000 0.041823 0.000000 0.000000
# 5 0.000000 0.000000 0.000000 0.000000 0.058080 0.000000
# 6 0.000000 0.000000 0.000000 0.000000 0.000000 -0.009140
#
#
# Mechanical properties :
#
#
# Convention : Reuss Voigt Hill
#
# Bulk Modulus (GPa) = 40.33710 40.95634 40.64672
# Shear Modulus (GPa) = 34.04288 2.00111 18.02199
#
# Velocity S-wave (km/s) = 3.98785 0.96685 2.90153
# Velocity P-wave (km/s) = 6.32828 4.51430 5.49664
#
# Compressibility (1/GPa) = 0.02479107
#
# Stress axis : x y z
#
# Youngs Moduli (GPa) = 90.69836 107.96568 62.37769
#
# Poissons Ratio (x) = -0.00267 0.21158
# Poissons Ratio (y) = -0.00224 0.14951
# Poissons Ratio (z) = 0.30764 0.25878
#
# Static dielectric constant tensor:
#      x y z
#    x 1.786700 0.000000 0.000000 
#    y 0.000000 1.844140 0.000000 
#    z 0.000000 0.000000 1.975890 
# 
# From -- ./inp_files/2523.got.cif
#   From: 2010.05.17/outbox.cif.g08.bks.cpg/sg20_2_cif.got.tgz:2523.got - 2010.06.03 22:52:26.
