data_PCOD9320631
_publ_section_title
;
Structure prediction by ZEFSAII (Michael W. Deem and Ramdas Pophale) SiO2 
 PCOD9320631
Probable space group: C 2 2 21
;
_chemical_formula_sum "Si O2"
_cell_formula_units_Z 32
_cell_length_a 6.612091
_cell_length_b 18.243636
_cell_length_c 11.263236
_cell_angle_alpha 90.000000
_cell_angle_beta 90.000000
_cell_angle_gamma 90.000000
_cell_volume 1358.668181
_symmetry_space_group_name_H-M "C 2 2 21"
_symmetry_group_IT_number 20
_symmetry_cell_setting 'orthorhombic'
loop_
_space_group_symop_operation_xyz
x,y,z
-x,-y,1/2+z
x,-y,-z
-x,y,1/2-z
1/2+x,1/2+y,z
1/2-x,1/2-y,1/2+z
1/2+x,1/2-y,-z
1/2-x,1/2+y,1/2-z
loop_
_atom_site_type_symbol
_atom_site_label
_atom_site_fract_x
_atom_site_fract_y
_atom_site_fract_z
Si Si1 0.067749 0.918150 0.507213
Si Si2 0.309038 0.824909 0.927556
Si Si3 0.546930 0.961873 0.870490
Si Si4 0.637439 0.824095 0.136138
O O1 0.227162 0.929627 0.614371
O O2 0.211747 0.890562 0.399048
O O3 0.901633 0.856286 0.522279
O O4 0.976416 0.000000 0.500000
O O5 0.395571 0.894017 0.858374
O O6 0.266431 0.750695 0.857235
O O7 0.478181 0.813076 0.028405
O O8 0.500000 0.006019 0.750000
O O9 0.509840 0.000000 0.000000
O O10 0.500000 0.833771 0.250000
#
# Coordination Sequence:
#
# PCOD9320631 Si02
#       4
#     8   8   8   8
#     4  10  23  44  67  99 137 176 235 289 353 421
#     4  11  23  43  67 103 137 185 238 290 352 424
#     4  10  24  43  70 103 145 190 239 297 357 426
#     4  11  25  43  72 101 143 185 237 294 356 424
#
# _framework density 23.552474
#
# number of rings (size 3 to 8) (size 9 to 14) (size 15 to 20)
#    0.000    1.500    2.500    0.750    3.500   11.000 
#    0.000    5.000    0.000    0.000    0.000    0.000 
#    0.000    0.000    0.000    0.000    0.000    0.000 
#
# Total GULP energy -89315.320125 kJ/mol
# GULP energy per Si atom -5582.207508 kJ/mol
# Density = 2.349887 g / cm^3
# Si number density = 23.552474 Si / 1000 Ang^3
#
#
#
# Elastic Constant Matrix: (Units=GPa)
#
#
# Indices 1 2 3 4 5 6 
#
# 1 68.8730 8.2165 -5.1519 0.0000 0.0000 0.0000
# 2 8.2165 149.2533 14.6471 0.0000 0.0000 0.0000
# 3 -5.1519 14.6471 83.7013 0.0000 0.0000 0.0000
# 4 0.0000 0.0000 0.0000 8.8045 0.0000 0.0000
# 5 0.0000 0.0000 0.0000 0.0000 5.5229 0.0000
# 6 0.0000 0.0000 0.0000 0.0000 0.0000 25.7058
#
#
#
# Elastic Compliance Matrix: (Units=1/GPa)
#
#
# Indices 1 2 3 4 5 6 
#
# 1 0.014708 -0.000914 0.001065 0.000000 0.000000 0.000000
# 2 -0.000914 0.006874 -0.001259 0.000000 0.000000 0.000000
# 3 0.001065 -0.001259 0.012233 0.000000 0.000000 0.000000
# 4 0.000000 0.000000 0.000000 0.113579 0.000000 0.000000
# 5 0.000000 0.000000 0.000000 0.000000 0.181065 0.000000
# 6 0.000000 0.000000 0.000000 0.000000 0.000000 0.038902
#
#
# Mechanical properties :
#
#
# Convention : Reuss Voigt Hill
#
# Bulk Modulus (GPa) = 31.64648 37.47233 34.55940
# Shear Modulus (GPa) = 13.15409 26.94769 20.05089
#
# Velocity S-wave (km/s) = 2.36583 3.38621 2.92092
# Velocity P-wave (km/s) = 4.57478 5.58867 5.10695
#
# Compressibility (1/GPa) = 0.03159910
#
# Stress axis : x y z
#
# Youngs Moduli (GPa) = 67.98916 145.47746 81.74502
#
# Poissons Ratio (x) = 0.13300 -0.08708
# Poissons Ratio (y) = 0.06216 0.10293
# Poissons Ratio (z) = -0.07243 0.18318
#
# Static dielectric constant tensor:
#      x y z
#    x 1.893320 0.000000 0.000000 
#    y 0.000000 1.926000 0.000000 
#    z 0.000000 0.000000 1.977610 
# 
# From -- ./inp_files/11884.got.cif
#   From: 2010.05.17/outbox.cif.g08.bks.cpg/sg20_6_cif.got.tgz:11884.got - 2010.06.03 22:52:26.
