data_PCOD9320715
_publ_section_title
;
Structure prediction by ZEFSAII (Michael W. Deem and Ramdas Pophale) SiO2 
 PCOD9320715
Probable space group: C 2 2 21
;
_chemical_formula_sum "Si O2"
_cell_formula_units_Z 32
_cell_length_a 6.598658
_cell_length_b 13.198033
_cell_length_c 16.153115
_cell_angle_alpha 90.000000
_cell_angle_beta 90.000000
_cell_angle_gamma 90.000000
_cell_volume 1406.763576
_symmetry_space_group_name_H-M "C 2 2 21"
_symmetry_group_IT_number 20
_symmetry_cell_setting 'orthorhombic'
loop_
_space_group_symop_operation_xyz
x,y,z
-x,-y,1/2+z
x,-y,-z
-x,y,1/2-z
1/2+x,1/2+y,z
1/2-x,1/2-y,1/2+z
1/2+x,1/2-y,-z
1/2-x,1/2+y,1/2-z
loop_
_atom_site_type_symbol
_atom_site_label
_atom_site_fract_x
_atom_site_fract_y
_atom_site_fract_z
Si Si1 0.300940 0.990981 0.298150
Si Si2 0.863880 0.180736 0.682638
Si Si3 0.243462 0.177093 0.571715
Si Si4 0.577075 0.666618 0.391230
O O1 0.500000 0.032052 0.250000
O O2 0.138404 0.069319 0.336693
O O3 0.201794 0.921295 0.227426
O O4 0.348877 0.913034 0.374830
O O5 0.668964 0.242462 0.661316
O O6 0.000000 0.238090 0.750000
O O7 0.014323 0.172531 0.606209
O O8 0.355522 0.286031 0.586421
O O9 0.212038 0.156815 0.474794
#
# Coordination Sequence:
#
# PCOD9320715 Si02
#       4
#     8   8   8   8
#     4  11  24  47  76 112 151 198 251 311 376 448
#     4  10  23  46  68 104 152 188 247 305 362 450
#     4  11  24  47  72 108 150 192 255 302 370 455
#     4  12  23  46  79 106 149 203 239 316 377 432
#
# _framework density 22.747247999999999
#
# number of rings (size 3 to 8) (size 9 to 14) (size 15 to 20)
#    0.000    1.000    5.000    1.500    0.000    0.000 
#   40.500    0.000    0.000    0.000    0.000    0.000 
#    0.000    0.000    0.000    0.000    0.000    0.000 
#
# Total GULP energy -89116.957799 kJ/mol
# GULP energy per Si atom -5569.809862 kJ/mol
# Density = 2.269547 g / cm^3
# Si number density = 22.747248 Si / 1000 Ang^3
#
#
#
# Elastic Constant Matrix: (Units=GPa)
#
#
# Indices 1 2 3 4 5 6 
#
# 1 54.1800 54.1182 38.3123 0.0000 0.0000 0.0000
# 2 54.1182 156.1351 65.9764 0.0000 0.0000 0.0000
# 3 38.3123 65.9764 112.2853 0.0000 0.0000 0.0000
# 4 0.0000 0.0000 0.0000 38.2750 0.0000 0.0000
# 5 0.0000 0.0000 0.0000 0.0000 37.2520 0.0000
# 6 0.0000 0.0000 0.0000 0.0000 0.0000 26.8910
#
#
#
# Elastic Compliance Matrix: (Units=1/GPa)
#
#
# Indices 1 2 3 4 5 6 
#
# 1 0.030678 -0.008262 -0.005613 0.000000 0.000000 0.000000
# 2 -0.008262 0.010745 -0.003495 0.000000 0.000000 0.000000
# 3 -0.005613 -0.003495 0.012875 0.000000 0.000000 0.000000
# 4 0.000000 0.000000 0.000000 0.026127 0.000000 0.000000
# 5 0.000000 0.000000 0.000000 0.000000 0.026844 0.000000
# 6 0.000000 0.000000 0.000000 0.000000 0.000000 0.037187
#
#
# Mechanical properties :
#
#
# Convention : Reuss Voigt Hill
#
# Bulk Modulus (GPa) = 51.12749 71.04603 61.08676
# Shear Modulus (GPa) = 26.92303 31.42984 29.17644
#
# Velocity S-wave (km/s) = 3.44404 3.72115 3.58528
# Velocity P-wave (km/s) = 6.19196 7.05431 6.63715
#
# Compressibility (1/GPa) = 0.01955895
#
# Stress axis : x y z
#
# Youngs Moduli (GPa) = 32.59616 93.06711 77.67260
#
# Poissons Ratio (x) = 0.76888 0.43600
# Poissons Ratio (y) = 0.26929 0.27144
# Poissons Ratio (z) = 0.18297 0.32523
#
# Static dielectric constant tensor:
#      x y z
#    x 2.026540 0.000000 0.000000 
#    y 0.000000 1.910330 0.000000 
#    z 0.000000 0.000000 2.142830 
# 
# From -- ./inp_files/18209.got.cif
#   From: 2010.05.17/outbox.cif.g08.bks.cpg/sg20_10_cif.got.tgz:18209.got - 2010.06.03 22:52:26.
