data_PCOD9320682
_publ_section_title
;
Structure prediction by ZEFSAII (Michael W. Deem and Ramdas Pophale) SiO2 
 PCOD9320682
Probable space group: C 2 2 21
;
_chemical_formula_sum "Si O2"
_cell_formula_units_Z 32
_cell_length_a 8.737692
_cell_length_b 20.928661
_cell_length_c 7.669439
_cell_angle_alpha 90.000000
_cell_angle_beta 90.000000
_cell_angle_gamma 90.000000
_cell_volume 1402.496457
_symmetry_space_group_name_H-M "C 2 2 21"
_symmetry_group_IT_number 20
_symmetry_cell_setting 'orthorhombic'
loop_
_space_group_symop_operation_xyz
x,y,z
-x,-y,1/2+z
x,-y,-z
-x,y,1/2-z
1/2+x,1/2+y,z
1/2-x,1/2-y,1/2+z
1/2+x,1/2-y,-z
1/2-x,1/2+y,1/2-z
loop_
_atom_site_type_symbol
_atom_site_label
_atom_site_fract_x
_atom_site_fract_y
_atom_site_fract_z
Si Si1 0.666707 0.278824 0.310804
Si Si2 0.324261 0.415492 0.331867
Si Si3 0.660164 0.337129 0.684635
Si Si4 0.818802 0.454747 0.779833
O O1 0.500000 0.256255 0.250000
O O2 0.721515 0.342007 0.205577
O O3 0.641288 0.302907 0.503361
O O4 0.778760 0.218989 0.307269
O O5 0.500000 0.416354 0.250000
O O6 0.249085 0.476065 0.236316
O O7 0.260991 0.431866 0.531966
O O8 0.500000 0.363254 0.750000
O O9 0.770361 0.396340 0.659268
O O10 0.000000 0.460289 0.750000
#
# Coordination Sequence:
#
# PCOD9320682 Si02
#       4
#     8   8   8   8
#     4  11  24  42  64  94 131 172 227 285 341 406
#     4  10  23  45  70  98 137 183 232 283 344 415
#     4  12  24  41  68  96 132 179 226 279 345 415
#     4  11  25  44  69 102 139 178 228 287 346 408
#
# _framework density 22.816457
#
# number of rings (size 3 to 8) (size 9 to 14) (size 15 to 20)
#    0.000    1.000    0.000    7.500    0.000   12.000 
#    0.000    0.000    0.000    0.000    0.000    0.000 
#    0.000    0.000    0.000    0.000    0.000    0.000 
#
# Total GULP energy -89164.965539 kJ/mol
# GULP energy per Si atom -5572.810346 kJ/mol
# Density = 2.276453 g / cm^3
# Si number density = 22.816457 Si / 1000 Ang^3
#
#
#
# Elastic Constant Matrix: (Units=GPa)
#
#
# Indices 1 2 3 4 5 6 
#
# 1 114.3758 59.7950 11.9419 0.0000 0.0000 0.0000
# 2 59.7950 116.7733 -23.1335 0.0000 0.0000 0.0000
# 3 11.9419 -23.1335 66.2849 0.0000 0.0000 0.0000
# 4 0.0000 0.0000 0.0000 36.3913 0.0000 0.0000
# 5 0.0000 0.0000 0.0000 0.0000 7.8598 0.0000
# 6 0.0000 0.0000 0.0000 0.0000 0.0000 102.4578
#
#
#
# Elastic Compliance Matrix: (Units=1/GPa)
#
#
# Indices 1 2 3 4 5 6 
#
# 1 0.013407 -0.007889 -0.005169 0.000000 0.000000 0.000000
# 2 -0.007889 0.013842 0.006252 0.000000 0.000000 0.000000
# 3 -0.005169 0.006252 0.018200 0.000000 0.000000 0.000000
# 4 0.000000 0.000000 0.000000 0.027479 0.000000 0.000000
# 5 0.000000 0.000000 0.000000 0.000000 0.127230 0.000000
# 6 0.000000 0.000000 0.000000 0.000000 0.000000 0.009760
#
#
# Mechanical properties :
#
#
# Convention : Reuss Voigt Hill
#
# Bulk Modulus (GPa) = 31.40996 43.84899 37.62947
# Shear Modulus (GPa) = 21.35456 45.93049 33.64252
#
# Velocity S-wave (km/s) = 3.06261 4.49156 3.84407
# Velocity P-wave (km/s) = 5.12858 6.79402 6.01918
#
# Compressibility (1/GPa) = 0.03183704
#
# Stress axis : x y z
#
# Youngs Moduli (GPa) = 74.58634 72.24383 54.94616
#
# Poissons Ratio (x) = 0.56995 0.28401
# Poissons Ratio (y) = 0.58844 -0.34354
# Poissons Ratio (z) = 0.38552 -0.45168
#
# Static dielectric constant tensor:
#      x y z
#    x 1.737590 0.000000 0.000000 
#    y 0.000000 1.823280 0.000000 
#    z 0.000000 0.000000 1.961400 
# 
# From -- ./inp_files/5789.got.cif
#   From: 2010.05.17/outbox.cif.g08.bks.cpg/sg20_3_cif.got.tgz:5789.got - 2010.06.03 22:52:26.
