data_PCOD9320759
_publ_section_title
;
Structure prediction by ZEFSAII (Michael W. Deem and Ramdas Pophale) SiO2 
 PCOD9320759
Probable space group: C 2 2 21
;
_chemical_formula_sum "Si O2"
_cell_formula_units_Z 32
_cell_length_a 8.154162
_cell_length_b 13.493601
_cell_length_c 11.347455
_cell_angle_alpha 90.000000
_cell_angle_beta 90.000000
_cell_angle_gamma 90.000000
_cell_volume 1248.549223
_symmetry_space_group_name_H-M "C 2 2 21"
_symmetry_group_IT_number 20
_symmetry_cell_setting 'orthorhombic'
loop_
_space_group_symop_operation_xyz
x,y,z
-x,-y,1/2+z
x,-y,-z
-x,y,1/2-z
1/2+x,1/2+y,z
1/2-x,1/2-y,1/2+z
1/2+x,1/2-y,-z
1/2-x,1/2+y,1/2-z
loop_
_atom_site_type_symbol
_atom_site_label
_atom_site_fract_x
_atom_site_fract_y
_atom_site_fract_z
Si Si1 0.598604 0.164375 0.935927
Si Si2 0.146315 0.000000 0.500000
Si Si3 0.500000 0.458784 0.250000
Si Si4 0.680058 0.977845 0.362876
Si Si5 0.627038 0.202779 0.344698
O O1 0.738608 0.096534 0.994612
O O2 0.483789 0.086219 0.869386
O O3 0.697805 0.246110 0.863383
O O4 0.475942 0.208748 0.033607
O O5 0.048313 0.992929 0.623130
O O6 0.320546 0.421289 0.291491
O O7 0.722502 0.000000 0.500000
O O8 0.657415 0.088006 0.312366
O O9 0.500000 0.246033 0.250000
#
# Coordination Sequence:
#
# PCOD9320759 Si02
#       5
#     8   4   4   8   8
#     4  11  26  50  80 116 162 215 274 335 412 489
#     4  12  26  48  76 122 162 218 268 336 410 484
#     4  12  26  44  84 114 158 216 270 330 414 480
#     4  10  23  51  78 114 163 214 266 340 411 484
#     4  11  25  51  78 116 163 212 273 338 407 493
#
# _framework density 25.629746999999998
#
# number of rings (size 3 to 8) (size 9 to 14) (size 15 to 20)
#    0.000    1.000    5.000    1.500    5.250    0.000 
#    4.500    0.000    0.000    0.000    0.000    0.000 
#    0.000    0.000    0.000    0.000    0.000    0.000 
#
# Total GULP energy -89467.972292 kJ/mol
# GULP energy per Si atom -5591.748268 kJ/mol
# Density = 2.557141 g / cm^3
# Si number density = 25.629747 Si / 1000 Ang^3
#
#
#
# Elastic Constant Matrix: (Units=GPa)
#
#
# Indices 1 2 3 4 5 6 
#
# 1 181.0802 86.8150 48.0075 0.0000 0.0000 0.0000
# 2 86.8150 121.8730 16.2950 0.0000 0.0000 0.0000
# 3 48.0075 16.2950 136.5101 0.0000 0.0000 0.0000
# 4 0.0000 0.0000 0.0000 4.8065 0.0000 0.0000
# 5 0.0000 0.0000 0.0000 0.0000 48.2792 0.0000
# 6 0.0000 0.0000 0.0000 0.0000 0.0000 9.6758
#
#
#
# Elastic Compliance Matrix: (Units=1/GPa)
#
#
# Indices 1 2 3 4 5 6 
#
# 1 0.009143 -0.006182 -0.002477 0.000000 0.000000 0.000000
# 2 -0.006182 0.012518 0.000680 0.000000 0.000000 0.000000
# 3 -0.002477 0.000680 0.008116 0.000000 0.000000 0.000000
# 4 0.000000 0.000000 0.000000 0.208052 0.000000 0.000000
# 5 0.000000 0.000000 0.000000 0.000000 0.020713 0.000000
# 6 0.000000 0.000000 0.000000 0.000000 0.000000 0.103351
#
#
# Mechanical properties :
#
#
# Convention : Reuss Voigt Hill
#
# Bulk Modulus (GPa) = 72.37173 82.41092 77.39132
# Shear Modulus (GPa) = 13.07338 31.77535 22.42436
#
# Velocity S-wave (km/s) = 2.26096 3.52488 2.96114
# Velocity P-wave (km/s) = 5.92576 6.98502 6.47708
#
# Compressibility (1/GPa) = 0.01381755
#
# Stress axis : x y z
#
# Youngs Moduli (GPa) = 109.37525 79.88658 123.21957
#
# Poissons Ratio (x) = 0.49382 0.30527
# Poissons Ratio (y) = 0.67611 -0.08375
# Poissons Ratio (z) = 0.27097 -0.05430
#
# Static dielectric constant tensor:
#      x y z
#    x 1.978530 0.000000 0.000000 
#    y 0.000000 2.191010 0.000000 
#    z 0.000000 0.000000 2.031150 
# 
# From -- ./inp_files/12523.got.cif
#   From: 2010.05.17/outbox.cif.g08.bks.cpg/sg20_7_cif.got.tgz:12523.got - 2010.06.03 22:52:26.
