data_PCOD9320737
_publ_section_title
;
Structure prediction by ZEFSAII (Michael W. Deem and Ramdas Pophale) SiO2 
 PCOD9320737
Probable space group: C 2 2 21
;
_chemical_formula_sum "Si O2"
_cell_formula_units_Z 60
_cell_length_a 6.714758
_cell_length_b 19.218057
_cell_length_c 23.319672
_cell_angle_alpha 90.000000
_cell_angle_beta 90.000000
_cell_angle_gamma 90.000000
_cell_volume 3009.277792
_symmetry_space_group_name_H-M "C 2 2 21"
_symmetry_group_IT_number 20
_symmetry_cell_setting 'orthorhombic'
loop_
_space_group_symop_operation_xyz
x,y,z
-x,-y,1/2+z
x,-y,-z
-x,y,1/2-z
1/2+x,1/2+y,z
1/2-x,1/2-y,1/2+z
1/2+x,1/2-y,-z
1/2-x,1/2+y,1/2-z
loop_
_atom_site_type_symbol
_atom_site_label
_atom_site_fract_x
_atom_site_fract_y
_atom_site_fract_z
Si Si1 0.908974 0.635442 0.394700
Si Si2 0.218804 0.960653 0.899044
Si Si3 0.425211 0.287952 0.111432
Si Si4 0.314959 0.880561 0.099405
Si Si5 0.422600 0.796331 0.314394
Si Si6 0.033333 0.137586 0.318142
Si Si7 0.817868 0.372541 0.477369
Si Si8 0.056724 0.000000 0.500000
O O1 0.755948 0.625927 0.342423
O O2 0.797461 0.642348 0.455444
O O3 0.063179 0.572781 0.403019
O O4 0.028298 0.706789 0.386727
O O5 0.104674 0.917230 0.850765
O O6 0.241802 0.042222 0.887518
O O7 0.086272 0.958417 0.956705
O O8 0.627133 0.329508 0.099211
O O9 0.309933 0.306460 0.170491
O O10 0.277307 0.311454 0.060616
O O11 0.459489 0.852040 0.148385
O O12 0.452701 0.880467 0.042389
O O13 0.500000 0.802191 0.250000
O O14 0.476701 0.717425 0.333558
O O15 0.000000 0.130911 0.250000
O O16 0.697252 0.444551 0.467370
#
# Coordination Sequence:
#
# PCOD9320737 Si02
#       8
#     8   8   8   8   8   8   8   4
#     4  12  25  42  71  99 138 185 231 286 356 414
#     4  12  25  44  68 102 138 180 234 284 353 417
#     4  11  24  42  68 103 136 179 234 290 344 414
#     4  11  24  44  65 103 136 174 229 285 349 417
#     4  10  23  47  71  96 132 183 235 284 350 421
#     4  11  25  47  70  99 135 181 239 288 344 423
#     4  11  25  39  68  99 144 180 230 283 352 428
#     4  12  22  44  68  96 142 196 224 288 356 432
#
# _framework density 19.938337000000001
#
# number of rings (size 3 to 8) (size 9 to 14) (size 15 to 20)
#    0.000    0.800    5.333    1.600    1.867    1.067 
#    4.800    0.000    0.000    0.000    0.000    0.000 
#    0.000    0.000    0.000    0.000    0.000    0.000 
#
# Total GULP energy -167609.614310 kJ/mol
# GULP energy per Si atom -5586.987144 kJ/mol
# Density = 1.989296 g / cm^3
# Si number density = 19.938337 Si / 1000 Ang^3
#
#
#
# Elastic Constant Matrix: (Units=GPa)
#
#
# Indices 1 2 3 4 5 6 
#
# 1 92.8597 5.7323 32.9310 0.0000 0.0000 0.0000
# 2 5.7323 42.8932 14.3126 0.0000 0.0000 0.0000
# 3 32.9310 14.3126 89.3113 0.0000 0.0000 0.0000
# 4 0.0000 0.0000 0.0000 25.1721 0.0000 0.0000
# 5 0.0000 0.0000 0.0000 0.0000 34.0602 0.0000
# 6 0.0000 0.0000 0.0000 0.0000 0.0000 45.7089
#
#
#
# Elastic Compliance Matrix: (Units=1/GPa)
#
#
# Indices 1 2 3 4 5 6 
#
# 1 0.012390 -0.000139 -0.004546 0.000000 0.000000 0.000000
# 2 -0.000139 0.024632 -0.003896 0.000000 0.000000 0.000000
# 3 -0.004546 -0.003896 0.013497 0.000000 0.000000 0.000000
# 4 0.000000 0.000000 0.000000 0.039727 0.000000 0.000000
# 5 0.000000 0.000000 0.000000 0.000000 0.029360 0.000000
# 6 0.000000 0.000000 0.000000 0.000000 0.000000 0.021878
#
#
# Mechanical properties :
#
#
# Convention : Reuss Voigt Hill
#
# Bulk Modulus (GPa) = 29.97865 36.77956 33.37911
# Shear Modulus (GPa) = 29.45250 32.46079 30.95665
#
# Velocity S-wave (km/s) = 3.84758 4.03930 3.94460
# Velocity P-wave (km/s) = 5.89973 6.34360 6.12569
#
# Compressibility (1/GPa) = 0.03335708
#
# Stress axis : x y z
#
# Youngs Moduli (GPa) = 80.71230 40.59700 74.08820
#
# Poissons Ratio (x) = 0.00564 0.33681
# Poissons Ratio (y) = 0.01121 0.28867
# Poissons Ratio (z) = 0.36693 0.15818
#
# Static dielectric constant tensor:
#      x y z
#    x 1.750840 0.000000 0.000000 
#    y 0.000000 1.682000 0.000000 
#    z 0.000000 0.000000 1.699890 
# 
# From -- ./inp_files/28482.got.cif
#   From: 2010.05.17/outbox.cif.g08.bks.cpg/sg20_15_cif.got.tgz:28482.got - 2010.06.03 22:52:26.
