data_PCOD9320741
_publ_section_title
;
Structure prediction by ZEFSAII (Michael W. Deem and Ramdas Pophale) SiO2 
 PCOD9320741
Probable space group: C 2 2 21
;
_chemical_formula_sum "Si O2"
_cell_formula_units_Z 64
_cell_length_a 16.117490
_cell_length_b 19.056949
_cell_length_c 8.861082
_cell_angle_alpha 90.000000
_cell_angle_beta 90.000000
_cell_angle_gamma 90.000000
_cell_volume 2721.682975
_symmetry_space_group_name_H-M "C 2 2 21"
_symmetry_group_IT_number 20
_symmetry_cell_setting 'orthorhombic'
loop_
_space_group_symop_operation_xyz
x,y,z
-x,-y,1/2+z
x,-y,-z
-x,y,1/2-z
1/2+x,1/2+y,z
1/2-x,1/2-y,1/2+z
1/2+x,1/2-y,-z
1/2-x,1/2+y,1/2-z
loop_
_atom_site_type_symbol
_atom_site_label
_atom_site_fract_x
_atom_site_fract_y
_atom_site_fract_z
Si Si1 0.614221 0.577919 0.449397
Si Si2 0.485820 0.710516 0.075837
Si Si3 0.824511 0.031625 0.350018
Si Si4 0.269349 0.084845 0.662154
Si Si5 0.047880 0.564166 0.906435
Si Si6 0.824536 0.280907 0.142423
Si Si7 0.736003 0.172332 0.329592
Si Si8 0.427447 0.805136 0.628238
O O1 0.588824 0.500000 0.500000
O O2 0.557382 0.642679 0.497606
O O3 0.616073 0.568312 0.269540
O O4 0.707615 0.591878 0.517822
O O5 0.500000 0.694976 0.250000
O O6 0.419383 0.774869 0.087228
O O7 0.564084 0.737133 0.979905
O O8 0.755619 0.092204 0.373269
O O9 0.863426 0.000000 0.500000
O O10 0.782573 0.965045 0.271127
O O11 0.356335 0.047079 0.630748
O O12 0.296655 0.156618 0.745872
O O13 0.000000 0.577185 0.750000
O O14 0.008870 0.500000 0.000000
O O15 0.056003 0.629778 0.017898
O O16 0.806622 0.209743 0.231783
O O17 0.774895 0.287624 0.987191
O O18 0.655675 0.182347 0.223253
O O19 0.500000 0.798289 0.750000
#
# Coordination Sequence:
#
# PCOD9320741 Si02
#       8
#     8   8   8   8   8   8   8   8
#     4  10  23  47  75 101 143 188 245 305 364 436
#     4  12  26  47  72 102 145 191 239 305 369 437
#     4  11  22  42  69 109 143 184 243 303 356 434
#     4  11  23  43  71 105 143 185 242 296 365 432
#     4  12  26  44  68 102 146 199 238 292 358 436
#     4  12  25  43  72 106 140 190 241 300 366 449
#     4  12  26  43  72 105 146 190 247 297 369 450
#     4  12  26  45  65 101 145 187 233 296 359 433
#
# _framework density 23.514862000000001
#
# number of rings (size 3 to 8) (size 9 to 14) (size 15 to 20)
#    0.000    0.500    3.750    5.625    3.500    0.500 
#    0.000    1.250    0.000    0.000    0.000    0.000 
#    0.000    0.000    0.000    0.000    0.000    0.000 
#
# Total GULP energy -178968.976112 kJ/mol
# GULP energy per Si atom -5592.780504 kJ/mol
# Density = 2.346134 g / cm^3
# Si number density = 23.514862 Si / 1000 Ang^3
#
#
#
# Elastic Constant Matrix: (Units=GPa)
#
#
# Indices 1 2 3 4 5 6 
#
# 1 47.8545 1.8068 16.3015 0.0000 0.0000 0.0000
# 2 1.8068 92.5062 28.8346 0.0000 0.0000 0.0000
# 3 16.3015 28.8346 138.7227 0.0000 0.0000 0.0000
# 4 0.0000 0.0000 0.0000 38.5473 0.0000 0.0000
# 5 0.0000 0.0000 0.0000 0.0000 31.4591 0.0000
# 6 0.0000 0.0000 0.0000 0.0000 0.0000 19.9254
#
#
#
# Elastic Compliance Matrix: (Units=1/GPa)
#
#
# Indices 1 2 3 4 5 6 
#
# 1 0.021782 0.000398 -0.002642 0.000000 0.000000 0.000000
# 2 0.000398 0.011566 -0.002451 0.000000 0.000000 0.000000
# 3 -0.002642 -0.002451 0.008029 0.000000 0.000000 0.000000
# 4 0.000000 0.000000 0.000000 0.025942 0.000000 0.000000
# 5 0.000000 0.000000 0.000000 0.000000 0.031787 0.000000
# 6 0.000000 0.000000 0.000000 0.000000 0.000000 0.050187
#
#
# Mechanical properties :
#
#
# Convention : Reuss Voigt Hill
#
# Bulk Modulus (GPa) = 31.26327 41.44103 36.35215
# Shear Modulus (GPa) = 29.52541 33.46239 31.49390
#
# Velocity S-wave (km/s) = 3.54730 3.77640 3.66364
# Velocity P-wave (km/s) = 5.48650 6.05612 5.77833
#
# Compressibility (1/GPa) = 0.03198642
#
# Stress axis : x y z
#
# Youngs Moduli (GPa) = 45.90993 86.45823 124.55493
#
# Poissons Ratio (x) = -0.03443 0.32912
# Poissons Ratio (y) = -0.01828 0.30528
# Poissons Ratio (z) = 0.12131 0.21190
#
# Static dielectric constant tensor:
#      x y z
#    x 1.931100 0.000000 0.000000 
#    y 0.000000 1.910360 0.000000 
#    z 0.000000 0.000000 1.903480 
# 
# From -- ./inp_files/9657.got.cif
#   From: 2010.05.17/outbox.cif.g08.bks.cpg/sg20_5_cif.got.tgz:9657.got - 2010.06.03 22:52:26.
