data_PCOD9320845
_publ_section_title
;
Structure prediction by ZEFSAII (Michael W. Deem and Ramdas Pophale) SiO2 
 PCOD9320845
Probable space group: C 2 2 21
;
_chemical_formula_sum "Si O2"
_cell_formula_units_Z 44
_cell_length_a 13.678573
_cell_length_b 18.234716
_cell_length_c 7.304958
_cell_angle_alpha 90.000000
_cell_angle_beta 90.000000
_cell_angle_gamma 90.000000
_cell_volume 1822.038374
_symmetry_space_group_name_H-M "C 2 2 21"
_symmetry_group_IT_number 20
_symmetry_cell_setting 'orthorhombic'
loop_
_space_group_symop_operation_xyz
x,y,z
-x,-y,1/2+z
x,-y,-z
-x,y,1/2-z
1/2+x,1/2+y,z
1/2-x,1/2-y,1/2+z
1/2+x,1/2-y,-z
1/2-x,1/2+y,1/2-z
loop_
_atom_site_type_symbol
_atom_site_label
_atom_site_fract_x
_atom_site_fract_y
_atom_site_fract_z
Si Si1 0.703222 0.495619 0.276298
Si Si2 0.271867 0.673766 0.710476
Si Si3 0.000000 0.933386 0.750000
Si Si4 0.949715 0.184563 0.945783
Si Si5 0.395303 0.064395 0.347580
Si Si6 0.616784 0.218788 0.951548
O O1 0.696824 0.500000 0.500000
O O2 0.723328 0.413665 0.207759
O O3 0.597762 0.521487 0.207381
O O4 0.798906 0.543977 0.229802
O O5 0.337953 0.694202 0.889264
O O6 0.322372 0.714676 0.542969
O O7 0.164339 0.702231 0.756685
O O8 0.031515 0.881492 0.582842
O O9 0.000000 0.167781 0.750000
O O10 0.006483 0.253735 0.028118
O O11 0.500000 0.066888 0.250000
O O12 0.374780 0.143231 0.437136
O O13 0.402286 0.000000 0.500000
#
# Coordination Sequence:
#
# PCOD9320845 Si02
#       6
#     8   8   4   8   8   8
#     4  11  23  44  71 101 143 184 232 302 358 425
#     4  11  23  46  68  98 141 178 229 295 356 427
#     4  12  24  42  82 100 140 194 230 284 396 436
#     4  10  24  43  63 108 140 177 232 296 352 431
#     4  11  23  49  71  96 140 188 236 296 352 413
#     4  11  24  43  69  97 140 183 227 298 356 415
#
# _framework density 24.148779000000001
#
# number of rings (size 3 to 8) (size 9 to 14) (size 15 to 20)
#    0.000    1.091    5.455    1.636    8.909    0.000 
#    8.182    0.909    4.000    0.000    0.000    0.000 
#    0.000    0.000    0.000    0.000    0.000    0.000 
#
# Total GULP energy -123162.185828 kJ/mol
# GULP energy per Si atom -5598.281174 kJ/mol
# Density = 2.409382 g / cm^3
# Si number density = 24.148779 Si / 1000 Ang^3
#
#
#
# Elastic Constant Matrix: (Units=GPa)
#
#
# Indices 1 2 3 4 5 6 
#
# 1 151.9016 32.2988 16.8784 0.0000 0.0000 0.0000
# 2 32.2988 133.5871 8.4749 0.0000 0.0000 0.0000
# 3 16.8784 8.4749 58.4550 0.0000 0.0000 0.0000
# 4 0.0000 0.0000 0.0000 12.1608 0.0000 0.0000
# 5 0.0000 0.0000 0.0000 0.0000 46.0106 0.0000
# 6 0.0000 0.0000 0.0000 0.0000 0.0000 13.5376
#
#
#
# Elastic Compliance Matrix: (Units=1/GPa)
#
#
# Indices 1 2 3 4 5 6 
#
# 1 0.007128 -0.001608 -0.001825 0.000000 0.000000 0.000000
# 2 -0.001608 0.007918 -0.000684 0.000000 0.000000 0.000000
# 3 -0.001825 -0.000684 0.017733 0.000000 0.000000 0.000000
# 4 0.000000 0.000000 0.000000 0.082232 0.000000 0.000000
# 5 0.000000 0.000000 0.000000 0.000000 0.021734 0.000000
# 6 0.000000 0.000000 0.000000 0.000000 0.000000 0.073868
#
#
# Mechanical properties :
#
#
# Convention : Reuss Voigt Hill
#
# Bulk Modulus (GPa) = 40.73957 51.02755 45.88356
# Shear Modulus (GPa) = 22.02372 33.42790 27.72581
#
# Velocity S-wave (km/s) = 3.02321 3.72458 3.39207
# Velocity P-wave (km/s) = 5.39382 6.29866 5.86372
#
# Compressibility (1/GPa) = 0.02454616
#
# Stress axis : x y z
#
# Youngs Moduli (GPa) = 140.29537 126.29747 56.39114
#
# Poissons Ratio (x) = 0.20303 0.10292
# Poissons Ratio (y) = 0.22554 0.03856
# Poissons Ratio (z) = 0.25604 0.08636
#
# Static dielectric constant tensor:
#      x y z
#    x 1.966960 0.000000 0.000000 
#    y 0.000000 1.871570 0.000000 
#    z 0.000000 0.000000 1.973690 
# 
# From -- ./inp_files/8327.got.cif
#   From: 2010.05.17/outbox.cif.g08.bks.cpg/sg20_5_cif.got.tgz:8327.got - 2010.06.03 22:52:26.
