data_PCOD9320926
_publ_section_title
;
Structure prediction by ZEFSAII (Michael W. Deem and Ramdas Pophale) SiO2 
 PCOD9320926
Probable space group: C 2 2 21
;
_chemical_formula_sum "Si O2"
_cell_formula_units_Z 40
_cell_length_a 7.199583
_cell_length_b 12.970401
_cell_length_c 19.003607
_cell_angle_alpha 90.000000
_cell_angle_beta 90.000000
_cell_angle_gamma 90.000000
_cell_volume 1774.584919
_symmetry_space_group_name_H-M "C 2 2 21"
_symmetry_group_IT_number 20
_symmetry_cell_setting 'orthorhombic'
loop_
_space_group_symop_operation_xyz
x,y,z
-x,-y,1/2+z
x,-y,-z
-x,y,1/2-z
1/2+x,1/2+y,z
1/2-x,1/2-y,1/2+z
1/2+x,1/2-y,-z
1/2-x,1/2+y,1/2-z
loop_
_atom_site_type_symbol
_atom_site_label
_atom_site_fract_x
_atom_site_fract_y
_atom_site_fract_z
Si Si1 0.010847 0.557920 0.855390
Si Si2 0.093516 0.898166 0.099415
Si Si3 0.511561 0.000000 0.000000
Si Si4 0.000000 0.625485 0.250000
Si Si5 0.771876 0.222341 0.824303
Si Si6 0.662650 0.623188 0.055686
O O1 0.006962 0.448171 0.817306
O O2 0.130895 0.632407 0.807628
O O3 0.805674 0.601434 0.871871
O O4 0.109969 0.547135 0.932322
O O5 0.957967 0.835515 0.149402
O O6 0.062065 0.021648 0.088052
O O7 0.079342 0.850869 0.020611
O O8 0.369333 0.082623 0.034439
O O9 0.824620 0.699050 0.237063
O O10 0.681701 0.287498 0.888143
#
# Coordination Sequence:
#
# PCOD9320926 Si02
#       6
#     8   8   4   4   8   8
#     4  10  24  45  67  92 136 168 217 271 324 381
#     4   9  21  43  64  96 131 159 216 273 313 394
#     4   8  16  42  64  90 130 160 200 284 306 362
#     4  12  26  46  60  96 140 164 226 274 306 402
#     4  12  24  40  69  93 124 183 211 258 338 385
#     4   8  18  39  62  97 131 150 210 279 307 376
#
# _framework density 22.540482000000001
#
# number of rings (size 3 to 8) (size 9 to 14) (size 15 to 20)
#    0.000    2.800    4.000    0.000    8.400    1.600 
#    3.600    2.000    0.000    0.000    0.000    0.000 
#    0.000    0.000    0.000    0.000    0.000    0.000 
#
# Total GULP energy -111617.102385 kJ/mol
# GULP energy per Si atom -5580.855119 kJ/mol
# Density = 2.248918 g / cm^3
# Si number density = 22.540482 Si / 1000 Ang^3
#
#
#
# Elastic Constant Matrix: (Units=GPa)
#
#
# Indices 1 2 3 4 5 6 
#
# 1 54.4334 26.0332 20.0852 0.0000 0.0000 0.0000
# 2 26.0332 75.7496 24.5050 0.0000 0.0000 0.0000
# 3 20.0852 24.5050 86.9482 0.0000 0.0000 0.0000
# 4 0.0000 0.0000 0.0000 23.7676 0.0000 0.0000
# 5 0.0000 0.0000 0.0000 0.0000 25.1314 0.0000
# 6 0.0000 0.0000 0.0000 0.0000 0.0000 14.5207
#
#
#
# Elastic Compliance Matrix: (Units=1/GPa)
#
#
# Indices 1 2 3 4 5 6 
#
# 1 0.022849 -0.006762 -0.003373 0.000000 0.000000 0.000000
# 2 -0.006762 0.016527 -0.003096 0.000000 0.000000 0.000000
# 3 -0.003373 -0.003096 0.013153 0.000000 0.000000 0.000000
# 4 0.000000 0.000000 0.000000 0.042074 0.000000 0.000000
# 5 0.000000 0.000000 0.000000 0.000000 0.039791 0.000000
# 6 0.000000 0.000000 0.000000 0.000000 0.000000 0.068867
#
#
# Mechanical properties :
#
#
# Convention : Reuss Voigt Hill
#
# Bulk Modulus (GPa) = 38.36043 39.81979 39.09011
# Shear Modulus (GPa) = 20.97219 22.45110 21.71164
#
# Velocity S-wave (km/s) = 3.05359 3.15943 3.10696
# Velocity P-wave (km/s) = 5.43028 5.56898 5.50007
#
# Compressibility (1/GPa) = 0.02606853
#
# Stress axis : x y z
#
# Youngs Moduli (GPa) = 43.76486 60.50801 76.03011
#
# Poissons Ratio (x) = 0.40914 0.25642
# Poissons Ratio (y) = 0.29593 0.23538
# Poissons Ratio (z) = 0.14760 0.18732
#
# Static dielectric constant tensor:
#      x y z
#    x 1.843760 0.000000 0.000000 
#    y 0.000000 1.840740 0.000000 
#    z 0.000000 0.000000 1.896990 
# 
# From -- ./inp_files/26510.got.cif
#   From: 2010.05.17/outbox.cif.g08.bks.cpg/sg20_14_cif.got.tgz:26510.got - 2010.06.03 22:52:26.
