data_PCOD9320195
_publ_section_title
;
Structure prediction by ZEFSAII (Michael W. Deem and Ramdas Pophale) SiO2 
 PCOD9320195
Probable space group: C 2 2 21
;
_chemical_formula_sum "Si O2"
_cell_formula_units_Z 36
_cell_length_a 9.402095
_cell_length_b 8.685884
_cell_length_c 17.326937
_cell_angle_alpha 90.000000
_cell_angle_beta 90.000000
_cell_angle_gamma 90.000000
_cell_volume 1415.013087
_symmetry_space_group_name_H-M "C 2 2 21"
_symmetry_group_IT_number 20
_symmetry_cell_setting 'orthorhombic'
loop_
_space_group_symop_operation_xyz
x,y,z
-x,-y,1/2+z
x,-y,-z
-x,y,1/2-z
1/2+x,1/2+y,z
1/2-x,1/2-y,1/2+z
1/2+x,1/2-y,-z
1/2-x,1/2+y,1/2-z
loop_
_atom_site_type_symbol
_atom_site_label
_atom_site_fract_x
_atom_site_fract_y
_atom_site_fract_z
Si Si1 0.172780 0.736482 0.176089
Si Si2 0.931982 0.817945 0.053074
Si Si3 0.489125 0.246099 0.891538
Si Si4 0.728642 0.103911 0.818646
Si Si5 0.419346 0.000000 0.000000
O O1 0.334561 0.753153 0.145562
O O2 0.166876 0.844956 0.250452
O O3 0.156586 0.558479 0.200256
O O4 0.065115 0.783126 0.108434
O O5 0.009443 0.420906 0.067212
O O6 0.819837 0.911442 0.103021
O O7 0.850141 0.652312 0.036017
O O8 0.615739 0.243069 0.830972
O O9 0.486618 0.355765 0.966555
#
# Coordination Sequence:
#
# PCOD9320195 Si02
#       5
#     8   8   8   8   4
#     4  12  26  43  65  98 134 171 215 267 322 384
#     4  10  22  43  70  89 127 168 218 260 322 382
#     4  10  22  43  70  89 127 168 218 260 322 382
#     4  12  26  43  65  98 134 171 215 267 322 384
#     4   8  20  40  72  90 120 172 216 258 332 372
#
# _framework density 25.441459999999999
#
# number of rings (size 3 to 8) (size 9 to 14) (size 15 to 20)
#    1.333    0.000    2.222    2.667    3.111    8.000 
#    0.000    0.000    0.000    0.000    0.000    0.000 
#    0.000    0.000    0.000    0.000    0.000    0.000 
#
# Total GULP energy -100451.692501 kJ/mol
# GULP energy per Si atom -5580.649583 kJ/mol
# Density = 2.538355 g / cm^3
# Si number density = 25.441460 Si / 1000 Ang^3
#
#
#
# Elastic Constant Matrix: (Units=GPa)
#
#
# Indices 1 2 3 4 5 6 
#
# 1 126.4404 8.2686 36.2553 0.0000 0.0000 0.0000
# 2 8.2686 43.1400 10.4058 0.0000 0.0000 0.0000
# 3 36.2553 10.4058 100.5891 0.0000 0.0000 0.0000
# 4 0.0000 0.0000 0.0000 28.9006 0.0000 0.0000
# 5 0.0000 0.0000 0.0000 0.0000 37.3318 0.0000
# 6 0.0000 0.0000 0.0000 0.0000 0.0000 16.8545
#
#
#
# Elastic Compliance Matrix: (Units=1/GPa)
#
#
# Indices 1 2 3 4 5 6 
#
# 1 0.008858 -0.000951 -0.003094 0.000000 0.000000 0.000000
# 2 -0.000951 0.023876 -0.002127 0.000000 0.000000 0.000000
# 3 -0.003094 -0.002127 0.011277 0.000000 0.000000 0.000000
# 4 0.000000 0.000000 0.000000 0.034601 0.000000 0.000000
# 5 0.000000 0.000000 0.000000 0.000000 0.026787 0.000000
# 6 0.000000 0.000000 0.000000 0.000000 0.000000 0.059331
#
#
# Mechanical properties :
#
#
# Convention : Reuss Voigt Hill
#
# Bulk Modulus (GPa) = 31.58040 42.22545 36.90292
# Shear Modulus (GPa) = 26.64799 30.96667 28.80733
#
# Velocity S-wave (km/s) = 3.23990 3.49259 3.36862
# Velocity P-wave (km/s) = 5.14158 5.73562 5.44671
#
# Compressibility (1/GPa) = 0.03166522
#
# Stress axis : x y z
#
# Youngs Moduli (GPa) = 112.88755 41.88347 88.67774
#
# Poissons Ratio (x) = 0.03985 0.27440
# Poissons Ratio (y) = 0.10741 0.18862
# Poissons Ratio (z) = 0.34932 0.08909
#
# Static dielectric constant tensor:
#      x y z
#    x 1.942260 0.000000 0.000000 
#    y 0.000000 2.095450 0.000000 
#    z 0.000000 0.000000 2.003960 
# 
# From -- ./inp_files/26396.got.cif
#   From: 2010.05.17/outbox.cif.g08.bks.cpg/sg20_14_cif.got.tgz:26396.got - 2010.06.03 22:52:26.
