data_PCOD9320839
_publ_section_title
;
Structure prediction by ZEFSAII (Michael W. Deem and Ramdas Pophale) SiO2 
 PCOD9320839
Probable space group: C 2 2 21
;
_chemical_formula_sum "Si O2"
_cell_formula_units_Z 48
_cell_length_a 8.100628
_cell_length_b 13.607794
_cell_length_c 18.144924
_cell_angle_alpha 90.000000
_cell_angle_beta 90.000000
_cell_angle_gamma 90.000000
_cell_volume 2000.145403
_symmetry_space_group_name_H-M "C 2 2 21"
_symmetry_group_IT_number 20
_symmetry_cell_setting 'orthorhombic'
loop_
_space_group_symop_operation_xyz
x,y,z
-x,-y,1/2+z
x,-y,-z
-x,y,1/2-z
1/2+x,1/2+y,z
1/2-x,1/2-y,1/2+z
1/2+x,1/2-y,-z
1/2-x,1/2+y,1/2-z
loop_
_atom_site_type_symbol
_atom_site_label
_atom_site_fract_x
_atom_site_fract_y
_atom_site_fract_z
Si Si1 0.500000 0.717051 0.250000
Si Si2 0.144030 0.500000 0.000000
Si Si3 0.500471 0.206600 0.029701
Si Si4 0.500000 0.087645 0.250000
Si Si5 0.653676 0.269764 0.888338
Si Si6 0.685213 0.262666 0.170770
Si Si7 0.500000 0.431049 0.250000
Si Si8 0.303668 0.042860 0.655879
O O1 0.404089 0.665657 0.318495
O O2 0.368659 0.777620 0.200640
O O3 0.244137 0.496130 0.075386
O O4 0.033383 0.596663 0.002635
O O5 0.331114 0.209225 0.075147
O O6 0.644865 0.236358 0.086961
O O7 0.524561 0.270494 0.955884
O O8 0.628863 0.169142 0.219707
O O9 0.527716 0.009768 0.182985
O O10 0.677586 0.159931 0.854097
O O11 0.576883 0.357448 0.189376
O O12 0.342232 0.481581 0.212995
#
# Coordination Sequence:
#
# PCOD9320839 Si02
#       8
#     4   4   8   4   8   8   4   8
#     4  12  23  39  71 105 132 180 242 286 349 403
#     4  10  24  42  72  98 140 190 218 286 364 418
#     4  11  22  46  70 102 139 185 233 290 353 422
#     4  11  23  42  66  96 144 180 224 293 355 400
#     4  11  23  41  73 103 134 180 236 289 342 423
#     4  11  22  42  68 100 139 181 233 292 342 418
#     4  11  22  41  73 101 132 178 242 291 338 415
#     4  11  22  41  69 100 137 181 232 285 353 414
#
# _framework density 23.998253999999999
#
# number of rings (size 3 to 8) (size 9 to 14) (size 15 to 20)
#    0.000    1.000    5.000    2.500    0.000    0.667 
#    0.000    0.000    3.667    1.000    0.000    0.000 
#    0.000    0.000    0.000    0.000    0.000    0.000 
#
# Total GULP energy -133810.998865 kJ/mol
# GULP energy per Si atom -5575.458286 kJ/mol
# Density = 2.394363 g / cm^3
# Si number density = 23.998254 Si / 1000 Ang^3
#
#
#
# Elastic Constant Matrix: (Units=GPa)
#
#
# Indices 1 2 3 4 5 6 
#
# 1 88.9181 9.1714 66.7089 0.0000 0.0000 0.0000
# 2 9.1714 59.6932 20.5315 0.0000 0.0000 0.0000
# 3 66.7089 20.5315 203.8194 0.0000 0.0000 0.0000
# 4 0.0000 0.0000 0.0000 35.6550 0.0000 0.0000
# 5 0.0000 0.0000 0.0000 0.0000 48.2899 0.0000
# 6 0.0000 0.0000 0.0000 0.0000 0.0000 12.1822
#
#
#
# Elastic Compliance Matrix: (Units=1/GPa)
#
#
# Indices 1 2 3 4 5 6 
#
# 1 0.014930 -0.000635 -0.004822 0.000000 0.000000 0.000000
# 2 -0.000635 0.017381 -0.001543 0.000000 0.000000 0.000000
# 3 -0.004822 -0.001543 0.006640 0.000000 0.000000 0.000000
# 4 0.000000 0.000000 0.000000 0.028047 0.000000 0.000000
# 5 0.000000 0.000000 0.000000 0.000000 0.020708 0.000000
# 6 0.000000 0.000000 0.000000 0.000000 0.000000 0.082087
#
#
# Mechanical properties :
#
#
# Convention : Reuss Voigt Hill
#
# Bulk Modulus (GPa) = 40.08114 60.58379 50.33247
# Shear Modulus (GPa) = 26.02678 36.29335 31.16006
#
# Velocity S-wave (km/s) = 3.29679 3.89309 3.60728
# Velocity P-wave (km/s) = 5.58836 6.74597 6.19426
#
# Compressibility (1/GPa) = 0.02494939
#
# Stress axis : x y z
#
# Youngs Moduli (GPa) = 66.98039 57.53541 150.60054
#
# Poissons Ratio (x) = 0.03654 0.72626
# Poissons Ratio (y) = 0.04254 0.23237
# Poissons Ratio (z) = 0.32301 0.08877
#
# Static dielectric constant tensor:
#      x y z
#    x 2.016550 0.000000 0.000000 
#    y 0.000000 1.926720 0.000000 
#    z 0.000000 0.000000 1.953920 
# 
# From -- ./inp_files/23546.got.cif
#   From: 2010.05.17/outbox.cif.g08.bks.cpg/sg20_12_cif.got.tgz:23546.got - 2010.06.03 22:52:26.
