data_PCOD9320539
_publ_section_title
;
Structure prediction by ZEFSAII (Michael W. Deem and Ramdas Pophale) SiO2 
 PCOD9320539
Probable space group: C 2 2 21
;
_chemical_formula_sum "Si O2"
_cell_formula_units_Z 64
_cell_length_a 14.988481
_cell_length_b 10.162458
_cell_length_c 18.075650
_cell_angle_alpha 90.000000
_cell_angle_beta 90.000000
_cell_angle_gamma 90.000000
_cell_volume 2753.279549
_symmetry_space_group_name_H-M "C 2 2 21"
_symmetry_group_IT_number 20
_symmetry_cell_setting 'orthorhombic'
loop_
_space_group_symop_operation_xyz
x,y,z
-x,-y,1/2+z
x,-y,-z
-x,y,1/2-z
1/2+x,1/2+y,z
1/2-x,1/2-y,1/2+z
1/2+x,1/2-y,-z
1/2-x,1/2+y,1/2-z
loop_
_atom_site_type_symbol
_atom_site_label
_atom_site_fract_x
_atom_site_fract_y
_atom_site_fract_z
Si Si1 0.074963 0.796644 0.627590
Si Si2 0.193047 0.315141 0.258753
Si Si3 0.097120 0.645343 0.478084
Si Si4 0.537014 0.741084 0.671899
Si Si5 0.218973 0.280334 0.021038
Si Si6 0.700674 0.455374 0.356293
Si Si7 0.622638 0.628468 0.137307
Si Si8 0.345122 0.333733 0.375842
O O1 0.109810 0.682814 0.683908
O O2 0.066148 0.744388 0.543569
O O3 0.982798 0.863821 0.652632
O O4 0.152827 0.906140 0.631847
O O5 0.218491 0.433888 0.202345
O O6 0.174585 0.187931 0.207509
O O7 0.279825 0.300935 0.309081
O O8 0.073013 0.500000 0.500000
O O9 0.202811 0.671640 0.477817
O O10 0.063545 0.664768 0.394969
O O11 0.500000 0.795493 0.750000
O O12 0.620848 0.640600 0.673834
O O13 0.448646 0.670885 0.642582
O O14 0.263999 0.401490 0.064586
O O15 0.139780 0.232722 0.073040
O O16 0.179665 0.270238 0.939397
O O17 0.663739 0.490494 0.110954
#
# Coordination Sequence:
#
# PCOD9320539 Si02
#       8
#     8   8   8   8   8   8   8   8
#     4  12  24  47  78 111 141 200 260 319 372 459
#     4  11  24  39  65 108 148 185 233 322 388 432
#     4  11  25  47  71 106 152 198 251 320 394 463
#     4  11  23  42  74 104 145 196 255 313 379 455
#     4  10  23  42  69 103 145 187 248 309 386 439
#     4  10  23  46  70 110 144 190 253 324 367 466
#     4  11  24  42  73 105 143 190 262 307 364 455
#     4  12  21  43  67 103 141 196 247 309 375 449
#
# _framework density 23.245007000000001
#
# number of rings (size 3 to 8) (size 9 to 14) (size 15 to 20)
#    0.000    1.000    3.750    3.000    0.000    2.000 
#    2.250    6.250    0.000    0.000    0.000    0.000 
#    0.000    0.000    0.000    0.000    0.000    0.000 
#
# Total GULP energy -178588.581484 kJ/mol
# GULP energy per Si atom -5580.893171 kJ/mol
# Density = 2.319210 g / cm^3
# Si number density = 23.245007 Si / 1000 Ang^3
#
#
#
# Elastic Constant Matrix: (Units=GPa)
#
#
# Indices 1 2 3 4 5 6 
#
# 1 94.5454 24.2539 21.9922 0.0000 0.0000 0.0000
# 2 24.2539 72.4208 28.1340 0.0000 0.0000 0.0000
# 3 21.9922 28.1340 143.4877 0.0000 0.0000 0.0000
# 4 0.0000 0.0000 0.0000 11.7056 0.0000 0.0000
# 5 0.0000 0.0000 0.0000 0.0000 28.3284 0.0000
# 6 0.0000 0.0000 0.0000 0.0000 0.0000 -57.8959
#
#
#
# Elastic Compliance Matrix: (Units=1/GPa)
#
#
# Indices 1 2 3 4 5 6 
#
# 1 0.011733 -0.003497 -0.001113 0.000000 0.000000 0.000000
# 2 -0.003497 0.015989 -0.002599 0.000000 0.000000 0.000000
# 3 -0.001113 -0.002599 0.007649 0.000000 0.000000 0.000000
# 4 0.000000 0.000000 0.000000 0.085429 0.000000 0.000000
# 5 0.000000 0.000000 0.000000 0.000000 0.035300 0.000000
# 6 0.000000 0.000000 0.000000 0.000000 0.000000 -0.017272
#
#
# Mechanical properties :
#
#
# Convention : Reuss Voigt Hill
#
# Bulk Modulus (GPa) = 47.72409 51.02379 49.37394
# Shear Modulus (GPa) = 31.20501 12.16585 21.68543
#
# Velocity S-wave (km/s) = 3.66791 2.29022 3.05767
# Velocity P-wave (km/s) = 6.20593 5.38438 5.80969
#
# Compressibility (1/GPa) = 0.02095378
#
# Stress axis : x y z
#
# Youngs Moduli (GPa) = 85.23078 62.54280 130.72984
#
# Poissons Ratio (x) = 0.21872 0.14545
# Poissons Ratio (y) = 0.29806 0.33977
# Poissons Ratio (z) = 0.09483 0.16255
#
# Static dielectric constant tensor:
#      x y z
#    x 1.891320 0.000000 0.000000 
#    y 0.000000 1.949870 0.000000 
#    z 0.000000 0.000000 2.534550 
# 
# From -- ./inp_files/25003.got.cif
#   From: 2010.05.17/outbox.cif.g08.bks.cpg/sg20_13_cif.got.tgz:25003.got - 2010.06.03 22:52:26.
