data_PCOD9320146
_publ_section_title
;
Structure prediction by ZEFSAII (Michael W. Deem and Ramdas Pophale) SiO2 
 PCOD9320146
Probable space group: C 2 2 21
;
_chemical_formula_sum "Si O2"
_cell_formula_units_Z 56
_cell_length_a 6.736928
_cell_length_b 26.676513
_cell_length_c 14.904909
_cell_angle_alpha 90.000000
_cell_angle_beta 90.000000
_cell_angle_gamma 90.000000
_cell_volume 2678.676670
_symmetry_space_group_name_H-M "C 2 2 21"
_symmetry_group_IT_number 20
_symmetry_cell_setting 'orthorhombic'
loop_
_space_group_symop_operation_xyz
x,y,z
-x,-y,1/2+z
x,-y,-z
-x,y,1/2-z
1/2+x,1/2+y,z
1/2-x,1/2-y,1/2+z
1/2+x,1/2-y,-z
1/2-x,1/2+y,1/2-z
loop_
_atom_site_type_symbol
_atom_site_label
_atom_site_fract_x
_atom_site_fract_y
_atom_site_fract_z
Si Si1 0.879490 0.536249 0.340003
Si Si2 0.294204 0.034318 0.911798
Si Si3 0.824538 0.271831 0.364932
Si Si4 0.011410 0.807479 0.509798
Si Si5 0.145932 0.644526 0.092509
Si Si6 0.500000 0.217495 0.250000
Si Si7 0.378161 0.153094 0.925767
Si Si8 0.000000 0.004309 0.750000
O O1 0.899257 0.586606 0.394692
O O2 0.655789 0.525846 0.310743
O O3 0.000000 0.546159 0.250000
O O4 0.994022 0.490422 0.385631
O O5 0.335390 0.093685 0.920947
O O6 0.140976 0.030016 0.826697
O O7 0.229981 0.000000 0.000000
O O8 0.953289 0.227144 0.406834
O O9 0.671420 0.282797 0.445203
O O10 0.681600 0.251945 0.286216
O O11 0.975468 0.319195 0.354526
O O12 0.832045 0.821197 0.444236
O O13 0.129282 0.852748 0.556450
O O14 0.097095 0.680170 0.176281
O O15 0.997509 0.663200 0.016766
#
# Coordination Sequence:
#
# PCOD9320146 Si02
#       8
#     8   8   8   8   8   4   8   4
#     4  10  22  43  65 102 146 176 220 303 362 414
#     4  11  24  45  75 101 142 192 239 297 374 436
#     4  11  23  43  66  98 140 176 227 289 347 421
#     4  11  22  42  70  94 131 181 227 281 340 423
#     4  11  23  38  69 105 135 171 237 287 348 424
#     4  12  24  42  67 108 138 176 231 298 368 414
#     4  11  24  45  68  99 136 187 232 280 350 437
#     4  10  26  42  69 106 146 176 243 302 350 434
#
# _framework density 20.905843999999998
#
# number of rings (size 3 to 8) (size 9 to 14) (size 15 to 20)
#    0.000    1.143    5.000    0.857    2.000    4.571 
#    0.000    5.714    0.000    0.000    0.000    0.000 
#    0.000    0.000    0.000    0.000    0.000    0.000 
#
# Total GULP energy -156022.243147 kJ/mol
# GULP energy per Si atom -5572.222970 kJ/mol
# Density = 2.085826 g / cm^3
# Si number density = 20.905844 Si / 1000 Ang^3
#
#
#
# Elastic Constant Matrix: (Units=GPa)
#
#
# Indices 1 2 3 4 5 6 
#
# 1 58.7544 8.5094 0.1250 0.0000 0.0000 0.0000
# 2 8.5094 77.0626 -4.4358 0.0000 0.0000 0.0000
# 3 0.1250 -4.4358 54.6609 0.0000 0.0000 0.0000
# 4 0.0000 0.0000 0.0000 17.7517 0.0000 0.0000
# 5 0.0000 0.0000 0.0000 0.0000 19.8788 0.0000
# 6 0.0000 0.0000 0.0000 0.0000 0.0000 -14.1427
#
#
#
# Elastic Compliance Matrix: (Units=1/GPa)
#
#
# Indices 1 2 3 4 5 6 
#
# 1 0.017299 -0.001921 -0.000195 0.000000 0.000000 0.000000
# 2 -0.001921 0.013251 0.001080 0.000000 0.000000 0.000000
# 3 -0.000195 0.001080 0.018383 0.000000 0.000000 0.000000
# 4 0.000000 0.000000 0.000000 0.056333 0.000000 0.000000
# 5 0.000000 0.000000 0.000000 0.000000 0.050305 0.000000
# 6 0.000000 0.000000 0.000000 0.000000 0.000000 -0.070708
#
#
# Mechanical properties :
#
#
# Convention : Reuss Voigt Hill
#
# Bulk Modulus (GPa) = 21.34117 22.09724 21.71920
# Shear Modulus (GPa) = 48.75409 17.11617 32.93513
#
# Velocity S-wave (km/s) = 4.83440 2.86444 3.97344
# Velocity P-wave (km/s) = 6.43368 4.64035 5.60915
#
# Compressibility (1/GPa) = 0.04685779
#
# Stress axis : x y z
#
# Youngs Moduli (GPa) = 57.80779 75.46728 54.39900
#
# Poissons Ratio (x) = 0.14500 0.01063
# Poissons Ratio (y) = 0.11107 -0.05874
# Poissons Ratio (z) = 0.01130 -0.08148
#
# Static dielectric constant tensor:
#      x y z
#    x 1.818290 0.000000 0.000000 
#    y 0.000000 1.747210 0.000000 
#    z 0.000000 0.000000 1.811150 
# 
# From -- ./inp_files/18001.got.cif
#   From: 2010.05.17/outbox.cif.g08.bks.cpg/sg20_10_cif.got.tgz:18001.got - 2010.06.03 22:52:26.
