data_PCOD9320356
_publ_section_title
;
Structure prediction by ZEFSAII (Michael W. Deem and Ramdas Pophale) SiO2 
 PCOD9320356
Probable space group: C 2 2 21
;
_chemical_formula_sum "Si O2"
_cell_formula_units_Z 44
_cell_length_a 13.121797
_cell_length_b 6.692772
_cell_length_c 25.731024
_cell_angle_alpha 90.000000
_cell_angle_beta 90.000000
_cell_angle_gamma 90.000000
_cell_volume 2259.729290
_symmetry_space_group_name_H-M "C 2 2 21"
_symmetry_group_IT_number 20
_symmetry_cell_setting 'orthorhombic'
loop_
_space_group_symop_operation_xyz
x,y,z
-x,-y,1/2+z
x,-y,-z
-x,y,1/2-z
1/2+x,1/2+y,z
1/2-x,1/2-y,1/2+z
1/2+x,1/2-y,-z
1/2-x,1/2+y,1/2-z
loop_
_atom_site_type_symbol
_atom_site_label
_atom_site_fract_x
_atom_site_fract_y
_atom_site_fract_z
Si Si1 0.757534 0.619933 0.950453
Si Si2 0.609008 0.934506 0.732537
Si Si3 0.842157 0.500000 0.500000
Si Si4 0.605367 0.251212 0.641515
Si Si5 0.250730 0.109271 0.676935
Si Si6 0.106941 0.205548 0.088334
O O1 0.726656 0.841403 0.968525
O O2 0.834937 0.629297 0.902975
O O3 0.656709 0.497279 0.933483
O O4 0.800195 0.500000 0.000000
O O5 0.500000 0.848558 0.750000
O O6 0.681307 0.773049 0.705436
O O7 0.588280 0.110650 0.691219
O O8 0.668714 0.021779 0.781921
O O9 0.903210 0.635536 0.541201
O O10 0.677593 0.433270 0.657542
O O11 0.499159 0.323812 0.617448
O O12 0.312171 0.204283 0.629149
#
# Coordination Sequence:
#
# PCOD9320356 Si02
#       6
#     8   8   4   8   8   8
#     4  10  23  45  67  99 137 171 219 274 324 395
#     4  12  26  43  68  99 133 179 217 274 333 388
#     4  10  22  46  68  96 142 170 214 282 324 388
#     4  12  25  42  71  97 132 178 223 266 334 396
#     4  12  25  43  67  98 138 173 221 274 326 397
#     4  11  24  43  68 100 133 175 223 268 332 393
#
# _framework density 19.471357999999999
#
# number of rings (size 3 to 8) (size 9 to 14) (size 15 to 20)
#    0.000    0.727    7.273    0.000    1.273    5.091 
#    4.909    0.000    0.000    0.000    0.000    0.000 
#    0.000    0.000    0.000    0.000    0.000    0.000 
#
# Total GULP energy -123013.518998 kJ/mol
# GULP energy per Si atom -5591.523591 kJ/mol
# Density = 1.942704 g / cm^3
# Si number density = 19.471358 Si / 1000 Ang^3
#
#
#
# Elastic Constant Matrix: (Units=GPa)
#
#
# Indices 1 2 3 4 5 6 
#
# 1 106.0048 27.8534 40.4629 0.0000 0.0000 0.0000
# 2 27.8534 69.9793 27.5361 0.0000 0.0000 0.0000
# 3 40.4629 27.5361 96.2465 0.0000 0.0000 0.0000
# 4 0.0000 0.0000 0.0000 41.1995 0.0000 0.0000
# 5 0.0000 0.0000 0.0000 0.0000 15.6519 0.0000
# 6 0.0000 0.0000 0.0000 0.0000 0.0000 23.2388
#
#
#
# Elastic Compliance Matrix: (Units=1/GPa)
#
#
# Indices 1 2 3 4 5 6 
#
# 1 0.011803 -0.003093 -0.004077 0.000000 0.000000 0.000000
# 2 -0.003093 0.016914 -0.003538 0.000000 0.000000 0.000000
# 3 -0.004077 -0.003538 0.013116 0.000000 0.000000 0.000000
# 4 0.000000 0.000000 0.000000 0.024272 0.000000 0.000000
# 5 0.000000 0.000000 0.000000 0.000000 0.063890 0.000000
# 6 0.000000 0.000000 0.000000 0.000000 0.000000 0.043031
#
#
# Mechanical properties :
#
#
# Convention : Reuss Voigt Hill
#
# Bulk Modulus (GPa) = 48.98401 51.54839 50.26620
# Shear Modulus (GPa) = 24.84493 27.77659 26.31076
#
# Velocity S-wave (km/s) = 3.57595 3.78105 3.67993
# Velocity P-wave (km/s) = 6.50088 6.75227 6.62777
#
# Compressibility (1/GPa) = 0.02041482
#
# Stress axis : x y z
#
# Youngs Moduli (GPa) = 84.72750 59.12422 76.24117
#
# Poissons Ratio (x) = 0.18290 0.31082
# Poissons Ratio (y) = 0.26210 0.26977
# Poissons Ratio (z) = 0.34542 0.20921
#
# Static dielectric constant tensor:
#      x y z
#    x 1.635270 0.000000 0.000000 
#    y 0.000000 1.658430 0.000000 
#    z 0.000000 0.000000 1.686940 
# 
# From -- ./inp_files/30383.got.cif
#   From: 2010.05.17/outbox.cif.g08.bks.cpg/sg20_16_cif.got.tgz:30383.got - 2010.06.03 22:52:26.
