data_PCOD9320925
_publ_section_title
;
Structure prediction by ZEFSAII (Michael W. Deem and Ramdas Pophale) SiO2 
 PCOD9320925
Probable space group: C 2 2 21
;
_chemical_formula_sum "Si O2"
_cell_formula_units_Z 36
_cell_length_a 18.933914
_cell_length_b 8.868272
_cell_length_c 8.988447
_cell_angle_alpha 90.000000
_cell_angle_beta 90.000000
_cell_angle_gamma 90.000000
_cell_volume 1509.260017
_symmetry_space_group_name_H-M "C 2 2 21"
_symmetry_group_IT_number 20
_symmetry_cell_setting 'orthorhombic'
loop_
_space_group_symop_operation_xyz
x,y,z
-x,-y,1/2+z
x,-y,-z
-x,y,1/2-z
1/2+x,1/2+y,z
1/2-x,1/2-y,1/2+z
1/2+x,1/2-y,-z
1/2-x,1/2+y,1/2-z
loop_
_atom_site_type_symbol
_atom_site_label
_atom_site_fract_x
_atom_site_fract_y
_atom_site_fract_z
Si Si1 0.438272 0.604214 0.854697
Si Si2 0.000000 0.602357 0.250000
Si Si3 0.290516 0.000000 0.000000
Si Si4 0.824562 0.925028 0.738505
Si Si5 0.374990 0.878534 0.273035
Si Si6 0.763042 0.500000 0.500000
O O1 0.500000 0.542120 0.750000
O O2 0.462817 0.779565 0.865859
O O3 0.364628 0.584083 0.764761
O O4 0.433900 0.500000 0.000000
O O5 0.939067 0.490711 0.305915
O O6 0.342662 0.087421 0.889041
O O7 0.234817 0.921565 0.887343
O O8 0.884578 0.800101 0.714412
O O9 0.784902 0.897430 0.894466
O O10 0.312781 0.911539 0.388622
#
# Coordination Sequence:
#
# PCOD9320925 Si02
#       6
#     8   4   4   8   8   4
#     4  10  25  45  71  98 143 187 237 285 358 427
#     4  10  28  46  70 104 150 182 242 298 354 430
#     4  10  26  43  71 110 144 178 248 296 366 424
#     4  11  23  45  78 100 140 192 240 298 359 426
#     4  11  25  44  72 106 147 184 239 302 360 415
#     4  10  24  45  67 108 142 182 244 294 360 428
#
# _framework density 23.852747000000001
#
# number of rings (size 3 to 8) (size 9 to 14) (size 15 to 20)
#    0.667    0.889    1.111    1.333    6.222   11.556 
#    0.000    0.000    0.000    0.000    0.000    0.000 
#    0.000    0.000    0.000    0.000    0.000    0.000 
#
# Total GULP energy -100396.931028 kJ/mol
# GULP energy per Si atom -5577.607279 kJ/mol
# Density = 2.379846 g / cm^3
# Si number density = 23.852747 Si / 1000 Ang^3
#
#
#
# Elastic Constant Matrix: (Units=GPa)
#
#
# Indices 1 2 3 4 5 6 
#
# 1 102.2886 46.1222 8.6267 0.0000 0.0000 0.0000
# 2 46.1222 115.2053 12.2036 0.0000 0.0000 0.0000
# 3 8.6267 12.2036 91.3457 0.0000 0.0000 0.0000
# 4 0.0000 0.0000 0.0000 1.9854 0.0000 0.0000
# 5 0.0000 0.0000 0.0000 0.0000 23.1467 0.0000
# 6 0.0000 0.0000 0.0000 0.0000 0.0000 146.3787
#
#
#
# Elastic Compliance Matrix: (Units=1/GPa)
#
#
# Indices 1 2 3 4 5 6 
#
# 1 0.011952 -0.004732 -0.000497 0.000000 0.000000 0.000000
# 2 -0.004732 0.010679 -0.000980 0.000000 0.000000 0.000000
# 3 -0.000497 -0.000980 0.011125 0.000000 0.000000 0.000000
# 4 0.000000 0.000000 0.000000 0.503676 0.000000 0.000000
# 5 0.000000 0.000000 0.000000 0.000000 0.043203 0.000000
# 6 0.000000 0.000000 0.000000 0.000000 0.000000 0.006832
#
#
# Mechanical properties :
#
#
# Convention : Reuss Voigt Hill
#
# Bulk Modulus (GPa) = 46.86353 49.19384 48.02868
# Shear Modulus (GPa) = 8.23729 50.42797 29.33263
#
# Velocity S-wave (km/s) = 1.86035 4.60296 3.51057
# Velocity P-wave (km/s) = 4.92993 6.99417 6.05073
#
# Compressibility (1/GPa) = 0.02133855
#
# Stress axis : x y z
#
# Youngs Moduli (GPa) = 83.66822 93.64588 89.88605
#
# Poissons Ratio (x) = 0.44317 0.04463
# Poissons Ratio (y) = 0.39595 0.08806
# Poissons Ratio (z) = 0.04154 0.09175
#
# Static dielectric constant tensor:
#      x y z
#    x 1.883960 0.000000 0.000000 
#    y 0.000000 1.966120 0.000000 
#    z 0.000000 0.000000 1.891210 
# 
# From -- ./inp_files/9906.got.cif
#   From: 2010.05.17/outbox.cif.g08.bks.cpg/sg20_5_cif.got.tgz:9906.got - 2010.06.03 22:52:26.
