data_PCOD9320030
_publ_section_title
;
Structure prediction by ZEFSAII (Michael W. Deem and Ramdas Pophale) SiO2 
 PCOD9320030
Probable space group: C 2 2 21
;
_chemical_formula_sum "Si O2"
_cell_formula_units_Z 48
_cell_length_a 9.857309
_cell_length_b 9.991738
_cell_length_c 25.108217
_cell_angle_alpha 90.000000
_cell_angle_beta 90.000000
_cell_angle_gamma 90.000000
_cell_volume 2472.949694
_symmetry_space_group_name_H-M "C 2 2 21"
_symmetry_group_IT_number 20
_symmetry_cell_setting 'orthorhombic'
loop_
_space_group_symop_operation_xyz
x,y,z
-x,-y,1/2+z
x,-y,-z
-x,y,1/2-z
1/2+x,1/2+y,z
1/2-x,1/2-y,1/2+z
1/2+x,1/2-y,-z
1/2-x,1/2+y,1/2-z
loop_
_atom_site_type_symbol
_atom_site_label
_atom_site_fract_x
_atom_site_fract_y
_atom_site_fract_z
Si Si1 0.462555 0.601735 0.843472
Si Si2 0.278949 0.879892 0.140474
Si Si3 0.862488 0.849684 0.777939
Si Si4 0.895764 0.610273 0.204472
Si Si5 0.905869 0.132822 0.964909
Si Si6 0.777958 0.152336 0.519897
O O1 0.623148 0.576247 0.849519
O O2 0.396292 0.490872 0.805823
O O3 0.444510 0.748657 0.818842
O O4 0.399188 0.599122 0.902410
O O5 0.313105 0.755138 0.178049
O O6 0.286365 0.840623 0.078802
O O7 0.374786 0.001508 0.158399
O O8 0.746522 0.867883 0.734239
O O9 0.000000 0.801060 0.750000
O O10 0.000000 0.563973 0.250000
O O11 0.060883 0.180701 0.975835
O O12 0.799479 0.245660 0.981727
O O13 0.883230 0.000000 0.000000
O O14 0.764968 0.000000 0.500000
#
# Coordination Sequence:
#
# PCOD9320030 Si02
#       6
#     8   8   8   8   8   8
#     4  11  23  42  62  90 128 160 197 257 309 352
#     4  11  23  41  63  91 123 162 204 249 305 365
#     4  12  23  41  65  89 124 163 204 249 298 362
#     4  12  23  41  63  89 126 162 202 249 303 360
#     4  10  22  42  65  90 122 159 203 254 305 362
#     4  10  22  42  64  90 123 158 202 255 306 360
#
# _framework density 19.410018000000001
#
# number of rings (size 3 to 8) (size 9 to 14) (size 15 to 20)
#    0.000    1.000    3.333    4.000    0.000    0.667 
#    6.000    0.000    0.000    0.000    0.000    0.000 
#    0.000    0.000    0.000    0.000    0.000    0.000 
#
# Total GULP energy -134241.042761 kJ/mol
# GULP energy per Si atom -5593.376782 kJ/mol
# Density = 1.936584 g / cm^3
# Si number density = 19.410018 Si / 1000 Ang^3
#
#
#
# Elastic Constant Matrix: (Units=GPa)
#
#
# Indices 1 2 3 4 5 6 
#
# 1 41.4063 -22.9895 0.8696 0.0000 0.0000 0.0000
# 2 -22.9895 43.3574 -8.8346 0.0000 0.0000 0.0000
# 3 0.8696 -8.8346 61.7258 0.0000 0.0000 0.0000
# 4 0.0000 0.0000 0.0000 1.6261 0.0000 0.0000
# 5 0.0000 0.0000 0.0000 0.0000 33.4445 0.0000
# 6 0.0000 0.0000 0.0000 0.0000 0.0000 -57.8290
#
#
#
# Elastic Compliance Matrix: (Units=1/GPa)
#
#
# Indices 1 2 3 4 5 6 
#
# 1 0.034514 0.018748 0.002197 0.000000 0.000000 0.000000
# 2 0.018748 0.033941 0.004594 0.000000 0.000000 0.000000
# 3 0.002197 0.004594 0.016827 0.000000 0.000000 0.000000
# 4 0.000000 0.000000 0.000000 0.614953 0.000000 0.000000
# 5 0.000000 0.000000 0.000000 0.000000 0.029900 0.000000
# 6 0.000000 0.000000 0.000000 0.000000 0.000000 -0.017292
#
#
# Mechanical properties :
#
#
# Convention : Reuss Voigt Hill
#
# Bulk Modulus (GPa) = 7.33348 9.39782 8.36565
# Shear Modulus (GPa) = 7.06995 7.27795 7.17395
#
# Velocity S-wave (km/s) = 1.91058 1.93848 1.92458
# Velocity P-wave (km/s) = 2.94168 3.14047 3.04270
#
# Compressibility (1/GPa) = 0.13636082
#
# Stress axis : x y z
#
# Youngs Moduli (GPa) = 28.97360 29.46279 59.42753
#
# Poissons Ratio (x) = -0.55238 -0.13057
# Poissons Ratio (y) = -0.54320 -0.27300
# Poissons Ratio (z) = -0.06366 -0.13534
#
# Static dielectric constant tensor:
#      x y z
#    x 1.668580 0.000000 0.000000 
#    y 0.000000 1.643120 0.000000 
#    z 0.000000 0.000000 1.660830 
# 
# From -- ./inp_files/28702.got.cif
#   From: 2010.05.17/outbox.cif.g08.bks.cpg/sg20_15_cif.got.tgz:28702.got - 2010.06.03 22:52:26.
