data_PCOD9320467
_publ_section_title
;
Structure prediction by ZEFSAII (Michael W. Deem and Ramdas Pophale) SiO2 
 PCOD9320467
Probable space group: C 2 2 21
;
_chemical_formula_sum "Si O2"
_cell_formula_units_Z 60
_cell_length_a 16.976305
_cell_length_b 7.075870
_cell_length_c 24.798999
_cell_angle_alpha 90.000000
_cell_angle_beta 90.000000
_cell_angle_gamma 90.000000
_cell_volume 2978.908514
_symmetry_space_group_name_H-M "C 2 2 21"
_symmetry_group_IT_number 20
_symmetry_cell_setting 'orthorhombic'
loop_
_space_group_symop_operation_xyz
x,y,z
-x,-y,1/2+z
x,-y,-z
-x,y,1/2-z
1/2+x,1/2+y,z
1/2-x,1/2-y,1/2+z
1/2+x,1/2-y,-z
1/2-x,1/2+y,1/2-z
loop_
_atom_site_type_symbol
_atom_site_label
_atom_site_fract_x
_atom_site_fract_y
_atom_site_fract_z
Si Si1 0.789910 0.449059 0.620779
Si Si2 0.465849 0.892931 0.602269
Si Si3 0.294961 0.150709 0.805744
Si Si4 0.073679 0.500000 0.500000
Si Si5 0.363004 0.366022 0.950427
Si Si6 0.821626 0.184536 0.309861
Si Si7 0.522694 0.423108 0.192641
Si Si8 0.450946 0.754196 0.143490
O O1 0.871805 0.382490 0.593978
O O2 0.763651 0.311487 0.670222
O O3 0.716677 0.427811 0.579897
O O4 0.805797 0.659185 0.643971
O O5 0.486355 0.725883 0.644212
O O6 0.517681 0.910750 0.547416
O O7 0.483509 0.090029 0.633825
O O8 0.324755 0.204524 0.746573
O O9 0.369599 0.142017 0.844939
O O10 0.253081 0.951521 0.806258
O O11 0.130274 0.345742 0.472964
O O12 0.436375 0.369921 0.909576
O O13 0.376053 0.500000 0.000000
O O14 0.894701 0.037128 0.314170
O O15 0.500000 0.330187 0.250000
O O16 0.463337 0.599855 0.188991
#
# Coordination Sequence:
#
# PCOD9320467 Si02
#       8
#     8   8   8   4   8   8   8   8
#     4  11  24  40  65 101 137 170 225 276 329 404
#     4  11  24  43  69  98 132 178 225 282 344 401
#     4  11  23  39  62  94 134 185 217 261 327 399
#     4  10  24  48  74  96 134 172 232 290 348 404
#     4  10  23  44  70  95 127 168 224 279 339 400
#     4  12  23  39  64  96 141 180 220 268 330 397
#     4  12  24  39  67 101 135 180 227 276 336 413
#     4  10  23  41  64  94 131 169 217 274 330 397
#
# _framework density 20.141604999999998
#
# number of rings (size 3 to 8) (size 9 to 14) (size 15 to 20)
#    0.000    1.067    5.333    0.800    0.933    8.000 
#    0.000    0.000    1.467    0.000    0.000    0.000 
#    0.000    0.000    0.000    0.000    0.000    0.000 
#
# Total GULP energy -167259.214665 kJ/mol
# GULP energy per Si atom -5575.307156 kJ/mol
# Density = 2.009576 g / cm^3
# Si number density = 20.141605 Si / 1000 Ang^3
#
#
#
# Elastic Constant Matrix: (Units=GPa)
#
#
# Indices 1 2 3 4 5 6 
#
# 1 62.5220 44.1824 14.3479 0.0000 0.0000 0.0000
# 2 44.1824 79.3460 54.9058 0.0000 0.0000 0.0000
# 3 14.3479 54.9058 94.0349 0.0000 0.0000 0.0000
# 4 0.0000 0.0000 0.0000 39.1257 0.0000 0.0000
# 5 0.0000 0.0000 0.0000 0.0000 4.6336 0.0000
# 6 0.0000 0.0000 0.0000 0.0000 0.0000 28.3687
#
#
#
# Elastic Compliance Matrix: (Units=1/GPa)
#
#
# Indices 1 2 3 4 5 6 
#
# 1 0.030100 -0.022791 0.008715 0.000000 0.000000 0.000000
# 2 -0.022791 0.038404 -0.018946 0.000000 0.000000 0.000000
# 3 0.008715 -0.018946 0.020367 0.000000 0.000000 0.000000
# 4 0.000000 0.000000 0.000000 0.025559 0.000000 0.000000
# 5 0.000000 0.000000 0.000000 0.000000 0.215813 0.000000
# 6 0.000000 0.000000 0.000000 0.000000 0.000000 0.035250
#
#
# Mechanical properties :
#
#
# Convention : Reuss Voigt Hill
#
# Bulk Modulus (GPa) = 43.80915 51.41947 47.61431
# Shear Modulus (GPa) = 11.38567 22.59006 16.98787
#
# Velocity S-wave (km/s) = 2.38014 3.35261 2.90732
# Velocity P-wave (km/s) = 5.41768 6.36954 5.91279
#
# Compressibility (1/GPa) = 0.02282628
#
# Stress axis : x y z
#
# Youngs Moduli (GPa) = 33.22217 26.03862 49.09856
#
# Poissons Ratio (x) = 0.59346 -0.42789
# Poissons Ratio (y) = 0.75718 0.93024
# Poissons Ratio (z) = -0.28953 0.49334
#
# Static dielectric constant tensor:
#      x y z
#    x 1.738250 0.000000 0.000000 
#    y 0.000000 1.726950 0.000000 
#    z 0.000000 0.000000 1.802300 
# 
# From -- ./inp_files/30504.got.cif
#   From: 2010.05.17/outbox.cif.g08.bks.cpg/sg20_16_cif.got.tgz:30504.got - 2010.06.03 22:52:26.
