data_PCOD9320588
_publ_section_title
;
Structure prediction by ZEFSAII (Michael W. Deem and Ramdas Pophale) SiO2 
 PCOD9320588
Probable space group: C 2 2 21
;
_chemical_formula_sum "Si O2"
_cell_formula_units_Z 36
_cell_length_a 19.847779
_cell_length_b 10.834457
_cell_length_c 7.604481
_cell_angle_alpha 90.000000
_cell_angle_beta 90.000000
_cell_angle_gamma 90.000000
_cell_volume 1635.266896
_symmetry_space_group_name_H-M "C 2 2 21"
_symmetry_group_IT_number 20
_symmetry_cell_setting 'orthorhombic'
loop_
_space_group_symop_operation_xyz
x,y,z
-x,-y,1/2+z
x,-y,-z
-x,y,1/2-z
1/2+x,1/2+y,z
1/2-x,1/2-y,1/2+z
1/2+x,1/2-y,-z
1/2-x,1/2+y,1/2-z
loop_
_atom_site_type_symbol
_atom_site_label
_atom_site_fract_x
_atom_site_fract_y
_atom_site_fract_z
Si Si1 0.749583 0.611253 0.628503
Si Si2 0.880418 0.500779 0.792889
Si Si3 0.514746 0.359518 0.045661
Si Si4 0.152463 0.243126 0.883472
Si Si5 0.000000 0.325348 0.250000
O O1 0.730009 0.500000 0.500000
O O2 0.806831 0.558036 0.758365
O O3 0.788502 0.714159 0.514506
O O4 0.686730 0.664995 0.730124
O O5 0.878935 0.367067 0.702217
O O6 0.937090 0.587099 0.706085
O O7 0.894680 0.500000 0.000000
O O8 0.500000 0.335820 0.250000
O O9 0.594463 0.334431 0.022500
O O10 0.497121 0.500000 0.000000
O O11 0.480898 0.263081 0.912716
#
# Coordination Sequence:
#
# PCOD9320588 Si02
#       5
#     8   8   8   8   4
#     4  10  23  43  68 102 142 183 235 284 353 420
#     4  11  24  42  73 104 137 184 232 294 355 414
#     4  12  27  47  71 103 143 189 239 289 353 422
#     4  11  24  44  69 103 141 181 236 289 351 420
#     4  12  26  48  74 106 144 184 238 294 356 424
#
# _framework density 22.014755000000001
#
# number of rings (size 3 to 8) (size 9 to 14) (size 15 to 20)
#    0.000    0.889    3.333    2.667    4.667    5.333 
#    4.000    0.000    0.000    0.000    0.000    0.000 
#    0.000    0.000    0.000    0.000    0.000    0.000 
#
# Total GULP energy -100800.083148 kJ/mol
# GULP energy per Si atom -5600.004619 kJ/mol
# Density = 2.196465 g / cm^3
# Si number density = 22.014755 Si / 1000 Ang^3
#
#
#
# Elastic Constant Matrix: (Units=GPa)
#
#
# Indices 1 2 3 4 5 6 
#
# 1 41.5393 37.4485 -12.5659 0.0000 0.0000 0.0000
# 2 37.4485 92.0203 1.8990 0.0000 0.0000 0.0000
# 3 -12.5659 1.8990 62.0833 0.0000 0.0000 0.0000
# 4 0.0000 0.0000 0.0000 23.5350 0.0000 0.0000
# 5 0.0000 0.0000 0.0000 0.0000 36.1045 0.0000
# 6 0.0000 0.0000 0.0000 0.0000 0.0000 20.2739
#
#
#
# Elastic Compliance Matrix: (Units=1/GPa)
#
#
# Indices 1 2 3 4 5 6 
#
# 1 0.042677 -0.017557 0.009175 0.000000 0.000000 0.000000
# 2 -0.017557 0.018097 -0.004107 0.000000 0.000000 0.000000
# 3 0.009175 -0.004107 0.018090 0.000000 0.000000 0.000000
# 4 0.000000 0.000000 0.000000 0.042490 0.000000 0.000000
# 5 0.000000 0.000000 0.000000 0.000000 0.027697 0.000000
# 6 0.000000 0.000000 0.000000 0.000000 0.000000 0.049325
#
#
# Mechanical properties :
#
#
# Convention : Reuss Voigt Hill
#
# Bulk Modulus (GPa) = 18.55777 27.68955 23.12366
# Shear Modulus (GPa) = 20.71962 27.24008 23.97985
#
# Velocity S-wave (km/s) = 3.07118 3.52142 3.30398
# Velocity P-wave (km/s) = 4.58521 5.39805 5.00815
#
# Compressibility (1/GPa) = 0.05388578
#
# Stress axis : x y z
#
# Youngs Moduli (GPa) = 23.43160 55.25768 55.27879
#
# Poissons Ratio (x) = 0.97018 -0.50719
# Poissons Ratio (y) = 0.41140 0.22704
# Poissons Ratio (z) = -0.21499 0.22696
#
# Static dielectric constant tensor:
#      x y z
#    x 1.773620 0.000000 0.000000 
#    y 0.000000 1.780810 0.000000 
#    z 0.000000 0.000000 1.816770 
# 
# From -- ./inp_files/9866.got.cif
#   From: 2010.05.17/outbox.cif.g08.bks.cpg/sg20_5_cif.got.tgz:9866.got - 2010.06.03 22:52:26.
