data_PCOD9320828
_publ_section_title
;
Structure prediction by ZEFSAII (Michael W. Deem and Ramdas Pophale) SiO2 
 PCOD9320828
Probable space group: C 2 2 21
;
_chemical_formula_sum "Si O2"
_cell_formula_units_Z 36
_cell_length_a 13.360196
_cell_length_b 7.100882
_cell_length_c 14.629896
_cell_angle_alpha 90.000000
_cell_angle_beta 90.000000
_cell_angle_gamma 90.000000
_cell_volume 1387.926168
_symmetry_space_group_name_H-M "C 2 2 21"
_symmetry_group_IT_number 20
_symmetry_cell_setting 'orthorhombic'
loop_
_space_group_symop_operation_xyz
x,y,z
-x,-y,1/2+z
x,-y,-z
-x,y,1/2-z
1/2+x,1/2+y,z
1/2-x,1/2-y,1/2+z
1/2+x,1/2-y,-z
1/2-x,1/2+y,1/2-z
loop_
_atom_site_type_symbol
_atom_site_label
_atom_site_fract_x
_atom_site_fract_y
_atom_site_fract_z
Si Si1 0.432084 0.031436 0.896388
Si Si2 0.077566 0.115366 0.681039
Si Si3 0.818127 0.000000 0.000000
Si Si4 0.260745 0.733835 0.210146
Si Si5 0.839179 0.636308 0.616753
O O1 0.343638 0.145247 0.845533
O O2 0.450099 0.826647 0.850991
O O3 0.542928 0.124111 0.900188
O O4 0.399905 0.000000 0.000000
O O5 0.108851 0.004555 0.588720
O O6 0.169701 0.150427 0.747925
O O7 0.000000 0.024194 0.750000
O O8 0.736528 0.839913 0.030981
O O9 0.203202 0.565209 0.157097
O O10 0.317813 0.708339 0.307439
#
# Coordination Sequence:
#
# PCOD9320828 Si02
#       5
#     8   8   4   8   8
#     4  12  23  43  74 104 142 192 247 301 376 436
#     4  11  22  45  69 102 149 194 243 311 369 443
#     4  10  24  42  68 102 144 196 240 312 368 434
#     4  11  22  41  72  99 139 192 238 293 376 433
#     4  11  22  44  71 102 143 186 245 305 363 446
#
# _framework density 25.937978000000001
#
# number of rings (size 3 to 8) (size 9 to 14) (size 15 to 20)
#    0.000    0.889    5.556    2.000    0.000    0.000 
#    2.000   13.333    0.000    0.000    0.000    0.000 
#    0.000    0.000    0.000    0.000    0.000    0.000 
#
# Total GULP energy -100319.877540 kJ/mol
# GULP energy per Si atom -5573.326530 kJ/mol
# Density = 2.587894 g / cm^3
# Si number density = 25.937978 Si / 1000 Ang^3
#
#
#
# Elastic Constant Matrix: (Units=GPa)
#
#
# Indices 1 2 3 4 5 6 
#
# 1 173.3894 18.2192 50.8622 0.0000 0.0000 0.0000
# 2 18.2192 75.1595 46.7267 0.0000 0.0000 0.0000
# 3 50.8622 46.7267 136.5444 0.0000 0.0000 0.0000
# 4 0.0000 0.0000 0.0000 21.5700 0.0000 0.0000
# 5 0.0000 0.0000 0.0000 0.0000 57.8608 0.0000
# 6 0.0000 0.0000 0.0000 0.0000 0.0000 41.9105
#
#
#
# Elastic Compliance Matrix: (Units=1/GPa)
#
#
# Indices 1 2 3 4 5 6 
#
# 1 0.006475 -0.000089 -0.002382 0.000000 0.000000 0.000000
# 2 -0.000089 0.016902 -0.005751 0.000000 0.000000 0.000000
# 3 -0.002382 -0.005751 0.010179 0.000000 0.000000 0.000000
# 4 0.000000 0.000000 0.000000 0.046361 0.000000 0.000000
# 5 0.000000 0.000000 0.000000 0.000000 0.017283 0.000000
# 6 0.000000 0.000000 0.000000 0.000000 0.000000 0.023860
#
#
# Mechanical properties :
#
#
# Convention : Reuss Voigt Hill
#
# Bulk Modulus (GPa) = 58.43472 68.52329 63.47900
# Shear Modulus (GPa) = 34.91446 42.22060 38.56753
#
# Velocity S-wave (km/s) = 3.67287 4.03892 3.86024
# Velocity P-wave (km/s) = 6.36900 6.94449 6.66296
#
# Compressibility (1/GPa) = 0.01711311
#
# Stress axis : x y z
#
# Youngs Moduli (GPa) = 154.43227 59.16501 98.24420
#
# Poissons Ratio (x) = 0.00527 0.23397
# Poissons Ratio (y) = 0.01375 0.56498
# Poissons Ratio (z) = 0.36779 0.34025
#
# Static dielectric constant tensor:
#      x y z
#    x 2.125250 0.000000 0.000000 
#    y 0.000000 2.253010 0.000000 
#    z 0.000000 0.000000 2.221980 
# 
# From -- ./inp_files/19623.got.cif
#   From: 2010.05.17/outbox.cif.g08.bks.cpg/sg20_10_cif.got.tgz:19623.got - 2010.06.03 22:52:26.
