data_PCOD9320044
_publ_section_title
;
Structure prediction by ZEFSAII (Michael W. Deem and Ramdas Pophale) SiO2 
 PCOD9320044
Probable space group: C 2 2 21
;
_chemical_formula_sum "Si O2"
_cell_formula_units_Z 48
_cell_length_a 17.989228
_cell_length_b 14.073547
_cell_length_c 8.014550
_cell_angle_alpha 90.000000
_cell_angle_beta 90.000000
_cell_angle_gamma 90.000000
_cell_volume 2029.061622
_symmetry_space_group_name_H-M "C 2 2 21"
_symmetry_group_IT_number 20
_symmetry_cell_setting 'orthorhombic'
loop_
_space_group_symop_operation_xyz
x,y,z
-x,-y,1/2+z
x,-y,-z
-x,y,1/2-z
1/2+x,1/2+y,z
1/2-x,1/2-y,1/2+z
1/2+x,1/2-y,-z
1/2-x,1/2+y,1/2-z
loop_
_atom_site_type_symbol
_atom_site_label
_atom_site_fract_x
_atom_site_fract_y
_atom_site_fract_z
Si Si1 0.026943 0.766058 0.435928
Si Si2 0.801471 0.232116 0.973493
Si Si3 0.066308 0.056105 0.340985
Si Si4 0.777008 0.562732 0.670136
Si Si5 0.289182 0.613971 0.315875
Si Si6 0.440959 0.903397 0.394970
O O1 0.114182 0.734420 0.439639
O O2 0.030821 0.851279 0.570590
O O3 0.000000 0.790768 0.250000
O O4 0.970611 0.685031 0.498641
O O5 0.782258 0.146805 0.845114
O O6 0.744011 0.318019 0.954560
O O7 0.787662 0.180323 0.149425
O O8 0.126399 0.079350 0.199919
O O9 0.000000 0.002264 0.250000
O O10 0.099466 0.000000 0.500000
O O11 0.775264 0.500000 0.500000
O O12 0.759310 0.481518 0.802851
O O13 0.858279 0.609678 0.677959
O O14 0.500000 0.915779 0.250000
O O15 0.439400 0.000000 0.500000
#
# Coordination Sequence:
#
# PCOD9320044 Si02
#       6
#     8   8   8   8   8   8
#     4  11  25  41  65 101 136 173 222 274 333 404
#     4  10  23  39  66  92 128 175 222 273 326 403
#     4  11  24  44  70  98 136 176 226 284 336 405
#     4   9  21  41  64  88 127 177 211 264 336 389
#     4  10  22  42  65  96 132 177 224 276 338 397
#     4  11  25  41  66  94 133 176 221 272 334 402
#
# _framework density 23.656255000000002
#
# number of rings (size 3 to 8) (size 9 to 14) (size 15 to 20)
#    0.000    1.667    0.000    4.000   16.333    0.000 
#    0.000    0.833    0.000    0.000    0.000    0.000 
#    0.000    0.000    0.000    0.000    0.000    0.000 
#
# Total GULP energy -134161.216507 kJ/mol
# GULP energy per Si atom -5590.050688 kJ/mol
# Density = 2.360241 g / cm^3
# Si number density = 23.656255 Si / 1000 Ang^3
#
#
#
# Elastic Constant Matrix: (Units=GPa)
#
#
# Indices 1 2 3 4 5 6 
#
# 1 159.2358 45.6805 29.3430 0.0000 0.0000 0.0000
# 2 45.6805 104.3697 0.1620 0.0000 0.0000 0.0000
# 3 29.3430 0.1620 56.8254 0.0000 0.0000 0.0000
# 4 0.0000 0.0000 0.0000 27.2354 0.0000 0.0000
# 5 0.0000 0.0000 0.0000 0.0000 17.7552 0.0000
# 6 0.0000 0.0000 0.0000 0.0000 0.0000 28.3850
#
#
#
# Elastic Compliance Matrix: (Units=1/GPa)
#
#
# Indices 1 2 3 4 5 6 
#
# 1 0.008054 -0.003519 -0.004149 0.000000 0.000000 0.000000
# 2 -0.003519 0.011119 0.001785 0.000000 0.000000 0.000000
# 3 -0.004149 0.001785 0.019735 0.000000 0.000000 0.000000
# 4 0.000000 0.000000 0.000000 0.036717 0.000000 0.000000
# 5 0.000000 0.000000 0.000000 0.000000 0.056322 0.000000
# 6 0.000000 0.000000 0.000000 0.000000 0.000000 0.035230
#
#
# Mechanical properties :
#
#
# Convention : Reuss Voigt Hill
#
# Bulk Modulus (GPa) = 36.84172 52.31132 44.57652
# Shear Modulus (GPa) = 26.59746 31.02481 28.81114
#
# Velocity S-wave (km/s) = 3.35674 3.62537 3.49364
# Velocity P-wave (km/s) = 5.53455 6.29965 5.92945
#
# Compressibility (1/GPa) = 0.02714314
#
# Stress axis : x y z
#
# Youngs Moduli (GPa) = 124.16361 89.93959 50.67146
#
# Poissons Ratio (x) = 0.31646 0.21022
# Poissons Ratio (y) = 0.43688 -0.09046
# Poissons Ratio (z) = 0.51513 -0.16056
#
# Static dielectric constant tensor:
#      x y z
#    x 1.902440 0.000000 0.000000 
#    y 0.000000 1.948400 0.000000 
#    z 0.000000 0.000000 1.962840 
# 
# From -- ./inp_files/9353.got.cif
#   From: 2010.05.17/outbox.cif.g08.bks.cpg/sg20_5_cif.got.tgz:9353.got - 2010.06.03 22:52:26.
