data_PCOD9320674
_publ_section_title
;
Structure prediction by ZEFSAII (Michael W. Deem and Ramdas Pophale) SiO2 
 PCOD9320674
Probable space group: C 2 2 21
;
_chemical_formula_sum "Si O2"
_cell_formula_units_Z 40
_cell_length_a 8.271702
_cell_length_b 12.357715
_cell_length_c 17.081183
_cell_angle_alpha 90.000000
_cell_angle_beta 90.000000
_cell_angle_gamma 90.000000
_cell_volume 1746.027182
_symmetry_space_group_name_H-M "C 2 2 21"
_symmetry_group_IT_number 20
_symmetry_cell_setting 'orthorhombic'
loop_
_space_group_symop_operation_xyz
x,y,z
-x,-y,1/2+z
x,-y,-z
-x,y,1/2-z
1/2+x,1/2+y,z
1/2-x,1/2-y,1/2+z
1/2+x,1/2-y,-z
1/2-x,1/2+y,1/2-z
loop_
_atom_site_type_symbol
_atom_site_label
_atom_site_fract_x
_atom_site_fract_y
_atom_site_fract_z
Si Si1 0.759081 0.020460 0.147171
Si Si2 0.503670 0.500000 0.500000
Si Si3 0.000000 0.914236 0.250000
Si Si4 0.526616 0.201530 0.162195
Si Si5 0.757996 0.313048 0.973781
Si Si6 0.953140 0.393424 0.444830
O O1 0.853533 0.990186 0.225109
O O2 0.606380 0.940347 0.137078
O O3 0.689525 0.140396 0.138816
O O4 0.879386 0.993944 0.075244
O O5 0.385240 0.600083 0.480406
O O6 0.961605 0.829887 0.320594
O O7 0.500000 0.156346 0.250000
O O8 0.380541 0.179312 0.101377
O O9 0.675240 0.196845 0.970452
O O10 0.874683 0.337603 0.046640
O O11 0.957230 0.500000 0.500000
#
# Coordination Sequence:
#
# PCOD9320674 Si02
#       6
#     8   4   4   8   8   8
#     4  12  23  46  71 105 144 186 243 296 365 435
#     4  12  26  42  76 112 144 196 244 304 366 434
#     4  10  26  44  70 100 144 188 240 292 366 436
#     4  10  23  45  69  97 143 189 237 299 356 434
#     4  12  24  44  70 104 143 186 244 299 364 428
#     4  12  23  43  68 102 137 182 234 304 350 425
#
# _framework density 22.90915
#
# number of rings (size 3 to 8) (size 9 to 14) (size 15 to 20)
#    0.600    0.000    6.000    1.200    2.800    0.000 
#    0.000    0.000    0.000    0.000    0.000    0.000 
#    0.000    0.000    0.000    0.000    0.000    0.000 
#
# Total GULP energy -111682.796164 kJ/mol
# GULP energy per Si atom -5584.139808 kJ/mol
# Density = 2.285701 g / cm^3
# Si number density = 22.909150 Si / 1000 Ang^3
#
#
#
# Elastic Constant Matrix: (Units=GPa)
#
#
# Indices 1 2 3 4 5 6 
#
# 1 95.5799 57.3413 17.4472 0.0000 0.0000 0.0000
# 2 57.3413 138.8763 10.9631 0.0000 0.0000 0.0000
# 3 17.4472 10.9631 61.6468 0.0000 0.0000 0.0000
# 4 0.0000 0.0000 0.0000 31.7864 0.0000 0.0000
# 5 0.0000 0.0000 0.0000 0.0000 44.6154 0.0000
# 6 0.0000 0.0000 0.0000 0.0000 0.0000 50.9296
#
#
#
# Elastic Compliance Matrix: (Units=1/GPa)
#
#
# Indices 1 2 3 4 5 6 
#
# 1 0.014460 -0.005728 -0.003074 0.000000 0.000000 0.000000
# 2 -0.005728 0.009572 -0.000081 0.000000 0.000000 0.000000
# 3 -0.003074 -0.000081 0.017106 0.000000 0.000000 0.000000
# 4 0.000000 0.000000 0.000000 0.031460 0.000000 0.000000
# 5 0.000000 0.000000 0.000000 0.000000 0.022414 0.000000
# 6 0.000000 0.000000 0.000000 0.000000 0.000000 0.019635
#
#
# Mechanical properties :
#
#
# Convention : Reuss Voigt Hill
#
# Bulk Modulus (GPa) = 42.78591 51.95625 47.37108
# Shear Modulus (GPa) = 35.66270 39.48970 37.57620
#
# Velocity S-wave (km/s) = 3.94979 4.15631 4.05437
# Velocity P-wave (km/s) = 6.28633 6.76474 6.52992
#
# Compressibility (1/GPa) = 0.02337218
#
# Stress axis : x y z
#
# Youngs Moduli (GPa) = 69.15736 104.47125 58.45966
#
# Poissons Ratio (x) = 0.59838 0.17969
# Poissons Ratio (y) = 0.39611 0.00475
# Poissons Ratio (z) = 0.21257 0.00848
#
# Static dielectric constant tensor:
#      x y z
#    x 1.878720 0.000000 0.000000 
#    y 0.000000 1.865450 0.000000 
#    z 0.000000 0.000000 1.921480 
# 
# From -- ./inp_files/26523.got.cif
#   From: 2010.05.17/outbox.cif.g08.bks.cpg/sg20_14_cif.got.tgz:26523.got - 2010.06.03 22:52:26.
