data_PCOD9320413
_publ_section_title
;
Structure prediction by ZEFSAII (Michael W. Deem and Ramdas Pophale) SiO2 
 PCOD9320413
Probable space group: C 2 2 21
;
_chemical_formula_sum "Si O2"
_cell_formula_units_Z 48
_cell_length_a 14.495311
_cell_length_b 4.948735
_cell_length_c 27.066424
_cell_angle_alpha 90.000000
_cell_angle_beta 90.000000
_cell_angle_gamma 90.000000
_cell_volume 1941.568051
_symmetry_space_group_name_H-M "C 2 2 21"
_symmetry_group_IT_number 20
_symmetry_cell_setting 'orthorhombic'
loop_
_space_group_symop_operation_xyz
x,y,z
-x,-y,1/2+z
x,-y,-z
-x,y,1/2-z
1/2+x,1/2+y,z
1/2-x,1/2-y,1/2+z
1/2+x,1/2-y,-z
1/2-x,1/2+y,1/2-z
loop_
_atom_site_type_symbol
_atom_site_label
_atom_site_fract_x
_atom_site_fract_y
_atom_site_fract_z
Si Si1 0.206114 0.194548 0.627118
Si Si2 0.949583 0.408225 0.119287
Si Si3 0.062810 0.096883 0.903138
Si Si4 0.829082 0.003786 0.307416
Si Si5 0.705908 0.739640 0.030362
Si Si6 0.131577 0.787078 0.705312
O O1 0.154086 0.476548 0.614976
O O2 0.296035 0.238912 0.660752
O O3 0.236539 0.106957 0.573260
O O4 0.146021 0.016967 0.663906
O O5 0.949493 0.389164 0.179948
O O6 0.013969 0.617861 0.090363
O O7 0.981546 0.122395 0.099538
O O8 0.111857 0.138718 0.849706
O O9 0.132680 0.956767 0.941387
O O10 0.882895 0.082844 0.258397
O O11 0.731702 0.864398 0.291671
O O12 0.758086 0.500000 0.000000
O O13 0.669626 0.000000 0.000000
#
# Coordination Sequence:
#
# PCOD9320413 Si02
#       6
#     8   8   8   8   8   8
#     4  10  23  44  69  98 138 174 224 289 335 396
#     4  11  24  44  66  96 145 179 216 272 347 406
#     4  11  25  45  67  97 141 180 217 285 346 398
#     4  10  23  37  69  95 139 182 237 271 327 398
#     4  11  26  46  75 103 124 171 237 287 346 413
#     4  11  21  42  65 103 133 191 231 273 336 402
#
# _framework density 24.722283999999998
#
# number of rings (size 3 to 8) (size 9 to 14) (size 15 to 20)
#    0.000    1.333    3.333    1.000   11.667    0.667 
#    3.000    5.000    0.000    0.000    0.000    0.000 
#    0.000    0.000    0.000    0.000    0.000    0.000 
#
# Total GULP energy -133691.890551 kJ/mol
# GULP energy per Si atom -5570.495440 kJ/mol
# Density = 2.466602 g / cm^3
# Si number density = 24.722284 Si / 1000 Ang^3
#
#
#
# Elastic Constant Matrix: (Units=GPa)
#
#
# Indices 1 2 3 4 5 6 
#
# 1 25.9088 0.7845 13.0380 0.0000 0.0000 0.0000
# 2 0.7845 103.9899 29.7499 0.0000 0.0000 0.0000
# 3 13.0380 29.7499 119.3012 0.0000 0.0000 0.0000
# 4 0.0000 0.0000 0.0000 25.7800 0.0000 0.0000
# 5 0.0000 0.0000 0.0000 0.0000 22.2039 0.0000
# 6 0.0000 0.0000 0.0000 0.0000 0.0000 30.1894
#
#
#
# Elastic Compliance Matrix: (Units=1/GPa)
#
#
# Indices 1 2 3 4 5 6 
#
# 1 0.040949 0.001046 -0.004736 0.000000 0.000000 0.000000
# 2 0.001046 0.010382 -0.002703 0.000000 0.000000 0.000000
# 3 -0.004736 -0.002703 0.009574 0.000000 0.000000 0.000000
# 4 0.000000 0.000000 0.000000 0.038790 0.000000 0.000000
# 5 0.000000 0.000000 0.000000 0.000000 0.045037 0.000000
# 6 0.000000 0.000000 0.000000 0.000000 0.000000 0.033124
#
#
# Mechanical properties :
#
#
# Convention : Reuss Voigt Hill
#
# Bulk Modulus (GPa) = 20.78234 37.37164 29.07699
# Shear Modulus (GPa) = 24.19189 29.34316 26.76753
#
# Velocity S-wave (km/s) = 3.13157 3.44890 3.29405
# Velocity P-wave (km/s) = 4.63683 5.56859 5.12393
#
# Compressibility (1/GPa) = 0.04811777
#
# Stress axis : x y z
#
# Youngs Moduli (GPa) = 24.42090 96.32266 104.45163
#
# Poissons Ratio (x) = -0.10075 0.49468
# Poissons Ratio (y) = -0.02554 0.28235
# Poissons Ratio (z) = 0.11566 0.26038
#
# Static dielectric constant tensor:
#      x y z
#    x 2.023200 0.000000 0.000000 
#    y 0.000000 2.090580 0.000000 
#    z 0.000000 0.000000 2.041810 
# 
# From -- ./inp_files/30417.got.cif
#   From: 2010.05.17/outbox.cif.g08.bks.cpg/sg20_16_cif.got.tgz:30417.got - 2010.06.03 22:52:26.
