data_PCOD9320663
_publ_section_title
;
Structure prediction by ZEFSAII (Michael W. Deem and Ramdas Pophale) SiO2 
 PCOD9320663
Probable space group: C 2 2 21
;
_chemical_formula_sum "Si O2"
_cell_formula_units_Z 56
_cell_length_a 18.947237
_cell_length_b 8.454852
_cell_length_c 16.462827
_cell_angle_alpha 90.000000
_cell_angle_beta 90.000000
_cell_angle_gamma 90.000000
_cell_volume 2637.280428
_symmetry_space_group_name_H-M "C 2 2 21"
_symmetry_group_IT_number 20
_symmetry_cell_setting 'orthorhombic'
loop_
_space_group_symop_operation_xyz
x,y,z
-x,-y,1/2+z
x,-y,-z
-x,y,1/2-z
1/2+x,1/2+y,z
1/2-x,1/2-y,1/2+z
1/2+x,1/2-y,-z
1/2-x,1/2+y,1/2-z
loop_
_atom_site_type_symbol
_atom_site_label
_atom_site_fract_x
_atom_site_fract_y
_atom_site_fract_z
Si Si1 0.611700 0.102126 0.894268
Si Si2 0.919141 0.756566 0.768051
Si Si3 0.773984 0.817847 0.511579
Si Si4 0.674862 0.449429 0.277494
Si Si5 0.140609 0.851261 0.448663
Si Si6 0.547981 0.846827 0.447936
Si Si7 0.797422 0.334656 0.653181
O O1 0.602564 0.128369 0.797994
O O2 0.668737 0.216671 0.937379
O O3 0.535118 0.134079 0.931873
O O4 0.638910 0.922391 0.894270
O O5 0.916230 0.689545 0.860050
O O6 0.000000 0.801416 0.750000
O O7 0.869253 0.902785 0.745149
O O8 0.699123 0.786641 0.554238
O O9 0.759812 0.753388 0.420937
O O10 0.794260 0.000000 0.500000
O O11 0.630745 0.400408 0.356766
O O12 0.748345 0.528196 0.308139
O O13 0.684281 0.300287 0.218632
O O14 0.070972 0.797043 0.494845
O O15 0.170375 0.000000 0.500000
O O16 0.570803 0.000000 0.500000
#
# Coordination Sequence:
#
# PCOD9320663 Si02
#       7
#     8   8   8   8   8   8   8
#     4  11  24  47  69  99 140 179 235 291 346 412
#     4  10  23  45  65  97 140 181 229 293 345 420
#     4  12  24  43  70 101 136 182 233 288 348 415
#     4  12  25  43  70 103 138 182 228 285 354 412
#     4  12  23  44  68  98 139 179 230 287 343 410
#     4  11  24  43  70  96 137 186 232 283 354 414
#     4  12  25  42  71 100 140 180 231 292 346 414
#
# _framework density 21.233995
#
# number of rings (size 3 to 8) (size 9 to 14) (size 15 to 20)
#    0.000    0.571    4.286    3.429    4.000    0.571 
#    5.143    0.000    0.000    0.000    0.000    0.000 
#    0.000    0.000    0.000    0.000    0.000    0.000 
#
# Total GULP energy -156303.840760 kJ/mol
# GULP energy per Si atom -5582.280027 kJ/mol
# Density = 2.118567 g / cm^3
# Si number density = 21.233995 Si / 1000 Ang^3
#
#
#
# Elastic Constant Matrix: (Units=GPa)
#
#
# Indices 1 2 3 4 5 6 
#
# 1 76.7077 23.6626 9.9312 0.0000 0.0000 0.0000
# 2 23.6626 93.2392 28.6600 0.0000 0.0000 0.0000
# 3 9.9312 28.6600 60.8723 0.0000 0.0000 0.0000
# 4 0.0000 0.0000 0.0000 48.7969 0.0000 0.0000
# 5 0.0000 0.0000 0.0000 0.0000 17.1164 0.0000
# 6 0.0000 0.0000 0.0000 0.0000 0.0000 18.4955
#
#
#
# Elastic Compliance Matrix: (Units=1/GPa)
#
#
# Indices 1 2 3 4 5 6 
#
# 1 0.014171 -0.003374 -0.000723 0.000000 0.000000 0.000000
# 2 -0.003374 0.013343 -0.005732 0.000000 0.000000 0.000000
# 3 -0.000723 -0.005732 0.019245 0.000000 0.000000 0.000000
# 4 0.000000 0.000000 0.000000 0.020493 0.000000 0.000000
# 5 0.000000 0.000000 0.000000 0.000000 0.058424 0.000000
# 6 0.000000 0.000000 0.000000 0.000000 0.000000 0.054067
#
#
# Mechanical properties :
#
#
# Convention : Reuss Voigt Hill
#
# Bulk Modulus (GPa) = 36.90003 39.48075 38.19039
# Shear Modulus (GPa) = 23.98835 28.11944 26.05389
#
# Velocity S-wave (km/s) = 3.36477 3.64299 3.50664
# Velocity P-wave (km/s) = 5.70185 6.02733 5.86685
#
# Compressibility (1/GPa) = 0.02710025
#
# Stress axis : x y z
#
# Youngs Moduli (GPa) = 70.56681 74.94443 51.96286
#
# Poissons Ratio (x) = 0.25286 0.03759
# Poissons Ratio (y) = 0.23809 0.29784
# Poissons Ratio (z) = 0.05105 0.42957
#
# Static dielectric constant tensor:
#      x y z
#    x 1.788700 0.000000 0.000000 
#    y 0.000000 1.871400 0.000000 
#    z 0.000000 0.000000 1.766920 
# 
# From -- ./inp_files/21770.got.cif
#   From: 2010.05.17/outbox.cif.g08.bks.cpg/sg20_11_cif.got.tgz:21770.got - 2010.06.03 22:52:26.
