data_PCOD9320319
_publ_section_title
;
Structure prediction by ZEFSAII (Michael W. Deem and Ramdas Pophale) SiO2 
 PCOD9320319
Probable space group: C 2 2 21
;
_chemical_formula_sum "Si O2"
_cell_formula_units_Z 40
_cell_length_a 11.770031
_cell_length_b 8.164889
_cell_length_c 15.193064
_cell_angle_alpha 90.000000
_cell_angle_beta 90.000000
_cell_angle_gamma 90.000000
_cell_volume 1460.068592
_symmetry_space_group_name_H-M "C 2 2 21"
_symmetry_group_IT_number 20
_symmetry_cell_setting 'orthorhombic'
loop_
_space_group_symop_operation_xyz
x,y,z
-x,-y,1/2+z
x,-y,-z
-x,y,1/2-z
1/2+x,1/2+y,z
1/2-x,1/2-y,1/2+z
1/2+x,1/2-y,-z
1/2-x,1/2+y,1/2-z
loop_
_atom_site_type_symbol
_atom_site_label
_atom_site_fract_x
_atom_site_fract_y
_atom_site_fract_z
Si Si1 0.115680 0.718404 0.805825
Si Si2 0.453334 0.593253 0.093421
Si Si3 0.346601 0.710881 0.842117
Si Si4 0.259433 0.810042 0.025728
Si Si5 0.559846 0.905161 0.907420
O O1 0.244756 0.750465 0.775484
O O2 0.116742 0.535051 0.843305
O O3 0.000000 0.726119 0.750000
O O4 0.077619 0.848175 0.880275
O O5 0.403546 0.466283 0.164654
O O6 0.368159 0.747460 0.082641
O O7 0.458550 0.500000 0.000000
O O8 0.447574 0.838027 0.859319
O O9 0.280753 0.710407 0.935617
O O10 0.145326 0.742976 0.070596
O O11 0.263181 0.000000 0.000000
O O12 0.536301 0.000000 0.000000
#
# Coordination Sequence:
#
# PCOD9320319 Si02
#       5
#     8   8   8   8   8
#     4  12  27  47  70 103 151 188 234 296 363 428
#     4  10  22  45  70 103 144 183 242 301 344 427
#     4  11  24  41  69 103 136 183 232 291 356 414
#     4  11  22  38  73 110 137 178 238 299 349 406
#     4  12  23  45  71 103 142 182 240 295 347 420
#
# _framework density 27.395973000000001
#
# number of rings (size 3 to 8) (size 9 to 14) (size 15 to 20)
#    0.000    0.800    4.000    4.800    2.800    2.400 
#    0.000    1.000    0.000    0.000    0.000    0.000 
#    0.000    0.000    0.000    0.000    0.000    0.000 
#
# Total GULP energy -112078.443855 kJ/mol
# GULP energy per Si atom -5603.922193 kJ/mol
# Density = 2.733362 g / cm^3
# Si number density = 27.395973 Si / 1000 Ang^3
#
#
#
# Elastic Constant Matrix: (Units=GPa)
#
#
# Indices 1 2 3 4 5 6 
#
# 1 185.2570 87.7828 14.8098 0.0000 0.0000 0.0000
# 2 87.7828 171.0253 18.1227 0.0000 0.0000 0.0000
# 3 14.8098 18.1227 51.0159 0.0000 0.0000 0.0000
# 4 0.0000 0.0000 0.0000 15.4342 0.0000 0.0000
# 5 0.0000 0.0000 0.0000 0.0000 39.2929 0.0000
# 6 0.0000 0.0000 0.0000 0.0000 0.0000 60.0159
#
#
#
# Elastic Compliance Matrix: (Units=1/GPa)
#
#
# Indices 1 2 3 4 5 6 
#
# 1 0.007164 -0.003592 -0.000804 0.000000 0.000000 0.000000
# 2 -0.003592 0.007877 -0.001755 0.000000 0.000000 0.000000
# 3 -0.000804 -0.001755 0.020459 0.000000 0.000000 0.000000
# 4 0.000000 0.000000 0.000000 0.064791 0.000000 0.000000
# 5 0.000000 0.000000 0.000000 0.000000 0.025450 0.000000
# 6 0.000000 0.000000 0.000000 0.000000 0.000000 0.016662
#
#
# Mechanical properties :
#
#
# Convention : Reuss Voigt Hill
#
# Bulk Modulus (GPa) = 43.10836 72.08100 57.59468
# Shear Modulus (GPa) = 30.78101 42.05413 36.41757
#
# Velocity S-wave (km/s) = 3.35559 3.92222 3.64992
# Velocity P-wave (km/s) = 5.54822 6.84687 6.23147
#
# Compressibility (1/GPa) = 0.02319736
#
# Stress axis : x y z
#
# Youngs Moduli (GPa) = 139.58248 126.95516 48.87915
#
# Poissons Ratio (x) = 0.45603 0.03929
# Poissons Ratio (y) = 0.50139 0.08580
# Poissons Ratio (z) = 0.11219 0.22285
#
# Static dielectric constant tensor:
#      x y z
#    x 2.135150 0.000000 0.000000 
#    y 0.000000 2.084140 0.000000 
#    z 0.000000 0.000000 2.361090 
# 
# From -- ./inp_files/24086.got.cif
#   From: 2010.05.17/outbox.cif.g08.bks.cpg/sg20_13_cif.got.tgz:24086.got - 2010.06.03 22:52:26.
