data_PCOD9320014
_publ_section_title
;
Structure prediction by ZEFSAII (Michael W. Deem and Ramdas Pophale) SiO2 
 PCOD9320014
Probable space group: C 2 2 21
;
_chemical_formula_sum "Si O2"
_cell_formula_units_Z 36
_cell_length_a 5.051257
_cell_length_b 25.873359
_cell_length_c 12.032697
_cell_angle_alpha 90.000000
_cell_angle_beta 90.000000
_cell_angle_gamma 90.000000
_cell_volume 1572.589098
_symmetry_space_group_name_H-M "C 2 2 21"
_symmetry_group_IT_number 20
_symmetry_cell_setting 'orthorhombic'
loop_
_space_group_symop_operation_xyz
x,y,z
-x,-y,1/2+z
x,-y,-z
-x,y,1/2-z
1/2+x,1/2+y,z
1/2-x,1/2-y,1/2+z
1/2+x,1/2-y,-z
1/2-x,1/2+y,1/2-z
loop_
_atom_site_type_symbol
_atom_site_label
_atom_site_fract_x
_atom_site_fract_y
_atom_site_fract_z
Si Si1 0.753196 0.539165 0.826298
Si Si2 0.200312 0.925367 0.922510
Si Si3 0.802747 0.638773 0.405112
Si Si4 0.000000 0.219158 0.250000
Si Si5 0.723722 0.273505 0.445298
O O1 0.500000 0.548603 0.750000
O O2 0.762782 0.478444 0.859984
O O3 0.000000 0.552921 0.750000
O O4 0.741904 0.567119 0.945528
O O5 0.402157 0.880719 0.884254
O O6 0.899007 0.908952 0.901309
O O7 0.684333 0.681727 0.323328
O O8 0.780882 0.667285 0.524298
O O9 0.814256 0.254747 0.325694
O O10 0.422785 0.259362 0.474460
#
# Coordination Sequence:
#
# PCOD9320014 Si02
#       5
#     8   8   8   4   8
#     4  11  24  45  69  94 140 174 208 263 347 388
#     4  11  25  43  66 104 132 167 220 281 308 392
#     4  11  23  41  68  99 133 166 229 269 314 398
#     4  10  24  42  70  94 132 176 218 268 342 370
#     4  10  22  42  61  93 134 168 207 271 328 377
#
# _framework density 22.892184
#
# number of rings (size 3 to 8) (size 9 to 14) (size 15 to 20)
#    0.000    1.333    0.000    5.333    4.667   10.667 
#    6.000    0.000    4.889    0.000    0.000    0.000 
#    0.000    0.000    0.000    0.000    0.000    0.000 
#
# Total GULP energy -100816.394354 kJ/mol
# GULP energy per Si atom -5600.910797 kJ/mol
# Density = 2.284008 g / cm^3
# Si number density = 22.892184 Si / 1000 Ang^3
#
#
#
# Elastic Constant Matrix: (Units=GPa)
#
#
# Indices 1 2 3 4 5 6 
#
# 1 109.4520 0.0003 26.9983 0.0000 0.0000 0.0000
# 2 0.0003 38.6543 1.8475 0.0000 0.0000 0.0000
# 3 26.9983 1.8475 112.6469 0.0000 0.0000 0.0000
# 4 0.0000 0.0000 0.0000 33.2531 0.0000 0.0000
# 5 0.0000 0.0000 0.0000 0.0000 33.7714 0.0000
# 6 0.0000 0.0000 0.0000 0.0000 0.0000 52.3087
#
#
#
# Elastic Compliance Matrix: (Units=1/GPa)
#
#
# Indices 1 2 3 4 5 6 
#
# 1 0.009711 0.000111 -0.002329 0.000000 0.000000 0.000000
# 2 0.000111 0.025892 -0.000451 0.000000 0.000000 0.000000
# 3 -0.002329 -0.000451 0.009443 0.000000 0.000000 0.000000
# 4 0.000000 0.000000 0.000000 0.030072 0.000000 0.000000
# 5 0.000000 0.000000 0.000000 0.000000 0.029611 0.000000
# 6 0.000000 0.000000 0.000000 0.000000 0.000000 0.019117
#
#
# Mechanical properties :
#
#
# Convention : Reuss Voigt Hill
#
# Bulk Modulus (GPa) = 25.18436 35.38281 30.28359
# Shear Modulus (GPa) = 35.10725 39.32712 37.21719
#
# Velocity S-wave (km/s) = 3.92036 4.14929 4.03645
# Velocity P-wave (km/s) = 5.61404 6.20043 5.91450
#
# Compressibility (1/GPa) = 0.03970719
#
# Stress axis : x y z
#
# Youngs Moduli (GPa) = 102.97617 38.62211 105.89905
#
# Poissons Ratio (x) = -0.00430 0.24667
# Poissons Ratio (y) = -0.01146 0.04779
# Poissons Ratio (z) = 0.23986 0.01743
#
# Static dielectric constant tensor:
#      x y z
#    x 1.695020 0.000000 0.000000 
#    y 0.000000 1.835870 0.000000 
#    z 0.000000 0.000000 1.908470 
# 
# From -- ./inp_files/12052.got.cif
#   From: 2010.05.17/outbox.cif.g08.bks.cpg/sg20_7_cif.got.tgz:12052.got - 2010.06.03 22:52:26.
