data_PCOD9320110
_publ_section_title
;
Structure prediction by ZEFSAII (Michael W. Deem and Ramdas Pophale) SiO2 
 PCOD9320110
Probable space group: C 2 2 21
;
_chemical_formula_sum "Si O2"
_cell_formula_units_Z 40
_cell_length_a 22.381622
_cell_length_b 7.793172
_cell_length_c 9.234759
_cell_angle_alpha 90.000000
_cell_angle_beta 90.000000
_cell_angle_gamma 90.000000
_cell_volume 1610.762033
_symmetry_space_group_name_H-M "C 2 2 21"
_symmetry_group_IT_number 20
_symmetry_cell_setting 'orthorhombic'
loop_
_space_group_symop_operation_xyz
x,y,z
-x,-y,1/2+z
x,-y,-z
-x,y,1/2-z
1/2+x,1/2+y,z
1/2-x,1/2-y,1/2+z
1/2+x,1/2-y,-z
1/2-x,1/2+y,1/2-z
loop_
_atom_site_type_symbol
_atom_site_label
_atom_site_fract_x
_atom_site_fract_y
_atom_site_fract_z
Si Si1 0.601295 0.301663 0.641934
Si Si2 0.274834 0.594390 0.270771
Si Si3 0.064931 0.316858 0.059506
Si Si4 0.464022 0.668533 0.888027
Si Si5 0.803445 0.748230 0.438732
O O1 0.670330 0.329628 0.677725
O O2 0.573959 0.187058 0.768829
O O3 0.588032 0.237509 0.479584
O O4 0.568866 0.490111 0.654393
O O5 0.219379 0.594156 0.161634
O O6 0.294543 0.413139 0.335966
O O7 0.267084 0.710282 0.414731
O O8 0.128480 0.272443 0.987121
O O9 0.045293 0.500000 0.000000
O O10 0.016725 0.179348 0.008021
O O11 0.500000 0.735969 0.750000
#
# Coordination Sequence:
#
# PCOD9320110 Si02
#       5
#     8   8   8   8   8
#     4  10  22  42  70 101 135 194 242 297 368 449
#     4  10  23  42  68 103 138 191 248 303 370 445
#     4  11  25  44  69 104 150 190 245 311 376 439
#     4  11  22  39  67 101 135 183 240 295 359 447
#     4  10  24  42  69 101 143 190 246 305 371 444
#
# _framework density 24.832967
#
# number of rings (size 3 to 8) (size 9 to 14) (size 15 to 20)
#    0.000    1.600    0.000    4.200    5.600   11.200 
#    0.000    0.000    4.400    0.000    0.000    0.000 
#    0.000    0.000    0.000    0.000    0.000    0.000 
#
# Total GULP energy -111768.407158 kJ/mol
# GULP energy per Si atom -5588.420358 kJ/mol
# Density = 2.477645 g / cm^3
# Si number density = 24.832967 Si / 1000 Ang^3
#
#
#
# Elastic Constant Matrix: (Units=GPa)
#
#
# Indices 1 2 3 4 5 6 
#
# 1 61.5999 -17.5724 31.0503 0.0000 0.0000 0.0000
# 2 -17.5724 83.2669 6.6770 0.0000 0.0000 0.0000
# 3 31.0503 6.6770 123.8044 0.0000 0.0000 0.0000
# 4 0.0000 0.0000 0.0000 39.4779 0.0000 0.0000
# 5 0.0000 0.0000 0.0000 0.0000 55.9449 0.0000
# 6 0.0000 0.0000 0.0000 0.0000 0.0000 21.5438
#
#
#
# Elastic Compliance Matrix: (Units=1/GPa)
#
#
# Indices 1 2 3 4 5 6 
#
# 1 0.020266 0.004705 -0.005336 0.000000 0.000000 0.000000
# 2 0.004705 0.013154 -0.001889 0.000000 0.000000 0.000000
# 3 -0.005336 -0.001889 0.009518 0.000000 0.000000 0.000000
# 4 0.000000 0.000000 0.000000 0.025331 0.000000 0.000000
# 5 0.000000 0.000000 0.000000 0.000000 0.017875 0.000000
# 6 0.000000 0.000000 0.000000 0.000000 0.000000 0.046417
#
#
# Mechanical properties :
#
#
# Convention : Reuss Voigt Hill
#
# Bulk Modulus (GPa) = 26.38857 34.33122 30.35989
# Shear Modulus (GPa) = 33.28151 39.96106 36.62128
#
# Velocity S-wave (km/s) = 3.66487 4.01583 3.84435
# Velocity P-wave (km/s) = 5.34395 5.94621 5.65310
#
# Compressibility (1/GPa) = 0.03789520
#
# Stress axis : x y z
#
# Youngs Moduli (GPa) = 49.34421 76.02275 105.06923
#
# Poissons Ratio (x) = -0.35767 0.56069
# Poissons Ratio (y) = -0.23215 0.19851
# Poissons Ratio (z) = 0.26332 0.14364
#
# Static dielectric constant tensor:
#      x y z
#    x 1.910490 0.000000 0.000000 
#    y 0.000000 2.052860 0.000000 
#    z 0.000000 0.000000 2.006890 
# 
# From -- ./inp_files/10969.got.cif
#   From: 2010.05.17/outbox.cif.g08.bks.cpg/sg20_6_cif.got.tgz:10969.got - 2010.06.03 22:52:26.
