data_PCOD9320625
_publ_section_title
;
Structure prediction by ZEFSAII (Michael W. Deem and Ramdas Pophale) SiO2 
 PCOD9320625
Probable space group: C 2 2 21
;
_chemical_formula_sum "Si O2"
_cell_formula_units_Z 32
_cell_length_a 22.286024
_cell_length_b 11.934500
_cell_length_c 5.085898
_cell_angle_alpha 90.000000
_cell_angle_beta 90.000000
_cell_angle_gamma 90.000000
_cell_volume 1352.709278
_symmetry_space_group_name_H-M "C 2 2 21"
_symmetry_group_IT_number 20
_symmetry_cell_setting 'orthorhombic'
loop_
_space_group_symop_operation_xyz
x,y,z
-x,-y,1/2+z
x,-y,-z
-x,y,1/2-z
1/2+x,1/2+y,z
1/2-x,1/2-y,1/2+z
1/2+x,1/2-y,-z
1/2-x,1/2+y,1/2-z
loop_
_atom_site_type_symbol
_atom_site_label
_atom_site_fract_x
_atom_site_fract_y
_atom_site_fract_z
Si Si1 0.043380 0.877226 0.004495
Si Si2 0.727891 0.690887 0.276341
Si Si3 0.199447 0.500000 0.000000
Si Si4 0.000000 0.428579 0.250000
Si Si5 0.384444 0.194806 0.725176
O O1 0.087248 0.771500 0.003681
O O2 0.000000 0.871710 0.750000
O O3 0.000000 0.872890 0.250000
O O4 0.074061 0.000000 0.000000
O O5 0.765293 0.769911 0.476417
O O6 0.756610 0.569923 0.311672
O O7 0.659673 0.716467 0.364622
O O8 0.157067 0.409749 0.143815
O O9 0.943565 0.357274 0.144195
O O10 0.978490 0.500000 0.500000
#
# Coordination Sequence:
#
# PCOD9320625 Si02
#       5
#     8   8   4   4   8
#     4  10  23  44  66 101 142 183 229 278 351 426
#     4  10  25  46  69  99 140 192 236 286 344 413
#     4  10  24  48  70 104 140 188 242 294 346 412
#     4  12  28  42  72 112 144 184 226 294 370 422
#     4  11  24  45  75 103 148 181 237 293 356 425
#
# _framework density 23.656227999999999
#
# number of rings (size 3 to 8) (size 9 to 14) (size 15 to 20)
#    0.000    1.500    2.500    0.000    5.250    7.000 
#   24.750    0.000    0.000    0.000    0.000    0.000 
#    0.000    0.000    0.000    0.000    0.000    0.000 
#
# Total GULP energy -89315.832261 kJ/mol
# GULP energy per Si atom -5582.239516 kJ/mol
# Density = 2.360239 g / cm^3
# Si number density = 23.656228 Si / 1000 Ang^3
#
#
#
# Elastic Constant Matrix: (Units=GPa)
#
#
# Indices 1 2 3 4 5 6 
#
# 1 135.9595 51.0581 5.9526 0.0000 0.0000 0.0000
# 2 51.0581 152.5254 16.5705 0.0000 0.0000 0.0000
# 3 5.9526 16.5705 82.5451 0.0000 0.0000 0.0000
# 4 0.0000 0.0000 0.0000 26.0224 0.0000 0.0000
# 5 0.0000 0.0000 0.0000 0.0000 23.3983 0.0000
# 6 0.0000 0.0000 0.0000 0.0000 0.0000 47.9515
#
#
#
# Elastic Compliance Matrix: (Units=1/GPa)
#
#
# Indices 1 2 3 4 5 6 
#
# 1 0.008413 -0.002812 -0.000042 0.000000 0.000000 0.000000
# 2 -0.002812 0.007642 -0.001331 0.000000 0.000000 0.000000
# 3 -0.000042 -0.001331 0.012385 0.000000 0.000000 0.000000
# 4 0.000000 0.000000 0.000000 0.038428 0.000000 0.000000
# 5 0.000000 0.000000 0.000000 0.000000 0.042738 0.000000
# 6 0.000000 0.000000 0.000000 0.000000 0.000000 0.020854
#
#
# Mechanical properties :
#
#
# Convention : Reuss Voigt Hill
#
# Bulk Modulus (GPa) = 49.82712 57.57693 53.70202
# Shear Modulus (GPa) = 34.35927 39.30437 36.83182
#
# Velocity S-wave (km/s) = 3.81522 4.08055 3.95011
# Velocity P-wave (km/s) = 6.36527 6.82591 6.59961
#
# Compressibility (1/GPa) = 0.02006939
#
# Stress axis : x y z
#
# Youngs Moduli (GPa) = 118.86563 130.85371 80.74351
#
# Poissons Ratio (x) = 0.36791 0.00341
# Poissons Ratio (y) = 0.33421 0.10750
# Poissons Ratio (z) = 0.00502 0.17421
#
# Static dielectric constant tensor:
#      x y z
#    x 1.949080 0.000000 0.000000 
#    y 0.000000 1.953180 0.000000 
#    z 0.000000 0.000000 1.867300 
# 
# From -- ./inp_files/1162.got.cif
#   From: 2010.05.17/outbox.cif.g08.bks.cpg/sg20_1_cif.got.tgz:1162.got - 2010.06.03 22:52:26.
