data_PCOD9320246
_publ_section_title
;
Structure prediction by ZEFSAII (Michael W. Deem and Ramdas Pophale) SiO2 
 PCOD9320246
Probable space group: C 2 2 21
;
_chemical_formula_sum "Si O2"
_cell_formula_units_Z 56
_cell_length_a 11.809722
_cell_length_b 14.824374
_cell_length_c 14.162105
_cell_angle_alpha 90.000000
_cell_angle_beta 90.000000
_cell_angle_gamma 90.000000
_cell_volume 2479.384304
_symmetry_space_group_name_H-M "C 2 2 21"
_symmetry_group_IT_number 20
_symmetry_cell_setting 'orthorhombic'
loop_
_space_group_symop_operation_xyz
x,y,z
-x,-y,1/2+z
x,-y,-z
-x,y,1/2-z
1/2+x,1/2+y,z
1/2-x,1/2-y,1/2+z
1/2+x,1/2-y,-z
1/2-x,1/2+y,1/2-z
loop_
_atom_site_type_symbol
_atom_site_label
_atom_site_fract_x
_atom_site_fract_y
_atom_site_fract_z
Si Si1 0.935003 0.044743 0.349667
Si Si2 0.401788 0.315689 0.956415
Si Si3 0.685375 0.094821 0.009435
Si Si4 0.487298 0.867246 0.138542
Si Si5 0.009590 0.155732 0.862645
Si Si6 0.010143 0.646665 0.138889
Si Si7 0.187589 0.532593 0.397042
O O1 0.000000 0.048248 0.250000
O O2 0.002903 0.116279 0.414006
O O3 0.940716 0.941304 0.385991
O O4 0.800137 0.057031 0.339042
O O5 0.272672 0.339631 0.938702
O O6 0.432376 0.218595 0.914680
O O7 0.401511 0.333713 0.070145
O O8 0.590291 0.076410 0.088443
O O9 0.608397 0.121046 0.917930
O O10 0.749383 0.000000 0.000000
O O11 0.500000 0.847511 0.250000
O O12 0.399467 0.952735 0.134760
O O13 0.000000 0.156319 0.750000
O O14 0.059718 0.254512 0.884896
O O15 0.886993 0.623138 0.098927
O O16 0.000000 0.636169 0.250000
O O17 0.225329 0.500000 0.500000
#
# Coordination Sequence:
#
# PCOD9320246 Si02
#       7
#     8   8   8   8   8   8   8
#     4  11  27  46  69 108 144 190 243 291 374 439
#     4  12  26  47  69 105 147 192 231 311 365 430
#     4  12  25  47  73 103 148 185 246 299 362 438
#     4  12  27  48  70 111 146 195 245 299 368 437
#     4  10  22  44  68 100 134 181 240 282 354 431
#     4  11  23  43  73 106 136 185 239 297 358 423
#     4  12  23  45  75 103 144 191 242 304 358 440
#
# _framework density 22.586252999999999
#
# number of rings (size 3 to 8) (size 9 to 14) (size 15 to 20)
#    0.000    0.571    4.286    3.000    4.000    4.571 
#    2.571    0.000    0.000    0.000    0.000    0.000 
#    0.000    0.000    0.000    0.000    0.000    0.000 
#
# Total GULP energy -155872.820646 kJ/mol
# GULP energy per Si atom -5566.886452 kJ/mol
# Density = 2.253485 g / cm^3
# Si number density = 22.586253 Si / 1000 Ang^3
#
#
#
# Elastic Constant Matrix: (Units=GPa)
#
#
# Indices 1 2 3 4 5 6 
#
# 1 119.2773 53.1567 20.9054 0.0000 0.0000 0.0000
# 2 53.1567 137.3754 20.0615 0.0000 0.0000 0.0000
# 3 20.9054 20.0615 93.6296 0.0000 0.0000 0.0000
# 4 0.0000 0.0000 0.0000 89.2129 0.0000 0.0000
# 5 0.0000 0.0000 0.0000 0.0000 25.1901 0.0000
# 6 0.0000 0.0000 0.0000 0.0000 0.0000 29.9057
#
#
#
# Elastic Compliance Matrix: (Units=1/GPa)
#
#
# Indices 1 2 3 4 5 6 
#
# 1 0.010330 -0.003779 -0.001497 0.000000 0.000000 0.000000
# 2 -0.003779 0.008897 -0.001063 0.000000 0.000000 0.000000
# 3 -0.001497 -0.001063 0.011242 0.000000 0.000000 0.000000
# 4 0.000000 0.000000 0.000000 0.011209 0.000000 0.000000
# 5 0.000000 0.000000 0.000000 0.000000 0.039698 0.000000
# 6 0.000000 0.000000 0.000000 0.000000 0.000000 0.033438
#
#
# Mechanical properties :
#
#
# Convention : Reuss Voigt Hill
#
# Bulk Modulus (GPa) = 56.20196 59.83660 58.01928
# Shear Modulus (GPa) = 37.47517 45.93900 41.70709
#
# Velocity S-wave (km/s) = 4.07775 4.51481 4.30183
# Velocity P-wave (km/s) = 6.86353 7.32994 7.10056
#
# Compressibility (1/GPa) = 0.01779297
#
# Stress axis : x y z
#
# Youngs Moduli (GPa) = 96.80415 112.40247 88.95004
#
# Poissons Ratio (x) = 0.42472 0.13315
# Poissons Ratio (y) = 0.36578 0.09451
# Poissons Ratio (z) = 0.14490 0.11943
#
# Static dielectric constant tensor:
#      x y z
#    x 0.672270 0.000000 0.000000 
#    y 0.000000 1.886110 0.000000 
#    z 0.000000 0.000000 1.883130 
# 
# From -- ./inp_files/20028.got.cif
#   From: 2010.05.17/outbox.cif.g08.bks.cpg/sg20_11_cif.got.tgz:20028.got - 2010.06.03 22:52:26.
