data_PCOD9320238
_publ_section_title
;
Structure prediction by ZEFSAII (Michael W. Deem and Ramdas Pophale) SiO2 
 PCOD9320238
Probable space group: C 2 2 21
;
_chemical_formula_sum "Si O2"
_cell_formula_units_Z 52
_cell_length_a 9.713163
_cell_length_b 17.524984
_cell_length_c 15.260910
_cell_angle_alpha 90.000000
_cell_angle_beta 90.000000
_cell_angle_gamma 90.000000
_cell_volume 2597.758282
_symmetry_space_group_name_H-M "C 2 2 21"
_symmetry_group_IT_number 20
_symmetry_cell_setting 'orthorhombic'
loop_
_space_group_symop_operation_xyz
x,y,z
-x,-y,1/2+z
x,-y,-z
-x,y,1/2-z
1/2+x,1/2+y,z
1/2-x,1/2-y,1/2+z
1/2+x,1/2-y,-z
1/2-x,1/2+y,1/2-z
loop_
_atom_site_type_symbol
_atom_site_label
_atom_site_fract_x
_atom_site_fract_y
_atom_site_fract_z
Si Si1 0.936399 0.890788 0.568710
Si Si2 0.255924 0.202444 0.807165
Si Si3 0.549539 0.854284 0.451109
Si Si4 0.299076 0.000000 0.000000
Si Si5 0.500000 0.311979 0.750000
Si Si6 0.261894 0.873704 0.366421
Si Si7 0.829107 0.000000 0.000000
Si Si8 0.499894 0.271667 0.081745
O O1 0.804415 0.945943 0.555909
O O2 0.960975 0.860452 0.665149
O O3 0.935592 0.821857 0.498172
O O4 0.070979 0.939527 0.545413
O O5 0.329683 0.186054 0.898692
O O6 0.361206 0.263030 0.766000
O O7 0.253429 0.130823 0.739571
O O8 0.103870 0.227671 0.836214
O O9 0.599043 0.941036 0.453780
O O10 0.410445 0.844831 0.396422
O O11 0.527803 0.812420 0.543689
O O12 0.141232 0.815166 0.394561
O O13 0.244576 0.952130 0.422175
#
# Coordination Sequence:
#
# PCOD9320238 Si02
#       8
#     8   8   8   4   4   8   4   8
#     4  10  22  44  66  98 136 182 234 284 360 428
#     4  12  23  41  70 103 133 185 241 301 351 415
#     4  12  23  41  69  97 139 180 229 293 361 421
#     4  11  25  42  70 102 138 190 228 290 372 432
#     4  12  24  42  72 104 134 182 240 306 348 422
#     4  11  23  42  66 101 138 181 240 289 355 429
#     4   9  23  42  66  94 136 188 224 284 360 432
#     4  11  23  42  71  95 137 188 240 286 350 444
#
# _framework density 20.01726
#
# number of rings (size 3 to 8) (size 9 to 14) (size 15 to 20)
#    0.000    0.923    4.615    1.846    4.308    1.231 
#    0.000    0.000    0.000    0.000    0.000    0.000 
#    0.000    0.000    0.000    0.000    0.000    0.000 
#
# Total GULP energy -145005.346898 kJ/mol
# GULP energy per Si atom -5577.128727 kJ/mol
# Density = 1.997170 g / cm^3
# Si number density = 20.017260 Si / 1000 Ang^3
#
#
#
# Elastic Constant Matrix: (Units=GPa)
#
#
# Indices 1 2 3 4 5 6 
#
# 1 106.3453 8.3315 41.4280 0.0000 0.0000 0.0000
# 2 8.3315 49.8069 24.3796 0.0000 0.0000 0.0000
# 3 41.4280 24.3796 87.3770 0.0000 0.0000 0.0000
# 4 0.0000 0.0000 0.0000 35.4386 0.0000 0.0000
# 5 0.0000 0.0000 0.0000 0.0000 31.5164 0.0000
# 6 0.0000 0.0000 0.0000 0.0000 0.0000 7.9077
#
#
#
# Elastic Compliance Matrix: (Units=1/GPa)
#
#
# Indices 1 2 3 4 5 6 
#
# 1 0.011566 0.000868 -0.005726 0.000000 0.000000 0.000000
# 2 0.000868 0.023318 -0.006918 0.000000 0.000000 0.000000
# 3 -0.005726 -0.006918 0.016090 0.000000 0.000000 0.000000
# 4 0.000000 0.000000 0.000000 0.028218 0.000000 0.000000
# 5 0.000000 0.000000 0.000000 0.000000 0.031729 0.000000
# 6 0.000000 0.000000 0.000000 0.000000 0.000000 0.126459
#
#
# Mechanical properties :
#
#
# Convention : Reuss Voigt Hill
#
# Bulk Modulus (GPa) = 36.46618 43.53416 40.00017
# Shear Modulus (GPa) = 18.51355 26.26522 22.38938
#
# Velocity S-wave (km/s) = 3.04448 3.62626 3.34803
# Velocity P-wave (km/s) = 5.53312 6.27125 5.91371
#
# Compressibility (1/GPa) = 0.02742267
#
# Stress axis : x y z
#
# Youngs Moduli (GPa) = 86.46080 42.88449 62.15162
#
# Poissons Ratio (x) = -0.03723 0.35588
# Poissons Ratio (y) = -0.07505 0.42995
# Poissons Ratio (z) = 0.49507 0.29667
#
# Static dielectric constant tensor:
#      x y z
#    x 1.711220 0.000000 0.000000 
#    y 0.000000 1.625600 0.000000 
#    z 0.000000 0.000000 1.615580 
# 
# From -- ./inp_files/19151.got.cif
#   From: 2010.05.17/outbox.cif.g08.bks.cpg/sg20_10_cif.got.tgz:19151.got - 2010.06.03 22:52:26.
