data_PCOD9320072
_publ_section_title
;
Structure prediction by ZEFSAII (Michael W. Deem and Ramdas Pophale) SiO2 
 PCOD9320072
Probable space group: C 2 2 21
;
_chemical_formula_sum "Si O2"
_cell_formula_units_Z 48
_cell_length_a 6.726744
_cell_length_b 12.334254
_cell_length_c 24.041253
_cell_angle_alpha 90.000000
_cell_angle_beta 90.000000
_cell_angle_gamma 90.000000
_cell_volume 1994.687594
_symmetry_space_group_name_H-M "C 2 2 21"
_symmetry_group_IT_number 20
_symmetry_cell_setting 'orthorhombic'
loop_
_space_group_symop_operation_xyz
x,y,z
-x,-y,1/2+z
x,-y,-z
-x,y,1/2-z
1/2+x,1/2+y,z
1/2-x,1/2-y,1/2+z
1/2+x,1/2-y,-z
1/2-x,1/2+y,1/2-z
loop_
_atom_site_type_symbol
_atom_site_label
_atom_site_fract_x
_atom_site_fract_y
_atom_site_fract_z
Si Si1 0.500000 0.880810 0.750000
Si Si2 0.374453 0.707169 0.825165
Si Si3 0.337278 0.631378 0.950688
Si Si4 0.801687 0.031650 0.699605
Si Si5 0.098322 0.345740 0.488121
Si Si6 0.181867 0.004210 0.076986
Si Si7 0.000000 0.313087 0.250000
O O1 0.512970 0.805350 0.804575
O O2 0.703797 0.950526 0.744986
O O3 0.336369 0.689318 0.889918
O O4 0.489105 0.597098 0.804543
O O5 0.175393 0.730609 0.789563
O O6 0.419787 0.720845 0.994397
O O7 0.456547 0.519708 0.941124
O O8 0.117050 0.612490 0.971971
O O9 0.796264 0.969690 0.641022
O O10 0.630939 0.121892 0.704619
O O11 0.201846 0.411393 0.538650
O O12 0.229596 0.383179 0.435343
#
# Coordination Sequence:
#
# PCOD9320072 Si02
#       7
#     4   8   8   8   8   8   4
#     4  11  22  44  75 104 138 187 240 284 355 436
#     4  11  23  44  70 104 144 186 236 296 361 423
#     4  11  23  43  71 103 141 187 235 296 356 425
#     4  10  22  42  67 101 142 182 233 292 350 418
#     4  11  22  42  69 100 141 184 233 288 353 424
#     4  10  23  41  67 100 140 181 234 288 350 420
#     4  11  20  42  67  96 144 179 222 292 351 402
#
# _framework density 24.063918000000001
#
# number of rings (size 3 to 8) (size 9 to 14) (size 15 to 20)
#    0.000    1.333    3.333    2.000    0.000    2.667 
#    6.000    0.000    0.000    6.000    0.000    0.000 
#    0.000    0.000    0.000    0.000    0.000    0.000 
#
# Total GULP energy -133749.441408 kJ/mol
# GULP energy per Si atom -5572.893392 kJ/mol
# Density = 2.400915 g / cm^3
# Si number density = 24.063918 Si / 1000 Ang^3
#
#
#
# Elastic Constant Matrix: (Units=GPa)
#
#
# Indices 1 2 3 4 5 6 
#
# 1 127.6982 36.4536 30.3630 0.0000 0.0000 0.0000
# 2 36.4536 86.6562 15.2093 0.0000 0.0000 0.0000
# 3 30.3630 15.2093 92.5044 0.0000 0.0000 0.0000
# 4 0.0000 0.0000 0.0000 44.1804 0.0000 0.0000
# 5 0.0000 0.0000 0.0000 0.0000 12.2495 0.0000
# 6 0.0000 0.0000 0.0000 0.0000 0.0000 37.8585
#
#
#
# Elastic Compliance Matrix: (Units=1/GPa)
#
#
# Indices 1 2 3 4 5 6 
#
# 1 0.009437 -0.003528 -0.002517 0.000000 0.000000 0.000000
# 2 -0.003528 0.013202 -0.001013 0.000000 0.000000 0.000000
# 3 -0.002517 -0.001013 0.011803 0.000000 0.000000 0.000000
# 4 0.000000 0.000000 0.000000 0.022634 0.000000 0.000000
# 5 0.000000 0.000000 0.000000 0.000000 0.081636 0.000000
# 6 0.000000 0.000000 0.000000 0.000000 0.000000 0.026414
#
#
# Mechanical properties :
#
#
# Convention : Reuss Voigt Hill
#
# Bulk Modulus (GPa) = 49.19892 52.32337 50.76115
# Shear Modulus (GPa) = 26.87929 33.84653 30.36291
#
# Velocity S-wave (km/s) = 3.34577 3.75444 3.55598
# Velocity P-wave (km/s) = 5.95106 6.37064 6.16442
#
# Compressibility (1/GPa) = 0.02032565
#
# Stress axis : x y z
#
# Youngs Moduli (GPa) = 105.97026 75.74809 84.72369
#
# Poissons Ratio (x) = 0.26723 0.21328
# Poissons Ratio (y) = 0.37385 0.08579
# Poissons Ratio (z) = 0.26677 0.07670
#
# Static dielectric constant tensor:
#      x y z
#    x 2.007710 0.000000 0.000000 
#    y 0.000000 2.018850 0.000000 
#    z 0.000000 0.000000 1.983120 
# 
# From -- ./inp_files/29847.got.cif
#   From: 2010.05.17/outbox.cif.g08.bks.cpg/sg20_15_cif.got.tgz:29847.got - 2010.06.03 22:52:26.
