data_PCOD9320235
_publ_section_title
;
Structure prediction by ZEFSAII (Michael W. Deem and Ramdas Pophale) SiO2 
 PCOD9320235
Probable space group: C 2 2 21
;
_chemical_formula_sum "Si O2"
_cell_formula_units_Z 40
_cell_length_a 18.034110
_cell_length_b 13.162267
_cell_length_c 7.600604
_cell_angle_alpha 90.000000
_cell_angle_beta 90.000000
_cell_angle_gamma 90.000000
_cell_volume 1804.153630
_symmetry_space_group_name_H-M "C 2 2 21"
_symmetry_group_IT_number 20
_symmetry_cell_setting 'orthorhombic'
loop_
_space_group_symop_operation_xyz
x,y,z
-x,-y,1/2+z
x,-y,-z
-x,y,1/2-z
1/2+x,1/2+y,z
1/2-x,1/2-y,1/2+z
1/2+x,1/2-y,-z
1/2-x,1/2+y,1/2-z
loop_
_atom_site_type_symbol
_atom_site_label
_atom_site_fract_x
_atom_site_fract_y
_atom_site_fract_z
Si Si1 0.622312 0.759882 0.828945
Si Si2 0.000000 0.616591 0.750000
Si Si3 0.364808 0.009910 0.214044
Si Si4 0.907557 0.000000 0.000000
Si Si5 0.297205 0.438584 0.316415
Si Si6 0.522225 0.288727 0.507260
O O1 0.689069 0.681199 0.845170
O O2 0.564942 0.735221 0.985295
O O3 0.570420 0.727654 0.666092
O O4 0.641925 0.875350 0.786495
O O5 0.934739 0.541511 0.690968
O O6 0.044774 0.695668 0.629314
O O7 0.286341 0.957043 0.246249
O O8 0.377957 0.000000 0.000000
O O9 0.855141 0.025297 0.832942
O O10 0.958744 0.095893 0.053776
O O11 0.307731 0.500000 0.500000
#
# Coordination Sequence:
#
# PCOD9320235 Si02
#       6
#     8   4   8   4   8   8
#     4  10  22  44  66  96 139 180 227 291 348 412
#     4  12  24  38  68 100 130 180 234 286 358 416
#     4  11  24  46  69 101 142 183 239 296 350 437
#     4  10  24  46  66 104 148 178 244 292 348 430
#     4  10  25  46  70 101 142 192 234 291 358 426
#     4  10  23  39  68  99 135 180 230 291 346 421
#
# _framework density 22.171061000000002
#
# number of rings (size 3 to 8) (size 9 to 14) (size 15 to 20)
#    0.000    1.600    2.000    1.200    4.200    4.800 
#    7.200    0.000    0.000    0.000    0.000    0.000 
#    0.000    0.000    0.000    0.000    0.000    0.000 
#
# Total GULP energy -111558.647863 kJ/mol
# GULP energy per Si atom -5577.932393 kJ/mol
# Density = 2.212060 g / cm^3
# Si number density = 22.171061 Si / 1000 Ang^3
#
#
#
# Elastic Constant Matrix: (Units=GPa)
#
#
# Indices 1 2 3 4 5 6 
#
# 1 126.0207 95.2112 23.9558 0.0000 0.0000 0.0000
# 2 95.2112 208.5338 27.1265 0.0000 0.0000 0.0000
# 3 23.9558 27.1265 68.1576 0.0000 0.0000 0.0000
# 4 0.0000 0.0000 0.0000 27.6429 0.0000 0.0000
# 5 0.0000 0.0000 0.0000 0.0000 22.6236 0.0000
# 6 0.0000 0.0000 0.0000 0.0000 0.0000 38.2425
#
#
#
# Elastic Compliance Matrix: (Units=1/GPa)
#
#
# Indices 1 2 3 4 5 6 
#
# 1 0.012426 -0.005384 -0.002225 0.000000 0.000000 0.000000
# 2 -0.005384 0.007390 -0.001049 0.000000 0.000000 0.000000
# 3 -0.002225 -0.001049 0.015871 0.000000 0.000000 0.000000
# 4 0.000000 0.000000 0.000000 0.036176 0.000000 0.000000
# 5 0.000000 0.000000 0.000000 0.000000 0.044202 0.000000
# 6 0.000000 0.000000 0.000000 0.000000 0.000000 0.026149
#
#
# Mechanical properties :
#
#
# Convention : Reuss Voigt Hill
#
# Bulk Modulus (GPa) = 54.43001 77.25546 65.84273
# Shear Modulus (GPa) = 30.18380 34.79638 32.49009
#
# Velocity S-wave (km/s) = 3.69373 3.96593 3.83224
# Velocity P-wave (km/s) = 6.54177 7.47611 7.02449
#
# Compressibility (1/GPa) = 0.01837222
#
# Stress axis : x y z
#
# Youngs Moduli (GPa) = 80.47828 135.31855 63.00716
#
# Poissons Ratio (x) = 0.72854 0.14016
# Poissons Ratio (y) = 0.43329 0.06609
# Poissons Ratio (z) = 0.17903 0.14193
#
# Static dielectric constant tensor:
#      x y z
#    x 1.731800 0.000000 0.000000 
#    y 0.000000 1.855070 0.000000 
#    z 0.000000 0.000000 1.854300 
# 
# From -- ./inp_files/7096.got.cif
#   From: 2010.05.17/outbox.cif.g08.bks.cpg/sg20_4_cif.got.tgz:7096.got - 2010.06.03 22:52:26.
