data_PCOD9320199
_publ_section_title
;
Structure prediction by ZEFSAII (Michael W. Deem and Ramdas Pophale) SiO2 
 PCOD9320199
Probable space group: C 2 2 21
;
_chemical_formula_sum "Si O2"
_cell_formula_units_Z 64
_cell_length_a 10.795902
_cell_length_b 15.587394
_cell_length_c 18.093350
_cell_angle_alpha 90.000000
_cell_angle_beta 90.000000
_cell_angle_gamma 90.000000
_cell_volume 3044.748541
_symmetry_space_group_name_H-M "C 2 2 21"
_symmetry_group_IT_number 20
_symmetry_cell_setting 'orthorhombic'
loop_
_space_group_symop_operation_xyz
x,y,z
-x,-y,1/2+z
x,-y,-z
-x,y,1/2-z
1/2+x,1/2+y,z
1/2-x,1/2-y,1/2+z
1/2+x,1/2-y,-z
1/2-x,1/2+y,1/2-z
loop_
_atom_site_type_symbol
_atom_site_label
_atom_site_fract_x
_atom_site_fract_y
_atom_site_fract_z
Si Si1 0.135500 0.754092 0.948738
Si Si2 0.468090 0.674233 0.670826
Si Si3 0.339209 0.173573 0.146575
Si Si4 0.953731 0.494082 0.917830
Si Si5 0.797526 0.606850 0.441854
Si Si6 0.766703 0.787316 0.803250
Si Si7 0.516213 0.837766 0.331177
Si Si8 0.471644 0.595135 0.985390
O O1 0.266156 0.795426 0.926440
O O2 0.099354 0.698854 0.876609
O O3 0.138315 0.687495 0.016462
O O4 0.040045 0.829933 0.968303
O O5 0.500000 0.632657 0.750000
O O6 0.550931 0.759973 0.662709
O O7 0.329496 0.710396 0.677256
O O8 0.502745 0.617911 0.600156
O O9 0.392345 0.080192 0.130491
O O10 0.255994 0.179575 0.220352
O O11 0.099012 0.466338 0.928433
O O12 0.934723 0.585998 0.881597
O O13 0.900280 0.500000 0.000000
O O14 0.755165 0.637614 0.361479
O O15 0.673322 0.592491 0.490467
O O16 0.897548 0.743847 0.817211
O O17 0.500000 0.876161 0.250000
O O18 0.522406 0.500000 0.000000
#
# Coordination Sequence:
#
# PCOD9320199 Si02
#       8
#     8   8   8   8   8   8   8   8
#     4  12  24  44  69  95 138 186 228 283 351 426
#     4  10  22  43  70  99 135 184 234 280 352 424
#     4  11  24  43  71 102 140 182 235 291 347 422
#     4  12  27  43  70 108 141 179 235 300 350 416
#     4  12  24  44  70  99 140 181 236 282 352 423
#     4  11  23  43  73  97 133 189 236 280 352 424
#     4  12  27  46  68 102 143 185 236 294 359 425
#     4  12  26  43  69 103 139 182 234 297 352 418
#
# _framework density 21.019798000000002
#
# number of rings (size 3 to 8) (size 9 to 14) (size 15 to 20)
#    0.000    0.500    7.500    0.375    3.500    1.500 
#    0.000    1.875    0.000    0.000    0.000    0.000 
#    0.000    0.000    0.000    0.000    0.000    0.000 
#
# Total GULP energy -178780.336778 kJ/mol
# GULP energy per Si atom -5586.885524 kJ/mol
# Density = 2.097196 g / cm^3
# Si number density = 21.019798 Si / 1000 Ang^3
#
#
#
# Elastic Constant Matrix: (Units=GPa)
#
#
# Indices 1 2 3 4 5 6 
#
# 1 30.3142 -10.5453 -10.3986 0.0000 0.0000 0.0000
# 2 -10.5453 73.2875 32.4358 0.0000 0.0000 0.0000
# 3 -10.3986 32.4358 129.1463 0.0000 0.0000 0.0000
# 4 0.0000 0.0000 0.0000 26.1499 0.0000 0.0000
# 5 0.0000 0.0000 0.0000 0.0000 22.2736 0.0000
# 6 0.0000 0.0000 0.0000 0.0000 0.0000 -10.2031
#
#
#
# Elastic Compliance Matrix: (Units=1/GPa)
#
#
# Indices 1 2 3 4 5 6 
#
# 1 0.035075 0.004272 0.001751 0.000000 0.000000 0.000000
# 2 0.004272 0.015872 -0.003642 0.000000 0.000000 0.000000
# 3 0.001751 -0.003642 0.008799 0.000000 0.000000 0.000000
# 4 0.000000 0.000000 0.000000 0.038241 0.000000 0.000000
# 5 0.000000 0.000000 0.000000 0.000000 0.044896 0.000000
# 6 0.000000 0.000000 0.000000 0.000000 0.000000 -0.098009
#
#
# Mechanical properties :
#
#
# Convention : Reuss Voigt Hill
#
# Bulk Modulus (GPa) = 15.50228 28.41462 21.95845
# Shear Modulus (GPa) = 81.15038 22.39447 51.77243
#
# Velocity S-wave (km/s) = 6.22016 3.26759 4.96828
# Velocity P-wave (km/s) = 7.67974 5.27101 6.58642
#
# Compressibility (1/GPa) = 0.06450664
#
# Stress axis : x y z
#
# Youngs Moduli (GPa) = 28.51070 63.00574 113.65006
#
# Poissons Ratio (x) = -0.26915 -0.19903
# Poissons Ratio (y) = -0.12179 0.41394
# Poissons Ratio (z) = -0.04993 0.22948
#
# Static dielectric constant tensor:
#      x y z
#    x 1.773110 0.000000 0.000000 
#    y 0.000000 1.720580 0.000000 
#    z 0.000000 0.000000 1.828210 
# 
# From -- ./inp_files/24464.got.cif
#   From: 2010.05.17/outbox.cif.g08.bks.cpg/sg20_13_cif.got.tgz:24464.got - 2010.06.03 22:52:26.
