data_PCOD9320555
_publ_section_title
;
Structure prediction by ZEFSAII (Michael W. Deem and Ramdas Pophale) SiO2 
 PCOD9320555
Probable space group: C 2 2 21
;
_chemical_formula_sum "Si O2"
_cell_formula_units_Z 60
_cell_length_a 15.599050
_cell_length_b 8.935526
_cell_length_c 18.720245
_cell_angle_alpha 90.000000
_cell_angle_beta 90.000000
_cell_angle_gamma 90.000000
_cell_volume 2609.334769
_symmetry_space_group_name_H-M "C 2 2 21"
_symmetry_group_IT_number 20
_symmetry_cell_setting 'orthorhombic'
loop_
_space_group_symop_operation_xyz
x,y,z
-x,-y,1/2+z
x,-y,-z
-x,y,1/2-z
1/2+x,1/2+y,z
1/2-x,1/2-y,1/2+z
1/2+x,1/2-y,-z
1/2-x,1/2+y,1/2-z
loop_
_atom_site_type_symbol
_atom_site_label
_atom_site_fract_x
_atom_site_fract_y
_atom_site_fract_z
Si Si1 0.922952 0.759197 0.104574
Si Si2 0.820788 0.595991 0.694331
Si Si3 0.990470 0.000000 0.000000
Si Si4 0.439941 0.989212 0.586259
Si Si5 0.119969 0.985583 0.280688
Si Si6 0.415101 0.186713 0.837535
Si Si7 0.209618 0.504405 0.582816
Si Si8 0.384824 0.586475 0.370618
O O1 0.917160 0.846437 0.177815
O O2 0.843843 0.643981 0.103166
O O3 0.006843 0.659483 0.098840
O O4 0.931819 0.878166 0.040321
O O5 0.853843 0.486023 0.632361
O O6 0.724278 0.547892 0.717267
O O7 0.883155 0.603040 0.764407
O O8 0.838835 0.757450 0.655455
O O9 0.051026 0.923360 0.938299
O O10 0.498645 0.119356 0.626098
O O11 0.430280 0.000000 0.500000
O O12 0.093793 0.139050 0.321113
O O13 0.083010 0.013851 0.202314
O O14 0.343943 0.145971 0.894266
O O15 0.215293 0.500000 0.500000
O O16 0.304063 0.514124 0.610794
#
# Coordination Sequence:
#
# PCOD9320555 Si02
#       8
#     8   8   4   8   8   8   8   8
#     4  11  26  46  71 105 144 180 236 295 340 428
#     4  11  23  46  72 102 139 182 236 290 346 421
#     4  12  28  48  70 104 144 186 234 294 354 414
#     4  11  25  48  69 103 143 191 231 285 358 420
#     4  11  25  45  74 105 137 182 239 290 346 415
#     4  10  23  42  73  98 140 183 230 282 352 415
#     4  11  22  44  73 102 140 188 228 286 355 418
#     4  11  24  46  71 102 142 185 234 290 356 418
#
# _framework density 22.994365999999999
#
# number of rings (size 3 to 8) (size 9 to 14) (size 15 to 20)
#    0.000    1.067    3.333    2.800    5.600    1.600 
#   13.200    0.000    0.000    0.000    0.000    0.000 
#    0.000    0.000    0.000    0.000    0.000    0.000 
#
# Total GULP energy -167515.681275 kJ/mol
# GULP energy per Si atom -5583.856042 kJ/mol
# Density = 2.294203 g / cm^3
# Si number density = 22.994366 Si / 1000 Ang^3
#
#
#
# Elastic Constant Matrix: (Units=GPa)
#
#
# Indices 1 2 3 4 5 6 
#
# 1 82.3999 0.1663 22.6452 0.0000 0.0000 0.0000
# 2 0.1663 74.1065 30.7574 0.0000 0.0000 0.0000
# 3 22.6452 30.7574 145.9127 0.0000 0.0000 0.0000
# 4 0.0000 0.0000 0.0000 41.3205 0.0000 0.0000
# 5 0.0000 0.0000 0.0000 0.0000 44.2580 0.0000
# 6 0.0000 0.0000 0.0000 0.0000 0.0000 -0.4777
#
#
#
# Elastic Compliance Matrix: (Units=1/GPa)
#
#
# Indices 1 2 3 4 5 6 
#
# 1 0.012727 0.000867 -0.002158 0.000000 0.000000 0.000000
# 2 0.000867 0.014847 -0.003264 0.000000 0.000000 0.000000
# 3 -0.002158 -0.003264 0.007876 0.000000 0.000000 0.000000
# 4 0.000000 0.000000 0.000000 0.024201 0.000000 0.000000
# 5 0.000000 0.000000 0.000000 0.000000 0.022595 0.000000
# 6 0.000000 0.000000 0.000000 0.000000 0.000000 -2.093581
#
#
# Mechanical properties :
#
#
# Convention : Reuss Voigt Hill
#
# Bulk Modulus (GPa) = 37.96454 45.50632 41.73543
# Shear Modulus (GPa) = -2.50822 33.61018 15.55098
#
# Velocity S-wave (km/s) = -1.04555 3.82733 2.60339
# Velocity P-wave (km/s) = 3.88441 6.27411 5.21791
#
# Compressibility (1/GPa) = 0.02634037
#
# Stress axis : x y z
#
# Youngs Moduli (GPa) = 78.57155 67.35394 126.96147
#
# Poissons Ratio (x) = -0.05840 0.27398
# Poissons Ratio (y) = -0.06813 0.41443
# Poissons Ratio (z) = 0.16956 0.21986
#
# Static dielectric constant tensor:
#      x y z
#    x 1.867800 0.000000 0.000000 
#    y 0.000000 1.875320 0.000000 
#    z 0.000000 0.000000 1.849260 
# 
# From -- ./inp_files/25275.got.cif
#   From: 2010.05.17/outbox.cif.g08.bks.cpg/sg20_13_cif.got.tgz:25275.got - 2010.06.03 22:52:26.
