data_PCOD9320389
_publ_section_title
;
Structure prediction by ZEFSAII (Michael W. Deem and Ramdas Pophale) SiO2 
 PCOD9320389
Probable space group: C 2 2 21
;
_chemical_formula_sum "Si O2"
_cell_formula_units_Z 60
_cell_length_a 7.906332
_cell_length_b 26.797048
_cell_length_c 12.776880
_cell_angle_alpha 90.000000
_cell_angle_beta 90.000000
_cell_angle_gamma 90.000000
_cell_volume 2706.991034
_symmetry_space_group_name_H-M "C 2 2 21"
_symmetry_group_IT_number 20
_symmetry_cell_setting 'orthorhombic'
loop_
_space_group_symop_operation_xyz
x,y,z
-x,-y,1/2+z
x,-y,-z
-x,y,1/2-z
1/2+x,1/2+y,z
1/2-x,1/2-y,1/2+z
1/2+x,1/2-y,-z
1/2-x,1/2+y,1/2-z
loop_
_atom_site_type_symbol
_atom_site_label
_atom_site_fract_x
_atom_site_fract_y
_atom_site_fract_z
Si Si1 0.500000 0.260887 0.250000
Si Si2 0.136413 0.027086 0.091354
Si Si3 0.691524 0.002787 0.789516
Si Si4 0.262531 0.900674 0.424401
Si Si5 0.147757 0.606699 0.514122
Si Si6 0.669035 0.836812 0.696562
Si Si7 0.857829 0.098944 0.145609
Si Si8 0.298917 0.834607 0.224254
O O1 0.386336 0.220923 0.184697
O O2 0.652095 0.293851 0.201773
O O3 0.197034 0.992228 0.184523
O O4 0.284375 0.053479 0.025085
O O5 0.037262 0.070994 0.149049
O O6 0.032703 0.000000 0.000000
O O7 0.500000 0.008897 0.750000
O O8 0.727794 0.947121 0.832009
O O9 0.740774 0.044512 0.872977
O O10 0.447878 0.894911 0.473551
O O11 0.146049 0.888316 0.522361
O O12 0.240949 0.862718 0.329166
O O13 0.197365 0.642652 0.418593
O O14 0.204956 0.627529 0.626243
O O15 0.500000 0.860048 0.750000
O O16 0.810004 0.854337 0.780700
O O17 0.500000 0.820301 0.250000
#
# Coordination Sequence:
#
# PCOD9320389 Si02
#       8
#     4   8   8   8   8   8   8   8
#     4  10  24  50  72 102 138 182 234 296 374 416
#     4  12  25  39  61 103 143 183 236 281 343 420
#     4  12  23  39  63  95 138 185 231 277 340 417
#     4  11  22  42  69  97 137 181 231 283 347 421
#     4  11  22  45  70  96 137 182 234 286 348 425
#     4  10  22  48  70  95 133 178 232 288 345 426
#     4  12  24  42  63  96 138 181 226 288 340 414
#     4  10  24  46  71 107 138 177 235 294 358 430
#
# _framework density 22.164831
#
# number of rings (size 3 to 8) (size 9 to 14) (size 15 to 20)
#    0.400    0.533    2.667    5.600    1.867    0.000 
#   12.000    0.000    0.000    0.000    0.000    0.000 
#    0.000    0.000    0.000    0.000    0.000    0.000 
#
# Total GULP energy -167275.414837 kJ/mol
# GULP energy per Si atom -5575.847161 kJ/mol
# Density = 2.211438 g / cm^3
# Si number density = 22.164831 Si / 1000 Ang^3
#
#
#
# Elastic Constant Matrix: (Units=GPa)
#
#
# Indices 1 2 3 4 5 6 
#
# 1 60.1155 17.3104 18.3731 0.0000 0.0000 0.0000
# 2 17.3104 75.3988 16.5647 0.0000 0.0000 0.0000
# 3 18.3731 16.5647 139.9734 0.0000 0.0000 0.0000
# 4 0.0000 0.0000 0.0000 20.9695 0.0000 0.0000
# 5 0.0000 0.0000 0.0000 0.0000 29.0873 0.0000
# 6 0.0000 0.0000 0.0000 0.0000 0.0000 -116.4917
#
#
#
# Elastic Compliance Matrix: (Units=1/GPa)
#
#
# Indices 1 2 3 4 5 6 
#
# 1 0.018320 -0.003776 -0.001958 0.000000 0.000000 0.000000
# 2 -0.003776 0.014395 -0.001208 0.000000 0.000000 0.000000
# 3 -0.001958 -0.001208 0.007544 0.000000 0.000000 0.000000
# 4 0.000000 0.000000 0.000000 0.047688 0.000000 0.000000
# 5 0.000000 0.000000 0.000000 0.000000 0.034379 0.000000
# 6 0.000000 0.000000 0.000000 0.000000 0.000000 -0.008584
#
#
# Mechanical properties :
#
#
# Convention : Reuss Voigt Hill
#
# Bulk Modulus (GPa) = 37.91314 42.22048 40.06681
# Shear Modulus (GPa) = 36.65197 1.59566 19.12381
#
# Velocity S-wave (km/s) = 4.07087 0.84939 2.94053
# Velocity P-wave (km/s) = 6.26404 4.47791 5.44472
#
# Compressibility (1/GPa) = 0.02637608
#
# Stress axis : x y z
#
# Youngs Moduli (GPa) = 54.58422 69.46822 132.55289
#
# Poissons Ratio (x) = 0.26231 0.25953
# Poissons Ratio (y) = 0.20611 0.16011
# Poissons Ratio (z) = 0.10687 0.08391
#
# Static dielectric constant tensor:
#      x y z
#    x 1.912050 0.000000 0.000000 
#    y 0.000000 1.869620 0.000000 
#    z 0.000000 0.000000 2.105030 
# 
# From -- ./inp_files/13362.got.cif
#   From: 2010.05.17/outbox.cif.g08.bks.cpg/sg20_7_cif.got.tgz:13362.got - 2010.06.03 22:52:26.
