data_PCOD9320714
_publ_section_title
;
Structure prediction by ZEFSAII (Michael W. Deem and Ramdas Pophale) SiO2 
 PCOD9320714
Probable space group: C 2 2 21
;
_chemical_formula_sum "Si O2"
_cell_formula_units_Z 48
_cell_length_a 5.135317
_cell_length_b 25.299673
_cell_length_c 15.787632
_cell_angle_alpha 90.000000
_cell_angle_beta 90.000000
_cell_angle_gamma 90.000000
_cell_volume 2051.158212
_symmetry_space_group_name_H-M "C 2 2 21"
_symmetry_group_IT_number 20
_symmetry_cell_setting 'orthorhombic'
loop_
_space_group_symop_operation_xyz
x,y,z
-x,-y,1/2+z
x,-y,-z
-x,y,1/2-z
1/2+x,1/2+y,z
1/2-x,1/2-y,1/2+z
1/2+x,1/2-y,-z
1/2-x,1/2+y,1/2-z
loop_
_atom_site_type_symbol
_atom_site_label
_atom_site_fract_x
_atom_site_fract_y
_atom_site_fract_z
Si Si1 0.075539 0.864206 0.139961
Si Si2 0.500000 0.026759 0.250000
Si Si3 0.500000 0.457413 0.250000
Si Si4 0.754296 0.117810 0.140676
Si Si5 0.768417 0.760952 0.106093
Si Si6 0.243031 0.348846 0.535419
Si Si7 0.000000 0.691759 0.750000
Si Si8 0.500000 0.194313 0.250000
O O1 0.255186 0.843249 0.218714
O O2 0.947725 0.918475 0.170416
O O3 0.880043 0.820092 0.100461
O O4 0.257204 0.871770 0.058521
O O5 0.638151 0.063002 0.177515
O O6 0.746032 0.990814 0.275455
O O7 0.533389 0.138692 0.076821
O O8 0.731295 0.155634 0.222908
O O9 0.029018 0.124897 0.093145
O O10 0.721003 0.716045 0.036068
O O11 0.526511 0.771226 0.167861
O O12 0.956327 0.731381 0.171082
#
# Coordination Sequence:
#
# PCOD9320714 Si02
#       8
#     8   4   4   8   8   8   4   4
#     4  12  27  42  63 104 147 192 238 292 343 443
#     4  11  25  48  85  98 129 176 240 304 370 426
#     4  12  25  48  72 104 131 187 235 294 360 432
#     4  10  23  46  68 104 131 172 237 302 360 426
#     4  11  22  38  63  96 138 189 231 271 338 415
#     4  11  27  41  70 101 149 183 225 294 364 415
#     4  12  21  40  64  88 144 192 248 281 322 412
#     4   9  17  38  63  96 130 179 227 291 332 412
#
# _framework density 23.401411
#
# number of rings (size 3 to 8) (size 9 to 14) (size 15 to 20)
#    0.000    1.000    3.333    2.500    7.000    4.667 
#    0.000    5.000    0.000    0.000    0.000    0.000 
#    0.000    0.000    0.000    0.000    0.000    0.000 
#
# Total GULP energy -133813.444935 kJ/mol
# GULP energy per Si atom -5575.560206 kJ/mol
# Density = 2.334815 g / cm^3
# Si number density = 23.401411 Si / 1000 Ang^3
#
#
#
# Elastic Constant Matrix: (Units=GPa)
#
#
# Indices 1 2 3 4 5 6 
#
# 1 114.9361 25.7349 15.5561 0.0000 0.0000 0.0000
# 2 25.7349 107.0649 18.2599 0.0000 0.0000 0.0000
# 3 15.5561 18.2599 61.1077 0.0000 0.0000 0.0000
# 4 0.0000 0.0000 0.0000 19.9364 0.0000 0.0000
# 5 0.0000 0.0000 0.0000 0.0000 34.8112 0.0000
# 6 0.0000 0.0000 0.0000 0.0000 0.0000 -119.5622
#
#
#
# Elastic Compliance Matrix: (Units=1/GPa)
#
#
# Indices 1 2 3 4 5 6 
#
# 1 0.009381 -0.001947 -0.001806 0.000000 0.000000 0.000000
# 2 -0.001947 0.010246 -0.002566 0.000000 0.000000 0.000000
# 3 -0.001806 -0.002566 0.017591 0.000000 0.000000 0.000000
# 4 0.000000 0.000000 0.000000 0.050160 0.000000 0.000000
# 5 0.000000 0.000000 0.000000 0.000000 0.028726 0.000000
# 6 0.000000 0.000000 0.000000 0.000000 0.000000 -0.008364
#
#
# Mechanical properties :
#
#
# Convention : Reuss Voigt Hill
#
# Bulk Modulus (GPa) = 40.68432 44.69006 42.68719
# Shear Modulus (GPa) = 38.88896 1.94093 20.41494
#
# Velocity S-wave (km/s) = 4.08097 0.91171 2.95681
# Velocity P-wave (km/s) = 6.29515 4.49966 5.47155
#
# Compressibility (1/GPa) = 0.02457949
#
# Stress axis : x y z
#
# Youngs Moduli (GPa) = 106.59995 97.60189 56.84676
#
# Poissons Ratio (x) = 0.19001 0.10268
# Poissons Ratio (y) = 0.20753 0.14587
# Poissons Ratio (z) = 0.19256 0.25045
#
# Static dielectric constant tensor:
#      x y z
#    x 0.640250 0.000000 0.000000 
#    y 0.000000 1.964690 0.000000 
#    z 0.000000 0.000000 1.953070 
# 
# From -- ./inp_files/22851.got.cif
#   From: 2010.05.17/outbox.cif.g08.bks.cpg/sg20_12_cif.got.tgz:22851.got - 2010.06.03 22:52:26.
