data_PCOD9320777
_publ_section_title
;
Structure prediction by ZEFSAII (Michael W. Deem and Ramdas Pophale) SiO2 
 PCOD9320777
Probable space group: C 2 2 21
;
_chemical_formula_sum "Si O2"
_cell_formula_units_Z 36
_cell_length_a 26.932736
_cell_length_b 11.348135
_cell_length_c 5.941996
_cell_angle_alpha 90.000000
_cell_angle_beta 90.000000
_cell_angle_gamma 90.000000
_cell_volume 1816.089815
_symmetry_space_group_name_H-M "C 2 2 21"
_symmetry_group_IT_number 20
_symmetry_cell_setting 'orthorhombic'
loop_
_space_group_symop_operation_xyz
x,y,z
-x,-y,1/2+z
x,-y,-z
-x,y,1/2-z
1/2+x,1/2+y,z
1/2-x,1/2-y,1/2+z
1/2+x,1/2-y,-z
1/2-x,1/2+y,1/2-z
loop_
_atom_site_type_symbol
_atom_site_label
_atom_site_fract_x
_atom_site_fract_y
_atom_site_fract_z
Si Si1 0.297818 0.362423 0.009209
Si Si2 0.559382 0.551195 0.249308
Si Si3 0.813451 0.330584 0.642027
Si Si4 0.620731 0.779582 0.244669
Si Si5 0.146826 0.500000 0.500000
O O1 0.312889 0.295521 0.235604
O O2 0.308370 0.500000 0.000000
O O3 0.239173 0.343968 0.978583
O O4 0.330509 0.294610 0.823458
O O5 0.575772 0.500000 0.500000
O O6 0.500000 0.538828 0.250000
O O7 0.576807 0.686709 0.246109
O O8 0.576542 0.500000 0.000000
O O9 0.862353 0.332437 0.491539
O O10 0.818167 0.438497 0.815494
O O11 0.615198 0.891494 0.405934
#
# Coordination Sequence:
#
# PCOD9320777 Si02
#       5
#     8   8   8   8   4
#     4  11  23  35  56  87 126 163 221 259 325 382
#     4  10  24  46  73 104 135 168 216 285 346 392
#     4  11  23  39  55  89 124 175 209 278 315 392
#     4  11  23  39  65  89 126 171 216 264 332 399
#     4  10  24  40  60  84 132 168 222 254 342 384
#
# _framework density 19.822807999999998
#
# number of rings (size 3 to 8) (size 9 to 14) (size 15 to 20)
#    0.000    1.333    2.222    2.667   12.444    0.000 
#    0.000    0.000    4.889    0.000    0.000    0.000 
#    0.000    0.000    0.000    0.000    0.000    0.000 
#
# Total GULP energy -100369.806301 kJ/mol
# GULP energy per Si atom -5576.100350 kJ/mol
# Density = 1.977769 g / cm^3
# Si number density = 19.822808 Si / 1000 Ang^3
#
#
#
# Elastic Constant Matrix: (Units=GPa)
#
#
# Indices 1 2 3 4 5 6 
#
# 1 12.1409 4.7388 13.2288 0.0000 0.0000 0.0000
# 2 4.7388 146.6549 40.6852 0.0000 0.0000 0.0000
# 3 13.2288 40.6852 97.0907 0.0000 0.0000 0.0000
# 4 0.0000 0.0000 0.0000 34.3357 0.0000 0.0000
# 5 0.0000 0.0000 0.0000 0.0000 10.6115 0.0000
# 6 0.0000 0.0000 0.0000 0.0000 0.0000 30.6042
#
#
#
# Elastic Compliance Matrix: (Units=1/GPa)
#
#
# Indices 1 2 3 4 5 6 
#
# 1 0.096773 0.000601 -0.013437 0.000000 0.000000 0.000000
# 2 0.000601 0.007719 -0.003317 0.000000 0.000000 0.000000
# 3 -0.013437 -0.003317 0.013520 0.000000 0.000000 0.000000
# 4 0.000000 0.000000 0.000000 0.029124 0.000000 0.000000
# 5 0.000000 0.000000 0.000000 0.000000 0.094237 0.000000
# 6 0.000000 0.000000 0.000000 0.000000 0.000000 0.032675
#
#
# Mechanical properties :
#
#
# Convention : Reuss Voigt Hill
#
# Bulk Modulus (GPa) = 11.66768 41.46576 26.56672
# Shear Modulus (GPa) = 14.92871 28.25919 21.59395
#
# Velocity S-wave (km/s) = 2.74726 3.77979 3.30411
# Velocity P-wave (km/s) = 3.99525 6.32556 5.29031
#
# Compressibility (1/GPa) = 0.08570684
#
# Stress axis : x y z
#
# Youngs Moduli (GPa) = 10.33343 129.54344 73.96276
#
# Poissons Ratio (x) = -0.07783 0.99386
# Poissons Ratio (y) = -0.00621 0.24531
# Poissons Ratio (z) = 0.13885 0.42965
#
# Static dielectric constant tensor:
#      x y z
#    x 1.658740 0.000000 0.000000 
#    y 0.000000 1.684640 0.000000 
#    z 0.000000 0.000000 1.871050 
# 
# From -- ./inp_files/4561.got.cif
#   From: 2010.05.17/outbox.cif.g08.bks.cpg/sg20_3_cif.got.tgz:4561.got - 2010.06.03 22:52:26.
