data_PCOD9320745
_publ_section_title
;
Structure prediction by ZEFSAII (Michael W. Deem and Ramdas Pophale) SiO2 
 PCOD9320745
Probable space group: C 2 2 21
;
_chemical_formula_sum "Si O2"
_cell_formula_units_Z 48
_cell_length_a 7.947229
_cell_length_b 11.602567
_cell_length_c 21.261272
_cell_angle_alpha 90.000000
_cell_angle_beta 90.000000
_cell_angle_gamma 90.000000
_cell_volume 1960.464831
_symmetry_space_group_name_H-M "C 2 2 21"
_symmetry_group_IT_number 20
_symmetry_cell_setting 'orthorhombic'
loop_
_space_group_symop_operation_xyz
x,y,z
-x,-y,1/2+z
x,-y,-z
-x,y,1/2-z
1/2+x,1/2+y,z
1/2-x,1/2-y,1/2+z
1/2+x,1/2-y,-z
1/2-x,1/2+y,1/2-z
loop_
_atom_site_type_symbol
_atom_site_label
_atom_site_fract_x
_atom_site_fract_y
_atom_site_fract_z
Si Si1 0.309400 0.998440 0.870744
Si Si2 0.194068 0.436946 0.130541
Si Si3 0.718699 0.251084 0.131910
Si Si4 0.358602 0.774645 0.923982
Si Si5 0.385021 0.399359 0.961716
Si Si6 0.302704 0.603529 0.240333
O O1 0.281121 0.901981 0.923917
O O2 0.279037 0.931546 0.805867
O O3 0.495293 0.051206 0.868732
O O4 0.200007 0.112483 0.875735
O O5 0.261780 0.308382 0.124133
O O6 0.255212 0.508107 0.069129
O O7 0.269650 0.499169 0.191477
O O8 0.549677 0.206027 0.098429
O O9 0.881643 0.187445 0.100040
O O10 0.724231 0.212961 0.204343
O O11 0.353761 0.702724 0.988023
O O12 0.489850 0.500000 0.000000
O O13 0.500000 0.621367 0.250000
#
# Coordination Sequence:
#
# PCOD9320745 Si02
#       6
#     8   8   8   8   8   8
#     4  12  26  45  74 108 139 196 242 305 374 438
#     4  10  23  48  72 103 147 185 246 304 366 444
#     4  11  26  48  71 112 146 195 254 298 375 445
#     4  11  24  47  73 104 148 194 235 311 360 435
#     4   9  21  46  72 101 145 192 235 304 356 427
#     4  11  25  46  72 104 149 194 244 310 366 443
#
# _framework density 24.483989000000001
#
# number of rings (size 3 to 8) (size 9 to 14) (size 15 to 20)
#    0.000    1.333    3.333    1.500    4.667    3.333 
#   12.000    0.000    0.000    0.000    0.000    0.000 
#    0.000    0.000    0.000    0.000    0.000    0.000 
#
# Total GULP energy -133839.830311 kJ/mol
# GULP energy per Si atom -5576.659596 kJ/mol
# Density = 2.442826 g / cm^3
# Si number density = 24.483989 Si / 1000 Ang^3
#
#
#
# Elastic Constant Matrix: (Units=GPa)
#
#
# Indices 1 2 3 4 5 6 
#
# 1 61.5193 4.4490 10.4470 0.0000 0.0000 0.0000
# 2 4.4490 179.6076 11.1211 0.0000 0.0000 0.0000
# 3 10.4470 11.1211 59.5318 0.0000 0.0000 0.0000
# 4 0.0000 0.0000 0.0000 30.7273 0.0000 0.0000
# 5 0.0000 0.0000 0.0000 0.0000 15.7048 0.0000
# 6 0.0000 0.0000 0.0000 0.0000 0.0000 26.9424
#
#
#
# Elastic Compliance Matrix: (Units=1/GPa)
#
#
# Indices 1 2 3 4 5 6 
#
# 1 0.016764 -0.000236 -0.002898 0.000000 0.000000 0.000000
# 2 -0.000236 0.005636 -0.001012 0.000000 0.000000 0.000000
# 3 -0.002898 -0.001012 0.017495 0.000000 0.000000 0.000000
# 4 0.000000 0.000000 0.000000 0.032544 0.000000 0.000000
# 5 0.000000 0.000000 0.000000 0.000000 0.063675 0.000000
# 6 0.000000 0.000000 0.000000 0.000000 0.000000 0.037116
#
#
# Mechanical properties :
#
#
# Convention : Reuss Voigt Hill
#
# Bulk Modulus (GPa) = 31.64027 39.18810 35.41419
# Shear Modulus (GPa) = 26.03402 32.98435 29.50918
#
# Velocity S-wave (km/s) = 3.26438 3.67438 3.47543
# Velocity P-wave (km/s) = 5.21144 5.83453 5.53177
#
# Compressibility (1/GPa) = 0.03160529
#
# Stress axis : x y z
#
# Youngs Moduli (GPa) = 59.65088 177.42563 57.15841
#
# Poissons Ratio (x) = 0.04184 0.16564
# Poissons Ratio (y) = 0.01407 0.05782
# Poissons Ratio (z) = 0.17286 0.17947
#
# Static dielectric constant tensor:
#      x y z
#    x 2.020070 0.000000 0.000000 
#    y 0.000000 2.222650 0.000000 
#    z 0.000000 0.000000 1.976250 
# 
# From -- ./inp_files/28735.got.cif
#   From: 2010.05.17/outbox.cif.g08.bks.cpg/sg20_15_cif.got.tgz:28735.got - 2010.06.03 22:52:26.
