data_PCOD9320970
_publ_section_title
;
Structure prediction by ZEFSAII (Michael W. Deem and Ramdas Pophale) SiO2 
 PCOD9320970
Probable space group: C 2 2 21
;
_chemical_formula_sum "Si O2"
_cell_formula_units_Z 32
_cell_length_a 15.338666
_cell_length_b 10.907527
_cell_length_c 7.210943
_cell_angle_alpha 90.000000
_cell_angle_beta 90.000000
_cell_angle_gamma 90.000000
_cell_volume 1206.440617
_symmetry_space_group_name_H-M "C 2 2 21"
_symmetry_group_IT_number 20
_symmetry_cell_setting 'orthorhombic'
loop_
_space_group_symop_operation_xyz
x,y,z
-x,-y,1/2+z
x,-y,-z
-x,y,1/2-z
1/2+x,1/2+y,z
1/2-x,1/2-y,1/2+z
1/2+x,1/2-y,-z
1/2-x,1/2+y,1/2-z
loop_
_atom_site_type_symbol
_atom_site_label
_atom_site_fract_x
_atom_site_fract_y
_atom_site_fract_z
Si Si1 0.000000 0.419702 0.250000
Si Si2 0.850626 0.000000 0.500000
Si Si3 0.900882 0.757402 0.010183
Si Si4 0.643940 0.000000 0.000000
Si Si5 0.276598 0.757556 0.633199
Si Si6 0.000000 0.953315 0.250000
O O1 0.918029 0.494923 0.321312
O O2 0.032052 0.339608 0.424622
O O3 0.797723 0.878382 0.446007
O O4 0.917148 0.023083 0.330037
O O5 0.838163 0.729349 0.186529
O O6 0.960161 0.867255 0.087858
O O7 0.827302 0.770754 0.851599
O O8 0.698392 0.875572 0.991398
#
# Coordination Sequence:
#
# PCOD9320970 Si02
#       6
#     4   4   8   4   8   4
#     4  12  24  46  76 106 148 194 240 306 364 434
#     4  10  24  46  70 102 146 192 244 298 358 432
#     4  11  25  48  75 107 147 192 243 299 363 432
#     4  12  26  44  72 110 146 190 244 298 364 430
#     4  11  26  46  71 106 145 191 244 297 360 431
#     4  10  24  46  74 112 148 194 246 296 364 434
#
# _framework density 26.524308999999999
#
# number of rings (size 3 to 8) (size 9 to 14) (size 15 to 20)
#    0.000    1.000    0.000    6.000    0.000   15.000 
#    0.000    0.000    0.000    0.000    0.000    0.000 
#    0.000    0.000    0.000    0.000    0.000    0.000 
#
# Total GULP energy -89594.950084 kJ/mol
# GULP energy per Si atom -5599.684380 kJ/mol
# Density = 2.646394 g / cm^3
# Si number density = 26.524309 Si / 1000 Ang^3
#
#
#
# Elastic Constant Matrix: (Units=GPa)
#
#
# Indices 1 2 3 4 5 6 
#
# 1 126.8292 88.6032 7.9329 0.0000 0.0000 0.0000
# 2 88.6032 164.3120 63.3815 0.0000 0.0000 0.0000
# 3 7.9329 63.3815 79.0729 0.0000 0.0000 0.0000
# 4 0.0000 0.0000 0.0000 51.3126 0.0000 0.0000
# 5 0.0000 0.0000 0.0000 0.0000 59.2415 0.0000
# 6 0.0000 0.0000 0.0000 0.0000 0.0000 38.9253
#
#
#
# Elastic Compliance Matrix: (Units=1/GPa)
#
#
# Indices 1 2 3 4 5 6 
#
# 1 0.015051 -0.010905 0.007231 0.000000 0.000000 0.000000
# 2 -0.010905 0.016712 -0.012301 0.000000 0.000000 0.000000
# 3 0.007231 -0.012301 0.021781 0.000000 0.000000 0.000000
# 4 0.000000 0.000000 0.000000 0.019488 0.000000 0.000000
# 5 0.000000 0.000000 0.000000 0.000000 0.016880 0.000000
# 6 0.000000 0.000000 0.000000 0.000000 0.000000 0.025690
#
#
# Mechanical properties :
#
#
# Convention : Reuss Voigt Hill
#
# Bulk Modulus (GPa) = 46.31110 76.67217 61.49163
# Shear Modulus (GPa) = 32.30998 43.91564 38.11281
#
# Velocity S-wave (km/s) = 3.49395 4.07341 3.79476
# Velocity P-wave (km/s) = 5.81160 7.14792 6.51412
#
# Compressibility (1/GPa) = 0.02159310
#
# Stress axis : x y z
#
# Youngs Moduli (GPa) = 66.44139 59.83837 45.91098
#
# Poissons Ratio (x) = 0.65256 -0.33200
# Poissons Ratio (y) = 0.72457 0.56477
# Poissons Ratio (z) = -0.48046 0.73609
#
# Static dielectric constant tensor:
#      x y z
#    x 1.940580 0.000000 0.000000 
#    y 0.000000 2.005460 0.000000 
#    z 0.000000 0.000000 2.202650 
# 
# From -- ./inp_files/6861.got.cif
#   From: 2010.05.17/outbox.cif.g08.bks.cpg/sg20_4_cif.got.tgz:6861.got - 2010.06.03 22:52:26.
