data_PCOD9320510
_publ_section_title
;
Structure prediction by ZEFSAII (Michael W. Deem and Ramdas Pophale) SiO2 
 PCOD9320510
Probable space group: C 2 2 21
;
_chemical_formula_sum "Si O2"
_cell_formula_units_Z 24
_cell_length_a 9.320590
_cell_length_b 12.623951
_cell_length_c 9.147449
_cell_angle_alpha 90.000000
_cell_angle_beta 90.000000
_cell_angle_gamma 90.000000
_cell_volume 1076.313286
_symmetry_space_group_name_H-M "C 2 2 21"
_symmetry_group_IT_number 20
_symmetry_cell_setting 'orthorhombic'
loop_
_space_group_symop_operation_xyz
x,y,z
-x,-y,1/2+z
x,-y,-z
-x,y,1/2-z
1/2+x,1/2+y,z
1/2-x,1/2-y,1/2+z
1/2+x,1/2-y,-z
1/2-x,1/2+y,1/2-z
loop_
_atom_site_type_symbol
_atom_site_label
_atom_site_fract_x
_atom_site_fract_y
_atom_site_fract_z
Si Si1 0.402763 0.914408 0.885909
Si Si2 0.834278 0.223447 0.223339
Si Si3 0.812700 0.376514 0.461361
O O1 0.500000 0.957420 0.750000
O O2 0.273364 0.851518 0.815005
O O3 0.525834 0.854356 0.979947
O O4 0.347634 0.000000 0.000000
O O5 0.804864 0.339448 0.293566
O O6 0.000000 0.197787 0.250000
O O7 0.789334 0.197483 0.058731
O O8 0.783539 0.500000 0.500000
#
# Coordination Sequence:
#
# PCOD9320510 Si02
#       3
#     8   8   8
#     4   9  20  39  63  89 121 165 208 245 301 375
#     4  11  23  39  62  92 124 157 204 264 307 348
#     4  10  23  42  63  91 124 166 208 243 302 379
#
# _framework density 22.29834
#
# number of rings (size 3 to 8) (size 9 to 14) (size 15 to 20)
#    0.000    2.000    0.000    2.000    0.000   20.000 
#    0.000    5.000    0.000    0.000    0.000    0.000 
#    0.000    0.000    0.000    0.000    0.000    0.000 
#
# Total GULP energy -66965.091942 kJ/mol
# GULP energy per Si atom -5580.424328 kJ/mol
# Density = 2.224759 g / cm^3
# Si number density = 22.298340 Si / 1000 Ang^3
#
#
#
# Elastic Constant Matrix: (Units=GPa)
#
#
# Indices 1 2 3 4 5 6 
#
# 1 71.4501 44.4235 22.2279 0.0000 0.0000 0.0000
# 2 44.4235 104.8972 54.2757 0.0000 0.0000 0.0000
# 3 22.2279 54.2757 98.5118 0.0000 0.0000 0.0000
# 4 0.0000 0.0000 0.0000 50.1688 0.0000 0.0000
# 5 0.0000 0.0000 0.0000 0.0000 28.4398 0.0000
# 6 0.0000 0.0000 0.0000 0.0000 0.0000 34.7498
#
#
#
# Elastic Compliance Matrix: (Units=1/GPa)
#
#
# Indices 1 2 3 4 5 6 
#
# 1 0.019001 -0.008153 0.000204 0.000000 0.000000 0.000000
# 2 -0.008153 0.016832 -0.007434 0.000000 0.000000 0.000000
# 3 0.000204 -0.007434 0.014201 0.000000 0.000000 0.000000
# 4 0.000000 0.000000 0.000000 0.019933 0.000000 0.000000
# 5 0.000000 0.000000 0.000000 0.000000 0.035162 0.000000
# 6 0.000000 0.000000 0.000000 0.000000 0.000000 0.028777
#
#
# Mechanical properties :
#
#
# Convention : Reuss Voigt Hill
#
# Bulk Modulus (GPa) = 51.89630 57.41259 54.65444
# Shear Modulus (GPa) = 29.22360 32.93381 31.07871
#
# Velocity S-wave (km/s) = 3.62411 3.84730 3.73737
# Velocity P-wave (km/s) = 6.39034 6.74826 6.57173
#
# Compressibility (1/GPa) = 0.01926920
#
# Stress axis : x y z
#
# Youngs Moduli (GPa) = 52.62876 59.40907 70.41763
#
# Poissons Ratio (x) = 0.48434 -0.01439
# Poissons Ratio (y) = 0.42906 0.52351
# Poissons Ratio (z) = -0.01076 0.44167
#
# Static dielectric constant tensor:
#      x y z
#    x 1.772690 0.000000 0.000000 
#    y 0.000000 1.883500 0.000000 
#    z 0.000000 0.000000 1.983430 
# 
# From -- ./inp_files/5499.got.cif
#   From: 2010.05.17/outbox.cif.g08.bks.cpg/sg20_3_cif.got.tgz:5499.got - 2010.06.03 22:52:26.
