data_PCOD9320763
_publ_section_title
;
Structure prediction by ZEFSAII (Michael W. Deem and Ramdas Pophale) SiO2 
 PCOD9320763
Probable space group: C 2 2 21
;
_chemical_formula_sum "Si O2"
_cell_formula_units_Z 44
_cell_length_a 12.264983
_cell_length_b 23.242951
_cell_length_c 8.149167
_cell_angle_alpha 90.000000
_cell_angle_beta 90.000000
_cell_angle_gamma 90.000000
_cell_volume 2323.118884
_symmetry_space_group_name_H-M "C 2 2 21"
_symmetry_group_IT_number 20
_symmetry_cell_setting 'orthorhombic'
loop_
_space_group_symop_operation_xyz
x,y,z
-x,-y,1/2+z
x,-y,-z
-x,y,1/2-z
1/2+x,1/2+y,z
1/2-x,1/2-y,1/2+z
1/2+x,1/2-y,-z
1/2-x,1/2+y,1/2-z
loop_
_atom_site_type_symbol
_atom_site_label
_atom_site_fract_x
_atom_site_fract_y
_atom_site_fract_z
Si Si1 0.495826 0.184835 0.436173
Si Si2 0.951505 0.200354 0.415887
Si Si3 0.500000 0.505706 0.750000
Si Si4 0.761823 0.332341 0.431053
Si Si5 0.081535 0.084039 0.463389
Si Si6 0.272070 0.207821 0.939253
O O1 0.500000 0.164407 0.250000
O O2 0.475942 0.253994 0.441782
O O3 0.390380 0.160896 0.531161
O O4 0.614002 0.178459 0.515582
O O5 0.822634 0.190987 0.431677
O O6 0.000000 0.228505 0.250000
O O7 0.012879 0.140902 0.428682
O O8 0.510253 0.549144 0.597464
O O9 0.591827 0.458839 0.692703
O O10 0.694247 0.389818 0.470046
O O11 0.722787 0.277509 0.541670
O O12 0.743196 0.311843 0.244265
#
# Coordination Sequence:
#
# PCOD9320763 Si02
#       6
#     8   8   4   8   8   8
#     4  11  23  34  54  89 127 170 209 240 301 408
#     4  11  22  34  59  84 125 165 202 255 319 374
#     4  10  24  38  60  82 112 148 220 260 328 352
#     4  11  23  35  59  82 128 167 211 253 318 375
#     4  11  22  40  57  88 115 159 203 275 319 362
#     4  11  21  36  54  88 127 170 205 246 303 407
#
# _framework density 18.940054
#
# number of rings (size 3 to 8) (size 9 to 14) (size 15 to 20)
#    0.000    1.091    2.727    6.000    3.818    0.000 
#    0.000    0.000    0.000    0.000    0.000   33.091 
#    0.000    0.000    0.000    0.000    0.000    0.000 
#
# Total GULP energy -122536.385653 kJ/mol
# GULP energy per Si atom -5569.835712 kJ/mol
# Density = 1.889695 g / cm^3
# Si number density = 18.940054 Si / 1000 Ang^3
#
#
#
# Elastic Constant Matrix: (Units=GPa)
#
#
# Indices 1 2 3 4 5 6 
#
# 1 128.6259 19.5542 51.0533 0.0000 0.0000 0.0000
# 2 19.5542 53.3710 17.7140 0.0000 0.0000 0.0000
# 3 51.0533 17.7140 94.9816 0.0000 0.0000 0.0000
# 4 0.0000 0.0000 0.0000 29.7822 0.0000 0.0000
# 5 0.0000 0.0000 0.0000 0.0000 26.4311 0.0000
# 6 0.0000 0.0000 0.0000 0.0000 0.0000 9.7018
#
#
#
# Elastic Compliance Matrix: (Units=1/GPa)
#
#
# Indices 1 2 3 4 5 6 
#
# 1 0.010083 -0.002021 -0.005043 0.000000 0.000000 0.000000
# 2 -0.002021 0.020378 -0.002714 0.000000 0.000000 0.000000
# 3 -0.005043 -0.002714 0.013745 0.000000 0.000000 0.000000
# 4 0.000000 0.000000 0.000000 0.033577 0.000000 0.000000
# 5 0.000000 0.000000 0.000000 0.000000 0.037834 0.000000
# 6 0.000000 0.000000 0.000000 0.000000 0.000000 0.103074
#
#
# Mechanical properties :
#
#
# Convention : Reuss Voigt Hill
#
# Bulk Modulus (GPa) = 40.56701 50.40237 45.48469
# Shear Modulus (GPa) = 20.28691 25.76015 23.02353
#
# Velocity S-wave (km/s) = 3.27633 3.69194 3.49033
# Velocity P-wave (km/s) = 5.98144 6.69650 6.34905
#
# Compressibility (1/GPa) = 0.02465057
#
# Stress axis : x y z
#
# Youngs Moduli (GPa) = 99.17394 49.07258 72.75241
#
# Poissons Ratio (x) = 0.09915 0.36689
# Poissons Ratio (y) = 0.20039 0.19748
# Poissons Ratio (z) = 0.50014 0.13320
#
# Static dielectric constant tensor:
#      x y z
#    x 1.721290 0.000000 0.000000 
#    y 0.000000 1.641540 0.000000 
#    z 0.000000 0.000000 1.753660 
# 
# From -- ./inp_files/7318.got.cif
#   From: 2010.05.17/outbox.cif.g08.bks.cpg/sg20_4_cif.got.tgz:7318.got - 2010.06.03 22:52:26.
