data_PCOD9320183
_publ_section_title
;
Structure prediction by ZEFSAII (Michael W. Deem and Ramdas Pophale) SiO2 
 PCOD9320183
Probable space group: C 2 2 21
;
_chemical_formula_sum "Si O2"
_cell_formula_units_Z 56
_cell_length_a 31.598292
_cell_length_b 5.405753
_cell_length_c 13.854106
_cell_angle_alpha 90.000000
_cell_angle_beta 90.000000
_cell_angle_gamma 90.000000
_cell_volume 2366.455337
_symmetry_space_group_name_H-M "C 2 2 21"
_symmetry_group_IT_number 20
_symmetry_cell_setting 'orthorhombic'
loop_
_space_group_symop_operation_xyz
x,y,z
-x,-y,1/2+z
x,-y,-z
-x,y,1/2-z
1/2+x,1/2+y,z
1/2-x,1/2-y,1/2+z
1/2+x,1/2-y,-z
1/2-x,1/2+y,1/2-z
loop_
_atom_site_type_symbol
_atom_site_label
_atom_site_fract_x
_atom_site_fract_y
_atom_site_fract_z
Si Si1 0.351587 0.744706 0.757358
Si Si2 0.402673 0.749900 0.941527
Si Si3 0.814130 0.617549 0.601556
Si Si4 0.736157 0.526839 0.703648
Si Si5 0.993892 0.884546 0.134449
Si Si6 0.392857 0.429170 0.609771
Si Si7 0.527459 0.883026 0.149638
O O1 0.370429 0.828489 0.858075
O O2 0.313954 0.558974 0.790062
O O3 0.389817 0.634210 0.692915
O O4 0.330274 0.951592 0.690540
O O5 0.446470 0.677891 0.891110
O O6 0.389421 0.500000 0.000000
O O7 0.410104 0.000000 0.000000
O O8 0.825591 0.500000 0.500000
O O9 0.763521 0.624458 0.612606
O O10 0.843039 0.858074 0.605114
O O11 0.747094 0.237793 0.720225
O O12 0.000000 0.911761 0.250000
O O13 0.023268 0.654027 0.105390
O O14 0.004824 0.155587 0.095143
O O15 0.404627 0.500000 0.500000
O O16 0.424180 0.215420 0.649757
O O17 0.500000 0.905851 0.250000
#
# Coordination Sequence:
#
# PCOD9320183 Si02
#       7
#     8   8   8   8   8   8   8
#     4  11  25  46  75 102 154 197 244 302 371 441
#     4  12  29  48  73 106 145 194 253 305 364 439
#     4  11  24  43  72 111 151 191 242 308 368 441
#     4  10  22  43  69 103 141 194 238 288 358 433
#     4  10  22  45  68  96 130 181 235 301 365 425
#     4  12  25  42  70 110 147 189 244 310 373 445
#     4  10  23  39  68  98 138 184 238 287 368 430
#
# _framework density 23.664086000000001
#
# number of rings (size 3 to 8) (size 9 to 14) (size 15 to 20)
#    0.000    1.143    2.857    2.571    8.000    2.286 
#    0.000    3.571    0.000    0.000    0.000    0.000 
#    0.000    0.000    0.000    0.000    0.000    0.000 
#
# Total GULP energy -156259.278825 kJ/mol
# GULP energy per Si atom -5580.688529 kJ/mol
# Density = 2.361023 g / cm^3
# Si number density = 23.664086 Si / 1000 Ang^3
#
#
#
# Elastic Constant Matrix: (Units=GPa)
#
#
# Indices 1 2 3 4 5 6 
#
# 1 83.9115 5.9038 37.2804 0.0000 0.0000 0.0000
# 2 5.9038 96.7172 29.7275 0.0000 0.0000 0.0000
# 3 37.2804 29.7275 112.5344 0.0000 0.0000 0.0000
# 4 0.0000 0.0000 0.0000 30.1982 0.0000 0.0000
# 5 0.0000 0.0000 0.0000 0.0000 34.1383 0.0000
# 6 0.0000 0.0000 0.0000 0.0000 0.0000 2.6834
#
#
#
# Elastic Compliance Matrix: (Units=1/GPa)
#
#
# Indices 1 2 3 4 5 6 
#
# 1 0.014008 0.000622 -0.004805 0.000000 0.000000 0.000000
# 2 0.000622 0.011281 -0.003186 0.000000 0.000000 0.000000
# 3 -0.004805 -0.003186 0.011320 0.000000 0.000000 0.000000
# 4 0.000000 0.000000 0.000000 0.033115 0.000000 0.000000
# 5 0.000000 0.000000 0.000000 0.000000 0.029293 0.000000
# 6 0.000000 0.000000 0.000000 0.000000 0.000000 0.372664
#
#
# Mechanical properties :
#
#
# Convention : Reuss Voigt Hill
#
# Bulk Modulus (GPa) = 45.72389 48.77628 47.25009
# Shear Modulus (GPa) = 10.12744 28.08739 19.10742
#
# Velocity S-wave (km/s) = 2.07098 3.44891 2.84464
# Velocity P-wave (km/s) = 5.00826 6.04290 5.54974
#
# Compressibility (1/GPa) = 0.02187040
#
# Stress axis : x y z
#
# Youngs Moduli (GPa) = 71.38621 88.64685 88.34273
#
# Poissons Ratio (x) = -0.05512 0.42448
# Poissons Ratio (y) = -0.04439 0.28145
# Poissons Ratio (z) = 0.34300 0.28242
#
# Static dielectric constant tensor:
#      x y z
#    x 1.947410 0.000000 0.000000 
#    y 0.000000 1.958690 0.000000 
#    z 0.000000 0.000000 1.699980 
# 
# From -- ./inp_files/22275.got.cif
#   From: 2010.05.17/outbox.cif.g08.bks.cpg/sg20_12_cif.got.tgz:22275.got - 2010.06.03 22:52:26.
