data_PCOD9320186
_publ_section_title
;
Structure prediction by ZEFSAII (Michael W. Deem and Ramdas Pophale) SiO2 
 PCOD9320186
Probable space group: C 2 2 21
;
_chemical_formula_sum "Si O2"
_cell_formula_units_Z 44
_cell_length_a 26.186178
_cell_length_b 9.148035
_cell_length_c 8.647428
_cell_angle_alpha 90.000000
_cell_angle_beta 90.000000
_cell_angle_gamma 90.000000
_cell_volume 2071.509302
_symmetry_space_group_name_H-M "C 2 2 21"
_symmetry_group_IT_number 20
_symmetry_cell_setting 'orthorhombic'
loop_
_space_group_symop_operation_xyz
x,y,z
-x,-y,1/2+z
x,-y,-z
-x,y,1/2-z
1/2+x,1/2+y,z
1/2-x,1/2-y,1/2+z
1/2+x,1/2-y,-z
1/2-x,1/2+y,1/2-z
loop_
_atom_site_type_symbol
_atom_site_label
_atom_site_fract_x
_atom_site_fract_y
_atom_site_fract_z
Si Si1 0.122343 0.237107 0.458573
Si Si2 0.939835 0.293368 0.752228
Si Si3 0.368651 0.538258 0.774197
Si Si4 0.689132 0.875168 0.199689
Si Si5 0.106430 0.500000 0.000000
Si Si6 0.762051 0.923084 0.657552
O O1 0.080559 0.312410 0.569977
O O2 0.152215 0.141244 0.586411
O O3 0.158743 0.337560 0.357862
O O4 0.103860 0.106368 0.344262
O O5 0.909411 0.147027 0.697303
O O6 0.924658 0.425305 0.638666
O O7 0.000000 0.271764 0.750000
O O8 0.318968 0.485168 0.687007
O O9 0.729359 0.748813 0.162069
O O10 0.720424 0.024537 0.218222
O O11 0.644878 0.882591 0.073706
O O12 0.745594 0.000000 0.500000
#
# Coordination Sequence:
#
# PCOD9320186 Si02
#       6
#     8   8   8   8   4   8
#     4   8  19  42  68  90 124 173 207 269 327 383
#     4  10  22  43  69  92 128 174 219 274 329 390
#     4   8  18  42  66  92 127 159 218 271 319 384
#     4  11  27  42  65  97 135 177 218 269 324 393
#     4  12  28  42  60  98 140 166 222 282 318 394
#     4  11  25  39  67  98 132 179 218 262 329 391
#
# _framework density 21.240551
#
# number of rings (size 3 to 8) (size 9 to 14) (size 15 to 20)
#    1.091    1.091    0.000    1.091   10.182    2.909 
#    0.000    9.091    0.000    0.000    0.000    0.000 
#    0.000    0.000    0.000    0.000    0.000    0.000 
#
# Total GULP energy -122546.906290 kJ/mol
# GULP energy per Si atom -5570.313922 kJ/mol
# Density = 2.119221 g / cm^3
# Si number density = 21.240551 Si / 1000 Ang^3
#
#
#
# Elastic Constant Matrix: (Units=GPa)
#
#
# Indices 1 2 3 4 5 6 
#
# 1 94.0388 35.0368 28.1004 0.0000 0.0000 0.0000
# 2 35.0368 65.2619 17.7890 0.0000 0.0000 0.0000
# 3 28.1004 17.7890 64.7510 0.0000 0.0000 0.0000
# 4 0.0000 0.0000 0.0000 30.2301 0.0000 0.0000
# 5 0.0000 0.0000 0.0000 0.0000 13.6002 0.0000
# 6 0.0000 0.0000 0.0000 0.0000 0.0000 34.3138
#
#
#
# Elastic Compliance Matrix: (Units=1/GPa)
#
#
# Indices 1 2 3 4 5 6 
#
# 1 0.014392 -0.006512 -0.004457 0.000000 0.000000 0.000000
# 2 -0.006512 0.019509 -0.002534 0.000000 0.000000 0.000000
# 3 -0.004457 -0.002534 0.018074 0.000000 0.000000 0.000000
# 4 0.000000 0.000000 0.000000 0.033080 0.000000 0.000000
# 5 0.000000 0.000000 0.000000 0.000000 0.073528 0.000000
# 6 0.000000 0.000000 0.000000 0.000000 0.000000 0.029143
#
#
# Mechanical properties :
#
#
# Convention : Reuss Voigt Hill
#
# Bulk Modulus (GPa) = 40.04700 42.87822 41.46261
# Shear Modulus (GPa) = 22.41609 25.17053 23.79331
#
# Velocity S-wave (km/s) = 3.25213 3.44615 3.35054
# Velocity P-wave (km/s) = 5.74428 6.00545 5.87631
#
# Compressibility (1/GPa) = 0.02497066
#
# Stress axis : x y z
#
# Youngs Moduli (GPa) = 69.48435 51.25734 55.32799
#
# Poissons Ratio (x) = 0.33377 0.24658
# Poissons Ratio (y) = 0.45245 0.14020
# Poissons Ratio (z) = 0.30967 0.12988
#
# Static dielectric constant tensor:
#      x y z
#    x 1.706600 0.000000 0.000000 
#    y 0.000000 1.812490 0.000000 
#    z 0.000000 0.000000 1.774870 
# 
# From -- ./inp_files/11376.got.cif
#   From: 2010.05.17/outbox.cif.g08.bks.cpg/sg20_6_cif.got.tgz:11376.got - 2010.06.03 22:52:26.
