data_PCOD9320191
_publ_section_title
;
Structure prediction by ZEFSAII (Michael W. Deem and Ramdas Pophale) SiO2 
 PCOD9320191
Probable space group: C 2 2 21
;
_chemical_formula_sum "Si O2"
_cell_formula_units_Z 28
_cell_length_a 12.610913
_cell_length_b 17.782912
_cell_length_c 5.008808
_cell_angle_alpha 90.000000
_cell_angle_beta 90.000000
_cell_angle_gamma 90.000000
_cell_volume 1123.269052
_symmetry_space_group_name_H-M "C 2 2 21"
_symmetry_group_IT_number 20
_symmetry_cell_setting 'orthorhombic'
loop_
_space_group_symop_operation_xyz
x,y,z
-x,-y,1/2+z
x,-y,-z
-x,y,1/2-z
1/2+x,1/2+y,z
1/2-x,1/2-y,1/2+z
1/2+x,1/2-y,-z
1/2-x,1/2+y,1/2-z
loop_
_atom_site_type_symbol
_atom_site_label
_atom_site_fract_x
_atom_site_fract_y
_atom_site_fract_z
Si Si1 0.000000 0.952901 0.750000
Si Si2 0.225806 0.927293 0.814055
Si Si3 0.573231 0.129996 0.000722
Si Si4 0.303856 0.272635 0.404569
O O1 0.887392 0.920826 0.840841
O O2 0.962249 0.000000 0.500000
O O3 0.317609 0.910721 0.595670
O O4 0.207014 0.859017 0.021727
O O5 0.251228 0.000000 0.000000
O O6 0.500000 0.108174 0.750000
O O7 0.601344 0.219531 0.992246
O O8 0.500000 0.116128 0.250000
O O9 0.291533 0.259832 0.090597
#
# Coordination Sequence:
#
# PCOD9320191 Si02
#       4
#     4   8   8   8
#     4  10  24  44  68 102 142 194 240 304 378 432
#     4  10  24  48  74 110 152 196 253 316 376 451
#     4  11  24  45  74 107 148 198 250 310 381 455
#     4  10  22  43  70 100 141 193 246 302 365 442
#
# _framework density 24.927242
#
# number of rings (size 3 to 8) (size 9 to 14) (size 15 to 20)
#    0.000    1.714    0.000    3.429    2.000   13.714 
#   10.286    5.714    0.000    0.000    0.000    0.000 
#    0.000    0.000    0.000    0.000    0.000    0.000 
#
# Total GULP energy -77978.660682 kJ/mol
# GULP energy per Si atom -5569.904334 kJ/mol
# Density = 2.487051 g / cm^3
# Si number density = 24.927242 Si / 1000 Ang^3
#
#
#
# Elastic Constant Matrix: (Units=GPa)
#
#
# Indices 1 2 3 4 5 6 
#
# 1 203.5961 36.7431 67.8330 0.0000 0.0000 0.0000
# 2 36.7431 119.1069 18.1801 0.0000 0.0000 0.0000
# 3 67.8330 18.1801 142.0063 0.0000 0.0000 0.0000
# 4 0.0000 0.0000 0.0000 25.5550 0.0000 0.0000
# 5 0.0000 0.0000 0.0000 0.0000 -217.8329 0.0000
# 6 0.0000 0.0000 0.0000 0.0000 0.0000 40.8952
#
#
#
# Elastic Compliance Matrix: (Units=1/GPa)
#
#
# Indices 1 2 3 4 5 6 
#
# 1 0.006081 -0.001461 -0.002718 0.000000 0.000000 0.000000
# 2 -0.001461 0.008914 -0.000443 0.000000 0.000000 0.000000
# 3 -0.002718 -0.000443 0.008397 0.000000 0.000000 0.000000
# 4 0.000000 0.000000 0.000000 0.039131 0.000000 0.000000
# 5 0.000000 0.000000 0.000000 0.000000 -0.004591 0.000000
# 6 0.000000 0.000000 0.000000 0.000000 0.000000 0.024453
#
#
# Mechanical properties :
#
#
# Convention : Reuss Voigt Hill
#
# Bulk Modulus (GPa) = 70.68189 78.91351 74.79770
# Shear Modulus (GPa) = 51.89679 -7.47967 22.20856
#
# Velocity S-wave (km/s) = 4.56777 -1.73410 2.98809
# Velocity P-wave (km/s) = 7.49908 5.26467 6.47893
#
# Compressibility (1/GPa) = 0.01414790
#
# Stress axis : x y z
#
# Youngs Moduli (GPa) = 164.45213 112.18052 119.09251
#
# Poissons Ratio (x) = 0.16390 0.32365
# Poissons Ratio (y) = 0.24027 0.05280
# Poissons Ratio (z) = 0.44692 0.04973
#
# Static dielectric constant tensor:
#      x y z
#    x 2.046630 0.000000 0.000000 
#    y 0.000000 2.369710 0.000000 
#    z 0.000000 0.000000 1.932230 
# 
# From -- ./inp_files/953.got.cif
#   From: 2010.05.17/outbox.cif.g08.bks.cpg/sg20_1_cif.got.tgz:953.got - 2010.06.03 22:52:26.
