data_PCOD9320393
_publ_section_title
;
Structure prediction by ZEFSAII (Michael W. Deem and Ramdas Pophale) SiO2 
 PCOD9320393
Probable space group: C 2 2 21
;
_chemical_formula_sum "Si O2"
_cell_formula_units_Z 40
_cell_length_a 26.548758
_cell_length_b 12.243400
_cell_length_c 5.208860
_cell_angle_alpha 90.000000
_cell_angle_beta 90.000000
_cell_angle_gamma 90.000000
_cell_volume 1693.124648
_symmetry_space_group_name_H-M "C 2 2 21"
_symmetry_group_IT_number 20
_symmetry_cell_setting 'orthorhombic'
loop_
_space_group_symop_operation_xyz
x,y,z
-x,-y,1/2+z
x,-y,-z
-x,y,1/2-z
1/2+x,1/2+y,z
1/2-x,1/2-y,1/2+z
1/2+x,1/2-y,-z
1/2-x,1/2+y,1/2-z
loop_
_atom_site_type_symbol
_atom_site_label
_atom_site_fract_x
_atom_site_fract_y
_atom_site_fract_z
Si Si1 0.938953 0.566374 0.745487
Si Si2 0.282836 0.878629 0.386728
Si Si3 0.683296 0.758632 0.621674
Si Si4 0.500000 0.350173 0.250000
Si Si5 0.916120 0.198575 0.130279
Si Si6 0.918500 0.000000 0.500000
O O1 0.921844 0.500000 0.500000
O O2 0.918097 0.688057 0.716931
O O3 0.000000 0.567989 0.750000
O O4 0.922692 0.500000 0.000000
O O5 0.311678 0.805736 0.595181
O O6 0.225029 0.836649 0.400372
O O7 0.286299 0.000000 0.500000
O O8 0.302706 0.848144 0.100916
O O9 0.627854 0.713916 0.575463
O O10 0.528556 0.296246 0.490297
O O11 0.455026 0.426164 0.334150
O O12 0.899567 0.092522 0.297955
#
# Coordination Sequence:
#
# PCOD9320393 Si02
#       6
#     8   8   8   4   8   4
#     4  10  24  43  66  96 135 191 247 295 353 414
#     4  10  22  48  75 101 148 187 230 310 375 443
#     4  10  25  44  72 114 137 184 250 294 375 445
#     4  12  24  46  68 104 144 194 242 294 368 426
#     4  12  27  44  75 105 150 191 252 310 363 451
#     4  12  24  46  68 102 144 194 240 298 368 428
#
# _framework density 23.624959
#
# number of rings (size 3 to 8) (size 9 to 14) (size 15 to 20)
#    0.000    1.200    2.000    1.800    9.800    4.000 
#    7.200    0.000    0.000    0.000    0.000    0.000 
#    0.000    0.000    0.000    0.000    0.000    0.000 
#
# Total GULP energy -111668.420708 kJ/mol
# GULP energy per Si atom -5583.421035 kJ/mol
# Density = 2.357119 g / cm^3
# Si number density = 23.624959 Si / 1000 Ang^3
#
#
#
# Elastic Constant Matrix: (Units=GPa)
#
#
# Indices 1 2 3 4 5 6 
#
# 1 72.2761 44.0600 18.5317 0.0000 0.0000 0.0000
# 2 44.0600 101.4143 24.3225 0.0000 0.0000 0.0000
# 3 18.5317 24.3225 106.5027 0.0000 0.0000 0.0000
# 4 0.0000 0.0000 0.0000 38.5504 0.0000 0.0000
# 5 0.0000 0.0000 0.0000 0.0000 21.0106 0.0000
# 6 0.0000 0.0000 0.0000 0.0000 0.0000 14.3820
#
#
#
# Elastic Compliance Matrix: (Units=1/GPa)
#
#
# Indices 1 2 3 4 5 6 
#
# 1 0.019046 -0.007913 -0.001507 0.000000 0.000000 0.000000
# 2 -0.007913 0.013720 -0.001756 0.000000 0.000000 0.000000
# 3 -0.001507 -0.001756 0.010053 0.000000 0.000000 0.000000
# 4 0.000000 0.000000 0.000000 0.025940 0.000000 0.000000
# 5 0.000000 0.000000 0.000000 0.000000 0.047595 0.000000
# 6 0.000000 0.000000 0.000000 0.000000 0.000000 0.069531
#
#
# Mechanical properties :
#
#
# Convention : Reuss Voigt Hill
#
# Bulk Modulus (GPa) = 48.86230 50.44681 49.65456
# Shear Modulus (GPa) = 23.24932 27.67386 25.46159
#
# Velocity S-wave (km/s) = 3.14044 3.42626 3.28646
# Velocity P-wave (km/s) = 5.82041 6.08703 5.95521
#
# Compressibility (1/GPa) = 0.02046567
#
# Stress axis : x y z
#
# Youngs Moduli (GPa) = 52.50384 72.88757 99.47545
#
# Poissons Ratio (x) = 0.57678 0.14990
# Poissons Ratio (y) = 0.41548 0.17471
# Poissons Ratio (z) = 0.07912 0.12801
#
# Static dielectric constant tensor:
#      x y z
#    x 1.851510 0.000000 0.000000 
#    y 0.000000 1.947170 0.000000 
#    z 0.000000 0.000000 1.522990 
# 
# From -- ./inp_files/4104.got.cif
#   From: 2010.05.17/outbox.cif.g08.bks.cpg/sg20_3_cif.got.tgz:4104.got - 2010.06.03 22:52:26.
