data_PCOD9320914
_publ_section_title
;
Structure prediction by ZEFSAII (Michael W. Deem and Ramdas Pophale) SiO2 
 PCOD9320914
Probable space group: C 2 2 21
;
_chemical_formula_sum "Si O2"
_cell_formula_units_Z 36
_cell_length_a 21.498298
_cell_length_b 14.220776
_cell_length_c 5.410962
_cell_angle_alpha 90.000000
_cell_angle_beta 90.000000
_cell_angle_gamma 90.000000
_cell_volume 1654.252723
_symmetry_space_group_name_H-M "C 2 2 21"
_symmetry_group_IT_number 20
_symmetry_cell_setting 'orthorhombic'
loop_
_space_group_symop_operation_xyz
x,y,z
-x,-y,1/2+z
x,-y,-z
-x,y,1/2-z
1/2+x,1/2+y,z
1/2-x,1/2-y,1/2+z
1/2+x,1/2-y,-z
1/2-x,1/2+y,1/2-z
loop_
_atom_site_type_symbol
_atom_site_label
_atom_site_fract_x
_atom_site_fract_y
_atom_site_fract_z
Si Si1 0.429345 0.239752 0.147257
Si Si2 0.734916 0.693024 0.227344
Si Si3 0.652447 0.058931 0.247587
Si Si4 0.000000 0.182528 0.250000
Si Si5 0.613973 0.608701 0.995521
O O1 0.500000 0.239180 0.250000
O O2 0.393442 0.147787 0.228404
O O3 0.391742 0.331249 0.242110
O O4 0.446775 0.250694 0.862606
O O5 0.739983 0.754306 0.478250
O O6 0.778760 0.603020 0.268618
O O7 0.665562 0.661534 0.159179
O O8 0.647033 0.000000 0.500000
O O9 0.639431 0.000000 0.000000
O O10 0.042701 0.115546 0.086164
O O11 0.632046 0.500000 0.000000
#
# Coordination Sequence:
#
# PCOD9320914 Si02
#       5
#     8   8   8   4   8
#     4  10  24  46  71 104 144 193 239 310 374 445
#     4  12  25  48  77 103 151 198 242 306 376 440
#     4  12  27  46  75 110 148 195 258 309 370 444
#     4  10  24  44  76 102 152 182 250 294 386 440
#     4  11  25  43  71 107 144 193 244 303 374 448
#
# _framework density 21.762091999999999
#
# number of rings (size 3 to 8) (size 9 to 14) (size 15 to 20)
#    0.000    0.889    2.222    3.333   10.889    0.889 
#    0.000    0.000    0.000    0.000    0.000    0.000 
#    0.000    0.000    0.000    0.000    0.000    0.000 
#
# Total GULP energy -100431.355683 kJ/mol
# GULP energy per Si atom -5579.519760 kJ/mol
# Density = 2.171256 g / cm^3
# Si number density = 21.762092 Si / 1000 Ang^3
#
#
#
# Elastic Constant Matrix: (Units=GPa)
#
#
# Indices 1 2 3 4 5 6 
#
# 1 120.6100 45.5143 27.1956 0.0000 0.0000 0.0000
# 2 45.5143 135.7357 73.8971 0.0000 0.0000 0.0000
# 3 27.1956 73.8971 120.2311 0.0000 0.0000 0.0000
# 4 0.0000 0.0000 0.0000 20.7202 0.0000 0.0000
# 5 0.0000 0.0000 0.0000 0.0000 34.3902 0.0000
# 6 0.0000 0.0000 0.0000 0.0000 0.0000 43.1591
#
#
#
# Elastic Compliance Matrix: (Units=1/GPa)
#
#
# Indices 1 2 3 4 5 6 
#
# 1 0.009499 -0.003029 -0.000287 0.000000 0.000000 0.000000
# 2 -0.003029 0.012038 -0.006714 0.000000 0.000000 0.000000
# 3 -0.000287 -0.006714 0.012509 0.000000 0.000000 0.000000
# 4 0.000000 0.000000 0.000000 0.048262 0.000000 0.000000
# 5 0.000000 0.000000 0.000000 0.000000 0.029078 0.000000
# 6 0.000000 0.000000 0.000000 0.000000 0.000000 0.023170
#
#
# Mechanical properties :
#
#
# Convention : Reuss Voigt Hill
#
# Bulk Modulus (GPa) = 71.49825 74.42120 72.95972
# Shear Modulus (GPa) = 31.39183 34.98521 33.18852
#
# Velocity S-wave (km/s) = 3.80215 4.01387 3.90944
# Velocity P-wave (km/s) = 7.22502 7.46682 7.34691
#
# Compressibility (1/GPa) = 0.01398636
#
# Stress axis : x y z
#
# Youngs Moduli (GPa) = 105.27528 83.07046 79.94468
#
# Poissons Ratio (x) = 0.25161 0.02294
# Poissons Ratio (y) = 0.31887 0.53673
# Poissons Ratio (z) = 0.03021 0.55771
#
# Static dielectric constant tensor:
#      x y z
#    x 1.766090 0.000000 0.000000 
#    y 0.000000 1.775830 0.000000 
#    z 0.000000 0.000000 2.079170 
# 
# From -- ./inp_files/3548.got.cif
#   From: 2010.05.17/outbox.cif.g08.bks.cpg/sg20_2_cif.got.tgz:3548.got - 2010.06.03 22:52:26.
