data_PCOD9320581
_publ_section_title
;
Structure prediction by ZEFSAII (Michael W. Deem and Ramdas Pophale) SiO2 
 PCOD9320581
Probable space group: C 2 2 21
;
_chemical_formula_sum "Si O2"
_cell_formula_units_Z 28
_cell_length_a 18.374813
_cell_length_b 5.862352
_cell_length_c 10.492352
_cell_angle_alpha 90.000000
_cell_angle_beta 90.000000
_cell_angle_gamma 90.000000
_cell_volume 1130.232189
_symmetry_space_group_name_H-M "C 2 2 21"
_symmetry_group_IT_number 20
_symmetry_cell_setting 'orthorhombic'
loop_
_space_group_symop_operation_xyz
x,y,z
-x,-y,1/2+z
x,-y,-z
-x,y,1/2-z
1/2+x,1/2+y,z
1/2-x,1/2-y,1/2+z
1/2+x,1/2-y,-z
1/2-x,1/2+y,1/2-z
loop_
_atom_site_type_symbol
_atom_site_label
_atom_site_fract_x
_atom_site_fract_y
_atom_site_fract_z
Si Si1 0.321221 0.097203 0.636284
Si Si2 0.824498 0.673404 0.106255
Si Si3 0.954048 0.870056 0.633535
Si Si4 0.961516 0.500000 0.000000
O O1 0.234895 0.134221 0.624325
O O2 0.369379 0.322495 0.663685
O O3 0.345208 0.000000 0.500000
O O4 0.334424 0.937889 0.756221
O O5 0.790484 0.500000 0.000000
O O6 0.905442 0.695091 0.050040
O O7 0.990669 0.622709 0.605768
O O8 0.000000 0.973190 0.750000
O O9 0.957261 0.000000 0.500000
#
# Coordination Sequence:
#
# PCOD9320581 Si02
#       4
#     8   8   8   4
#     4  12  24  42  72 103 139 182 239 293 348 422
#     4  10  23  43  66  96 141 179 228 283 363 403
#     4  12  26  46  74 107 141 191 239 290 356 422
#     4  10  24  48  68  96 148 182 228 298 352 408
#
# _framework density 24.773671
#
# number of rings (size 3 to 8) (size 9 to 14) (size 15 to 20)
#    0.857    0.000    4.286    2.571    0.000    6.857 
#    0.000    0.000    0.000    0.000    0.000    0.000 
#    0.000    0.000    0.000    0.000    0.000    0.000 
#
# Total GULP energy -78212.728733 kJ/mol
# GULP energy per Si atom -5586.623481 kJ/mol
# Density = 2.471729 g / cm^3
# Si number density = 24.773671 Si / 1000 Ang^3
#
#
#
# Elastic Constant Matrix: (Units=GPa)
#
#
# Indices 1 2 3 4 5 6 
#
# 1 118.5060 19.3501 24.6704 0.0000 0.0000 0.0000
# 2 19.3501 13.3819 14.5209 0.0000 0.0000 0.0000
# 3 24.6704 14.5209 169.7115 0.0000 0.0000 0.0000
# 4 0.0000 0.0000 0.0000 47.3433 0.0000 0.0000
# 5 0.0000 0.0000 0.0000 0.0000 27.5290 0.0000
# 6 0.0000 0.0000 0.0000 0.0000 0.0000 60.1608
#
#
#
# Elastic Compliance Matrix: (Units=1/GPa)
#
#
# Indices 1 2 3 4 5 6 
#
# 1 0.011057 -0.015702 -0.000264 0.000000 0.000000 0.000000
# 2 -0.015702 0.104675 -0.006674 0.000000 0.000000 0.000000
# 3 -0.000264 -0.006674 0.006502 0.000000 0.000000 0.000000
# 4 0.000000 0.000000 0.000000 0.021122 0.000000 0.000000
# 5 0.000000 0.000000 0.000000 0.000000 0.036325 0.000000
# 6 0.000000 0.000000 0.000000 0.000000 0.000000 0.016622
#
#
# Mechanical properties :
#
#
# Convention : Reuss Voigt Hill
#
# Bulk Modulus (GPa) = 12.99478 46.52025 29.75751
# Shear Modulus (GPa) = 18.71019 43.21051 30.96035
#
# Velocity S-wave (km/s) = 2.75115 4.18091 3.53898
# Velocity P-wave (km/s) = 3.91773 6.49042 5.36069
#
# Compressibility (1/GPa) = 0.07695399
#
# Stress axis : x y z
#
# Youngs Moduli (GPa) = 90.43840 9.55342 153.80571
#
# Poissons Ratio (x) = 0.15001 0.04058
# Poissons Ratio (y) = 1.42009 1.02643
# Poissons Ratio (z) = 0.02386 0.06376
#
# Static dielectric constant tensor:
#      x y z
#    x 1.921470 0.000000 0.000000 
#    y 0.000000 2.085910 0.000000 
#    z 0.000000 0.000000 1.862970 
# 
# From -- ./inp_files/9008.got.cif
#   From: 2010.05.17/outbox.cif.g08.bks.cpg/sg20_5_cif.got.tgz:9008.got - 2010.06.03 22:52:26.
