data_PCOD9320923
_publ_section_title
;
Structure prediction by ZEFSAII (Michael W. Deem and Ramdas Pophale) SiO2 
 PCOD9320923
Probable space group: C 2 2 21
;
_chemical_formula_sum "Si O2"
_cell_formula_units_Z 36
_cell_length_a 13.364400
_cell_length_b 5.603490
_cell_length_c 19.559075
_cell_angle_alpha 90.000000
_cell_angle_beta 90.000000
_cell_angle_gamma 90.000000
_cell_volume 1464.725960
_symmetry_space_group_name_H-M "C 2 2 21"
_symmetry_group_IT_number 20
_symmetry_cell_setting 'orthorhombic'
loop_
_space_group_symop_operation_xyz
x,y,z
-x,-y,1/2+z
x,-y,-z
-x,y,1/2-z
1/2+x,1/2+y,z
1/2-x,1/2-y,1/2+z
1/2+x,1/2-y,-z
1/2-x,1/2+y,1/2-z
loop_
_atom_site_type_symbol
_atom_site_label
_atom_site_fract_x
_atom_site_fract_y
_atom_site_fract_z
Si Si1 0.318493 0.500000 0.500000
Si Si2 0.298777 0.349106 0.644160
Si Si3 0.991969 0.660329 0.860321
Si Si4 0.000000 0.700120 0.250000
Si Si5 0.056082 0.500000 0.000000
Si Si6 0.175900 0.966103 0.701624
O O1 0.263837 0.469252 0.573569
O O2 0.379729 0.753298 0.506605
O O3 0.420144 0.358776 0.638227
O O4 0.278503 0.431485 0.722365
O O5 0.251927 0.083182 0.648067
O O6 0.039359 0.471700 0.808503
O O7 0.887156 0.747886 0.830112
O O8 0.988802 0.542681 0.933765
O O9 0.913585 0.850497 0.216102
#
# Coordination Sequence:
#
# PCOD9320923 Si02
#       6
#     4   8   8   4   4   8
#     4  10  24  48  77 109 152 206 252 318 391 474
#     4  11  23  46  76 108 152 198 261 318 395 454
#     4  11  23  45  72 110 146 199 257 322 382 470
#     4  12  20  42  70 106 150 186 258 328 370 458
#     4  10  24  44  81 103 154 208 250 314 405 450
#     4  12  24  42  75 113 148 199 262 322 384 460
#
# _framework density 24.577974000000001
#
# number of rings (size 3 to 8) (size 9 to 14) (size 15 to 20)
#    0.000    0.889    4.444    2.667    3.111    1.778 
#    0.000    1.111   14.667    0.000    0.000    0.000 
#    0.000    0.000    0.000    0.000    0.000    0.000 
#
# Total GULP energy -100483.015117 kJ/mol
# GULP energy per Si atom -5582.389729 kJ/mol
# Density = 2.452203 g / cm^3
# Si number density = 24.577974 Si / 1000 Ang^3
#
#
#
# Elastic Constant Matrix: (Units=GPa)
#
#
# Indices 1 2 3 4 5 6 
#
# 1 104.0254 36.4624 35.6838 0.0000 0.0000 0.0000
# 2 36.4624 104.7321 60.4853 0.0000 0.0000 0.0000
# 3 35.6838 60.4853 224.8978 0.0000 0.0000 0.0000
# 4 0.0000 0.0000 0.0000 53.0519 0.0000 0.0000
# 5 0.0000 0.0000 0.0000 0.0000 26.0517 0.0000
# 6 0.0000 0.0000 0.0000 0.0000 0.0000 -952.7274
#
#
#
# Elastic Compliance Matrix: (Units=1/GPa)
#
#
# Indices 1 2 3 4 5 6 
#
# 1 0.011086 -0.003367 -0.000854 0.000000 0.000000 0.000000
# 2 -0.003367 0.012326 -0.002781 0.000000 0.000000 0.000000
# 3 -0.000854 -0.002781 0.005330 0.000000 0.000000 0.000000
# 4 0.000000 0.000000 0.000000 0.018849 0.000000 0.000000
# 5 0.000000 0.000000 0.000000 0.000000 0.038385 0.000000
# 6 0.000000 0.000000 0.000000 0.000000 0.000000 -0.001050
#
#
# Mechanical properties :
#
#
# Convention : Reuss Voigt Hill
#
# Bulk Modulus (GPa) = 67.84329 77.65759 72.75044
# Shear Modulus (GPa) = 48.14984 -154.65652 -53.25334
#
# Velocity S-wave (km/s) = 4.43093 -7.94112 -4.65984
# Velocity P-wave (km/s) = 7.33763 7.23995 0.84376
#
# Compressibility (1/GPa) = 0.01473985
#
# Stress axis : x y z
#
# Youngs Moduli (GPa) = 90.20493 81.12729 187.62389
#
# Poissons Ratio (x) = 0.27312 0.16014
# Poissons Ratio (y) = 0.30368 0.52177
# Poissons Ratio (z) = 0.07699 0.22561
#
# Static dielectric constant tensor:
#      x y z
#    x 1.994880 0.000000 0.000000 
#    y 0.000000 2.088860 0.000000 
#    z 0.000000 0.000000 1.933100 
# 
# From -- ./inp_files/25945.got.cif
#   From: 2010.05.17/outbox.cif.g08.bks.cpg/sg20_13_cif.got.tgz:25945.got - 2010.06.03 22:52:26.
