data_PCOD9320764
_publ_section_title
;
Structure prediction by ZEFSAII (Michael W. Deem and Ramdas Pophale) SiO2 
 PCOD9320764
Probable space group: C 2 2 21
;
_chemical_formula_sum "Si O2"
_cell_formula_units_Z 44
_cell_length_a 7.840932
_cell_length_b 6.900359
_cell_length_c 30.822729
_cell_angle_alpha 90.000000
_cell_angle_beta 90.000000
_cell_angle_gamma 90.000000
_cell_volume 1667.671326
_symmetry_space_group_name_H-M "C 2 2 21"
_symmetry_group_IT_number 20
_symmetry_cell_setting 'orthorhombic'
loop_
_space_group_symop_operation_xyz
x,y,z
-x,-y,1/2+z
x,-y,-z
-x,y,1/2-z
1/2+x,1/2+y,z
1/2-x,1/2-y,1/2+z
1/2+x,1/2-y,-z
1/2-x,1/2+y,1/2-z
loop_
_atom_site_type_symbol
_atom_site_label
_atom_site_fract_x
_atom_site_fract_y
_atom_site_fract_z
Si Si1 0.424089 0.063743 0.081364
Si Si2 0.103287 0.993191 0.546357
Si Si3 0.582117 0.553020 0.131118
Si Si4 0.426137 0.000000 0.500000
Si Si5 0.944773 0.709162 0.797927
Si Si6 0.420205 0.156946 0.333731
O O1 0.382966 0.278786 0.061214
O O2 0.264467 0.003926 0.110758
O O3 0.575770 0.072085 0.116938
O O4 0.454662 0.933418 0.038875
O O5 0.025536 0.898423 0.588706
O O6 0.283123 0.901276 0.530777
O O7 0.002516 0.000000 0.500000
O O8 0.581559 0.716554 0.166948
O O9 0.505236 0.369013 0.156188
O O10 0.763133 0.797737 0.812332
O O11 0.000000 0.766687 0.750000
O O12 0.962730 0.477595 0.803718
#
# Coordination Sequence:
#
# PCOD9320764 Si02
#       6
#     8   8   8   4   8   8
#     4  11  24  41  72 105 155 215 262 337 408 484
#     4   9  24  39  65 104 156 209 264 326 397 483
#     4  11  26  48  76 111 158 213 270 339 418 498
#     4  10  24  38  64 104 150 206 260 322 384 480
#     4  12  30  49  84 111 156 203 269 346 427 503
#     4  11  27  51  74 114 151 203 263 332 415 494
#
# _framework density 26.384096
#
# number of rings (size 3 to 8) (size 9 to 14) (size 15 to 20)
#    0.545    0.727    1.818    1.091   14.000    2.182 
#    0.000    0.000    0.000    0.000    0.000    0.000 
#    0.000    0.000    0.000    0.000    0.000    0.000 
#
# Total GULP energy -122803.340185 kJ/mol
# GULP energy per Si atom -5581.970008 kJ/mol
# Density = 2.632404 g / cm^3
# Si number density = 26.384096 Si / 1000 Ang^3
#
#
#
# Elastic Constant Matrix: (Units=GPa)
#
#
# Indices 1 2 3 4 5 6 
#
# 1 103.2874 28.5555 22.3702 0.0000 0.0000 0.0000
# 2 28.5555 67.7810 57.2045 0.0000 0.0000 0.0000
# 3 22.3702 57.2045 136.5883 0.0000 0.0000 0.0000
# 4 0.0000 0.0000 0.0000 40.5224 0.0000 0.0000
# 5 0.0000 0.0000 0.0000 0.0000 21.4235 0.0000
# 6 0.0000 0.0000 0.0000 0.0000 0.0000 28.0697
#
#
#
# Elastic Compliance Matrix: (Units=1/GPa)
#
#
# Indices 1 2 3 4 5 6 
#
# 1 0.010962 -0.004799 0.000215 0.000000 0.000000 0.000000
# 2 -0.004799 0.024920 -0.009651 0.000000 0.000000 0.000000
# 3 0.000215 -0.009651 0.011328 0.000000 0.000000 0.000000
# 4 0.000000 0.000000 0.000000 0.024678 0.000000 0.000000
# 5 0.000000 0.000000 0.000000 0.000000 0.046678 0.000000
# 6 0.000000 0.000000 0.000000 0.000000 0.000000 0.035626
#
#
# Mechanical properties :
#
#
# Convention : Reuss Voigt Hill
#
# Bulk Modulus (GPa) = 53.36395 58.21300 55.78847
# Shear Modulus (GPa) = 26.46780 31.30488 28.88634
#
# Velocity S-wave (km/s) = 3.17073 3.44831 3.31242
# Velocity P-wave (km/s) = 5.80296 6.16165 5.98500
#
# Compressibility (1/GPa) = 0.01873924
#
# Stress axis : x y z
#
# Youngs Moduli (GPa) = 91.22339 40.12803 88.27719
#
# Poissons Ratio (x) = 0.19259 -0.01895
# Poissons Ratio (y) = 0.43782 0.85194
# Poissons Ratio (z) = -0.01959 0.38727
#
# Static dielectric constant tensor:
#      x y z
#    x 2.159060 0.000000 0.000000 
#    y 0.000000 2.344880 0.000000 
#    z 0.000000 0.000000 2.031280 
# 
# From -- ./inp_files/30927.got.cif
#   From: 2010.05.17/outbox.cif.g08.bks.cpg/sg20_16_cif.got.tgz:30927.got - 2010.06.03 22:52:26.
