data_PCOD9320388
_publ_section_title
;
Structure prediction by ZEFSAII (Michael W. Deem and Ramdas Pophale) SiO2 
 PCOD9320388
Probable space group: C 2 2 21
;
_chemical_formula_sum "Si O2"
_cell_formula_units_Z 32
_cell_length_a 29.996864
_cell_length_b 4.922099
_cell_length_c 8.490488
_cell_angle_alpha 90.000000
_cell_angle_beta 90.000000
_cell_angle_gamma 90.000000
_cell_volume 1253.599618
_symmetry_space_group_name_H-M "C 2 2 21"
_symmetry_group_IT_number 20
_symmetry_cell_setting 'orthorhombic'
loop_
_space_group_symop_operation_xyz
x,y,z
-x,-y,1/2+z
x,-y,-z
-x,y,1/2-z
1/2+x,1/2+y,z
1/2-x,1/2-y,1/2+z
1/2+x,1/2-y,-z
1/2-x,1/2+y,1/2-z
loop_
_atom_site_type_symbol
_atom_site_label
_atom_site_fract_x
_atom_site_fract_y
_atom_site_fract_z
Si Si1 0.062962 0.374488 0.742873
Si Si2 0.718111 0.000000 0.000000
Si Si3 0.722515 0.000000 0.500000
Si Si4 0.892082 0.000000 0.500000
Si Si5 0.503766 0.000000 0.000000
Si Si6 0.844263 0.393154 0.253290
O O1 0.077249 0.157779 0.873952
O O2 0.030484 0.306623 0.597518
O O3 0.110107 0.486120 0.686382
O O4 0.036044 0.585783 0.856159
O O5 0.745918 0.742096 0.062039
O O6 0.686390 0.095056 0.142939
O O7 0.689393 0.831391 0.386110
O O8 0.861643 0.818565 0.616532
#
# Coordination Sequence:
#
# PCOD9320388 Si02
#       6
#     8   4   4   4   4   8
#     4  11  23  47  75 106 151 201 248 329 382 479
#     4  12  25  48  76 110 154 205 265 326 391 466
#     4  12  30  44  76 117 152 205 264 336 381 475
#     4  12  23  46  82 108 146 222 250 318 408 475
#     4  10  22  48  70 109 154 188 265 314 390 462
#     4  12  25  48  73 107 156 200 257 318 404 467
#
# _framework density 25.526492999999999
#
# number of rings (size 3 to 8) (size 9 to 14) (size 15 to 20)
#    0.000    0.500    5.000    3.000    3.500    0.000 
#    9.000    0.000    0.000    0.000    0.000    0.000 
#    0.000    0.000    0.000    0.000    0.000    0.000 
#
# Total GULP energy -89118.172305 kJ/mol
# GULP energy per Si atom -5569.885769 kJ/mol
# Density = 2.546839 g / cm^3
# Si number density = 25.526493 Si / 1000 Ang^3
#
#
#
# Elastic Constant Matrix: (Units=GPa)
#
#
# Indices 1 2 3 4 5 6 
#
# 1 175.4008 37.2474 61.9594 0.0000 0.0000 0.0000
# 2 37.2474 83.0561 29.3934 0.0000 0.0000 0.0000
# 3 61.9594 29.3934 112.8407 0.0000 0.0000 0.0000
# 4 0.0000 0.0000 0.0000 11.6318 0.0000 0.0000
# 5 0.0000 0.0000 0.0000 0.0000 74.8916 0.0000
# 6 0.0000 0.0000 0.0000 0.0000 0.0000 19.2680
#
#
#
# Elastic Compliance Matrix: (Units=1/GPa)
#
#
# Indices 1 2 3 4 5 6 
#
# 1 0.007382 -0.002066 -0.003515 0.000000 0.000000 0.000000
# 2 -0.002066 0.013841 -0.002471 0.000000 0.000000 0.000000
# 3 -0.003515 -0.002471 0.011436 0.000000 0.000000 0.000000
# 4 0.000000 0.000000 0.000000 0.085971 0.000000 0.000000
# 5 0.000000 0.000000 0.000000 0.000000 0.013353 0.000000
# 6 0.000000 0.000000 0.000000 0.000000 0.000000 0.051900
#
#
# Mechanical properties :
#
#
# Convention : Reuss Voigt Hill
#
# Bulk Modulus (GPa) = 60.40751 69.83311 65.12031
# Shear Modulus (GPa) = 24.33037 37.33809 30.83423
#
# Velocity S-wave (km/s) = 3.09065 3.82870 3.47930
# Velocity P-wave (km/s) = 6.03756 6.85287 6.45809
#
# Compressibility (1/GPa) = 0.01655423
#
# Stress axis : x y z
#
# Youngs Moduli (GPa) = 135.47061 72.24813 87.44593
#
# Poissons Ratio (x) = 0.14930 0.30736
# Poissons Ratio (y) = 0.27995 0.21606
# Poissons Ratio (z) = 0.47616 0.17851
#
# Static dielectric constant tensor:
#      x y z
#    x 2.073130 0.000000 0.000000 
#    y 0.000000 2.050770 0.000000 
#    z 0.000000 0.000000 1.877560 
# 
# From -- ./inp_files/5289.got.cif
#   From: 2010.05.17/outbox.cif.g08.bks.cpg/sg20_3_cif.got.tgz:5289.got - 2010.06.03 22:52:26.
