data_PCOD9320408
_publ_section_title
;
Structure prediction by ZEFSAII (Michael W. Deem and Ramdas Pophale) SiO2 
 PCOD9320408
Probable space group: C 2 2 21
;
_chemical_formula_sum "Si O2"
_cell_formula_units_Z 60
_cell_length_a 10.581583
_cell_length_b 26.434540
_cell_length_c 8.039548
_cell_angle_alpha 90.000000
_cell_angle_beta 90.000000
_cell_angle_gamma 90.000000
_cell_volume 2248.816571
_symmetry_space_group_name_H-M "C 2 2 21"
_symmetry_group_IT_number 20
_symmetry_cell_setting 'orthorhombic'
loop_
_space_group_symop_operation_xyz
x,y,z
-x,-y,1/2+z
x,-y,-z
-x,y,1/2-z
1/2+x,1/2+y,z
1/2-x,1/2-y,1/2+z
1/2+x,1/2-y,-z
1/2-x,1/2+y,1/2-z
loop_
_atom_site_type_symbol
_atom_site_label
_atom_site_fract_x
_atom_site_fract_y
_atom_site_fract_z
Si Si1 0.755045 0.045435 0.371076
Si Si2 0.588878 0.164046 0.011353
Si Si3 0.000000 0.008281 0.750000
Si Si4 0.593016 0.053565 0.058082
Si Si5 0.677671 0.320356 0.298184
Si Si6 0.538073 0.725423 0.005993
Si Si7 0.127515 0.083762 0.544728
Si Si8 0.184480 0.149221 0.232779
O O1 0.634099 0.049689 0.250158
O O2 0.787447 0.104879 0.403795
O O3 0.734842 0.000000 0.500000
O O4 0.874003 0.023562 0.268077
O O5 0.530723 0.107784 0.012508
O O6 0.510765 0.214914 0.003491
O O7 0.684087 0.163588 0.172358
O O8 0.678881 0.174180 0.852281
O O9 0.021486 0.044141 0.590269
O O10 0.732176 0.060074 0.969121
O O11 0.540950 0.000000 0.000000
O O12 0.595839 0.296763 0.448900
O O13 0.637292 0.288840 0.140433
O O14 0.632891 0.378120 0.299502
O O15 0.609827 0.697153 0.158477
O O16 0.112171 0.117448 0.378787
#
# Coordination Sequence:
#
# PCOD9320408 Si02
#       8
#     8   8   4   8   8   8   8   8
#     4  10  23  26  41  67  95 141 180 217 259 312
#     4   9  20  35  54  77 105 145 181 224 285 328
#     4  12  20  28  46  62 104 150 186 208 258 326
#     4   9  17  36  47  67 103 137 172 223 265 328
#     4   9  21  33  51  76 104 140 186 219 274 329
#     4  11  19  35  54  73 105 142 184 236 274 329
#     4   9  20  33  44  70 100 146 180 218 261 323
#     4   9  22  35  47  70 105 136 188 236 268 317
#
# _framework density 26.680702
#
# number of rings (size 3 to 8) (size 9 to 14) (size 15 to 20)
#    0.000    2.933    1.333    1.600    7.467    4.267 
#    0.000    0.000    0.000    0.000    0.000    0.000 
#    0.000   43.733    0.000    0.000    0.000    0.000 
#
# Total GULP energy -167570.885274 kJ/mol
# GULP energy per Si atom -5585.696176 kJ/mol
# Density = 2.661998 g / cm^3
# Si number density = 26.680702 Si / 1000 Ang^3
#
#
#
# Elastic Constant Matrix: (Units=GPa)
#
#
# Indices 1 2 3 4 5 6 
#
# 1 57.7480 25.8947 8.0737 0.0000 0.0000 0.0000
# 2 25.8947 224.4367 36.0578 0.0000 0.0000 0.0000
# 3 8.0737 36.0578 69.7404 0.0000 0.0000 0.0000
# 4 0.0000 0.0000 0.0000 20.5909 0.0000 0.0000
# 5 0.0000 0.0000 0.0000 0.0000 22.6946 0.0000
# 6 0.0000 0.0000 0.0000 0.0000 0.0000 -10.7513
#
#
#
# Elastic Compliance Matrix: (Units=1/GPa)
#
#
# Indices 1 2 3 4 5 6 
#
# 1 0.018342 -0.001936 -0.001122 0.000000 0.000000 0.000000
# 2 -0.001936 0.005064 -0.002394 0.000000 0.000000 0.000000
# 3 -0.001122 -0.002394 0.015707 0.000000 0.000000 0.000000
# 4 0.000000 0.000000 0.000000 0.048565 0.000000 0.000000
# 5 0.000000 0.000000 0.000000 0.000000 0.044063 0.000000
# 6 0.000000 0.000000 0.000000 0.000000 0.000000 -0.093012
#
#
# Mechanical properties :
#
#
# Convention : Reuss Voigt Hill
#
# Bulk Modulus (GPa) = 35.45185 54.66416 45.05800
# Shear Modulus (GPa) = 84.69535 25.30011 54.99773
#
# Velocity S-wave (km/s) = 5.64030 3.08272 4.54511
# Velocity P-wave (km/s) = 7.46549 5.76226 6.66848
#
# Compressibility (1/GPa) = 0.02820727
#
# Stress axis : x y z
#
# Youngs Moduli (GPa) = 54.52086 197.48987 63.66767
#
# Poissons Ratio (x) = 0.38231 0.07147
# Poissons Ratio (y) = 0.10554 0.15241
# Poissons Ratio (z) = 0.06120 0.47277
#
# Static dielectric constant tensor:
#      x y z
#    x 2.109470 0.000000 0.000000 
#    y 0.000000 2.108020 0.000000 
#    z 0.000000 0.000000 2.235940 
# 
# From -- ./inp_files/8899.got.cif
#   From: 2010.05.17/outbox.cif.g08.bks.cpg/sg20_5_cif.got.tgz:8899.got - 2010.06.03 22:52:26.
