data_PCOD9320648
_publ_section_title
;
Structure prediction by ZEFSAII (Michael W. Deem and Ramdas Pophale) SiO2 
 PCOD9320648
Probable space group: C 2 2 21
;
_chemical_formula_sum "Si O2"
_cell_formula_units_Z 40
_cell_length_a 7.236420
_cell_length_b 8.761987
_cell_length_c 26.046985
_cell_angle_alpha 90.000000
_cell_angle_beta 90.000000
_cell_angle_gamma 90.000000
_cell_volume 1651.519971
_symmetry_space_group_name_H-M "C 2 2 21"
_symmetry_group_IT_number 20
_symmetry_cell_setting 'orthorhombic'
loop_
_space_group_symop_operation_xyz
x,y,z
-x,-y,1/2+z
x,-y,-z
-x,y,1/2-z
1/2+x,1/2+y,z
1/2-x,1/2-y,1/2+z
1/2+x,1/2-y,-z
1/2-x,1/2+y,1/2-z
loop_
_atom_site_type_symbol
_atom_site_label
_atom_site_fract_x
_atom_site_fract_y
_atom_site_fract_z
Si Si1 0.239638 0.301620 0.200838
Si Si2 0.177182 0.831785 0.691146
Si Si3 0.025840 0.403326 0.451123
Si Si4 0.511920 0.171186 0.116954
Si Si5 0.554304 0.348521 0.016971
O O1 0.290228 0.483458 0.197087
O O2 0.368219 0.212959 0.160792
O O3 0.729291 0.247826 0.240554
O O4 0.030251 0.237409 0.190293
O O5 0.287796 0.789371 0.639805
O O6 0.955819 0.500000 0.500000
O O7 0.986935 0.494616 0.399929
O O8 0.243337 0.385851 0.461664
O O9 0.936644 0.242470 0.463599
O O10 0.466362 0.260948 0.064703
O O11 0.452151 0.500000 0.000000
#
# Coordination Sequence:
#
# PCOD9320648 Si02
#       5
#     8   8   8   8   8
#     4  11  29  50  79 119 159 216 261 343 403 500
#     4  11  29  49  81 115 165 207 272 327 423 477
#     4   9  22  43  64 101 144 195 251 321 395 470
#     4  11  26  46  78 109 155 203 273 325 406 494
#     4  10  23  44  71 102 153 199 259 334 407 471
#
# _framework density 24.220113999999999
#
# number of rings (size 3 to 8) (size 9 to 14) (size 15 to 20)
#    0.000    1.600    0.000    0.600   16.800    8.800 
#    0.000    0.000    0.000    0.000    0.000    0.000 
#    0.000    0.000    0.000    0.000    0.000    0.000 
#
# Total GULP energy -111741.858723 kJ/mol
# GULP energy per Si atom -5587.092936 kJ/mol
# Density = 2.416499 g / cm^3
# Si number density = 24.220114 Si / 1000 Ang^3
#
#
#
# Elastic Constant Matrix: (Units=GPa)
#
#
# Indices 1 2 3 4 5 6 
#
# 1 96.1445 19.1006 14.5218 0.0000 0.0000 0.0000
# 2 19.1006 139.5697 58.1686 0.0000 0.0000 0.0000
# 3 14.5218 58.1686 103.1875 0.0000 0.0000 0.0000
# 4 0.0000 0.0000 0.0000 56.1984 0.0000 0.0000
# 5 0.0000 0.0000 0.0000 0.0000 31.9600 0.0000
# 6 0.0000 0.0000 0.0000 0.0000 0.0000 18.3443
#
#
#
# Elastic Compliance Matrix: (Units=1/GPa)
#
#
# Indices 1 2 3 4 5 6 
#
# 1 0.010754 -0.001099 -0.000894 0.000000 0.000000 0.000000
# 2 -0.001099 0.009477 -0.005188 0.000000 0.000000 0.000000
# 3 -0.000894 -0.005188 0.012741 0.000000 0.000000 0.000000
# 4 0.000000 0.000000 0.000000 0.017794 0.000000 0.000000
# 5 0.000000 0.000000 0.000000 0.000000 0.031289 0.000000
# 6 0.000000 0.000000 0.000000 0.000000 0.000000 0.054513
#
#
# Mechanical properties :
#
#
# Convention : Reuss Voigt Hill
#
# Bulk Modulus (GPa) = 53.73083 58.05376 55.89229
# Shear Modulus (GPa) = 31.81973 37.77457 34.79715
#
# Velocity S-wave (km/s) = 3.62853 3.95351 3.79450
# Velocity P-wave (km/s) = 6.30774 6.69788 6.50573
#
# Compressibility (1/GPa) = 0.01861129
#
# Stress axis : x y z
#
# Youngs Moduli (GPa) = 92.98523 105.51313 78.48423
#
# Poissons Ratio (x) = 0.11599 0.07015
# Poissons Ratio (y) = 0.10222 0.40717
# Poissons Ratio (z) = 0.08311 0.54739
#
# Static dielectric constant tensor:
#      x y z
#    x 1.940070 0.000000 0.000000 
#    y 0.000000 2.089520 0.000000 
#    z 0.000000 0.000000 1.924750 
# 
# From -- ./inp_files/30911.got.cif
#   From: 2010.05.17/outbox.cif.g08.bks.cpg/sg20_16_cif.got.tgz:30911.got - 2010.06.03 22:52:26.
