data_PCOD9320373
_publ_section_title
;
Structure prediction by ZEFSAII (Michael W. Deem and Ramdas Pophale) SiO2 
 PCOD9320373
Probable space group: C 2 2 21
;
_chemical_formula_sum "Si O2"
_cell_formula_units_Z 40
_cell_length_a 9.367439
_cell_length_b 11.834058
_cell_length_c 14.212498
_cell_angle_alpha 90.000000
_cell_angle_beta 90.000000
_cell_angle_gamma 90.000000
_cell_volume 1575.523857
_symmetry_space_group_name_H-M "C 2 2 21"
_symmetry_group_IT_number 20
_symmetry_cell_setting 'orthorhombic'
loop_
_space_group_symop_operation_xyz
x,y,z
-x,-y,1/2+z
x,-y,-z
-x,y,1/2-z
1/2+x,1/2+y,z
1/2-x,1/2-y,1/2+z
1/2+x,1/2-y,-z
1/2-x,1/2+y,1/2-z
loop_
_atom_site_type_symbol
_atom_site_label
_atom_site_fract_x
_atom_site_fract_y
_atom_site_fract_z
Si Si1 0.981333 0.253863 0.597839
Si Si2 0.893326 0.474548 0.888626
Si Si3 0.692989 0.795498 0.087125
Si Si4 0.562109 0.494998 0.850450
Si Si5 0.331955 0.500000 0.000000
Si Si6 0.000000 0.336240 0.250000
O O1 0.986947 0.379957 0.641697
O O2 0.149199 0.251364 0.578373
O O3 0.896110 0.257328 0.501745
O O4 0.941354 0.134316 0.645111
O O5 0.723021 0.455717 0.870640
O O6 0.925099 0.585831 0.827871
O O7 0.908931 0.500000 0.000000
O O8 0.729799 0.926708 0.066230
O O9 0.618612 0.774863 0.186720
O O10 0.500000 0.463640 0.750000
O O11 0.447223 0.448523 0.926515
#
# Coordination Sequence:
#
# PCOD9320373 Si02
#       6
#     8   8   8   8   4   4
#     4  11  25  44  73 105 144 199 246 310 385 437
#     4  12  23  46  75 104 147 203 244 314 384 443
#     4  11  24  46  72 105 146 194 248 317 367 460
#     4  11  25  47  73 109 151 193 249 315 374 458
#     4  10  22  46  74 102 150 192 240 312 390 434
#     4  12  26  46  70 108 148 192 262 304 378 462
#
# _framework density 25.388380000000002
#
# number of rings (size 3 to 8) (size 9 to 14) (size 15 to 20)
#    0.000    0.800    3.000    4.800    4.200    0.000 
#    1.800    2.000    0.000    0.000    0.000    0.000 
#    0.000    0.000    0.000    0.000    0.000    0.000 
#
# Total GULP energy -111772.843148 kJ/mol
# GULP energy per Si atom -5588.642157 kJ/mol
# Density = 2.533060 g / cm^3
# Si number density = 25.388380 Si / 1000 Ang^3
#
#
#
# Elastic Constant Matrix: (Units=GPa)
#
#
# Indices 1 2 3 4 5 6 
#
# 1 71.2256 5.9843 7.9854 0.0000 0.0000 0.0000
# 2 5.9843 81.6626 -18.4005 0.0000 0.0000 0.0000
# 3 7.9854 -18.4005 121.0355 0.0000 0.0000 0.0000
# 4 0.0000 0.0000 0.0000 34.5039 0.0000 0.0000
# 5 0.0000 0.0000 0.0000 0.0000 -4.1989 0.0000
# 6 0.0000 0.0000 0.0000 0.0000 0.0000 -34.4667
#
#
#
# Elastic Compliance Matrix: (Units=1/GPa)
#
#
# Indices 1 2 3 4 5 6 
#
# 1 0.014277 -0.001303 -0.001140 0.000000 0.000000 0.000000
# 2 -0.001303 0.012799 0.002032 0.000000 0.000000 0.000000
# 3 -0.001140 0.002032 0.008646 0.000000 0.000000 0.000000
# 4 0.000000 0.000000 0.000000 0.028982 0.000000 0.000000
# 5 0.000000 0.000000 0.000000 0.000000 -0.238158 0.000000
# 6 0.000000 0.000000 0.000000 0.000000 0.000000 -0.029014
#
#
# Mechanical properties :
#
#
# Convention : Reuss Voigt Hill
#
# Bulk Modulus (GPa) = 28.65396 29.45135 29.05266
# Shear Modulus (GPa) = -26.31422 17.72463 -4.29480
#
# Velocity S-wave (km/s) = -3.22291 2.64510 -1.30204
# Velocity P-wave (km/s) = 1.59337 4.57758 3.03442
#
# Compressibility (1/GPa) = 0.03489919
#
# Stress axis : x y z
#
# Youngs Moduli (GPa) = 70.04171 78.13238 115.65874
#
# Poissons Ratio (x) = 0.10182 0.13186
# Poissons Ratio (y) = 0.09127 -0.23499
# Poissons Ratio (z) = 0.07985 -0.15874
#
# Static dielectric constant tensor:
#      x y z
#    x 2.016370 0.000000 0.000000 
#    y 0.000000 2.550310 0.000000 
#    z 0.000000 0.000000 2.065330 
# 
# From -- ./inp_files/18569.got.cif
#   From: 2010.05.17/outbox.cif.g08.bks.cpg/sg20_10_cif.got.tgz:18569.got - 2010.06.03 22:52:26.
