data_PCOD9320656
_publ_section_title
;
Structure prediction by ZEFSAII (Michael W. Deem and Ramdas Pophale) SiO2 
 PCOD9320656
Probable space group: C 2 2 21
;
_chemical_formula_sum "Si O2"
_cell_formula_units_Z 48
_cell_length_a 16.614919
_cell_length_b 10.663375
_cell_length_c 11.571280
_cell_angle_alpha 90.000000
_cell_angle_beta 90.000000
_cell_angle_gamma 90.000000
_cell_volume 2050.096544
_symmetry_space_group_name_H-M "C 2 2 21"
_symmetry_group_IT_number 20
_symmetry_cell_setting 'orthorhombic'
loop_
_space_group_symop_operation_xyz
x,y,z
-x,-y,1/2+z
x,-y,-z
-x,y,1/2-z
1/2+x,1/2+y,z
1/2-x,1/2-y,1/2+z
1/2+x,1/2-y,-z
1/2-x,1/2+y,1/2-z
loop_
_atom_site_type_symbol
_atom_site_label
_atom_site_fract_x
_atom_site_fract_y
_atom_site_fract_z
Si Si1 0.391843 0.736287 0.858031
Si Si2 0.682327 0.051143 0.207769
Si Si3 0.316602 0.567897 0.677832
Si Si4 0.036731 0.871933 0.019964
Si Si5 0.800112 0.213265 0.095668
Si Si6 0.587342 0.790985 0.202889
O O1 0.377701 0.848814 0.766702
O O2 0.355417 0.613286 0.797285
O O3 0.482959 0.717278 0.899433
O O4 0.341395 0.746606 0.975802
O O5 0.734798 0.101618 0.100493
O O6 0.754643 0.043563 0.303030
O O7 0.640205 0.917495 0.184950
O O8 0.390904 0.569733 0.593501
O O9 0.256929 0.673624 0.632491
O O10 0.069864 0.793417 0.910674
O O11 0.985034 0.000000 0.000000
O O12 0.869368 0.211168 0.195035
O O13 0.500000 0.830283 0.250000
#
# Coordination Sequence:
#
# PCOD9320656 Si02
#       6
#     8   8   8   8   8   8
#     4  11  25  48  71 108 146 196 250 300 382 439
#     4  10  25  47  75 106 151 191 256 312 364 453
#     4  10  25  42  72 102 142 191 241 302 368 433
#     4  12  27  45  76 108 152 194 247 308 377 460
#     4  10  23  44  73 103 146 188 247 305 365 444
#     4  11  24  48  74 112 146 200 247 304 384 434
#
# _framework density 23.413533000000001
#
# number of rings (size 3 to 8) (size 9 to 14) (size 15 to 20)
#    0.000    1.333    1.667    1.500   11.667    6.000 
#    3.000    3.333    0.000    0.000    0.000    0.000 
#    0.000    0.000    0.000    0.000    0.000    0.000 
#
# Total GULP energy -133957.231998 kJ/mol
# GULP energy per Si atom -5581.551333 kJ/mol
# Density = 2.336024 g / cm^3
# Si number density = 23.413533 Si / 1000 Ang^3
#
#
#
# Elastic Constant Matrix: (Units=GPa)
#
#
# Indices 1 2 3 4 5 6 
#
# 1 93.3469 29.1232 26.7053 0.0000 0.0000 0.0000
# 2 29.1232 84.4389 22.6602 0.0000 0.0000 0.0000
# 3 26.7053 22.6602 60.8044 0.0000 0.0000 0.0000
# 4 0.0000 0.0000 0.0000 17.2074 0.0000 0.0000
# 5 0.0000 0.0000 0.0000 0.0000 39.4000 0.0000
# 6 0.0000 0.0000 0.0000 0.0000 0.0000 1.8755
#
#
#
# Elastic Compliance Matrix: (Units=1/GPa)
#
#
# Indices 1 2 3 4 5 6 
#
# 1 0.013024 -0.003286 -0.004496 0.000000 0.000000 0.000000
# 2 -0.003286 0.013988 -0.003770 0.000000 0.000000 0.000000
# 3 -0.004496 -0.003770 0.019826 0.000000 0.000000 0.000000
# 4 0.000000 0.000000 0.000000 0.058114 0.000000 0.000000
# 5 0.000000 0.000000 0.000000 0.000000 0.025381 0.000000
# 6 0.000000 0.000000 0.000000 0.000000 0.000000 0.533189
#
#
# Mechanical properties :
#
#
# Convention : Reuss Voigt Hill
#
# Bulk Modulus (GPa) = 42.13158 43.95194 43.04176
# Shear Modulus (GPa) = 7.19905 22.37001 14.78453
#
# Velocity S-wave (km/s) = 1.75540 3.09436 2.51560
# Velocity P-wave (km/s) = 4.70555 5.61957 5.18274
#
# Compressibility (1/GPa) = 0.02373516
#
# Stress axis : x y z
#
# Youngs Moduli (GPa) = 76.78173 71.49117 50.43980
#
# Poissons Ratio (x) = 0.23488 0.22676
# Poissons Ratio (y) = 0.25227 0.19015
# Poissons Ratio (z) = 0.34519 0.26951
#
# Static dielectric constant tensor:
#      x y z
#    x 1.970280 0.000000 0.000000 
#    y 0.000000 1.888770 0.000000 
#    z 0.000000 0.000000 2.022220 
# 
# From -- ./inp_files/15699.got.cif
#   From: 2010.05.17/outbox.cif.g08.bks.cpg/sg20_8_cif.got.tgz:15699.got - 2010.06.03 22:52:26.
