data_PCOD9320696
_publ_section_title
;
Structure prediction by ZEFSAII (Michael W. Deem and Ramdas Pophale) SiO2 
 PCOD9320696
Probable space group: C 2 2 21
;
_chemical_formula_sum "Si O2"
_cell_formula_units_Z 48
_cell_length_a 8.221266
_cell_length_b 11.552309
_cell_length_c 23.538705
_cell_angle_alpha 90.000000
_cell_angle_beta 90.000000
_cell_angle_gamma 90.000000
_cell_volume 2235.579214
_symmetry_space_group_name_H-M "C 2 2 21"
_symmetry_group_IT_number 20
_symmetry_cell_setting 'orthorhombic'
loop_
_space_group_symop_operation_xyz
x,y,z
-x,-y,1/2+z
x,-y,-z
-x,y,1/2-z
1/2+x,1/2+y,z
1/2-x,1/2-y,1/2+z
1/2+x,1/2-y,-z
1/2-x,1/2+y,1/2-z
loop_
_atom_site_type_symbol
_atom_site_label
_atom_site_fract_x
_atom_site_fract_y
_atom_site_fract_z
Si Si1 0.577706 0.976312 0.344783
Si Si2 0.227588 0.604005 0.544761
Si Si3 0.000000 0.708227 0.750000
Si Si4 0.643791 0.769113 0.704162
Si Si5 0.769551 0.638997 0.603365
Si Si6 0.355801 0.500000 0.000000
Si Si7 0.038088 0.799712 0.964166
O O1 0.710112 0.945156 0.392646
O O2 0.574431 0.877049 0.297437
O O3 0.401361 0.953245 0.373689
O O4 0.601083 0.103644 0.320202
O O5 0.214934 0.500000 0.500000
O O6 0.082938 0.693355 0.534477
O O7 0.383097 0.677754 0.525786
O O8 0.833888 0.770656 0.727103
O O9 0.500000 0.743225 0.750000
O O10 0.646790 0.672086 0.653816
O O11 0.729730 0.590827 0.540794
O O12 0.842747 0.764908 0.586341
O O13 0.452876 0.577919 0.045261
#
# Coordination Sequence:
#
# PCOD9320696 Si02
#       7
#     8   8   4   8   8   4   8
#     4  10  23  45  73  99 141 182 238 301 352 427
#     4  11  23  40  66  97 140 181 224 284 348 427
#     4  10  24  52  66 106 140 172 252 310 342 434
#     4  11  24  50  76  99 141 196 244 305 375 423
#     4  10  25  44  65 106 144 182 242 296 355 445
#     4  12  24  40  68 104 150 182 238 284 364 446
#     4  11  23  40  61  97 140 181 224 278 354 424
#
# _framework density 21.470946999999999
#
# number of rings (size 3 to 8) (size 9 to 14) (size 15 to 20)
#    0.000    1.333    3.333    1.000    4.667    1.333 
#   10.500    0.000    0.000    0.000    0.000    0.000 
#    0.000    0.000    0.000    0.000    0.000    0.000 
#
# Total GULP energy -133700.728354 kJ/mol
# GULP energy per Si atom -5570.863681 kJ/mol
# Density = 2.142208 g / cm^3
# Si number density = 21.470947 Si / 1000 Ang^3
#
#
#
# Elastic Constant Matrix: (Units=GPa)
#
#
# Indices 1 2 3 4 5 6 
#
# 1 44.6628 26.3659 13.9912 0.0000 0.0000 0.0000
# 2 26.3659 89.8113 29.4529 0.0000 0.0000 0.0000
# 3 13.9912 29.4529 86.8103 0.0000 0.0000 0.0000
# 4 0.0000 0.0000 0.0000 37.4445 0.0000 0.0000
# 5 0.0000 0.0000 0.0000 0.0000 34.4500 0.0000
# 6 0.0000 0.0000 0.0000 0.0000 0.0000 3.2683
#
#
#
# Elastic Compliance Matrix: (Units=1/GPa)
#
#
# Indices 1 2 3 4 5 6 
#
# 1 0.027358 -0.007410 -0.001895 0.000000 0.000000 0.000000
# 2 -0.007410 0.014535 -0.003737 0.000000 0.000000 0.000000
# 3 -0.001895 -0.003737 0.013093 0.000000 0.000000 0.000000
# 4 0.000000 0.000000 0.000000 0.026706 0.000000 0.000000
# 5 0.000000 0.000000 0.000000 0.000000 0.029028 0.000000
# 6 0.000000 0.000000 0.000000 0.000000 0.000000 0.305972
#
#
# Mechanical properties :
#
#
# Convention : Reuss Voigt Hill
#
# Bulk Modulus (GPa) = 34.60057 40.10047 37.35052
# Shear Modulus (GPa) = 11.05191 25.13084 18.09137
#
# Velocity S-wave (km/s) = 2.27124 3.42491 2.90590
# Velocity P-wave (km/s) = 4.79876 5.86150 5.35655
#
# Compressibility (1/GPa) = 0.02890126
#
# Stress axis : x y z
#
# Youngs Moduli (GPa) = 36.55234 68.79746 76.37781
#
# Poissons Ratio (x) = 0.50979 0.14475
# Poissons Ratio (y) = 0.27085 0.28545
# Poissons Ratio (z) = 0.06928 0.25712
#
# Static dielectric constant tensor:
#      x y z
#    x 1.955700 0.000000 0.000000 
#    y 0.000000 1.724410 0.000000 
#    z 0.000000 0.000000 1.837460 
# 
# From -- ./inp_files/28769.got.cif
#   From: 2010.05.17/outbox.cif.g08.bks.cpg/sg20_15_cif.got.tgz:28769.got - 2010.06.03 22:52:26.
