data_PCOD9320972
_publ_section_title
;
Structure prediction by ZEFSAII (Michael W. Deem and Ramdas Pophale) SiO2 
 PCOD9320972
Probable space group: C 2 2 21
;
_chemical_formula_sum "Si O2"
_cell_formula_units_Z 52
_cell_length_a 6.308042
_cell_length_b 19.436673
_cell_length_c 17.594304
_cell_angle_alpha 90.000000
_cell_angle_beta 90.000000
_cell_angle_gamma 90.000000
_cell_volume 2157.190982
_symmetry_space_group_name_H-M "C 2 2 21"
_symmetry_group_IT_number 20
_symmetry_cell_setting 'orthorhombic'
loop_
_space_group_symop_operation_xyz
x,y,z
-x,-y,1/2+z
x,-y,-z
-x,y,1/2-z
1/2+x,1/2+y,z
1/2-x,1/2-y,1/2+z
1/2+x,1/2-y,-z
1/2-x,1/2+y,1/2-z
loop_
_atom_site_type_symbol
_atom_site_label
_atom_site_fract_x
_atom_site_fract_y
_atom_site_fract_z
Si Si1 0.346634 0.107117 0.135323
Si Si2 0.112479 0.079535 0.985242
Si Si3 0.094522 0.648893 0.631789
Si Si4 0.621351 0.986975 0.173594
Si Si5 0.500000 0.449515 0.750000
Si Si6 0.276418 0.321107 0.027822
Si Si7 0.117759 0.263608 0.874589
O O1 0.222984 0.119244 0.055848
O O2 0.494118 0.171250 0.159168
O O3 0.165692 0.092922 0.198519
O O4 0.503161 0.041438 0.118828
O O5 0.232796 0.100864 0.908992
O O6 0.869985 0.102313 0.977685
O O7 0.129336 0.000000 0.000000
O O8 0.229328 0.710383 0.671062
O O9 0.933220 0.593534 0.667412
O O10 0.949904 0.681812 0.566697
O O11 0.500000 0.008217 0.250000
O O12 0.864473 0.004565 0.190504
O O13 0.439790 0.280927 0.081542
O O14 0.257896 0.294319 0.942784
#
# Coordination Sequence:
#
# PCOD9320972 Si02
#       7
#     8   8   8   8   4   8   8
#     4  11  23  42  68 100 137 183 233 294 347 421
#     4  11  23  36  64 105 140 169 232 289 351 423
#     4  11  23  40  66 101 138 181 227 284 359 420
#     4  10  24  46  70  91 132 180 238 296 342 416
#     4  10  26  42  70 102 132 190 240 298 356 412
#     4  11  22  36  61  98 140 181 208 283 359 419
#     4  11  22  39  64  97 141 181 219 278 360 429
#
# _framework density 24.105423999999999
#
# number of rings (size 3 to 8) (size 9 to 14) (size 15 to 20)
#    0.000    1.231    4.615    0.923    4.308    1.846 
#    0.000    0.000   13.538    0.000    0.000    0.000 
#    0.000    0.000    0.000    0.000    0.000    0.000 
#
# Total GULP energy -145138.284092 kJ/mol
# GULP energy per Si atom -5582.241696 kJ/mol
# Density = 2.405056 g / cm^3
# Si number density = 24.105424 Si / 1000 Ang^3
#
#
#
# Elastic Constant Matrix: (Units=GPa)
#
#
# Indices 1 2 3 4 5 6 
#
# 1 124.3977 66.7367 13.9249 0.0000 0.0000 0.0000
# 2 66.7367 130.9344 1.9731 0.0000 0.0000 0.0000
# 3 13.9249 1.9731 26.3423 0.0000 0.0000 0.0000
# 4 0.0000 0.0000 0.0000 12.1945 0.0000 0.0000
# 5 0.0000 0.0000 0.0000 0.0000 19.6429 0.0000
# 6 0.0000 0.0000 0.0000 0.0000 0.0000 62.4990
#
#
#
# Elastic Compliance Matrix: (Units=1/GPa)
#
#
# Indices 1 2 3 4 5 6 
#
# 1 0.011899 -0.005977 -0.005842 0.000000 0.000000 0.000000
# 2 -0.005977 0.010648 0.002362 0.000000 0.000000 0.000000
# 3 -0.005842 0.002362 0.040873 0.000000 0.000000 0.000000
# 4 0.000000 0.000000 0.000000 0.082004 0.000000 0.000000
# 5 0.000000 0.000000 0.000000 0.000000 0.050909 0.000000
# 6 0.000000 0.000000 0.000000 0.000000 0.000000 0.016000
#
#
# Mechanical properties :
#
#
# Convention : Reuss Voigt Hill
#
# Bulk Modulus (GPa) = 22.46897 49.66042 36.06469
# Shear Modulus (GPa) = 20.31826 32.13660 26.22743
#
# Velocity S-wave (km/s) = 2.90641 3.65522 3.30211
# Velocity P-wave (km/s) = 4.53920 6.20163 5.43436
#
# Compressibility (1/GPa) = 0.04450582
#
# Stress axis : x y z
#
# Youngs Moduli (GPa) = 84.03909 93.91220 24.46592
#
# Poissons Ratio (x) = 0.56131 0.14294
# Poissons Ratio (y) = 0.50230 -0.05779
# Poissons Ratio (z) = 0.49099 -0.22181
#
# Static dielectric constant tensor:
#      x y z
#    x 1.926480 0.000000 0.000000 
#    y 0.000000 1.981500 0.000000 
#    z 0.000000 0.000000 1.989930 
# 
# From -- ./inp_files/26121.got.cif
#   From: 2010.05.17/outbox.cif.g08.bks.cpg/sg20_14_cif.got.tgz:26121.got - 2010.06.03 22:52:26.
