data_PCOD9320687
_publ_section_title
;
Structure prediction by ZEFSAII (Michael W. Deem and Ramdas Pophale) SiO2 
 PCOD9320687
Probable space group: C 2 2 21
;
_chemical_formula_sum "Si O2"
_cell_formula_units_Z 32
_cell_length_a 21.550493
_cell_length_b 11.259883
_cell_length_c 5.193741
_cell_angle_alpha 90.000000
_cell_angle_beta 90.000000
_cell_angle_gamma 90.000000
_cell_volume 1260.292571
_symmetry_space_group_name_H-M "C 2 2 21"
_symmetry_group_IT_number 20
_symmetry_cell_setting 'orthorhombic'
loop_
_space_group_symop_operation_xyz
x,y,z
-x,-y,1/2+z
x,-y,-z
-x,y,1/2-z
1/2+x,1/2+y,z
1/2-x,1/2-y,1/2+z
1/2+x,1/2-y,-z
1/2-x,1/2+y,1/2-z
loop_
_atom_site_type_symbol
_atom_site_label
_atom_site_fract_x
_atom_site_fract_y
_atom_site_fract_z
Si Si1 0.500000 0.688294 0.750000
Si Si2 0.183920 0.857669 0.208676
Si Si3 0.943998 0.630474 0.582553
Si Si4 0.818942 0.691769 0.792650
Si Si5 0.915022 0.000000 0.000000
O O1 0.445861 0.774548 0.645865
O O2 0.535103 0.606289 0.540167
O O3 0.177848 0.760915 0.438523
O O4 0.257372 0.888551 0.226402
O O5 0.134784 0.961724 0.276242
O O6 0.179746 0.791330 0.934631
O O7 0.961716 0.500000 0.500000
O O8 0.881046 0.620639 0.738400
O O9 0.000000 0.677451 0.750000
#
# Coordination Sequence:
#
# PCOD9320687 Si02
#       5
#     4   8   8   8   4
#     4  12  28  46  68 110 146 202 246 308 382 448
#     4  10  23  45  72 104 146 192 241 305 372 445
#     4  12  26  47  73 103 147 199 257 310 367 443
#     4  10  23  46  72 104 145 190 250 301 365 444
#     4  12  26  44  74 106 156 190 246 310 384 452
#
# _framework density 25.390927999999999
#
# number of rings (size 3 to 8) (size 9 to 14) (size 15 to 20)
#    0.000    1.000    3.750    1.500    7.000    1.000 
#    0.000    0.000    0.000    0.000    0.000    0.000 
#    0.000    0.000    0.000    0.000    0.000    0.000 
#
# Total GULP energy -89356.651343 kJ/mol
# GULP energy per Si atom -5584.790709 kJ/mol
# Density = 2.533314 g / cm^3
# Si number density = 25.390928 Si / 1000 Ang^3
#
#
#
# Elastic Constant Matrix: (Units=GPa)
#
#
# Indices 1 2 3 4 5 6 
#
# 1 159.0086 25.4852 14.2929 0.0000 0.0000 0.0000
# 2 25.4852 126.4722 44.6877 0.0000 0.0000 0.0000
# 3 14.2929 44.6877 100.1141 0.0000 0.0000 0.0000
# 4 0.0000 0.0000 0.0000 24.7814 0.0000 0.0000
# 5 0.0000 0.0000 0.0000 0.0000 25.4587 0.0000
# 6 0.0000 0.0000 0.0000 0.0000 0.0000 14.0835
#
#
#
# Elastic Compliance Matrix: (Units=1/GPa)
#
#
# Indices 1 2 3 4 5 6 
#
# 1 0.006513 -0.001168 -0.000408 0.000000 0.000000 0.000000
# 2 -0.001168 0.009597 -0.004117 0.000000 0.000000 0.000000
# 3 -0.000408 -0.004117 0.011885 0.000000 0.000000 0.000000
# 4 0.000000 0.000000 0.000000 0.040353 0.000000 0.000000
# 5 0.000000 0.000000 0.000000 0.000000 0.039279 0.000000
# 6 0.000000 0.000000 0.000000 0.000000 0.000000 0.071005
#
#
# Mechanical properties :
#
#
# Convention : Reuss Voigt Hill
#
# Bulk Modulus (GPa) = 60.21404 61.61407 60.91405
# Shear Modulus (GPa) = 25.56830 32.93998 29.25414
#
# Velocity S-wave (km/s) = 3.17675 3.60573 3.39802
# Velocity P-wave (km/s) = 6.10097 6.45398 6.27996
#
# Compressibility (1/GPa) = 0.01660742
#
# Stress axis : x y z
#
# Youngs Moduli (GPa) = 153.54155 104.19969 84.14241
#
# Poissons Ratio (x) = 0.12171 0.03437
# Poissons Ratio (y) = 0.17935 0.34641
# Poissons Ratio (z) = 0.06271 0.42899
#
# Static dielectric constant tensor:
#      x y z
#    x 2.151770 0.000000 0.000000 
#    y 0.000000 1.937080 0.000000 
#    z 0.000000 0.000000 2.069440 
# 
# From -- ./inp_files/1049.got.cif
#   From: 2010.05.17/outbox.cif.g08.bks.cpg/sg20_1_cif.got.tgz:1049.got - 2010.06.03 22:52:26.
