data_PCOD9320626
_publ_section_title
;
Structure prediction by ZEFSAII (Michael W. Deem and Ramdas Pophale) SiO2 
 PCOD9320626
Probable space group: C 2 2 21
;
_chemical_formula_sum "Si O2"
_cell_formula_units_Z 40
_cell_length_a 8.222875
_cell_length_b 11.167338
_cell_length_c 17.605515
_cell_angle_alpha 90.000000
_cell_angle_beta 90.000000
_cell_angle_gamma 90.000000
_cell_volume 1616.672620
_symmetry_space_group_name_H-M "C 2 2 21"
_symmetry_group_IT_number 20
_symmetry_cell_setting 'orthorhombic'
loop_
_space_group_symop_operation_xyz
x,y,z
-x,-y,1/2+z
x,-y,-z
-x,y,1/2-z
1/2+x,1/2+y,z
1/2-x,1/2-y,1/2+z
1/2+x,1/2-y,-z
1/2-x,1/2+y,1/2-z
loop_
_atom_site_type_symbol
_atom_site_label
_atom_site_fract_x
_atom_site_fract_y
_atom_site_fract_z
Si Si1 0.634103 0.747587 0.164502
Si Si2 0.619091 0.510217 0.884473
Si Si3 0.149985 0.242464 0.800024
Si Si4 0.466653 0.918539 0.062435
Si Si5 0.039879 0.230368 0.563736
O O1 0.562682 0.621068 0.136802
O O2 0.688515 0.735972 0.252178
O O3 0.542841 0.868258 0.139557
O O4 0.800791 0.760356 0.115284
O O5 0.631936 0.598830 0.811512
O O6 0.802335 0.511035 0.917220
O O7 0.510602 0.591800 0.940070
O O8 0.110348 0.285333 0.885501
O O9 0.000000 0.288935 0.750000
O O10 0.435438 0.797772 0.014212
O O11 0.558535 0.000000 0.000000
#
# Coordination Sequence:
#
# PCOD9320626 Si02
#       5
#     8   8   8   8   8
#     4  11  22  45  67  92 137 176 221 274 335 402
#     4  10  23  44  66  92 136 174 217 277 335 388
#     4   8  20  43  65  95 127 175 217 271 330 389
#     4  12  24  40  64 102 130 171 228 272 335 398
#     4   9  21  43  63  92 132 172 217 271 336 385
#
# _framework density 24.742175
#
# number of rings (size 3 to 8) (size 9 to 14) (size 15 to 20)
#    1.200    0.800    2.000    1.200    0.000    2.400 
#   14.400    0.000    0.000    0.000    0.000    0.000 
#    0.000    0.000    0.000    0.000    0.000    0.000 
#
# Total GULP energy -111490.907348 kJ/mol
# GULP energy per Si atom -5574.545367 kJ/mol
# Density = 2.468586 g / cm^3
# Si number density = 24.742175 Si / 1000 Ang^3
#
#
#
# Elastic Constant Matrix: (Units=GPa)
#
#
# Indices 1 2 3 4 5 6 
#
# 1 39.1635 14.0554 17.0922 0.0000 0.0000 0.0000
# 2 14.0554 97.3626 3.6779 0.0000 0.0000 0.0000
# 3 17.0922 3.6779 71.6688 0.0000 0.0000 0.0000
# 4 0.0000 0.0000 0.0000 47.8376 0.0000 0.0000
# 5 0.0000 0.0000 0.0000 0.0000 29.9431 0.0000
# 6 0.0000 0.0000 0.0000 0.0000 0.0000 12.1963
#
#
#
# Elastic Compliance Matrix: (Units=1/GPa)
#
#
# Indices 1 2 3 4 5 6 
#
# 1 0.030030 -0.004073 -0.006953 0.000000 0.000000 0.000000
# 2 -0.004073 0.010843 0.000415 0.000000 0.000000 0.000000
# 3 -0.006953 0.000415 0.015590 0.000000 0.000000 0.000000
# 4 0.000000 0.000000 0.000000 0.020904 0.000000 0.000000
# 5 0.000000 0.000000 0.000000 0.000000 0.033397 0.000000
# 6 0.000000 0.000000 0.000000 0.000000 0.000000 0.081992
#
#
# Mechanical properties :
#
#
# Convention : Reuss Voigt Hill
#
# Bulk Modulus (GPa) = 28.37524 30.87177 29.62350
# Shear Modulus (GPa) = 22.15092 29.55337 25.85215
#
# Velocity S-wave (km/s) = 2.99535 3.45984 3.23594
# Velocity P-wave (km/s) = 4.84315 5.33527 5.09515
#
# Compressibility (1/GPa) = 0.03524200
#
# Stress axis : x y z
#
# Youngs Moduli (GPa) = 33.29996 92.22432 64.14379
#
# Poissons Ratio (x) = 0.37559 0.44598
# Poissons Ratio (y) = 0.13562 -0.02661
# Poissons Ratio (z) = 0.23153 -0.03826
#
# Static dielectric constant tensor:
#      x y z
#    x 2.043860 0.000000 0.000000 
#    y 0.000000 1.942090 0.000000 
#    z 0.000000 0.000000 2.029160 
# 
# From -- ./inp_files/26498.got.cif
#   From: 2010.05.17/outbox.cif.g08.bks.cpg/sg20_14_cif.got.tgz:26498.got - 2010.06.03 22:52:26.
