data_PCOD9320600
_publ_section_title
;
Structure prediction by ZEFSAII (Michael W. Deem and Ramdas Pophale) SiO2 
 PCOD9320600
Probable space group: C 2 2 21
;
_chemical_formula_sum "Si O2"
_cell_formula_units_Z 48
_cell_length_a 16.542780
_cell_length_b 13.141629
_cell_length_c 10.189440
_cell_angle_alpha 90.000000
_cell_angle_beta 90.000000
_cell_angle_gamma 90.000000
_cell_volume 2215.174855
_symmetry_space_group_name_H-M "C 2 2 21"
_symmetry_group_IT_number 20
_symmetry_cell_setting 'orthorhombic'
loop_
_space_group_symop_operation_xyz
x,y,z
-x,-y,1/2+z
x,-y,-z
-x,y,1/2-z
1/2+x,1/2+y,z
1/2-x,1/2-y,1/2+z
1/2+x,1/2-y,-z
1/2-x,1/2+y,1/2-z
loop_
_atom_site_type_symbol
_atom_site_label
_atom_site_fract_x
_atom_site_fract_y
_atom_site_fract_z
Si Si1 0.888416 0.279544 0.964287
Si Si2 0.235524 0.588800 0.607798
Si Si3 0.956616 0.067552 0.888364
Si Si4 0.035479 0.423448 0.882707
Si Si5 0.283321 0.529490 0.144795
Si Si6 0.812178 0.283631 0.689643
O O1 0.925871 0.167152 0.966410
O O2 0.823881 0.270059 0.845037
O O3 0.962665 0.349678 0.922510
O O4 0.843168 0.343890 0.075739
O O5 0.246094 0.500000 0.500000
O O6 0.233219 0.531084 0.745949
O O7 0.305354 0.674593 0.620007
O O8 0.000000 0.092978 0.750000
O O9 0.876188 0.005028 0.846548
O O10 0.001397 0.000000 0.000000
O O11 0.112781 0.352392 0.855774
O O12 0.000000 0.474693 0.750000
O O13 0.051959 0.500000 0.000000
O O14 0.266807 0.648305 0.164145
O O15 0.255789 0.500000 0.000000
#
# Coordination Sequence:
#
# PCOD9320600 Si02
#       6
#     8   8   8   8   8   8
#     4  11  23  44  67 102 139 187 231 299 362 433
#     4  12  24  42  73 105 140 185 244 295 359 440
#     4  11  24  47  72  99 147 192 247 304 371 439
#     4  10  23  43  70  94 136 181 231 289 365 427
#     4  11  24  42  71 106 139 186 234 302 364 433
#     4  11  23  43  68 101 137 184 237 295 360 431
#
# _framework density 21.668717999999998
#
# number of rings (size 3 to 8) (size 9 to 14) (size 15 to 20)
#    0.000    1.000    3.333    4.500    2.333    0.667 
#    0.000    0.833    0.000    0.000    0.000    0.000 
#    0.000    0.000    0.000    0.000    0.000    0.000 
#
# Total GULP energy -134026.722908 kJ/mol
# GULP energy per Si atom -5584.446788 kJ/mol
# Density = 2.161940 g / cm^3
# Si number density = 21.668718 Si / 1000 Ang^3
#
#
#
# Elastic Constant Matrix: (Units=GPa)
#
#
# Indices 1 2 3 4 5 6 
#
# 1 52.7354 19.9568 26.6765 0.0000 0.0000 0.0000
# 2 19.9568 142.4069 62.3226 0.0000 0.0000 0.0000
# 3 26.6765 62.3226 126.1664 0.0000 0.0000 0.0000
# 4 0.0000 0.0000 0.0000 35.9388 0.0000 0.0000
# 5 0.0000 0.0000 0.0000 0.0000 13.2049 0.0000
# 6 0.0000 0.0000 0.0000 0.0000 0.0000 -2.3731
#
#
#
# Elastic Compliance Matrix: (Units=1/GPa)
#
#
# Indices 1 2 3 4 5 6 
#
# 1 0.021421 -0.001301 -0.003887 0.000000 0.000000 0.000000
# 2 -0.001301 0.009038 -0.004189 0.000000 0.000000 0.000000
# 3 -0.003887 -0.004189 0.010817 0.000000 0.000000 0.000000
# 4 0.000000 0.000000 0.000000 0.027825 0.000000 0.000000
# 5 0.000000 0.000000 0.000000 0.000000 0.075729 0.000000
# 6 0.000000 0.000000 0.000000 0.000000 0.000000 -0.421385
#
#
# Mechanical properties :
#
#
# Convention : Reuss Voigt Hill
#
# Bulk Modulus (GPa) = 44.40062 59.91338 52.15700
# Shear Modulus (GPa) = -19.97659 23.51096 1.76718
#
# Velocity S-wave (km/s) = -3.03959 3.29754 0.90406
# Velocity P-wave (km/s) = 2.86641 6.49677 5.02117
#
# Compressibility (1/GPa) = 0.02252221
#
# Stress axis : x y z
#
# Youngs Moduli (GPa) = 46.68319 110.64541 92.44500
#
# Poissons Ratio (x) = 0.14395 0.35929
# Poissons Ratio (y) = 0.06074 0.38729
# Poissons Ratio (z) = 0.18144 0.46353
#
# Static dielectric constant tensor:
#      x y z
#    x 1.819010 0.000000 0.000000 
#    y 0.000000 1.815420 0.000000 
#    z 0.000000 0.000000 1.815620 
# 
# From -- ./inp_files/15704.got.cif
#   From: 2010.05.17/outbox.cif.g08.bks.cpg/sg20_8_cif.got.tgz:15704.got - 2010.06.03 22:52:26.
