data_PCOD9320967
_publ_section_title
;
Structure prediction by ZEFSAII (Michael W. Deem and Ramdas Pophale) SiO2 
 PCOD9320967
Probable space group: C 2 2 21
;
_chemical_formula_sum "Si O2"
_cell_formula_units_Z 32
_cell_length_a 8.090712
_cell_length_b 34.332670
_cell_length_c 4.936014
_cell_angle_alpha 90.000000
_cell_angle_beta 90.000000
_cell_angle_gamma 90.000000
_cell_volume 1371.104967
_symmetry_space_group_name_H-M "C 2 2 21"
_symmetry_group_IT_number 20
_symmetry_cell_setting 'orthorhombic'
loop_
_space_group_symop_operation_xyz
x,y,z
-x,-y,1/2+z
x,-y,-z
-x,y,1/2-z
1/2+x,1/2+y,z
1/2-x,1/2-y,1/2+z
1/2+x,1/2-y,-z
1/2-x,1/2+y,1/2-z
loop_
_atom_site_type_symbol
_atom_site_label
_atom_site_fract_x
_atom_site_fract_y
_atom_site_fract_z
Si Si1 0.309021 0.931824 0.727511
Si Si2 0.601665 0.500000 0.000000
Si Si3 0.000000 0.824614 0.250000
Si Si4 0.806452 0.379854 0.227515
Si Si5 0.644245 0.256574 0.904344
O O1 0.500000 0.943402 0.750000
O O2 0.284364 0.917221 0.423150
O O3 0.280564 0.894543 0.921535
O O4 0.202652 0.966861 0.843010
O O5 0.500000 0.481620 0.250000
O O6 0.162813 0.849985 0.308834
O O7 0.939141 0.795703 0.485321
O O8 0.000000 0.367295 0.250000
O O9 0.500000 0.233155 0.750000
O O10 0.780834 0.262809 0.672559
#
# Coordination Sequence:
#
# PCOD9320967 Si02
#       5
#     8   4   4   8   8
#     4  10  24  46  69  99 150 194 242 312 370 446
#     4  12  26  40  68 114 138 198 256 310 376 438
#     4  12  28  46  86 108 148 206 244 324 386 450
#     4  10  25  46  72 109 145 192 252 307 376 451
#     4  12  26  50  74 112 150 196 249 310 389 462
#
# _framework density 23.338840999999999
#
# number of rings (size 3 to 8) (size 9 to 14) (size 15 to 20)
#    0.000    1.000    2.500    1.500    8.750    5.000 
#    4.500    0.000    0.000    0.000    0.000    0.000 
#    0.000    0.000    0.000    0.000    0.000    0.000 
#
# Total GULP energy -89440.312982 kJ/mol
# GULP energy per Si atom -5590.019561 kJ/mol
# Density = 2.328572 g / cm^3
# Si number density = 23.338841 Si / 1000 Ang^3
#
#
#
# Elastic Constant Matrix: (Units=GPa)
#
#
# Indices 1 2 3 4 5 6 
#
# 1 159.9548 79.0789 59.0187 0.0000 0.0000 0.0000
# 2 79.0789 67.8835 13.7196 0.0000 0.0000 0.0000
# 3 59.0187 13.7196 135.1726 0.0000 0.0000 0.0000
# 4 0.0000 0.0000 0.0000 19.9509 0.0000 0.0000
# 5 0.0000 0.0000 0.0000 0.0000 58.0137 0.0000
# 6 0.0000 0.0000 0.0000 0.0000 0.0000 57.6850
#
#
#
# Elastic Compliance Matrix: (Units=1/GPa)
#
#
# Indices 1 2 3 4 5 6 
#
# 1 0.018572 -0.020415 -0.006037 0.000000 0.000000 0.000000
# 2 -0.020415 0.037480 0.005109 0.000000 0.000000 0.000000
# 3 -0.006037 0.005109 0.009515 0.000000 0.000000 0.000000
# 4 0.000000 0.000000 0.000000 0.050123 0.000000 0.000000
# 5 0.000000 0.000000 0.000000 0.000000 0.017237 0.000000
# 6 0.000000 0.000000 0.000000 0.000000 0.000000 0.017336
#
#
# Mechanical properties :
#
#
# Convention : Reuss Voigt Hill
#
# Bulk Modulus (GPa) = 43.70123 74.07169 58.88646
# Shear Modulus (GPa) = 24.92842 41.20949 33.06896
#
# Velocity S-wave (km/s) = 3.27174 4.20659 3.76827
# Velocity P-wave (km/s) = 5.74784 7.44313 6.64973
#
# Compressibility (1/GPa) = 0.02288265
#
# Stress axis : x y z
#
# Youngs Moduli (GPa) = 53.84524 26.68101 105.09596
#
# Poissons Ratio (x) = 0.54468 0.63444
# Poissons Ratio (y) = 1.09923 -0.53696
# Poissons Ratio (z) = 0.32505 -0.13632
#
# Static dielectric constant tensor:
#      x y z
#    x 1.951830 0.000000 0.000000 
#    y 0.000000 1.868630 0.000000 
#    z 0.000000 0.000000 1.855170 
# 
# From -- ./inp_files/729.got.cif
#   From: 2010.05.17/outbox.cif.g08.bks.cpg/sg20_1_cif.got.tgz:729.got - 2010.06.03 22:52:26.
