data_PCOD9320852
_publ_section_title
;
Structure prediction by ZEFSAII (Michael W. Deem and Ramdas Pophale) SiO2 
 PCOD9320852
Probable space group: C 2 2 21
;
_chemical_formula_sum "Si O2"
_cell_formula_units_Z 40
_cell_length_a 12.136222
_cell_length_b 12.828179
_cell_length_c 13.176695
_cell_angle_alpha 90.000000
_cell_angle_beta 90.000000
_cell_angle_gamma 90.000000
_cell_volume 2051.422039
_symmetry_space_group_name_H-M "C 2 2 21"
_symmetry_group_IT_number 20
_symmetry_cell_setting 'orthorhombic'
loop_
_space_group_symop_operation_xyz
x,y,z
-x,-y,1/2+z
x,-y,-z
-x,y,1/2-z
1/2+x,1/2+y,z
1/2-x,1/2-y,1/2+z
1/2+x,1/2-y,-z
1/2-x,1/2+y,1/2-z
loop_
_atom_site_type_symbol
_atom_site_label
_atom_site_fract_x
_atom_site_fract_y
_atom_site_fract_z
Si Si1 0.729149 0.819245 0.949049
Si Si2 0.876462 0.104669 0.233516
Si Si3 0.506950 0.192737 0.371060
Si Si4 0.238893 0.606278 0.439894
Si Si5 0.407024 0.421124 0.084206
O O1 0.807161 0.832045 0.850509
O O2 0.605573 0.848892 0.919848
O O3 0.726344 0.701892 0.988969
O O4 0.789684 0.886084 0.036373
O O5 0.812217 0.104045 0.338683
O O6 0.000000 0.146371 0.250000
O O7 0.889730 0.989150 0.184749
O O8 0.500000 0.186145 0.250000
O O9 0.613069 0.130118 0.408658
O O10 0.526749 0.314779 0.399383
O O11 0.248469 0.500000 0.500000
O O12 0.457819 0.500000 0.000000
#
# Coordination Sequence:
#
# PCOD9320852 Si02
#       5
#     8   8   8   8   8
#     4  10  24  43  66  91 133 168 206 261 331 376
#     4  11  24  42  67  99 125 162 222 268 312 379
#     4  11  22  44  64  92 131 169 207 262 324 378
#     4  11  27  40  64  95 127 168 215 260 315 384
#     4   9  22  40  67  98 123 166 211 263 322 370
#
# _framework density 19.498671000000002
#
# number of rings (size 3 to 8) (size 9 to 14) (size 15 to 20)
#    0.000    1.600    2.000    0.600   14.000    2.400 
#    0.000    1.000    0.000    0.000    0.000    0.000 
#    0.000    0.000    0.000    0.000    0.000    0.000 
#
# Total GULP energy -111775.275586 kJ/mol
# GULP energy per Si atom -5588.763779 kJ/mol
# Density = 1.945429 g / cm^3
# Si number density = 19.498671 Si / 1000 Ang^3
#
#
#
# Elastic Constant Matrix: (Units=GPa)
#
#
# Indices 1 2 3 4 5 6 
#
# 1 157.5401 4.6287 68.4732 0.0000 0.0000 0.0000
# 2 4.6287 66.6933 41.1345 0.0000 0.0000 0.0000
# 3 68.4732 41.1345 111.9269 0.0000 0.0000 0.0000
# 4 0.0000 0.0000 0.0000 32.5455 0.0000 0.0000
# 5 0.0000 0.0000 0.0000 0.0000 29.2169 0.0000
# 6 0.0000 0.0000 0.0000 0.0000 0.0000 4.4204
#
#
#
# Elastic Compliance Matrix: (Units=1/GPa)
#
#
# Indices 1 2 3 4 5 6 
#
# 1 0.009305 0.003705 -0.007054 0.000000 0.000000 0.000000
# 2 0.003705 0.020864 -0.009934 0.000000 0.000000 0.000000
# 3 -0.007054 -0.009934 0.016901 0.000000 0.000000 0.000000
# 4 0.000000 0.000000 0.000000 0.030726 0.000000 0.000000
# 5 0.000000 0.000000 0.000000 0.000000 0.034227 0.000000
# 6 0.000000 0.000000 0.000000 0.000000 0.000000 0.226222
#
#
# Mechanical properties :
#
#
# Convention : Reuss Voigt Hill
#
# Bulk Modulus (GPa) = 48.77391 62.73702 55.75546
# Shear Modulus (GPa) = 13.45369 28.03149 20.74259
#
# Velocity S-wave (km/s) = 2.62960 3.79570 3.26513
# Velocity P-wave (km/s) = 5.85559 7.17319 6.54762
#
# Compressibility (1/GPa) = 0.02050276
#
# Stress axis : x y z
#
# Youngs Moduli (GPa) = 107.47367 47.92934 59.16926
#
# Poissons Ratio (x) = -0.17757 0.41737
# Poissons Ratio (y) = -0.39817 0.58780
# Poissons Ratio (z) = 0.75810 0.47614
#
# Static dielectric constant tensor:
#      x y z
#    x 1.683580 0.000000 0.000000 
#    y 0.000000 1.684900 0.000000 
#    z 0.000000 0.000000 1.665720 
# 
# From -- ./inp_files/13875.got.cif
#   From: 2010.05.17/outbox.cif.g08.bks.cpg/sg20_7_cif.got.tgz:13875.got - 2010.06.03 22:52:26.
