data_PCOD9320482
_publ_section_title
;
Structure prediction by ZEFSAII (Michael W. Deem and Ramdas Pophale) SiO2 
 PCOD9320482
Probable space group: C 2 2 21
;
_chemical_formula_sum "Si O2"
_cell_formula_units_Z 64
_cell_length_a 13.870988
_cell_length_b 18.551341
_cell_length_c 12.193853
_cell_angle_alpha 90.000000
_cell_angle_beta 90.000000
_cell_angle_gamma 90.000000
_cell_volume 3137.788447
_symmetry_space_group_name_H-M "C 2 2 21"
_symmetry_group_IT_number 20
_symmetry_cell_setting 'orthorhombic'
loop_
_space_group_symop_operation_xyz
x,y,z
-x,-y,1/2+z
x,-y,-z
-x,y,1/2-z
1/2+x,1/2+y,z
1/2-x,1/2-y,1/2+z
1/2+x,1/2-y,-z
1/2-x,1/2+y,1/2-z
loop_
_atom_site_type_symbol
_atom_site_label
_atom_site_fract_x
_atom_site_fract_y
_atom_site_fract_z
Si Si1 0.359279 0.804373 0.463219
Si Si2 0.307664 0.418120 0.986118
Si Si3 0.421754 0.800680 0.980034
Si Si4 0.911262 0.157334 0.832768
Si Si5 0.783411 0.853021 0.549287
Si Si6 0.105144 0.348034 0.279126
Si Si7 0.712068 0.421476 0.175586
Si Si8 0.115214 0.929361 0.753311
O O1 0.279613 0.863514 0.492842
O O2 0.464158 0.820169 0.517042
O O3 0.319440 0.725312 0.491153
O O4 0.368667 0.805798 0.331254
O O5 0.348568 0.406977 0.865930
O O6 0.274206 0.500000 0.000000
O O7 0.391782 0.403519 0.075586
O O8 0.397331 0.798680 0.111114
O O9 0.414904 0.729266 0.905427
O O10 0.332998 0.849598 0.935502
O O11 0.824217 0.146657 0.747602
O O12 0.000000 0.149517 0.750000
O O13 0.806612 0.908089 0.451543
O O14 0.841848 0.875889 0.655878
O O15 0.174407 0.415349 0.303828
O O16 0.000000 0.376696 0.250000
O O17 0.660020 0.492505 0.217333
O O18 0.000000 0.932144 0.750000
#
# Coordination Sequence:
#
# PCOD9320482 Si02
#       8
#     8   8   8   8   8   8   8   8
#     4  11  22  42  69 104 136 184 230 291 359 425
#     4  12  26  47  69  99 140 183 241 294 354 434
#     4  10  23  41  67 104 137 182 229 288 353 425
#     4  12  24  41  67  99 138 183 227 287 361 419
#     4  11  25  42  68 100 142 180 235 298 356 429
#     4   9  19  38  68  96 135 180 233 280 348 424
#     4  11  22  45  64  96 138 185 231 289 353 429
#     4  12  29  43  67  98 139 185 236 297 358 435
#
# _framework density 20.396531
#
# number of rings (size 3 to 8) (size 9 to 14) (size 15 to 20)
#    0.000    1.000    3.750    1.500    5.250    2.500 
#    0.000    5.000    0.000    0.000    0.000    0.000 
#    0.000    0.000    0.000    0.000    0.000    0.000 
#
# Total GULP energy -178542.305098 kJ/mol
# GULP energy per Si atom -5579.447034 kJ/mol
# Density = 2.035011 g / cm^3
# Si number density = 20.396531 Si / 1000 Ang^3
#
#
#
# Elastic Constant Matrix: (Units=GPa)
#
#
# Indices 1 2 3 4 5 6 
#
# 1 144.3104 52.8807 68.4870 0.0000 0.0000 0.0000
# 2 52.8807 87.8057 57.3143 0.0000 0.0000 0.0000
# 3 68.4870 57.3143 129.6320 0.0000 0.0000 0.0000
# 4 0.0000 0.0000 0.0000 24.8494 0.0000 0.0000
# 5 0.0000 0.0000 0.0000 0.0000 38.3944 0.0000
# 6 0.0000 0.0000 0.0000 0.0000 0.0000 17.1879
#
#
#
# Elastic Compliance Matrix: (Units=1/GPa)
#
#
# Indices 1 2 3 4 5 6 
#
# 1 0.010005 -0.003620 -0.003685 0.000000 0.000000 0.000000
# 2 -0.003620 0.017319 -0.005745 0.000000 0.000000 0.000000
# 3 -0.003685 -0.005745 0.012201 0.000000 0.000000 0.000000
# 4 0.000000 0.000000 0.000000 0.040242 0.000000 0.000000
# 5 0.000000 0.000000 0.000000 0.000000 0.026045 0.000000
# 6 0.000000 0.000000 0.000000 0.000000 0.000000 0.058181
#
#
# Mechanical properties :
#
#
# Convention : Reuss Voigt Hill
#
# Bulk Modulus (GPa) = 74.48847 79.90135 77.19491
# Shear Modulus (GPa) = 25.69798 28.29073 26.99435
#
# Velocity S-wave (km/s) = 3.55338 3.72833 3.64191
# Velocity P-wave (km/s) = 7.30991 7.60217 7.45747
#
# Compressibility (1/GPa) = 0.01342490
#
# Stress axis : x y z
#
# Youngs Moduli (GPa) = 99.95045 57.74135 81.96007
#
# Poissons Ratio (x) = 0.20902 0.30205
# Poissons Ratio (y) = 0.36181 0.47083
# Poissons Ratio (z) = 0.36835 0.33170
#
# Static dielectric constant tensor:
#      x y z
#    x 1.820840 0.000000 0.000000 
#    y 0.000000 1.727530 0.000000 
#    z 0.000000 0.000000 1.736560 
# 
# From -- ./inp_files/15336.got.cif
#   From: 2010.05.17/outbox.cif.g08.bks.cpg/sg20_8_cif.got.tgz:15336.got - 2010.06.03 22:52:26.
