data_PCOD9320224
_publ_section_title
;
Structure prediction by ZEFSAII (Michael W. Deem and Ramdas Pophale) SiO2 
 PCOD9320224
Probable space group: C 2 2 21
;
_chemical_formula_sum "Si O2"
_cell_formula_units_Z 60
_cell_length_a 25.158096
_cell_length_b 9.258804
_cell_length_c 14.397348
_cell_angle_alpha 90.000000
_cell_angle_beta 90.000000
_cell_angle_gamma 90.000000
_cell_volume 3353.630130
_symmetry_space_group_name_H-M "C 2 2 21"
_symmetry_group_IT_number 20
_symmetry_cell_setting 'orthorhombic'
loop_
_space_group_symop_operation_xyz
x,y,z
-x,-y,1/2+z
x,-y,-z
-x,y,1/2-z
1/2+x,1/2+y,z
1/2-x,1/2-y,1/2+z
1/2+x,1/2-y,-z
1/2-x,1/2+y,1/2-z
loop_
_atom_site_type_symbol
_atom_site_label
_atom_site_fract_x
_atom_site_fract_y
_atom_site_fract_z
Si Si1 0.555184 0.170698 0.492976
Si Si2 0.442110 0.335384 0.200566
Si Si3 0.045893 0.155606 0.024246
Si Si4 0.862179 0.840080 0.661335
Si Si5 0.136263 0.832158 0.134591
Si Si6 0.801984 0.339366 0.493439
Si Si7 0.613982 0.621802 0.363027
Si Si8 0.698401 0.500000 0.500000
O O1 0.561039 0.233234 0.389041
O O2 0.495099 0.215304 0.519632
O O3 0.590959 0.264063 0.563800
O O4 0.564308 0.000000 0.500000
O O5 0.500000 0.329282 0.250000
O O6 0.396004 0.290593 0.273352
O O7 0.428749 0.499757 0.168508
O O8 0.077783 0.156392 0.120308
O O9 0.091433 0.167209 0.946119
O O10 0.019508 0.000000 0.000000
O O11 0.826817 0.742025 0.594364
O O12 0.864997 0.803565 0.769271
O O13 0.843558 0.005436 0.650256
O O14 0.182709 0.738317 0.089527
O O15 0.826243 0.500000 0.500000
O O16 0.739205 0.367818 0.483213
O O17 0.661011 0.535048 0.413649
#
# Coordination Sequence:
#
# PCOD9320224 Si02
#       8
#     8   8   8   8   8   8   8   4
#     4  12  25  38  54  91 134 166 197 256 318 365
#     4  11  21  40  67  93 120 173 214 247 302 381
#     4   9  17  34  58  87 121 157 203 245 296 369
#     4   9  20  37  64  93 114 157 216 256 300 367
#     4   9  18  35  63  92 118 153 214 260 288 368
#     4   9  20  38  62  89 124 155 197 257 334 358
#     4  11  23  43  66  85 125 165 222 254 299 389
#     4  10  22  44  64  84 124 172 204 266 320 366
#
# _framework density 17.89106
#
# number of rings (size 3 to 8) (size 9 to 14) (size 15 to 20)
#    0.400    1.600    2.667    2.000    3.733    3.200 
#    7.200    1.333    0.000    0.000    0.000    0.000 
#    0.000    0.000    0.000    0.000    0.000    0.000 
#
# Total GULP energy -167178.366021 kJ/mol
# GULP energy per Si atom -5572.612201 kJ/mol
# Density = 1.785034 g / cm^3
# Si number density = 17.891060 Si / 1000 Ang^3
#
#
#
# Elastic Constant Matrix: (Units=GPa)
#
#
# Indices 1 2 3 4 5 6 
#
# 1 65.0636 30.5497 50.1859 0.0000 0.0000 0.0000
# 2 30.5497 84.4967 52.1433 0.0000 0.0000 0.0000
# 3 50.1859 52.1433 149.0656 0.0000 0.0000 0.0000
# 4 0.0000 0.0000 0.0000 18.7245 0.0000 0.0000
# 5 0.0000 0.0000 0.0000 0.0000 15.7307 0.0000
# 6 0.0000 0.0000 0.0000 0.0000 0.0000 28.1754
#
#
#
# Elastic Compliance Matrix: (Units=1/GPa)
#
#
# Indices 1 2 3 4 5 6 
#
# 1 0.021921 -0.004299 -0.005876 0.000000 0.000000 0.000000
# 2 -0.004299 0.015936 -0.004127 0.000000 0.000000 0.000000
# 3 -0.005876 -0.004127 0.010130 0.000000 0.000000 0.000000
# 4 0.000000 0.000000 0.000000 0.053406 0.000000 0.000000
# 5 0.000000 0.000000 0.000000 0.000000 0.063570 0.000000
# 6 0.000000 0.000000 0.000000 0.000000 0.000000 0.035492
#
#
# Mechanical properties :
#
#
# Convention : Reuss Voigt Hill
#
# Bulk Modulus (GPa) = 51.59338 62.70928 57.15133
# Shear Modulus (GPa) = 21.22957 23.57591 22.40274
#
# Velocity S-wave (km/s) = 3.44845 3.63402 3.54245
# Velocity P-wave (km/s) = 6.68998 7.26188 6.98179
#
# Compressibility (1/GPa) = 0.01938233
#
# Stress axis : x y z
#
# Youngs Moduli (GPa) = 45.61892 62.75121 98.71260
#
# Poissons Ratio (x) = 0.26978 0.58005
# Poissons Ratio (y) = 0.19612 0.40739
# Poissons Ratio (z) = 0.26807 0.25897
#
# Static dielectric constant tensor:
#      x y z
#    x 1.623240 0.000000 0.000000 
#    y 0.000000 1.618200 0.000000 
#    z 0.000000 0.000000 1.631160 
# 
# From -- ./inp_files/22210.got.cif
#   From: 2010.05.17/outbox.cif.g08.bks.cpg/sg20_12_cif.got.tgz:22210.got - 2010.06.03 22:52:26.
