data_PCOD9320582
_publ_section_title
;
Structure prediction by ZEFSAII (Michael W. Deem and Ramdas Pophale) SiO2 
 PCOD9320582
Probable space group: C 2 2 21
;
_chemical_formula_sum "Si O2"
_cell_formula_units_Z 52
_cell_length_a 5.266187
_cell_length_b 14.008254
_cell_length_c 28.470484
_cell_angle_alpha 90.000000
_cell_angle_beta 90.000000
_cell_angle_gamma 90.000000
_cell_volume 2100.270028
_symmetry_space_group_name_H-M "C 2 2 21"
_symmetry_group_IT_number 20
_symmetry_cell_setting 'orthorhombic'
loop_
_space_group_symop_operation_xyz
x,y,z
-x,-y,1/2+z
x,-y,-z
-x,y,1/2-z
1/2+x,1/2+y,z
1/2-x,1/2-y,1/2+z
1/2+x,1/2-y,-z
1/2-x,1/2+y,1/2-z
loop_
_atom_site_type_symbol
_atom_site_label
_atom_site_fract_x
_atom_site_fract_y
_atom_site_fract_z
Si Si1 0.500000 0.875439 0.750000
Si Si2 0.667147 0.000000 0.500000
Si Si3 0.127364 0.805006 0.013826
Si Si4 0.723146 0.452894 0.835193
Si Si5 0.752020 0.763312 0.145522
Si Si6 0.932539 0.398438 0.089425
Si Si7 0.760423 0.709504 0.793387
Si Si8 0.500000 0.459939 0.250000
O O1 0.724530 0.802502 0.761567
O O2 0.434299 0.934535 0.795446
O O3 0.840567 0.908184 0.510631
O O4 0.508474 0.967943 0.454665
O O5 0.174400 0.663358 0.895401
O O6 0.351671 0.738721 0.992936
O O7 0.223953 0.826513 0.066869
O O8 0.711161 0.350901 0.862057
O O9 0.807383 0.536321 0.870225
O O10 0.492437 0.481772 0.799340
O O11 0.023291 0.781967 0.169805
O O12 0.022329 0.288556 0.180500
O O13 0.719087 0.615592 0.762623
#
# Coordination Sequence:
#
# PCOD9320582 Si02
#       8
#     4   4   8   8   8   8   8   4
#     4   9  22  40  65  96 146 196 241 300 370 425
#     4   8  24  48  74 114 144 190 254 314 396 462
#     4  10  24  49  77 108 151 194 239 317 391 454
#     4  11  23  42  71 111 148 206 254 312 373 458
#     4  11  24  46  66 103 146 190 244 307 364 442
#     4  10  24  46  75 113 142 196 257 313 383 466
#     4  10  23  43  66  96 144 197 244 294 363 433
#     4  11  22  38  65 102 150 196 245 306 352 441
#
# _framework density 24.758723
#
# number of rings (size 3 to 8) (size 9 to 14) (size 15 to 20)
#    0.923    0.923    1.538    0.923    4.308    6.769 
#    2.769    0.000    0.000    0.000    0.000    0.000 
#    0.000    0.000    0.000    0.000    0.000    0.000 
#
# Total GULP energy -145181.831784 kJ/mol
# GULP energy per Si atom -5583.916607 kJ/mol
# Density = 2.470237 g / cm^3
# Si number density = 24.758723 Si / 1000 Ang^3
#
#
#
# Elastic Constant Matrix: (Units=GPa)
#
#
# Indices 1 2 3 4 5 6 
#
# 1 107.5585 31.6058 49.8728 0.0000 0.0000 0.0000
# 2 31.6058 172.4006 61.0697 0.0000 0.0000 0.0000
# 3 49.8728 61.0697 148.7401 0.0000 0.0000 0.0000
# 4 0.0000 0.0000 0.0000 59.6653 0.0000 0.0000
# 5 0.0000 0.0000 0.0000 0.0000 25.9741 0.0000
# 6 0.0000 0.0000 0.0000 0.0000 0.0000 2.5692
#
#
#
# Elastic Compliance Matrix: (Units=1/GPa)
#
#
# Indices 1 2 3 4 5 6 
#
# 1 0.011112 -0.000839 -0.003381 0.000000 0.000000 0.000000
# 2 -0.000839 0.006851 -0.002531 0.000000 0.000000 0.000000
# 3 -0.003381 -0.002531 0.008896 0.000000 0.000000 0.000000
# 4 0.000000 0.000000 0.000000 0.016760 0.000000 0.000000
# 5 0.000000 0.000000 0.000000 0.000000 0.038500 0.000000
# 6 0.000000 0.000000 0.000000 0.000000 0.000000 0.389233
#
#
# Mechanical properties :
#
#
# Convention : Reuss Voigt Hill
#
# Bulk Modulus (GPa) = 74.87836 79.31065 77.09450
# Shear Modulus (GPa) = 10.21852 36.71846 23.46849
#
# Velocity S-wave (km/s) = 2.03376 3.85522 3.08212
# Velocity P-wave (km/s) = 5.98530 7.20555 6.62358
#
# Compressibility (1/GPa) = 0.01335499
#
# Stress axis : x y z
#
# Youngs Moduli (GPa) = 89.99543 145.96310 112.40752
#
# Poissons Ratio (x) = 0.12252 0.38006
# Poissons Ratio (y) = 0.07554 0.28456
# Poissons Ratio (z) = 0.30429 0.36950
#
# Static dielectric constant tensor:
#      x y z
#    x 2.058300 0.000000 0.000000 
#    y 0.000000 2.015070 0.000000 
#    z 0.000000 0.000000 2.075160 
# 
# From -- ./inp_files/29916.got.cif
#   From: 2010.05.17/outbox.cif.g08.bks.cpg/sg20_15_cif.got.tgz:29916.got - 2010.06.03 22:52:26.
