data_PCOD9320496
_publ_section_title
;
Structure prediction by ZEFSAII (Michael W. Deem and Ramdas Pophale) SiO2 
 PCOD9320496
Probable space group: C 2 2 21
;
_chemical_formula_sum "Si O2"
_cell_formula_units_Z 36
_cell_length_a 7.661274
_cell_length_b 23.120423
_cell_length_c 9.869818
_cell_angle_alpha 90.000000
_cell_angle_beta 90.000000
_cell_angle_gamma 90.000000
_cell_volume 1748.259572
_symmetry_space_group_name_H-M "C 2 2 21"
_symmetry_group_IT_number 20
_symmetry_cell_setting 'orthorhombic'
loop_
_space_group_symop_operation_xyz
x,y,z
-x,-y,1/2+z
x,-y,-z
-x,y,1/2-z
1/2+x,1/2+y,z
1/2-x,1/2-y,1/2+z
1/2+x,1/2-y,-z
1/2-x,1/2+y,1/2-z
loop_
_atom_site_type_symbol
_atom_site_label
_atom_site_fract_x
_atom_site_fract_y
_atom_site_fract_z
Si Si1 0.323438 0.993129 0.658439
Si Si2 0.707354 0.134137 0.237686
Si Si3 0.863842 0.837115 0.472668
Si Si4 0.886497 0.757475 0.884244
Si Si5 0.000000 0.073739 0.750000
O O1 0.500000 0.000054 0.750000
O O2 0.167721 0.035793 0.704749
O O3 0.368560 0.000000 0.500000
O O4 0.250921 0.927924 0.674675
O O5 0.500000 0.134922 0.250000
O O6 0.808870 0.138787 0.380448
O O7 0.757342 0.189895 0.150746
O O8 0.696937 0.803710 0.415555
O O9 0.999819 0.784632 0.495529
O O10 0.939146 0.885256 0.373756
O O11 0.000000 0.750528 0.750000
#
# Coordination Sequence:
#
# PCOD9320496 Si02
#       5
#     8   8   8   8   4
#     4  11  28  49  76 108 146 195 249 306 371 440
#     4  10  23  44  74  97 142 185 237 300 363 435
#     4  11  25  43  68 108 140 192 237 300 371 436
#     4  10  23  41  69  99 140 184 237 295 360 436
#     4  12  30  42  80 106 156 186 254 304 370 444
#
# _framework density 20.591906999999999
#
# number of rings (size 3 to 8) (size 9 to 14) (size 15 to 20)
#    0.000    1.333    0.000    2.667   21.778    0.889 
#    0.000    0.000    0.000    0.000    0.000    0.000 
#    0.000    0.000    0.000    0.000    0.000    0.000 
#
# Total GULP energy -100586.582820 kJ/mol
# GULP energy per Si atom -5588.143490 kJ/mol
# Density = 2.054504 g / cm^3
# Si number density = 20.591907 Si / 1000 Ang^3
#
#
#
# Elastic Constant Matrix: (Units=GPa)
#
#
# Indices 1 2 3 4 5 6 
#
# 1 71.2317 26.8089 32.9143 0.0000 0.0000 0.0000
# 2 26.8089 100.5649 49.0238 0.0000 0.0000 0.0000
# 3 32.9143 49.0238 108.1268 0.0000 0.0000 0.0000
# 4 0.0000 0.0000 0.0000-1147.4830 0.0000 0.0000
# 5 0.0000 0.0000 0.0000 0.0000 22.8648 0.0000
# 6 0.0000 0.0000 0.0000 0.0000 0.0000 49.2703
#
#
#
# Elastic Compliance Matrix: (Units=1/GPa)
#
#
# Indices 1 2 3 4 5 6 
#
# 1 0.016832 -0.002554 -0.003966 0.000000 0.000000 0.000000
# 2 -0.002554 0.013153 -0.005186 0.000000 0.000000 0.000000
# 3 -0.003966 -0.005186 0.012807 0.000000 0.000000 0.000000
# 4 0.000000 0.000000 0.000000 -0.000871 0.000000 0.000000
# 5 0.000000 0.000000 0.000000 0.000000 0.043735 0.000000
# 6 0.000000 0.000000 0.000000 0.000000 0.000000 0.020296
#
#
# Mechanical properties :
#
#
# Convention : Reuss Voigt Hill
#
# Bulk Modulus (GPa) = 51.59822 55.26861 53.43342
# Shear Modulus (GPa) = 36.81242 -203.65780 -83.42269
#
# Velocity S-wave (km/s) = 4.23272 -9.95573 -6.37184
# Velocity P-wave (km/s) = 6.99999 10.25949 5.30365
#
# Compressibility (1/GPa) = 0.01938051
#
# Stress axis : x y z
#
# Youngs Moduli (GPa) = 59.40909 76.03000 78.08288
#
# Poissons Ratio (x) = 0.19417 0.30967
# Poissons Ratio (y) = 0.15173 0.40493
# Poissons Ratio (z) = 0.23561 0.39428
#
# Static dielectric constant tensor:
#      x y z
#    x 2.052990 0.000000 0.000000 
#    y 0.000000 1.728150 0.000000 
#    z 0.000000 0.000000 1.718850 
# 
# From -- ./inp_files/5899.got.cif
#   From: 2010.05.17/outbox.cif.g08.bks.cpg/sg20_3_cif.got.tgz:5899.got - 2010.06.03 22:52:26.
