data_PCOD9320673
_publ_section_title
;
Structure prediction by ZEFSAII (Michael W. Deem and Ramdas Pophale) SiO2 
 PCOD9320673
Probable space group: C 2 2 21
;
_chemical_formula_sum "Si O2"
_cell_formula_units_Z 28
_cell_length_a 17.704092
_cell_length_b 9.059283
_cell_length_c 7.046255
_cell_angle_alpha 90.000000
_cell_angle_beta 90.000000
_cell_angle_gamma 90.000000
_cell_volume 1130.123330
_symmetry_space_group_name_H-M "C 2 2 21"
_symmetry_group_IT_number 20
_symmetry_cell_setting 'orthorhombic'
loop_
_space_group_symop_operation_xyz
x,y,z
-x,-y,1/2+z
x,-y,-z
-x,y,1/2-z
1/2+x,1/2+y,z
1/2-x,1/2-y,1/2+z
1/2+x,1/2-y,-z
1/2-x,1/2+y,1/2-z
loop_
_atom_site_type_symbol
_atom_site_label
_atom_site_fract_x
_atom_site_fract_y
_atom_site_fract_z
Si Si1 0.418393 0.387310 0.754409
Si Si2 0.206570 0.000000 0.500000
Si Si3 0.351543 0.836265 0.544732
Si Si4 0.567424 0.841313 0.597462
O O1 0.500000 0.466944 0.750000
O O2 0.392858 0.291698 0.572826
O O3 0.348327 0.485190 0.820233
O O4 0.431779 0.273108 0.926589
O O5 0.264452 0.862551 0.490177
O O6 0.360203 0.821972 0.768662
O O7 0.386543 0.000000 0.500000
O O8 0.500000 0.825684 0.750000
O O9 0.566333 0.000000 0.500000
#
# Coordination Sequence:
#
# PCOD9320673 Si02
#       4
#     8   4   8   8
#     4  12  25  47  70 103 148 188 246 297 363 445
#     4  10  28  46  68 104 144 194 236 292 372 434
#     4  10  23  45  69 105 141 185 243 304 363 419
#     4  12  21  38  72 107 137 186 244 304 356 421
#
# _framework density 24.776057999999999
#
# number of rings (size 3 to 8) (size 9 to 14) (size 15 to 20)
#    0.857    0.000    5.714    1.714    4.000    1.143 
#    0.000    0.000    0.000    0.000    0.000    0.000 
#    0.000    0.000    0.000    0.000    0.000    0.000 
#
# Total GULP energy -78329.697880 kJ/mol
# GULP energy per Si atom -5594.978420 kJ/mol
# Density = 2.471967 g / cm^3
# Si number density = 24.776058 Si / 1000 Ang^3
#
#
#
# Elastic Constant Matrix: (Units=GPa)
#
#
# Indices 1 2 3 4 5 6 
#
# 1 186.4477 28.9377 38.0760 0.0000 0.0000 0.0000
# 2 28.9377 74.2699 27.7722 0.0000 0.0000 0.0000
# 3 38.0760 27.7722 130.8070 0.0000 0.0000 0.0000
# 4 0.0000 0.0000 0.0000 47.7593 0.0000 0.0000
# 5 0.0000 0.0000 0.0000 0.0000 45.5815 0.0000
# 6 0.0000 0.0000 0.0000 0.0000 0.0000 21.3026
#
#
#
# Elastic Compliance Matrix: (Units=1/GPa)
#
#
# Indices 1 2 3 4 5 6 
#
# 1 0.005917 -0.001805 -0.001339 0.000000 0.000000 0.000000
# 2 -0.001805 0.015176 -0.002697 0.000000 0.000000 0.000000
# 3 -0.001339 -0.002697 0.008607 0.000000 0.000000 0.000000
# 4 0.000000 0.000000 0.000000 0.020938 0.000000 0.000000
# 5 0.000000 0.000000 0.000000 0.000000 0.021939 0.000000
# 6 0.000000 0.000000 0.000000 0.000000 0.000000 0.046943
#
#
# Mechanical properties :
#
#
# Convention : Reuss Voigt Hill
#
# Bulk Modulus (GPa) = 55.49710 64.56627 60.03169
# Shear Modulus (GPa) = 36.44117 42.71126 39.57621
#
# Velocity S-wave (km/s) = 3.83929 4.15648 4.00103
# Velocity P-wave (km/s) = 6.48858 7.01082 6.75475
#
# Compressibility (1/GPa) = 0.01801896
#
# Stress axis : x y z
#
# Youngs Moduli (GPa) = 169.00409 65.89361 116.18133
#
# Poissons Ratio (x) = 0.11892 0.15559
# Poissons Ratio (y) = 0.30500 0.31331
# Poissons Ratio (z) = 0.22633 0.17770
#
# Static dielectric constant tensor:
#      x y z
#    x 2.067740 0.000000 0.000000 
#    y 0.000000 1.984460 0.000000 
#    z 0.000000 0.000000 1.943690 
# 
# From -- ./inp_files/2355.got.cif
#   From: 2010.05.17/outbox.cif.g08.bks.cpg/sg20_2_cif.got.tgz:2355.got - 2010.06.03 22:52:26.
