data_PCOD9320024
_publ_section_title
;
Structure prediction by ZEFSAII (Michael W. Deem and Ramdas Pophale) SiO2 
 PCOD9320024
Probable space group: C 2 2 21
;
_chemical_formula_sum "Si O2"
_cell_formula_units_Z 32
_cell_length_a 18.881734
_cell_length_b 7.509752
_cell_length_c 10.960896
_cell_angle_alpha 90.000000
_cell_angle_beta 90.000000
_cell_angle_gamma 90.000000
_cell_volume 1554.223701
_symmetry_space_group_name_H-M "C 2 2 21"
_symmetry_group_IT_number 20
_symmetry_cell_setting 'orthorhombic'
loop_
_space_group_symop_operation_xyz
x,y,z
-x,-y,1/2+z
x,-y,-z
-x,y,1/2-z
1/2+x,1/2+y,z
1/2-x,1/2-y,1/2+z
1/2+x,1/2-y,-z
1/2-x,1/2+y,1/2-z
loop_
_atom_site_type_symbol
_atom_site_label
_atom_site_fract_x
_atom_site_fract_y
_atom_site_fract_z
Si Si1 0.331944 0.475291 0.291992
Si Si2 0.613940 0.796480 0.606846
Si Si3 0.325198 0.150408 0.835515
Si Si4 0.019952 0.899838 0.119703
O O1 0.349224 0.375177 0.165617
O O2 0.333076 0.685615 0.258650
O O3 0.256995 0.407449 0.341153
O O4 0.395566 0.404061 0.377111
O O5 0.643018 0.807182 0.469449
O O6 0.529124 0.774316 0.615040
O O7 0.635190 0.964530 0.690333
O O8 0.000000 0.988476 0.250000
O O9 0.995340 0.000000 0.000000
#
# Coordination Sequence:
#
# PCOD9320024 Si02
#       4
#     8   8   8   8
#     4  11  22  40  67  99 133 174 231 281 338 410
#     4  10  22  42  63  94 136 177 223 283 344 408
#     4  11  22  39  70  97 131 180 226 283 351 398
#     4  10  22  42  67  95 136 181 221 282 341 404
#
# _framework density 20.589057
#
# number of rings (size 3 to 8) (size 9 to 14) (size 15 to 20)
#    0.000    1.500    2.500    3.750    3.500    0.000 
#    0.000   26.250   11.000    0.000    0.000    0.000 
#    0.000    0.000    0.000    0.000    0.000    0.000 
#
# Total GULP energy -89080.589231 kJ/mol
# GULP energy per Si atom -5567.536827 kJ/mol
# Density = 2.054220 g / cm^3
# Si number density = 20.589057 Si / 1000 Ang^3
#
#
#
# Elastic Constant Matrix: (Units=GPa)
#
#
# Indices 1 2 3 4 5 6 
#
# 1 183.1013 69.7093 23.7406 0.0000 0.0000 0.0000
# 2 69.7093 101.0217 -0.1229 0.0000 0.0000 0.0000
# 3 23.7406 -0.1229 70.1132 0.0000 0.0000 0.0000
# 4 0.0000 0.0000 0.0000 26.4665 0.0000 0.0000
# 5 0.0000 0.0000 0.0000 0.0000 16.3672 0.0000
# 6 0.0000 0.0000 0.0000 0.0000 0.0000 -0.6059
#
#
#
# Elastic Compliance Matrix: (Units=1/GPa)
#
#
# Indices 1 2 3 4 5 6 
#
# 1 0.007880 -0.005441 -0.002678 0.000000 0.000000 0.000000
# 2 -0.005441 0.013656 0.001866 0.000000 0.000000 0.000000
# 3 -0.002678 0.001866 0.015173 0.000000 0.000000 0.000000
# 4 0.000000 0.000000 0.000000 0.037784 0.000000 0.000000
# 5 0.000000 0.000000 0.000000 0.000000 0.061098 0.000000
# 6 0.000000 0.000000 0.000000 0.000000 0.000000 -1.650444
#
#
# Mechanical properties :
#
#
# Convention : Reuss Voigt Hill
#
# Bulk Modulus (GPa) = 41.31637 60.09891 50.70764
# Shear Modulus (GPa) = -3.34609 25.83951 11.24671
#
# Velocity S-wave (km/s) = -1.27621 3.54646 2.33973
# Velocity P-wave (km/s) = 4.23546 6.78402 5.65518
#
# Compressibility (1/GPa) = 0.02420348
#
# Stress axis : x y z
#
# Youngs Moduli (GPa) = 126.90274 73.23040 65.90822
#
# Poissons Ratio (x) = 0.39843 0.17649
# Poissons Ratio (y) = 0.69046 -0.12300
# Poissons Ratio (z) = 0.33981 -0.13666
#
# Static dielectric constant tensor:
#      x y z
#    x 1.798670 0.000000 0.000000 
#    y 0.000000 1.809760 0.000000 
#    z 0.000000 0.000000 1.777510 
# 
# From -- ./inp_files/15491.got.cif
#   From: 2010.05.17/outbox.cif.g08.bks.cpg/sg20_8_cif.got.tgz:15491.got - 2010.06.03 22:52:26.
