data_PCOD9320808
_publ_section_title
;
Structure prediction by ZEFSAII (Michael W. Deem and Ramdas Pophale) SiO2 
 PCOD9320808
Probable space group: C 2 2 21
;
_chemical_formula_sum "Si O2"
_cell_formula_units_Z 32
_cell_length_a 9.564575
_cell_length_b 16.155532
_cell_length_c 7.526266
_cell_angle_alpha 90.000000
_cell_angle_beta 90.000000
_cell_angle_gamma 90.000000
_cell_volume 1162.964624
_symmetry_space_group_name_H-M "C 2 2 21"
_symmetry_group_IT_number 20
_symmetry_cell_setting 'orthorhombic'
loop_
_space_group_symop_operation_xyz
x,y,z
-x,-y,1/2+z
x,-y,-z
-x,y,1/2-z
1/2+x,1/2+y,z
1/2-x,1/2-y,1/2+z
1/2+x,1/2-y,-z
1/2-x,1/2+y,1/2-z
loop_
_atom_site_type_symbol
_atom_site_label
_atom_site_fract_x
_atom_site_fract_y
_atom_site_fract_z
Si Si1 0.352064 0.420740 0.924382
Si Si2 0.500000 0.263870 0.250000
Si Si3 0.500000 0.720804 0.250000
Si Si4 0.626462 0.096062 0.369770
Si Si5 0.720620 0.860019 0.262406
O O1 0.447893 0.341027 0.902621
O O2 0.267421 0.421581 0.740470
O O3 0.434163 0.500000 0.000000
O O4 0.240045 0.409236 0.080515
O O5 0.582257 0.194575 0.369428
O O6 0.371947 0.322262 0.310905
O O7 0.625854 0.782124 0.211349
O O8 0.500000 0.059755 0.250000
O O9 0.655604 0.085424 0.578856
#
# Coordination Sequence:
#
# PCOD9320808 Si02
#       5
#     8   4   4   8   8
#     4  12  30  50  74 121 170 216 269 347 434 505
#     4  10  24  41  77 128 144 198 272 346 396 471
#     4  12  26  51  85 118 160 220 292 342 408 517
#     4  10  24  46  75 115 156 209 277 337 411 494
#     4  12  26  46  87 116 159 213 283 349 412 495
#
# _framework density 27.515885000000001
#
# number of rings (size 3 to 8) (size 9 to 14) (size 15 to 20)
#    0.750    0.000    2.500    3.000   10.500    2.000 
#    6.750    0.000    0.000    0.000    0.000    0.000 
#    0.000    0.000    0.000    0.000    0.000    0.000 
#
# Total GULP energy -89512.054997 kJ/mol
# GULP energy per Si atom -5594.503437 kJ/mol
# Density = 2.745326 g / cm^3
# Si number density = 27.515885 Si / 1000 Ang^3
#
#
#
# Elastic Constant Matrix: (Units=GPa)
#
#
# Indices 1 2 3 4 5 6 
#
# 1 128.6476 24.8854 28.7386 0.0000 0.0000 0.0000
# 2 24.8854 113.2704 41.9030 0.0000 0.0000 0.0000
# 3 28.7386 41.9030 183.3517 0.0000 0.0000 0.0000
# 4 0.0000 0.0000 0.0000 43.7810 0.0000 0.0000
# 5 0.0000 0.0000 0.0000 0.0000 48.9927 0.0000
# 6 0.0000 0.0000 0.0000 0.0000 0.0000 31.9237
#
#
#
# Elastic Compliance Matrix: (Units=1/GPa)
#
#
# Indices 1 2 3 4 5 6 
#
# 1 0.008271 -0.001461 -0.000962 0.000000 0.000000 0.000000
# 2 -0.001461 0.009902 -0.002034 0.000000 0.000000 0.000000
# 3 -0.000962 -0.002034 0.006070 0.000000 0.000000 0.000000
# 4 0.000000 0.000000 0.000000 0.022841 0.000000 0.000000
# 5 0.000000 0.000000 0.000000 0.000000 0.020411 0.000000
# 6 0.000000 0.000000 0.000000 0.000000 0.000000 0.031325
#
#
# Mechanical properties :
#
#
# Convention : Reuss Voigt Hill
#
# Bulk Modulus (GPa) = 65.24250 68.48043 66.86146
# Shear Modulus (GPa) = 44.30925 46.92232 45.61578
#
# Velocity S-wave (km/s) = 4.01723 4.13398 4.07602
# Velocity P-wave (km/s) = 6.72903 6.90855 6.81938
#
# Compressibility (1/GPa) = 0.01532743
#
# Stress axis : x y z
#
# Youngs Moduli (GPa) = 120.90735 100.99118 164.75292
#
# Poissons Ratio (x) = 0.14755 0.15857
# Poissons Ratio (y) = 0.17665 0.33510
# Poissons Ratio (z) = 0.11637 0.20541
#
# Static dielectric constant tensor:
#      x y z
#    x 2.068880 0.000000 0.000000 
#    y 0.000000 2.237800 0.000000 
#    z 0.000000 0.000000 2.265120 
# 
# From -- ./inp_files/6922.got.cif
#   From: 2010.05.17/outbox.cif.g08.bks.cpg/sg20_4_cif.got.tgz:6922.got - 2010.06.03 22:52:26.
