data_PCOD9320957
_publ_section_title
;
Structure prediction by ZEFSAII (Michael W. Deem and Ramdas Pophale) SiO2 
 PCOD9320957
Probable space group: C 2 2 21
;
_chemical_formula_sum "Si O2"
_cell_formula_units_Z 24
_cell_length_a 7.749294
_cell_length_b 16.270753
_cell_length_c 8.347657
_cell_angle_alpha 90.000000
_cell_angle_beta 90.000000
_cell_angle_gamma 90.000000
_cell_volume 1052.529764
_symmetry_space_group_name_H-M "C 2 2 21"
_symmetry_group_IT_number 20
_symmetry_cell_setting 'orthorhombic'
loop_
_space_group_symop_operation_xyz
x,y,z
-x,-y,1/2+z
x,-y,-z
-x,y,1/2-z
1/2+x,1/2+y,z
1/2-x,1/2-y,1/2+z
1/2+x,1/2-y,-z
1/2-x,1/2+y,1/2-z
loop_
_atom_site_type_symbol
_atom_site_label
_atom_site_fract_x
_atom_site_fract_y
_atom_site_fract_z
Si Si1 0.685450 0.870754 0.814508
Si Si2 0.000000 0.122281 0.750000
Si Si3 0.418396 0.500000 0.000000
Si Si4 0.668436 0.223742 0.854784
O O1 0.500000 0.897658 0.750000
O O2 0.787979 0.819022 0.679598
O O3 0.796382 0.945673 0.884028
O O4 0.651357 0.806890 0.962821
O O5 0.030473 0.062922 0.899396
O O6 0.834209 0.175196 0.790909
O O7 0.500000 0.203917 0.750000
#
# Coordination Sequence:
#
# PCOD9320957 Si02
#       4
#     8   4   4   8
#     4  11  24  46  71 109 144 187 244 293 356 429
#     4  10  24  46  64 108 142 188 238 288 358 422
#     4  10  26  42  72 104 148 190 230 294 368 414
#     4  11  24  42  73 103 139 190 241 292 352 420
#
# _framework density 22.802202999999999
#
# number of rings (size 3 to 8) (size 9 to 14) (size 15 to 20)
#    0.000    1.333    1.667    2.000    7.000    8.000 
#    0.000    1.667    0.000    0.000    0.000    0.000 
#    0.000    0.000    0.000    0.000    0.000    0.000 
#
# Total GULP energy -67195.799694 kJ/mol
# GULP energy per Si atom -5599.649974 kJ/mol
# Density = 2.275030 g / cm^3
# Si number density = 22.802203 Si / 1000 Ang^3
#
#
#
# Elastic Constant Matrix: (Units=GPa)
#
#
# Indices 1 2 3 4 5 6 
#
# 1 56.6223 -7.9041 16.8721 0.0000 0.0000 0.0000
# 2 -7.9041 83.8121 26.1962 0.0000 0.0000 0.0000
# 3 16.8721 26.1962 72.4500 0.0000 0.0000 0.0000
# 4 0.0000 0.0000 0.0000 34.9776 0.0000 0.0000
# 5 0.0000 0.0000 0.0000 0.0000 49.9499 0.0000
# 6 0.0000 0.0000 0.0000 0.0000 0.0000 23.1451
#
#
#
# Elastic Compliance Matrix: (Units=1/GPa)
#
#
# Indices 1 2 3 4 5 6 
#
# 1 0.019978 0.003764 -0.006013 0.000000 0.000000 0.000000
# 2 0.003764 0.014161 -0.005997 0.000000 0.000000 0.000000
# 3 -0.006013 -0.005997 0.017371 0.000000 0.000000 0.000000
# 4 0.000000 0.000000 0.000000 0.028590 0.000000 0.000000
# 5 0.000000 0.000000 0.000000 0.000000 0.020020 0.000000
# 6 0.000000 0.000000 0.000000 0.000000 0.000000 0.043206
#
#
# Mechanical properties :
#
#
# Convention : Reuss Voigt Hill
#
# Bulk Modulus (GPa) = 28.55729 31.46808 30.01268
# Shear Modulus (GPa) = 29.15611 33.46252 31.30931
#
# Velocity S-wave (km/s) = 3.57971 3.83497 3.70953
# Velocity P-wave (km/s) = 5.44397 5.78271 5.61589
#
# Compressibility (1/GPa) = 0.03501733
#
# Stress axis : x y z
#
# Youngs Moduli (GPa) = 50.05485 70.61806 57.56647
#
# Poissons Ratio (x) = -0.26578 0.34616
# Poissons Ratio (y) = -0.18839 0.34520
# Poissons Ratio (z) = 0.30100 0.42347
#
# Static dielectric constant tensor:
#      x y z
#    x 1.776040 0.000000 0.000000 
#    y 0.000000 1.857270 0.000000 
#    z 0.000000 0.000000 1.893830 
# 
# From -- ./inp_files/5543.got.cif
#   From: 2010.05.17/outbox.cif.g08.bks.cpg/sg20_3_cif.got.tgz:5543.got - 2010.06.03 22:52:26.
