data_PCOD9320472
_publ_section_title
;
Structure prediction by ZEFSAII (Michael W. Deem and Ramdas Pophale) SiO2 
 PCOD9320472
Probable space group: C 2 2 21
;
_chemical_formula_sum "Si O2"
_cell_formula_units_Z 40
_cell_length_a 9.880359
_cell_length_b 23.007055
_cell_length_c 7.529267
_cell_angle_alpha 90.000000
_cell_angle_beta 90.000000
_cell_angle_gamma 90.000000
_cell_volume 1711.537637
_symmetry_space_group_name_H-M "C 2 2 21"
_symmetry_group_IT_number 20
_symmetry_cell_setting 'orthorhombic'
loop_
_space_group_symop_operation_xyz
x,y,z
-x,-y,1/2+z
x,-y,-z
-x,y,1/2-z
1/2+x,1/2+y,z
1/2-x,1/2-y,1/2+z
1/2+x,1/2-y,-z
1/2-x,1/2+y,1/2-z
loop_
_atom_site_type_symbol
_atom_site_label
_atom_site_fract_x
_atom_site_fract_y
_atom_site_fract_z
Si Si1 0.647168 0.527321 0.692368
Si Si2 0.344334 0.597055 0.306900
Si Si3 0.186027 0.188408 0.892794
Si Si4 0.980942 0.724883 0.949975
Si Si5 0.204188 0.633535 0.947700
O O1 0.615716 0.500000 0.500000
O O2 0.500000 0.552454 0.750000
O O3 0.688134 0.471668 0.809837
O O4 0.767373 0.572186 0.650220
O O5 0.500000 0.600780 0.250000
O O6 0.330194 0.629893 0.492118
O O7 0.260453 0.626991 0.146865
O O8 0.322702 0.216616 0.971827
O O9 0.212319 0.174675 0.687148
O O10 0.064462 0.232070 0.927605
O O11 0.056100 0.662027 0.955435
O O12 0.000000 0.748402 0.750000
#
# Coordination Sequence:
#
# PCOD9320472 Si02
#       5
#     8   8   8   8   8
#     4   9  20  37  63  98 131 165 215 272 320 386
#     4  10  23  41  65 103 134 162 225 275 317 391
#     4  11  25  44  69  92 135 173 220 269 330 388
#     4  10  25  47  63  99 132 171 221 271 321 401
#     4  10  24  41  66  93 133 169 211 268 333 379
#
# _framework density 23.370798000000001
#
# number of rings (size 3 to 8) (size 9 to 14) (size 15 to 20)
#    0.000    2.000    0.000    0.600   16.800    0.800 
#    3.600    0.000   39.600    0.000    0.000    0.000 
#    0.000    0.000    0.000    0.000    0.000    0.000 
#
# Total GULP energy -111851.915084 kJ/mol
# GULP energy per Si atom -5592.595754 kJ/mol
# Density = 2.331760 g / cm^3
# Si number density = 23.370798 Si / 1000 Ang^3
#
#
#
# Elastic Constant Matrix: (Units=GPa)
#
#
# Indices 1 2 3 4 5 6 
#
# 1 87.2012 32.7448 25.9936 0.0000 0.0000 0.0000
# 2 32.7448 98.9967 36.6207 0.0000 0.0000 0.0000
# 3 25.9936 36.6207 92.4536 0.0000 0.0000 0.0000
# 4 0.0000 0.0000 0.0000 19.6094 0.0000 0.0000
# 5 0.0000 0.0000 0.0000 0.0000 22.3772 0.0000
# 6 0.0000 0.0000 0.0000 0.0000 0.0000 30.4182
#
#
#
# Elastic Compliance Matrix: (Units=1/GPa)
#
#
# Indices 1 2 3 4 5 6 
#
# 1 0.013527 -0.003594 -0.002379 0.000000 0.000000 0.000000
# 2 -0.003594 0.012790 -0.004056 0.000000 0.000000 0.000000
# 3 -0.002379 -0.004056 0.013092 0.000000 0.000000 0.000000
# 4 0.000000 0.000000 0.000000 0.050996 0.000000 0.000000
# 5 0.000000 0.000000 0.000000 0.000000 0.044688 0.000000
# 6 0.000000 0.000000 0.000000 0.000000 0.000000 0.032875
#
#
# Mechanical properties :
#
#
# Convention : Reuss Voigt Hill
#
# Bulk Modulus (GPa) = 51.67885 52.15218 51.91552
# Shear Modulus (GPa) = 25.71003 26.70045 26.20524
#
# Velocity S-wave (km/s) = 3.32036 3.38371 3.35219
# Velocity P-wave (km/s) = 6.07127 6.13429 6.10286
#
# Compressibility (1/GPa) = 0.01935027
#
# Stress axis : x y z
#
# Youngs Moduli (GPa) = 73.92851 78.18350 76.38403
#
# Poissons Ratio (x) = 0.28099 0.18176
# Poissons Ratio (y) = 0.26569 0.30980
# Poissons Ratio (z) = 0.17591 0.31710
#
# Static dielectric constant tensor:
#      x y z
#    x 1.834310 0.000000 0.000000 
#    y 0.000000 1.981600 0.000000 
#    z 0.000000 0.000000 1.926710 
# 
# From -- ./inp_files/6071.got.cif
#   From: 2010.05.17/outbox.cif.g08.bks.cpg/sg20_4_cif.got.tgz:6071.got - 2010.06.03 22:52:26.
