data_PCOD9320121
_publ_section_title
;
Structure prediction by ZEFSAII (Michael W. Deem and Ramdas Pophale) SiO2 
 PCOD9320121
Probable space group: C 2 2 21
;
_chemical_formula_sum "Si O2"
_cell_formula_units_Z 60
_cell_length_a 11.988115
_cell_length_b 19.869605
_cell_length_c 12.393142
_cell_angle_alpha 90.000000
_cell_angle_beta 90.000000
_cell_angle_gamma 90.000000
_cell_volume 2952.035391
_symmetry_space_group_name_H-M "C 2 2 21"
_symmetry_group_IT_number 20
_symmetry_cell_setting 'orthorhombic'
loop_
_space_group_symop_operation_xyz
x,y,z
-x,-y,1/2+z
x,-y,-z
-x,y,1/2-z
1/2+x,1/2+y,z
1/2-x,1/2-y,1/2+z
1/2+x,1/2-y,-z
1/2-x,1/2+y,1/2-z
loop_
_atom_site_type_symbol
_atom_site_label
_atom_site_fract_x
_atom_site_fract_y
_atom_site_fract_z
Si Si1 0.089034 0.809223 0.031299
Si Si2 0.269985 0.080329 0.316703
Si Si3 0.285846 0.020031 0.882460
Si Si4 0.911526 0.199378 0.155257
Si Si5 0.353865 0.500000 0.000000
Si Si6 0.471510 0.169971 0.374361
Si Si7 0.462529 0.435025 0.364653
Si Si8 0.335093 0.838519 0.049390
O O1 0.087700 0.732563 0.067204
O O2 0.062643 0.856079 0.133682
O O3 0.212188 0.831971 0.996128
O O4 0.992995 0.821475 0.943549
O O5 0.179820 0.142579 0.310242
O O6 0.384316 0.109955 0.363110
O O7 0.298088 0.036552 0.209544
O O8 0.218029 0.030736 0.404813
O O9 0.152467 0.029127 0.892137
O O10 0.333552 0.096311 0.871321
O O11 0.330030 0.000000 0.000000
O O12 0.856625 0.269715 0.116030
O O13 0.000000 0.211773 0.250000
O O14 0.438216 0.447468 0.053357
O O15 0.500000 0.187804 0.250000
O O16 0.576286 0.155078 0.452188
O O17 0.500000 0.461399 0.250000
#
# Coordination Sequence:
#
# PCOD9320121 Si02
#       8
#     8   8   8   8   4   8   8   8
#     4  10  22  42  70  99 135 175 230 293 350 416
#     4  12  26  46  69 106 140 187 235 292 356 427
#     4  11  24  41  71 102 138 187 235 289 350 423
#     4  11  25  42  72 103 134 175 229 299 354 417
#     4  12  24  42  62 102 142 178 232 286 356 412
#     4  11  24  46  71 100 137 185 237 284 347 430
#     4  11  21  37  62 100 139 173 222 287 357 405
#     4  10  24  48  66 103 140 184 235 284 359 422
#
# _framework density 20.324960999999998
#
# number of rings (size 3 to 8) (size 9 to 14) (size 15 to 20)
#    0.000    1.067    4.667    1.200    7.467    0.000 
#    8.400    0.000    0.000    0.000    0.000    0.000 
#    0.000    0.000    0.000    0.000    0.000    0.000 
#
# Total GULP energy -167318.059706 kJ/mol
# GULP energy per Si atom -5577.268657 kJ/mol
# Density = 2.027870 g / cm^3
# Si number density = 20.324961 Si / 1000 Ang^3
#
#
#
# Elastic Constant Matrix: (Units=GPa)
#
#
# Indices 1 2 3 4 5 6 
#
# 1 100.8731 54.8099 31.4807 0.0000 0.0000 0.0000
# 2 54.8099 131.8385 58.3195 0.0000 0.0000 0.0000
# 3 31.4807 58.3195 89.3058 0.0000 0.0000 0.0000
# 4 0.0000 0.0000 0.0000 23.6944 0.0000 0.0000
# 5 0.0000 0.0000 0.0000 0.0000 35.7635 0.0000
# 6 0.0000 0.0000 0.0000 0.0000 0.0000 47.4360
#
#
#
# Elastic Compliance Matrix: (Units=1/GPa)
#
#
# Indices 1 2 3 4 5 6 
#
# 1 0.012943 -0.004729 -0.001475 0.000000 0.000000 0.000000
# 2 -0.004729 0.012394 -0.006427 0.000000 0.000000 0.000000
# 3 -0.001475 -0.006427 0.015914 0.000000 0.000000 0.000000
# 4 0.000000 0.000000 0.000000 0.042204 0.000000 0.000000
# 5 0.000000 0.000000 0.000000 0.000000 0.027961 0.000000
# 6 0.000000 0.000000 0.000000 0.000000 0.000000 0.021081
#
#
# Mechanical properties :
#
#
# Convention : Reuss Voigt Hill
#
# Bulk Modulus (GPa) = 62.53439 67.91531 65.22485
# Shear Modulus (GPa) = 30.65843 33.20593 31.93218
#
# Velocity S-wave (km/s) = 3.88804 4.04635 3.96799
# Velocity P-wave (km/s) = 7.14072 7.43760 7.29067
#
# Compressibility (1/GPa) = 0.01599120
#
# Stress axis : x y z
#
# Youngs Moduli (GPa) = 77.26237 80.68585 62.83739
#
# Poissons Ratio (x) = 0.38153 0.09266
# Poissons Ratio (y) = 0.36534 0.40384
# Poissons Ratio (z) = 0.11393 0.51854
#
# Static dielectric constant tensor:
#      x y z
#    x 1.708160 0.000000 0.000000 
#    y 0.000000 1.745520 0.000000 
#    z 0.000000 0.000000 1.726440 
# 
# From -- ./inp_files/14395.got.cif
#   From: 2010.05.17/outbox.cif.g08.bks.cpg/sg20_8_cif.got.tgz:14395.got - 2010.06.03 22:52:26.
