data_PCOD9320343
_publ_section_title
;
Structure prediction by ZEFSAII (Michael W. Deem and Ramdas Pophale) SiO2 
 PCOD9320343
Probable space group: C 2 2 21
;
_chemical_formula_sum "Si O2"
_cell_formula_units_Z 32
_cell_length_a 8.901903
_cell_length_b 14.618276
_cell_length_c 8.976735
_cell_angle_alpha 90.000000
_cell_angle_beta 90.000000
_cell_angle_gamma 90.000000
_cell_volume 1168.146789
_symmetry_space_group_name_H-M "C 2 2 21"
_symmetry_group_IT_number 20
_symmetry_cell_setting 'orthorhombic'
loop_
_space_group_symop_operation_xyz
x,y,z
-x,-y,1/2+z
x,-y,-z
-x,y,1/2-z
1/2+x,1/2+y,z
1/2-x,1/2-y,1/2+z
1/2+x,1/2-y,-z
1/2-x,1/2+y,1/2-z
loop_
_atom_site_type_symbol
_atom_site_label
_atom_site_fract_x
_atom_site_fract_y
_atom_site_fract_z
Si Si1 0.000000 0.217388 0.750000
Si Si2 0.200867 0.639735 0.756782
Si Si3 0.924234 0.620977 0.055516
Si Si4 0.500000 0.308272 0.750000
Si Si5 0.747619 0.057828 0.175239
O O1 0.140771 0.166230 0.816885
O O2 0.071873 0.276036 0.616447
O O3 0.096621 0.609315 0.618750
O O4 0.252579 0.551138 0.851481
O O5 0.121534 0.733566 0.814731
O O6 0.793360 0.572302 0.148889
O O7 0.090322 0.590204 0.104598
O O8 0.606815 0.377447 0.654292
#
# Coordination Sequence:
#
# PCOD9320343 Si02
#       5
#     4   8   8   4   8
#     4  10  23  45  68 110 148 178 271 301 364 482
#     4  12  24  43  76 101 149 205 232 317 393 411
#     4  10  22  46  65 100 149 190 242 310 369 447
#     4  12  23  41  76 106 144 186 245 313 360 450
#     4  10  23  44  66 109 144 181 261 301 348 475
#
# _framework density 27.393815
#
# number of rings (size 3 to 8) (size 9 to 14) (size 15 to 20)
#    0.000    1.500    5.000    3.000    3.500    0.000 
#    0.000    2.500    0.000    0.000    0.000    0.000 
#    0.000    0.000    0.000    0.000    0.000    0.000 
#
# Total GULP energy -89297.167399 kJ/mol
# GULP energy per Si atom -5581.072962 kJ/mol
# Density = 2.733147 g / cm^3
# Si number density = 27.393815 Si / 1000 Ang^3
#
#
#
# Elastic Constant Matrix: (Units=GPa)
#
#
# Indices 1 2 3 4 5 6 
#
# 1 167.8850 81.8790 -4.1132 0.0000 0.0000 0.0000
# 2 81.8790 166.8568 7.5132 0.0000 0.0000 0.0000
# 3 -4.1132 7.5132 72.7904 0.0000 0.0000 0.0000
# 4 0.0000 0.0000 0.0000 35.2745 0.0000 0.0000
# 5 0.0000 0.0000 0.0000 0.0000 33.6075 0.0000
# 6 0.0000 0.0000 0.0000 0.0000 0.0000 33.0225
#
#
#
# Elastic Compliance Matrix: (Units=1/GPa)
#
#
# Indices 1 2 3 4 5 6 
#
# 1 0.007882 -0.003906 0.000849 0.000000 0.000000 0.000000
# 2 -0.003906 0.007957 -0.001042 0.000000 0.000000 0.000000
# 3 0.000849 -0.001042 0.013894 0.000000 0.000000 0.000000
# 4 0.000000 0.000000 0.000000 0.028349 0.000000 0.000000
# 5 0.000000 0.000000 0.000000 0.000000 0.029755 0.000000
# 6 0.000000 0.000000 0.000000 0.000000 0.000000 0.030282
#
#
# Mechanical properties :
#
#
# Convention : Reuss Voigt Hill
#
# Bulk Modulus (GPa) = 46.43906 64.23226 55.33566
# Shear Modulus (GPa) = 37.45414 41.86445 39.65930
#
# Velocity S-wave (km/s) = 3.70164 3.91352 3.80905
# Velocity P-wave (km/s) = 5.93791 6.62718 6.29199
#
# Compressibility (1/GPa) = 0.02153360
#
# Stress axis : x y z
#
# Youngs Moduli (GPa) = 126.86606 125.67703 71.97571
#
# Poissons Ratio (x) = 0.49092 -0.06108
# Poissons Ratio (y) = 0.49556 0.07500
# Poissons Ratio (z) = -0.10766 0.13096
#
# Static dielectric constant tensor:
#      x y z
#    x 2.121550 0.000000 0.000000 
#    y 0.000000 2.247290 0.000000 
#    z 0.000000 0.000000 2.220400 
# 
# From -- ./inp_files/12597.got.cif
#   From: 2010.05.17/outbox.cif.g08.bks.cpg/sg20_7_cif.got.tgz:12597.got - 2010.06.03 22:52:26.
