data_PCOD9320084
_publ_section_title
;
Structure prediction by ZEFSAII (Michael W. Deem and Ramdas Pophale) SiO2 
 PCOD9320084
Probable space group: C 2 2 21
;
_chemical_formula_sum "Si O2"
_cell_formula_units_Z 56
_cell_length_a 16.345401
_cell_length_b 29.267015
_cell_length_c 5.113675
_cell_angle_alpha 90.000000
_cell_angle_beta 90.000000
_cell_angle_gamma 90.000000
_cell_volume 2446.285452
_symmetry_space_group_name_H-M "C 2 2 21"
_symmetry_group_IT_number 20
_symmetry_cell_setting 'orthorhombic'
loop_
_space_group_symop_operation_xyz
x,y,z
-x,-y,1/2+z
x,-y,-z
-x,y,1/2-z
1/2+x,1/2+y,z
1/2-x,1/2-y,1/2+z
1/2+x,1/2-y,-z
1/2-x,1/2+y,1/2-z
loop_
_atom_site_type_symbol
_atom_site_label
_atom_site_fract_x
_atom_site_fract_y
_atom_site_fract_z
Si Si1 0.500000 0.771293 0.750000
Si Si2 0.689310 0.622578 0.953240
Si Si3 0.912488 0.334196 0.402272
Si Si4 0.214043 0.403001 0.938724
Si Si5 0.302990 0.757923 0.128748
Si Si6 0.579288 0.455182 0.126709
Si Si7 0.073283 0.195648 0.130152
Si Si8 0.216162 0.000000 0.500000
O O1 0.428780 0.807949 0.677594
O O2 0.473345 0.735665 0.524612
O O3 0.759813 0.621246 0.169705
O O4 0.635928 0.667903 0.955257
O O5 0.723670 0.612587 0.667415
O O6 0.627374 0.582036 0.040961
O O7 0.872640 0.383068 0.465734
O O8 0.847748 0.303634 0.235666
O O9 0.000000 0.335181 0.250000
O O10 0.227326 0.457542 0.908166
O O11 0.235922 0.743430 0.344495
O O12 0.371227 0.718828 0.149335
O O13 0.500000 0.431125 0.250000
O O14 0.652861 0.477722 0.294613
O O15 0.540567 0.500000 0.000000
O O16 0.000000 0.166083 0.250000
#
# Coordination Sequence:
#
# PCOD9320084 Si02
#       8
#     4   8   8   8   8   8   8   4
#     4  10  24  42  66  90 136 178 226 286 348 404
#     4  11  26  43  68 102 140 186 234 284 347 426
#     4  11  26  44  72 100 136 184 237 290 360 420
#     4  11  25  46  73 100 140 183 233 292 356 426
#     4  11  24  41  65  92 130 173 222 274 331 405
#     4  11  21  37  63  98 141 188 233 278 347 417
#     4  11  26  40  64  94 137 177 227 278 342 393
#     4  10  22  42  68 100 140 182 234 292 354 420
#
# _framework density 22.891849000000001
#
# number of rings (size 3 to 8) (size 9 to 14) (size 15 to 20)
#    0.000    1.143    2.143    3.429   13.000    1.714 
#    0.000    0.000    1.571    0.000    0.000    0.000 
#    0.000    0.000    0.000    0.000    0.000    0.000 
#
# Total GULP energy -156223.756807 kJ/mol
# GULP energy per Si atom -5579.419886 kJ/mol
# Density = 2.283975 g / cm^3
# Si number density = 22.891849 Si / 1000 Ang^3
#
#
#
# Elastic Constant Matrix: (Units=GPa)
#
#
# Indices 1 2 3 4 5 6 
#
# 1 109.7221 51.1858 13.7201 0.0000 0.0000 0.0000
# 2 51.1858 98.1973 15.0278 0.0000 0.0000 0.0000
# 3 13.7201 15.0278 55.9030 0.0000 0.0000 0.0000
# 4 0.0000 0.0000 0.0000 15.3312 0.0000 0.0000
# 5 0.0000 0.0000 0.0000 0.0000 38.7104 0.0000
# 6 0.0000 0.0000 0.0000 0.0000 0.0000 -19.0479
#
#
#
# Elastic Compliance Matrix: (Units=1/GPa)
#
#
# Indices 1 2 3 4 5 6 
#
# 1 0.012137 -0.006122 -0.001333 0.000000 0.000000 0.000000
# 2 -0.006122 0.013709 -0.002183 0.000000 0.000000 0.000000
# 3 -0.001333 -0.002183 0.018802 0.000000 0.000000 0.000000
# 4 0.000000 0.000000 0.000000 0.065227 0.000000 0.000000
# 5 0.000000 0.000000 0.000000 0.000000 0.025833 0.000000
# 6 0.000000 0.000000 0.000000 0.000000 0.000000 -0.052499
#
#
# Mechanical properties :
#
#
# Convention : Reuss Voigt Hill
#
# Bulk Modulus (GPa) = 39.41369 47.07666 43.24518
# Shear Modulus (GPa) = 45.06906 19.25797 32.16352
#
# Velocity S-wave (km/s) = 4.44191 2.90359 3.75243
# Velocity P-wave (km/s) = 6.60016 5.64363 6.14055
#
# Compressibility (1/GPa) = 0.02537190
#
# Stress axis : x y z
#
# Youngs Moduli (GPa) = 82.39475 72.94530 53.18590
#
# Poissons Ratio (x) = 0.44660 0.07089
# Poissons Ratio (y) = 0.50445 0.11609
# Poissons Ratio (z) = 0.10982 0.15921
#
# Static dielectric constant tensor:
#      x y z
#    x 1.887250 0.000000 0.000000 
#    y 0.000000 1.908200 0.000000 
#    z 0.000000 0.000000 2.021240 
# 
# From -- ./inp_files/2274.got.cif
#   From: 2010.05.17/outbox.cif.g08.bks.cpg/sg20_2_cif.got.tgz:2274.got - 2010.06.03 22:52:26.
