data_PCOD9320532
_publ_section_title
;
Structure prediction by ZEFSAII (Michael W. Deem and Ramdas Pophale) SiO2 
 PCOD9320532
Probable space group: C 2 2 21
;
_chemical_formula_sum "Si O2"
_cell_formula_units_Z 36
_cell_length_a 5.055713
_cell_length_b 24.535280
_cell_length_c 11.123055
_cell_angle_alpha 90.000000
_cell_angle_beta 90.000000
_cell_angle_gamma 90.000000
_cell_volume 1379.740827
_symmetry_space_group_name_H-M "C 2 2 21"
_symmetry_group_IT_number 20
_symmetry_cell_setting 'orthorhombic'
loop_
_space_group_symop_operation_xyz
x,y,z
-x,-y,1/2+z
x,-y,-z
-x,y,1/2-z
1/2+x,1/2+y,z
1/2-x,1/2-y,1/2+z
1/2+x,1/2-y,-z
1/2-x,1/2+y,1/2-z
loop_
_atom_site_type_symbol
_atom_site_label
_atom_site_fract_x
_atom_site_fract_y
_atom_site_fract_z
Si Si1 0.500000 0.823411 0.750000
Si Si2 0.870184 0.900483 0.620194
Si Si3 0.832676 0.744462 0.917600
Si Si4 0.836269 0.873382 0.370625
Si Si5 0.911217 0.510051 0.881812
O O1 0.611498 0.863128 0.645269
O O2 0.718959 0.785295 0.815559
O O3 0.995935 0.877175 0.497682
O O4 0.000000 0.895642 0.750000
O O5 0.814312 0.964236 0.599293
O O6 0.813032 0.683449 0.868026
O O7 0.123733 0.753384 0.970975
O O8 0.654900 0.926668 0.376513
O O9 0.000000 0.878555 0.250000
O O10 0.000000 0.494328 0.750000
O O11 0.089358 0.500000 0.000000
#
# Coordination Sequence:
#
# PCOD9320532 Si02
#       5
#     4   8   8   8   8
#     4  12  24  44  74 102 142 200 254 304 378 476
#     4  11  23  45  73 100 142 192 252 305 379 465
#     4  12  27  47  72 108 152 200 255 312 385 460
#     4  11  24  45  66 107 147 187 245 314 380 446
#     4  10  23  42  68 105 145 192 247 310 383 453
#
# _framework density 26.091856
#
# number of rings (size 3 to 8) (size 9 to 14) (size 15 to 20)
#    0.000    0.889    4.444    2.000    0.000    3.556 
#    0.000    0.000    0.000    0.000    0.000    0.000 
#    0.000    0.000    0.000    0.000    0.000    0.000 
#
# Total GULP energy -100716.314025 kJ/mol
# GULP energy per Si atom -5595.350779 kJ/mol
# Density = 2.603247 g / cm^3
# Si number density = 26.091856 Si / 1000 Ang^3
#
#
#
# Elastic Constant Matrix: (Units=GPa)
#
#
# Indices 1 2 3 4 5 6 
#
# 1 50.8134 23.6892 32.2986 0.0000 0.0000 0.0000
# 2 23.6892 208.0051 40.6549 0.0000 0.0000 0.0000
# 3 32.2986 40.6549 225.4747 0.0000 0.0000 0.0000
# 4 0.0000 0.0000 0.0000 45.9637 0.0000 0.0000
# 5 0.0000 0.0000 0.0000 0.0000 49.4768 0.0000
# 6 0.0000 0.0000 0.0000 0.0000 0.0000 13.3094
#
#
#
# Elastic Compliance Matrix: (Units=1/GPa)
#
#
# Indices 1 2 3 4 5 6 
#
# 1 0.022423 -0.001996 -0.002852 0.000000 0.000000 0.000000
# 2 -0.001996 0.005161 -0.000645 0.000000 0.000000 0.000000
# 3 -0.002852 -0.000645 0.004960 0.000000 0.000000 0.000000
# 4 0.000000 0.000000 0.000000 0.021756 0.000000 0.000000
# 5 0.000000 0.000000 0.000000 0.000000 0.020211 0.000000
# 6 0.000000 0.000000 0.000000 0.000000 0.000000 0.075135
#
#
# Mechanical properties :
#
#
# Convention : Reuss Voigt Hill
#
# Bulk Modulus (GPa) = 46.38612 75.28650 60.83631
# Shear Modulus (GPa) = 29.79400 47.59335 38.69368
#
# Velocity S-wave (km/s) = 3.38285 4.27555 3.85512
# Velocity P-wave (km/s) = 5.75107 7.30005 6.57136
#
# Compressibility (1/GPa) = 0.02155817
#
# Stress axis : x y z
#
# Youngs Moduli (GPa) = 44.59618 193.76413 201.61802
#
# Poissons Ratio (x) = 0.38681 0.57504
# Poissons Ratio (y) = 0.08903 0.12996
# Poissons Ratio (z) = 0.12719 0.12490
#
# Static dielectric constant tensor:
#      x y z
#    x 2.145000 0.000000 0.000000 
#    y 0.000000 1.991500 0.000000 
#    z 0.000000 0.000000 2.094400 
# 
# From -- ./inp_files/12054.got.cif
#   From: 2010.05.17/outbox.cif.g08.bks.cpg/sg20_7_cif.got.tgz:12054.got - 2010.06.03 22:52:26.
