data_PCOD9320797
_publ_section_title
;
Structure prediction by ZEFSAII (Michael W. Deem and Ramdas Pophale) SiO2 
 PCOD9320797
Probable space group: C 2 2 21
;
_chemical_formula_sum "Si O2"
_cell_formula_units_Z 24
_cell_length_a 7.999754
_cell_length_b 24.219108
_cell_length_c 5.452357
_cell_angle_alpha 90.000000
_cell_angle_beta 90.000000
_cell_angle_gamma 90.000000
_cell_volume 1056.377300
_symmetry_space_group_name_H-M "C 2 2 21"
_symmetry_group_IT_number 20
_symmetry_cell_setting 'orthorhombic'
loop_
_space_group_symop_operation_xyz
x,y,z
-x,-y,1/2+z
x,-y,-z
-x,y,1/2-z
1/2+x,1/2+y,z
1/2-x,1/2-y,1/2+z
1/2+x,1/2-y,-z
1/2-x,1/2+y,1/2-z
loop_
_atom_site_type_symbol
_atom_site_label
_atom_site_fract_x
_atom_site_fract_y
_atom_site_fract_z
Si Si1 0.000000 0.156702 0.250000
Si Si2 0.500000 0.965551 0.250000
Si Si3 0.646442 0.879238 0.937900
Si Si4 0.150172 0.745939 0.006750
O O1 0.830305 0.124523 0.184056
O O2 0.963147 0.200170 0.468975
O O3 0.356036 0.922943 0.340514
O O4 0.538889 0.000000 0.500000
O O5 0.500000 0.895960 0.750000
O O6 0.591460 0.817248 0.014692
O O7 0.270279 0.752373 0.773258
#
# Coordination Sequence:
#
# PCOD9320797 Si02
#       4
#     4   4   8   8
#     4  10  25  44  72 114 156 194 243 290 358 470
#     4  12  27  52  82 104 140 196 265 332 390 432
#     4  11  26  46  77 108 150 200 245 304 373 443
#     4  10  24  41  65 110 155 191 225 280 352 449
#
# _framework density 22.719156000000002
#
# number of rings (size 3 to 8) (size 9 to 14) (size 15 to 20)
#    0.000    1.333    1.667    1.000   28.000    0.000 
#    0.000    0.000    7.333    0.000    0.000    0.000 
#    0.000    0.000    0.000    0.000    0.000    0.000 
#
# Total GULP energy -66905.229806 kJ/mol
# GULP energy per Si atom -5575.435817 kJ/mol
# Density = 2.266745 g / cm^3
# Si number density = 22.719156 Si / 1000 Ang^3
#
#
#
# Elastic Constant Matrix: (Units=GPa)
#
#
# Indices 1 2 3 4 5 6 
#
# 1 152.0068 40.0162 72.1885 0.0000 0.0000 0.0000
# 2 40.0162 139.5040 68.3944 0.0000 0.0000 0.0000
# 3 72.1885 68.3944 162.5751 0.0000 0.0000 0.0000
# 4 0.0000 0.0000 0.0000-8910.7935 0.0000 0.0000
# 5 0.0000 0.0000 0.0000 0.0000 50.3648 0.0000
# 6 0.0000 0.0000 0.0000 0.0000 0.0000 125.2810
#
#
#
# Elastic Compliance Matrix: (Units=1/GPa)
#
#
# Indices 1 2 3 4 5 6 
#
# 1 0.008395 -0.000731 -0.003420 0.000000 0.000000 0.000000
# 2 -0.000731 0.009095 -0.003501 0.000000 0.000000 0.000000
# 3 -0.003420 -0.003501 0.009143 0.000000 0.000000 0.000000
# 4 0.000000 0.000000 0.000000 -0.000112 0.000000 0.000000
# 5 0.000000 0.000000 0.000000 0.000000 0.019855 0.000000
# 6 0.000000 0.000000 0.000000 0.000000 0.000000 0.007982
#
#
# Mechanical properties :
#
#
# Convention : Reuss Voigt Hill
#
# Bulk Modulus (GPa) = 88.28454 90.58712 89.43583
# Shear Modulus (GPa) = 68.08373 -1728.79707 -830.35667
#
# Velocity S-wave (km/s) = 5.48020 -27.61511 -19.13847
# Velocity P-wave (km/s) = 8.88746 31.25433 21.18781
#
# Compressibility (1/GPa) = 0.01132701
#
# Stress axis : x y z
#
# Youngs Moduli (GPa) = 119.11242 109.95501 109.37780
#
# Poissons Ratio (x) = 0.08042 0.37409
# Poissons Ratio (y) = 0.08712 0.38296
# Poissons Ratio (z) = 0.40738 0.38498
#
# Static dielectric constant tensor:
#      x y z
#    x 11.513550 0.000000 0.000000 
#    y 0.000000 1.877030 0.000000 
#    z 0.000000 0.000000 1.878670 
# 
# From -- ./inp_files/336.got.cif
#   From: 2010.05.17/outbox.cif.g08.bks.cpg/sg20_1_cif.got.tgz:336.got - 2010.06.03 22:52:26.
