data_PCOD9320723
_publ_section_title
;
Structure prediction by ZEFSAII (Michael W. Deem and Ramdas Pophale) SiO2 
 PCOD9320723
Probable space group: C 2 2 21
;
_chemical_formula_sum "Si O2"
_cell_formula_units_Z 40
_cell_length_a 23.562419
_cell_length_b 8.756087
_cell_length_c 8.330341
_cell_angle_alpha 90.000000
_cell_angle_beta 90.000000
_cell_angle_gamma 90.000000
_cell_volume 1718.670894
_symmetry_space_group_name_H-M "C 2 2 21"
_symmetry_group_IT_number 20
_symmetry_cell_setting 'orthorhombic'
loop_
_space_group_symop_operation_xyz
x,y,z
-x,-y,1/2+z
x,-y,-z
-x,y,1/2-z
1/2+x,1/2+y,z
1/2-x,1/2-y,1/2+z
1/2+x,1/2-y,-z
1/2-x,1/2+y,1/2-z
loop_
_atom_site_type_symbol
_atom_site_label
_atom_site_fract_x
_atom_site_fract_y
_atom_site_fract_z
Si Si1 0.809697 0.732142 0.876488
Si Si2 0.085195 0.736183 0.190718
Si Si3 0.934571 0.765278 0.927422
Si Si4 0.798044 0.608618 0.240872
Si Si5 0.000000 0.503718 0.750000
Si Si6 0.027649 0.000000 0.000000
O O1 0.872664 0.801156 0.856270
O O2 0.805675 0.572620 0.779459
O O3 0.761021 0.846307 0.820914
O O4 0.800593 0.682476 0.062083
O O5 0.076203 0.748968 0.382376
O O6 0.148998 0.681037 0.163231
O O7 0.039540 0.607276 0.143833
O O8 0.066759 0.891667 0.107358
O O9 0.956994 0.610621 0.847376
O O10 0.983590 0.889040 0.910229
#
# Coordination Sequence:
#
# PCOD9320723 Si02
#       6
#     8   8   8   8   4   4
#     4  10  23  46  73  95 140 185 244 294 363 430
#     4  11  24  46  71 105 146 191 243 302 358 439
#     4  11  25  45  71 104 144 198 233 301 368 434
#     4  10  23  46  71 102 135 189 239 300 361 429
#     4  12  22  44  78 102 142 194 248 282 364 450
#     4  12  26  42  72 110 150 182 244 300 362 434
#
# _framework density 23.273796000000001
#
# number of rings (size 3 to 8) (size 9 to 14) (size 15 to 20)
#    0.000    1.200    4.000    0.600    2.800    5.600 
#    3.600    2.000    0.000    0.000    0.000    0.000 
#    0.000    0.000    0.000    0.000    0.000    0.000 
#
# Total GULP energy -112026.138312 kJ/mol
# GULP energy per Si atom -5601.306916 kJ/mol
# Density = 2.322082 g / cm^3
# Si number density = 23.273796 Si / 1000 Ang^3
#
#
#
# Elastic Constant Matrix: (Units=GPa)
#
#
# Indices 1 2 3 4 5 6 
#
# 1 186.6180 38.8690 41.7905 0.0000 0.0000 0.0000
# 2 38.8690 85.9315 30.9703 0.0000 0.0000 0.0000
# 3 41.7905 30.9703 45.1530 0.0000 0.0000 0.0000
# 4 0.0000 0.0000 0.0000 46.0983 0.0000 0.0000
# 5 0.0000 0.0000 0.0000 0.0000 36.6302 0.0000
# 6 0.0000 0.0000 0.0000 0.0000 0.0000 25.2279
#
#
#
# Elastic Compliance Matrix: (Units=1/GPa)
#
#
# Indices 1 2 3 4 5 6 
#
# 1 0.006834 -0.001078 -0.005586 0.000000 0.000000 0.000000
# 2 -0.001078 0.015629 -0.009722 0.000000 0.000000 0.000000
# 3 -0.005586 -0.009722 0.033985 0.000000 0.000000 0.000000
# 4 0.000000 0.000000 0.000000 0.021693 0.000000 0.000000
# 5 0.000000 0.000000 0.000000 0.000000 0.027300 0.000000
# 6 0.000000 0.000000 0.000000 0.000000 0.000000 0.039639
#
#
# Mechanical properties :
#
#
# Convention : Reuss Voigt Hill
#
# Bulk Modulus (GPa) = 42.23632 60.10690 51.17161
# Shear Modulus (GPa) = 26.91914 35.32945 31.12429
#
# Velocity S-wave (km/s) = 3.40461 3.90037 3.66089
# Velocity P-wave (km/s) = 5.80019 6.79455 6.31696
#
# Compressibility (1/GPa) = 0.02367631
#
# Stress axis : x y z
#
# Youngs Moduli (GPa) = 146.32964 63.98509 29.42504
#
# Poissons Ratio (x) = 0.06898 0.16435
# Poissons Ratio (y) = 0.15775 0.28607
# Poissons Ratio (z) = 0.81733 0.62205
#
# Static dielectric constant tensor:
#      x y z
#    x 1.843880 0.000000 0.000000 
#    y 0.000000 1.875070 0.000000 
#    z 0.000000 0.000000 1.981220 
# 
# From -- ./inp_files/10521.got.cif
#   From: 2010.05.17/outbox.cif.g08.bks.cpg/sg20_6_cif.got.tgz:10521.got - 2010.06.03 22:52:26.
