data_PCOD9320601
_publ_section_title
;
Structure prediction by ZEFSAII (Michael W. Deem and Ramdas Pophale) SiO2 
 PCOD9320601
Probable space group: C 2 2 21
;
_chemical_formula_sum "Si O2"
_cell_formula_units_Z 40
_cell_length_a 8.820661
_cell_length_b 19.980803
_cell_length_c 9.418532
_cell_angle_alpha 90.000000
_cell_angle_beta 90.000000
_cell_angle_gamma 90.000000
_cell_volume 1659.958716
_symmetry_space_group_name_H-M "C 2 2 21"
_symmetry_group_IT_number 20
_symmetry_cell_setting 'orthorhombic'
loop_
_space_group_symop_operation_xyz
x,y,z
-x,-y,1/2+z
x,-y,-z
-x,y,1/2-z
1/2+x,1/2+y,z
1/2-x,1/2-y,1/2+z
1/2+x,1/2-y,-z
1/2-x,1/2+y,1/2-z
loop_
_atom_site_type_symbol
_atom_site_label
_atom_site_fract_x
_atom_site_fract_y
_atom_site_fract_z
Si Si1 0.322361 0.215255 0.792385
Si Si2 0.628984 0.608151 0.608657
Si Si3 0.285184 0.134689 0.330689
Si Si4 0.884110 0.378714 0.964072
Si Si5 0.825309 0.952838 0.372694
O O1 0.500000 0.218036 0.750000
O O2 0.229465 0.167385 0.682433
O O3 0.248296 0.287860 0.797507
O O4 0.329687 0.187438 0.954098
O O5 0.669386 0.607440 0.444721
O O6 0.668908 0.541740 0.702558
O O7 0.446209 0.609392 0.613751
O O8 0.447396 0.127772 0.407597
O O9 0.288870 0.101701 0.175656
O O10 0.845223 0.432970 0.083858
O O11 0.878140 0.000000 0.500000
#
# Coordination Sequence:
#
# PCOD9320601 Si02
#       5
#     8   8   8   8   8
#     4  11  22  39  66  98 143 196 226 281 357 439
#     4  10  23  43  70  99 136 177 240 295 346 438
#     4  11  23  39  62 102 139 184 223 281 348 436
#     4  10  24  40  61  94 141 169 238 283 347 423
#     4  10  24  46  69  93 128 184 239 306 360 406
#
# _framework density 24.096985
#
# number of rings (size 3 to 8) (size 9 to 14) (size 15 to 20)
#    0.000    1.600    2.000    1.200    2.800   12.800 
#    0.000    5.000    0.000    0.000    0.000    0.000 
#    0.000    0.000    0.000    0.000    0.000    0.000 
#
# Total GULP energy -111443.368972 kJ/mol
# GULP energy per Si atom -5572.168449 kJ/mol
# Density = 2.404214 g / cm^3
# Si number density = 24.096985 Si / 1000 Ang^3
#
#
#
# Elastic Constant Matrix: (Units=GPa)
#
#
# Indices 1 2 3 4 5 6 
#
# 1 90.1599 10.9412 3.9966 0.0000 0.0000 0.0000
# 2 10.9412 31.6584 8.8158 0.0000 0.0000 0.0000
# 3 3.9966 8.8158 113.2833 0.0000 0.0000 0.0000
# 4 0.0000 0.0000 0.0000 35.5066 0.0000 0.0000
# 5 0.0000 0.0000 0.0000 0.0000 35.8960 0.0000
# 6 0.0000 0.0000 0.0000 0.0000 0.0000 25.4749
#
#
#
# Elastic Compliance Matrix: (Units=1/GPa)
#
#
# Indices 1 2 3 4 5 6 
#
# 1 0.011578 -0.003974 -0.000099 0.000000 0.000000 0.000000
# 2 -0.003974 0.033651 -0.002479 0.000000 0.000000 0.000000
# 3 -0.000099 -0.002479 0.009024 0.000000 0.000000 0.000000
# 4 0.000000 0.000000 0.000000 0.028164 0.000000 0.000000
# 5 0.000000 0.000000 0.000000 0.000000 0.027858 0.000000
# 6 0.000000 0.000000 0.000000 0.000000 0.000000 0.039254
#
#
# Mechanical properties :
#
#
# Convention : Reuss Voigt Hill
#
# Bulk Modulus (GPa) = 24.30164 31.40100 27.85132
# Shear Modulus (GPa) = 28.35296 33.46537 30.90916
#
# Velocity S-wave (km/s) = 3.43391 3.73067 3.58536
# Velocity P-wave (km/s) = 5.08224 5.62287 5.35937
#
# Compressibility (1/GPa) = 0.04114948
#
# Stress axis : x y z
#
# Youngs Moduli (GPa) = 86.37048 29.71708 110.81798
#
# Poissons Ratio (x) = 0.11809 0.01100
# Poissons Ratio (y) = 0.34322 0.27467
# Poissons Ratio (z) = 0.00857 0.07365
#
# Static dielectric constant tensor:
#      x y z
#    x 1.893600 0.000000 0.000000 
#    y 0.000000 2.024820 0.000000 
#    z 0.000000 0.000000 1.977650 
# 
# From -- ./inp_files/6091.got.cif
#   From: 2010.05.17/outbox.cif.g08.bks.cpg/sg20_4_cif.got.tgz:6091.got - 2010.06.03 22:52:26.
