data_PCOD9320786
_publ_section_title
;
Structure prediction by ZEFSAII (Michael W. Deem and Ramdas Pophale) SiO2 
 PCOD9320786
Probable space group: C 2 2 21
;
_chemical_formula_sum "Si O2"
_cell_formula_units_Z 52
_cell_length_a 8.408979
_cell_length_b 10.951892
_cell_length_c 24.717323
_cell_angle_alpha 90.000000
_cell_angle_beta 90.000000
_cell_angle_gamma 90.000000
_cell_volume 2276.322825
_symmetry_space_group_name_H-M "C 2 2 21"
_symmetry_group_IT_number 20
_symmetry_cell_setting 'orthorhombic'
loop_
_space_group_symop_operation_xyz
x,y,z
-x,-y,1/2+z
x,-y,-z
-x,y,1/2-z
1/2+x,1/2+y,z
1/2-x,1/2-y,1/2+z
1/2+x,1/2-y,-z
1/2-x,1/2+y,1/2-z
loop_
_atom_site_type_symbol
_atom_site_label
_atom_site_fract_x
_atom_site_fract_y
_atom_site_fract_z
Si Si1 0.967550 0.188887 0.556637
Si Si2 0.970731 0.423277 0.097025
Si Si3 0.338573 0.476635 0.115711
Si Si4 0.328169 0.367754 0.775618
Si Si5 0.226879 0.500000 0.500000
Si Si6 0.835912 0.186433 0.043058
Si Si7 0.162463 0.592164 0.715788
O O1 0.032720 0.132466 0.612489
O O2 0.122282 0.205531 0.519447
O O3 0.845157 0.104461 0.521855
O O4 0.847613 0.301693 0.561425
O O5 0.937987 0.288393 0.073641
O O6 0.877297 0.431501 0.153249
O O7 0.156983 0.435348 0.109076
O O8 0.891139 0.511400 0.051784
O O9 0.345860 0.568620 0.165848
O O10 0.385834 0.554182 0.062953
O O11 0.500000 0.351435 0.750000
O O12 0.247188 0.472703 0.739573
O O13 0.259570 0.228665 0.778771
O O14 0.000000 0.597849 0.750000
#
# Coordination Sequence:
#
# PCOD9320786 Si02
#       7
#     8   8   8   8   4   8   8
#     4  11  24  42  67 100 145 185 240 286 363 429
#     4  11  25  44  72  99 146 180 250 289 369 430
#     4  12  24  45  67  99 138 191 230 305 351 435
#     4  11  27  45  77 103 144 185 250 299 378 425
#     4  10  24  40  68 106 134 192 228 302 358 446
#     4  11  24  42  65  99 140 184 238 292 355 428
#     4  11  24  52  70 107 139 193 238 313 360 443
#
# _framework density 22.843858999999998
#
# number of rings (size 3 to 8) (size 9 to 14) (size 15 to 20)
#    0.000    0.923    4.615    0.923   10.769    0.615 
#    2.769    0.000    0.000    0.000    0.000    0.000 
#    0.000    0.000    0.000    0.000    0.000    0.000 
#
# Total GULP energy -145086.440811 kJ/mol
# GULP energy per Si atom -5580.247724 kJ/mol
# Density = 2.279187 g / cm^3
# Si number density = 22.843859 Si / 1000 Ang^3
#
#
#
# Elastic Constant Matrix: (Units=GPa)
#
#
# Indices 1 2 3 4 5 6 
#
# 1 89.4371 51.6868 10.4015 0.0000 0.0000 0.0000
# 2 51.6868 94.7085 39.2135 0.0000 0.0000 0.0000
# 3 10.4015 39.2135 108.1614 0.0000 0.0000 0.0000
# 4 0.0000 0.0000 0.0000 31.0551 0.0000 0.0000
# 5 0.0000 0.0000 0.0000 0.0000 31.1218 0.0000
# 6 0.0000 0.0000 0.0000 0.0000 0.0000 42.4031
#
#
#
# Elastic Compliance Matrix: (Units=1/GPa)
#
#
# Indices 1 2 3 4 5 6 
#
# 1 0.016691 -0.009936 0.001997 0.000000 0.000000 0.000000
# 2 -0.009936 0.018338 -0.005693 0.000000 0.000000 0.000000
# 3 0.001997 -0.005693 0.011117 0.000000 0.000000 0.000000
# 4 0.000000 0.000000 0.000000 0.032201 0.000000 0.000000
# 5 0.000000 0.000000 0.000000 0.000000 0.032132 0.000000
# 6 0.000000 0.000000 0.000000 0.000000 0.000000 0.023583
#
#
# Mechanical properties :
#
#
# Convention : Reuss Voigt Hill
#
# Bulk Modulus (GPa) = 52.95756 54.99005 53.97380
# Shear Modulus (GPa) = 29.82935 33.64966 31.73950
#
# Velocity S-wave (km/s) = 3.61750 3.84217 3.73152
# Velocity P-wave (km/s) = 6.37817 6.61872 6.49956
#
# Compressibility (1/GPa) = 0.01888305
#
# Stress axis : x y z
#
# Youngs Moduli (GPa) = 59.91320 54.53069 89.94939
#
# Poissons Ratio (x) = 0.54181 -0.17964
# Poissons Ratio (y) = 0.59529 0.51208
# Poissons Ratio (z) = -0.11965 0.31044
#
# Static dielectric constant tensor:
#      x y z
#    x 1.868410 0.000000 0.000000 
#    y 0.000000 1.959290 0.000000 
#    z 0.000000 0.000000 1.882430 
# 
# From -- ./inp_files/30128.got.cif
#   From: 2010.05.17/outbox.cif.g08.bks.cpg/sg20_16_cif.got.tgz:30128.got - 2010.06.03 22:52:26.
