data_PCOD9320983
_publ_section_title
;
Structure prediction by ZEFSAII (Michael W. Deem and Ramdas Pophale) SiO2 
 PCOD9320983
Probable space group: C 2 2 21
;
_chemical_formula_sum "Si O2"
_cell_formula_units_Z 24
_cell_length_a 5.120621
_cell_length_b 12.703832
_cell_length_c 13.978316
_cell_angle_alpha 90.000000
_cell_angle_beta 90.000000
_cell_angle_gamma 90.000000
_cell_volume 909.310548
_symmetry_space_group_name_H-M "C 2 2 21"
_symmetry_group_IT_number 20
_symmetry_cell_setting 'orthorhombic'
loop_
_space_group_symop_operation_xyz
x,y,z
-x,-y,1/2+z
x,-y,-z
-x,y,1/2-z
1/2+x,1/2+y,z
1/2-x,1/2-y,1/2+z
1/2+x,1/2-y,-z
1/2-x,1/2+y,1/2-z
loop_
_atom_site_type_symbol
_atom_site_label
_atom_site_fract_x
_atom_site_fract_y
_atom_site_fract_z
Si Si1 0.500000 0.316271 0.250000
Si Si2 0.514632 0.500000 0.500000
Si Si3 0.225819 0.786733 0.054059
Si Si4 0.745145 0.526274 0.307019
O O1 0.638457 0.257994 0.161947
O O2 0.708763 0.398760 0.295348
O O3 0.330450 0.588008 0.546435
O O4 0.698892 0.547498 0.417941
O O5 0.016517 0.738438 0.979399
O O6 0.500000 0.572574 0.250000
O O7 0.000000 0.554749 0.250000
#
# Coordination Sequence:
#
# PCOD9320983 Si02
#       4
#     4   4   8   8
#     4   8  22  42  66  90 144 166 210 290 324 374
#     4  10  24  46  72  92 140 174 222 278 332 390
#     4  11  26  44  69 101 131 176 227 270 333 399
#     4   9  20  37  67  92 126 177 210 266 338 377
#
# _framework density 26.393625
#
# number of rings (size 3 to 8) (size 9 to 14) (size 15 to 20)
#    1.000    1.333    0.000    0.000    9.333    5.333 
#    9.000    0.000    0.000    0.000    0.000    0.000 
#    0.000    0.000    0.000    0.000    0.000    0.000 
#
# Total GULP energy -67217.711892 kJ/mol
# GULP energy per Si atom -5601.475991 kJ/mol
# Density = 2.633355 g / cm^3
# Si number density = 26.393625 Si / 1000 Ang^3
#
#
#
# Elastic Constant Matrix: (Units=GPa)
#
#
# Indices 1 2 3 4 5 6 
#
# 1 121.0137 -2.1817 15.3611 0.0000 0.0000 0.0000
# 2 -2.1817 64.0786 -0.4416 0.0000 0.0000 0.0000
# 3 15.3611 -0.4416 158.6025 0.0000 0.0000 0.0000
# 4 0.0000 0.0000 0.0000 62.3535 0.0000 0.0000
# 5 0.0000 0.0000 0.0000 0.0000 30.7403 0.0000
# 6 0.0000 0.0000 0.0000 0.0000 0.0000 93.2259
#
#
#
# Elastic Compliance Matrix: (Units=1/GPa)
#
#
# Indices 1 2 3 4 5 6 
#
# 1 0.008371 0.000279 -0.000810 0.000000 0.000000 0.000000
# 2 0.000279 0.015615 0.000016 0.000000 0.000000 0.000000
# 3 -0.000810 0.000016 0.006384 0.000000 0.000000 0.000000
# 4 0.000000 0.000000 0.000000 0.016038 0.000000 0.000000
# 5 0.000000 0.000000 0.000000 0.000000 0.032531 0.000000
# 6 0.000000 0.000000 0.000000 0.000000 0.000000 0.010727
#
#
# Mechanical properties :
#
#
# Convention : Reuss Voigt Hill
#
# Bulk Modulus (GPa) = 34.08072 41.01894 37.54983
# Shear Modulus (GPa) = 49.76400 59.32775 54.54588
#
# Velocity S-wave (km/s) = 4.34689 4.74625 4.55095
# Velocity P-wave (km/s) = 6.17531 6.75358 6.47091
#
# Compressibility (1/GPa) = 0.02934210
#
# Stress axis : x y z
#
# Youngs Moduli (GPa) = 119.45452 64.03905 156.65219
#
# Poissons Ratio (x) = -0.01789 0.12689
# Poissons Ratio (y) = -0.03338 -0.00257
# Poissons Ratio (z) = 0.09676 -0.00105
#
# Static dielectric constant tensor:
#      x y z
#    x 1.945970 0.000000 0.000000 
#    y 0.000000 2.180510 0.000000 
#    z 0.000000 0.000000 1.935710 
# 
# From -- ./inp_files/17372.got.cif
#   From: 2010.05.17/outbox.cif.g08.bks.cpg/sg20_9_cif.got.tgz:17372.got - 2010.06.03 22:52:26.
