data_PCOD9320609
_publ_section_title
;
Structure prediction by ZEFSAII (Michael W. Deem and Ramdas Pophale) SiO2 
 PCOD9320609
Probable space group: C 2 2 21
;
_chemical_formula_sum "Si O2"
_cell_formula_units_Z 60
_cell_length_a 15.072022
_cell_length_b 8.105875
_cell_length_c 22.969377
_cell_angle_alpha 90.000000
_cell_angle_beta 90.000000
_cell_angle_gamma 90.000000
_cell_volume 2806.213035
_symmetry_space_group_name_H-M "C 2 2 21"
_symmetry_group_IT_number 20
_symmetry_cell_setting 'orthorhombic'
loop_
_space_group_symop_operation_xyz
x,y,z
-x,-y,1/2+z
x,-y,-z
-x,y,1/2-z
1/2+x,1/2+y,z
1/2-x,1/2-y,1/2+z
1/2+x,1/2-y,-z
1/2-x,1/2+y,1/2-z
loop_
_atom_site_type_symbol
_atom_site_label
_atom_site_fract_x
_atom_site_fract_y
_atom_site_fract_z
Si Si1 0.817126 0.813506 0.251751
Si Si2 0.500000 0.867506 0.250000
Si Si3 0.127740 0.670894 0.367711
Si Si4 0.729928 0.684105 0.526808
Si Si5 0.148824 0.832323 0.696017
Si Si6 0.078155 0.385299 0.054440
Si Si7 0.071077 0.375819 0.841953
Si Si8 0.121153 0.306479 0.420191
O O1 0.836152 0.692730 0.197404
O O2 0.717544 0.788925 0.272408
O O3 0.872587 0.762098 0.308944
O O4 0.838997 0.991485 0.225701
O O5 0.445082 0.747440 0.209161
O O6 0.447244 0.988800 0.292209
O O7 0.178466 0.787915 0.412725
O O8 0.136964 0.484880 0.391051
O O9 0.022094 0.699928 0.363426
O O10 0.726704 0.500000 0.500000
O O11 0.834633 0.719703 0.537777
O O12 0.676834 0.791491 0.479208
O O13 0.157275 0.825714 0.626581
O O14 0.107753 0.514472 0.105016
O O15 0.985854 0.294378 0.070510
O O16 0.053633 0.500000 0.000000
#
# Coordination Sequence:
#
# PCOD9320609 Si02
#       8
#     8   4   8   8   8   8   8   8
#     4  12  26  43  69 105 143 187 236 289 359 436
#     4  12  22  44  70 104 138 182 228 290 360 420
#     4  11  22  43  70  98 138 185 234 287 357 418
#     4  11  25  42  69 104 137 180 244 297 348 422
#     4  12  27  42  69 106 144 185 236 296 361 429
#     4  10  23  43  72 101 130 188 236 287 360 420
#     4  11  22  45  71  99 141 187 234 282 362 427
#     4  11  22  48  70  98 136 190 236 293 361 427
#
# _framework density 21.381128
#
# number of rings (size 3 to 8) (size 9 to 14) (size 15 to 20)
#    0.000    0.800    4.000    4.400    9.333    0.000 
#    0.000    1.333    0.000    1.600    0.000    0.000 
#    0.000    0.000    0.000    0.000    0.000    0.000 
#
# Total GULP energy -167617.129104 kJ/mol
# GULP energy per Si atom -5587.237637 kJ/mol
# Density = 2.133246 g / cm^3
# Si number density = 21.381128 Si / 1000 Ang^3
#
#
#
# Elastic Constant Matrix: (Units=GPa)
#
#
# Indices 1 2 3 4 5 6 
#
# 1 89.7815 27.2121 36.8530 0.0000 0.0000 0.0000
# 2 27.2121 78.4523 24.9155 0.0000 0.0000 0.0000
# 3 36.8530 24.9155 90.9086 0.0000 0.0000 0.0000
# 4 0.0000 0.0000 0.0000 44.9028 0.0000 0.0000
# 5 0.0000 0.0000 0.0000 0.0000 25.8582 0.0000
# 6 0.0000 0.0000 0.0000 0.0000 0.0000 -707.1893
#
#
#
# Elastic Compliance Matrix: (Units=1/GPa)
#
#
# Indices 1 2 3 4 5 6 
#
# 1 0.014134 -0.003377 -0.004804 0.000000 0.000000 0.000000
# 2 -0.003377 0.014769 -0.002679 0.000000 0.000000 0.000000
# 3 -0.004804 -0.002679 0.013682 0.000000 0.000000 0.000000
# 4 0.000000 0.000000 0.000000 0.022270 0.000000 0.000000
# 5 0.000000 0.000000 0.000000 0.000000 0.038672 0.000000
# 6 0.000000 0.000000 0.000000 0.000000 0.000000 -0.001414
#
#
# Mechanical properties :
#
#
# Convention : Reuss Voigt Hill
#
# Bulk Modulus (GPa) = 47.92767 48.56708 48.24738
# Shear Modulus (GPa) = 38.23020 -115.94154 -38.85567
#
# Velocity S-wave (km/s) = 4.23310 -7.37183 -4.26759
# Velocity P-wave (km/s) = 6.80858 7.04941 1.29179
#
# Compressibility (1/GPa) = 0.02086477
#
# Stress axis : x y z
#
# Youngs Moduli (GPa) = 70.75366 67.71120 73.09005
#
# Poissons Ratio (x) = 0.22864 0.35113
# Poissons Ratio (y) = 0.23891 0.19579
# Poissons Ratio (z) = 0.33991 0.18139
#
# Static dielectric constant tensor:
#      x y z
#    x 1.929340 0.000000 0.000000 
#    y 0.000000 1.776490 0.000000 
#    z 0.000000 0.000000 4.510150 
# 
# From -- ./inp_files/29322.got.cif
#   From: 2010.05.17/outbox.cif.g08.bks.cpg/sg20_15_cif.got.tgz:29322.got - 2010.06.03 22:52:26.
