data_PCOD9320338
_publ_section_title
;
Structure prediction by ZEFSAII (Michael W. Deem and Ramdas Pophale) SiO2 
 PCOD9320338
Probable space group: C 2 2 21
;
_chemical_formula_sum "Si O2"
_cell_formula_units_Z 36
_cell_length_a 12.555057
_cell_length_b 13.665397
_cell_length_c 9.773663
_cell_angle_alpha 90.000000
_cell_angle_beta 90.000000
_cell_angle_gamma 90.000000
_cell_volume 1676.865780
_symmetry_space_group_name_H-M "C 2 2 21"
_symmetry_group_IT_number 20
_symmetry_cell_setting 'orthorhombic'
loop_
_space_group_symop_operation_xyz
x,y,z
-x,-y,1/2+z
x,-y,-z
-x,y,1/2-z
1/2+x,1/2+y,z
1/2-x,1/2-y,1/2+z
1/2+x,1/2-y,-z
1/2-x,1/2+y,1/2-z
loop_
_atom_site_type_symbol
_atom_site_label
_atom_site_fract_x
_atom_site_fract_y
_atom_site_fract_z
Si Si1 0.687181 0.866946 0.571598
Si Si2 0.689908 0.363157 0.469227
Si Si3 0.500000 0.956809 0.750000
Si Si4 0.507179 0.500000 0.500000
Si Si5 0.628927 0.000000 0.000000
Si Si6 0.307614 0.465547 0.324188
O O1 0.690950 0.751843 0.548976
O O2 0.577935 0.894790 0.649975
O O3 0.719179 0.914232 0.423656
O O4 0.775612 0.920104 0.666795
O O5 0.585998 0.411023 0.539728
O O6 0.797357 0.406757 0.533381
O O7 0.691476 0.414022 0.319994
O O8 0.436297 0.019355 0.637881
O O9 0.425190 0.459677 0.387577
#
# Coordination Sequence:
#
# PCOD9320338 Si02
#       6
#     8   8   4   4   4   8
#     4  10  24  39  68  91 135 173 219 264 339 380
#     4  11  23  41  68 100 126 178 223 275 327 403
#     4  12  24  44  66 100 132 184 210 280 322 404
#     4   9  22  37  66  92 124 167 218 271 328 376
#     4  11  26  43  70  96 140 165 232 265 338 386
#     4  10  22  46  61  95 140 171 212 287 326 393
#
# _framework density 21.468623999999998
#
# number of rings (size 3 to 8) (size 9 to 14) (size 15 to 20)
#    0.000    1.778    2.222    2.000    6.222    1.778 
#    0.000    0.000    9.778    0.000    0.000    0.000 
#    0.000    0.000    0.000    0.000    0.000    0.000 
#
# Total GULP energy -100358.387945 kJ/mol
# GULP energy per Si atom -5575.465997 kJ/mol
# Density = 2.141976 g / cm^3
# Si number density = 21.468624 Si / 1000 Ang^3
#
#
#
# Elastic Constant Matrix: (Units=GPa)
#
#
# Indices 1 2 3 4 5 6 
#
# 1 119.1800 37.0502 25.4872 0.0000 0.0000 0.0000
# 2 37.0502 141.5435 -0.7124 0.0000 0.0000 0.0000
# 3 25.4872 -0.7124 107.6355 0.0000 0.0000 0.0000
# 4 0.0000 0.0000 0.0000 24.4765 0.0000 0.0000
# 5 0.0000 0.0000 0.0000 0.0000 15.9899 0.0000
# 6 0.0000 0.0000 0.0000 0.0000 0.0000 8.3064
#
#
#
# Elastic Compliance Matrix: (Units=1/GPa)
#
#
# Indices 1 2 3 4 5 6 
#
# 1 0.009675 -0.002544 -0.002308 0.000000 0.000000 0.000000
# 2 -0.002544 0.007734 0.000654 0.000000 0.000000 0.000000
# 3 -0.002308 0.000654 0.009841 0.000000 0.000000 0.000000
# 4 0.000000 0.000000 0.000000 0.040855 0.000000 0.000000
# 5 0.000000 0.000000 0.000000 0.000000 0.062539 0.000000
# 6 0.000000 0.000000 0.000000 0.000000 0.000000 0.120389
#
#
# Mechanical properties :
#
#
# Convention : Reuss Voigt Hill
#
# Bulk Modulus (GPa) = 53.03908 54.66767 53.85338
# Shear Modulus (GPa) = 18.81705 30.19016 24.50360
#
# Velocity S-wave (km/s) = 2.96377 3.75406 3.38208
# Velocity P-wave (km/s) = 6.03912 6.65657 6.35535
#
# Compressibility (1/GPa) = 0.01885402
#
# Stress axis : x y z
#
# Youngs Moduli (GPa) = 103.35779 129.29568 101.61136
#
# Poissons Ratio (x) = 0.32895 0.23450
# Poissons Ratio (y) = 0.26296 -0.06642
# Poissons Ratio (z) = 0.23853 -0.08451
#
# Static dielectric constant tensor:
#      x y z
#    x 1.854380 0.000000 0.000000 
#    y 0.000000 1.744040 0.000000 
#    z 0.000000 0.000000 1.854120 
# 
# From -- ./inp_files/13822.got.cif
#   From: 2010.05.17/outbox.cif.g08.bks.cpg/sg20_7_cif.got.tgz:13822.got - 2010.06.03 22:52:26.
