data_PCOD9320599
_publ_section_title
;
Structure prediction by ZEFSAII (Michael W. Deem and Ramdas Pophale) SiO2 
 PCOD9320599
Probable space group: C 2 2 21
;
_chemical_formula_sum "Si O2"
_cell_formula_units_Z 56
_cell_length_a 25.988455
_cell_length_b 5.334393
_cell_length_c 16.940858
_cell_angle_alpha 90.000000
_cell_angle_beta 90.000000
_cell_angle_gamma 90.000000
_cell_volume 2348.555740
_symmetry_space_group_name_H-M "C 2 2 21"
_symmetry_group_IT_number 20
_symmetry_cell_setting 'orthorhombic'
loop_
_space_group_symop_operation_xyz
x,y,z
-x,-y,1/2+z
x,-y,-z
-x,y,1/2-z
1/2+x,1/2+y,z
1/2-x,1/2-y,1/2+z
1/2+x,1/2-y,-z
1/2-x,1/2+y,1/2-z
loop_
_atom_site_type_symbol
_atom_site_label
_atom_site_fract_x
_atom_site_fract_y
_atom_site_fract_z
Si Si1 0.731173 0.827023 0.136604
Si Si2 0.380666 0.874750 0.805314
Si Si3 0.145158 0.645377 0.069642
Si Si4 0.269175 0.500000 0.500000
Si Si5 0.000000 0.740667 0.750000
Si Si6 0.687330 0.627495 0.293331
Si Si7 0.062144 0.150008 0.829174
Si Si8 0.027481 0.424560 0.592231
O O1 0.756002 0.641560 0.072373
O O2 0.721941 0.671410 0.215739
O O3 0.673737 0.935638 0.121279
O O4 0.769726 0.059335 0.142462
O O5 0.346251 0.627892 0.789053
O O6 0.422206 0.870003 0.732774
O O7 0.347230 0.127389 0.806708
O O8 0.414461 0.848225 0.884457
O O9 0.110925 0.846953 0.114125
O O10 0.192471 0.789114 0.032112
O O11 0.115217 0.500000 0.000000
O O12 0.013269 0.620845 0.663395
O O13 0.047629 0.921535 0.773882
O O14 0.013528 0.210476 0.884344
O O15 0.023147 0.500000 0.500000
#
# Coordination Sequence:
#
# PCOD9320599 Si02
#       8
#     8   8   8   4   4   8   8   8
#     4  11  25  46  74 114 149 202 259 327 391 480
#     4  12  25  49  76 113 153 210 257 325 383 476
#     4  10  23  43  70 111 152 193 252 323 399 473
#     4  10  24  44  70 106 160 192 246 324 400 466
#     4  12  24  48  78 108 160 204 260 334 408 470
#     4  12  27  45  82 108 155 202 263 315 394 463
#     4  12  23  45  76 110 150 201 253 326 399 466
#     4  12  28  50  75 110 155 206 270 325 397 480
#
# _framework density 23.844442000000001
#
# number of rings (size 3 to 8) (size 9 to 14) (size 15 to 20)
#    0.000    0.571    4.286    3.000    4.000    4.000 
#    1.286    0.000    0.000    0.000    0.000    0.000 
#    0.000    0.000    0.000    0.000    0.000    0.000 
#
# Total GULP energy -156319.545945 kJ/mol
# GULP energy per Si atom -5582.840927 kJ/mol
# Density = 2.379017 g / cm^3
# Si number density = 23.844442 Si / 1000 Ang^3
#
#
#
# Elastic Constant Matrix: (Units=GPa)
#
#
# Indices 1 2 3 4 5 6 
#
# 1 71.4364 27.1026 29.8061 0.0000 0.0000 0.0000
# 2 27.1026 114.2237 27.0985 0.0000 0.0000 0.0000
# 3 29.8061 27.0985 95.2184 0.0000 0.0000 0.0000
# 4 0.0000 0.0000 0.0000 38.1066 0.0000 0.0000
# 5 0.0000 0.0000 0.0000 0.0000 10.6258 0.0000
# 6 0.0000 0.0000 0.0000 0.0000 0.0000 21.0547
#
#
#
# Elastic Compliance Matrix: (Units=1/GPa)
#
#
# Indices 1 2 3 4 5 6 
#
# 1 0.016992 -0.002970 -0.004474 0.000000 0.000000 0.000000
# 2 -0.002970 0.009908 -0.001890 0.000000 0.000000 0.000000
# 3 -0.004474 -0.001890 0.012440 0.000000 0.000000 0.000000
# 4 0.000000 0.000000 0.000000 0.026242 0.000000 0.000000
# 5 0.000000 0.000000 0.000000 0.000000 0.094110 0.000000
# 6 0.000000 0.000000 0.000000 0.000000 0.000000 0.047495
#
#
# Mechanical properties :
#
#
# Convention : Reuss Voigt Hill
#
# Bulk Modulus (GPa) = 48.37374 49.87702 49.12538
# Shear Modulus (GPa) = 21.48257 27.08217 24.28237
#
# Velocity S-wave (km/s) = 3.00483 3.37380 3.19465
# Velocity P-wave (km/s) = 5.68946 6.01164 5.85277
#
# Compressibility (1/GPa) = 0.02067237
#
# Stress axis : x y z
#
# Youngs Moduli (GPa) = 58.85115 100.92916 80.38336
#
# Poissons Ratio (x) = 0.29981 0.35960
# Poissons Ratio (y) = 0.17482 0.15192
# Poissons Ratio (z) = 0.26328 0.19074
#
# Static dielectric constant tensor:
#      x y z
#    x 1.974090 0.000000 0.000000 
#    y 0.000000 2.012260 0.000000 
#    z 0.000000 0.000000 2.010140 
# 
# From -- ./inp_files/22325.got.cif
#   From: 2010.05.17/outbox.cif.g08.bks.cpg/sg20_12_cif.got.tgz:22325.got - 2010.06.03 22:52:26.
