data_PCOD9320911
_publ_section_title
;
Structure prediction by ZEFSAII (Michael W. Deem and Ramdas Pophale) SiO2 
 PCOD9320911
Probable space group: C 2 2 21
;
_chemical_formula_sum "Si O2"
_cell_formula_units_Z 32
_cell_length_a 18.012820
_cell_length_b 5.562029
_cell_length_c 13.653069
_cell_angle_alpha 90.000000
_cell_angle_beta 90.000000
_cell_angle_gamma 90.000000
_cell_volume 1367.871318
_symmetry_space_group_name_H-M "C 2 2 21"
_symmetry_group_IT_number 20
_symmetry_cell_setting 'orthorhombic'
loop_
_space_group_symop_operation_xyz
x,y,z
-x,-y,1/2+z
x,-y,-z
-x,y,1/2-z
1/2+x,1/2+y,z
1/2-x,1/2-y,1/2+z
1/2+x,1/2-y,-z
1/2-x,1/2+y,1/2-z
loop_
_atom_site_type_symbol
_atom_site_label
_atom_site_fract_x
_atom_site_fract_y
_atom_site_fract_z
Si Si1 0.699083 0.500000 0.500000
Si Si2 0.575938 0.987139 0.113454
Si Si3 0.500000 0.646667 0.750000
Si Si4 0.225202 0.673501 0.803401
Si Si5 0.440415 0.339124 0.913593
O O1 0.740931 0.373572 0.411574
O O2 0.642877 0.693626 0.450019
O O3 0.636705 0.840641 0.175422
O O4 0.493258 0.879723 0.105703
O O5 0.556748 0.219330 0.177030
O O6 0.601516 0.000000 0.000000
O O7 0.445276 0.497480 0.818091
O O8 0.248913 0.431190 0.741391
O O9 0.476161 0.500000 0.000000
#
# Coordination Sequence:
#
# PCOD9320911 Si02
#       5
#     4   8   4   8   8
#     4  10  24  54  70 116 158 200 254 332 374 468
#     4  12  25  46  76 114 148 202 253 322 375 465
#     4  12  24  44  74 110 150 196 252 318 380 454
#     4  12  30  51  80 112 158 208 255 313 398 456
#     4  10  24  44  75 104 151 190 257 305 385 440
#
# _framework density 23.394015
#
# number of rings (size 3 to 8) (size 9 to 14) (size 15 to 20)
#    0.750    0.000    3.750    2.250   10.500    1.000 
#    4.500    0.000    0.000    0.000    0.000    0.000 
#    0.000    0.000    0.000    0.000    0.000    0.000 
#
# Total GULP energy -89272.523585 kJ/mol
# GULP energy per Si atom -5579.532724 kJ/mol
# Density = 2.334077 g / cm^3
# Si number density = 23.394015 Si / 1000 Ang^3
#
#
#
# Elastic Constant Matrix: (Units=GPa)
#
#
# Indices 1 2 3 4 5 6 
#
# 1 87.5138 7.9285 31.5932 0.0000 0.0000 0.0000
# 2 7.9285 76.6079 64.6416 0.0000 0.0000 0.0000
# 3 31.5932 64.6416 179.3904 0.0000 0.0000 0.0000
# 4 0.0000 0.0000 0.0000 28.5020 0.0000 0.0000
# 5 0.0000 0.0000 0.0000 0.0000 -40.6038 0.0000
# 6 0.0000 0.0000 0.0000 0.0000 0.0000 27.0882
#
#
#
# Elastic Compliance Matrix: (Units=1/GPa)
#
#
# Indices 1 2 3 4 5 6 
#
# 1 0.012236 0.000793 -0.002441 0.000000 0.000000 0.000000
# 2 0.000793 0.018808 -0.006917 0.000000 0.000000 0.000000
# 3 -0.002441 -0.006917 0.008497 0.000000 0.000000 0.000000
# 4 0.000000 0.000000 0.000000 0.035085 0.000000 0.000000
# 5 0.000000 0.000000 0.000000 0.000000 -0.024628 0.000000
# 6 0.000000 0.000000 0.000000 0.000000 0.000000 0.036916
#
#
# Mechanical properties :
#
#
# Convention : Reuss Voigt Hill
#
# Bulk Modulus (GPa) = 44.61977 61.31542 52.96759
# Shear Modulus (GPa) = 44.83750 18.95385 31.89568
#
# Velocity S-wave (km/s) = 4.38267 2.84949 3.69645
# Velocity P-wave (km/s) = 6.68768 6.09039 6.39601
#
# Compressibility (1/GPa) = 0.02241159
#
# Stress axis : x y z
#
# Youngs Moduli (GPa) = 81.72578 53.16918 117.69234
#
# Poissons Ratio (x) = -0.04217 0.28726
# Poissons Ratio (y) = -0.06482 0.81407
# Poissons Ratio (z) = 0.19947 0.36777
#
# Static dielectric constant tensor:
#      x y z
#    x 1.941650 0.000000 0.000000 
#    y 0.000000 2.663910 0.000000 
#    z 0.000000 0.000000 1.838090 
# 
# From -- ./inp_files/21033.got.cif
#   From: 2010.05.17/outbox.cif.g08.bks.cpg/sg20_11_cif.got.tgz:21033.got - 2010.06.03 22:52:26.
