data_PCOD9320350
_publ_section_title
;
Structure prediction by ZEFSAII (Michael W. Deem and Ramdas Pophale) SiO2 
 PCOD9320350
Probable space group: C 2 2 21
;
_chemical_formula_sum "Si O2"
_cell_formula_units_Z 32
_cell_length_a 16.807650
_cell_length_b 7.720689
_cell_length_c 12.361263
_cell_angle_alpha 90.000000
_cell_angle_beta 90.000000
_cell_angle_gamma 90.000000
_cell_volume 1604.079547
_symmetry_space_group_name_H-M "C 2 2 21"
_symmetry_group_IT_number 20
_symmetry_cell_setting 'orthorhombic'
loop_
_space_group_symop_operation_xyz
x,y,z
-x,-y,1/2+z
x,-y,-z
-x,y,1/2-z
1/2+x,1/2+y,z
1/2-x,1/2-y,1/2+z
1/2+x,1/2-y,-z
1/2-x,1/2+y,1/2-z
loop_
_atom_site_type_symbol
_atom_site_label
_atom_site_fract_x
_atom_site_fract_y
_atom_site_fract_z
Si Si1 0.345437 0.691164 0.301981
Si Si2 0.000000 0.416428 0.250000
Si Si3 0.920955 0.000000 0.500000
Si Si4 0.529721 0.253657 0.367067
Si Si5 0.800078 0.077328 0.881853
O O1 0.423334 0.800924 0.271304
O O2 0.368439 0.565745 0.400835
O O3 0.275069 0.816491 0.339587
O O4 0.318389 0.577885 0.200485
O O5 0.015649 0.549442 0.349643
O O6 0.977094 0.844380 0.458257
O O7 0.500000 0.328219 0.250000
O O8 0.621210 0.302499 0.383721
O O9 0.785330 0.000000 0.000000
#
# Coordination Sequence:
#
# PCOD9320350 Si02
#       5
#     8   4   4   8   8
#     4  12  27  46  70 107 142 188 236 295 355 432
#     4  10  24  46  72  96 146 184 238 284 346 428
#     4  12  24  44  76  98 146 186 238 292 360 416
#     4  10  22  46  68 103 137 186 233 288 344 427
#     4  12  27  45  72 103 147 183 237 296 358 418
#
# _framework density 19.949134000000001
#
# number of rings (size 3 to 8) (size 9 to 14) (size 15 to 20)
#    0.750    0.000    3.750    3.000    7.000    0.000 
#    0.000    0.000    0.000    0.000    0.000    0.000 
#    0.000    0.000    0.000    0.000    0.000    0.000 
#
# Total GULP energy -89490.963953 kJ/mol
# GULP energy per Si atom -5593.185247 kJ/mol
# Density = 1.990373 g / cm^3
# Si number density = 19.949134 Si / 1000 Ang^3
#
#
#
# Elastic Constant Matrix: (Units=GPa)
#
#
# Indices 1 2 3 4 5 6 
#
# 1 160.2216 87.9148 61.5745 0.0000 0.0000 0.0000
# 2 87.9148 135.9779 72.6778 0.0000 0.0000 0.0000
# 3 61.5745 72.6778 140.1737 0.0000 0.0000 0.0000
# 4 0.0000 0.0000 0.0000 16.7118 0.0000 0.0000
# 5 0.0000 0.0000 0.0000 0.0000 18.0390 0.0000
# 6 0.0000 0.0000 0.0000 0.0000 0.0000 26.4276
#
#
#
# Elastic Compliance Matrix: (Units=1/GPa)
#
#
# Indices 1 2 3 4 5 6 
#
# 1 0.009873 -0.005624 -0.001421 0.000000 0.000000 0.000000
# 2 -0.005624 0.013377 -0.004465 0.000000 0.000000 0.000000
# 3 -0.001421 -0.004465 0.010073 0.000000 0.000000 0.000000
# 4 0.000000 0.000000 0.000000 0.059838 0.000000 0.000000
# 5 0.000000 0.000000 0.000000 0.000000 0.055435 0.000000
# 6 0.000000 0.000000 0.000000 0.000000 0.000000 0.037839
#
#
# Mechanical properties :
#
#
# Convention : Reuss Voigt Hill
#
# Bulk Modulus (GPa) = 97.05944 97.85635 97.45790
# Shear Modulus (GPa) = 23.48619 26.51610 25.00115
#
# Velocity S-wave (km/s) = 3.43491 3.64976 3.54396
# Velocity P-wave (km/s) = 8.03060 8.18049 8.10589
#
# Compressibility (1/GPa) = 0.01030296
#
# Stress axis : x y z
#
# Youngs Moduli (GPa) = 101.28190 74.75638 99.27091
#
# Poissons Ratio (x) = 0.42042 0.14109
# Poissons Ratio (y) = 0.56960 0.44327
# Poissons Ratio (z) = 0.14394 0.33380
#
# Static dielectric constant tensor:
#      x y z
#    x 1.653770 0.000000 0.000000 
#    y 0.000000 1.690150 0.000000 
#    z 0.000000 0.000000 1.699720 
# 
# From -- ./inp_files/12527.got.cif
#   From: 2010.05.17/outbox.cif.g08.bks.cpg/sg20_7_cif.got.tgz:12527.got - 2010.06.03 22:52:26.
