data_PCOD9320944
_publ_section_title
;
Structure prediction by ZEFSAII (Michael W. Deem and Ramdas Pophale) SiO2 
 PCOD9320944
Probable space group: C 2 2 21
;
_chemical_formula_sum "Si O2"
_cell_formula_units_Z 32
_cell_length_a 12.110602
_cell_length_b 21.924363
_cell_length_c 5.116564
_cell_angle_alpha 90.000000
_cell_angle_beta 90.000000
_cell_angle_gamma 90.000000
_cell_volume 1358.535923
_symmetry_space_group_name_H-M "C 2 2 21"
_symmetry_group_IT_number 20
_symmetry_cell_setting 'orthorhombic'
loop_
_space_group_symop_operation_xyz
x,y,z
-x,-y,1/2+z
x,-y,-z
-x,y,1/2-z
1/2+x,1/2+y,z
1/2-x,1/2-y,1/2+z
1/2+x,1/2-y,-z
1/2-x,1/2+y,1/2-z
loop_
_atom_site_type_symbol
_atom_site_label
_atom_site_fract_x
_atom_site_fract_y
_atom_site_fract_z
Si Si1 0.623357 0.043136 0.754777
Si Si2 0.577455 0.567987 0.004305
Si Si3 0.265304 0.342026 0.307980
Si Si4 0.921650 0.751233 0.002355
O O1 0.500000 0.070537 0.750000
O O2 0.707439 0.097747 0.801576
O O3 0.633505 0.000000 0.500000
O O4 0.632211 0.000000 0.000000
O O5 0.500000 0.567664 0.250000
O O6 0.630394 0.500000 0.000000
O O7 0.500000 0.574326 0.750000
O O8 0.657442 0.625610 0.022245
O O9 0.169401 0.299189 0.420893
O O10 0.345573 0.306283 0.111516
O O11 0.000000 0.733609 0.250000
O O12 0.000000 0.762640 0.750000
#
# Coordination Sequence:
#
# PCOD9320944 Si02
#       4
#     8   8   8   8
#     4  10  24  45  73 109 144 182 235 298 360 432
#     4  10  24  45  71 106 143 182 236 299 361 434
#     4  12  27  49  78 103 146 198 242 296 370 436
#     4  12  30  51  73 110 150 194 253 309 360 430
#
# _framework density 23.554766999999998
#
# number of rings (size 3 to 8) (size 9 to 14) (size 15 to 20)
#    0.000    1.000    0.000    3.750    0.000   24.000 
#    0.000    2.500    0.000    0.000    0.000    0.000 
#    0.000    0.000    0.000    0.000    0.000    0.000 
#
# Total GULP energy -89543.998780 kJ/mol
# GULP energy per Si atom -5596.499924 kJ/mol
# Density = 2.350116 g / cm^3
# Si number density = 23.554767 Si / 1000 Ang^3
#
#
#
# Elastic Constant Matrix: (Units=GPa)
#
#
# Indices 1 2 3 4 5 6 
#
# 1 156.5672 73.8889 63.5429 0.0000 0.0000 0.0000
# 2 73.8889 129.0992 40.0272 0.0000 0.0000 0.0000
# 3 63.5429 40.0272 163.0172 0.0000 0.0000 0.0000
# 4 0.0000 0.0000 0.0000 24.9252 0.0000 0.0000
# 5 0.0000 0.0000 0.0000 0.0000 26.0028 0.0000
# 6 0.0000 0.0000 0.0000 0.0000 0.0000 60.2473
#
#
#
# Elastic Compliance Matrix: (Units=1/GPa)
#
#
# Indices 1 2 3 4 5 6 
#
# 1 0.009679 -0.004730 -0.002611 0.000000 0.000000 0.000000
# 2 -0.004730 0.010696 -0.000782 0.000000 0.000000 0.000000
# 3 -0.002611 -0.000782 0.007344 0.000000 0.000000 0.000000
# 4 0.000000 0.000000 0.000000 0.040120 0.000000 0.000000
# 5 0.000000 0.000000 0.000000 0.000000 0.038457 0.000000
# 6 0.000000 0.000000 0.000000 0.000000 0.000000 0.016598
#
#
# Mechanical properties :
#
#
# Convention : Reuss Voigt Hill
#
# Bulk Modulus (GPa) = 87.17412 89.28907 88.23159
# Shear Modulus (GPa) = 34.97311 40.31670 37.64491
#
# Velocity S-wave (km/s) = 3.85743 4.14166 4.00207
# Velocity P-wave (km/s) = 7.54514 7.80131 7.67429
#
# Compressibility (1/GPa) = 0.01147129
#
# Stress axis : x y z
#
# Youngs Moduli (GPa) = 103.31452 93.49423 136.15864
#
# Poissons Ratio (x) = 0.44224 0.35557
# Poissons Ratio (y) = 0.48869 0.10654
# Poissons Ratio (z) = 0.26980 0.07316
#
# Static dielectric constant tensor:
#      x y z
#    x 1.988760 0.000000 0.000000 
#    y 0.000000 1.867190 0.000000 
#    z 0.000000 0.000000 1.850750 
# 
# From -- ./inp_files/1007.got.cif
#   From: 2010.05.17/outbox.cif.g08.bks.cpg/sg20_1_cif.got.tgz:1007.got - 2010.06.03 22:52:26.
