data_PCOD9320798
_publ_section_title
;
Structure prediction by ZEFSAII (Michael W. Deem and Ramdas Pophale) SiO2 
 PCOD9320798
Probable space group: C 2 2 21
;
_chemical_formula_sum "Si O2"
_cell_formula_units_Z 48
_cell_length_a 12.760117
_cell_length_b 13.537522
_cell_length_c 13.870809
_cell_angle_alpha 90.000000
_cell_angle_beta 90.000000
_cell_angle_gamma 90.000000
_cell_volume 2396.048604
_symmetry_space_group_name_H-M "C 2 2 21"
_symmetry_group_IT_number 20
_symmetry_cell_setting 'orthorhombic'
loop_
_space_group_symop_operation_xyz
x,y,z
-x,-y,1/2+z
x,-y,-z
-x,y,1/2-z
1/2+x,1/2+y,z
1/2-x,1/2-y,1/2+z
1/2+x,1/2-y,-z
1/2-x,1/2+y,1/2-z
loop_
_atom_site_type_symbol
_atom_site_label
_atom_site_fract_x
_atom_site_fract_y
_atom_site_fract_z
Si Si1 0.027190 0.109940 0.532030
Si Si2 0.000000 0.319994 0.250000
Si Si3 0.944132 0.513347 0.612423
Si Si4 0.154726 0.802782 0.164455
Si Si5 0.853510 0.183070 0.151124
Si Si6 0.500000 0.840791 0.750000
Si Si7 0.704832 0.539283 0.679800
O O1 0.067401 0.168979 0.438426
O O2 0.127433 0.089254 0.601345
O O3 0.935436 0.164503 0.590130
O O4 0.991370 0.000000 0.500000
O O5 0.000394 0.391937 0.341770
O O6 0.901751 0.248830 0.236158
O O7 0.952356 0.500000 0.500000
O O8 0.823249 0.530099 0.642482
O O9 0.991321 0.415253 0.660872
O O10 0.247989 0.738880 0.118684
O O11 0.195840 0.897960 0.222543
O O12 0.099723 0.730146 0.242134
O O13 0.832225 0.073519 0.190090
#
# Coordination Sequence:
#
# PCOD9320798 Si02
#       7
#     8   4   8   8   8   4   8
#     4  10  24  41  65  99 132 174 221 281 340 400
#     4  11  26  41  66 102 126 177 232 281 336 402
#     4  11  24  44  66  95 137 176 226 281 337 409
#     4  12  23  45  67  98 135 175 227 277 342 405
#     4  11  25  42  67  96 135 174 223 276 341 405
#     4  11  24  41  66  96 130 185 218 275 338 404
#     4  11  22  41  68  99 132 172 221 280 338 407
#
# _framework density 20.032982000000001
#
# number of rings (size 3 to 8) (size 9 to 14) (size 15 to 20)
#    0.000    1.000    5.000    1.500    7.000    0.000 
#    0.000    2.500    0.000    0.000    0.000    0.000 
#    0.000    0.000    0.000    0.000    0.000    0.000 
#
# Total GULP energy -134071.699256 kJ/mol
# GULP energy per Si atom -5586.320802 kJ/mol
# Density = 1.998739 g / cm^3
# Si number density = 20.032982 Si / 1000 Ang^3
#
#
#
# Elastic Constant Matrix: (Units=GPa)
#
#
# Indices 1 2 3 4 5 6 
#
# 1 67.3144 34.8320 33.4813 0.0000 0.0000 0.0000
# 2 34.8320 125.7092 62.0275 0.0000 0.0000 0.0000
# 3 33.4813 62.0275 105.5600 0.0000 0.0000 0.0000
# 4 0.0000 0.0000 0.0000 1.6672 0.0000 0.0000
# 5 0.0000 0.0000 0.0000 0.0000 29.4305 0.0000
# 6 0.0000 0.0000 0.0000 0.0000 0.0000 25.1287
#
#
#
# Elastic Compliance Matrix: (Units=1/GPa)
#
#
# Indices 1 2 3 4 5 6 
#
# 1 0.018477 -0.003138 -0.004017 0.000000 0.000000 0.000000
# 2 -0.003138 0.011736 -0.005901 0.000000 0.000000 0.000000
# 3 -0.004017 -0.005901 0.014215 0.000000 0.000000 0.000000
# 4 0.000000 0.000000 0.000000 0.599800 0.000000 0.000000
# 5 0.000000 0.000000 0.000000 0.000000 0.033978 0.000000
# 6 0.000000 0.000000 0.000000 0.000000 0.000000 0.039795
#
#
# Mechanical properties :
#
#
# Convention : Reuss Voigt Hill
#
# Bulk Modulus (GPa) = 54.59412 62.14059 58.36736
# Shear Modulus (GPa) = 6.66474 22.46148 14.56311
#
# Velocity S-wave (km/s) = 1.82595 3.35210 2.69914
# Velocity P-wave (km/s) = 5.63531 6.78739 6.23800
#
# Compressibility (1/GPa) = 0.01831699
#
# Stress axis : x y z
#
# Youngs Moduli (GPa) = 54.12065 85.20881 70.34984
#
# Poissons Ratio (x) = 0.26737 0.28258
# Poissons Ratio (y) = 0.16982 0.41512
# Poissons Ratio (z) = 0.21739 0.50280
#
# Static dielectric constant tensor:
#      x y z
#    x 1.721610 0.000000 0.000000 
#    y 0.000000 1.719300 0.000000 
#    z 0.000000 0.000000 1.631180 
# 
# From -- ./inp_files/20690.got.cif
#   From: 2010.05.17/outbox.cif.g08.bks.cpg/sg20_11_cif.got.tgz:20690.got - 2010.06.03 22:52:26.
