data_PCOD9320633
_publ_section_title
;
Structure prediction by ZEFSAII (Michael W. Deem and Ramdas Pophale) SiO2 
 PCOD9320633
Probable space group: C 2 2 21
;
_chemical_formula_sum "Si O2"
_cell_formula_units_Z 64
_cell_length_a 12.113312
_cell_length_b 15.308673
_cell_length_c 16.033945
_cell_angle_alpha 90.000000
_cell_angle_beta 90.000000
_cell_angle_gamma 90.000000
_cell_volume 2973.314435
_symmetry_space_group_name_H-M "C 2 2 21"
_symmetry_group_IT_number 20
_symmetry_cell_setting 'orthorhombic'
loop_
_space_group_symop_operation_xyz
x,y,z
-x,-y,1/2+z
x,-y,-z
-x,y,1/2-z
1/2+x,1/2+y,z
1/2-x,1/2-y,1/2+z
1/2+x,1/2-y,-z
1/2-x,1/2+y,1/2-z
loop_
_atom_site_type_symbol
_atom_site_label
_atom_site_fract_x
_atom_site_fract_y
_atom_site_fract_z
Si Si1 0.993570 0.467467 0.086830
Si Si2 0.642891 0.444679 0.838661
Si Si3 0.987687 0.343795 0.652975
Si Si4 0.199748 0.604170 0.686082
Si Si5 0.778205 0.591959 0.621394
Si Si6 0.253043 0.228507 0.397274
Si Si7 0.887917 0.938458 0.861898
Si Si8 0.217061 0.288866 0.579041
O O1 0.112590 0.426603 0.068125
O O2 0.009009 0.552047 0.144202
O O3 0.913055 0.403808 0.135268
O O4 0.942604 0.500000 0.000000
O O5 0.712334 0.534110 0.850256
O O6 0.518877 0.448246 0.874946
O O7 0.631113 0.433616 0.738449
O O8 0.709973 0.363356 0.876490
O O9 0.090572 0.308194 0.600902
O O10 0.000000 0.318755 0.750000
O O11 0.873109 0.312120 0.614975
O O12 0.185715 0.580419 0.782459
O O13 0.237672 0.703618 0.677945
O O14 0.681431 0.521940 0.605961
O O15 0.742459 0.691053 0.609497
O O16 0.164349 0.150256 0.398075
O O17 0.241374 0.284990 0.480884
#
# Coordination Sequence:
#
# PCOD9320633 Si02
#       8
#     8   8   8   8   8   8   8   8
#     4  12  24  42  68  99 134 169 222 282 340 392
#     4  10  23  44  68  95 131 171 219 274 334 402
#     4  12  24  46  72  94 132 186 234 275 331 412
#     4  11  24  43  68  97 129 176 223 268 331 404
#     4  11  24  43  68  97 129 176 223 268 331 404
#     4  12  27  43  67 100 138 174 223 282 340 395
#     4  10  23  44  68  95 131 171 219 274 334 402
#     4  12  27  43  67 100 138 174 223 282 340 395
#
# _framework density 21.524799999999999
#
# number of rings (size 3 to 8) (size 9 to 14) (size 15 to 20)
#    0.000    0.750    2.500    4.875    5.250    0.000 
#    0.000    1.250    0.000    0.000    0.000    0.000 
#    0.000    0.000    0.000    0.000    0.000    0.000 
#
# Total GULP energy -179112.067073 kJ/mol
# GULP energy per Si atom -5597.252096 kJ/mol
# Density = 2.147581 g / cm^3
# Si number density = 21.524800 Si / 1000 Ang^3
#
#
#
# Elastic Constant Matrix: (Units=GPa)
#
#
# Indices 1 2 3 4 5 6 
#
# 1 107.1428 22.6366 1.1626 0.0000 0.0000 0.0000
# 2 22.6366 98.6832 -11.4880 0.0000 0.0000 0.0000
# 3 1.1626 -11.4880 54.7652 0.0000 0.0000 0.0000
# 4 0.0000 0.0000 0.0000 13.4848 0.0000 0.0000
# 5 0.0000 0.0000 0.0000 0.0000 4.1197 0.0000
# 6 0.0000 0.0000 0.0000 0.0000 0.0000 65.6856
#
#
#
# Elastic Compliance Matrix: (Units=1/GPa)
#
#
# Indices 1 2 3 4 5 6 
#
# 1 0.009835 -0.002337 -0.000699 0.000000 0.000000 0.000000
# 2 -0.002337 0.010943 0.002345 0.000000 0.000000 0.000000
# 3 -0.000699 0.002345 0.018767 0.000000 0.000000 0.000000
# 4 0.000000 0.000000 0.000000 0.074158 0.000000 0.000000
# 5 0.000000 0.000000 0.000000 0.000000 0.242734 0.000000
# 6 0.000000 0.000000 0.000000 0.000000 0.000000 0.015224
#
#
# Mechanical properties :
#
#
# Convention : Reuss Voigt Hill
#
# Bulk Modulus (GPa) = 26.20471 31.69040 28.94756
# Shear Modulus (GPa) = 12.96133 33.21001 23.08567
#
# Velocity S-wave (km/s) = 2.45655 3.93220 3.27848
# Velocity P-wave (km/s) = 4.49965 5.94735 5.27342
#
# Compressibility (1/GPa) = 0.03816107
#
# Stress axis : x y z
#
# Youngs Moduli (GPa) = 101.68024 91.38608 53.28633
#
# Poissons Ratio (x) = 0.21360 0.03725
# Poissons Ratio (y) = 0.23766 -0.12496
# Poissons Ratio (z) = 0.07108 -0.21430
#
# Static dielectric constant tensor:
#      x y z
#    x 1.770690 0.000000 0.000000 
#    y 0.000000 1.776590 0.000000 
#    z 0.000000 0.000000 1.413590 
# 
# From -- ./inp_files/24472.got.cif
#   From: 2010.05.17/outbox.cif.g08.bks.cpg/sg20_13_cif.got.tgz:24472.got - 2010.06.03 22:52:26.
