data_PCOD9320487
_publ_section_title
;
Structure prediction by ZEFSAII (Michael W. Deem and Ramdas Pophale) SiO2 
 PCOD9320487
Probable space group: C 2 2 21
;
_chemical_formula_sum "Si O2"
_cell_formula_units_Z 56
_cell_length_a 5.068631
_cell_length_b 28.031398
_cell_length_c 15.946210
_cell_angle_alpha 90.000000
_cell_angle_beta 90.000000
_cell_angle_gamma 90.000000
_cell_volume 2265.650479
_symmetry_space_group_name_H-M "C 2 2 21"
_symmetry_group_IT_number 20
_symmetry_cell_setting 'orthorhombic'
loop_
_space_group_symop_operation_xyz
x,y,z
-x,-y,1/2+z
x,-y,-z
-x,y,1/2-z
1/2+x,1/2+y,z
1/2-x,1/2-y,1/2+z
1/2+x,1/2-y,-z
1/2-x,1/2+y,1/2-z
loop_
_atom_site_type_symbol
_atom_site_label
_atom_site_fract_x
_atom_site_fract_y
_atom_site_fract_z
Si Si1 0.083612 0.599600 0.838703
Si Si2 0.896814 0.045473 0.611418
Si Si3 0.334873 0.863860 0.514542
Si Si4 0.033965 0.777214 0.473997
Si Si5 0.734419 0.748121 0.197830
Si Si6 0.014449 0.061292 0.081130
Si Si7 0.818116 0.354081 0.832412
O O1 0.382267 0.580708 0.849882
O O2 0.000000 0.621797 0.750000
O O3 0.882312 0.555216 0.846476
O O4 0.038517 0.630432 0.923087
O O5 0.860039 0.056043 0.511969
O O6 0.992982 0.991222 0.618935
O O7 0.074233 0.831416 0.503887
O O8 0.504864 0.840713 0.587147
O O9 0.262526 0.915169 0.554114
O O10 0.239080 0.743433 0.526091
O O11 0.170751 0.775370 0.383642
O O12 0.500000 0.770670 0.250000
O O13 0.647449 0.693903 0.176854
O O14 0.000000 0.742772 0.250000
O O15 0.155385 0.099032 0.142109
O O16 0.000000 0.362082 0.750000
#
# Coordination Sequence:
#
# PCOD9320487 Si02
#       7
#     8   8   8   8   8   8   8
#     4  11  24  45  68  99 135 182 230 289 339 405
#     4  10  23  43  70  94 140 178 229 279 346 404
#     4  11  25  45  70 101 137 182 230 287 346 410
#     4  12  25  44  72 100 135 184 231 277 344 420
#     4  11  25  45  67 100 140 175 226 288 343 408
#     4  10  23  41  68 100 135 182 225 283 342 414
#     4  11  24  41  67  98 138 179 222 285 347 415
#
# _framework density 24.716961999999999
#
# number of rings (size 3 to 8) (size 9 to 14) (size 15 to 20)
#    0.000    1.143    2.857    2.143    8.000    2.286 
#    2.571    2.857    0.000    0.000    0.000    0.000 
#    0.000    0.000    0.000    0.000    0.000    0.000 
#
# Total GULP energy -156619.441424 kJ/mol
# GULP energy per Si atom -5593.551479 kJ/mol
# Density = 2.466070 g / cm^3
# Si number density = 24.716962 Si / 1000 Ang^3
#
#
#
# Elastic Constant Matrix: (Units=GPa)
#
#
# Indices 1 2 3 4 5 6 
#
# 1 74.1078 8.8144 25.4946 0.0000 0.0000 0.0000
# 2 8.8144 105.0056 25.5534 0.0000 0.0000 0.0000
# 3 25.4946 25.5534 147.7889 0.0000 0.0000 0.0000
# 4 0.0000 0.0000 0.0000 39.5289 0.0000 0.0000
# 5 0.0000 0.0000 0.0000 0.0000 50.3022 0.0000
# 6 0.0000 0.0000 0.0000 0.0000 0.0000 38.3973
#
#
#
# Elastic Compliance Matrix: (Units=1/GPa)
#
#
# Indices 1 2 3 4 5 6 
#
# 1 0.014385 -0.000630 -0.002373 0.000000 0.000000 0.000000
# 2 -0.000630 0.009969 -0.001615 0.000000 0.000000 0.000000
# 3 -0.002373 -0.001615 0.007455 0.000000 0.000000 0.000000
# 4 0.000000 0.000000 0.000000 0.025298 0.000000 0.000000
# 5 0.000000 0.000000 0.000000 0.000000 0.019880 0.000000
# 6 0.000000 0.000000 0.000000 0.000000 0.000000 0.026044
#
#
# Mechanical properties :
#
#
# Convention : Reuss Voigt Hill
#
# Bulk Modulus (GPa) = 44.29929 49.62523 46.96226
# Shear Modulus (GPa) = 41.73953 43.44833 42.59393
#
# Velocity S-wave (km/s) = 4.11384 4.19720 4.15573
# Velocity P-wave (km/s) = 6.36604 6.60376 6.48599
#
# Compressibility (1/GPa) = 0.02257373
#
# Stress axis : x y z
#
# Youngs Moduli (GPa) = 69.51677 100.30875 134.13930
#
# Poissons Ratio (x) = 0.06321 0.31825
# Poissons Ratio (y) = 0.04381 0.21664
# Poissons Ratio (z) = 0.16493 0.16200
#
# Static dielectric constant tensor:
#      x y z
#    x 1.929170 0.000000 0.000000 
#    y 0.000000 1.959830 0.000000 
#    z 0.000000 0.000000 1.997040 
# 
# From -- ./inp_files/17939.got.cif
#   From: 2010.05.17/outbox.cif.g08.bks.cpg/sg20_9_cif.got.tgz:17939.got - 2010.06.03 22:52:26.
