data_PCOD9320043
_publ_section_title
;
Structure prediction by ZEFSAII (Michael W. Deem and Ramdas Pophale) SiO2 
 PCOD9320043
Probable space group: C 2 2 21
;
_chemical_formula_sum "Si O2"
_cell_formula_units_Z 48
_cell_length_a 7.870896
_cell_length_b 33.171810
_cell_length_c 7.870478
_cell_angle_alpha 90.000000
_cell_angle_beta 90.000000
_cell_angle_gamma 90.000000
_cell_volume 2054.917792
_symmetry_space_group_name_H-M "C 2 2 21"
_symmetry_group_IT_number 20
_symmetry_cell_setting 'orthorhombic'
loop_
_space_group_symop_operation_xyz
x,y,z
-x,-y,1/2+z
x,-y,-z
-x,y,1/2-z
1/2+x,1/2+y,z
1/2-x,1/2-y,1/2+z
1/2+x,1/2-y,-z
1/2-x,1/2+y,1/2-z
loop_
_atom_site_type_symbol
_atom_site_label
_atom_site_fract_x
_atom_site_fract_y
_atom_site_fract_z
Si Si1 0.815258 0.097522 0.084002
Si Si2 0.889894 0.761792 0.423484
Si Si3 0.313335 0.412497 0.520582
Si Si4 0.814939 0.334202 0.167417
Si Si5 0.178958 0.185447 0.486151
Si Si6 0.011422 0.544793 0.045353
O O1 0.820255 0.081453 0.276001
O O2 0.803005 0.145383 0.120433
O O3 0.650154 0.078569 0.996202
O O4 0.986320 0.087188 0.980073
O O5 0.721493 0.789575 0.406162
O O6 0.829937 0.717701 0.474996
O O7 0.000000 0.758031 0.250000
O O8 0.009564 0.788917 0.542402
O O9 0.236346 0.369520 0.460793
O O10 0.171853 0.444781 0.463440
O O11 0.684927 0.333656 0.325702
O O12 0.000000 0.339124 0.250000
O O13 0.000000 0.546831 0.250000
O O14 0.067272 0.500000 0.000000
#
# Coordination Sequence:
#
# PCOD9320043 Si02
#       6
#     8   8   8   8   8   8
#     4  10  22  42  68  89 126 174 212 262 323 396
#     4  10  23  39  56  90 128 169 227 277 333 386
#     4  10  22  42  65  94 125 168 216 262 324 393
#     4  11  22  38  61  89 125 167 218 274 329 380
#     4  11  22  39  59  86 125 167 219 273 319 388
#     4  10  23  42  66  98 130 159 207 260 325 399
#
# _framework density 23.358599999999999
#
# number of rings (size 3 to 8) (size 9 to 14) (size 15 to 20)
#    0.000    1.667    1.667    2.000    0.000    8.667 
#    3.000    0.000    0.000    0.000    0.000    0.000 
#    0.000    0.000    0.000    0.000    0.000    0.000 
#
# Total GULP energy -133934.822503 kJ/mol
# GULP energy per Si atom -5580.617604 kJ/mol
# Density = 2.330543 g / cm^3
# Si number density = 23.358600 Si / 1000 Ang^3
#
#
#
# Elastic Constant Matrix: (Units=GPa)
#
#
# Indices 1 2 3 4 5 6 
#
# 1 172.4014 64.1353 22.9454 0.0000 0.0000 0.0000
# 2 64.1353 89.0864 -4.8729 0.0000 0.0000 0.0000
# 3 22.9454 -4.8729 27.0162 0.0000 0.0000 0.0000
# 4 0.0000 0.0000 0.0000 26.4024 0.0000 0.0000
# 5 0.0000 0.0000 0.0000 0.0000 20.0197 0.0000
# 6 0.0000 0.0000 0.0000 0.0000 0.0000 -7.4313
#
#
#
# Elastic Compliance Matrix: (Units=1/GPa)
#
#
# Indices 1 2 3 4 5 6 
#
# 1 0.009993 -0.007735 -0.009883 0.000000 0.000000 0.000000
# 2 -0.007735 0.017324 0.009694 0.000000 0.000000 0.000000
# 3 -0.009883 0.009694 0.047157 0.000000 0.000000 0.000000
# 4 0.000000 0.000000 0.000000 0.037875 0.000000 0.000000
# 5 0.000000 0.000000 0.000000 0.000000 0.049951 0.000000
# 6 0.000000 0.000000 0.000000 0.000000 0.000000 -0.134566
#
#
# Mechanical properties :
#
#
# Convention : Reuss Voigt Hill
#
# Bulk Modulus (GPa) = 17.05694 50.32441 33.69067
# Shear Modulus (GPa) = 79.21049 21.55124 50.38086
#
# Velocity S-wave (km/s) = 5.82960 3.04077 4.64922
# Velocity P-wave (km/s) = 7.25468 5.82404 6.57837
#
# Compressibility (1/GPa) = 0.05862718
#
# Stress axis : x y z
#
# Youngs Moduli (GPa) = 100.06825 57.72403 21.20581
#
# Poissons Ratio (x) = 0.44649 0.20957
# Poissons Ratio (y) = 0.77401 -0.20557
# Poissons Ratio (z) = 0.98893 -0.55958
#
# Static dielectric constant tensor:
#      x y z
#    x 2.000760 0.000000 0.000000 
#    y 0.000000 1.888560 0.000000 
#    z 0.000000 0.000000 1.972080 
# 
# From -- ./inp_files/6470.got.cif
#   From: 2010.05.17/outbox.cif.g08.bks.cpg/sg20_4_cif.got.tgz:6470.got - 2010.06.03 22:52:26.
