data_PCOD9320252
_publ_section_title
;
Structure prediction by ZEFSAII (Michael W. Deem and Ramdas Pophale) SiO2 
 PCOD9320252
Probable space group: C 2 2 21
;
_chemical_formula_sum "Si O2"
_cell_formula_units_Z 56
_cell_length_a 14.676428
_cell_length_b 18.160222
_cell_length_c 9.691757
_cell_angle_alpha 90.000000
_cell_angle_beta 90.000000
_cell_angle_gamma 90.000000
_cell_volume 2583.116766
_symmetry_space_group_name_H-M "C 2 2 21"
_symmetry_group_IT_number 20
_symmetry_cell_setting 'orthorhombic'
loop_
_space_group_symop_operation_xyz
x,y,z
-x,-y,1/2+z
x,-y,-z
-x,y,1/2-z
1/2+x,1/2+y,z
1/2-x,1/2-y,1/2+z
1/2+x,1/2-y,-z
1/2-x,1/2+y,1/2-z
loop_
_atom_site_type_symbol
_atom_site_label
_atom_site_fract_x
_atom_site_fract_y
_atom_site_fract_z
Si Si1 0.663996 0.692210 0.032692
Si Si2 0.595070 0.498245 0.695630
Si Si3 0.412457 0.850434 0.838577
Si Si4 0.256846 0.546238 0.377832
Si Si5 0.627022 0.376370 0.485767
Si Si6 0.287168 0.719071 0.770024
Si Si7 0.976660 0.263807 0.088812
O O1 0.669505 0.607007 0.071474
O O2 0.708125 0.733213 0.162939
O O3 0.567017 0.730139 0.017505
O O4 0.720349 0.701124 0.890601
O O5 0.500000 0.465869 0.750000
O O6 0.677122 0.511339 0.800495
O O7 0.645617 0.437308 0.600720
O O8 0.565109 0.572410 0.614900
O O9 0.500000 0.872735 0.750000
O O10 0.327792 0.906453 0.818709
O O11 0.376333 0.770799 0.786343
O O12 0.440342 0.832555 0.997926
O O13 0.213508 0.500000 0.500000
O O14 0.701783 0.347767 0.377924
O O15 0.591085 0.305129 0.565409
O O16 0.000000 0.278131 0.250000
#
# Coordination Sequence:
#
# PCOD9320252 Si02
#       7
#     8   8   8   8   8   8   8
#     4  11  23  38  67  95 133 170 217 286 345 408
#     4  11  24  39  61  94 136 182 218 269 341 422
#     4  10  22  44  68  94 133 182 232 285 339 403
#     4  11  25  41  68  96 137 181 234 276 343 414
#     4  10  23  38  60  89 133 165 220 263 334 417
#     4  10  23  37  62  96 129 165 220 278 350 401
#     4  11  23  39  67 101 132 171 222 284 350 413
#
# _framework density 21.679237000000001
#
# number of rings (size 3 to 8) (size 9 to 14) (size 15 to 20)
#    0.000    1.429    1.429    3.000   16.000    0.000 
#    0.000    0.714    3.143    0.000    0.000    0.000 
#    0.000    0.000    0.000    0.000    0.000    0.000 
#
# Total GULP energy -155935.436662 kJ/mol
# GULP energy per Si atom -5569.122738 kJ/mol
# Density = 2.162989 g / cm^3
# Si number density = 21.679237 Si / 1000 Ang^3
#
#
#
# Elastic Constant Matrix: (Units=GPa)
#
#
# Indices 1 2 3 4 5 6 
#
# 1 78.5937 11.7003 20.3930 0.0000 0.0000 0.0000
# 2 11.7003 40.3835 15.3032 0.0000 0.0000 0.0000
# 3 20.3930 15.3032 102.4505 0.0000 0.0000 0.0000
# 4 0.0000 0.0000 0.0000 31.6129 0.0000 0.0000
# 5 0.0000 0.0000 0.0000 0.0000 25.8404 0.0000
# 6 0.0000 0.0000 0.0000 0.0000 0.0000 1.7030
#
#
#
# Elastic Compliance Matrix: (Units=1/GPa)
#
#
# Indices 1 2 3 4 5 6 
#
# 1 0.013780 -0.003130 -0.002275 0.000000 0.000000 0.000000
# 2 -0.003130 0.026959 -0.003404 0.000000 0.000000 0.000000
# 3 -0.002275 -0.003404 0.010722 0.000000 0.000000 0.000000
# 4 0.000000 0.000000 0.000000 0.031633 0.000000 0.000000
# 5 0.000000 0.000000 0.000000 0.000000 0.038699 0.000000
# 6 0.000000 0.000000 0.000000 0.000000 0.000000 0.587189
#
#
# Mechanical properties :
#
#
# Convention : Reuss Voigt Hill
#
# Bulk Modulus (GPa) = 29.54856 35.13564 32.34210
# Shear Modulus (GPa) = 6.77615 23.43334 15.10474
#
# Velocity S-wave (km/s) = 1.76987 3.29129 2.64244
# Velocity P-wave (km/s) = 4.22327 5.53946 4.92553
#
# Compressibility (1/GPa) = 0.03384260
#
# Stress axis : x y z
#
# Youngs Moduli (GPa) = 72.56852 37.09285 93.26467
#
# Poissons Ratio (x) = 0.11611 0.21221
# Poissons Ratio (y) = 0.22716 0.31746
# Poissons Ratio (z) = 0.16512 0.12626
#
# Static dielectric constant tensor:
#      x y z
#    x 1.846900 0.000000 0.000000 
#    y 0.000000 1.798850 0.000000 
#    z 0.000000 0.000000 1.922760 
# 
# From -- ./inp_files/8738.got.cif
#   From: 2010.05.17/outbox.cif.g08.bks.cpg/sg20_5_cif.got.tgz:8738.got - 2010.06.03 22:52:26.
