data_PCOD9320255
_publ_section_title
;
Structure prediction by ZEFSAII (Michael W. Deem and Ramdas Pophale) SiO2 
 PCOD9320255
Probable space group: C 2 2 21
;
_chemical_formula_sum "Si O2"
_cell_formula_units_Z 36
_cell_length_a 16.561705
_cell_length_b 6.420655
_cell_length_c 14.966512
_cell_angle_alpha 90.000000
_cell_angle_beta 90.000000
_cell_angle_gamma 90.000000
_cell_volume 1591.493897
_symmetry_space_group_name_H-M "C 2 2 21"
_symmetry_group_IT_number 20
_symmetry_cell_setting 'orthorhombic'
loop_
_space_group_symop_operation_xyz
x,y,z
-x,-y,1/2+z
x,-y,-z
-x,y,1/2-z
1/2+x,1/2+y,z
1/2-x,1/2-y,1/2+z
1/2+x,1/2-y,-z
1/2-x,1/2+y,1/2-z
loop_
_atom_site_type_symbol
_atom_site_label
_atom_site_fract_x
_atom_site_fract_y
_atom_site_fract_z
Si Si1 0.374300 0.501763 0.247968
Si Si2 0.305056 0.000000 0.000000
Si Si3 0.907916 0.594267 0.337298
Si Si4 0.268456 0.185203 0.631545
Si Si5 0.068056 0.374987 0.352177
O O1 0.409641 0.006487 0.235879
O O2 0.319440 0.661230 0.304436
O O3 0.312538 0.381820 0.182744
O O4 0.432568 0.639177 0.184735
O O5 0.362988 0.902650 0.075318
O O6 0.253543 0.182217 0.044991
O O7 0.825200 0.516083 0.380956
O O8 0.912276 0.839672 0.318666
O O9 0.983544 0.476821 0.382400
#
# Coordination Sequence:
#
# PCOD9320255 Si02
#       5
#     8   4   8   8   8
#     4  11  20  44  74  97 130 192 238 277 331 437
#     4  12  24  46  60 108 148 178 220 304 362 406
#     4  10  22  44  68  97 133 187 241 279 329 432
#     4  11  22  40  69 100 136 173 237 281 352 407
#     4  10  24  42  68 100 137 181 235 280 355 407
#
# _framework density 22.620258
#
# number of rings (size 3 to 8) (size 9 to 14) (size 15 to 20)
#    0.000    1.333    4.444    1.333    0.000    8.000 
#    4.000    0.000    0.000    0.000    0.000    0.000 
#    0.000    0.000    0.000    0.000    0.000    0.000 
#
# Total GULP energy -100605.461695 kJ/mol
# GULP energy per Si atom -5589.192316 kJ/mol
# Density = 2.256877 g / cm^3
# Si number density = 22.620258 Si / 1000 Ang^3
#
#
#
# Elastic Constant Matrix: (Units=GPa)
#
#
# Indices 1 2 3 4 5 6 
#
# 1 88.9121 47.0950 8.4124 0.0000 0.0000 0.0000
# 2 47.0950 139.1282 6.9897 0.0000 0.0000 0.0000
# 3 8.4124 6.9897 56.6012 0.0000 0.0000 0.0000
# 4 0.0000 0.0000 0.0000 36.0285 0.0000 0.0000
# 5 0.0000 0.0000 0.0000 0.0000 15.5865 0.0000
# 6 0.0000 0.0000 0.0000 0.0000 0.0000 31.9058
#
#
#
# Elastic Compliance Matrix: (Units=1/GPa)
#
#
# Indices 1 2 3 4 5 6 
#
# 1 0.013827 -0.004606 -0.001486 0.000000 0.000000 0.000000
# 2 -0.004606 0.008767 -0.000398 0.000000 0.000000 0.000000
# 3 -0.001486 -0.000398 0.017938 0.000000 0.000000 0.000000
# 4 0.000000 0.000000 0.000000 0.027756 0.000000 0.000000
# 5 0.000000 0.000000 0.000000 0.000000 0.064158 0.000000
# 6 0.000000 0.000000 0.000000 0.000000 0.000000 0.031342
#
#
# Mechanical properties :
#
#
# Convention : Reuss Voigt Hill
#
# Bulk Modulus (GPa) = 36.29624 45.51508 40.90566
# Shear Modulus (GPa) = 26.88869 31.51380 29.20125
#
# Velocity S-wave (km/s) = 3.45149 3.73656 3.59685
# Velocity P-wave (km/s) = 5.65371 6.22744 5.94750
#
# Compressibility (1/GPa) = 0.02755106
#
# Stress axis : x y z
#
# Youngs Moduli (GPa) = 72.32046 114.06789 55.74905
#
# Poissons Ratio (x) = 0.52538 0.08286
# Poissons Ratio (y) = 0.33310 0.02219
# Poissons Ratio (z) = 0.10749 0.04540
#
# Static dielectric constant tensor:
#      x y z
#    x 1.932450 0.000000 0.000000 
#    y 0.000000 1.921330 0.000000 
#    z 0.000000 0.000000 1.815450 
# 
# From -- ./inp_files/21103.got.cif
#   From: 2010.05.17/outbox.cif.g08.bks.cpg/sg20_11_cif.got.tgz:21103.got - 2010.06.03 22:52:26.
