data_PCOD9320074
_publ_section_title
;
Structure prediction by ZEFSAII (Michael W. Deem and Ramdas Pophale) SiO2 
 PCOD9320074
Probable space group: C 2 2 21
;
_chemical_formula_sum "Si O2"
_cell_formula_units_Z 48
_cell_length_a 26.074456
_cell_length_b 7.317581
_cell_length_c 9.304156
_cell_angle_alpha 90.000000
_cell_angle_beta 90.000000
_cell_angle_gamma 90.000000
_cell_volume 1775.251050
_symmetry_space_group_name_H-M "C 2 2 21"
_symmetry_group_IT_number 20
_symmetry_cell_setting 'orthorhombic'
loop_
_space_group_symop_operation_xyz
x,y,z
-x,-y,1/2+z
x,-y,-z
-x,y,1/2-z
1/2+x,1/2+y,z
1/2-x,1/2-y,1/2+z
1/2+x,1/2-y,-z
1/2-x,1/2+y,1/2-z
loop_
_atom_site_type_symbol
_atom_site_label
_atom_site_fract_x
_atom_site_fract_y
_atom_site_fract_z
Si Si1 0.715581 0.857919 0.118022
Si Si2 0.693909 0.535998 0.816240
Si Si3 0.622838 0.109913 0.165291
Si Si4 0.958762 0.323867 0.856954
Si Si5 0.457457 0.288876 0.554474
Si Si6 0.910742 0.052673 0.170715
O O1 0.754009 0.888044 0.248871
O O2 0.659225 0.937795 0.144774
O O3 0.710685 0.641674 0.090294
O O4 0.737318 0.000000 0.000000
O O5 0.661379 0.719257 0.845968
O O6 0.649110 0.444854 0.715048
O O7 0.595739 0.087185 0.321819
O O8 0.580682 0.171056 0.046343
O O9 0.986314 0.291577 0.009462
O O10 0.945452 0.124766 0.791380
O O11 0.908855 0.000000 0.000000
O O12 0.456483 0.500000 0.500000
O O13 0.437790 0.302106 0.718622
O O14 0.000000 0.588483 0.250000
#
# Coordination Sequence:
#
# PCOD9320074 Si02
#       6
#     8   8   8   8   8   8
#     4  12  25  41  74 103 144 203 253 303 389 457
#     4  11  23  45  65 104 147 188 249 313 370 446
#     4  10  22  42  67 108 144 191 248 315 372 446
#     4   9  18  32  61  97 133 175 235 293 359 425
#     4  11  18  35  67 103 128 193 242 290 370 440
#     4  11  22  34  61 100 147 176 241 301 358 435
#
# _framework density 27.038429000000001
#
# number of rings (size 3 to 8) (size 9 to 14) (size 15 to 20)
#    0.000    1.333    6.667    2.000    0.000    0.000 
#    0.000    0.000    0.000   24.000    8.667    0.000 
#    0.000    0.000    0.000    0.000    0.000    0.000 
#
# Total GULP energy -133685.584753 kJ/mol
# GULP energy per Si atom -5570.232698 kJ/mol
# Density = 2.697689 g / cm^3
# Si number density = 27.038429 Si / 1000 Ang^3
#
#
#
# Elastic Constant Matrix: (Units=GPa)
#
#
# Indices 1 2 3 4 5 6 
#
# 1 131.6519 36.2499 27.4364 0.0000 0.0000 0.0000
# 2 36.2499 198.7825 39.9169 0.0000 0.0000 0.0000
# 3 27.4364 39.9169 105.5797 0.0000 0.0000 0.0000
# 4 0.0000 0.0000 0.0000 28.1111 0.0000 0.0000
# 5 0.0000 0.0000 0.0000 0.0000 30.1625 0.0000
# 6 0.0000 0.0000 0.0000 0.0000 0.0000 34.9493
#
#
#
# Elastic Compliance Matrix: (Units=1/GPa)
#
#
# Indices 1 2 3 4 5 6 
#
# 1 0.008273 -0.001165 -0.001709 0.000000 0.000000 0.000000
# 2 -0.001165 0.005608 -0.001817 0.000000 0.000000 0.000000
# 3 -0.001709 -0.001817 0.010603 0.000000 0.000000 0.000000
# 4 0.000000 0.000000 0.000000 0.035573 0.000000 0.000000
# 5 0.000000 0.000000 0.000000 0.000000 0.033154 0.000000
# 6 0.000000 0.000000 0.000000 0.000000 0.000000 0.028613
#
#
# Mechanical properties :
#
#
# Convention : Reuss Voigt Hill
#
# Bulk Modulus (GPa) = 66.22658 71.46893 68.84776
# Shear Modulus (GPa) = 36.69973 40.80533 38.75253
#
# Velocity S-wave (km/s) = 3.68818 3.88901 3.78992
# Velocity P-wave (km/s) = 6.53326 6.83049 6.68353
#
# Compressibility (1/GPa) = 0.01509968
#
# Stress axis : x y z
#
# Youngs Moduli (GPa) = 120.87687 178.31351 94.31473
#
# Poissons Ratio (x) = 0.20781 0.16120
# Poissons Ratio (y) = 0.14087 0.17141
# Poissons Ratio (z) = 0.20660 0.32407
#
# Static dielectric constant tensor:
#      x y z
#    x 2.079540 0.000000 0.000000 
#    y 0.000000 2.210440 0.000000 
#    z 0.000000 0.000000 2.544940 
# 
# From -- ./inp_files/16635.got.cif
#   From: 2010.05.17/outbox.cif.g08.bks.cpg/sg20_9_cif.got.tgz:16635.got - 2010.06.03 22:52:26.
