data_PCOD9320387
_publ_section_title
;
Structure prediction by ZEFSAII (Michael W. Deem and Ramdas Pophale) SiO2 
 PCOD9320387
Probable space group: C 2 2 21
;
_chemical_formula_sum "Si O2"
_cell_formula_units_Z 52
_cell_length_a 21.837033
_cell_length_b 5.314192
_cell_length_c 20.767114
_cell_angle_alpha 90.000000
_cell_angle_beta 90.000000
_cell_angle_gamma 90.000000
_cell_volume 2409.944375
_symmetry_space_group_name_H-M "C 2 2 21"
_symmetry_group_IT_number 20
_symmetry_cell_setting 'orthorhombic'
loop_
_space_group_symop_operation_xyz
x,y,z
-x,-y,1/2+z
x,-y,-z
-x,y,1/2-z
1/2+x,1/2+y,z
1/2-x,1/2-y,1/2+z
1/2+x,1/2-y,-z
1/2-x,1/2+y,1/2-z
loop_
_atom_site_type_symbol
_atom_site_label
_atom_site_fract_x
_atom_site_fract_y
_atom_site_fract_z
Si Si1 0.365003 0.463267 0.568837
Si Si2 0.878038 0.626914 0.331080
Si Si3 0.510071 0.799781 0.174714
Si Si4 0.846027 0.109149 0.790502
Si Si5 0.481288 0.500000 0.500000
Si Si6 0.954162 0.195991 0.879954
Si Si7 0.287569 0.249047 0.686487
O O1 0.332400 0.500000 0.500000
O O2 0.386002 0.718813 0.604190
O O3 0.430565 0.347629 0.543292
O O4 0.316813 0.364580 0.621486
O O5 0.889978 0.771059 0.264575
O O6 0.808273 0.539737 0.322101
O O7 0.920129 0.383555 0.334779
O O8 0.500000 0.819947 0.250000
O O9 0.469445 0.018632 0.141071
O O10 0.495714 0.516157 0.155012
O O11 0.887356 0.107324 0.854570
O O12 0.784908 0.264599 0.807644
O O13 0.819821 0.868178 0.750266
O O14 0.525432 0.340563 0.453846
#
# Coordination Sequence:
#
# PCOD9320387 Si02
#       7
#     8   8   8   8   4   8   8
#     4   9  21  41  64  99 128 176 235 278 337 415
#     4  11  21  38  67  95 132 176 219 291 345 404
#     4  12  23  40  68 101 136 174 228 290 358 424
#     4  11  24  41  66 102 136 177 229 294 356 410
#     4  10  22  48  66  98 144 182 234 294 348 428
#     4  12  26  43  67 101 142 183 229 288 359 422
#     4  11  22  41  68  96 136 178 232 291 345 417
#
# _framework density 21.577264
#
# number of rings (size 3 to 8) (size 9 to 14) (size 15 to 20)
#    0.462    0.615    4.615    2.308    2.154    1.231 
#    2.769    1.538    0.000    0.000    0.000    0.000 
#    0.000    0.000    0.000    0.000    0.000    0.000 
#
# Total GULP energy -144754.777982 kJ/mol
# GULP energy per Si atom -5567.491461 kJ/mol
# Density = 2.152815 g / cm^3
# Si number density = 21.577264 Si / 1000 Ang^3
#
#
#
# Elastic Constant Matrix: (Units=GPa)
#
#
# Indices 1 2 3 4 5 6 
#
# 1 118.5639 16.0339 47.5975 0.0000 0.0000 0.0000
# 2 16.0339 41.3417 17.1748 0.0000 0.0000 0.0000
# 3 47.5975 17.1748 121.0265 0.0000 0.0000 0.0000
# 4 0.0000 0.0000 0.0000 14.7605 0.0000 0.0000
# 5 0.0000 0.0000 0.0000 0.0000 40.9130 0.0000
# 6 0.0000 0.0000 0.0000 0.0000 0.0000 31.5045
#
#
#
# Elastic Compliance Matrix: (Units=1/GPa)
#
#
# Indices 1 2 3 4 5 6 
#
# 1 0.010243 -0.002443 -0.003682 0.000000 0.000000 0.000000
# 2 -0.002443 0.026287 -0.002770 0.000000 0.000000 0.000000
# 3 -0.003682 -0.002770 0.010104 0.000000 0.000000 0.000000
# 4 0.000000 0.000000 0.000000 0.067749 0.000000 0.000000
# 5 0.000000 0.000000 0.000000 0.000000 0.024442 0.000000
# 6 0.000000 0.000000 0.000000 0.000000 0.000000 0.031741
#
#
# Mechanical properties :
#
#
# Convention : Reuss Voigt Hill
#
# Bulk Modulus (GPa) = 34.66843 49.17162 41.92003
# Shear Modulus (GPa) = 25.25658 30.77731 28.01695
#
# Velocity S-wave (km/s) = 3.42500 3.78084 3.60731
# Velocity P-wave (km/s) = 5.63407 6.47285 6.06797
#
# Compressibility (1/GPa) = 0.02884468
#
# Stress axis : x y z
#
# Youngs Moduli (GPa) = 97.63136 38.04199 98.97505
#
# Poissons Ratio (x) = 0.09294 0.36438
# Poissons Ratio (y) = 0.23852 0.27411
# Poissons Ratio (z) = 0.35943 0.10536
#
# Static dielectric constant tensor:
#      x y z
#    x 1.831060 0.000000 0.000000 
#    y 0.000000 1.912040 0.000000 
#    z 0.000000 0.000000 1.892470 
# 
# From -- ./inp_files/26117.got.cif
#   From: 2010.05.17/outbox.cif.g08.bks.cpg/sg20_14_cif.got.tgz:26117.got - 2010.06.03 22:52:26.
