data_PCOD9320108
_publ_section_title
;
Structure prediction by ZEFSAII (Michael W. Deem and Ramdas Pophale) SiO2 
 PCOD9320108
Probable space group: C 2 2 21
;
_chemical_formula_sum "Si O2"
_cell_formula_units_Z 32
_cell_length_a 11.869872
_cell_length_b 22.648633
_cell_length_c 5.107388
_cell_angle_alpha 90.000000
_cell_angle_beta 90.000000
_cell_angle_gamma 90.000000
_cell_volume 1373.051674
_symmetry_space_group_name_H-M "C 2 2 21"
_symmetry_group_IT_number 20
_symmetry_cell_setting 'orthorhombic'
loop_
_space_group_symop_operation_xyz
x,y,z
-x,-y,1/2+z
x,-y,-z
-x,y,1/2-z
1/2+x,1/2+y,z
1/2-x,1/2-y,1/2+z
1/2+x,1/2-y,-z
1/2-x,1/2+y,1/2-z
loop_
_atom_site_type_symbol
_atom_site_label
_atom_site_fract_x
_atom_site_fract_y
_atom_site_fract_z
Si Si1 0.080463 0.500000 0.000000
Si Si2 0.746962 0.437542 0.857336
Si Si3 0.000000 0.957007 0.750000
Si Si4 0.678688 0.824217 0.377015
Si Si5 0.395668 0.241449 0.370712
O O1 0.163663 0.449792 0.876822
O O2 0.000000 0.516514 0.750000
O O3 0.618943 0.421781 0.768204
O O4 0.736089 0.500000 0.000000
O O5 0.791935 0.391762 0.072293
O O6 0.011707 0.000000 0.500000
O O7 0.617700 0.805728 0.641263
O O8 0.794044 0.787136 0.379397
O O9 0.611851 0.797207 0.133021
O O10 0.500000 0.277407 0.250000
#
# Coordination Sequence:
#
# PCOD9320108 Si02
#       5
#     4   8   4   8   8
#     4  12  26  46  70 102 154 204 248 304 366 464
#     4  11  25  48  71 111 151 192 258 303 387 455
#     4  10  22  42  70 100 146 190 230 310 370 438
#     4  10  24  43  73 104 141 187 242 310 362 450
#     4  10  22  47  70 105 141 186 246 303 378 431
#
# _framework density 23.305751000000001
#
# number of rings (size 3 to 8) (size 9 to 14) (size 15 to 20)
#    0.000    1.500    2.500    0.750    3.500    1.000 
#   27.000    0.000    0.000    0.000    0.000    0.000 
#    0.000    0.000    0.000    0.000    0.000    0.000 
#
# Total GULP energy -89240.554887 kJ/mol
# GULP energy per Si atom -5577.534680 kJ/mol
# Density = 2.325271 g / cm^3
# Si number density = 23.305751 Si / 1000 Ang^3
#
#
#
# Elastic Constant Matrix: (Units=GPa)
#
#
# Indices 1 2 3 4 5 6 
#
# 1 176.3151 22.6564 76.9850 0.0000 0.0000 0.0000
# 2 22.6564 77.4205 49.0383 0.0000 0.0000 0.0000
# 3 76.9850 49.0383 192.6162 0.0000 0.0000 0.0000
# 4 0.0000 0.0000 0.0000 33.0927 0.0000 0.0000
# 5 0.0000 0.0000 0.0000 0.0000 42.9622 0.0000
# 6 0.0000 0.0000 0.0000 0.0000 0.0000 -38.3208
#
#
#
# Elastic Compliance Matrix: (Units=1/GPa)
#
#
# Indices 1 2 3 4 5 6 
#
# 1 0.006877 -0.000324 -0.002666 0.000000 0.000000 0.000000
# 2 -0.000324 0.015415 -0.003795 0.000000 0.000000 0.000000
# 3 -0.002666 -0.003795 0.007224 0.000000 0.000000 0.000000
# 4 0.000000 0.000000 0.000000 0.030218 0.000000 0.000000
# 5 0.000000 0.000000 0.000000 0.000000 0.023276 0.000000
# 6 0.000000 0.000000 0.000000 0.000000 0.000000 -0.026095
#
#
# Mechanical properties :
#
#
# Convention : Reuss Voigt Hill
#
# Bulk Modulus (GPa) = 62.71316 82.63456 72.67386
# Shear Modulus (GPa) = 65.96232 27.39161 46.67697
#
# Velocity S-wave (km/s) = 5.32583 3.43201 4.48013
# Velocity P-wave (km/s) = 8.04901 7.15811 7.61660
#
# Compressibility (1/GPa) = 0.01594562
#
# Stress axis : x y z
#
# Youngs Moduli (GPa) = 145.40178 64.87158 138.43547
#
# Poissons Ratio (x) = 0.02100 0.36912
# Poissons Ratio (y) = 0.04707 0.52538
# Poissons Ratio (z) = 0.38770 0.24620
#
# Static dielectric constant tensor:
#      x y z
#    x 1.588050 0.000000 0.000000 
#    y 0.000000 1.932870 0.000000 
#    z 0.000000 0.000000 1.853190 
# 
# From -- ./inp_files/1064.got.cif
#   From: 2010.05.17/outbox.cif.g08.bks.cpg/sg20_1_cif.got.tgz:1064.got - 2010.06.03 22:52:26.
