data_PCOD9320800
_publ_section_title
;
Structure prediction by ZEFSAII (Michael W. Deem and Ramdas Pophale) SiO2 
 PCOD9320800
Probable space group: C 2 2 21
;
_chemical_formula_sum "Si O2"
_cell_formula_units_Z 56
_cell_length_a 19.500842
_cell_length_b 5.016306
_cell_length_c 26.455978
_cell_angle_alpha 90.000000
_cell_angle_beta 90.000000
_cell_angle_gamma 90.000000
_cell_volume 2587.981726
_symmetry_space_group_name_H-M "C 2 2 21"
_symmetry_group_IT_number 20
_symmetry_cell_setting 'orthorhombic'
loop_
_space_group_symop_operation_xyz
x,y,z
-x,-y,1/2+z
x,-y,-z
-x,y,1/2-z
1/2+x,1/2+y,z
1/2-x,1/2-y,1/2+z
1/2+x,1/2-y,-z
1/2-x,1/2+y,1/2-z
loop_
_atom_site_type_symbol
_atom_site_label
_atom_site_fract_x
_atom_site_fract_y
_atom_site_fract_z
Si Si1 0.068105 0.535353 0.771037
Si Si2 0.111029 0.719741 0.328241
Si Si3 0.692834 0.723645 0.357279
Si Si4 0.641817 0.262466 0.534027
Si Si5 0.720005 0.985183 0.223404
Si Si6 0.518658 0.628465 0.053692
Si Si7 0.025379 0.628358 0.117520
O O1 0.076932 0.313427 0.726766
O O2 0.172870 0.490877 0.665455
O O3 0.145149 0.648430 0.772753
O O4 0.056822 0.436921 0.827975
O O5 0.000000 0.313471 0.250000
O O6 0.056004 0.625377 0.370113
O O7 0.133402 0.017329 0.340288
O O8 0.688749 0.759584 0.416824
O O9 0.758990 0.583970 0.332666
O O10 0.669472 0.500000 0.500000
O O11 0.564168 0.343345 0.549786
O O12 0.637559 0.000000 0.500000
O O13 0.770889 0.764783 0.246540
O O14 0.539841 0.421104 0.096999
O O15 0.542414 0.916367 0.073662
O O16 0.540447 0.500000 0.000000
#
# Coordination Sequence:
#
# PCOD9320800 Si02
#       7
#     8   8   8   8   8   8   8
#     4  10  24  41  66  96 137 178 219 266 324 405
#     4  11  20  37  57  92 125 171 199 261 316 392
#     4  12  21  37  63  86 132 159 212 264 331 373
#     4  11  21  34  58  89 121 160 212 267 325 378
#     4  12  24  43  66  95 131 174 221 263 326 400
#     4  11  21  35  58  88 125 163 214 276 331 380
#     4  11  21  37  57  89 130 162 212 260 333 379
#
# _framework density 21.638483999999998
#
# number of rings (size 3 to 8) (size 9 to 14) (size 15 to 20)
#    0.000    0.857    5.714    3.000    0.000    2.286 
#    0.000    6.429    0.000    2.571    0.000    0.000 
#    0.000    0.000    0.000    0.000    0.000    0.000 
#
# Total GULP energy -156206.191024 kJ/mol
# GULP energy per Si atom -5578.792537 kJ/mol
# Density = 2.158923 g / cm^3
# Si number density = 21.638484 Si / 1000 Ang^3
#
#
#
# Elastic Constant Matrix: (Units=GPa)
#
#
# Indices 1 2 3 4 5 6 
#
# 1 59.1723 -2.4488 9.1518 0.0000 0.0000 0.0000
# 2 -2.4488 95.3421 24.6920 0.0000 0.0000 0.0000
# 3 9.1518 24.6920 127.7723 0.0000 0.0000 0.0000
# 4 0.0000 0.0000 0.0000 24.7010 0.0000 0.0000
# 5 0.0000 0.0000 0.0000 0.0000 23.6815 0.0000
# 6 0.0000 0.0000 0.0000 0.0000 0.0000 4.0149
#
#
#
# Elastic Compliance Matrix: (Units=1/GPa)
#
#
# Indices 1 2 3 4 5 6 
#
# 1 0.017147 0.000798 -0.001382 0.000000 0.000000 0.000000
# 2 0.000798 0.011078 -0.002198 0.000000 0.000000 0.000000
# 3 -0.001382 -0.002198 0.008350 0.000000 0.000000 0.000000
# 4 0.000000 0.000000 0.000000 0.040484 0.000000 0.000000
# 5 0.000000 0.000000 0.000000 0.000000 0.042227 0.000000
# 6 0.000000 0.000000 0.000000 0.000000 0.000000 0.249074
#
#
# Mechanical properties :
#
#
# Convention : Reuss Voigt Hill
#
# Bulk Modulus (GPa) = 32.24658 38.34184 35.29421
# Shear Modulus (GPa) = 13.01197 27.20559 20.10878
#
# Velocity S-wave (km/s) = 2.45487 3.54966 3.05176
# Velocity P-wave (km/s) = 4.79270 5.87859 5.36320
#
# Compressibility (1/GPa) = 0.03101104
#
# Stress axis : x y z
#
# Youngs Moduli (GPa) = 58.32037 90.26647 119.75743
#
# Poissons Ratio (x) = -0.07207 0.16556
# Poissons Ratio (y) = -0.04656 0.26323
# Poissons Ratio (z) = 0.08062 0.19841
#
# Static dielectric constant tensor:
#      x y z
#    x 1.842270 0.000000 0.000000 
#    y 0.000000 1.740790 0.000000 
#    z 0.000000 0.000000 1.813260 
# 
# From -- ./inp_files/28000.got.cif
#   From: 2010.05.17/outbox.cif.g08.bks.cpg/sg20_14_cif.got.tgz:28000.got - 2010.06.03 22:52:26.
