data_PCOD9320213
_publ_section_title
;
Structure prediction by ZEFSAII (Michael W. Deem and Ramdas Pophale) SiO2 
 PCOD9320213
Probable space group: C 2 2 21
;
_chemical_formula_sum "Si O2"
_cell_formula_units_Z 40
_cell_length_a 18.965226
_cell_length_b 10.244222
_cell_length_c 8.648284
_cell_angle_alpha 90.000000
_cell_angle_beta 90.000000
_cell_angle_gamma 90.000000
_cell_volume 1680.223083
_symmetry_space_group_name_H-M "C 2 2 21"
_symmetry_group_IT_number 20
_symmetry_cell_setting 'orthorhombic'
loop_
_space_group_symop_operation_xyz
x,y,z
-x,-y,1/2+z
x,-y,-z
-x,y,1/2-z
1/2+x,1/2+y,z
1/2-x,1/2-y,1/2+z
1/2+x,1/2-y,-z
1/2-x,1/2+y,1/2-z
loop_
_atom_site_type_symbol
_atom_site_label
_atom_site_fract_x
_atom_site_fract_y
_atom_site_fract_z
Si Si1 0.318551 0.791871 0.213589
Si Si2 0.953705 0.758756 0.607610
Si Si3 0.409694 0.852292 0.946865
Si Si4 0.420458 0.355867 0.296303
Si Si5 0.712576 0.507135 0.316193
O O1 0.387876 0.816280 0.318294
O O2 0.351603 0.773288 0.043983
O O3 0.265696 0.909927 0.231221
O O4 0.281929 0.654005 0.247633
O O5 0.919237 0.851924 0.480900
O O6 0.000000 0.814224 0.750000
O O7 0.011987 0.677650 0.512381
O O8 0.406668 0.790021 0.776311
O O9 0.395669 0.000000 0.000000
O O10 0.500000 0.388865 0.250000
O O11 0.365609 0.454696 0.221362
O O12 0.726392 0.500000 0.500000
#
# Coordination Sequence:
#
# PCOD9320213 Si02
#       5
#     8   8   8   8   8
#     4  11  27  46  73 103 152 196 256 320 378 461
#     4   9  22  44  71 112 140 190 253 319 384 465
#     4  10  22  43  74 110 149 193 250 315 391 462
#     4  10  23  45  75 103 146 196 250 321 391 454
#     4  12  28  49  73 108 151 204 265 319 392 467
#
# _framework density 23.806363999999999
#
# number of rings (size 3 to 8) (size 9 to 14) (size 15 to 20)
#    0.000    1.600    2.000    0.000    5.600   11.200 
#    0.000    0.000    0.000    0.000    0.000    0.000 
#    0.000    0.000    0.000    0.000    0.000    0.000 
#
# Total GULP energy -111807.393422 kJ/mol
# GULP energy per Si atom -5590.369671 kJ/mol
# Density = 2.375218 g / cm^3
# Si number density = 23.806364 Si / 1000 Ang^3
#
#
#
# Elastic Constant Matrix: (Units=GPa)
#
#
# Indices 1 2 3 4 5 6 
#
# 1 118.2836 31.6977 17.1218 0.0000 0.0000 0.0000
# 2 31.6977 127.3082 -5.7992 0.0000 0.0000 0.0000
# 3 17.1218 -5.7992 94.9954 0.0000 0.0000 0.0000
# 4 0.0000 0.0000 0.0000 15.4362 0.0000 0.0000
# 5 0.0000 0.0000 0.0000 0.0000 23.2308 0.0000
# 6 0.0000 0.0000 0.0000 0.0000 0.0000 21.1780
#
#
#
# Elastic Compliance Matrix: (Units=1/GPa)
#
#
# Indices 1 2 3 4 5 6 
#
# 1 0.009367 -0.002416 -0.001836 0.000000 0.000000 0.000000
# 2 -0.002416 0.008500 0.000954 0.000000 0.000000 0.000000
# 3 -0.001836 0.000954 0.010916 0.000000 0.000000 0.000000
# 4 0.000000 0.000000 0.000000 0.064783 0.000000 0.000000
# 5 0.000000 0.000000 0.000000 0.000000 0.043046 0.000000
# 6 0.000000 0.000000 0.000000 0.000000 0.000000 0.047219
#
#
# Mechanical properties :
#
#
# Convention : Reuss Voigt Hill
#
# Bulk Modulus (GPa) = 45.06855 47.40310 46.23583
# Shear Modulus (GPa) = 25.27521 31.80680 28.54100
#
# Velocity S-wave (km/s) = 3.26191 3.65918 3.46624
# Velocity P-wave (km/s) = 5.75840 6.14882 5.95681
#
# Compressibility (1/GPa) = 0.02218842
#
# Stress axis : x y z
#
# Youngs Moduli (GPa) = 106.75277 117.64756 91.60880
#
# Poissons Ratio (x) = 0.28423 0.16818
# Poissons Ratio (y) = 0.25791 -0.08743
# Poissons Ratio (z) = 0.19598 -0.11228
#
# Static dielectric constant tensor:
#      x y z
#    x 1.854120 0.000000 0.000000 
#    y 0.000000 1.945820 0.000000 
#    z 0.000000 0.000000 2.053060 
# 
# From -- ./inp_files/7025.got.cif
#   From: 2010.05.17/outbox.cif.g08.bks.cpg/sg20_4_cif.got.tgz:7025.got - 2010.06.03 22:52:26.
