data_PCOD9320144
_publ_section_title
;
Structure prediction by ZEFSAII (Michael W. Deem and Ramdas Pophale) SiO2 
 PCOD9320144
Probable space group: C 2 2 21
;
_chemical_formula_sum "Si O2"
_cell_formula_units_Z 64
_cell_length_a 12.302278
_cell_length_b 20.478363
_cell_length_c 12.248335
_cell_angle_alpha 90.000000
_cell_angle_beta 90.000000
_cell_angle_gamma 90.000000
_cell_volume 3085.729340
_symmetry_space_group_name_H-M "C 2 2 21"
_symmetry_group_IT_number 20
_symmetry_cell_setting 'orthorhombic'
loop_
_space_group_symop_operation_xyz
x,y,z
-x,-y,1/2+z
x,-y,-z
-x,y,1/2-z
1/2+x,1/2+y,z
1/2-x,1/2-y,1/2+z
1/2+x,1/2-y,-z
1/2-x,1/2+y,1/2-z
loop_
_atom_site_type_symbol
_atom_site_label
_atom_site_fract_x
_atom_site_fract_y
_atom_site_fract_z
Si Si1 0.320726 0.991317 0.204794
Si Si2 0.497006 0.161745 0.443705
Si Si3 0.429214 0.311749 0.462300
Si Si4 0.765502 0.297031 0.881481
Si Si5 0.378745 0.408260 0.270372
Si Si6 0.464569 0.955777 0.406447
Si Si7 0.172437 0.151725 0.542134
Si Si8 0.203009 0.626058 0.179541
O O1 0.212403 0.952467 0.172691
O O2 0.384920 0.956719 0.304501
O O3 0.419373 0.990224 0.118949
O O4 0.282962 0.061459 0.248694
O O5 0.448453 0.234301 0.453837
O O6 0.622956 0.167808 0.416360
O O7 0.482891 0.116919 0.549701
O O8 0.424352 0.130286 0.349018
O O9 0.336447 0.323692 0.551080
O O10 0.397350 0.344327 0.346237
O O11 0.546877 0.339886 0.493102
O O12 0.782165 0.221697 0.916110
O O13 0.757554 0.312707 0.752830
O O14 0.500000 0.436657 0.250000
O O15 0.332507 0.391773 0.150687
O O16 0.411520 0.000000 0.500000
O O17 0.238624 0.126650 0.438015
#
# Coordination Sequence:
#
# PCOD9320144 Si02
#       8
#     8   8   8   8   8   8   8   8
#     4  11  25  39  66  97 129 177 215 276 338 407
#     4  11  21  39  66  94 129 173 218 272 338 399
#     4  10  22  43  64  96 127 172 225 282 338 396
#     4  11  23  38  65  95 131 169 218 277 337 408
#     4  10  22  44  66  89 126 171 232 273 328 404
#     4  11  22  40  63  95 138 166 215 270 333 408
#     4  10  23  40  65  94 126 175 218 281 337 402
#     4  12  23  41  65  96 134 174 224 272 349 409
#
# _framework density 20.740639000000002
#
# number of rings (size 3 to 8) (size 9 to 14) (size 15 to 20)
#    0.000    1.250    2.500    3.375    1.750    2.500 
#    2.250    0.000    0.000    0.000    0.000    0.000 
#    0.000    0.000    0.000    0.000    0.000    0.000 
#
# Total GULP energy -178721.556291 kJ/mol
# GULP energy per Si atom -5585.048634 kJ/mol
# Density = 2.069343 g / cm^3
# Si number density = 20.740639 Si / 1000 Ang^3
#
#
#
# Elastic Constant Matrix: (Units=GPa)
#
#
# Indices 1 2 3 4 5 6 
#
# 1 117.5599 22.1928 32.4623 0.0000 0.0000 0.0000
# 2 22.1928 74.2676 14.1252 0.0000 0.0000 0.0000
# 3 32.4623 14.1252 90.1878 0.0000 0.0000 0.0000
# 4 0.0000 0.0000 0.0000 34.9772 0.0000 0.0000
# 5 0.0000 0.0000 0.0000 0.0000 39.0132 0.0000
# 6 0.0000 0.0000 0.0000 0.0000 0.0000 19.0708
#
#
#
# Elastic Compliance Matrix: (Units=1/GPa)
#
#
# Indices 1 2 3 4 5 6 
#
# 1 0.009822 -0.002332 -0.003170 0.000000 0.000000 0.000000
# 2 -0.002332 0.014432 -0.001421 0.000000 0.000000 0.000000
# 3 -0.003170 -0.001421 0.012452 0.000000 0.000000 0.000000
# 4 0.000000 0.000000 0.000000 0.028590 0.000000 0.000000
# 5 0.000000 0.000000 0.000000 0.000000 0.025632 0.000000
# 6 0.000000 0.000000 0.000000 0.000000 0.000000 0.052436
#
#
# Mechanical properties :
#
#
# Convention : Reuss Voigt Hill
#
# Bulk Modulus (GPa) = 43.74589 46.61955 45.18272
# Shear Modulus (GPa) = 30.33429 32.82790 31.58110
#
# Velocity S-wave (km/s) = 3.82848 3.98273 3.90637
# Velocity P-wave (km/s) = 6.37814 6.60876 6.49448
#
# Compressibility (1/GPa) = 0.02285929
#
# Stress axis : x y z
#
# Youngs Moduli (GPa) = 101.81323 69.29070 80.31130
#
# Poissons Ratio (x) = 0.16159 0.25459
# Poissons Ratio (y) = 0.23744 0.11412
# Poissons Ratio (z) = 0.32275 0.09846
#
# Static dielectric constant tensor:
#      x y z
#    x 1.742420 0.000000 0.000000 
#    y 0.000000 1.775420 0.000000 
#    z 0.000000 0.000000 1.772860 
# 
# From -- ./inp_files/14499.got.cif
#   From: 2010.05.17/outbox.cif.g08.bks.cpg/sg20_8_cif.got.tgz:14499.got - 2010.06.03 22:52:26.
