data_PCOD9320747
_publ_section_title
;
Structure prediction by ZEFSAII (Michael W. Deem and Ramdas Pophale) SiO2 
 PCOD9320747
Probable space group: C 2 2 21
;
_chemical_formula_sum "Si O2"
_cell_formula_units_Z 56
_cell_length_a 5.366082
_cell_length_b 28.433352
_cell_length_c 16.626274
_cell_angle_alpha 90.000000
_cell_angle_beta 90.000000
_cell_angle_gamma 90.000000
_cell_volume 2536.765367
_symmetry_space_group_name_H-M "C 2 2 21"
_symmetry_group_IT_number 20
_symmetry_cell_setting 'orthorhombic'
loop_
_space_group_symop_operation_xyz
x,y,z
-x,-y,1/2+z
x,-y,-z
-x,y,1/2-z
1/2+x,1/2+y,z
1/2-x,1/2-y,1/2+z
1/2+x,1/2-y,-z
1/2-x,1/2+y,1/2-z
loop_
_atom_site_type_symbol
_atom_site_label
_atom_site_fract_x
_atom_site_fract_y
_atom_site_fract_z
Si Si1 0.513487 0.622971 0.404141
Si Si2 0.690397 0.943581 0.822318
Si Si3 0.748119 0.303159 0.302836
Si Si4 0.765919 0.949705 0.201075
Si Si5 0.176262 0.380891 0.061765
Si Si6 0.245987 0.695438 0.302546
Si Si7 0.162164 0.553291 0.473589
O O1 0.665273 0.605427 0.326963
O O2 0.682094 0.635737 0.480803
O O3 0.307080 0.659909 0.375583
O O4 0.400752 0.572951 0.429734
O O5 0.500000 0.939205 0.750000
O O6 0.552244 0.947373 0.907262
O O7 0.808622 0.994710 0.809964
O O8 0.500000 0.315094 0.250000
O O9 0.803396 0.338433 0.375770
O O10 0.709562 0.249363 0.331497
O O11 0.000000 0.304954 0.250000
O O12 0.500000 0.942934 0.250000
O O13 0.777826 0.924911 0.114317
O O14 0.000000 0.930272 0.250000
O O15 0.914156 0.404976 0.035361
O O16 0.500000 0.696702 0.250000
O O17 0.000000 0.684339 0.250000
O O18 0.195745 0.500000 0.500000
#
# Coordination Sequence:
#
# PCOD9320747 Si02
#       7
#     8   8   8   8   8   8   8
#     4  11  28  40  69 100 134 196 225 293 353 420
#     4  10  25  42  62  97 134 183 240 286 340 414
#     4  10  23  48  79 105 138 184 229 297 360 418
#     4  11  25  41  67 100 135 183 235 291 339 407
#     4  11  25  44  67 103 140 183 231 290 348 432
#     4  10  25  49  73 102 138 175 232 292 351 420
#     4  11  25  43  63  96 147 187 226 286 355 411
#
# _framework density 22.075357
#
# number of rings (size 3 to 8) (size 9 to 14) (size 15 to 20)
#    0.000    1.429    1.429    0.857   16.000    0.000 
#    2.571    0.000    0.000    0.000    0.000    0.000 
#    0.000    0.000    0.000    0.000    0.000    0.000 
#
# Total GULP energy -156223.634344 kJ/mol
# GULP energy per Si atom -5579.415512 kJ/mol
# Density = 2.202511 g / cm^3
# Si number density = 22.075357 Si / 1000 Ang^3
#
#
#
# Elastic Constant Matrix: (Units=GPa)
#
#
# Indices 1 2 3 4 5 6 
#
# 1 73.9503 39.4486 18.3815 0.0000 0.0000 0.0000
# 2 39.4486 161.9657 67.2666 0.0000 0.0000 0.0000
# 3 18.3815 67.2666 80.7468 0.0000 0.0000 0.0000
# 4 0.0000 0.0000 0.0000 36.3080 0.0000 0.0000
# 5 0.0000 0.0000 0.0000 0.0000 24.3401 0.0000
# 6 0.0000 0.0000 0.0000 0.0000 0.0000 27.9500
#
#
#
# Elastic Compliance Matrix: (Units=1/GPa)
#
#
# Indices 1 2 3 4 5 6 
#
# 1 0.015560 -0.003545 -0.000589 0.000000 0.000000 0.000000
# 2 -0.003545 0.010248 -0.007730 0.000000 0.000000 0.000000
# 3 -0.000589 -0.007730 0.018958 0.000000 0.000000 0.000000
# 4 0.000000 0.000000 0.000000 0.027542 0.000000 0.000000
# 5 0.000000 0.000000 0.000000 0.000000 0.041084 0.000000
# 6 0.000000 0.000000 0.000000 0.000000 0.000000 0.035778
#
#
# Mechanical properties :
#
#
# Convention : Reuss Voigt Hill
#
# Bulk Modulus (GPa) = 47.53328 62.98405 55.25866
# Shear Modulus (GPa) = 27.79134 30.49070 29.14102
#
# Velocity S-wave (km/s) = 3.55199 3.72050 3.63722
# Velocity P-wave (km/s) = 6.19687 6.85926 6.53646
#
# Compressibility (1/GPa) = 0.02103789
#
# Stress axis : x y z
#
# Youngs Moduli (GPa) = 64.26661 97.57904 52.74803
#
# Poissons Ratio (x) = 0.34595 0.03105
# Poissons Ratio (y) = 0.22785 0.40775
# Poissons Ratio (z) = 0.03783 0.75430
#
# Static dielectric constant tensor:
#      x y z
#    x 1.920400 0.000000 0.000000 
#    y 0.000000 1.815470 0.000000 
#    z 0.000000 0.000000 2.006400 
# 
# From -- ./inp_files/17984.got.cif
#   From: 2010.05.17/outbox.cif.g08.bks.cpg/sg20_9_cif.got.tgz:17984.got - 2010.06.03 22:52:26.
