data_PCOD9320617
_publ_section_title
;
Structure prediction by ZEFSAII (Michael W. Deem and Ramdas Pophale) SiO2 
 PCOD9320617
Probable space group: C 2 2 21
;
_chemical_formula_sum "Si O2"
_cell_formula_units_Z 32
_cell_length_a 12.859598
_cell_length_b 8.238488
_cell_length_c 13.689088
_cell_angle_alpha 90.000000
_cell_angle_beta 90.000000
_cell_angle_gamma 90.000000
_cell_volume 1450.271863
_symmetry_space_group_name_H-M "C 2 2 21"
_symmetry_group_IT_number 20
_symmetry_cell_setting 'orthorhombic'
loop_
_space_group_symop_operation_xyz
x,y,z
-x,-y,1/2+z
x,-y,-z
-x,y,1/2-z
1/2+x,1/2+y,z
1/2-x,1/2-y,1/2+z
1/2+x,1/2-y,-z
1/2-x,1/2+y,1/2-z
loop_
_atom_site_type_symbol
_atom_site_label
_atom_site_fract_x
_atom_site_fract_y
_atom_site_fract_z
Si Si1 0.435373 0.103773 0.406084
Si Si2 0.260745 0.177377 0.950802
Si Si3 0.358252 0.715518 0.861889
Si Si4 0.213558 0.478389 0.253135
O O1 0.347854 0.230807 0.439603
O O2 0.527573 0.208608 0.359228
O O3 0.472099 0.000000 0.500000
O O4 0.377579 0.988846 0.327434
O O5 0.305525 0.143577 0.843299
O O6 0.328365 0.285353 0.024460
O O7 0.249138 0.000000 0.000000
O O8 0.321435 0.558067 0.803247
O O9 0.286638 0.848982 0.807315
#
# Coordination Sequence:
#
# PCOD9320617 Si02
#       4
#     8   8   8   8
#     4  12  23  43  74 102 135 191 231 275 358 405
#     4  10  23  44  63  99 143 175 229 296 332 409
#     4  11  24  43  69 100 139 179 229 287 337 412
#     4  11  22  41  70  96 138 180 227 284 340 407
#
# _framework density 22.064829
#
# number of rings (size 3 to 8) (size 9 to 14) (size 15 to 20)
#    0.000    1.000    5.000    3.000    0.000    0.000 
#    4.500    0.000    5.500    0.000    0.000    0.000 
#    0.000    0.000    0.000    0.000    0.000    0.000 
#
# Total GULP energy -89317.289878 kJ/mol
# GULP energy per Si atom -5582.330617 kJ/mol
# Density = 2.201461 g / cm^3
# Si number density = 22.064829 Si / 1000 Ang^3
#
#
#
# Elastic Constant Matrix: (Units=GPa)
#
#
# Indices 1 2 3 4 5 6 
#
# 1 105.4179 21.2964 48.2852 0.0000 0.0000 0.0000
# 2 21.2964 30.9496 12.6542 0.0000 0.0000 0.0000
# 3 48.2852 12.6542 146.4039 0.0000 0.0000 0.0000
# 4 0.0000 0.0000 0.0000 36.5979 0.0000 0.0000
# 5 0.0000 0.0000 0.0000 0.0000 29.5548 0.0000
# 6 0.0000 0.0000 0.0000 0.0000 0.0000 39.8949
#
#
#
# Elastic Compliance Matrix: (Units=1/GPa)
#
#
# Indices 1 2 3 4 5 6 
#
# 1 0.012551 -0.007198 -0.003517 0.000000 0.000000 0.000000
# 2 -0.007198 0.037623 -0.000878 0.000000 0.000000 0.000000
# 3 -0.003517 -0.000878 0.008066 0.000000 0.000000 0.000000
# 4 0.000000 0.000000 0.000000 0.027324 0.000000 0.000000
# 5 0.000000 0.000000 0.000000 0.000000 0.033835 0.000000
# 6 0.000000 0.000000 0.000000 0.000000 0.000000 0.025066
#
#
# Mechanical properties :
#
#
# Convention : Reuss Voigt Hill
#
# Bulk Modulus (GPa) = 28.52795 49.69366 39.11081
# Shear Modulus (GPa) = 27.88041 34.57856 31.22948
#
# Velocity S-wave (km/s) = 3.55853 3.96300 3.76620
# Velocity P-wave (km/s) = 5.46273 6.59629 6.05609
#
# Compressibility (1/GPa) = 0.03505334
#
# Stress axis : x y z
#
# Youngs Moduli (GPa) = 79.67264 26.57963 123.97201
#
# Poissons Ratio (x) = 0.19133 0.43605
# Poissons Ratio (y) = 0.57352 0.10882
# Poissons Ratio (z) = 0.28024 0.02333
#
# Static dielectric constant tensor:
#      x y z
#    x 1.812940 0.000000 0.000000 
#    y 0.000000 1.852560 0.000000 
#    z 0.000000 0.000000 1.869710 
# 
# From -- ./inp_files/13559.got.cif
#   From: 2010.05.17/outbox.cif.g08.bks.cpg/sg20_7_cif.got.tgz:13559.got - 2010.06.03 22:52:26.
