data_PCOD9320928
_publ_section_title
;
Structure prediction by ZEFSAII (Michael W. Deem and Ramdas Pophale) SiO2 
 PCOD9320928
Probable space group: C 2 2 21
;
_chemical_formula_sum "Si O2"
_cell_formula_units_Z 24
_cell_length_a 15.756261
_cell_length_b 6.761527
_cell_length_c 10.399220
_cell_angle_alpha 90.000000
_cell_angle_beta 90.000000
_cell_angle_gamma 90.000000
_cell_volume 1107.895297
_symmetry_space_group_name_H-M "C 2 2 21"
_symmetry_group_IT_number 20
_symmetry_cell_setting 'orthorhombic'
loop_
_space_group_symop_operation_xyz
x,y,z
-x,-y,1/2+z
x,-y,-z
-x,y,1/2-z
1/2+x,1/2+y,z
1/2-x,1/2-y,1/2+z
1/2+x,1/2-y,-z
1/2-x,1/2+y,1/2-z
loop_
_atom_site_type_symbol
_atom_site_label
_atom_site_fract_x
_atom_site_fract_y
_atom_site_fract_z
Si Si1 0.911485 0.301652 0.303988
Si Si2 0.005716 0.000000 0.000000
Si Si3 0.355892 0.769954 0.024013
Si Si4 0.700579 0.000000 0.000000
O O1 0.864150 0.229032 0.176683
O O2 0.860677 0.470103 0.378902
O O3 0.000000 0.383631 0.250000
O O4 0.937014 0.118393 0.397443
O O5 0.936350 0.835090 0.044773
O O6 0.265132 0.682582 0.987543
O O7 0.360201 0.000000 0.000000
#
# Coordination Sequence:
#
# PCOD9320928 Si02
#       4
#     8   4   8   4
#     4  10  24  45  68 100 137 180 229 283 338 407
#     4   9  22  46  66 103 134 178 236 275 344 404
#     4  10  24  47  69  98 143 183 230 281 348 409
#     4  11  26  42  68 105 132 182 232 281 352 406
#
# _framework density 21.662699
#
# number of rings (size 3 to 8) (size 9 to 14) (size 15 to 20)
#    0.000    2.000    0.000    0.000   16.333    0.000 
#   18.000    0.000    0.000    0.000    0.000    0.000 
#    0.000    0.000    0.000    0.000    0.000    0.000 
#
# Total GULP energy -66922.312066 kJ/mol
# GULP energy per Si atom -5576.859339 kJ/mol
# Density = 2.161339 g / cm^3
# Si number density = 21.662699 Si / 1000 Ang^3
#
#
#
# Elastic Constant Matrix: (Units=GPa)
#
#
# Indices 1 2 3 4 5 6 
#
# 1 76.6340 24.7653 20.9342 0.0000 0.0000 0.0000
# 2 24.7653 137.2579 4.8643 0.0000 0.0000 0.0000
# 3 20.9342 4.8643 59.9085 0.0000 0.0000 0.0000
# 4 0.0000 0.0000 0.0000 32.8301 0.0000 0.0000
# 5 0.0000 0.0000 0.0000 0.0000 30.3762 0.0000
# 6 0.0000 0.0000 0.0000 0.0000 0.0000 19.6956
#
#
#
# Elastic Compliance Matrix: (Units=1/GPa)
#
#
# Indices 1 2 3 4 5 6 
#
# 1 0.015283 -0.002576 -0.005131 0.000000 0.000000 0.000000
# 2 -0.002576 0.007741 0.000272 0.000000 0.000000 0.000000
# 3 -0.005131 0.000272 0.018463 0.000000 0.000000 0.000000
# 4 0.000000 0.000000 0.000000 0.030460 0.000000 0.000000
# 5 0.000000 0.000000 0.000000 0.000000 0.032920 0.000000
# 6 0.000000 0.000000 0.000000 0.000000 0.000000 0.050773
#
#
# Mechanical properties :
#
#
# Convention : Reuss Voigt Hill
#
# Bulk Modulus (GPa) = 37.57143 41.65866 39.61504
# Shear Modulus (GPa) = 27.87334 31.46283 29.66808
#
# Velocity S-wave (km/s) = 3.59095 3.81517 3.70475
# Velocity P-wave (km/s) = 5.88002 6.21930 6.05204
#
# Compressibility (1/GPa) = 0.02661597
#
# Stress axis : x y z
#
# Youngs Moduli (GPa) = 65.43157 129.18797 54.16194
#
# Poissons Ratio (x) = 0.33275 0.27792
# Poissons Ratio (y) = 0.16853 -0.01471
# Poissons Ratio (z) = 0.33575 -0.03508
#
# Static dielectric constant tensor:
#      x y z
#    x 1.809500 0.000000 0.000000 
#    y 0.000000 1.787990 0.000000 
#    z 0.000000 0.000000 1.827140 
# 
# From -- ./inp_files/7755.got.cif
#   From: 2010.05.17/outbox.cif.g08.bks.cpg/sg20_4_cif.got.tgz:7755.got - 2010.06.03 22:52:26.
