data_PCOD9320846
_publ_section_title
;
Structure prediction by ZEFSAII (Michael W. Deem and Ramdas Pophale) SiO2 
 PCOD9320846
Probable space group: C 2 2 21
;
_chemical_formula_sum "Si O2"
_cell_formula_units_Z 48
_cell_length_a 8.530642
_cell_length_b 11.372028
_cell_length_c 23.240512
_cell_angle_alpha 90.000000
_cell_angle_beta 90.000000
_cell_angle_gamma 90.000000
_cell_volume 2254.578330
_symmetry_space_group_name_H-M "C 2 2 21"
_symmetry_group_IT_number 20
_symmetry_cell_setting 'orthorhombic'
loop_
_space_group_symop_operation_xyz
x,y,z
-x,-y,1/2+z
x,-y,-z
-x,y,1/2-z
1/2+x,1/2+y,z
1/2-x,1/2-y,1/2+z
1/2+x,1/2-y,-z
1/2-x,1/2+y,1/2-z
loop_
_atom_site_type_symbol
_atom_site_label
_atom_site_fract_x
_atom_site_fract_y
_atom_site_fract_z
Si Si1 0.524913 0.093536 0.608162
Si Si2 0.841360 0.032894 0.354837
Si Si3 0.087921 0.830113 0.955007
Si Si4 0.362125 0.000000 0.500000
Si Si5 0.249868 0.197346 0.672279
Si Si6 0.868008 0.189205 0.950906
Si Si7 0.000000 0.096815 0.750000
O O1 0.503832 0.219991 0.575286
O O2 0.403958 0.116672 0.661245
O O3 0.691964 0.048974 0.630107
O O4 0.460456 0.003145 0.559267
O O5 0.937554 0.059493 0.413741
O O6 0.790373 0.164676 0.334049
O O7 0.942005 0.979936 0.303534
O O8 0.275170 0.811972 0.955720
O O9 0.032349 0.825336 0.019859
O O10 0.245297 0.891857 0.489814
O O11 0.144861 0.164871 0.616221
O O12 0.148457 0.171526 0.728056
#
# Coordination Sequence:
#
# PCOD9320846 Si02
#       7
#     8   8   8   4   8   8   4
#     4   9  20  40  60  91 121 163 194 246 310 378
#     4  10  24  43  64  89 124 166 211 251 313 360
#     4   9  21  37  61  95 126 159 198 252 310 383
#     4   8  18  32  60  84 128 156 186 236 314 370
#     4   9  24  43  60  91 124 156 214 254 303 363
#     4   9  19  37  56  92 127 155 192 253 310 374
#     4  12  26  44  62  90 118 166 222 262 290 356
#
# _framework density 21.290011
#
# number of rings (size 3 to 8) (size 9 to 14) (size 15 to 20)
#    0.000    3.333    0.000    0.000   14.000    6.000 
#    0.000    0.000    0.000    0.000    0.000    0.000 
#    0.000    0.000    0.000    0.000    0.000    0.000 
#
# Total GULP energy -133630.435120 kJ/mol
# GULP energy per Si atom -5567.934797 kJ/mol
# Density = 2.124155 g / cm^3
# Si number density = 21.290011 Si / 1000 Ang^3
#
#
#
# Elastic Constant Matrix: (Units=GPa)
#
#
# Indices 1 2 3 4 5 6 
#
# 1 42.8673 18.0062 20.9654 0.0000 0.0000 0.0000
# 2 18.0062 74.1811 12.3094 0.0000 0.0000 0.0000
# 3 20.9654 12.3094 41.4632 0.0000 0.0000 0.0000
# 4 0.0000 0.0000 0.0000 28.0462 0.0000 0.0000
# 5 0.0000 0.0000 0.0000 0.0000 46.3443 0.0000
# 6 0.0000 0.0000 0.0000 0.0000 0.0000 27.5211
#
#
#
# Elastic Compliance Matrix: (Units=1/GPa)
#
#
# Indices 1 2 3 4 5 6 
#
# 1 0.033005 -0.005514 -0.015052 0.000000 0.000000 0.000000
# 2 -0.005514 0.015100 -0.001695 0.000000 0.000000 0.000000
# 3 -0.015052 -0.001695 0.032232 0.000000 0.000000 0.000000
# 4 0.000000 0.000000 0.000000 0.035656 0.000000 0.000000
# 5 0.000000 0.000000 0.000000 0.000000 0.021578 0.000000
# 6 0.000000 0.000000 0.000000 0.000000 0.000000 0.036336
#
#
# Mechanical properties :
#
#
# Convention : Reuss Voigt Hill
#
# Bulk Modulus (GPa) = 27.92037 29.00818 28.46428
# Shear Modulus (GPa) = 21.70457 27.53102 24.61780
#
# Velocity S-wave (km/s) = 3.19638 3.59993 3.40414
# Velocity P-wave (km/s) = 5.17351 5.56185 5.37119
#
# Compressibility (1/GPa) = 0.03581614
#
# Stress axis : x y z
#
# Youngs Moduli (GPa) = 30.29806 66.22451 31.02525
#
# Poissons Ratio (x) = 0.36515 0.46699
# Poissons Ratio (y) = 0.16706 0.05258
# Poissons Ratio (z) = 0.45604 0.11224
#
# Static dielectric constant tensor:
#      x y z
#    x 1.828110 0.000000 0.000000 
#    y 0.000000 1.845610 0.000000 
#    z 0.000000 0.000000 1.810030 
# 
# From -- ./inp_files/28766.got.cif
#   From: 2010.05.17/outbox.cif.g08.bks.cpg/sg20_15_cif.got.tgz:28766.got - 2010.06.03 22:52:26.
