data_PCOD9320160
_publ_section_title
;
Structure prediction by ZEFSAII (Michael W. Deem and Ramdas Pophale) SiO2 
 PCOD9320160
Probable space group: C 2 2 21
;
_chemical_formula_sum "Si O2"
_cell_formula_units_Z 48
_cell_length_a 21.140795
_cell_length_b 17.404186
_cell_length_c 6.072967
_cell_angle_alpha 90.000000
_cell_angle_beta 90.000000
_cell_angle_gamma 90.000000
_cell_volume 2234.477326
_symmetry_space_group_name_H-M "C 2 2 21"
_symmetry_group_IT_number 20
_symmetry_cell_setting 'orthorhombic'
loop_
_space_group_symop_operation_xyz
x,y,z
-x,-y,1/2+z
x,-y,-z
-x,y,1/2-z
1/2+x,1/2+y,z
1/2-x,1/2-y,1/2+z
1/2+x,1/2-y,-z
1/2-x,1/2+y,1/2-z
loop_
_atom_site_type_symbol
_atom_site_label
_atom_site_fract_x
_atom_site_fract_y
_atom_site_fract_z
Si Si1 0.563963 0.669020 0.401418
Si Si2 0.669833 0.924973 0.610218
Si Si3 0.753115 0.500000 0.500000
Si Si4 0.432287 0.806188 0.757704
Si Si5 0.735032 0.356222 0.239747
Si Si6 0.033043 0.000000 0.500000
Si Si7 0.843554 0.755925 0.573979
O O1 0.500000 0.675028 0.250000
O O2 0.557966 0.728732 0.601622
O O3 0.567624 0.581523 0.480857
O O4 0.627098 0.692742 0.267180
O O5 0.619707 0.858298 0.627925
O O6 0.726385 0.893506 0.461279
O O7 0.640480 0.000000 0.500000
O O8 0.701092 0.954453 0.833771
O O9 0.716277 0.430584 0.382423
O O10 0.500000 0.845676 0.750000
O O11 0.402959 0.791636 0.517713
O O12 0.784666 0.298080 0.357950
O O13 0.679599 0.307144 0.131682
O O14 0.000000 0.995114 0.250000
#
# Coordination Sequence:
#
# PCOD9320160 Si02
#       7
#     8   8   4   8   8   4   8
#     4  11  24  45  72 101 141 185 242 301 367 445
#     4  10  22  43  66  97 141 184 232 289 360 425
#     4  10  22  44  71  94 140 186 227 300 358 426
#     4  12  23  42  69 103 139 187 236 294 362 440
#     4  11  24  43  71  98 138 183 232 295 368 428
#     4  10  24  46  77 102 150 196 239 310 384 436
#     4  12  25  42  73 103 137 182 242 300 364 437
#
# _framework density 21.481535000000001
#
# number of rings (size 3 to 8) (size 9 to 14) (size 15 to 20)
#    0.000    1.000    5.000    1.500    2.333    0.000 
#    1.500    6.667    0.000    0.000    0.000    0.000 
#    0.000    0.000    0.000    0.000    0.000    0.000 
#
# Total GULP energy -134020.567535 kJ/mol
# GULP energy per Si atom -5584.190314 kJ/mol
# Density = 2.143264 g / cm^3
# Si number density = 21.481535 Si / 1000 Ang^3
#
#
#
# Elastic Constant Matrix: (Units=GPa)
#
#
# Indices 1 2 3 4 5 6 
#
# 1 68.1485 15.9309 22.3656 0.0000 0.0000 0.0000
# 2 15.9309 103.7782 26.6648 0.0000 0.0000 0.0000
# 3 22.3656 26.6648 80.5641 0.0000 0.0000 0.0000
# 4 0.0000 0.0000 0.0000 52.7342 0.0000 0.0000
# 5 0.0000 0.0000 0.0000 0.0000 38.6599 0.0000
# 6 0.0000 0.0000 0.0000 0.0000 0.0000 19.4781
#
#
#
# Elastic Compliance Matrix: (Units=1/GPa)
#
#
# Indices 1 2 3 4 5 6 
#
# 1 0.016347 -0.001468 -0.004052 0.000000 0.000000 0.000000
# 2 -0.001468 0.010663 -0.003122 0.000000 0.000000 0.000000
# 3 -0.004052 -0.003122 0.014571 0.000000 0.000000 0.000000
# 4 0.000000 0.000000 0.000000 0.018963 0.000000 0.000000
# 5 0.000000 0.000000 0.000000 0.000000 0.025867 0.000000
# 6 0.000000 0.000000 0.000000 0.000000 0.000000 0.051340
#
#
# Mechanical properties :
#
#
# Convention : Reuss Voigt Hill
#
# Bulk Modulus (GPa) = 41.15783 42.49037 41.82410
# Shear Modulus (GPa) = 30.64975 34.67642 32.66309
#
# Velocity S-wave (km/s) = 3.78139 4.02212 3.90361
# Velocity P-wave (km/s) = 6.18599 6.43373 6.31107
#
# Compressibility (1/GPa) = 0.02429672
#
# Stress axis : x y z
#
# Youngs Moduli (GPa) = 61.17358 93.77857 68.63125
#
# Poissons Ratio (x) = 0.13769 0.27810
# Poissons Ratio (y) = 0.08982 0.21425
# Poissons Ratio (z) = 0.24788 0.29275
#
# Static dielectric constant tensor:
#      x y z
#    x 1.765200 0.000000 0.000000 
#    y 0.000000 1.778680 0.000000 
#    z 0.000000 0.000000 1.845020 
# 
# From -- ./inp_files/3769.got.cif
#   From: 2010.05.17/outbox.cif.g08.bks.cpg/sg20_2_cif.got.tgz:3769.got - 2010.06.03 22:52:26.
