data_PCOD9320702
_publ_section_title
;
Structure prediction by ZEFSAII (Michael W. Deem and Ramdas Pophale) SiO2 
 PCOD9320702
Probable space group: C 2 2 21
;
_chemical_formula_sum "Si O2"
_cell_formula_units_Z 48
_cell_length_a 9.988302
_cell_length_b 19.366221
_cell_length_c 8.936416
_cell_angle_alpha 90.000000
_cell_angle_beta 90.000000
_cell_angle_gamma 90.000000
_cell_volume 1728.621562
_symmetry_space_group_name_H-M "C 2 2 21"
_symmetry_group_IT_number 20
_symmetry_cell_setting 'orthorhombic'
loop_
_space_group_symop_operation_xyz
x,y,z
-x,-y,1/2+z
x,-y,-z
-x,y,1/2-z
1/2+x,1/2+y,z
1/2-x,1/2-y,1/2+z
1/2+x,1/2-y,-z
1/2-x,1/2+y,1/2-z
loop_
_atom_site_type_symbol
_atom_site_label
_atom_site_fract_x
_atom_site_fract_y
_atom_site_fract_z
Si Si1 0.112585 0.837839 0.143258
Si Si2 0.083881 0.937947 0.875394
Si Si3 0.913965 0.446523 0.863570
Si Si4 0.707309 0.186165 0.903946
Si Si5 0.045597 0.288261 0.542024
Si Si6 0.752075 0.941510 0.875063
O O1 0.105579 0.870160 0.980439
O O2 0.065734 0.758659 0.128789
O O3 0.000000 0.873344 0.250000
O O4 0.245641 0.842188 0.241489
O O5 0.919456 0.932789 0.828660
O O6 0.245195 0.950551 0.818859
O O7 0.075572 0.000000 0.000000
O O8 0.921318 0.364591 0.903090
O O9 0.907596 0.500000 0.000000
O O10 0.084274 0.456511 0.828069
O O11 0.728722 0.129833 0.033680
O O12 0.817346 0.244887 0.947549
O O13 0.550827 0.203316 0.899052
O O14 0.767470 0.000000 0.000000
#
# Coordination Sequence:
#
# PCOD9320702 Si02
#       6
#     8   8   8   8   8   8
#     4  10  23  45  74 112 161 214 269 335 410 497
#     4  12  24  43  75 114 162 215 272 334 415 501
#     4  12  26  51  80 113 154 211 275 343 411 483
#     4  11  25  48  84 115 167 218 274 339 420 491
#     4  11  26  50  81 117 164 212 273 342 410 494
#     4  12  27  50  79 113 162 214 276 345 412 491
#
# _framework density 27.767792
#
# number of rings (size 3 to 8) (size 9 to 14) (size 15 to 20)
#    0.000    0.667    1.667    6.500    2.333    0.000 
#    0.000    6.667    0.000    0.000    0.000    0.000 
#    0.000    0.000    0.000    0.000    0.000    0.000 
#
# Total GULP energy -134161.146482 kJ/mol
# GULP energy per Si atom -5590.047770 kJ/mol
# Density = 2.770459 g / cm^3
# Si number density = 27.767792 Si / 1000 Ang^3
#
#
#
# Elastic Constant Matrix: (Units=GPa)
#
#
# Indices 1 2 3 4 5 6 
#
# 1 266.3660 48.3810 143.6161 0.0000 0.0000 0.0000
# 2 48.3810 172.4168 116.1947 0.0000 0.0000 0.0000
# 3 143.6161 116.1947 246.4645 0.0000 0.0000 0.0000
# 4 0.0000 0.0000 0.0000 11.6474 0.0000 0.0000
# 5 0.0000 0.0000 0.0000 0.0000 102.9802 0.0000
# 6 0.0000 0.0000 0.0000 0.0000 0.0000 48.6645
#
#
#
# Elastic Compliance Matrix: (Units=1/GPa)
#
#
# Indices 1 2 3 4 5 6 
#
# 1 0.005571 0.000915 -0.003678 0.000000 0.000000 0.000000
# 2 0.000915 0.008651 -0.004612 0.000000 0.000000 0.000000
# 3 -0.003678 -0.004612 0.008375 0.000000 0.000000 0.000000
# 4 0.000000 0.000000 0.000000 0.085856 0.000000 0.000000
# 5 0.000000 0.000000 0.000000 0.000000 0.009711 0.000000
# 6 0.000000 0.000000 0.000000 0.000000 0.000000 0.020549
#
#
# Mechanical properties :
#
#
# Convention : Reuss Voigt Hill
#
# Bulk Modulus (GPa) = 127.42045 144.62566 136.02306
# Shear Modulus (GPa) = 32.03549 57.79545 44.91547
#
# Velocity S-wave (km/s) = 3.40029 4.56717 4.02623
# Velocity P-wave (km/s) = 7.83603 8.94478 8.40870
#
# Compressibility (1/GPa) = 0.00784803
#
# Stress axis : x y z
#
# Youngs Moduli (GPa) = 179.50503 115.59268 119.40877
#
# Poissons Ratio (x) = -0.10579 0.43914
# Poissons Ratio (y) = -0.16429 0.55069
# Poissons Ratio (z) = 0.66016 0.53309
#
# Static dielectric constant tensor:
#      x y z
#    x 2.296720 0.000000 0.000000 
#    y 0.000000 2.076480 0.000000 
#    z 0.000000 0.000000 2.205560 
# 
# From -- ./inp_files/23805.got.cif
#   From: 2010.05.17/outbox.cif.g08.bks.cpg/sg20_12_cif.got.tgz:23805.got - 2010.06.03 22:52:26.
