data_PCOD9320676
_publ_section_title
;
Structure prediction by ZEFSAII (Michael W. Deem and Ramdas Pophale) SiO2 
 PCOD9320676
Probable space group: C 2 2 21
;
_chemical_formula_sum "Si O2"
_cell_formula_units_Z 32
_cell_length_a 12.753959
_cell_length_b 9.663397
_cell_length_c 11.832402
_cell_angle_alpha 90.000000
_cell_angle_beta 90.000000
_cell_angle_gamma 90.000000
_cell_volume 1458.302951
_symmetry_space_group_name_H-M "C 2 2 21"
_symmetry_group_IT_number 20
_symmetry_cell_setting 'orthorhombic'
loop_
_space_group_symop_operation_xyz
x,y,z
-x,-y,1/2+z
x,-y,-z
-x,y,1/2-z
1/2+x,1/2+y,z
1/2-x,1/2-y,1/2+z
1/2+x,1/2-y,-z
1/2-x,1/2+y,1/2-z
loop_
_atom_site_type_symbol
_atom_site_label
_atom_site_fract_x
_atom_site_fract_y
_atom_site_fract_z
Si Si1 0.103998 0.860531 0.056603
Si Si2 0.397019 0.222977 0.066162
Si Si3 0.308392 0.878679 0.410585
Si Si4 0.168949 0.422586 0.346012
O O1 0.207024 0.895699 0.129668
O O2 0.009597 0.773190 0.108148
O O3 0.145103 0.762873 0.957156
O O4 0.062201 0.000000 0.000000
O O5 0.315393 0.345560 0.090321
O O6 0.360192 0.079380 0.121825
O O7 0.391287 0.181542 0.931956
O O8 0.350125 0.905450 0.285962
O O9 0.331804 0.000000 0.500000
#
# Coordination Sequence:
#
# PCOD9320676 Si02
#       4
#     8   8   8   8
#     4  11  23  46  72 105 141 185 243 291 357 427
#     4  10  23  45  70 102 139 189 236 294 359 419
#     4  11  25  43  71 104 144 190 239 293 360 429
#     4  10  23  47  68 102 153 179 236 307 346 421
#
# _framework density 21.943314999999998
#
# number of rings (size 3 to 8) (size 9 to 14) (size 15 to 20)
#    0.000    1.500    5.000    0.750   10.500    2.000 
#    0.000    2.500    0.000    0.000    0.000    0.000 
#    0.000    0.000    0.000    0.000    0.000    0.000 
#
# Total GULP energy -89415.096656 kJ/mol
# GULP energy per Si atom -5588.443541 kJ/mol
# Density = 2.189337 g / cm^3
# Si number density = 21.943315 Si / 1000 Ang^3
#
#
#
# Elastic Constant Matrix: (Units=GPa)
#
#
# Indices 1 2 3 4 5 6 
#
# 1 101.9269 30.8222 -0.4224 0.0000 0.0000 0.0000
# 2 30.8222 108.7592 47.0104 0.0000 0.0000 0.0000
# 3 -0.4224 47.0104 134.7176 0.0000 0.0000 0.0000
# 4 0.0000 0.0000 0.0000 10.8102 0.0000 0.0000
# 5 0.0000 0.0000 0.0000 0.0000 -9.0065 0.0000
# 6 0.0000 0.0000 0.0000 0.0000 0.0000 37.6860
#
#
#
# Elastic Compliance Matrix: (Units=1/GPa)
#
#
# Indices 1 2 3 4 5 6 
#
# 1 0.010924 -0.003663 0.001313 0.000000 0.000000 0.000000
# 2 -0.003663 0.012056 -0.004219 0.000000 0.000000 0.000000
# 3 0.001313 -0.004219 0.008899 0.000000 0.000000 0.000000
# 4 0.000000 0.000000 0.000000 0.092505 0.000000 0.000000
# 5 0.000000 0.000000 0.000000 0.000000 -0.111031 0.000000
# 6 0.000000 0.000000 0.000000 0.000000 0.000000 0.026535
#
#
# Mechanical properties :
#
#
# Convention : Reuss Voigt Hill
#
# Bulk Modulus (GPa) = 53.35889 55.58045 54.46967
# Shear Modulus (GPa) = 84.35317 25.76416 55.05866
#
# Velocity S-wave (km/s) = 6.20684 3.43027 5.01456
# Velocity P-wave (km/s) = 8.70264 6.40883 7.64228
#
# Compressibility (1/GPa) = 0.01874102
#
# Stress axis : x y z
#
# Youngs Moduli (GPa) = 91.54046 82.94469 112.37037
#
# Poissons Ratio (x) = 0.30384 -0.14749
# Poissons Ratio (y) = 0.33533 0.47404
# Poissons Ratio (z) = -0.12015 0.34991
#
# Static dielectric constant tensor:
#      x y z
#    x 1.930980 0.000000 0.000000 
#    y 0.000000 1.750290 0.000000 
#    z 0.000000 0.000000 1.799900 
# 
# From -- ./inp_files/12466.got.cif
#   From: 2010.05.17/outbox.cif.g08.bks.cpg/sg20_7_cif.got.tgz:12466.got - 2010.06.03 22:52:26.
