data_PCOD9320596
_publ_section_title
;
Structure prediction by ZEFSAII (Michael W. Deem and Ramdas Pophale) SiO2 
 PCOD9320596
Probable space group: C 2 2 21
;
_chemical_formula_sum "Si O2"
_cell_formula_units_Z 44
_cell_length_a 7.890696
_cell_length_b 21.539895
_cell_length_c 11.678861
_cell_angle_alpha 90.000000
_cell_angle_beta 90.000000
_cell_angle_gamma 90.000000
_cell_volume 1984.994846
_symmetry_space_group_name_H-M "C 2 2 21"
_symmetry_group_IT_number 20
_symmetry_cell_setting 'orthorhombic'
loop_
_space_group_symop_operation_xyz
x,y,z
-x,-y,1/2+z
x,-y,-z
-x,y,1/2-z
1/2+x,1/2+y,z
1/2-x,1/2-y,1/2+z
1/2+x,1/2-y,-z
1/2-x,1/2+y,1/2-z
loop_
_atom_site_type_symbol
_atom_site_label
_atom_site_fract_x
_atom_site_fract_y
_atom_site_fract_z
Si Si1 0.739146 0.748856 0.474149
Si Si2 0.000000 0.459510 0.250000
Si Si3 0.620801 0.049643 0.083082
Si Si4 0.254197 0.365145 0.322612
Si Si5 0.545481 0.821412 0.622844
Si Si6 0.391149 0.375860 0.063239
O O1 0.713959 0.795795 0.367563
O O2 0.723367 0.795031 0.582435
O O3 0.916397 0.714029 0.460007
O O4 0.621037 0.688938 0.495203
O O5 0.861042 0.506421 0.304670
O O6 0.902368 0.411990 0.166494
O O7 0.498654 0.106858 0.110286
O O8 0.787265 0.075570 0.016594
O O9 0.536137 0.000000 0.000000
O O10 0.299789 0.366125 0.187161
O O11 0.415769 0.387843 0.397581
O O12 0.500000 0.801956 0.750000
#
# Coordination Sequence:
#
# PCOD9320596 Si02
#       6
#     8   4   8   8   8   8
#     4  11  22  39  66 101 134 176 229 276 358 409
#     4  12  24  42  78 104 136 186 246 282 342 430
#     4  11  22  44  71 100 139 183 236 288 347 413
#     4  11  23  42  72 104 134 186 233 285 355 417
#     4  11  23  43  68  94 142 179 223 297 345 414
#     4  10  23  43  69 100 146 182 222 300 355 418
#
# _framework density 22.166305999999999
#
# number of rings (size 3 to 8) (size 9 to 14) (size 15 to 20)
#    0.000    1.091    4.545    2.182    2.545    0.000 
#    0.000    2.727    4.000    0.000    0.000    0.000 
#    0.000    0.000    0.000    0.000    0.000    0.000 
#
# Total GULP energy -122579.549597 kJ/mol
# GULP energy per Si atom -5571.797709 kJ/mol
# Density = 2.211585 g / cm^3
# Si number density = 22.166306 Si / 1000 Ang^3
#
#
#
# Elastic Constant Matrix: (Units=GPa)
#
#
# Indices 1 2 3 4 5 6 
#
# 1 72.9898 34.7040 29.6712 0.0000 0.0000 0.0000
# 2 34.7040 138.1258 19.2596 0.0000 0.0000 0.0000
# 3 29.6712 19.2596 60.7176 0.0000 0.0000 0.0000
# 4 0.0000 0.0000 0.0000 52.7924 0.0000 0.0000
# 5 0.0000 0.0000 0.0000 0.0000 32.2741 0.0000
# 6 0.0000 0.0000 0.0000 0.0000 0.0000 25.5285
#
#
#
# Elastic Compliance Matrix: (Units=1/GPa)
#
#
# Indices 1 2 3 4 5 6 
#
# 1 0.018641 -0.003571 -0.007977 0.000000 0.000000 0.000000
# 2 -0.003571 0.008259 -0.000875 0.000000 0.000000 0.000000
# 3 -0.007977 -0.000875 0.020645 0.000000 0.000000 0.000000
# 4 0.000000 0.000000 0.000000 0.018942 0.000000 0.000000
# 5 0.000000 0.000000 0.000000 0.000000 0.030985 0.000000
# 6 0.000000 0.000000 0.000000 0.000000 0.000000 0.039172
#
#
# Mechanical properties :
#
#
# Convention : Reuss Voigt Hill
#
# Bulk Modulus (GPa) = 44.05243 48.78918 46.42081
# Shear Modulus (GPa) = 29.57603 34.66555 32.12079
#
# Velocity S-wave (km/s) = 3.65674 3.95889 3.81081
# Velocity P-wave (km/s) = 6.14376 6.55403 6.35221
#
# Compressibility (1/GPa) = 0.02270023
#
# Stress axis : x y z
#
# Youngs Moduli (GPa) = 53.64461 121.07985 48.43768
#
# Poissons Ratio (x) = 0.43242 0.38637
# Poissons Ratio (y) = 0.19158 0.04236
# Poissons Ratio (z) = 0.42790 0.10589
#
# Static dielectric constant tensor:
#      x y z
#    x 1.988910 0.000000 0.000000 
#    y 0.000000 1.816560 0.000000 
#    z 0.000000 0.000000 1.939170 
# 
# From -- ./inp_files/12999.got.cif
#   From: 2010.05.17/outbox.cif.g08.bks.cpg/sg20_7_cif.got.tgz:12999.got - 2010.06.03 22:52:26.
