data_PCOD9320921
_publ_section_title
;
Structure prediction by ZEFSAII (Michael W. Deem and Ramdas Pophale) SiO2 
 PCOD9320921
Probable space group: C 2 2 21
;
_chemical_formula_sum "Si O2"
_cell_formula_units_Z 32
_cell_length_a 15.922560
_cell_length_b 16.439689
_cell_length_c 5.112531
_cell_angle_alpha 90.000000
_cell_angle_beta 90.000000
_cell_angle_gamma 90.000000
_cell_volume 1338.266005
_symmetry_space_group_name_H-M "C 2 2 21"
_symmetry_group_IT_number 20
_symmetry_cell_setting 'orthorhombic'
loop_
_space_group_symop_operation_xyz
x,y,z
-x,-y,1/2+z
x,-y,-z
-x,y,1/2-z
1/2+x,1/2+y,z
1/2-x,1/2-y,1/2+z
1/2+x,1/2-y,-z
1/2-x,1/2+y,1/2-z
loop_
_atom_site_type_symbol
_atom_site_label
_atom_site_fract_x
_atom_site_fract_y
_atom_site_fract_z
Si Si1 0.500000 0.440537 0.250000
Si Si2 0.671924 0.638965 0.848861
Si Si3 0.596797 0.137259 0.273535
Si Si4 0.211518 0.500000 0.500000
Si Si5 0.663369 0.769140 0.229324
O O1 0.492358 0.500000 0.500000
O O2 0.418073 0.382949 0.234287
O O3 0.738721 0.703808 0.734841
O O4 0.726790 0.557786 0.840338
O O5 0.658254 0.674902 0.143417
O O6 0.500000 0.114566 0.250000
O O7 0.615474 0.198286 0.515626
O O8 0.653526 0.058583 0.327987
O O9 0.621970 0.182038 0.009293
#
# Coordination Sequence:
#
# PCOD9320921 Si02
#       5
#     4   8   8   4   8
#     4  12  30  48  80 112 154 194 250 314 368 452
#     4  11  25  50  76 110 151 197 255 298 383 436
#     4  11  26  48  73 114 149 195 253 312 382 444
#     4  10  24  44  78 102 152 194 242 308 372 448
#     4  11  26  46  79 105 155 199 246 315 371 456
#
# _framework density 23.911536999999999
#
# number of rings (size 3 to 8) (size 9 to 14) (size 15 to 20)
#    0.000    1.000    1.250    3.750    5.250   11.000 
#    4.500    0.000    0.000    0.000    0.000    0.000 
#    0.000    0.000    0.000    0.000    0.000    0.000 
#
# Total GULP energy -89580.904086 kJ/mol
# GULP energy per Si atom -5598.806505 kJ/mol
# Density = 2.385711 g / cm^3
# Si number density = 23.911537 Si / 1000 Ang^3
#
#
#
# Elastic Constant Matrix: (Units=GPa)
#
#
# Indices 1 2 3 4 5 6 
#
# 1 199.2316 37.6874 27.2942 0.0000 0.0000 0.0000
# 2 37.6874 85.2431 25.2283 0.0000 0.0000 0.0000
# 3 27.2942 25.2283 126.2616 0.0000 0.0000 0.0000
# 4 0.0000 0.0000 0.0000 33.9530 0.0000 0.0000
# 5 0.0000 0.0000 0.0000 0.0000 27.1643 0.0000
# 6 0.0000 0.0000 0.0000 0.0000 0.0000 21.9736
#
#
#
# Elastic Compliance Matrix: (Units=1/GPa)
#
#
# Indices 1 2 3 4 5 6 
#
# 1 0.005544 -0.002228 -0.000753 0.000000 0.000000 0.000000
# 2 -0.002228 0.013364 -0.002189 0.000000 0.000000 0.000000
# 3 -0.000753 -0.002189 0.008520 0.000000 0.000000 0.000000
# 4 0.000000 0.000000 0.000000 0.029452 0.000000 0.000000
# 5 0.000000 0.000000 0.000000 0.000000 0.036813 0.000000
# 6 0.000000 0.000000 0.000000 0.000000 0.000000 0.045509
#
#
# Mechanical properties :
#
#
# Convention : Reuss Voigt Hill
#
# Bulk Modulus (GPa) = 58.51998 65.68401 62.10200
# Shear Modulus (GPa) = 32.20846 37.98662 35.09754
#
# Velocity S-wave (km/s) = 3.67411 3.99009 3.83535
# Velocity P-wave (km/s) = 6.52115 6.98262 6.75583
#
# Compressibility (1/GPa) = 0.01708818
#
# Stress axis : x y z
#
# Youngs Moduli (GPa) = 180.37645 74.82799 117.36819
#
# Poissons Ratio (x) = 0.16673 0.08841
# Poissons Ratio (y) = 0.40191 0.25687
# Poissons Ratio (z) = 0.13587 0.16377
#
# Static dielectric constant tensor:
#      x y z
#    x 1.849120 0.000000 0.000000 
#    y 0.000000 1.975600 0.000000 
#    z 0.000000 0.000000 2.039620 
# 
# From -- ./inp_files/1681.got.cif
#   From: 2010.05.17/outbox.cif.g08.bks.cpg/sg20_1_cif.got.tgz:1681.got - 2010.06.03 22:52:26.
