data_PCOD9320259
_publ_section_title
;
Structure prediction by ZEFSAII (Michael W. Deem and Ramdas Pophale) SiO2 
 PCOD9320259
Probable space group: C 2 2 21
;
_chemical_formula_sum "Si O2"
_cell_formula_units_Z 48
_cell_length_a 10.274587
_cell_length_b 9.580688
_cell_length_c 18.979685
_cell_angle_alpha 90.000000
_cell_angle_beta 90.000000
_cell_angle_gamma 90.000000
_cell_volume 1868.314875
_symmetry_space_group_name_H-M "C 2 2 21"
_symmetry_group_IT_number 20
_symmetry_cell_setting 'orthorhombic'
loop_
_space_group_symop_operation_xyz
x,y,z
-x,-y,1/2+z
x,-y,-z
-x,y,1/2-z
1/2+x,1/2+y,z
1/2-x,1/2-y,1/2+z
1/2+x,1/2-y,-z
1/2-x,1/2+y,1/2-z
loop_
_atom_site_type_symbol
_atom_site_label
_atom_site_fract_x
_atom_site_fract_y
_atom_site_fract_z
Si Si1 0.663113 0.271909 0.940168
Si Si2 0.738505 0.760011 0.219098
Si Si3 0.183220 0.500000 0.500000
Si Si4 0.117636 0.600176 0.653686
Si Si5 0.000000 0.050929 0.250000
Si Si6 0.700372 0.000000 0.000000
Si Si7 0.076151 0.080128 0.392248
Si Si8 0.500000 0.906667 0.750000
O O1 0.723139 0.224888 0.865263
O O2 0.766987 0.339407 0.991806
O O3 0.557556 0.396085 0.934288
O O4 0.613086 0.131312 0.978021
O O5 0.713158 0.881636 0.277750
O O6 0.621058 0.649640 0.230572
O O7 0.873712 0.687390 0.239465
O O8 0.152618 0.515799 0.584287
O O9 0.094085 0.759927 0.633375
O O10 0.995866 0.514306 0.684655
O O11 0.045267 0.984029 0.323847
O O12 0.800483 0.035361 0.063035
#
# Coordination Sequence:
#
# PCOD9320259 Si02
#       8
#     8   8   4   8   4   4   8   4
#     4  11  24  48  70 106 147 195 249 308 379 458
#     4  10  23  46  74 108 145 193 257 311 374 463
#     4  12  23  49  70 102 162 198 245 323 396 438
#     4  11  24  46  74 103 150 196 251 317 384 448
#     4   8  19  42  71  96 142 193 235 308 380 429
#     4  12  25  45  70 104 148 186 243 305 376 444
#     4  10  22  44  69 101 138 191 245 302 369 451
#     4  12  23  46  81 110 146 199 265 310 380 469
#
# _framework density 25.691603000000001
#
# number of rings (size 3 to 8) (size 9 to 14) (size 15 to 20)
#    0.000    1.333    3.333    3.500    0.000    6.000 
#    9.000    0.833    0.000    0.000    0.000    0.000 
#    0.000    0.000    0.000    0.000    0.000    0.000 
#
# Total GULP energy -133794.735340 kJ/mol
# GULP energy per Si atom -5574.780639 kJ/mol
# Density = 2.563313 g / cm^3
# Si number density = 25.691603 Si / 1000 Ang^3
#
#
#
# Elastic Constant Matrix: (Units=GPa)
#
#
# Indices 1 2 3 4 5 6 
#
# 1 75.4992 19.2860 17.6011 0.0000 0.0000 0.0000
# 2 19.2860 85.1035 37.6086 0.0000 0.0000 0.0000
# 3 17.6011 37.6086 134.6287 0.0000 0.0000 0.0000
# 4 0.0000 0.0000 0.0000 46.3375 0.0000 0.0000
# 5 0.0000 0.0000 0.0000 0.0000 33.5675 0.0000
# 6 0.0000 0.0000 0.0000 0.0000 0.0000 -23.4399
#
#
#
# Elastic Compliance Matrix: (Units=1/GPa)
#
#
# Indices 1 2 3 4 5 6 
#
# 1 0.014198 -0.002735 -0.001092 0.000000 0.000000 0.000000
# 2 -0.002735 0.013932 -0.003534 0.000000 0.000000 0.000000
# 3 -0.001092 -0.003534 0.008558 0.000000 0.000000 0.000000
# 4 0.000000 0.000000 0.000000 0.021581 0.000000 0.000000
# 5 0.000000 0.000000 0.000000 0.000000 0.029791 0.000000
# 6 0.000000 0.000000 0.000000 0.000000 0.000000 -0.042662
#
#
# Mechanical properties :
#
#
# Convention : Reuss Voigt Hill
#
# Bulk Modulus (GPa) = 45.52628 49.35809 47.44219
# Shear Modulus (GPa) = 74.13713 26.00874 50.07293
#
# Velocity S-wave (km/s) = 5.37766 3.18519 4.41954
# Velocity P-wave (km/s) = 7.50451 5.72544 6.67452
#
# Compressibility (1/GPa) = 0.02196533
#
# Stress axis : x y z
#
# Youngs Moduli (GPa) = 70.43028 71.77687 116.85025
#
# Poissons Ratio (x) = 0.19630 0.12763
# Poissons Ratio (y) = 0.19262 0.41299
# Poissons Ratio (z) = 0.07693 0.25369
#
# Static dielectric constant tensor:
#      x y z
#    x 2.149500 0.000000 0.000000 
#    y 0.000000 2.058430 0.000000 
#    z 0.000000 0.000000 2.137450 
# 
# From -- ./inp_files/24301.got.cif
#   From: 2010.05.17/outbox.cif.g08.bks.cpg/sg20_13_cif.got.tgz:24301.got - 2010.06.03 22:52:26.
