data_PCOD9320699
_publ_section_title
;
Structure prediction by ZEFSAII (Michael W. Deem and Ramdas Pophale) SiO2 
 PCOD9320699
Probable space group: C 2 2 21
;
_chemical_formula_sum "Si O2"
_cell_formula_units_Z 32
_cell_length_a 5.120533
_cell_length_b 19.553724
_cell_length_c 13.372674
_cell_angle_alpha 90.000000
_cell_angle_beta 90.000000
_cell_angle_gamma 90.000000
_cell_volume 1338.945524
_symmetry_space_group_name_H-M "C 2 2 21"
_symmetry_group_IT_number 20
_symmetry_cell_setting 'orthorhombic'
loop_
_space_group_symop_operation_xyz
x,y,z
-x,-y,1/2+z
x,-y,-z
-x,y,1/2-z
1/2+x,1/2+y,z
1/2-x,1/2-y,1/2+z
1/2+x,1/2-y,-z
1/2-x,1/2+y,1/2-z
loop_
_atom_site_type_symbol
_atom_site_label
_atom_site_fract_x
_atom_site_fract_y
_atom_site_fract_z
Si Si1 0.085303 0.604746 0.133555
Si Si2 0.747201 0.040718 0.820386
Si Si3 0.120550 0.189264 0.640014
Si Si4 0.405242 0.314479 0.568228
O O1 0.172940 0.526490 0.117956
O O2 0.332945 0.651358 0.109468
O O3 0.000000 0.609575 0.250000
O O4 0.832380 0.631804 0.076060
O O5 0.500000 0.055058 0.750000
O O6 0.795886 0.110869 0.878550
O O7 0.000000 0.026137 0.750000
O O8 0.338575 0.246983 0.631059
O O9 0.000000 0.191275 0.750000
O O10 0.932577 0.206052 0.547551
#
# Coordination Sequence:
#
# PCOD9320699 Si02
#       4
#     8   8   8   8
#     4  11  24  46  74 108 148 184 236 294 346 419
#     4  10  23  45  74 105 144 192 232 286 362 420
#     4  11  28  51  72 104 148 188 237 299 357 426
#     4  12  26  46  76 108 138 192 243 288 359 421
#
# _framework density 23.899403
#
# number of rings (size 3 to 8) (size 9 to 14) (size 15 to 20)
#    0.000    1.000    0.000    6.000    0.000   17.000 
#    0.000   10.000    0.000    0.000    0.000    0.000 
#    0.000    0.000    0.000    0.000    0.000    0.000 
#
# Total GULP energy -89698.496357 kJ/mol
# GULP energy per Si atom -5606.156022 kJ/mol
# Density = 2.384501 g / cm^3
# Si number density = 23.899403 Si / 1000 Ang^3
#
#
#
# Elastic Constant Matrix: (Units=GPa)
#
#
# Indices 1 2 3 4 5 6 
#
# 1 151.8949 52.5630 42.7670 0.0000 0.0000 0.0000
# 2 52.5630 179.1492 57.8058 0.0000 0.0000 0.0000
# 3 42.7670 57.8058 117.8764 0.0000 0.0000 0.0000
# 4 0.0000 0.0000 0.0000 445.9591 0.0000 0.0000
# 5 0.0000 0.0000 0.0000 0.0000 38.2252 0.0000
# 6 0.0000 0.0000 0.0000 0.0000 0.0000 23.0059
#
#
#
# Elastic Compliance Matrix: (Units=1/GPa)
#
#
# Indices 1 2 3 4 5 6 
#
# 1 0.007706 -0.001614 -0.002004 0.000000 0.000000 0.000000
# 2 -0.001614 0.006969 -0.002832 0.000000 0.000000 0.000000
# 3 -0.002004 -0.002832 0.010599 0.000000 0.000000 0.000000
# 4 0.000000 0.000000 0.000000 0.002242 0.000000 0.000000
# 5 0.000000 0.000000 0.000000 0.000000 0.026161 0.000000
# 6 0.000000 0.000000 0.000000 0.000000 0.000000 0.043467
#
#
# Mechanical properties :
#
#
# Convention : Reuss Voigt Hill
#
# Bulk Modulus (GPa) = 80.81537 83.91024 82.36281
# Shear Modulus (GPa) = 43.79371 121.15703 82.47537
#
# Velocity S-wave (km/s) = 4.28532 7.12774 5.88084
# Velocity P-wave (km/s) = 7.64026 10.14522 8.98051
#
# Compressibility (1/GPa) = 0.01237388
#
# Stress axis : x y z
#
# Youngs Moduli (GPa) = 129.76090 143.48411 94.34430
#
# Poissons Ratio (x) = 0.23164 0.18910
# Poissons Ratio (y) = 0.20948 0.26719
# Poissons Ratio (z) = 0.26008 0.40635
#
# Static dielectric constant tensor:
#      x y z
#    x 1.243980 0.000000 0.000000 
#    y 0.000000 1.912150 0.000000 
#    z 0.000000 0.000000 1.871230 
# 
# From -- ./inp_files/11908.got.cif
#   From: 2010.05.17/outbox.cif.g08.bks.cpg/sg20_6_cif.got.tgz:11908.got - 2010.06.03 22:52:26.
