data_PCOD9320180
_publ_section_title
;
Structure prediction by ZEFSAII (Michael W. Deem and Ramdas Pophale) SiO2 
 PCOD9320180
Probable space group: C 2 2 21
;
_chemical_formula_sum "Si O2"
_cell_formula_units_Z 48
_cell_length_a 8.434795
_cell_length_b 33.047399
_cell_length_c 8.651820
_cell_angle_alpha 90.000000
_cell_angle_beta 90.000000
_cell_angle_gamma 90.000000
_cell_volume 2411.677832
_symmetry_space_group_name_H-M "C 2 2 21"
_symmetry_group_IT_number 20
_symmetry_cell_setting 'orthorhombic'
loop_
_space_group_symop_operation_xyz
x,y,z
-x,-y,1/2+z
x,-y,-z
-x,y,1/2-z
1/2+x,1/2+y,z
1/2-x,1/2-y,1/2+z
1/2+x,1/2-y,-z
1/2-x,1/2+y,1/2-z
loop_
_atom_site_type_symbol
_atom_site_label
_atom_site_fract_x
_atom_site_fract_y
_atom_site_fract_z
Si Si1 0.568547 0.792024 0.565577
Si Si2 0.561015 0.958319 0.422287
Si Si3 0.433248 0.293432 0.430880
Si Si4 0.937825 0.623414 0.424648
Si Si5 0.440743 0.457988 0.423882
Si Si6 0.438249 0.624331 0.076889
O O1 0.500000 0.792645 0.750000
O O2 0.502896 0.749111 0.506828
O O3 0.498211 0.834293 0.503864
O O4 0.751613 0.792999 0.501713
O O5 0.500000 0.959236 0.250000
O O6 0.498780 0.917178 0.496619
O O7 0.750812 0.957671 0.429047
O O8 0.504627 0.000000 0.500000
O O9 0.500000 0.293374 0.250000
O O10 0.502091 0.335450 0.492716
O O11 0.750023 0.624014 0.425627
O O12 0.000000 0.621784 0.250000
O O13 0.497189 0.500000 0.500000
O O14 0.500000 0.457316 0.250000
O O15 0.500971 0.417507 0.505334
O O16 0.500000 0.626556 0.250000
#
# Coordination Sequence:
#
# PCOD9320180 Si02
#       6
#     8   8   8   8   8   8
#     4  10  22  43  68  98 135 177 223 275 339 406
#     4  11  24  41  63  91 124 162 206 260 320 386
#     4  11  24  44  69 101 137 177 227 281 336 402
#     4  11  23  41  63  91 127 169 215 264 321 388
#     4  11  24  42  64  93 127 166 216 270 329 396
#     4  12  24  41  67  96 131 175 220 272 335 400
#
# _framework density 19.903157
#
# number of rings (size 3 to 8) (size 9 to 14) (size 15 to 20)
#    0.000    1.000    0.000    7.500    0.000    8.000 
#    0.000    4.167    0.000    0.000    0.000    0.000 
#    0.000    0.000    0.000    0.000    0.000    0.000 
#
# Total GULP energy -133764.181343 kJ/mol
# GULP energy per Si atom -5573.507556 kJ/mol
# Density = 1.985786 g / cm^3
# Si number density = 19.903157 Si / 1000 Ang^3
#
#
#
# Elastic Constant Matrix: (Units=GPa)
#
#
# Indices 1 2 3 4 5 6 
#
# 1 156.9216 88.5759 46.9199 0.0000 0.0000 0.0000
# 2 88.5759 263.1414 88.2894 0.0000 0.0000 0.0000
# 3 46.9199 88.2894 103.0533 0.0000 0.0000 0.0000
# 4 0.0000 0.0000 0.0000 23.1104 0.0000 0.0000
# 5 0.0000 0.0000 0.0000 0.0000 38.0678 0.0000
# 6 0.0000 0.0000 0.0000 0.0000 0.0000 41.9154
#
#
#
# Elastic Compliance Matrix: (Units=1/GPa)
#
#
# Indices 1 2 3 4 5 6 
#
# 1 0.008125 -0.002096 -0.001903 0.000000 0.000000 0.000000
# 2 -0.002096 0.005874 -0.004078 0.000000 0.000000 0.000000
# 3 -0.001903 -0.004078 0.014064 0.000000 0.000000 0.000000
# 4 0.000000 0.000000 0.000000 0.043270 0.000000 0.000000
# 5 0.000000 0.000000 0.000000 0.000000 0.026269 0.000000
# 6 0.000000 0.000000 0.000000 0.000000 0.000000 0.023858
#
#
# Mechanical properties :
#
#
# Convention : Reuss Voigt Hill
#
# Bulk Modulus (GPa) = 83.97862 107.85409 95.91635
# Shear Modulus (GPa) = 35.31440 40.57411 37.94425
#
# Velocity S-wave (km/s) = 4.21683 4.51996 4.37102
# Velocity P-wave (km/s) = 8.12367 9.03034 8.58898
#
# Compressibility (1/GPa) = 0.01190779
#
# Stress axis : x y z
#
# Youngs Moduli (GPa) = 123.07680 170.23567 71.10260
#
# Poissons Ratio (x) = 0.35688 0.13533
# Poissons Ratio (y) = 0.25801 0.28997
# Poissons Ratio (z) = 0.23425 0.69425
#
# Static dielectric constant tensor:
#      x y z
#    x 1.727170 0.000000 0.000000 
#    y 0.000000 1.402980 0.000000 
#    z 0.000000 0.000000 1.740690 
# 
# From -- ./inp_files/6527.got.cif
#   From: 2010.05.17/outbox.cif.g08.bks.cpg/sg20_4_cif.got.tgz:6527.got - 2010.06.03 22:52:26.
