data_PCOD9320878
_publ_section_title
;
Structure prediction by ZEFSAII (Michael W. Deem and Ramdas Pophale) SiO2 
 PCOD9320878
Probable space group: C 2 2 21
;
_chemical_formula_sum "Si O2"
_cell_formula_units_Z 32
_cell_length_a 14.901805
_cell_length_b 12.561595
_cell_length_c 7.335546
_cell_angle_alpha 90.000000
_cell_angle_beta 90.000000
_cell_angle_gamma 90.000000
_cell_volume 1373.144077
_symmetry_space_group_name_H-M "C 2 2 21"
_symmetry_group_IT_number 20
_symmetry_cell_setting 'orthorhombic'
loop_
_space_group_symop_operation_xyz
x,y,z
-x,-y,1/2+z
x,-y,-z
-x,y,1/2-z
1/2+x,1/2+y,z
1/2-x,1/2-y,1/2+z
1/2+x,1/2-y,-z
1/2-x,1/2+y,1/2-z
loop_
_atom_site_type_symbol
_atom_site_label
_atom_site_fract_x
_atom_site_fract_y
_atom_site_fract_z
Si Si1 0.236287 0.417690 0.720328
Si Si2 0.000000 0.666601 0.750000
Si Si3 0.663583 0.749183 0.466098
Si Si4 0.591514 0.000000 0.000000
Si Si5 0.897170 0.938432 0.190236
O O1 0.266292 0.323392 0.858472
O O2 0.202442 0.639694 0.462061
O O3 0.155330 0.472996 0.828927
O O4 0.321161 0.496667 0.700745
O O5 0.917902 0.734820 0.826131
O O6 0.968671 0.595077 0.578589
O O7 0.631431 0.681541 0.641738
O O8 0.000000 0.941758 0.250000
O O9 0.894833 0.000000 0.000000
#
# Coordination Sequence:
#
# PCOD9320878 Si02
#       5
#     8   4   8   4   8
#     4  11  24  47  69 103 145 187 240 297 357 433
#     4  12  28  44  74 102 140 190 240 302 356 434
#     4  11  25  45  72 105 141 191 238 294 359 435
#     4  12  24  50  64 104 140 184 246 290 370 416
#     4  10  24  44  67 106 140 180 234 293 358 421
#
# _framework density 23.304182000000001
#
# number of rings (size 3 to 8) (size 9 to 14) (size 15 to 20)
#    0.000    1.000    3.750    3.000   10.500    2.000 
#    0.000    0.000    0.000    0.000    0.000    0.000 
#    0.000    0.000    0.000    0.000    0.000    0.000 
#
# Total GULP energy -89553.058335 kJ/mol
# GULP energy per Si atom -5597.066146 kJ/mol
# Density = 2.325114 g / cm^3
# Si number density = 23.304182 Si / 1000 Ang^3
#
#
#
# Elastic Constant Matrix: (Units=GPa)
#
#
# Indices 1 2 3 4 5 6 
#
# 1 74.4651 24.1451 12.7112 0.0000 0.0000 0.0000
# 2 24.1451 68.8772 13.6339 0.0000 0.0000 0.0000
# 3 12.7112 13.6339 70.4757 0.0000 0.0000 0.0000
# 4 0.0000 0.0000 0.0000 16.8950 0.0000 0.0000
# 5 0.0000 0.0000 0.0000 0.0000 56.1115 0.0000
# 6 0.0000 0.0000 0.0000 0.0000 0.0000 31.3302
#
#
#
# Elastic Compliance Matrix: (Units=1/GPa)
#
#
# Indices 1 2 3 4 5 6 
#
# 1 0.015367 -0.005031 -0.001798 0.000000 0.000000 0.000000
# 2 -0.005031 0.016744 -0.002332 0.000000 0.000000 0.000000
# 3 -0.001798 -0.002332 0.014965 0.000000 0.000000 0.000000
# 4 0.000000 0.000000 0.000000 0.059189 0.000000 0.000000
# 5 0.000000 0.000000 0.000000 0.000000 0.017822 0.000000
# 6 0.000000 0.000000 0.000000 0.000000 0.000000 0.031918
#
#
# Mechanical properties :
#
#
# Convention : Reuss Voigt Hill
#
# Bulk Modulus (GPa) = 34.77847 34.97760 34.87803
# Shear Modulus (GPa) = 27.18692 31.75586 29.47139
#
# Velocity S-wave (km/s) = 3.41927 3.69544 3.56004
# Velocity P-wave (km/s) = 5.52672 5.76629 5.64778
#
# Compressibility (1/GPa) = 0.02875342
#
# Stress axis : x y z
#
# Youngs Moduli (GPa) = 65.07272 59.72354 66.82375
#
# Poissons Ratio (x) = 0.30047 0.12018
# Poissons Ratio (y) = 0.32739 0.15582
# Poissons Ratio (z) = 0.11703 0.13926
#
# Static dielectric constant tensor:
#      x y z
#    x 1.886470 0.000000 0.000000 
#    y 0.000000 1.902900 0.000000 
#    z 0.000000 0.000000 1.730060 
# 
# From -- ./inp_files/7850.got.cif
#   From: 2010.05.17/outbox.cif.g08.bks.cpg/sg20_4_cif.got.tgz:7850.got - 2010.06.03 22:52:26.
