data_PCOD9320924
_publ_section_title
;
Structure prediction by ZEFSAII (Michael W. Deem and Ramdas Pophale) SiO2 
 PCOD9320924
Probable space group: C 2 2 21
;
_chemical_formula_sum "Si O2"
_cell_formula_units_Z 28
_cell_length_a 8.675553
_cell_length_b 11.500637
_cell_length_c 12.466231
_cell_angle_alpha 90.000000
_cell_angle_beta 90.000000
_cell_angle_gamma 90.000000
_cell_volume 1243.810542
_symmetry_space_group_name_H-M "C 2 2 21"
_symmetry_group_IT_number 20
_symmetry_cell_setting 'orthorhombic'
loop_
_space_group_symop_operation_xyz
x,y,z
-x,-y,1/2+z
x,-y,-z
-x,y,1/2-z
1/2+x,1/2+y,z
1/2-x,1/2-y,1/2+z
1/2+x,1/2-y,-z
1/2-x,1/2+y,1/2-z
loop_
_atom_site_type_symbol
_atom_site_label
_atom_site_fract_x
_atom_site_fract_y
_atom_site_fract_z
Si Si1 0.500000 0.550471 0.750000
Si Si2 0.005077 0.698367 0.629074
Si Si3 0.281191 0.973857 0.880913
Si Si4 0.653583 0.713243 0.575224
O O1 0.647397 0.482174 0.793940
O O2 0.555860 0.631415 0.651960
O O3 0.096051 0.576509 0.635398
O O4 0.093300 0.782312 0.546424
O O5 0.000000 0.743386 0.750000
O O6 0.833227 0.681153 0.584406
O O7 0.355862 0.846926 0.884222
O O8 0.215023 0.000000 0.000000
#
# Coordination Sequence:
#
# PCOD9320924 Si02
#       4
#     4   8   8   8
#     4  12  24  42  72 100 136 184 228 286 352 412
#     4  11  23  46  70 102 138 180 238 285 341 427
#     4  10  24  45  66 101 137 178 234 281 341 422
#     4  11  25  43  71  98 142 180 229 289 352 404
#
# _framework density 22.511465999999999
#
# number of rings (size 3 to 8) (size 9 to 14) (size 15 to 20)
#    0.000    1.143    2.857    3.429    4.000    0.000 
#    0.000   12.857    0.000    0.000    0.000    0.000 
#    0.000    0.000    0.000    0.000    0.000    0.000 
#
# Total GULP energy -78402.570389 kJ/mol
# GULP energy per Si atom -5600.183599 kJ/mol
# Density = 2.246023 g / cm^3
# Si number density = 22.511466 Si / 1000 Ang^3
#
#
#
# Elastic Constant Matrix: (Units=GPa)
#
#
# Indices 1 2 3 4 5 6 
#
# 1 121.2740 13.1473 61.4289 0.0000 0.0000 0.0000
# 2 13.1473 64.2583 37.1399 0.0000 0.0000 0.0000
# 3 61.4289 37.1399 176.5407 0.0000 0.0000 0.0000
# 4 0.0000 0.0000 0.0000 19.0315 0.0000 0.0000
# 5 0.0000 0.0000 0.0000 0.0000 51.6241 0.0000
# 6 0.0000 0.0000 0.0000 0.0000 0.0000 10.6614
#
#
#
# Elastic Compliance Matrix: (Units=1/GPa)
#
#
# Indices 1 2 3 4 5 6 
#
# 1 0.010010 -0.000040 -0.003475 0.000000 0.000000 0.000000
# 2 -0.000040 0.017717 -0.003713 0.000000 0.000000 0.000000
# 3 -0.003475 -0.003713 0.007655 0.000000 0.000000 0.000000
# 4 0.000000 0.000000 0.000000 0.052544 0.000000 0.000000
# 5 0.000000 0.000000 0.000000 0.000000 0.019371 0.000000
# 6 0.000000 0.000000 0.000000 0.000000 0.000000 0.093796
#
#
# Mechanical properties :
#
#
# Convention : Reuss Voigt Hill
#
# Bulk Modulus (GPa) = 47.78800 65.05612 56.42206
# Shear Modulus (GPa) = 22.46952 32.95387 27.71170
#
# Velocity S-wave (km/s) = 3.16276 3.83021 3.51237
# Velocity P-wave (km/s) = 5.88318 6.96581 6.44726
#
# Compressibility (1/GPa) = 0.02092575
#
# Stress axis : x y z
#
# Youngs Moduli (GPa) = 99.89836 56.44449 130.63907
#
# Poissons Ratio (x) = 0.00224 0.45394
# Poissons Ratio (y) = 0.00397 0.48510
# Poissons Ratio (z) = 0.34712 0.20960
#
# Static dielectric constant tensor:
#      x y z
#    x 1.794900 0.000000 0.000000 
#    y 0.000000 1.825740 0.000000 
#    z 0.000000 0.000000 1.830230 
# 
# From -- ./inp_files/12320.got.cif
#   From: 2010.05.17/outbox.cif.g08.bks.cpg/sg20_7_cif.got.tgz:12320.got - 2010.06.03 22:52:26.
