data_PCOD9320982
_publ_section_title
;
Structure prediction by ZEFSAII (Michael W. Deem and Ramdas Pophale) SiO2 
 PCOD9320982
Probable space group: C 2 2 21
;
_chemical_formula_sum "Si O2"
_cell_formula_units_Z 52
_cell_length_a 6.459283
_cell_length_b 18.690753
_cell_length_c 20.216436
_cell_angle_alpha 90.000000
_cell_angle_beta 90.000000
_cell_angle_gamma 90.000000
_cell_volume 2440.707334
_symmetry_space_group_name_H-M "C 2 2 21"
_symmetry_group_IT_number 20
_symmetry_cell_setting 'orthorhombic'
loop_
_space_group_symop_operation_xyz
x,y,z
-x,-y,1/2+z
x,-y,-z
-x,y,1/2-z
1/2+x,1/2+y,z
1/2-x,1/2-y,1/2+z
1/2+x,1/2-y,-z
1/2-x,1/2+y,1/2-z
loop_
_atom_site_type_symbol
_atom_site_label
_atom_site_fract_x
_atom_site_fract_y
_atom_site_fract_z
Si Si1 0.377312 0.217710 0.579776
Si Si2 0.024947 0.776132 0.327643
Si Si3 0.447429 0.641214 0.017266
Si Si4 0.238308 0.886900 0.095183
Si Si5 0.500000 0.593312 0.250000
Si Si6 0.621615 0.988494 0.686398
Si Si7 0.806656 0.633084 0.359803
O O1 0.425316 0.296763 0.554365
O O2 0.211906 0.180986 0.531426
O O3 0.583049 0.170511 0.579590
O O4 0.263280 0.221015 0.650270
O O5 0.912503 0.848162 0.351859
O O6 0.915551 0.710106 0.366371
O O7 0.000000 0.764477 0.250000
O O8 0.309844 0.606209 0.074520
O O9 0.603594 0.597966 0.970529
O O10 0.339764 0.955162 0.128955
O O11 0.661038 0.543775 0.210457
O O12 0.636950 0.637739 0.301555
O O13 0.500000 0.020447 0.750000
O O14 0.479059 0.923284 0.662134
#
# Coordination Sequence:
#
# PCOD9320982 Si02
#       7
#     8   8   8   8   4   8   8
#     4  11  22  41  65  97 138 173 218 292 340 391
#     4  11  25  37  67 107 131 168 236 280 340 411
#     4  11  22  41  68  96 135 177 230 278 344 404
#     4  11  25  42  69 100 136 184 221 284 344 405
#     4  10  24  46  72  90 140 176 224 282 346 406
#     4  10  25  45  68  98 140 181 223 283 353 408
#     4  11  24  43  69 100 137 180 226 287 345 412
#
# _framework density 21.305298000000001
#
# number of rings (size 3 to 8) (size 9 to 14) (size 15 to 20)
#    0.000    1.231    3.077    2.308    7.538    3.692 
#    0.000    4.615    0.000    0.000    0.000    0.000 
#    0.000    0.000    0.000    0.000    0.000    0.000 
#
# Total GULP energy -145432.459849 kJ/mol
# GULP energy per Si atom -5593.556148 kJ/mol
# Density = 2.125681 g / cm^3
# Si number density = 21.305298 Si / 1000 Ang^3
#
#
#
# Elastic Constant Matrix: (Units=GPa)
#
#
# Indices 1 2 3 4 5 6 
#
# 1 102.2761 15.3511 39.6028 0.0000 0.0000 0.0000
# 2 15.3511 35.4007 10.6699 0.0000 0.0000 0.0000
# 3 39.6028 10.6699 100.2348 0.0000 0.0000 0.0000
# 4 0.0000 0.0000 0.0000 21.3909 0.0000 0.0000
# 5 0.0000 0.0000 0.0000 0.0000 44.7470 0.0000
# 6 0.0000 0.0000 0.0000 0.0000 0.0000 8.1680
#
#
#
# Elastic Compliance Matrix: (Units=1/GPa)
#
#
# Indices 1 2 3 4 5 6 
#
# 1 0.012047 -0.003915 -0.004343 0.000000 0.000000 0.000000
# 2 -0.003915 0.030457 -0.001695 0.000000 0.000000 0.000000
# 3 -0.004343 -0.001695 0.011873 0.000000 0.000000 0.000000
# 4 0.000000 0.000000 0.000000 0.046749 0.000000 0.000000
# 5 0.000000 0.000000 0.000000 0.000000 0.022348 0.000000
# 6 0.000000 0.000000 0.000000 0.000000 0.000000 0.122429
#
#
# Mechanical properties :
#
#
# Convention : Reuss Voigt Hill
#
# Bulk Modulus (GPa) = 29.01072 41.01768 35.01420
# Shear Modulus (GPa) = 18.03111 26.34704 22.18908
#
# Velocity S-wave (km/s) = 2.91232 3.52041 3.23070
# Velocity P-wave (km/s) = 4.99550 5.98486 5.51242
#
# Compressibility (1/GPa) = 0.03447001
#
# Stress axis : x y z
#
# Youngs Moduli (GPa) = 83.01032 32.83355 84.22529
#
# Poissons Ratio (x) = 0.12854 0.36578
# Poissons Ratio (y) = 0.32498 0.14279
# Poissons Ratio (z) = 0.36051 0.05566
#
# Static dielectric constant tensor:
#      x y z
#    x 1.756280 0.000000 0.000000 
#    y 0.000000 1.715790 0.000000 
#    z 0.000000 0.000000 1.794920 
# 
# From -- ./inp_files/26094.got.cif
#   From: 2010.05.17/outbox.cif.g08.bks.cpg/sg20_14_cif.got.tgz:26094.got - 2010.06.03 22:52:26.
