data_PCOD9320688
_publ_section_title
;
Structure prediction by ZEFSAII (Michael W. Deem and Ramdas Pophale) SiO2 
 PCOD9320688
Probable space group: C 2 2 21
;
_chemical_formula_sum "Si O2"
_cell_formula_units_Z 20
_cell_length_a 10.745271
_cell_length_b 15.035225
_cell_length_c 5.013737
_cell_angle_alpha 90.000000
_cell_angle_beta 90.000000
_cell_angle_gamma 90.000000
_cell_volume 810.007152
_symmetry_space_group_name_H-M "C 2 2 21"
_symmetry_group_IT_number 20
_symmetry_cell_setting 'orthorhombic'
loop_
_space_group_symop_operation_xyz
x,y,z
-x,-y,1/2+z
x,-y,-z
-x,y,1/2-z
1/2+x,1/2+y,z
1/2-x,1/2-y,1/2+z
1/2+x,1/2-y,-z
1/2-x,1/2+y,1/2-z
loop_
_atom_site_type_symbol
_atom_site_label
_atom_site_fract_x
_atom_site_fract_y
_atom_site_fract_z
Si Si1 0.830119 0.723101 0.406654
Si Si2 0.500000 0.659321 0.250000
Si Si3 0.426176 0.500000 0.000000
Si Si4 0.500000 0.937460 0.750000
O O1 0.734329 0.730845 0.653883
O O2 0.946070 0.778568 0.523999
O O3 0.886828 0.627104 0.334189
O O4 0.609820 0.590203 0.343221
O O5 0.500000 0.542493 0.750000
O O6 0.533018 0.000000 0.500000
#
# Coordination Sequence:
#
# PCOD9320688 Si02
#       4
#     8   4   4   4
#     4  12  27  46  81 113 148 209 266 305 389 469
#     4  10  23  45  72 104 156 188 236 325 381 436
#     4   8  20  36  68  96 132 186 224 292 396 404
#     4  12  27  55  80 112 164 214 248 337 389 468
#
# _framework density 24.691140999999998
#
# number of rings (size 3 to 8) (size 9 to 14) (size 15 to 20)
#    1.200    0.000    0.000    6.000    8.400    0.000 
#   14.400    0.000    0.000    0.000    0.000    0.000 
#    0.000    0.000    0.000    0.000    0.000    0.000 
#
# Total GULP energy -55685.185990 kJ/mol
# GULP energy per Si atom -5568.518599 kJ/mol
# Density = 2.463494 g / cm^3
# Si number density = 24.691141 Si / 1000 Ang^3
#
#
#
# Elastic Constant Matrix: (Units=GPa)
#
#
# Indices 1 2 3 4 5 6 
#
# 1 127.8203 60.4217 59.3747 0.0000 0.0000 0.0000
# 2 60.4217 193.2246 101.4364 0.0000 0.0000 0.0000
# 3 59.3747 101.4364 214.2116 0.0000 0.0000 0.0000
# 4 0.0000 0.0000 0.0000 76.8505 0.0000 0.0000
# 5 0.0000 0.0000 0.0000 0.0000 58.6615 0.0000
# 6 0.0000 0.0000 0.0000 0.0000 0.0000 1094.7480
#
#
#
# Elastic Compliance Matrix: (Units=1/GPa)
#
#
# Indices 1 2 3 4 5 6 
#
# 1 0.009599 -0.002136 -0.001649 0.000000 0.000000 0.000000
# 2 -0.002136 0.007363 -0.002894 0.000000 0.000000 0.000000
# 3 -0.001649 -0.002894 0.006496 0.000000 0.000000 0.000000
# 4 0.000000 0.000000 0.000000 0.013012 0.000000 0.000000
# 5 0.000000 0.000000 0.000000 0.000000 0.017047 0.000000
# 6 0.000000 0.000000 0.000000 0.000000 0.000000 0.000913
#
#
# Mechanical properties :
#
#
# Convention : Reuss Voigt Hill
#
# Bulk Modulus (GPa) = 99.02226 108.63578 103.82902
# Shear Modulus (GPa) = 70.26787 266.98690 168.62739
#
# Velocity S-wave (km/s) = 5.34046 10.40987 8.27303
# Velocity P-wave (km/s) = 8.84414 13.73246 11.54988
#
# Compressibility (1/GPa) = 0.01009874
#
# Stress axis : x y z
#
# Youngs Moduli (GPa) = 104.17473 135.81932 153.93954
#
# Poissons Ratio (x) = 0.29009 0.25389
# Poissons Ratio (y) = 0.22251 0.44557
# Poissons Ratio (z) = 0.17181 0.39313
#
# Static dielectric constant tensor:
#      x y z
#    x 2.145800 0.000000 0.000000 
#    y 0.000000 1.943970 0.000000 
#    z 0.000000 0.000000 -75.290650 
# 
# From -- ./inp_files/836.got.cif
#   From: 2010.05.17/outbox.cif.g08.bks.cpg/sg20_1_cif.got.tgz:836.got - 2010.06.03 22:52:26.
