data_PCOD9320509
_publ_section_title
;
Structure prediction by ZEFSAII (Michael W. Deem and Ramdas Pophale) SiO2 
 PCOD9320509
Probable space group: C 2 2 21
;
_chemical_formula_sum "Si O2"
_cell_formula_units_Z 36
_cell_length_a 12.896617
_cell_length_b 5.116088
_cell_length_c 24.228806
_cell_angle_alpha 90.000000
_cell_angle_beta 90.000000
_cell_angle_gamma 90.000000
_cell_volume 1598.622131
_symmetry_space_group_name_H-M "C 2 2 21"
_symmetry_group_IT_number 20
_symmetry_cell_setting 'orthorhombic'
loop_
_space_group_symop_operation_xyz
x,y,z
-x,-y,1/2+z
x,-y,-z
-x,y,1/2-z
1/2+x,1/2+y,z
1/2-x,1/2-y,1/2+z
1/2+x,1/2-y,-z
1/2-x,1/2+y,1/2-z
loop_
_atom_site_type_symbol
_atom_site_label
_atom_site_fract_x
_atom_site_fract_y
_atom_site_fract_z
Si Si1 0.555188 0.719517 0.597359
Si Si2 0.944688 0.500000 0.500000
Si Si3 0.254467 0.260268 0.035921
Si Si4 0.501817 0.778437 0.337944
Si Si5 0.822130 0.807911 0.745239
O O1 0.510086 0.811220 0.538526
O O2 0.678996 0.755689 0.590975
O O3 0.525715 0.428702 0.613896
O O4 0.511259 0.924832 0.641468
O O5 0.865261 0.657748 0.539697
O O6 0.300158 0.500000 0.000000
O O7 0.260891 0.000000 0.000000
O O8 0.891440 0.221781 0.309831
O O9 0.593354 0.728612 0.293704
O O10 0.735269 0.584202 0.749954
#
# Coordination Sequence:
#
# PCOD9320509 Si02
#       5
#     8   4   8   8   8
#     4  12  24  44  68  98 139 177 225 280 321 394
#     4  10  28  40  68  90 142 182 224 264 334 374
#     4  10  23  42  63  90 131 181 223 266 316 379
#     4  11  27  43  70 104 130 172 227 273 341 400
#     4  11  24  49  72  98 136 170 213 285 343 406
#
# _framework density 22.519392
#
# number of rings (size 3 to 8) (size 9 to 14) (size 15 to 20)
#    0.667    0.444    1.111    4.000    3.111    8.889 
#    0.000    0.000    0.000    0.000    0.000    0.000 
#    0.000    0.000    0.000    0.000    0.000    0.000 
#
# Total GULP energy -100693.002826 kJ/mol
# GULP energy per Si atom -5594.055713 kJ/mol
# Density = 2.246814 g / cm^3
# Si number density = 22.519392 Si / 1000 Ang^3
#
#
#
# Elastic Constant Matrix: (Units=GPa)
#
#
# Indices 1 2 3 4 5 6 
#
# 1 97.4759 1.5445 23.3288 0.0000 0.0000 0.0000
# 2 1.5445 81.9860 -16.5497 0.0000 0.0000 0.0000
# 3 23.3288 -16.5497 36.1090 0.0000 0.0000 0.0000
# 4 0.0000 0.0000 0.0000 39.8561 0.0000 0.0000
# 5 0.0000 0.0000 0.0000 0.0000 30.4639 0.0000
# 6 0.0000 0.0000 0.0000 0.0000 0.0000 61.7605
#
#
#
# Elastic Compliance Matrix: (Units=1/GPa)
#
#
# Indices 1 2 3 4 5 6 
#
# 1 0.012439 -0.002046 -0.008974 0.000000 0.000000 0.000000
# 2 -0.002046 0.013777 0.007636 0.000000 0.000000 0.000000
# 3 -0.008974 0.007636 0.036992 0.000000 0.000000 0.000000
# 4 0.000000 0.000000 0.000000 0.025090 0.000000 0.000000
# 5 0.000000 0.000000 0.000000 0.000000 0.032826 0.000000
# 6 0.000000 0.000000 0.000000 0.000000 0.000000 0.016192
#
#
# Mechanical properties :
#
#
# Convention : Reuss Voigt Hill
#
# Bulk Modulus (GPa) = 17.71783 25.80202 21.75993
# Shear Modulus (GPa) = 30.69432 40.23260 35.46346
#
# Velocity S-wave (km/s) = 3.69591 4.23138 3.97268
# Velocity P-wave (km/s) = 5.10861 5.94603 5.54316
#
# Compressibility (1/GPa) = 0.05644031
#
# Stress axis : x y z
#
# Youngs Moduli (GPa) = 80.39147 72.58375 27.03314
#
# Poissons Ratio (x) = 0.14850 0.24260
# Poissons Ratio (y) = 0.16447 -0.20643
# Poissons Ratio (z) = 0.72145 -0.55426
#
# Static dielectric constant tensor:
#      x y z
#    x 1.823990 0.000000 0.000000 
#    y 0.000000 1.744070 0.000000 
#    z 0.000000 0.000000 1.786680 
# 
# From -- ./inp_files/29205.got.cif
#   From: 2010.05.17/outbox.cif.g08.bks.cpg/sg20_15_cif.got.tgz:29205.got - 2010.06.03 22:52:26.
