data_PCOD9320034
_publ_section_title
;
Structure prediction by ZEFSAII (Michael W. Deem and Ramdas Pophale) SiO2 
 PCOD9320034
Probable space group: C 2 2 21
;
_chemical_formula_sum "Si O2"
_cell_formula_units_Z 48
_cell_length_a 14.540599
_cell_length_b 4.839799
_cell_length_c 26.044686
_cell_angle_alpha 90.000000
_cell_angle_beta 90.000000
_cell_angle_gamma 90.000000
_cell_volume 1832.857703
_symmetry_space_group_name_H-M "C 2 2 21"
_symmetry_group_IT_number 20
_symmetry_cell_setting 'orthorhombic'
loop_
_space_group_symop_operation_xyz
x,y,z
-x,-y,1/2+z
x,-y,-z
-x,y,1/2-z
1/2+x,1/2+y,z
1/2-x,1/2-y,1/2+z
1/2+x,1/2-y,-z
1/2-x,1/2+y,1/2-z
loop_
_atom_site_type_symbol
_atom_site_label
_atom_site_fract_x
_atom_site_fract_y
_atom_site_fract_z
Si Si1 0.098517 0.810074 0.079088
Si Si2 0.110887 0.308673 0.597545
Si Si3 0.201902 0.061788 0.238258
Si Si4 0.119293 0.697377 0.857457
Si Si5 0.445800 0.085169 0.798083
Si Si6 0.791717 0.163677 0.049877
O O1 0.121974 0.624346 0.129635
O O2 0.183115 0.721339 0.043383
O O3 0.989972 0.755454 0.072516
O O4 0.113728 0.131474 0.090321
O O5 0.095289 0.399014 0.656513
O O6 0.157614 0.555245 0.565274
O O7 0.179166 0.048904 0.594681
O O8 0.291099 0.234181 0.257788
O O9 0.191828 0.170786 0.180570
O O10 0.124232 0.198111 0.273416
O O11 0.023417 0.754091 0.828883
O O12 0.500000 0.946555 0.750000
O O13 0.825741 0.000000 0.000000
#
# Coordination Sequence:
#
# PCOD9320034 Si02
#       6
#     8   8   8   8   8   8
#     4  11  24  46  70 101 139 180 230 295 351 422
#     4  11  25  47  77 105 144 195 237 296 368 439
#     4  11  24  36  59  98 136 179 227 282 335 404
#     4  10  22  42  64  93 133 182 231 272 343 415
#     4   9  22  44  67  99 144 192 235 289 352 424
#     4  12  28  47  74 110 140 181 244 304 374 446
#
# _framework density 26.188609
#
# number of rings (size 3 to 8) (size 9 to 14) (size 15 to 20)
#    0.000    1.333    0.000    4.500    7.000    4.000 
#    0.000   13.333    0.000    0.000    0.000    0.000 
#    0.000    0.000    0.000    0.000    0.000    0.000 
#
# Total GULP energy -134308.016184 kJ/mol
# GULP energy per Si atom -5596.167341 kJ/mol
# Density = 2.612900 g / cm^3
# Si number density = 26.188609 Si / 1000 Ang^3
#
#
#
# Elastic Constant Matrix: (Units=GPa)
#
#
# Indices 1 2 3 4 5 6 
#
# 1 120.9373 13.8580 21.5461 0.0000 0.0000 0.0000
# 2 13.8580 107.5448 3.0673 0.0000 0.0000 0.0000
# 3 21.5461 3.0673 60.5478 0.0000 0.0000 0.0000
# 4 0.0000 0.0000 0.0000 32.9441 0.0000 0.0000
# 5 0.0000 0.0000 0.0000 0.0000 21.2703 0.0000
# 6 0.0000 0.0000 0.0000 0.0000 0.0000 30.7419
#
#
#
# Elastic Compliance Matrix: (Units=1/GPa)
#
#
# Indices 1 2 3 4 5 6 
#
# 1 0.008948 -0.001064 -0.003130 0.000000 0.000000 0.000000
# 2 -0.001064 0.009438 -0.000100 0.000000 0.000000 0.000000
# 3 -0.003130 -0.000100 0.017635 0.000000 0.000000 0.000000
# 4 0.000000 0.000000 0.000000 0.030354 0.000000 0.000000
# 5 0.000000 0.000000 0.000000 0.000000 0.047014 0.000000
# 6 0.000000 0.000000 0.000000 0.000000 0.000000 0.032529
#
#
# Mechanical properties :
#
#
# Convention : Reuss Voigt Hill
#
# Bulk Modulus (GPa) = 36.45105 40.66363 38.55734
# Shear Modulus (GPa) = 30.55280 33.69517 32.12399
#
# Velocity S-wave (km/s) = 3.41932 3.59086 3.50614
# Velocity P-wave (km/s) = 5.43488 5.72305 5.58082
#
# Compressibility (1/GPa) = 0.02743405
#
# Stress axis : x y z
#
# Youngs Moduli (GPa) = 111.75242 105.95054 56.70585
#
# Poissons Ratio (x) = 0.11271 0.17751
# Poissons Ratio (y) = 0.11888 0.00565
# Poissons Ratio (z) = 0.34983 0.01055
#
# Static dielectric constant tensor:
#      x y z
#    x 2.149980 0.000000 0.000000 
#    y 0.000000 1.946590 0.000000 
#    z 0.000000 0.000000 2.090540 
# 
# From -- ./inp_files/30405.got.cif
#   From: 2010.05.17/outbox.cif.g08.bks.cpg/sg20_16_cif.got.tgz:30405.got - 2010.06.03 22:52:26.
