data_PCOD9320994
_publ_section_title
;
Structure prediction by ZEFSAII (Michael W. Deem and Ramdas Pophale) SiO2 
 PCOD9320994
Probable space group: C 2 2 21
;
_chemical_formula_sum "Si O2"
_cell_formula_units_Z 36
_cell_length_a 5.076037
_cell_length_b 25.625722
_cell_length_c 10.488689
_cell_angle_alpha 90.000000
_cell_angle_beta 90.000000
_cell_angle_gamma 90.000000
_cell_volume 1364.338385
_symmetry_space_group_name_H-M "C 2 2 21"
_symmetry_group_IT_number 20
_symmetry_cell_setting 'orthorhombic'
loop_
_space_group_symop_operation_xyz
x,y,z
-x,-y,1/2+z
x,-y,-z
-x,y,1/2-z
1/2+x,1/2+y,z
1/2-x,1/2-y,1/2+z
1/2+x,1/2-y,-z
1/2-x,1/2+y,1/2-z
loop_
_atom_site_type_symbol
_atom_site_label
_atom_site_fract_x
_atom_site_fract_y
_atom_site_fract_z
Si Si1 0.000000 0.949825 0.250000
Si Si2 0.662162 0.859861 0.362271
Si Si3 0.848735 0.399674 0.883063
Si Si4 0.000000 0.183815 0.250000
Si Si5 0.058294 0.000000 0.000000
Si Si6 0.630366 0.257118 0.081558
O O1 0.775747 0.912777 0.305040
O O2 0.098458 0.980593 0.375079
O O3 0.500000 0.833986 0.250000
O O4 0.510388 0.874065 0.492983
O O5 0.888622 0.817667 0.382752
O O6 0.626244 0.357106 0.849490
O O7 0.728506 0.453360 0.936810
O O8 0.000000 0.407458 0.750000
O O9 0.773138 0.219323 0.183934
O O10 0.345441 0.241545 0.032453
#
# Coordination Sequence:
#
# PCOD9320994 Si02
#       6
#     4   8   8   4   4   8
#     4  10  25  46  74 106 154 190 263 320 392 468
#     4  11  25  44  71 110 149 199 252 316 383 460
#     4  11  25  48  73 106 150 196 263 320 393 462
#     4  12  25  44  76 108 154 206 255 318 380 478
#     4  10  24  46  74 110 138 204 250 334 394 456
#     4  12  27  45  74 113 161 213 258 312 386 467
#
# _framework density 26.386412
#
# number of rings (size 3 to 8) (size 9 to 14) (size 15 to 20)
#    0.000    0.889    3.333    2.000    3.111    8.889 
#    0.000    2.222    0.000    0.000    0.000    0.000 
#    0.000    0.000    0.000    0.000    0.000    0.000 
#
# Total GULP energy -100715.988210 kJ/mol
# GULP energy per Si atom -5595.332678 kJ/mol
# Density = 2.632636 g / cm^3
# Si number density = 26.386412 Si / 1000 Ang^3
#
#
#
# Elastic Constant Matrix: (Units=GPa)
#
#
# Indices 1 2 3 4 5 6 
#
# 1 51.4251 6.3050 50.7165 0.0000 0.0000 0.0000
# 2 6.3050 138.7326 79.1342 0.0000 0.0000 0.0000
# 3 50.7165 79.1342 228.5587 0.0000 0.0000 0.0000
# 4 0.0000 0.0000 0.0000 28.4386 0.0000 0.0000
# 5 0.0000 0.0000 0.0000 0.0000 58.0014 0.0000
# 6 0.0000 0.0000 0.0000 0.0000 0.0000 26.3049
#
#
#
# Elastic Compliance Matrix: (Units=1/GPa)
#
#
# Indices 1 2 3 4 5 6 
#
# 1 0.025619 0.002590 -0.006581 0.000000 0.000000 0.000000
# 2 0.002590 0.009244 -0.003775 0.000000 0.000000 0.000000
# 3 -0.006581 -0.003775 0.007143 0.000000 0.000000 0.000000
# 4 0.000000 0.000000 0.000000 0.035163 0.000000 0.000000
# 5 0.000000 0.000000 0.000000 0.000000 0.017241 0.000000
# 6 0.000000 0.000000 0.000000 0.000000 0.000000 0.038016
#
#
# Mechanical properties :
#
#
# Convention : Reuss Voigt Hill
#
# Bulk Modulus (GPa) = 37.77595 76.78088 57.27842
# Shear Modulus (GPa) = 31.89118 41.38636 36.63877
#
# Velocity S-wave (km/s) = 3.48029 3.96469 3.73036
# Velocity P-wave (km/s) = 5.52245 7.07956 6.34892
#
# Compressibility (1/GPa) = 0.02647187
#
# Stress axis : x y z
#
# Youngs Moduli (GPa) = 39.03358 108.18072 140.00262
#
# Poissons Ratio (x) = -0.28017 0.92142
# Poissons Ratio (y) = -0.10109 0.52853
# Poissons Ratio (z) = 0.25690 0.40840
#
# Static dielectric constant tensor:
#      x y z
#    x 2.060600 0.000000 0.000000 
#    y 0.000000 2.053360 0.000000 
#    z 0.000000 0.000000 2.233520 
# 
# From -- ./inp_files/12087.got.cif
#   From: 2010.05.17/outbox.cif.g08.bks.cpg/sg20_7_cif.got.tgz:12087.got - 2010.06.03 22:52:26.
