data_PCOD9320563
_publ_section_title
;
Structure prediction by ZEFSAII (Michael W. Deem and Ramdas Pophale) SiO2 
 PCOD9320563
Probable space group: C 2 2 21
;
_chemical_formula_sum "Si O2"
_cell_formula_units_Z 40
_cell_length_a 12.977262
_cell_length_b 9.301383
_cell_length_c 15.143412
_cell_angle_alpha 90.000000
_cell_angle_beta 90.000000
_cell_angle_gamma 90.000000
_cell_volume 1827.908021
_symmetry_space_group_name_H-M "C 2 2 21"
_symmetry_group_IT_number 20
_symmetry_cell_setting 'orthorhombic'
loop_
_space_group_symop_operation_xyz
x,y,z
-x,-y,1/2+z
x,-y,-z
-x,y,1/2-z
1/2+x,1/2+y,z
1/2-x,1/2-y,1/2+z
1/2+x,1/2-y,-z
1/2-x,1/2+y,1/2-z
loop_
_atom_site_type_symbol
_atom_site_label
_atom_site_fract_x
_atom_site_fract_y
_atom_site_fract_z
Si Si1 0.864638 0.905853 0.089650
Si Si2 0.387072 0.134069 0.792892
Si Si3 0.594666 0.413827 0.091615
Si Si4 0.296435 0.834094 0.027577
Si Si5 0.715396 0.422096 0.757839
O O1 0.815619 0.000069 0.166406
O O2 0.981181 0.863587 0.115486
O O3 0.808829 0.762181 0.057992
O O4 0.864639 0.000000 0.000000
O O5 0.500000 0.138748 0.750000
O O6 0.384212 0.176420 0.897105
O O7 0.311659 0.254677 0.750461
O O8 0.329351 0.981138 0.780822
O O9 0.686096 0.300836 0.073196
O O10 0.639802 0.515498 0.167138
O O11 0.582854 0.500000 0.000000
O O12 0.294999 0.000000 0.000000
#
# Coordination Sequence:
#
# PCOD9320563 Si02
#       5
#     8   8   8   8   8
#     4  11  21  39  67  94 125 172 227 269 332 403
#     4  11  25  46  69  98 136 182 223 280 342 396
#     4   9  21  39  65  90 125 176 213 264 337 394
#     4  10  23  43  60  95 137 169 221 280 337 399
#     4  11  24  42  69 100 134 173 229 281 330 410
#
# _framework density 21.882939
#
# number of rings (size 3 to 8) (size 9 to 14) (size 15 to 20)
#    0.000    1.600    2.000    1.800   11.200    0.000 
#    7.200    3.000    0.000    0.000    0.000    0.000 
#    0.000    0.000    0.000    0.000    0.000    0.000 
#
# Total GULP energy -111673.708357 kJ/mol
# GULP energy per Si atom -5583.685418 kJ/mol
# Density = 2.183313 g / cm^3
# Si number density = 21.882939 Si / 1000 Ang^3
#
#
#
# Elastic Constant Matrix: (Units=GPa)
#
#
# Indices 1 2 3 4 5 6 
#
# 1 65.5928 24.9845 1.8722 0.0000 0.0000 0.0000
# 2 24.9845 83.4708 -2.3089 0.0000 0.0000 0.0000
# 3 1.8722 -2.3089 96.4391 0.0000 0.0000 0.0000
# 4 0.0000 0.0000 0.0000 38.5674 0.0000 0.0000
# 5 0.0000 0.0000 0.0000 0.0000 30.2832 0.0000
# 6 0.0000 0.0000 0.0000 0.0000 0.0000 15.0674
#
#
#
# Elastic Compliance Matrix: (Units=1/GPa)
#
#
# Indices 1 2 3 4 5 6 
#
# 1 0.017228 -0.005169 -0.000458 0.000000 0.000000 0.000000
# 2 -0.005169 0.013539 0.000424 0.000000 0.000000 0.000000
# 3 -0.000458 0.000424 0.010388 0.000000 0.000000 0.000000
# 4 0.000000 0.000000 0.000000 0.025929 0.000000 0.000000
# 5 0.000000 0.000000 0.000000 0.000000 0.033022 0.000000
# 6 0.000000 0.000000 0.000000 0.000000 0.000000 0.066369
#
#
# Mechanical properties :
#
#
# Convention : Reuss Voigt Hill
#
# Bulk Modulus (GPa) = 32.52113 32.73317 32.62715
# Shear Modulus (GPa) = 26.71945 31.51393 29.11669
#
# Velocity S-wave (km/s) = 3.49810 3.79900 3.65165
# Velocity P-wave (km/s) = 5.58652 5.85098 5.72028
#
# Compressibility (1/GPa) = 0.03074924
#
# Stress axis : x y z
#
# Youngs Moduli (GPa) = 58.04628 73.85937 96.26220
#
# Poissons Ratio (x) = 0.38180 0.04411
# Poissons Ratio (y) = 0.30006 -0.04086
# Poissons Ratio (z) = 0.02660 -0.03135
#
# Static dielectric constant tensor:
#      x y z
#    x 1.820600 0.000000 0.000000 
#    y 0.000000 1.809290 0.000000 
#    z 0.000000 0.000000 1.841860 
# 
# From -- ./inp_files/18538.got.cif
#   From: 2010.05.17/outbox.cif.g08.bks.cpg/sg20_10_cif.got.tgz:18538.got - 2010.06.03 22:52:26.
