data_PCOD9320516
_publ_section_title
;
Structure prediction by ZEFSAII (Michael W. Deem and Ramdas Pophale) SiO2 
 PCOD9320516
Probable space group: C 2 2 21
;
_chemical_formula_sum "Si O2"
_cell_formula_units_Z 52
_cell_length_a 25.087732
_cell_length_b 8.864400
_cell_length_c 11.862365
_cell_angle_alpha 90.000000
_cell_angle_beta 90.000000
_cell_angle_gamma 90.000000
_cell_volume 2638.043969
_symmetry_space_group_name_H-M "C 2 2 21"
_symmetry_group_IT_number 20
_symmetry_cell_setting 'orthorhombic'
loop_
_space_group_symop_operation_xyz
x,y,z
-x,-y,1/2+z
x,-y,-z
-x,y,1/2-z
1/2+x,1/2+y,z
1/2-x,1/2-y,1/2+z
1/2+x,1/2-y,-z
1/2-x,1/2+y,1/2-z
loop_
_atom_site_type_symbol
_atom_site_label
_atom_site_fract_x
_atom_site_fract_y
_atom_site_fract_z
Si Si1 0.138656 0.450513 0.375339
Si Si2 0.665812 0.273920 0.314108
Si Si3 0.046268 0.769760 0.659850
Si Si4 0.191262 0.000000 0.000000
Si Si5 0.241252 0.263241 0.351201
Si Si6 0.603932 0.510753 0.170656
Si Si7 0.298928 0.500000 0.000000
Si Si8 0.511012 0.500000 0.000000
O O1 0.155351 0.500000 0.500000
O O2 0.139885 0.610256 0.315015
O O3 0.081724 0.370726 0.376697
O O4 0.183663 0.336897 0.330845
O O5 0.725076 0.254068 0.263414
O O6 0.632027 0.371414 0.228218
O O7 0.668962 0.371822 0.429436
O O8 0.000000 0.729401 0.750000
O O9 0.023398 0.864541 0.553757
O O10 0.084627 0.878154 0.732358
O O11 0.227096 0.876991 0.064490
O O12 0.149633 0.076442 0.088050
O O13 0.233744 0.100343 0.409871
O O14 0.551918 0.459992 0.100694
#
# Coordination Sequence:
#
# PCOD9320516 Si02
#       8
#     8   8   8   4   8   8   4   4
#     4  12  24  41  59  90 129 159 204 258 309 364
#     4  11  24  39  62  95 125 166 205 252 311 383
#     4  10  23  42  64  89 120 162 207 262 317 370
#     4   9  18  38  60  93 130 157 194 255 310 366
#     4  11  22  39  62  91 129 167 204 249 310 377
#     4   9  20  38  68  92 119 158 207 255 310 386
#     4  12  22  37  60  87 126 169 208 245 300 368
#     4   9  20  43  68  92 116 156 212 264 318 370
#
# _framework density 19.711573999999999
#
# number of rings (size 3 to 8) (size 9 to 14) (size 15 to 20)
#    0.000    1.538    2.308    1.846    2.154    5.538 
#    2.769    0.000    0.000    0.000    0.000    0.000 
#    0.000    0.000    0.000    0.000    0.000    0.000 
#
# Total GULP energy -145119.120841 kJ/mol
# GULP energy per Si atom -5581.504648 kJ/mol
# Density = 1.966671 g / cm^3
# Si number density = 19.711574 Si / 1000 Ang^3
#
#
#
# Elastic Constant Matrix: (Units=GPa)
#
#
# Indices 1 2 3 4 5 6 
#
# 1 100.2447 48.7768 18.3630 0.0000 0.0000 0.0000
# 2 48.7768 84.8569 23.4940 0.0000 0.0000 0.0000
# 3 18.3630 23.4940 54.9760 0.0000 0.0000 0.0000
# 4 0.0000 0.0000 0.0000 20.8478 0.0000 0.0000
# 5 0.0000 0.0000 0.0000 0.0000 10.1259 0.0000
# 6 0.0000 0.0000 0.0000 0.0000 0.0000 35.1598
#
#
#
# Elastic Compliance Matrix: (Units=1/GPa)
#
#
# Indices 1 2 3 4 5 6 
#
# 1 0.013943 -0.007628 -0.001398 0.000000 0.000000 0.000000
# 2 -0.007628 0.017539 -0.004947 0.000000 0.000000 0.000000
# 3 -0.001398 -0.004947 0.020771 0.000000 0.000000 0.000000
# 4 0.000000 0.000000 0.000000 0.047967 0.000000 0.000000
# 5 0.000000 0.000000 0.000000 0.000000 0.098757 0.000000
# 6 0.000000 0.000000 0.000000 0.000000 0.000000 0.028442
#
#
# Mechanical properties :
#
#
# Convention : Reuss Voigt Hill
#
# Bulk Modulus (GPa) = 41.13975 46.81612 43.97793
# Shear Modulus (GPa) = 18.97779 23.18960 21.08369
#
# Velocity S-wave (km/s) = 3.10623 3.43366 3.27404
# Velocity P-wave (km/s) = 5.81214 6.28666 6.05405
#
# Compressibility (1/GPa) = 0.02430739
#
# Stress axis : x y z
#
# Youngs Moduli (GPa) = 71.72020 57.01641 48.14442
#
# Poissons Ratio (x) = 0.43490 0.06728
# Poissons Ratio (y) = 0.54706 0.23819
# Poissons Ratio (z) = 0.10023 0.28208
#
# Static dielectric constant tensor:
#      x y z
#    x 1.703920 0.000000 0.000000 
#    y 0.000000 1.085950 0.000000 
#    z 0.000000 0.000000 1.725090 
# 
# From -- ./inp_files/17041.got.cif
#   From: 2010.05.17/outbox.cif.g08.bks.cpg/sg20_9_cif.got.tgz:17041.got - 2010.06.03 22:52:26.
