data_PCOD9320564
_publ_section_title
;
Structure prediction by ZEFSAII (Michael W. Deem and Ramdas Pophale) SiO2 
 PCOD9320564
Probable space group: C 2 2 21
;
_chemical_formula_sum "Si O2"
_cell_formula_units_Z 52
_cell_length_a 8.267942
_cell_length_b 21.634889
_cell_length_c 14.662750
_cell_angle_alpha 90.000000
_cell_angle_beta 90.000000
_cell_angle_gamma 90.000000
_cell_volume 2622.814178
_symmetry_space_group_name_H-M "C 2 2 21"
_symmetry_group_IT_number 20
_symmetry_cell_setting 'orthorhombic'
loop_
_space_group_symop_operation_xyz
x,y,z
-x,-y,1/2+z
x,-y,-z
-x,y,1/2-z
1/2+x,1/2+y,z
1/2-x,1/2-y,1/2+z
1/2+x,1/2-y,-z
1/2-x,1/2+y,1/2-z
loop_
_atom_site_type_symbol
_atom_site_label
_atom_site_fract_x
_atom_site_fract_y
_atom_site_fract_z
Si Si1 0.892172 0.188997 0.910474
Si Si2 0.453433 0.083052 0.144995
Si Si3 0.327796 0.246791 0.736205
Si Si4 0.111736 0.500000 0.000000
Si Si5 0.152423 0.295321 0.918145
Si Si6 0.911689 0.878198 0.658296
Si Si7 0.572208 0.431283 0.485037
O O1 0.805221 0.207263 0.816381
O O2 0.028286 0.239204 0.932849
O O3 0.758442 0.193898 0.991398
O O4 0.968338 0.120058 0.909974
O O5 0.500000 0.073943 0.250000
O O6 0.548206 0.144389 0.110267
O O7 0.261640 0.091969 0.140052
O O8 0.508955 0.026759 0.082090
O O9 0.500000 0.213478 0.750000
O O10 0.259279 0.274878 0.830428
O O11 0.372687 0.305984 0.673130
O O12 0.239275 0.447254 0.029713
O O13 0.000000 0.900117 0.750000
O O14 0.031945 0.895270 0.577648
O O15 0.497254 0.500000 0.500000
#
# Coordination Sequence:
#
# PCOD9320564 Si02
#       7
#     8   8   8   4   8   8   8
#     4  12  22  39  67  93 133 171 215 278 344 393
#     4  12  22  42  70 100 131 176 231 280 335 404
#     4  11  23  40  66 101 131 169 215 281 344 413
#     4  10  24  42  68  92 134 176 230 286 320 402
#     4  12  22  41  65 104 133 171 222 279 345 414
#     4  11  21  39  67  96 123 168 223 276 329 400
#     4  10  23  43  61  88 132 175 219 265 329 398
#
# _framework density 19.826032999999999
#
# number of rings (size 3 to 8) (size 9 to 14) (size 15 to 20)
#    0.462    0.308    4.615    5.077    1.077    0.000 
#    0.000    2.308    0.000    0.000    0.000    0.000 
#    0.000    0.000    0.000    0.000    0.000    0.000 
#
# Total GULP energy -145075.794852 kJ/mol
# GULP energy per Si atom -5579.838264 kJ/mol
# Density = 1.978091 g / cm^3
# Si number density = 19.826033 Si / 1000 Ang^3
#
#
#
# Elastic Constant Matrix: (Units=GPa)
#
#
# Indices 1 2 3 4 5 6 
#
# 1 95.1308 26.5596 15.3056 0.0000 0.0000 0.0000
# 2 26.5596 88.6790 23.7275 0.0000 0.0000 0.0000
# 3 15.3056 23.7275 43.9266 0.0000 0.0000 0.0000
# 4 0.0000 0.0000 0.0000 33.1821 0.0000 0.0000
# 5 0.0000 0.0000 0.0000 0.0000 44.1729 0.0000
# 6 0.0000 0.0000 0.0000 0.0000 0.0000 73.8855
#
#
#
# Elastic Compliance Matrix: (Units=1/GPa)
#
#
# Indices 1 2 3 4 5 6 
#
# 1 0.011711 -0.002824 -0.002555 0.000000 0.000000 0.000000
# 2 -0.002824 0.013863 -0.006504 0.000000 0.000000 0.000000
# 3 -0.002555 -0.006504 0.027169 0.000000 0.000000 0.000000
# 4 0.000000 0.000000 0.000000 0.030137 0.000000 0.000000
# 5 0.000000 0.000000 0.000000 0.000000 0.022638 0.000000
# 6 0.000000 0.000000 0.000000 0.000000 0.000000 0.013534
#
#
# Mechanical properties :
#
#
# Convention : Reuss Voigt Hill
#
# Bulk Modulus (GPa) = 34.51103 39.88023 37.19563
# Shear Modulus (GPa) = 32.79163 41.05766 36.92464
#
# Velocity S-wave (km/s) = 4.07131 4.55565 4.32027
# Velocity P-wave (km/s) = 6.28852 6.91597 6.60970
#
# Compressibility (1/GPa) = 0.02897624
#
# Stress axis : x y z
#
# Youngs Moduli (GPa) = 85.38710 72.13612 36.80679
#
# Poissons Ratio (x) = 0.20370 0.09405
# Poissons Ratio (y) = 0.24112 0.23940
# Poissons Ratio (z) = 0.21819 0.46919
#
# Static dielectric constant tensor:
#      x y z
#    x 1.728740 0.000000 0.000000 
#    y 0.000000 1.729610 0.000000 
#    z 0.000000 0.000000 1.688720 
# 
# From -- ./inp_files/19124.got.cif
#   From: 2010.05.17/outbox.cif.g08.bks.cpg/sg20_10_cif.got.tgz:19124.got - 2010.06.03 22:52:26.
