data_PCOD9320707
_publ_section_title
;
Structure prediction by ZEFSAII (Michael W. Deem and Ramdas Pophale) SiO2 
 PCOD9320707
Probable space group: C 2 2 21
;
_chemical_formula_sum "Si O2"
_cell_formula_units_Z 40
_cell_length_a 16.643254
_cell_length_b 9.015783
_cell_length_c 11.094115
_cell_angle_alpha 90.000000
_cell_angle_beta 90.000000
_cell_angle_gamma 90.000000
_cell_volume 1664.693772
_symmetry_space_group_name_H-M "C 2 2 21"
_symmetry_group_IT_number 20
_symmetry_cell_setting 'orthorhombic'
loop_
_space_group_symop_operation_xyz
x,y,z
-x,-y,1/2+z
x,-y,-z
-x,y,1/2-z
1/2+x,1/2+y,z
1/2-x,1/2-y,1/2+z
1/2+x,1/2-y,-z
1/2-x,1/2+y,1/2-z
loop_
_atom_site_type_symbol
_atom_site_label
_atom_site_fract_x
_atom_site_fract_y
_atom_site_fract_z
Si Si1 0.204949 0.968915 0.140327
Si Si2 0.924424 0.248955 0.661663
Si Si3 0.615668 0.351865 0.670742
Si Si4 0.141454 0.443540 0.208338
Si Si5 0.246069 0.000000 0.500000
Si Si6 0.510901 0.500000 0.000000
O O1 0.166483 0.812111 0.185336
O O2 0.291226 0.998239 0.197207
O O3 0.141812 0.075983 0.204240
O O4 0.209584 0.000000 0.000000
O O5 0.915198 0.425394 0.661345
O O6 0.000000 0.219876 0.750000
O O7 0.944702 0.147219 0.546895
O O8 0.600320 0.184847 0.712958
O O9 0.689091 0.388256 0.576883
O O10 0.543534 0.437201 0.608150
O O11 0.197127 0.407539 0.091282
#
# Coordination Sequence:
#
# PCOD9320707 Si02
#       6
#     8   8   8   8   4   4
#     4  11  23  43  77 110 149 205 256 316 399 479
#     4  12  26  50  73 111 157 202 263 321 395 471
#     4  10  23  45  77 108 153 207 261 321 401 477
#     4  11  26  45  75 116 151 194 266 341 380 461
#     4   9  22  46  74 112 155 202 260 320 399 482
#     4  11  24  50  82 102 159 224 258 318 409 500
#
# _framework density 24.028445000000001
#
# number of rings (size 3 to 8) (size 9 to 14) (size 15 to 20)
#    0.000    1.200    3.000    2.400    5.600    1.600 
#    7.200    0.000    0.000    0.000    0.000    0.000 
#    0.000    0.000    0.000    0.000    0.000    0.000 
#
# Total GULP energy -111605.177428 kJ/mol
# GULP energy per Si atom -5580.258871 kJ/mol
# Density = 2.397376 g / cm^3
# Si number density = 24.028445 Si / 1000 Ang^3
#
#
#
# Elastic Constant Matrix: (Units=GPa)
#
#
# Indices 1 2 3 4 5 6 
#
# 1 72.5682 39.3861 39.1659 0.0000 0.0000 0.0000
# 2 39.3861 158.8481 46.4948 0.0000 0.0000 0.0000
# 3 39.1659 46.4948 155.9402 0.0000 0.0000 0.0000
# 4 0.0000 0.0000 0.0000 29.0322 0.0000 0.0000
# 5 0.0000 0.0000 0.0000 0.0000 15.2688 0.0000
# 6 0.0000 0.0000 0.0000 0.0000 0.0000 24.4145
#
#
#
# Elastic Compliance Matrix: (Units=1/GPa)
#
#
# Indices 1 2 3 4 5 6 
#
# 1 0.017411 -0.003327 -0.003381 0.000000 0.000000 0.000000
# 2 -0.003327 0.007533 -0.001410 0.000000 0.000000 0.000000
# 3 -0.003381 -0.001410 0.007682 0.000000 0.000000 0.000000
# 4 0.000000 0.000000 0.000000 0.034445 0.000000 0.000000
# 5 0.000000 0.000000 0.000000 0.000000 0.065493 0.000000
# 6 0.000000 0.000000 0.000000 0.000000 0.000000 0.040959
#
#
# Mechanical properties :
#
#
# Convention : Reuss Voigt Hill
#
# Bulk Modulus (GPa) = 61.01605 70.82779 65.92192
# Shear Modulus (GPa) = 25.61170 31.23041 28.42105
#
# Velocity S-wave (km/s) = 3.26834 3.60908 3.44293
# Velocity P-wave (km/s) = 6.30009 6.84894 6.58024
#
# Compressibility (1/GPa) = 0.01638913
#
# Stress axis : x y z
#
# Youngs Moduli (GPa) = 57.43588 132.74643 130.16863
#
# Poissons Ratio (x) = 0.44170 0.44007
# Poissons Ratio (y) = 0.19111 0.18359
# Poissons Ratio (z) = 0.19418 0.18722
#
# Static dielectric constant tensor:
#      x y z
#    x 2.026050 0.000000 0.000000 
#    y 0.000000 2.050090 0.000000 
#    z 0.000000 0.000000 1.916900 
# 
# From -- ./inp_files/15572.got.cif
#   From: 2010.05.17/outbox.cif.g08.bks.cpg/sg20_8_cif.got.tgz:15572.got - 2010.06.03 22:52:26.
