data_PCOD9320655
_publ_section_title
;
Structure prediction by ZEFSAII (Michael W. Deem and Ramdas Pophale) SiO2 
 PCOD9320655
Probable space group: C 2 2 21
;
_chemical_formula_sum "Si O2"
_cell_formula_units_Z 36
_cell_length_a 22.826166
_cell_length_b 4.951981
_cell_length_c 13.259699
_cell_angle_alpha 90.000000
_cell_angle_beta 90.000000
_cell_angle_gamma 90.000000
_cell_volume 1498.806633
_symmetry_space_group_name_H-M "C 2 2 21"
_symmetry_group_IT_number 20
_symmetry_cell_setting 'orthorhombic'
loop_
_space_group_symop_operation_xyz
x,y,z
-x,-y,1/2+z
x,-y,-z
-x,y,1/2-z
1/2+x,1/2+y,z
1/2-x,1/2-y,1/2+z
1/2+x,1/2-y,-z
1/2-x,1/2+y,1/2-z
loop_
_atom_site_type_symbol
_atom_site_label
_atom_site_fract_x
_atom_site_fract_y
_atom_site_fract_z
Si Si1 0.545340 0.059658 0.663847
Si Si2 0.541994 0.000000 0.000000
Si Si3 0.622483 0.450399 0.313276
Si Si4 0.249266 0.990003 0.680812
Si Si5 0.148373 0.815119 0.909314
O O1 0.500000 0.142518 0.750000
O O2 0.503267 0.909112 0.584922
O O3 0.580067 0.330380 0.634776
O O4 0.593594 0.841570 0.694481
O O5 0.586358 0.790362 0.049475
O O6 0.685949 0.445749 0.365553
O O7 0.634263 0.546763 0.197932
O O8 0.251329 0.183497 0.780522
O O9 0.305017 0.079757 0.616263
O O10 0.172384 0.000000 0.000000
#
# Coordination Sequence:
#
# PCOD9320655 Si02
#       5
#     8   4   8   8   8
#     4  12  25  45  72 102 145 191 236 293 353 427
#     4  12  28  44  72 108 144 188 254 294 354 434
#     4  11  24  47  72 101 145 191 230 292 368 419
#     4  10  23  44  73 102 136 181 231 290 359 420
#     4  11  25  44  74 107 140 182 245 302 348 435
#
# _framework density 24.019110000000001
#
# number of rings (size 3 to 8) (size 9 to 14) (size 15 to 20)
#    0.000    0.889    2.222    4.667    9.333    0.000 
#    2.000    0.000    0.000    0.000    0.000    0.000 
#    0.000    0.000    0.000    0.000    0.000    0.000 
#
# Total GULP energy -100686.325051 kJ/mol
# GULP energy per Si atom -5593.684725 kJ/mol
# Density = 2.396444 g / cm^3
# Si number density = 24.019110 Si / 1000 Ang^3
#
#
#
# Elastic Constant Matrix: (Units=GPa)
#
#
# Indices 1 2 3 4 5 6 
#
# 1 146.6973 19.1422 15.7670 0.0000 0.0000 0.0000
# 2 19.1422 73.4415 -8.5943 0.0000 0.0000 0.0000
# 3 15.7670 -8.5943 66.5978 0.0000 0.0000 0.0000
# 4 0.0000 0.0000 0.0000 28.6381 0.0000 0.0000
# 5 0.0000 0.0000 0.0000 0.0000 13.7632 0.0000
# 6 0.0000 0.0000 0.0000 0.0000 0.0000 23.7107
#
#
#
# Elastic Compliance Matrix: (Units=1/GPa)
#
#
# Indices 1 2 3 4 5 6 
#
# 1 0.007312 -0.002141 -0.002007 0.000000 0.000000 0.000000
# 2 -0.002141 0.014452 0.002372 0.000000 0.000000 0.000000
# 3 -0.002007 0.002372 0.015797 0.000000 0.000000 0.000000
# 4 0.000000 0.000000 0.000000 0.034918 0.000000 0.000000
# 5 0.000000 0.000000 0.000000 0.000000 0.072657 0.000000
# 6 0.000000 0.000000 0.000000 0.000000 0.000000 0.042175
#
#
# Mechanical properties :
#
#
# Convention : Reuss Voigt Hill
#
# Bulk Modulus (GPa) = 29.40486 37.70735 33.55611
# Shear Modulus (GPa) = 24.72800 30.58385 27.65593
#
# Velocity S-wave (km/s) = 3.21208 3.57222 3.39693
# Velocity P-wave (km/s) = 5.10152 5.72253 5.42092
#
# Compressibility (1/GPa) = 0.03400799
#
# Stress axis : x y z
#
# Youngs Moduli (GPa) = 136.76445 69.19558 63.30384
#
# Poissons Ratio (x) = 0.14813 0.12707
# Poissons Ratio (y) = 0.29277 -0.15014
# Poissons Ratio (z) = 0.27453 -0.16412
#
# Static dielectric constant tensor:
#      x y z
#    x 1.900040 0.000000 0.000000 
#    y 0.000000 1.921530 0.000000 
#    z 0.000000 0.000000 2.047140 
# 
# From -- ./inp_files/21597.got.cif
#   From: 2010.05.17/outbox.cif.g08.bks.cpg/sg20_11_cif.got.tgz:21597.got - 2010.06.03 22:52:26.
