data_PCOD9320820
_publ_section_title
;
Structure prediction by ZEFSAII (Michael W. Deem and Ramdas Pophale) SiO2 
 PCOD9320820
Probable space group: C 2 2 21
;
_chemical_formula_sum "Si O2"
_cell_formula_units_Z 36
_cell_length_a 12.530738
_cell_length_b 21.115197
_cell_length_c 6.702096
_cell_angle_alpha 90.000000
_cell_angle_beta 90.000000
_cell_angle_gamma 90.000000
_cell_volume 1773.300888
_symmetry_space_group_name_H-M "C 2 2 21"
_symmetry_group_IT_number 20
_symmetry_cell_setting 'orthorhombic'
loop_
_space_group_symop_operation_xyz
x,y,z
-x,-y,1/2+z
x,-y,-z
-x,y,1/2-z
1/2+x,1/2+y,z
1/2-x,1/2-y,1/2+z
1/2+x,1/2-y,-z
1/2-x,1/2+y,1/2-z
loop_
_atom_site_type_symbol
_atom_site_label
_atom_site_fract_x
_atom_site_fract_y
_atom_site_fract_z
Si Si1 0.608033 0.780916 0.673695
Si Si2 0.254213 0.000000 0.000000
Si Si3 0.395358 0.554338 0.853278
Si Si4 0.250681 0.834430 0.470606
Si Si5 0.900461 0.389274 0.124772
O O1 0.500000 0.748405 0.750000
O O2 0.684514 0.728677 0.578476
O O3 0.565099 0.833084 0.519686
O O4 0.676897 0.817915 0.840020
O O5 0.180528 0.019674 0.811222
O O6 0.334460 0.059948 0.004655
O O7 0.500000 0.583133 0.750000
O O8 0.330559 0.606427 0.979718
O O9 0.434807 0.500000 0.000000
O O10 0.323851 0.855660 0.285442
O O11 0.000000 0.417025 0.250000
#
# Coordination Sequence:
#
# PCOD9320820 Si02
#       5
#     8   4   8   8   8
#     4  12  23  41  67  95 130 174 211 269 318 385
#     4  10  24  42  66  92 132 168 214 262 322 380
#     4  11  22  43  66  95 129 171 211 267 319 382
#     4  11  24  41  64  95 132 168 218 261 323 383
#     4  11  23  43  64  95 129 170 217 266 320 383
#
# _framework density 20.301124999999999
#
# number of rings (size 3 to 8) (size 9 to 14) (size 15 to 20)
#    0.000    0.889    5.556    2.000    0.000    0.889 
#    8.000    1.111    0.000    0.000    0.000    0.000 
#    0.000    0.000    0.000    0.000    0.000    0.000 
#
# Total GULP energy -100414.573866 kJ/mol
# GULP energy per Si atom -5578.587437 kJ/mol
# Density = 2.025492 g / cm^3
# Si number density = 20.301125 Si / 1000 Ang^3
#
#
#
# Elastic Constant Matrix: (Units=GPa)
#
#
# Indices 1 2 3 4 5 6 
#
# 1 101.9270 21.6994 11.2044 0.0000 0.0000 0.0000
# 2 21.6994 77.4903 21.0459 0.0000 0.0000 0.0000
# 3 11.2044 21.0459 33.7342 0.0000 0.0000 0.0000
# 4 0.0000 0.0000 0.0000 20.3485 0.0000 0.0000
# 5 0.0000 0.0000 0.0000 0.0000 33.2719 0.0000
# 6 0.0000 0.0000 0.0000 0.0000 0.0000 25.6890
#
#
#
# Elastic Compliance Matrix: (Units=1/GPa)
#
#
# Indices 1 2 3 4 5 6 
#
# 1 0.010544 -0.002410 -0.001999 0.000000 0.000000 0.000000
# 2 -0.002410 0.016088 -0.009237 0.000000 0.000000 0.000000
# 3 -0.001999 -0.009237 0.036070 0.000000 0.000000 0.000000
# 4 0.000000 0.000000 0.000000 0.049144 0.000000 0.000000
# 5 0.000000 0.000000 0.000000 0.000000 0.030055 0.000000
# 6 0.000000 0.000000 0.000000 0.000000 0.000000 0.038927
#
#
# Mechanical properties :
#
#
# Convention : Reuss Voigt Hill
#
# Bulk Modulus (GPa) = 28.23919 35.67234 31.95577
# Shear Modulus (GPa) = 22.73532 26.47532 24.60532
#
# Velocity S-wave (km/s) = 3.35013 3.61519 3.48518
# Velocity P-wave (km/s) = 5.37632 5.91911 5.65423
#
# Compressibility (1/GPa) = 0.03541178
#
# Stress axis : x y z
#
# Youngs Moduli (GPa) = 94.84389 62.15712 27.72391
#
# Poissons Ratio (x) = 0.14978 0.05541
# Poissons Ratio (y) = 0.22854 0.25608
# Poissons Ratio (z) = 0.18956 0.57413
#
# Static dielectric constant tensor:
#      x y z
#    x 1.716120 0.000000 0.000000 
#    y 0.000000 1.688910 0.000000 
#    z 0.000000 0.000000 1.711720 
# 
# From -- ./inp_files/1190.got.cif
#   From: 2010.05.17/outbox.cif.g08.bks.cpg/sg20_1_cif.got.tgz:1190.got - 2010.06.03 22:52:26.
