data_PCOD9320789
_publ_section_title
;
Structure prediction by ZEFSAII (Michael W. Deem and Ramdas Pophale) SiO2 
 PCOD9320789
Probable space group: C 2 2 21
;
_chemical_formula_sum "Si O2"
_cell_formula_units_Z 32
_cell_length_a 5.199105
_cell_length_b 9.371123
_cell_length_c 27.376036
_cell_angle_alpha 90.000000
_cell_angle_beta 90.000000
_cell_angle_gamma 90.000000
_cell_volume 1333.800236
_symmetry_space_group_name_H-M "C 2 2 21"
_symmetry_group_IT_number 20
_symmetry_cell_setting 'orthorhombic'
loop_
_space_group_symop_operation_xyz
x,y,z
-x,-y,1/2+z
x,-y,-z
-x,y,1/2-z
1/2+x,1/2+y,z
1/2-x,1/2-y,1/2+z
1/2+x,1/2-y,-z
1/2-x,1/2+y,1/2-z
loop_
_atom_site_type_symbol
_atom_site_label
_atom_site_fract_x
_atom_site_fract_y
_atom_site_fract_z
Si Si1 0.375606 0.336392 0.481902
Si Si2 0.440399 0.935425 0.362871
Si Si3 0.912900 0.283370 0.889087
Si Si4 0.051738 0.885263 0.193098
O O1 0.381877 0.500000 0.500000
O O2 0.115425 0.255011 0.496576
O O3 0.428554 0.320693 0.424055
O O4 0.371838 0.782706 0.387565
O O5 0.167716 0.971976 0.336642
O O6 0.662333 0.923868 0.322729
O O7 0.527676 0.054600 0.401323
O O8 0.000723 0.267237 0.832670
O O9 0.000000 0.889238 0.250000
#
# Coordination Sequence:
#
# PCOD9320789 Si02
#       4
#     8   8   8   8
#     4  12  28  46  76 107 144 187 243 296 364 429
#     4  10  24  40  70  95 139 177 229 283 355 412
#     4  10  26  43  72  97 143 180 235 291 356 422
#     4  10  24  42  68 100 137 183 233 288 351 419
#
# _framework density 23.991599000000001
#
# number of rings (size 3 to 8) (size 9 to 14) (size 15 to 20)
#    1.500    0.000    0.000    3.000   10.500    2.000 
#    0.000    0.000    0.000    0.000    0.000    0.000 
#    0.000    0.000    0.000    0.000    0.000    0.000 
#
# Total GULP energy -89234.862491 kJ/mol
# GULP energy per Si atom -5577.178906 kJ/mol
# Density = 2.393699 g / cm^3
# Si number density = 23.991599 Si / 1000 Ang^3
#
#
#
# Elastic Constant Matrix: (Units=GPa)
#
#
# Indices 1 2 3 4 5 6 
#
# 1 151.3016 70.7516 50.5497 0.0000 0.0000 0.0000
# 2 70.7516 127.3013 13.7626 0.0000 0.0000 0.0000
# 3 50.5497 13.7626 86.3066 0.0000 0.0000 0.0000
# 4 0.0000 0.0000 0.0000 21.4507 0.0000 0.0000
# 5 0.0000 0.0000 0.0000 0.0000 32.7625 0.0000
# 6 0.0000 0.0000 0.0000 0.0000 0.0000 35.6759
#
#
#
# Elastic Compliance Matrix: (Units=1/GPa)
#
#
# Indices 1 2 3 4 5 6 
#
# 1 0.011077 -0.005550 -0.005602 0.000000 0.000000 0.000000
# 2 -0.005550 0.010775 0.001533 0.000000 0.000000 0.000000
# 3 -0.005602 0.001533 0.014624 0.000000 0.000000 0.000000
# 4 0.000000 0.000000 0.000000 0.046619 0.000000 0.000000
# 5 0.000000 0.000000 0.000000 0.000000 0.030523 0.000000
# 6 0.000000 0.000000 0.000000 0.000000 0.000000 0.028030
#
#
# Mechanical properties :
#
#
# Convention : Reuss Voigt Hill
#
# Bulk Modulus (GPa) = 58.02368 70.55969 64.29168
# Shear Modulus (GPa) = 30.00639 33.30086 31.65363
#
# Velocity S-wave (km/s) = 3.54037 3.72966 3.63624
# Velocity P-wave (km/s) = 6.39920 6.92973 6.66974
#
# Compressibility (1/GPa) = 0.01723434
#
# Stress axis : x y z
#
# Youngs Moduli (GPa) = 90.28034 92.81160 68.38292
#
# Poissons Ratio (x) = 0.51515 0.38311
# Poissons Ratio (y) = 0.50110 -0.10482
# Poissons Ratio (z) = 0.50579 -0.14226
#
# Static dielectric constant tensor:
#      x y z
#    x 1.913810 0.000000 0.000000 
#    y 0.000000 2.022220 0.000000 
#    z 0.000000 0.000000 1.945890 
# 
# From -- ./inp_files/30593.got.cif
#   From: 2010.05.17/outbox.cif.g08.bks.cpg/sg20_16_cif.got.tgz:30593.got - 2010.06.03 22:52:26.
