data_PCOD9320556
_publ_section_title
;
Structure prediction by ZEFSAII (Michael W. Deem and Ramdas Pophale) SiO2 
 PCOD9320556
Probable space group: C 2 2 21
;
_chemical_formula_sum "Si O2"
_cell_formula_units_Z 40
_cell_length_a 24.596194
_cell_length_b 7.641508
_cell_length_c 8.913519
_cell_angle_alpha 90.000000
_cell_angle_beta 90.000000
_cell_angle_gamma 90.000000
_cell_volume 1675.313841
_symmetry_space_group_name_H-M "C 2 2 21"
_symmetry_group_IT_number 20
_symmetry_cell_setting 'orthorhombic'
loop_
_space_group_symop_operation_xyz
x,y,z
-x,-y,1/2+z
x,-y,-z
-x,y,1/2-z
1/2+x,1/2+y,z
1/2-x,1/2-y,1/2+z
1/2+x,1/2-y,-z
1/2-x,1/2+y,1/2-z
loop_
_atom_site_type_symbol
_atom_site_label
_atom_site_fract_x
_atom_site_fract_y
_atom_site_fract_z
Si Si1 0.807007 0.695892 0.475616
Si Si2 0.605313 0.774113 0.767620
Si Si3 0.797779 0.000000 0.000000
Si Si4 0.049417 0.792619 0.540174
Si Si5 0.874387 0.906404 0.720764
Si Si6 0.538841 0.000000 0.000000
O O1 0.826814 0.500000 0.500000
O O2 0.830426 0.724071 0.309339
O O3 0.743011 0.668790 0.500857
O O4 0.837430 0.821195 0.592430
O O5 0.587227 0.778039 0.596371
O O6 0.591746 0.577899 0.826791
O O7 0.573269 0.916735 0.863720
O O8 0.835025 0.969093 0.856301
O O9 0.083307 0.783782 0.693764
O O10 0.998643 0.664175 0.546884
O O11 0.038889 0.000000 0.500000
#
# Coordination Sequence:
#
# PCOD9320556 Si02
#       6
#     8   8   4   8   8   4
#     4  10  25  40  71 109 141 189 237 305 361 443
#     4  11  23  48  67 106 152 184 244 304 368 438
#     4  10  23  42  74 104 148 186 257 288 376 446
#     4  10  25  46  75 104 146 200 246 306 373 440
#     4  11  23  48  73 102 150 197 239 312 371 433
#     4  12  25  42  78 112 142 190 249 306 366 452
#
# _framework density 23.876124000000001
#
# number of rings (size 3 to 8) (size 9 to 14) (size 15 to 20)
#    0.600    0.800    4.000    1.200    5.600    3.200 
#    0.000    4.000    0.000    0.000    0.000    0.000 
#    0.000    0.000    0.000    0.000    0.000    0.000 
#
# Total GULP energy -111550.467995 kJ/mol
# GULP energy per Si atom -5577.523400 kJ/mol
# Density = 2.382178 g / cm^3
# Si number density = 23.876124 Si / 1000 Ang^3
#
#
#
# Elastic Constant Matrix: (Units=GPa)
#
#
# Indices 1 2 3 4 5 6 
#
# 1 100.2364 46.0150 42.2326 0.0000 0.0000 0.0000
# 2 46.0150 119.0039 58.8888 0.0000 0.0000 0.0000
# 3 42.2326 58.8888 83.6631 0.0000 0.0000 0.0000
# 4 0.0000 0.0000 0.0000 48.8853 0.0000 0.0000
# 5 0.0000 0.0000 0.0000 0.0000 43.5967 0.0000
# 6 0.0000 0.0000 0.0000 0.0000 0.0000 51.3384
#
#
#
# Elastic Compliance Matrix: (Units=1/GPa)
#
#
# Indices 1 2 3 4 5 6 
#
# 1 0.013246 -0.002782 -0.004728 0.000000 0.000000 0.000000
# 2 -0.002782 0.013479 -0.008083 0.000000 0.000000 0.000000
# 3 -0.004728 -0.008083 0.020029 0.000000 0.000000 0.000000
# 4 0.000000 0.000000 0.000000 0.020456 0.000000 0.000000
# 5 0.000000 0.000000 0.000000 0.000000 0.022937 0.000000
# 6 0.000000 0.000000 0.000000 0.000000 0.000000 0.019479
#
#
# Mechanical properties :
#
#
# Convention : Reuss Voigt Hill
#
# Bulk Modulus (GPa) = 64.23878 66.35292 65.29585
# Shear Modulus (GPa) = 34.24643 39.14854 36.69748
#
# Velocity S-wave (km/s) = 3.79137 4.05365 3.92471
# Velocity P-wave (km/s) = 6.79187 7.05410 6.92422
#
# Compressibility (1/GPa) = 0.01556692
#
# Stress axis : x y z
#
# Youngs Moduli (GPa) = 75.49665 74.19136 49.92779
#
# Poissons Ratio (x) = 0.20640 0.23607
# Poissons Ratio (y) = 0.21003 0.40357
# Poissons Ratio (z) = 0.35696 0.59969
#
# Static dielectric constant tensor:
#      x y z
#    x 1.960970 0.000000 0.000000 
#    y 0.000000 1.785580 0.000000 
#    z 0.000000 0.000000 1.916740 
# 
# From -- ./inp_files/10998.got.cif
#   From: 2010.05.17/outbox.cif.g08.bks.cpg/sg20_6_cif.got.tgz:10998.got - 2010.06.03 22:52:26.
