data_PCOD9320730
_publ_section_title
;
Structure prediction by ZEFSAII (Michael W. Deem and Ramdas Pophale) SiO2 
 PCOD9320730
Probable space group: C 2 2 21
;
_chemical_formula_sum "Si O2"
_cell_formula_units_Z 40
_cell_length_a 26.086025
_cell_length_b 8.902508
_cell_length_c 7.501725
_cell_angle_alpha 90.000000
_cell_angle_beta 90.000000
_cell_angle_gamma 90.000000
_cell_volume 1742.133445
_symmetry_space_group_name_H-M "C 2 2 21"
_symmetry_group_IT_number 20
_symmetry_cell_setting 'orthorhombic'
loop_
_space_group_symop_operation_xyz
x,y,z
-x,-y,1/2+z
x,-y,-z
-x,y,1/2-z
1/2+x,1/2+y,z
1/2-x,1/2-y,1/2+z
1/2+x,1/2-y,-z
1/2-x,1/2+y,1/2-z
loop_
_atom_site_type_symbol
_atom_site_label
_atom_site_fract_x
_atom_site_fract_y
_atom_site_fract_z
Si Si1 0.905520 0.161441 0.526278
Si Si2 0.867823 0.311093 0.161427
Si Si3 0.942265 0.553166 0.301338
Si Si4 0.279032 0.998333 0.301425
Si Si5 0.820994 0.184845 0.813140
O O1 0.891294 0.219292 0.327814
O O2 0.936896 0.270121 0.660126
O O3 0.852808 0.151171 0.635617
O O4 0.930511 0.000000 0.500000
O O5 0.903003 0.463071 0.175644
O O6 0.810918 0.372349 0.198871
O O7 0.859342 0.784816 0.019267
O O8 0.930029 0.500000 0.500000
O O9 0.000000 0.513541 0.250000
O O10 0.289816 0.159238 0.215185
O O11 0.302209 0.000000 0.500000
O O12 0.220755 0.946704 0.322350
#
# Coordination Sequence:
#
# PCOD9320730 Si02
#       5
#     8   8   8   8   8
#     4  11  26  46  67 103 149 182 232 304 355 430
#     4  11  24  47  68 106 140 187 244 302 350 432
#     4  10  23  46  80 108 138 181 243 303 364 433
#     4  12  24  43  61 100 141 187 245 296 343 426
#     4  12  27  42  71  95 147 198 242 289 364 423
#
# _framework density 22.960356000000001
#
# number of rings (size 3 to 8) (size 9 to 14) (size 15 to 20)
#    0.000    0.800    4.000    2.400    8.400    0.000 
#    0.000    4.000    0.000    0.000    0.000    0.000 
#    0.000    0.000    0.000    0.000    0.000    0.000 
#
# Total GULP energy -111637.488421 kJ/mol
# GULP energy per Si atom -5581.874421 kJ/mol
# Density = 2.290810 g / cm^3
# Si number density = 22.960356 Si / 1000 Ang^3
#
#
#
# Elastic Constant Matrix: (Units=GPa)
#
#
# Indices 1 2 3 4 5 6 
#
# 1 62.1485 17.2563 26.7237 0.0000 0.0000 0.0000
# 2 17.2563 41.2688 16.1984 0.0000 0.0000 0.0000
# 3 26.7237 16.1984 150.9041 0.0000 0.0000 0.0000
# 4 0.0000 0.0000 0.0000 23.9044 0.0000 0.0000
# 5 0.0000 0.0000 0.0000 0.0000 52.1895 0.0000
# 6 0.0000 0.0000 0.0000 0.0000 0.0000 20.3839
#
#
#
# Elastic Compliance Matrix: (Units=1/GPa)
#
#
# Indices 1 2 3 4 5 6 
#
# 1 0.019165 -0.006975 -0.002645 0.000000 0.000000 0.000000
# 2 -0.006975 0.027836 -0.001753 0.000000 0.000000 0.000000
# 3 -0.002645 -0.001753 0.007283 0.000000 0.000000 0.000000
# 4 0.000000 0.000000 0.000000 0.041833 0.000000 0.000000
# 5 0.000000 0.000000 0.000000 0.000000 0.019161 0.000000
# 6 0.000000 0.000000 0.000000 0.000000 0.000000 0.049058
#
#
# Mechanical properties :
#
#
# Convention : Reuss Voigt Hill
#
# Bulk Modulus (GPa) = 31.70814 41.63089 36.66951
# Shear Modulus (GPa) = 25.30420 32.23842 28.77131
#
# Velocity S-wave (km/s) = 3.32336 3.75118 3.54374
# Velocity P-wave (km/s) = 5.34474 6.07724 5.72272
#
# Compressibility (1/GPa) = 0.03153764
#
# Stress axis : x y z
#
# Youngs Moduli (GPa) = 52.17925 35.92463 137.30045
#
# Poissons Ratio (x) = 0.25059 0.36318
# Poissons Ratio (y) = 0.36397 0.24065
# Poissons Ratio (z) = 0.13802 0.06297
#
# Static dielectric constant tensor:
#      x y z
#    x 1.823120 0.000000 0.000000 
#    y 0.000000 1.947700 0.000000 
#    z 0.000000 0.000000 1.889210 
# 
# From -- ./inp_files/11340.got.cif
#   From: 2010.05.17/outbox.cif.g08.bks.cpg/sg20_6_cif.got.tgz:11340.got - 2010.06.03 22:52:26.
