data_PCOD9320107
_publ_section_title
;
Structure prediction by ZEFSAII (Michael W. Deem and Ramdas Pophale) SiO2 
 PCOD9320107
Probable space group: C 2 2 21
;
_chemical_formula_sum "Si O2"
_cell_formula_units_Z 56
_cell_length_a 13.801777
_cell_length_b 14.424272
_cell_length_c 11.953172
_cell_angle_alpha 90.000000
_cell_angle_beta 90.000000
_cell_angle_gamma 90.000000
_cell_volume 2379.644481
_symmetry_space_group_name_H-M "C 2 2 21"
_symmetry_group_IT_number 20
_symmetry_cell_setting 'orthorhombic'
loop_
_space_group_symop_operation_xyz
x,y,z
-x,-y,1/2+z
x,-y,-z
-x,y,1/2-z
1/2+x,1/2+y,z
1/2-x,1/2-y,1/2+z
1/2+x,1/2-y,-z
1/2-x,1/2+y,1/2-z
loop_
_atom_site_type_symbol
_atom_site_label
_atom_site_fract_x
_atom_site_fract_y
_atom_site_fract_z
Si Si1 0.349152 0.207055 0.130669
Si Si2 0.498762 0.599120 0.001039
Si Si3 0.296603 0.546875 0.390222
Si Si4 0.500000 0.944101 0.250000
Si Si5 0.000000 0.177866 0.750000
Si Si6 0.792555 0.510432 0.315520
Si Si7 0.502662 0.802060 0.454343
Si Si8 0.213830 0.652476 0.996381
O O1 0.267341 0.132225 0.152196
O O2 0.403979 0.259569 0.230065
O O3 0.434798 0.162036 0.058080
O O4 0.294569 0.279045 0.049319
O O5 0.597916 0.575620 0.067886
O O6 0.466771 0.694199 0.061889
O O7 0.442495 0.500000 0.000000
O O8 0.510295 0.624767 0.869058
O O9 0.250789 0.500000 0.500000
O O10 0.285841 0.484772 0.280207
O O11 0.514984 0.873283 0.353563
O O12 0.402887 0.004320 0.268289
O O13 0.790452 0.429375 0.406258
O O14 0.771501 0.603812 0.384781
O O15 0.390587 0.798907 0.489828
#
# Coordination Sequence:
#
# PCOD9320107 Si02
#       8
#     8   8   8   4   4   8   8   8
#     4  11  24  42  70  97 134 186 229 292 346 428
#     4  10  23  44  66  99 139 179 236 290 334 426
#     4  11  24  39  66 105 136 178 229 290 352 411
#     4  10  22  42  70 100 142 176 232 304 350 424
#     4  10  26  46  70  96 134 188 240 284 352 424
#     4  10  24  42  68 100 135 187 228 293 359 416
#     4  10  22  43  64 102 134 181 235 282 350 419
#     4  10  23  46  67  96 142 181 235 284 358 428
#
# _framework density 23.532927999999998
#
# number of rings (size 3 to 8) (size 9 to 14) (size 15 to 20)
#    0.000    1.714    1.429    0.857   10.000    1.714 
#   10.286    0.000    0.000    0.000    0.000    0.000 
#    0.000    0.000    0.000    0.000    0.000    0.000 
#
# Total GULP energy -156322.444504 kJ/mol
# GULP energy per Si atom -5582.944447 kJ/mol
# Density = 2.347937 g / cm^3
# Si number density = 23.532928 Si / 1000 Ang^3
#
#
#
# Elastic Constant Matrix: (Units=GPa)
#
#
# Indices 1 2 3 4 5 6 
#
# 1 82.6673 -6.6235 3.0606 0.0000 0.0000 0.0000
# 2 -6.6235 59.3706 8.1811 0.0000 0.0000 0.0000
# 3 3.0606 8.1811 114.0684 0.0000 0.0000 0.0000
# 4 0.0000 0.0000 0.0000 28.8884 0.0000 0.0000
# 5 0.0000 0.0000 0.0000 0.0000 33.0172 0.0000
# 6 0.0000 0.0000 0.0000 0.0000 0.0000 84.1301
#
#
#
# Elastic Compliance Matrix: (Units=1/GPa)
#
#
# Indices 1 2 3 4 5 6 
#
# 1 0.012227 0.001423 -0.000430 0.000000 0.000000 0.000000
# 2 0.001423 0.017177 -0.001270 0.000000 0.000000 0.000000
# 3 -0.000430 -0.001270 0.008869 0.000000 0.000000 0.000000
# 4 0.000000 0.000000 0.000000 0.034616 0.000000 0.000000
# 5 0.000000 0.000000 0.000000 0.000000 0.030287 0.000000
# 6 0.000000 0.000000 0.000000 0.000000 0.000000 0.011886
#
#
# Mechanical properties :
#
#
# Convention : Reuss Voigt Hill
#
# Bulk Modulus (GPa) = 26.51176 29.48253 27.99715
# Shear Modulus (GPa) = 39.00470 45.97302 42.48886
#
# Velocity S-wave (km/s) = 4.07560 4.42471 4.25374
# Velocity P-wave (km/s) = 5.78253 6.21767 6.00404
#
# Compressibility (1/GPa) = 0.03771911
#
# Stress axis : x y z
#
# Youngs Moduli (GPa) = 81.78856 58.21687 112.74837
#
# Poissons Ratio (x) = -0.08286 0.04850
# Poissons Ratio (y) = -0.11641 0.14321
# Poissons Ratio (z) = 0.03518 0.07394
#
# Static dielectric constant tensor:
#      x y z
#    x 1.929520 0.000000 0.000000 
#    y 0.000000 2.005090 0.000000 
#    z 0.000000 0.000000 0.996040 
# 
# From -- ./inp_files/15165.got.cif
#   From: 2010.05.17/outbox.cif.g08.bks.cpg/sg20_8_cif.got.tgz:15165.got - 2010.06.03 22:52:26.
