data_PCOD9320386
_publ_section_title
;
Structure prediction by ZEFSAII (Michael W. Deem and Ramdas Pophale) SiO2 
 PCOD9320386
Probable space group: C 2 2 21
;
_chemical_formula_sum "Si O2"
_cell_formula_units_Z 48
_cell_length_a 8.200632
_cell_length_b 17.756911
_cell_length_c 15.597837
_cell_angle_alpha 90.000000
_cell_angle_beta 90.000000
_cell_angle_gamma 90.000000
_cell_volume 2271.324153
_symmetry_space_group_name_H-M "C 2 2 21"
_symmetry_group_IT_number 20
_symmetry_cell_setting 'orthorhombic'
loop_
_space_group_symop_operation_xyz
x,y,z
-x,-y,1/2+z
x,-y,-z
-x,y,1/2-z
1/2+x,1/2+y,z
1/2-x,1/2-y,1/2+z
1/2+x,1/2-y,-z
1/2-x,1/2+y,1/2-z
loop_
_atom_site_type_symbol
_atom_site_label
_atom_site_fract_x
_atom_site_fract_y
_atom_site_fract_z
Si Si1 0.325356 0.328281 0.731741
Si Si2 0.365560 0.806482 0.599879
Si Si3 0.647017 0.191940 0.903270
Si Si4 0.521126 0.341065 0.350759
Si Si5 0.111102 0.569784 0.385289
Si Si6 0.318828 0.098380 0.920798
O O1 0.500000 0.364524 0.750000
O O2 0.259123 0.297612 0.822252
O O3 0.350096 0.260668 0.663770
O O4 0.202390 0.388255 0.691282
O O5 0.314340 0.788674 0.502875
O O6 0.506730 0.746536 0.621083
O O7 0.434623 0.891250 0.605461
O O8 0.466442 0.156124 0.902383
O O9 0.795812 0.136329 0.876772
O O10 0.500000 0.346015 0.250000
O O11 0.361231 0.379677 0.389995
O O12 0.122620 0.480444 0.379815
O O13 0.192682 0.589641 0.476618
#
# Coordination Sequence:
#
# PCOD9320386 Si02
#       6
#     8   8   8   8   8   8
#     4  12  24  40  68 102 132 174 227 272 328 401
#     4  11  23  43  68  97 133 177 220 275 332 389
#     4  11  25  43  70 100 134 175 226 275 330 395
#     4  12  23  42  67  99 135 166 223 277 325 390
#     4  10  22  48  65  92 137 173 219 274 337 392
#     4  10  25  45  70  95 132 180 216 276 339 391
#
# _framework density 21.133047000000001
#
# number of rings (size 3 to 8) (size 9 to 14) (size 15 to 20)
#    0.000    1.000    3.333    2.500    7.000    0.667 
#    9.000    1.667    0.000    0.000    0.000    0.000 
#    0.000    0.000    0.000    0.000    0.000    0.000 
#
# Total GULP energy -134045.345997 kJ/mol
# GULP energy per Si atom -5585.222750 kJ/mol
# Density = 2.108495 g / cm^3
# Si number density = 21.133047 Si / 1000 Ang^3
#
#
#
# Elastic Constant Matrix: (Units=GPa)
#
#
# Indices 1 2 3 4 5 6 
#
# 1 67.5242 -8.2916 31.5105 0.0000 0.0000 0.0000
# 2 -8.2916 56.5323 16.2860 0.0000 0.0000 0.0000
# 3 31.5105 16.2860 145.7874 0.0000 0.0000 0.0000
# 4 0.0000 0.0000 0.0000 17.9083 0.0000 0.0000
# 5 0.0000 0.0000 0.0000 0.0000 40.0428 0.0000
# 6 0.0000 0.0000 0.0000 0.0000 0.0000 21.8626
#
#
#
# Elastic Compliance Matrix: (Units=1/GPa)
#
#
# Indices 1 2 3 4 5 6 
#
# 1 0.017193 0.003712 -0.004131 0.000000 0.000000 0.000000
# 2 0.003712 0.019078 -0.002934 0.000000 0.000000 0.000000
# 3 -0.004131 -0.002934 0.008080 0.000000 0.000000 0.000000
# 4 0.000000 0.000000 0.000000 0.055840 0.000000 0.000000
# 5 0.000000 0.000000 0.000000 0.000000 0.024973 0.000000
# 6 0.000000 0.000000 0.000000 0.000000 0.000000 0.045740
#
#
# Mechanical properties :
#
#
# Convention : Reuss Voigt Hill
#
# Bulk Modulus (GPa) = 26.56315 38.76151 32.66233
# Shear Modulus (GPa) = 26.29384 31.31868 28.80626
#
# Velocity S-wave (km/s) = 3.53116 3.85382 3.69601
# Velocity P-wave (km/s) = 5.40575 6.17933 5.80544
#
# Compressibility (1/GPa) = 0.03764613
#
# Stress axis : x y z
#
# Youngs Moduli (GPa) = 58.16354 52.41504 123.76517
#
# Poissons Ratio (x) = -0.19455 0.51124
# Poissons Ratio (y) = -0.21588 0.36307
# Poissons Ratio (z) = 0.24026 0.15376
#
# Static dielectric constant tensor:
#      x y z
#    x 1.818080 0.000000 0.000000 
#    y 0.000000 1.775210 0.000000 
#    z 0.000000 0.000000 1.777020 
# 
# From -- ./inp_files/18912.got.cif
#   From: 2010.05.17/outbox.cif.g08.bks.cpg/sg20_10_cif.got.tgz:18912.got - 2010.06.03 22:52:26.
