data_PCOD9320524
_publ_section_title
;
Structure prediction by ZEFSAII (Michael W. Deem and Ramdas Pophale) SiO2 
 PCOD9320524
Probable space group: C 2 2 21
;
_chemical_formula_sum "Si O2"
_cell_formula_units_Z 28
_cell_length_a 11.812992
_cell_length_b 7.776861
_cell_length_c 16.157169
_cell_angle_alpha 90.000000
_cell_angle_beta 90.000000
_cell_angle_gamma 90.000000
_cell_volume 1484.326750
_symmetry_space_group_name_H-M "C 2 2 21"
_symmetry_group_IT_number 20
_symmetry_cell_setting 'orthorhombic'
loop_
_space_group_symop_operation_xyz
x,y,z
-x,-y,1/2+z
x,-y,-z
-x,y,1/2-z
1/2+x,1/2+y,z
1/2-x,1/2-y,1/2+z
1/2+x,1/2-y,-z
1/2-x,1/2+y,1/2-z
loop_
_atom_site_type_symbol
_atom_site_label
_atom_site_fract_x
_atom_site_fract_y
_atom_site_fract_z
Si Si1 0.760984 0.650774 0.355557
Si Si2 0.879964 0.000000 0.000000
Si Si3 0.002742 0.334631 0.940656
Si Si4 0.117497 0.472217 0.295857
O O1 0.696929 0.525715 0.418977
O O2 0.876263 0.709225 0.400714
O O3 0.800635 0.557192 0.271971
O O4 0.679809 0.809259 0.334712
O O5 0.953882 0.829148 0.012048
O O6 0.918922 0.393978 0.867019
O O7 0.015287 0.500000 0.000000
O O8 0.000000 0.422271 0.250000
#
# Coordination Sequence:
#
# PCOD9320524 Si02
#       4
#     8   4   8   8
#     4  11  23  42  65  96 130 170 217 263 326 380
#     4  12  24  38  68  96 128 174 216 260 330 378
#     4  11  23  42  63  96 130 165 214 270 313 383
#     4  10  23  42  66  91 133 168 215 269 314 386
#
# _framework density 18.863769999999999
#
# number of rings (size 3 to 8) (size 9 to 14) (size 15 to 20)
#    0.000    1.143    4.286    1.714    0.000    4.571 
#    0.000    0.000    0.000    0.000    0.000    0.000 
#    0.000    0.000    0.000    0.000    0.000    0.000 
#
# Total GULP energy -78244.272243 kJ/mol
# GULP energy per Si atom -5588.876589 kJ/mol
# Density = 1.882084 g / cm^3
# Si number density = 18.863770 Si / 1000 Ang^3
#
#
#
# Elastic Constant Matrix: (Units=GPa)
#
#
# Indices 1 2 3 4 5 6 
#
# 1 70.2204 66.7826 31.9627 0.0000 0.0000 0.0000
# 2 66.7826 104.9344 44.5012 0.0000 0.0000 0.0000
# 3 31.9627 44.5012 92.5197 0.0000 0.0000 0.0000
# 4 0.0000 0.0000 0.0000 35.8508 0.0000 0.0000
# 5 0.0000 0.0000 0.0000 0.0000 41.4000 0.0000
# 6 0.0000 0.0000 0.0000 0.0000 0.0000 17.2749
#
#
#
# Elastic Compliance Matrix: (Units=1/GPa)
#
#
# Indices 1 2 3 4 5 6 
#
# 1 0.036313 -0.022349 -0.001795 0.000000 0.000000 0.000000
# 2 -0.022349 0.025727 -0.004653 0.000000 0.000000 0.000000
# 3 -0.001795 -0.004653 0.013667 0.000000 0.000000 0.000000
# 4 0.000000 0.000000 0.000000 0.027893 0.000000 0.000000
# 5 0.000000 0.000000 0.000000 0.000000 0.024155 0.000000
# 6 0.000000 0.000000 0.000000 0.000000 0.000000 0.057887
#
#
# Mechanical properties :
#
#
# Convention : Reuss Voigt Hill
#
# Bulk Modulus (GPa) = 55.21478 61.57418 58.39448
# Shear Modulus (GPa) = 20.05825 27.20034 23.62929
#
# Velocity S-wave (km/s) = 3.26440 3.80140 3.54309
# Velocity P-wave (km/s) = 6.59865 7.20971 6.91094
#
# Compressibility (1/GPa) = 0.01811109
#
# Stress axis : x y z
#
# Youngs Moduli (GPa) = 27.53849 38.87037 73.16908
#
# Poissons Ratio (x) = 0.86871 0.13136
# Poissons Ratio (y) = 0.61546 0.34048
# Poissons Ratio (z) = 0.04944 0.18088
#
# Static dielectric constant tensor:
#      x y z
#    x 1.633430 0.000000 0.000000 
#    y 0.000000 1.614640 0.000000 
#    z 0.000000 0.000000 1.658830 
# 
# From -- ./inp_files/18095.got.cif
#   From: 2010.05.17/outbox.cif.g08.bks.cpg/sg20_10_cif.got.tgz:18095.got - 2010.06.03 22:52:26.
