data_PCOD9320441
_publ_section_title
;
Structure prediction by ZEFSAII (Michael W. Deem and Ramdas Pophale) SiO2 
 PCOD9320441
Probable space group: C 2 2 21
;
_chemical_formula_sum "Si O2"
_cell_formula_units_Z 56
_cell_length_a 14.042418
_cell_length_b 5.347269
_cell_length_c 29.816283
_cell_angle_alpha 90.000000
_cell_angle_beta 90.000000
_cell_angle_gamma 90.000000
_cell_volume 2238.862544
_symmetry_space_group_name_H-M "C 2 2 21"
_symmetry_group_IT_number 20
_symmetry_cell_setting 'orthorhombic'
loop_
_space_group_symop_operation_xyz
x,y,z
-x,-y,1/2+z
x,-y,-z
-x,y,1/2-z
1/2+x,1/2+y,z
1/2-x,1/2-y,1/2+z
1/2+x,1/2-y,-z
1/2-x,1/2+y,1/2-z
loop_
_atom_site_type_symbol
_atom_site_label
_atom_site_fract_x
_atom_site_fract_y
_atom_site_fract_z
Si Si1 0.325589 0.655670 0.354482
Si Si2 0.114245 0.706303 0.754988
Si Si3 0.115219 0.358902 0.624921
Si Si4 0.407212 0.302159 0.219444
Si Si5 0.144335 0.948906 0.550153
Si Si6 0.999703 0.413211 0.047919
Si Si7 0.833342 0.676443 0.409137
O O1 0.364511 0.697289 0.304785
O O2 0.215656 0.566721 0.353397
O O3 0.369153 0.429941 0.384665
O O4 0.329226 0.933056 0.376490
O O5 0.149384 0.430705 0.741140
O O6 0.000000 0.671881 0.750000
O O7 0.143946 0.929798 0.721564
O O8 0.063071 0.252806 0.668585
O O9 0.047870 0.538418 0.596962
O O10 0.143255 0.170311 0.585427
O O11 0.500000 0.334714 0.250000
O O12 0.032881 0.872986 0.545972
O O13 0.228170 0.771658 0.570125
O O14 0.176978 0.000000 0.500000
O O15 0.097430 0.563774 0.052393
O O16 0.955149 0.500000 0.000000
#
# Coordination Sequence:
#
# PCOD9320441 Si02
#       7
#     8   8   8   8   8   8   8
#     4  11  25  47  70 111 143 199 247 313 381 462
#     4  10  23  40  65  96 141 183 237 303 370 442
#     4  11  26  44  74 102 148 196 249 311 387 457
#     4  10  24  41  66 102 136 188 237 307 369 445
#     4  11  24  49  72 109 155 201 251 328 386 459
#     4  12  26  45  74 110 145 201 254 313 383 463
#     4  11  27  44  77 108 150 195 256 307 383 461
#
# _framework density 25.012699999999999
#
# number of rings (size 3 to 8) (size 9 to 14) (size 15 to 20)
#    0.000    1.143    2.857    1.286   12.000    1.143 
#    0.000    1.429    0.000    0.000    0.000    0.000 
#    0.000    0.000    0.000    0.000    0.000    0.000 
#
# Total GULP energy -155986.576130 kJ/mol
# GULP energy per Si atom -5570.949147 kJ/mol
# Density = 2.495577 g / cm^3
# Si number density = 25.012700 Si / 1000 Ang^3
#
#
#
# Elastic Constant Matrix: (Units=GPa)
#
#
# Indices 1 2 3 4 5 6 
#
# 1 80.8286 -9.3141 7.7863 0.0000 0.0000 0.0000
# 2 -9.3141 88.4537 -0.7771 0.0000 0.0000 0.0000
# 3 7.7863 -0.7771 132.9040 0.0000 0.0000 0.0000
# 4 0.0000 0.0000 0.0000 35.6355 0.0000 0.0000
# 5 0.0000 0.0000 0.0000 0.0000 9.6580 0.0000
# 6 0.0000 0.0000 0.0000 0.0000 0.0000 20.9285
#
#
#
# Elastic Compliance Matrix: (Units=1/GPa)
#
#
# Indices 1 2 3 4 5 6 
#
# 1 0.012594 0.001320 -0.000730 0.000000 0.000000 0.000000
# 2 0.001320 0.011444 -0.000010 0.000000 0.000000 0.000000
# 3 -0.000730 -0.000010 0.007567 0.000000 0.000000 0.000000
# 4 0.000000 0.000000 0.000000 0.028062 0.000000 0.000000
# 5 0.000000 0.000000 0.000000 0.000000 0.103541 0.000000
# 6 0.000000 0.000000 0.000000 0.000000 0.000000 0.047782
#
#
# Mechanical properties :
#
#
# Convention : Reuss Voigt Hill
#
# Bulk Modulus (GPa) = 30.52143 33.06406 31.79274
# Shear Modulus (GPa) = 22.64975 33.54382 28.09679
#
# Velocity S-wave (km/s) = 3.01247 3.66604 3.35520
# Velocity P-wave (km/s) = 4.93242 5.58278 5.26765
#
# Compressibility (1/GPa) = 0.03276387
#
# Stress axis : x y z
#
# Youngs Moduli (GPa) = 79.40116 87.38035 132.15378
#
# Poissons Ratio (x) = -0.11532 0.09649
# Poissons Ratio (y) = -0.10479 0.00137
# Poissons Ratio (z) = 0.05797 0.00091
#
# Static dielectric constant tensor:
#      x y z
#    x 1.787570 0.000000 0.000000 
#    y 0.000000 2.142880 0.000000 
#    z 0.000000 0.000000 1.873940 
# 
# From -- ./inp_files/31302.got.cif
#   From: 2010.05.17/outbox.cif.g08.bks.cpg/sg20_16_cif.got.tgz:31302.got - 2010.06.03 22:52:26.
