data_PCOD9320760
_publ_section_title
;
Structure prediction by ZEFSAII (Michael W. Deem and Ramdas Pophale) SiO2 
 PCOD9320760
Probable space group: C 2 2 21
;
_chemical_formula_sum "Si O2"
_cell_formula_units_Z 56
_cell_length_a 14.859235
_cell_length_b 30.912018
_cell_length_c 7.982981
_cell_angle_alpha 90.000000
_cell_angle_beta 90.000000
_cell_angle_gamma 90.000000
_cell_volume 3666.814199
_symmetry_space_group_name_H-M "C 2 2 21"
_symmetry_group_IT_number 20
_symmetry_cell_setting 'orthorhombic'
loop_
_space_group_symop_operation_xyz
x,y,z
-x,-y,1/2+z
x,-y,-z
-x,y,1/2-z
1/2+x,1/2+y,z
1/2-x,1/2-y,1/2+z
1/2+x,1/2-y,-z
1/2-x,1/2+y,1/2-z
loop_
_atom_site_type_symbol
_atom_site_label
_atom_site_fract_x
_atom_site_fract_y
_atom_site_fract_z
Si Si1 0.500000 0.292818 0.250000
Si Si2 0.133501 0.652478 0.886169
Si Si3 0.059417 0.456817 0.581975
Si Si4 0.691892 0.791042 0.573112
Si Si5 0.109133 0.626794 0.249027
Si Si6 0.003624 0.267261 0.429779
Si Si7 0.696206 0.699736 0.761098
Si Si8 0.000000 0.589115 0.750000
O O1 0.484332 0.262171 0.410845
O O2 0.405085 0.316454 0.228434
O O3 0.228228 0.671118 0.828555
O O4 0.085850 0.621031 0.753185
O O5 0.064923 0.692426 0.922317
O O6 0.138993 0.625514 0.057289
O O7 0.100896 0.500000 0.500000
O O8 0.121082 0.417507 0.648148
O O9 0.000000 0.466818 0.750000
O O10 0.003836 0.437622 0.422839
O O11 0.662390 0.833080 0.674346
O O12 0.606064 0.782713 0.453179
O O13 0.701963 0.748608 0.687606
O O14 0.777601 0.798154 0.456121
O O15 0.000000 0.634906 0.250000
O O16 0.000000 0.244353 0.250000
#
# Coordination Sequence:
#
# PCOD9320760 Si02
#       8
#     4   8   8   8   8   8   8   4
#     4  10  24  36  42  63  94 132 170 225 264 306
#     4  12  19  33  50  75  97 132 180 221 259 308
#     4  11  21  34  50  77 108 144 175 201 251 322
#     4  11  20  32  48  71  94 132 174 223 265 305
#     4  11  20  33  52  75 101 134 173 211 254 313
#     4  11  18  30  49  65  90 122 166 219 266 296
#     4  11  22  32  47  67  97 132 179 229 266 301
#     4  12  20  32  56  75 106 140 178 213 256 302
#
# _framework density 15.272114
#
# number of rings (size 3 to 8) (size 9 to 14) (size 15 to 20)
#    0.000    0.857    7.143    4.286    1.000    0.000 
#    0.000    0.000    0.000    0.000    0.000    0.000 
#    0.000    0.000    0.000   25.714    0.000    3.000 
#
# Total GULP energy -156116.508998 kJ/mol
# GULP energy per Si atom -5575.589607 kJ/mol
# Density = 1.523735 g / cm^3
# Si number density = 15.272114 Si / 1000 Ang^3
#
#
#
# Elastic Constant Matrix: (Units=GPa)
#
#
# Indices 1 2 3 4 5 6 
#
# 1 78.4418 26.6547 15.3803 0.0000 0.0000 0.0000
# 2 26.6547 69.4449 29.8727 0.0000 0.0000 0.0000
# 3 15.3803 29.8727 94.0510 0.0000 0.0000 0.0000
# 4 0.0000 0.0000 0.0000 15.4257 0.0000 0.0000
# 5 0.0000 0.0000 0.0000 0.0000 22.3514 0.0000
# 6 0.0000 0.0000 0.0000 0.0000 0.0000 8.5336
#
#
#
# Elastic Compliance Matrix: (Units=1/GPa)
#
#
# Indices 1 2 3 4 5 6 
#
# 1 0.014701 -0.005338 -0.000709 0.000000 0.000000 0.000000
# 2 -0.005338 0.018617 -0.005040 0.000000 0.000000 0.000000
# 3 -0.000709 -0.005040 0.012349 0.000000 0.000000 0.000000
# 4 0.000000 0.000000 0.000000 0.064827 0.000000 0.000000
# 5 0.000000 0.000000 0.000000 0.000000 0.044740 0.000000
# 6 0.000000 0.000000 0.000000 0.000000 0.000000 0.117184
#
#
# Mechanical properties :
#
#
# Convention : Reuss Voigt Hill
#
# Bulk Modulus (GPa) = 42.56444 42.86145 42.71295
# Shear Modulus (GPa) = 16.53313 20.59745 18.56529
#
# Velocity S-wave (km/s) = 3.29381 3.67644 3.49038
# Velocity P-wave (km/s) = 6.51128 6.79321 6.65374
#
# Compressibility (1/GPa) = 0.02349379
#
# Stress axis : x y z
#
# Youngs Moduli (GPa) = 68.02230 53.71487 80.97621
#
# Poissons Ratio (x) = 0.28672 0.05739
# Poissons Ratio (y) = 0.36309 0.40814
# Poissons Ratio (z) = 0.04821 0.27073
#
# Static dielectric constant tensor:
#      x y z
#    x 1.524700 0.000000 0.000000 
#    y 0.000000 1.523710 0.000000 
#    z 0.000000 0.000000 1.575270 
# 
# From -- ./inp_files/8926.got.cif
#   From: 2010.05.17/outbox.cif.g08.bks.cpg/sg20_5_cif.got.tgz:8926.got - 2010.06.03 22:52:26.
