data_PCOD9320400
_publ_section_title
;
Structure prediction by ZEFSAII (Michael W. Deem and Ramdas Pophale) SiO2 
 PCOD9320400
Probable space group: C 2 2 21
;
_chemical_formula_sum "Si O2"
_cell_formula_units_Z 60
_cell_length_a 25.436468
_cell_length_b 7.601465
_cell_length_c 13.610447
_cell_angle_alpha 90.000000
_cell_angle_beta 90.000000
_cell_angle_gamma 90.000000
_cell_volume 2631.640102
_symmetry_space_group_name_H-M "C 2 2 21"
_symmetry_group_IT_number 20
_symmetry_cell_setting 'orthorhombic'
loop_
_space_group_symop_operation_xyz
x,y,z
-x,-y,1/2+z
x,-y,-z
-x,y,1/2-z
1/2+x,1/2+y,z
1/2-x,1/2-y,1/2+z
1/2+x,1/2-y,-z
1/2-x,1/2+y,1/2-z
loop_
_atom_site_type_symbol
_atom_site_label
_atom_site_fract_x
_atom_site_fract_y
_atom_site_fract_z
Si Si1 0.000395 0.409270 0.102701
Si Si2 0.328674 0.500000 0.000000
Si Si3 0.003449 0.006077 0.386199
Si Si4 0.837747 0.872006 0.404749
Si Si5 0.222225 0.655193 0.570653
Si Si6 0.114999 0.445070 0.320462
Si Si7 0.112702 0.951059 0.710309
Si Si8 0.923612 0.310935 0.665643
O O1 0.037576 0.148946 0.864751
O O2 0.036275 0.472931 0.828618
O O3 0.013784 0.500000 0.000000
O O4 0.015647 0.207269 0.119840
O O5 0.294702 0.324141 0.991487
O O6 0.359350 0.490442 0.895202
O O7 0.062599 0.428434 0.387177
O O8 0.053196 0.990913 0.314491
O O9 0.021576 0.000000 0.500000
O O10 0.778460 0.811872 0.378604
O O11 0.877586 0.707403 0.415340
O O12 0.843254 0.000000 0.500000
O O13 0.861570 0.960790 0.305662
O O14 0.237407 0.500000 0.500000
O O15 0.171498 0.578627 0.627378
O O16 0.113353 0.256604 0.265655
O O17 0.109072 0.630249 0.264187
#
# Coordination Sequence:
#
# PCOD9320400 Si02
#       8
#     8   4   8   8   8   8   8   8
#     4  11  24  42  68 107 149 190 249 316 386 473
#     4  10  22  48  82 118 130 198 262 338 392 444
#     4  11  23  44  74 110 150 207 251 317 394 472
#     4  11  28  50  70 108 150 213 253 318 399 485
#     4  10  24  50  75 106 147 187 263 320 389 462
#     4  10  25  44  71 114 139 195 259 322 384 464
#     4  10  24  46  80 105 158 193 268 322 391 472
#     4  12  27  43  70 106 155 195 256 303 401 467
#
# _framework density 22.799469999999999
#
# number of rings (size 3 to 8) (size 9 to 14) (size 15 to 20)
#    0.000    1.333    2.000    1.200    7.467    2.133 
#   10.800    0.000    0.000    0.000    0.000    0.000 
#    0.000    0.000    0.000    0.000    0.000    0.000 
#
# Total GULP energy -167086.970408 kJ/mol
# GULP energy per Si atom -5569.565680 kJ/mol
# Density = 2.274758 g / cm^3
# Si number density = 22.799470 Si / 1000 Ang^3
#
#
#
# Elastic Constant Matrix: (Units=GPa)
#
#
# Indices 1 2 3 4 5 6 
#
# 1 105.5036 63.6180 11.3932 0.0000 0.0000 0.0000
# 2 63.6180 141.7452 40.5998 0.0000 0.0000 0.0000
# 3 11.3932 40.5998 98.8089 0.0000 0.0000 0.0000
# 4 0.0000 0.0000 0.0000 31.7309 0.0000 0.0000
# 5 0.0000 0.0000 0.0000 0.0000 31.2129 0.0000
# 6 0.0000 0.0000 0.0000 0.0000 0.0000 29.2729
#
#
#
# Elastic Compliance Matrix: (Units=1/GPa)
#
#
# Indices 1 2 3 4 5 6 
#
# 1 0.013086 -0.006167 0.001025 0.000000 0.000000 0.000000
# 2 -0.006167 0.010902 -0.003769 0.000000 0.000000 0.000000
# 3 0.001025 -0.003769 0.011551 0.000000 0.000000 0.000000
# 4 0.000000 0.000000 0.000000 0.031515 0.000000 0.000000
# 5 0.000000 0.000000 0.000000 0.000000 0.032038 0.000000
# 6 0.000000 0.000000 0.000000 0.000000 0.000000 0.034161
#
#
# Mechanical properties :
#
#
# Convention : Reuss Voigt Hill
#
# Bulk Modulus (GPa) = 56.43864 64.14216 60.29040
# Shear Modulus (GPa) = 31.85106 33.80647 32.82877
#
# Velocity S-wave (km/s) = 3.74171 3.85486 3.79871
# Velocity P-wave (km/s) = 6.59358 6.92874 6.76324
#
# Compressibility (1/GPa) = 0.01771836
#
# Stress axis : x y z
#
# Youngs Moduli (GPa) = 76.41578 91.72469 86.57396
#
# Poissons Ratio (x) = 0.56566 -0.08874
# Poissons Ratio (y) = 0.47126 0.32626
# Poissons Ratio (z) = -0.07833 0.34567
#
# Static dielectric constant tensor:
#      x y z
#    x 1.914360 0.000000 0.000000 
#    y 0.000000 1.953460 0.000000 
#    z 0.000000 0.000000 1.994710 
# 
# From -- ./inp_files/17070.got.cif
#   From: 2010.05.17/outbox.cif.g08.bks.cpg/sg20_9_cif.got.tgz:17070.got - 2010.06.03 22:52:26.
