data_PCOD9320780
_publ_section_title
;
Structure prediction by ZEFSAII (Michael W. Deem and Ramdas Pophale) SiO2 
 PCOD9320780
Probable space group: C 2 2 21
;
_chemical_formula_sum "Si O2"
_cell_formula_units_Z 28
_cell_length_a 8.854726
_cell_length_b 5.278731
_cell_length_c 26.604037
_cell_angle_alpha 90.000000
_cell_angle_beta 90.000000
_cell_angle_gamma 90.000000
_cell_volume 1243.518359
_symmetry_space_group_name_H-M "C 2 2 21"
_symmetry_group_IT_number 20
_symmetry_cell_setting 'orthorhombic'
loop_
_space_group_symop_operation_xyz
x,y,z
-x,-y,1/2+z
x,-y,-z
-x,y,1/2-z
1/2+x,1/2+y,z
1/2-x,1/2-y,1/2+z
1/2+x,1/2-y,-z
1/2-x,1/2+y,1/2-z
loop_
_atom_site_type_symbol
_atom_site_label
_atom_site_fract_x
_atom_site_fract_y
_atom_site_fract_z
Si Si1 0.827680 0.843846 0.453211
Si Si2 0.555330 0.961636 0.692803
Si Si3 0.109544 0.040947 0.155583
Si Si4 0.538460 0.000000 0.500000
O O1 0.839354 0.991441 0.401627
O O2 0.929666 0.597119 0.455880
O O3 0.894395 0.000000 0.500000
O O4 0.656580 0.812050 0.472099
O O5 0.500000 0.984002 0.750000
O O6 0.736335 0.962535 0.687931
O O7 0.481898 0.200318 0.663816
O O8 0.493519 0.696696 0.671336
#
# Coordination Sequence:
#
# PCOD9320780 Si02
#       4
#     8   8   8   4
#     4  10  26  40  66  95 137 174 226 271 336 407
#     4  12  26  48  71 103 137 179 233 293 344 406
#     4  12  26  43  74 100 137 181 230 280 353 409
#     4  10  24  40  64  90 140 170 222 270 330 390
#
# _framework density 22.516756000000001
#
# number of rings (size 3 to 8) (size 9 to 14) (size 15 to 20)
#    0.857    0.000    0.000    6.000   10.000    0.000 
#    0.000    0.000    0.000    0.000    0.000    0.000 
#    0.000    0.000    0.000    0.000    0.000    0.000 
#
# Total GULP energy -78219.327561 kJ/mol
# GULP energy per Si atom -5587.094826 kJ/mol
# Density = 2.246551 g / cm^3
# Si number density = 22.516756 Si / 1000 Ang^3
#
#
#
# Elastic Constant Matrix: (Units=GPa)
#
#
# Indices 1 2 3 4 5 6 
#
# 1 86.9704 44.3389 -55.4743 0.0000 0.0000 0.0000
# 2 44.3389 107.9604 -4.7089 0.0000 0.0000 0.0000
# 3 -55.4743 -4.7089 62.7988 0.0000 0.0000 0.0000
# 4 0.0000 0.0000 0.0000 28.3784 0.0000 0.0000
# 5 0.0000 0.0000 0.0000 0.0000 14.0369 0.0000
# 6 0.0000 0.0000 0.0000 0.0000 0.0000 -35.2067
#
#
#
# Elastic Compliance Matrix: (Units=1/GPa)
#
#
# Indices 1 2 3 4 5 6 
#
# 1 0.043547 -0.016260 0.037249 0.000000 0.000000 0.000000
# 2 -0.016260 0.015364 -0.013211 0.000000 0.000000 0.000000
# 3 0.037249 -0.013211 0.047837 0.000000 0.000000 0.000000
# 4 0.000000 0.000000 0.000000 0.035238 0.000000 0.000000
# 5 0.000000 0.000000 0.000000 0.000000 0.071241 0.000000
# 6 0.000000 0.000000 0.000000 0.000000 0.000000 -0.028404
#
#
# Mechanical properties :
#
#
# Convention : Reuss Voigt Hill
#
# Bulk Modulus (GPa) = 8.17640 25.11565 16.64603
# Shear Modulus (GPa) = 23.80538 19.67996 21.74267
#
# Velocity S-wave (km/s) = 3.25503 2.95958 3.11082
# Velocity P-wave (km/s) = 4.21499 4.78092 4.50685
#
# Compressibility (1/GPa) = 0.12230325
#
# Stress axis : x y z
#
# Youngs Moduli (GPa) = 22.96380 65.08607 20.90416
#
# Poissons Ratio (x) = 1.05829 -0.77865
# Poissons Ratio (y) = 0.37339 0.27617
# Poissons Ratio (z) = -0.85537 0.85987
#
# Static dielectric constant tensor:
#      x y z
#    x 1.788920 0.000000 0.000000 
#    y 0.000000 2.817880 0.000000 
#    z 0.000000 0.000000 2.037190 
# 
# From -- ./inp_files/28145.got.cif
#   From: 2010.05.17/outbox.cif.g08.bks.cpg/sg20_15_cif.got.tgz:28145.got - 2010.06.03 22:52:26.
