data_PCOD9320831
_publ_section_title
;
Structure prediction by ZEFSAII (Michael W. Deem and Ramdas Pophale) SiO2 
 PCOD9320831
Probable space group: C 2 2 21
;
_chemical_formula_sum "Si O2"
_cell_formula_units_Z 40
_cell_length_a 8.837536
_cell_length_b 19.333367
_cell_length_c 11.522809
_cell_angle_alpha 90.000000
_cell_angle_beta 90.000000
_cell_angle_gamma 90.000000
_cell_volume 1968.779389
_symmetry_space_group_name_H-M "C 2 2 21"
_symmetry_group_IT_number 20
_symmetry_cell_setting 'orthorhombic'
loop_
_space_group_symop_operation_xyz
x,y,z
-x,-y,1/2+z
x,-y,-z
-x,y,1/2-z
1/2+x,1/2+y,z
1/2-x,1/2-y,1/2+z
1/2+x,1/2-y,-z
1/2-x,1/2+y,1/2-z
loop_
_atom_site_type_symbol
_atom_site_label
_atom_site_fract_x
_atom_site_fract_y
_atom_site_fract_z
Si Si1 0.850990 0.321459 0.376049
Si Si2 0.214471 0.005509 0.862559
Si Si3 0.854940 0.164571 0.676617
Si Si4 0.000000 0.552340 0.750000
Si Si5 0.500000 0.606276 0.250000
Si Si6 0.451647 0.297693 0.966942
O O1 0.782753 0.301435 0.248381
O O2 0.913906 0.397829 0.343556
O O3 0.704477 0.311033 0.460908
O O4 0.991137 0.278009 0.426597
O O5 0.160571 0.081582 0.821309
O O6 0.387056 0.005729 0.823036
O O7 0.127284 0.944475 0.799656
O O8 0.194730 0.000000 0.000000
O O9 0.000000 0.186283 0.750000
O O10 0.902983 0.181382 0.546476
O O11 0.555395 0.653929 0.354867
#
# Coordination Sequence:
#
# PCOD9320831 Si02
#       6
#     8   8   8   4   4   8
#     4  10  24  42  68  93 132 174 221 273 343 400
#     4  11  22  40  64  90 132 173 222 270 330 395
#     4   9  19  40  62  90 124 175 213 263 336 390
#     4  10  25  44  64  90 133 176 222 272 344 400
#     4  12  25  38  68 104 129 168 232 274 324 400
#     4  11  24  40  67  99 135 171 222 284 326 399
#
# _framework density 20.317157000000002
#
# number of rings (size 3 to 8) (size 9 to 14) (size 15 to 20)
#    0.000    1.600    3.000    0.600    8.400    1.600 
#    0.000    0.000    0.000    0.000    0.000    0.000 
#    0.000    0.000    0.000    0.000    0.000    0.000 
#
# Total GULP energy -111384.192386 kJ/mol
# GULP energy per Si atom -5569.209619 kJ/mol
# Density = 2.027091 g / cm^3
# Si number density = 20.317157 Si / 1000 Ang^3
#
#
#
# Elastic Constant Matrix: (Units=GPa)
#
#
# Indices 1 2 3 4 5 6 
#
# 1 95.7503 16.2007 54.4646 0.0000 0.0000 0.0000
# 2 16.2007 55.4181 39.6978 0.0000 0.0000 0.0000
# 3 54.4646 39.6978 142.8807 0.0000 0.0000 0.0000
# 4 0.0000 0.0000 0.0000 -6.0201 0.0000 0.0000
# 5 0.0000 0.0000 0.0000 0.0000 53.8084 0.0000
# 6 0.0000 0.0000 0.0000 0.0000 0.0000 16.0992
#
#
#
# Elastic Compliance Matrix: (Units=1/GPa)
#
#
# Indices 1 2 3 4 5 6 
#
# 1 0.013340 -0.000321 -0.004996 0.000000 0.000000 0.000000
# 2 -0.000321 0.022536 -0.006139 0.000000 0.000000 0.000000
# 3 -0.004996 -0.006139 0.010609 0.000000 0.000000 0.000000
# 4 0.000000 0.000000 0.000000 -0.166109 0.000000 0.000000
# 5 0.000000 0.000000 0.000000 0.000000 0.018584 0.000000
# 6 0.000000 0.000000 0.000000 0.000000 0.000000 0.062115
#
#
# Mechanical properties :
#
#
# Convention : Reuss Voigt Hill
#
# Bulk Modulus (GPa) = 42.42137 57.19728 49.80933
# Shear Modulus (GPa) = -613.09202 25.02321 -294.03440
#
# Velocity S-wave (km/s) = -17.39011 3.51327 -12.04311
# Velocity P-wave (km/s) = 19.55240 6.68361 12.99280
#
# Compressibility (1/GPa) = 0.02357302
#
# Stress axis : x y z
#
# Youngs Moduli (GPa) = 74.96324 44.37328 94.26087
#
# Poissons Ratio (x) = 0.01425 0.47091
# Poissons Ratio (y) = 0.02407 0.57867
# Poissons Ratio (z) = 0.37450 0.27241
#
# Static dielectric constant tensor:
#      x y z
#    x 1.797790 0.000000 0.000000 
#    y 0.000000 1.712190 0.000000 
#    z 0.000000 0.000000 1.736760 
# 
# From -- ./inp_files/12734.got.cif
#   From: 2010.05.17/outbox.cif.g08.bks.cpg/sg20_7_cif.got.tgz:12734.got - 2010.06.03 22:52:26.
