data_PCOD9320873
_publ_section_title
;
Structure prediction by ZEFSAII (Michael W. Deem and Ramdas Pophale) SiO2 
 PCOD9320873
Probable space group: C 2 2 21
;
_chemical_formula_sum "Si O2"
_cell_formula_units_Z 32
_cell_length_a 15.696033
_cell_length_b 17.487033
_cell_length_c 5.287861
_cell_angle_alpha 90.000000
_cell_angle_beta 90.000000
_cell_angle_gamma 90.000000
_cell_volume 1451.396472
_symmetry_space_group_name_H-M "C 2 2 21"
_symmetry_group_IT_number 20
_symmetry_cell_setting 'orthorhombic'
loop_
_space_group_symop_operation_xyz
x,y,z
-x,-y,1/2+z
x,-y,-z
-x,y,1/2-z
1/2+x,1/2+y,z
1/2-x,1/2-y,1/2+z
1/2+x,1/2-y,-z
1/2-x,1/2+y,1/2-z
loop_
_atom_site_type_symbol
_atom_site_label
_atom_site_fract_x
_atom_site_fract_y
_atom_site_fract_z
Si Si1 0.925369 0.577826 0.596594
Si Si2 0.702435 0.000000 0.500000
Si Si3 0.140520 0.219226 0.497015
Si Si4 0.290592 0.654223 0.496773
Si Si5 0.500000 0.809108 0.750000
O O1 0.967177 0.500000 0.500000
O O2 0.851490 0.543078 0.774993
O O3 0.923385 0.636309 0.362692
O O4 0.000000 0.617592 0.750000
O O5 0.759672 0.070505 0.411913
O O6 0.209634 0.288424 0.499610
O O7 0.146677 0.184207 0.219564
O O8 0.049629 0.253994 0.561418
O O9 0.169384 0.161987 0.723153
#
# Coordination Sequence:
#
# PCOD9320873 Si02
#       5
#     8   4   8   8   4
#     4  12  22  38  58 104 142 178 214 276 358 430
#     4  12  26  40  72  98 144 184 230 288 358 422
#     4  10  24  44  65  97 140 183 233 281 338 415
#     4  10  24  44  65  97 140 183 233 281 338 415
#     4  12  26  40  72  98 144 184 230 288 358 422
#
# _framework density 22.047732
#
# number of rings (size 3 to 8) (size 9 to 14) (size 15 to 20)
#    0.000    1.000    2.500    3.000   17.500    0.000 
#    0.000    0.000    0.000    3.000    0.000    0.000 
#    0.000    0.000    0.000    0.000    0.000    0.000 
#
# Total GULP energy -89188.621475 kJ/mol
# GULP energy per Si atom -5574.288842 kJ/mol
# Density = 2.199755 g / cm^3
# Si number density = 22.047732 Si / 1000 Ang^3
#
#
#
# Elastic Constant Matrix: (Units=GPa)
#
#
# Indices 1 2 3 4 5 6 
#
# 1 42.3160 25.9157 6.4963 0.0000 0.0000 0.0000
# 2 25.9157 84.4410 12.2183 0.0000 0.0000 0.0000
# 3 6.4963 12.2183 70.2698 0.0000 0.0000 0.0000
# 4 0.0000 0.0000 0.0000 31.9947 0.0000 0.0000
# 5 0.0000 0.0000 0.0000 0.0000 33.0047 0.0000
# 6 0.0000 0.0000 0.0000 0.0000 0.0000 20.9737
#
#
#
# Elastic Compliance Matrix: (Units=1/GPa)
#
#
# Indices 1 2 3 4 5 6 
#
# 1 0.029195 -0.008791 -0.001171 0.000000 0.000000 0.000000
# 2 -0.008791 0.014795 -0.001760 0.000000 0.000000 0.000000
# 3 -0.001171 -0.001760 0.014645 0.000000 0.000000 0.000000
# 4 0.000000 0.000000 0.000000 0.031255 0.000000 0.000000
# 5 0.000000 0.000000 0.000000 0.000000 0.030299 0.000000
# 6 0.000000 0.000000 0.000000 0.000000 0.000000 0.047679
#
#
# Mechanical properties :
#
#
# Convention : Reuss Voigt Hill
#
# Bulk Modulus (GPa) = 28.41475 31.80974 30.11225
# Shear Modulus (GPa) = 24.62548 27.35439 25.98994
#
# Velocity S-wave (km/s) = 3.34566 3.52616 3.43710
# Velocity P-wave (km/s) = 5.27640 5.57113 5.42576
#
# Compressibility (1/GPa) = 0.03519298
#
# Stress axis : x y z
#
# Youngs Moduli (GPa) = 34.25214 67.58921 68.28236
#
# Poissons Ratio (x) = 0.59417 0.07993
# Poissons Ratio (y) = 0.30111 0.12017
# Poissons Ratio (z) = 0.04009 0.11895
#
# Static dielectric constant tensor:
#      x y z
#    x 1.966270 0.000000 0.000000 
#    y 0.000000 1.778390 0.000000 
#    z 0.000000 0.000000 1.514210 
# 
# From -- ./inp_files/1583.got.cif
#   From: 2010.05.17/outbox.cif.g08.bks.cpg/sg20_1_cif.got.tgz:1583.got - 2010.06.03 22:52:26.
