data_PCOD9320842
_publ_section_title
;
Structure prediction by ZEFSAII (Michael W. Deem and Ramdas Pophale) SiO2 
 PCOD9320842
Probable space group: C 2 2 21
;
_chemical_formula_sum "Si O2"
_cell_formula_units_Z 48
_cell_length_a 8.921723
_cell_length_b 27.177544
_cell_length_c 8.786224
_cell_angle_alpha 90.000000
_cell_angle_beta 90.000000
_cell_angle_gamma 90.000000
_cell_volume 2130.400297
_symmetry_space_group_name_H-M "C 2 2 21"
_symmetry_group_IT_number 20
_symmetry_cell_setting 'orthorhombic'
loop_
_space_group_symop_operation_xyz
x,y,z
-x,-y,1/2+z
x,-y,-z
-x,y,1/2-z
1/2+x,1/2+y,z
1/2-x,1/2-y,1/2+z
1/2+x,1/2-y,-z
1/2-x,1/2+y,1/2-z
loop_
_atom_site_type_symbol
_atom_site_label
_atom_site_fract_x
_atom_site_fract_y
_atom_site_fract_z
Si Si1 0.671312 0.580564 0.197373
Si Si2 0.500000 0.827738 0.250000
Si Si3 0.000000 0.181570 0.750000
Si Si4 0.179075 0.682390 0.248817
Si Si5 0.751687 0.106535 0.642012
Si Si6 0.748930 0.232864 0.936482
Si Si7 0.664439 0.013859 0.823642
O O1 0.500000 0.584280 0.250000
O O2 0.755835 0.628007 0.266560
O O3 0.737802 0.529606 0.253865
O O4 0.704224 0.582508 0.017279
O O5 0.405237 0.863860 0.140498
O O6 0.384386 0.794544 0.345242
O O7 0.877838 0.146096 0.677715
O O8 0.908243 0.213607 0.871730
O O9 0.246031 0.709514 0.397724
O O10 0.000000 0.679963 0.250000
O O11 0.230157 0.717421 0.110105
O O12 0.737381 0.066010 0.776095
O O13 0.500000 0.013973 0.750000
O O14 0.651469 0.000000 0.000000
#
# Coordination Sequence:
#
# PCOD9320842 Si02
#       7
#     8   4   4   8   8   8   8
#     4  12  29  46  74 107 146 191 248 309 367 435
#     4  10  24  42  76 104 140 190 242 296 370 430
#     4  10  24  44  74 102 144 184 244 296 368 430
#     4  12  28  46  72 105 151 193 249 297 374 433
#     4  11  24  47  76 102 146 187 242 296 373 438
#     4  11  26  44  71 106 145 191 243 303 362 439
#     4  12  28  48  76 107 146 191 243 300 372 447
#
# _framework density 22.530978000000001
#
# number of rings (size 3 to 8) (size 9 to 14) (size 15 to 20)
#    0.000    0.667    1.667    4.000   16.333    0.000 
#    0.000    0.000    0.000    0.000    0.000    0.000 
#    0.000    0.000    0.000    0.000    0.000    0.000 
#
# Total GULP energy -134507.296731 kJ/mol
# GULP energy per Si atom -5604.470697 kJ/mol
# Density = 2.247970 g / cm^3
# Si number density = 22.530978 Si / 1000 Ang^3
#
#
#
# Elastic Constant Matrix: (Units=GPa)
#
#
# Indices 1 2 3 4 5 6 
#
# 1 135.5624 43.7734 26.2915 0.0000 0.0000 0.0000
# 2 43.7734 105.5590 2.5562 0.0000 0.0000 0.0000
# 3 26.2915 2.5562 98.8242 0.0000 0.0000 0.0000
# 4 0.0000 0.0000 0.0000 -381.4198 0.0000 0.0000
# 5 0.0000 0.0000 0.0000 0.0000 26.0547 0.0000
# 6 0.0000 0.0000 0.0000 0.0000 0.0000 28.9097
#
#
#
# Elastic Compliance Matrix: (Units=1/GPa)
#
#
# Indices 1 2 3 4 5 6 
#
# 1 0.009012 -0.003681 -0.002302 0.000000 0.000000 0.000000
# 2 -0.003681 0.010983 0.000695 0.000000 0.000000 0.000000
# 3 -0.002302 0.000695 0.010714 0.000000 0.000000 0.000000
# 4 0.000000 0.000000 0.000000 -0.002622 0.000000 0.000000
# 5 0.000000 0.000000 0.000000 0.000000 0.038381 0.000000
# 6 0.000000 0.000000 0.000000 0.000000 0.000000 0.034590
#
#
# Mechanical properties :
#
#
# Convention : Reuss Voigt Hill
#
# Bulk Modulus (GPa) = 49.67259 53.90975 51.79117
# Shear Modulus (GPa) = 42.24924 -47.46945 -2.61010
#
# Velocity S-wave (km/s) = 4.33501 -4.59503 -1.07748
# Velocity P-wave (km/s) = 6.86663 2.04291 4.63558
#
# Compressibility (1/GPa) = 0.02013183
#
# Stress axis : x y z
#
# Youngs Moduli (GPa) = 110.96429 91.04882 93.34008
#
# Poissons Ratio (x) = 0.33518 0.21490
# Poissons Ratio (y) = 0.40850 -0.06490
# Poissons Ratio (z) = 0.25548 -0.06331
#
# Static dielectric constant tensor:
#      x y z
#    x 2.872900 0.000000 0.000000 
#    y 0.000000 1.803800 0.000000 
#    z 0.000000 0.000000 1.823070 
# 
# From -- ./inp_files/6568.got.cif
#   From: 2010.05.17/outbox.cif.g08.bks.cpg/sg20_4_cif.got.tgz:6568.got - 2010.06.03 22:52:26.
