data_PCOD9320465
_publ_section_title
;
Structure prediction by ZEFSAII (Michael W. Deem and Ramdas Pophale) SiO2 
 PCOD9320465
Probable space group: C 2 2 21
;
_chemical_formula_sum "Si O2"
_cell_formula_units_Z 56
_cell_length_a 12.116441
_cell_length_b 9.475775
_cell_length_c 18.212378
_cell_angle_alpha 90.000000
_cell_angle_beta 90.000000
_cell_angle_gamma 90.000000
_cell_volume 2091.011722
_symmetry_space_group_name_H-M "C 2 2 21"
_symmetry_group_IT_number 20
_symmetry_cell_setting 'orthorhombic'
loop_
_space_group_symop_operation_xyz
x,y,z
-x,-y,1/2+z
x,-y,-z
-x,y,1/2-z
1/2+x,1/2+y,z
1/2-x,1/2-y,1/2+z
1/2+x,1/2-y,-z
1/2-x,1/2+y,1/2-z
loop_
_atom_site_type_symbol
_atom_site_label
_atom_site_fract_x
_atom_site_fract_y
_atom_site_fract_z
Si Si1 0.959165 0.393053 0.068083
Si Si2 0.304885 0.208327 0.597661
Si Si3 0.440917 0.127962 0.342282
Si Si4 0.253421 0.712273 0.049453
Si Si5 0.228611 0.537815 0.769521
Si Si6 0.823323 0.985126 0.389982
Si Si7 0.039135 0.057457 0.669548
O O1 0.870542 0.269101 0.079695
O O2 0.077422 0.320014 0.059901
O O3 0.978506 0.501427 0.135185
O O4 0.935834 0.500000 0.000000
O O5 0.227701 0.149646 0.531722
O O6 0.322064 0.165063 0.682730
O O7 0.264903 0.367682 0.602373
O O8 0.340707 0.132612 0.403167
O O9 0.506046 0.275584 0.338220
O O10 0.363646 0.084697 0.273022
O O11 0.196958 0.868659 0.049630
O O12 0.278547 0.571349 0.689899
O O13 0.333516 0.517699 0.825364
O O14 0.953729 0.013215 0.385139
O O15 0.000000 0.013069 0.750000
#
# Coordination Sequence:
#
# PCOD9320465 Si02
#       7
#     8   8   8   8   8   8   8
#     4  11  23  42  65  98 131 170 220 275 329 396
#     4  11  24  42  66  99 132 172 225 275 330 400
#     4  10  23  42  65  97 134 165 230 265 326 406
#     4  11  24  41  70  95 132 180 214 283 332 388
#     4  10  24  40  66  94 132 178 213 279 332 385
#     4  10  23  41  63  98 129 170 232 263 334 405
#     4   9  21  40  64  92 125 175 209 268 329 383
#
# _framework density 26.781293999999999
#
# number of rings (size 3 to 8) (size 9 to 14) (size 15 to 20)
#    0.000    1.714    1.429    1.286   12.000    0.000 
#    0.000    2.143    0.000    0.000    0.000    0.000 
#    0.000    0.000    0.000    0.000    0.000    0.000 
#
# Total GULP energy -156067.402472 kJ/mol
# GULP energy per Si atom -5573.835803 kJ/mol
# Density = 2.672034 g / cm^3
# Si number density = 26.781294 Si / 1000 Ang^3
#
#
#
# Elastic Constant Matrix: (Units=GPa)
#
#
# Indices 1 2 3 4 5 6 
#
# 1 111.8721 7.2654 4.8600 0.0000 0.0000 0.0000
# 2 7.2654 70.7618 27.5704 0.0000 0.0000 0.0000
# 3 4.8600 27.5704 108.8557 0.0000 0.0000 0.0000
# 4 0.0000 0.0000 0.0000 24.6373 0.0000 0.0000
# 5 0.0000 0.0000 0.0000 0.0000 27.6467 0.0000
# 6 0.0000 0.0000 0.0000 0.0000 0.0000 17.8422
#
#
#
# Elastic Compliance Matrix: (Units=1/GPa)
#
#
# Indices 1 2 3 4 5 6 
#
# 1 0.009002 -0.000852 -0.000186 0.000000 0.000000 0.000000
# 2 -0.000852 0.015760 -0.003954 0.000000 0.000000 0.000000
# 3 -0.000186 -0.003954 0.010196 0.000000 0.000000 0.000000
# 4 0.000000 0.000000 0.000000 0.040589 0.000000 0.000000
# 5 0.000000 0.000000 0.000000 0.000000 0.036171 0.000000
# 6 0.000000 0.000000 0.000000 0.000000 0.000000 0.056047
#
#
# Mechanical properties :
#
#
# Convention : Reuss Voigt Hill
#
# Bulk Modulus (GPa) = 40.03981 41.20901 40.62441
# Shear Modulus (GPa) = 26.87126 30.81149 28.84138
#
# Velocity S-wave (km/s) = 3.17102 3.39556 3.28521
# Velocity P-wave (km/s) = 5.32825 5.54921 5.43985
#
# Compressibility (1/GPa) = 0.02497515
#
# Stress axis : x y z
#
# Youngs Moduli (GPa) = 111.08421 63.45276 98.07663
#
# Poissons Ratio (x) = 0.05405 0.01826
# Poissons Ratio (y) = 0.09462 0.38775
# Poissons Ratio (z) = 0.02068 0.25086
#
# Static dielectric constant tensor:
#      x y z
#    x 2.220060 0.000000 0.000000 
#    y 0.000000 2.235800 0.000000 
#    z 0.000000 0.000000 2.139200 
# 
# From -- ./inp_files/27187.got.cif
#   From: 2010.05.17/outbox.cif.g08.bks.cpg/sg20_14_cif.got.tgz:27187.got - 2010.06.03 22:52:26.
