data_PCOD9320442
_publ_section_title
;
Structure prediction by ZEFSAII (Michael W. Deem and Ramdas Pophale) SiO2 
 PCOD9320442
Probable space group: C 2 2 21
;
_chemical_formula_sum "Si O2"
_cell_formula_units_Z 36
_cell_length_a 22.195893
_cell_length_b 8.852029
_cell_length_c 7.640912
_cell_angle_alpha 90.000000
_cell_angle_beta 90.000000
_cell_angle_gamma 90.000000
_cell_volume 1501.276369
_symmetry_space_group_name_H-M "C 2 2 21"
_symmetry_group_IT_number 20
_symmetry_cell_setting 'orthorhombic'
loop_
_space_group_symop_operation_xyz
x,y,z
-x,-y,1/2+z
x,-y,-z
-x,y,1/2-z
1/2+x,1/2+y,z
1/2-x,1/2-y,1/2+z
1/2+x,1/2-y,-z
1/2-x,1/2+y,1/2-z
loop_
_atom_site_type_symbol
_atom_site_label
_atom_site_fract_x
_atom_site_fract_y
_atom_site_fract_z
Si Si1 0.813435 0.262578 0.904694
Si Si2 0.053931 0.176549 0.473258
Si Si3 0.920249 0.611228 0.662138
Si Si4 0.500000 0.130601 0.250000
Si Si5 0.289732 0.072392 0.731186
O O1 0.771920 0.120782 0.857554
O O2 0.801132 0.395645 0.764642
O O3 0.882662 0.216375 0.930849
O O4 0.792527 0.341086 0.083997
O O5 0.060935 0.239280 0.274103
O O6 0.000177 0.258292 0.581234
O O7 0.044793 0.000000 0.500000
O O8 0.938540 0.500000 0.500000
O O9 0.849392 0.631806 0.634393
O O10 0.945275 0.483981 0.797354
#
# Coordination Sequence:
#
# PCOD9320442 Si02
#       5
#     8   8   8   4   8
#     4  10  23  42  65 103 144 188 250 310 386 459
#     4  11  26  47  73 109 154 197 255 338 395 456
#     4  11  24  43  73 104 140 197 258 308 390 474
#     4  12  24  46  74 102 144 198 262 314 388 478
#     4  10  23  40  66 101 141 191 244 305 380 460
#
# _framework density 23.979593999999999
#
# number of rings (size 3 to 8) (size 9 to 14) (size 15 to 20)
#    0.000    1.333    2.222    2.000    9.333    2.667 
#    0.000    0.000    4.889    0.000    0.000    0.000 
#    0.000    0.000    0.000    0.000    0.000    0.000 
#
# Total GULP energy -100214.806549 kJ/mol
# GULP energy per Si atom -5567.489253 kJ/mol
# Density = 2.392502 g / cm^3
# Si number density = 23.979594 Si / 1000 Ang^3
#
#
#
# Elastic Constant Matrix: (Units=GPa)
#
#
# Indices 1 2 3 4 5 6 
#
# 1 104.0923 20.8867 -13.6571 0.0000 0.0000 0.0000
# 2 20.8867 148.2883 30.9119 0.0000 0.0000 0.0000
# 3 -13.6571 30.9119 100.6128 0.0000 0.0000 0.0000
# 4 0.0000 0.0000 0.0000 43.0247 0.0000 0.0000
# 5 0.0000 0.0000 0.0000 0.0000 27.6475 0.0000
# 6 0.0000 0.0000 0.0000 0.0000 0.0000 48.3853
#
#
#
# Elastic Compliance Matrix: (Units=1/GPa)
#
#
# Indices 1 2 3 4 5 6 
#
# 1 0.010235 -0.001850 0.001958 0.000000 0.000000 0.000000
# 2 -0.001850 0.007539 -0.002567 0.000000 0.000000 0.000000
# 3 0.001958 -0.002567 0.010994 0.000000 0.000000 0.000000
# 4 0.000000 0.000000 0.000000 0.023242 0.000000 0.000000
# 5 0.000000 0.000000 0.000000 0.000000 0.036170 0.000000
# 6 0.000000 0.000000 0.000000 0.000000 0.000000 0.020667
#
#
# Mechanical properties :
#
#
# Convention : Reuss Voigt Hill
#
# Bulk Modulus (GPa) = 41.93097 47.69738 44.81418
# Shear Modulus (GPa) = 41.07924 44.80163 42.94043
#
# Velocity S-wave (km/s) = 4.14344 4.32710 4.23627
# Velocity P-wave (km/s) = 6.35727 6.70068 6.53123
#
# Compressibility (1/GPa) = 0.02384872
#
# Stress axis : x y z
#
# Youngs Moduli (GPa) = 97.70550 132.63743 90.96185
#
# Poissons Ratio (x) = 0.24534 -0.17806
# Poissons Ratio (y) = 0.18072 0.23354
# Poissons Ratio (z) = -0.19126 0.34054
#
# Static dielectric constant tensor:
#      x y z
#    x 1.920080 0.000000 0.000000 
#    y 0.000000 1.891710 0.000000 
#    z 0.000000 0.000000 2.421530 
# 
# From -- ./inp_files/9863.got.cif
#   From: 2010.05.17/outbox.cif.g08.bks.cpg/sg20_5_cif.got.tgz:9863.got - 2010.06.03 22:52:26.
