data_PCOD9320411
_publ_section_title
;
Structure prediction by ZEFSAII (Michael W. Deem and Ramdas Pophale) SiO2 
 PCOD9320411
Probable space group: C 2 2 21
;
_chemical_formula_sum "Si O2"
_cell_formula_units_Z 48
_cell_length_a 11.446685
_cell_length_b 9.017741
_cell_length_c 20.098844
_cell_angle_alpha 90.000000
_cell_angle_beta 90.000000
_cell_angle_gamma 90.000000
_cell_volume 2074.667811
_symmetry_space_group_name_H-M "C 2 2 21"
_symmetry_group_IT_number 20
_symmetry_cell_setting 'orthorhombic'
loop_
_space_group_symop_operation_xyz
x,y,z
-x,-y,1/2+z
x,-y,-z
-x,y,1/2-z
1/2+x,1/2+y,z
1/2-x,1/2-y,1/2+z
1/2+x,1/2-y,-z
1/2-x,1/2+y,1/2-z
loop_
_atom_site_type_symbol
_atom_site_label
_atom_site_fract_x
_atom_site_fract_y
_atom_site_fract_z
Si Si1 0.363040 0.604889 0.440650
Si Si2 0.466737 0.497373 0.174225
Si Si3 0.241008 0.687843 0.141075
Si Si4 0.163871 0.486420 0.379251
Si Si5 0.103933 0.403914 0.117817
Si Si6 0.296844 0.753105 0.791859
O O1 0.401576 0.500000 0.500000
O O2 0.429584 0.533803 0.376394
O O3 0.221820 0.598219 0.432146
O O4 0.393112 0.778693 0.439284
O O5 0.500000 0.528027 0.250000
O O6 0.363322 0.608926 0.155825
O O7 0.406098 0.334736 0.175328
O O8 0.268502 0.836371 0.102381
O O9 0.163885 0.562692 0.106857
O O10 0.193701 0.745364 0.212463
O O11 0.198403 0.574830 0.312341
O O12 0.030357 0.443521 0.370768
O O13 0.180142 0.326671 0.178099
#
# Coordination Sequence:
#
# PCOD9320411 Si02
#       6
#     8   8   8   8   8   8
#     4  11  25  50  69  98 142 186 247 308 358 429
#     4  11  22  41  69 101 143 185 228 293 366 426
#     4  11  22  39  67 103 141 182 227 287 356 430
#     4  11  23  42  65  93 134 185 226 288 349 418
#     4  10  23  45  62  98 137 182 230 287 350 424
#     4  10  23  37  63 105 141 178 232 279 351 433
#
# _framework density 23.136234000000002
#
# number of rings (size 3 to 8) (size 9 to 14) (size 15 to 20)
#    0.000    1.333    1.667    5.000    4.667    1.333 
#    9.000    0.833    0.000    1.000    0.000    0.000 
#    0.000    0.000    0.000    0.000    0.000    0.000 
#
# Total GULP energy -133936.753322 kJ/mol
# GULP energy per Si atom -5580.698055 kJ/mol
# Density = 2.308357 g / cm^3
# Si number density = 23.136234 Si / 1000 Ang^3
#
#
#
# Elastic Constant Matrix: (Units=GPa)
#
#
# Indices 1 2 3 4 5 6 
#
# 1 129.3584 58.6879 11.3269 0.0000 0.0000 0.0000
# 2 58.6879 120.4028 1.7043 0.0000 0.0000 0.0000
# 3 11.3269 1.7043 45.2116 0.0000 0.0000 0.0000
# 4 0.0000 0.0000 0.0000 18.6888 0.0000 0.0000
# 5 0.0000 0.0000 0.0000 0.0000 8.8214 0.0000
# 6 0.0000 0.0000 0.0000 0.0000 0.0000 -29.0297
#
#
#
# Elastic Compliance Matrix: (Units=1/GPa)
#
#
# Indices 1 2 3 4 5 6 
#
# 1 0.010171 -0.004924 -0.002363 0.000000 0.000000 0.000000
# 2 -0.004924 0.010694 0.000831 0.000000 0.000000 0.000000
# 3 -0.002363 0.000831 0.022679 0.000000 0.000000 0.000000
# 4 0.000000 0.000000 0.000000 0.053508 0.000000 0.000000
# 5 0.000000 0.000000 0.000000 0.000000 0.113360 0.000000
# 6 0.000000 0.000000 0.000000 0.000000 0.000000 -0.034447
#
#
# Mechanical properties :
#
#
# Convention : Reuss Voigt Hill
#
# Bulk Modulus (GPa) = 32.64627 48.71234 40.67930
# Shear Modulus (GPa) = 25.11445 14.57967 19.84706
#
# Velocity S-wave (km/s) = 3.29827 2.51303 2.93206
# Velocity P-wave (km/s) = 5.35218 5.43330 5.39289
#
# Compressibility (1/GPa) = 0.03063137
#
# Stress axis : x y z
#
# Youngs Moduli (GPa) = 98.31405 93.51017 44.09399
#
# Poissons Ratio (x) = 0.46049 0.10418
# Poissons Ratio (y) = 0.48414 -0.03663
# Poissons Ratio (z) = 0.23228 -0.07767
#
# Static dielectric constant tensor:
#      x y z
#    x 1.909410 0.000000 0.000000 
#    y 0.000000 1.909130 0.000000 
#    z 0.000000 0.000000 1.995890 
# 
# From -- ./inp_files/29094.got.cif
#   From: 2010.05.17/outbox.cif.g08.bks.cpg/sg20_15_cif.got.tgz:29094.got - 2010.06.03 22:52:26.
