data_PCOD9320514
_publ_section_title
;
Structure prediction by ZEFSAII (Michael W. Deem and Ramdas Pophale) SiO2 
 PCOD9320514
Probable space group: C 2 2 21
;
_chemical_formula_sum "Si O2"
_cell_formula_units_Z 28
_cell_length_a 9.779126
_cell_length_b 11.592520
_cell_length_c 12.468257
_cell_angle_alpha 90.000000
_cell_angle_beta 90.000000
_cell_angle_gamma 90.000000
_cell_volume 1413.460386
_symmetry_space_group_name_H-M "C 2 2 21"
_symmetry_group_IT_number 20
_symmetry_cell_setting 'orthorhombic'
loop_
_space_group_symop_operation_xyz
x,y,z
-x,-y,1/2+z
x,-y,-z
-x,y,1/2-z
1/2+x,1/2+y,z
1/2-x,1/2-y,1/2+z
1/2+x,1/2-y,-z
1/2-x,1/2+y,1/2-z
loop_
_atom_site_type_symbol
_atom_site_label
_atom_site_fract_x
_atom_site_fract_y
_atom_site_fract_z
Si Si1 0.795777 0.343480 0.956658
Si Si2 0.960081 0.000000 0.500000
Si Si3 0.127683 0.564999 0.673187
Si Si4 0.622937 0.626763 0.677470
O O1 0.870903 0.440618 0.884697
O O2 0.808621 0.223454 0.896983
O O3 0.642833 0.393942 0.973913
O O4 0.862551 0.344884 0.074823
O O5 0.053066 0.967221 0.399414
O O6 0.264152 0.575282 0.743738
O O7 0.000000 0.581677 0.750000
O O8 0.500000 0.677168 0.750000
#
# Coordination Sequence:
#
# PCOD9320514 Si02
#       4
#     8   4   8   8
#     4  10  23  42  64  95 136 160 225 273 310 398
#     4  10  24  46  60 104 132 162 230 274 298 414
#     4  10  23  42  63  98 132 168 221 273 319 389
#     4  12  23  43  70  94 131 182 209 268 338 373
#
# _framework density 19.809539999999998
#
# number of rings (size 3 to 8) (size 9 to 14) (size 15 to 20)
#    0.000    1.714    5.714    0.857    4.000    4.571 
#    0.000    0.000    0.000    0.000    0.000    0.000 
#    0.000    0.000    0.000    0.000    0.000    0.000 
#
# Total GULP energy -78191.825150 kJ/mol
# GULP energy per Si atom -5585.130368 kJ/mol
# Density = 1.976445 g / cm^3
# Si number density = 19.809540 Si / 1000 Ang^3
#
#
#
# Elastic Constant Matrix: (Units=GPa)
#
#
# Indices 1 2 3 4 5 6 
#
# 1 119.8502 22.9085 72.3309 0.0000 0.0000 0.0000
# 2 22.9085 26.8112 38.8870 0.0000 0.0000 0.0000
# 3 72.3309 38.8870 163.7229 0.0000 0.0000 0.0000
# 4 0.0000 0.0000 0.0000 22.6987 0.0000 0.0000
# 5 0.0000 0.0000 0.0000 0.0000 43.3461 0.0000
# 6 0.0000 0.0000 0.0000 0.0000 0.0000 -0.5276
#
#
#
# Elastic Compliance Matrix: (Units=1/GPa)
#
#
# Indices 1 2 3 4 5 6 
#
# 1 0.011624 -0.003789 -0.004235 0.000000 0.000000 0.000000
# 2 -0.003789 0.058135 -0.012134 0.000000 0.000000 0.000000
# 3 -0.004235 -0.012134 0.010861 0.000000 0.000000 0.000000
# 4 0.000000 0.000000 0.000000 0.044055 0.000000 0.000000
# 5 0.000000 0.000000 0.000000 0.000000 0.023070 0.000000
# 6 0.000000 0.000000 0.000000 0.000000 0.000000 -1.895237
#
#
# Mechanical properties :
#
#
# Convention : Reuss Voigt Hill
#
# Bulk Modulus (GPa) = 24.81213 64.29301 44.55257
# Shear Modulus (GPa) = -2.95205 24.85395 10.95095
#
# Velocity S-wave (km/s) = -1.22207 3.54594 2.35375
# Velocity P-wave (km/s) = 3.24981 7.02075 5.47048
#
# Compressibility (1/GPa) = 0.04030286
#
# Stress axis : x y z
#
# Youngs Moduli (GPa) = 86.02783 17.20146 92.07168
#
# Poissons Ratio (x) = 0.06518 0.38997
# Poissons Ratio (y) = 0.32596 1.11720
# Poissons Ratio (z) = 0.36437 0.20872
#
# Static dielectric constant tensor:
#      x y z
#    x 1.689840 0.000000 0.000000 
#    y 0.000000 1.675910 0.000000 
#    z 0.000000 0.000000 1.761380 
# 
# From -- ./inp_files/12387.got.cif
#   From: 2010.05.17/outbox.cif.g08.bks.cpg/sg20_7_cif.got.tgz:12387.got - 2010.06.03 22:52:26.
