data_PCOD9320346
_publ_section_title
;
Structure prediction by ZEFSAII (Michael W. Deem and Ramdas Pophale) SiO2 
 PCOD9320346
Probable space group: C 2 2 21
;
_chemical_formula_sum "Si O2"
_cell_formula_units_Z 60
_cell_length_a 10.842684
_cell_length_b 10.736256
_cell_length_c 19.916868
_cell_angle_alpha 90.000000
_cell_angle_beta 90.000000
_cell_angle_gamma 90.000000
_cell_volume 2318.519241
_symmetry_space_group_name_H-M "C 2 2 21"
_symmetry_group_IT_number 20
_symmetry_cell_setting 'orthorhombic'
loop_
_space_group_symop_operation_xyz
x,y,z
-x,-y,1/2+z
x,-y,-z
-x,y,1/2-z
1/2+x,1/2+y,z
1/2-x,1/2-y,1/2+z
1/2+x,1/2-y,-z
1/2-x,1/2+y,1/2-z
loop_
_atom_site_type_symbol
_atom_site_label
_atom_site_fract_x
_atom_site_fract_y
_atom_site_fract_z
Si Si1 0.927368 0.744014 0.896119
Si Si2 0.166403 0.827971 0.068408
Si Si3 0.235296 0.100599 0.079875
Si Si4 0.758139 0.798583 0.728060
Si Si5 0.402985 0.926734 0.303259
Si Si6 0.999380 0.621407 0.467980
Si Si7 0.361392 0.513373 0.173145
Si Si8 0.000000 0.802926 0.250000
O O1 0.785577 0.708176 0.889523
O O2 0.016150 0.656046 0.853545
O O3 0.927360 0.888836 0.875917
O O4 0.958172 0.712818 0.972609
O O5 0.070517 0.716912 0.080071
O O6 0.155024 0.974762 0.083045
O O7 0.194969 0.826605 0.987488
O O8 0.240558 0.177460 0.148199
O O9 0.378578 0.065283 0.066586
O O10 0.829130 0.671814 0.742203
O O11 0.837086 0.909954 0.758578
O O12 0.622438 0.780364 0.758837
O O13 0.500000 0.986835 0.250000
O O14 0.284262 0.984480 0.343241
O O15 0.933045 0.500000 0.500000
O O16 0.446902 0.395389 0.191342
#
# Coordination Sequence:
#
# PCOD9320346 Si02
#       8
#     8   8   8   8   8   8   8   4
#     4  11  23  44  70 102 146 187 247 303 371 455
#     4  10  23  42  74 104 137 193 245 302 384 439
#     4  10  22  46  66 104 141 184 243 308 367 442
#     4  11  24  43  72  98 149 192 244 306 367 446
#     4  11  24  43  66 100 142 192 234 296 373 432
#     4  11  23  45  73 103 143 190 250 314 377 445
#     4  11  25  42  70 103 144 198 240 308 373 449
#     4  10  26  46  62 112 144 184 258 294 362 454
#
# _framework density 25.878585000000001
#
# number of rings (size 3 to 8) (size 9 to 14) (size 15 to 20)
#    0.000    1.333    4.000    1.600    4.667    2.133 
#    0.000    6.667    8.800    0.000    0.000    0.000 
#    0.000    0.000    0.000    0.000    0.000    0.000 
#
# Total GULP energy -167556.716110 kJ/mol
# GULP energy per Si atom -5585.223870 kJ/mol
# Density = 2.581968 g / cm^3
# Si number density = 25.878585 Si / 1000 Ang^3
#
#
#
# Elastic Constant Matrix: (Units=GPa)
#
#
# Indices 1 2 3 4 5 6 
#
# 1 87.1697 55.6683 68.0865 0.0000 0.0000 0.0000
# 2 55.6683 124.3970 44.1124 0.0000 0.0000 0.0000
# 3 68.0865 44.1124 76.7902 0.0000 0.0000 0.0000
# 4 0.0000 0.0000 0.0000 34.2327 0.0000 0.0000
# 5 0.0000 0.0000 0.0000 0.0000 16.4482 0.0000
# 6 0.0000 0.0000 0.0000 0.0000 0.0000 22.3527
#
#
#
# Elastic Compliance Matrix: (Units=1/GPa)
#
#
# Indices 1 2 3 4 5 6 
#
# 1 0.041609 -0.006954 -0.032898 0.000000 0.000000 0.000000
# 2 -0.006954 0.011258 -0.000301 0.000000 0.000000 0.000000
# 3 -0.032898 -0.000301 0.042364 0.000000 0.000000 0.000000
# 4 0.000000 0.000000 0.000000 0.029212 0.000000 0.000000
# 5 0.000000 0.000000 0.000000 0.000000 0.060797 0.000000
# 6 0.000000 0.000000 0.000000 0.000000 0.000000 0.044737
#
#
# Mechanical properties :
#
#
# Convention : Reuss Voigt Hill
#
# Bulk Modulus (GPa) = 67.00255 69.34350 68.17302
# Shear Modulus (GPa) = 15.86005 22.63937 19.24971
#
# Velocity S-wave (km/s) = 2.47829 2.96096 2.73031
# Velocity P-wave (km/s) = 5.84265 6.20835 6.02827
#
# Compressibility (1/GPa) = 0.01492481
#
# Stress axis : x y z
#
# Youngs Moduli (GPa) = 24.03338 88.82928 23.60476
#
# Poissons Ratio (x) = 0.61774 0.77654
# Poissons Ratio (y) = 0.16713 0.00710
# Poissons Ratio (z) = 0.79064 0.02673
#
# Static dielectric constant tensor:
#      x y z
#    x 2.096410 0.000000 0.000000 
#    y 0.000000 2.115860 0.000000 
#    z 0.000000 0.000000 2.092630 
# 
# From -- ./inp_files/27261.got.cif
#   From: 2010.05.17/outbox.cif.g08.bks.cpg/sg20_14_cif.got.tgz:27261.got - 2010.06.03 22:52:26.
