data_PCOD9320391
_publ_section_title
;
Structure prediction by ZEFSAII (Michael W. Deem and Ramdas Pophale) SiO2 
 PCOD9320391
Probable space group: C 2 2 21
;
_chemical_formula_sum "Si O2"
_cell_formula_units_Z 32
_cell_length_a 13.649400
_cell_length_b 7.607001
_cell_length_c 11.941260
_cell_angle_alpha 90.000000
_cell_angle_beta 90.000000
_cell_angle_gamma 90.000000
_cell_volume 1239.872960
_symmetry_space_group_name_H-M "C 2 2 21"
_symmetry_group_IT_number 20
_symmetry_cell_setting 'orthorhombic'
loop_
_space_group_symop_operation_xyz
x,y,z
-x,-y,1/2+z
x,-y,-z
-x,y,1/2-z
1/2+x,1/2+y,z
1/2-x,1/2-y,1/2+z
1/2+x,1/2-y,-z
1/2-x,1/2+y,1/2-z
loop_
_atom_site_type_symbol
_atom_site_label
_atom_site_fract_x
_atom_site_fract_y
_atom_site_fract_z
Si Si1 0.717367 0.618635 0.663036
Si Si2 0.000000 0.258238 0.250000
Si Si3 0.068266 0.000000 0.500000
Si Si4 0.114097 0.827090 0.947505
Si Si5 0.150420 0.497540 0.634102
O O1 0.643872 0.482617 0.602939
O O2 0.807103 0.674135 0.576217
O O3 0.764599 0.574857 0.782598
O O4 0.654256 0.795446 0.671881
O O5 0.927399 0.143029 0.323245
O O6 0.943113 0.390930 0.169617
O O7 0.990709 0.837658 0.486630
O O8 0.162337 0.000000 0.000000
O O9 0.152045 0.500000 0.500000
#
# Coordination Sequence:
#
# PCOD9320391 Si02
#       5
#     8   4   4   8   8
#     4  11  25  47  76 110 154 209 255 322 398 458
#     4  10  22  48  72 106 152 204 260 318 392 468
#     4  10  24  48  76 108 156 202 258 324 386 462
#     4   9  22  43  71 110 145 199 249 317 379 460
#     4  11  26  48  75 110 156 201 266 327 390 474
#
# _framework density 25.809094999999999
#
# number of rings (size 3 to 8) (size 9 to 14) (size 15 to 20)
#    0.750    1.000    0.000    2.250   10.500    0.000 
#   22.500    0.000    0.000    0.000    0.000    0.000 
#    0.000    0.000    0.000    0.000    0.000    0.000 
#
# Total GULP energy -89082.594496 kJ/mol
# GULP energy per Si atom -5567.662156 kJ/mol
# Density = 2.575035 g / cm^3
# Si number density = 25.809095 Si / 1000 Ang^3
#
#
#
# Elastic Constant Matrix: (Units=GPa)
#
#
# Indices 1 2 3 4 5 6 
#
# 1 160.5875 30.0623 75.2832 0.0000 0.0000 0.0000
# 2 30.0623 65.5177 52.8340 0.0000 0.0000 0.0000
# 3 75.2832 52.8340 179.7686 0.0000 0.0000 0.0000
# 4 0.0000 0.0000 0.0000 47.0204 0.0000 0.0000
# 5 0.0000 0.0000 0.0000 0.0000 40.3027 0.0000
# 6 0.0000 0.0000 0.0000 0.0000 0.0000 -81.6593
#
#
#
# Elastic Compliance Matrix: (Units=1/GPa)
#
#
# Indices 1 2 3 4 5 6 
#
# 1 0.007825 -0.001242 -0.002912 0.000000 0.000000 0.000000
# 2 -0.001242 0.020201 -0.005417 0.000000 0.000000 0.000000
# 3 -0.002912 -0.005417 0.008374 0.000000 0.000000 0.000000
# 4 0.000000 0.000000 0.000000 0.021267 0.000000 0.000000
# 5 0.000000 0.000000 0.000000 0.000000 0.024812 0.000000
# 6 0.000000 0.000000 0.000000 0.000000 0.000000 -0.012246
#
#
# Mechanical properties :
#
#
# Convention : Reuss Voigt Hill
#
# Bulk Modulus (GPa) = 57.94321 80.24810 69.09565
# Shear Modulus (GPa) = 52.56057 17.64570 35.10313
#
# Velocity S-wave (km/s) = 4.51767 2.61760 3.69196
# Velocity P-wave (km/s) = 7.05067 6.34793 6.70851
#
# Compressibility (1/GPa) = 0.01725828
#
# Stress axis : x y z
#
# Youngs Moduli (GPa) = 127.80044 49.50173 119.41574
#
# Poissons Ratio (x) = 0.06150 0.34770
# Poissons Ratio (y) = 0.15876 0.64687
# Poissons Ratio (z) = 0.37212 0.26815
#
# Static dielectric constant tensor:
#      x y z
#    x 2.089440 0.000000 0.000000 
#    y 0.000000 2.040610 0.000000 
#    z 0.000000 0.000000 2.360580 
# 
# From -- ./inp_files/14685.got.cif
#   From: 2010.05.17/outbox.cif.g08.bks.cpg/sg20_8_cif.got.tgz:14685.got - 2010.06.03 22:52:26.
