data_PCOD9320223
_publ_section_title
;
Structure prediction by ZEFSAII (Michael W. Deem and Ramdas Pophale) SiO2 
 PCOD9320223
Probable space group: C 2 2 21
;
_chemical_formula_sum "Si O2"
_cell_formula_units_Z 40
_cell_length_a 8.909196
_cell_length_b 18.164943
_cell_length_c 10.858891
_cell_angle_alpha 90.000000
_cell_angle_beta 90.000000
_cell_angle_gamma 90.000000
_cell_volume 1757.349032
_symmetry_space_group_name_H-M "C 2 2 21"
_symmetry_group_IT_number 20
_symmetry_cell_setting 'orthorhombic'
loop_
_space_group_symop_operation_xyz
x,y,z
-x,-y,1/2+z
x,-y,-z
-x,y,1/2-z
1/2+x,1/2+y,z
1/2-x,1/2-y,1/2+z
1/2+x,1/2-y,-z
1/2-x,1/2+y,1/2-z
loop_
_atom_site_type_symbol
_atom_site_label
_atom_site_fract_x
_atom_site_fract_y
_atom_site_fract_z
Si Si1 0.000000 0.996913 0.750000
Si Si2 0.374848 0.000000 0.000000
Si Si3 0.078629 0.707503 0.626710
Si Si4 0.844314 0.887719 0.376335
Si Si5 0.094371 0.873965 0.565239
Si Si6 0.950237 0.622710 0.387722
O O1 0.976463 0.942973 0.863532
O O2 0.862645 0.052535 0.731032
O O3 0.264786 0.066035 0.964391
O O4 0.482186 0.959828 0.902394
O O5 0.016589 0.673099 0.499165
O O6 0.000000 0.676818 0.750000
O O7 0.254012 0.686969 0.644080
O O8 0.054518 0.794442 0.620453
O O9 0.007012 0.874241 0.435339
O O10 0.272789 0.880325 0.583205
O O11 0.000000 0.648140 0.250000
#
# Coordination Sequence:
#
# PCOD9320223 Si02
#       6
#     4   4   8   8   8   8
#     4  12  24  42  80 102 150 188 262 310 384 452
#     4  10  22  44  64 104 152 188 246 314 382 440
#     4  11  27  50  73 109 158 201 252 323 390 462
#     4  11  25  45  72 110 149 198 254 318 378 468
#     4  12  25  47  76 109 149 206 257 318 391 468
#     4  11  27  45  75 107 152 199 260 319 391 457
#
# _framework density 22.761558000000001
#
# number of rings (size 3 to 8) (size 9 to 14) (size 15 to 20)
#    0.000    0.800    3.000    2.400    8.400    6.400 
#    3.600    0.000    0.000    0.000    0.000    0.000 
#    0.000    0.000    0.000    0.000    0.000    0.000 
#
# Total GULP energy -111503.391838 kJ/mol
# GULP energy per Si atom -5575.169592 kJ/mol
# Density = 2.270975 g / cm^3
# Si number density = 22.761558 Si / 1000 Ang^3
#
#
#
# Elastic Constant Matrix: (Units=GPa)
#
#
# Indices 1 2 3 4 5 6 
#
# 1 106.3667 9.3350 66.7784 0.0000 0.0000 0.0000
# 2 9.3350 90.5011 51.0678 0.0000 0.0000 0.0000
# 3 66.7784 51.0678 122.6938 0.0000 0.0000 0.0000
# 4 0.0000 0.0000 0.0000 34.0145 0.0000 0.0000
# 5 0.0000 0.0000 0.0000 0.0000 8.7990 0.0000
# 6 0.0000 0.0000 0.0000 0.0000 0.0000 25.0381
#
#
#
# Elastic Compliance Matrix: (Units=1/GPa)
#
#
# Indices 1 2 3 4 5 6 
#
# 1 0.015361 0.004095 -0.010065 0.000000 0.000000 0.000000
# 2 0.004095 0.015533 -0.008694 0.000000 0.000000 0.000000
# 3 -0.010065 -0.008694 0.017247 0.000000 0.000000 0.000000
# 4 0.000000 0.000000 0.000000 0.029399 0.000000 0.000000
# 5 0.000000 0.000000 0.000000 0.000000 0.113649 0.000000
# 6 0.000000 0.000000 0.000000 0.000000 0.000000 0.039939
#
#
# Mechanical properties :
#
#
# Convention : Reuss Voigt Hill
#
# Bulk Modulus (GPa) = 53.15424 63.76935 58.46180
# Shear Modulus (GPa) = 18.74574 26.39569 22.57071
#
# Velocity S-wave (km/s) = 2.87290 3.40907 3.15241
# Velocity P-wave (km/s) = 5.86584 6.60097 6.24423
#
# Compressibility (1/GPa) = 0.01881317
#
# Stress axis : x y z
#
# Youngs Moduli (GPa) = 65.10026 64.37913 57.98123
#
# Poissons Ratio (x) = -0.26363 0.58357
# Poissons Ratio (y) = -0.26658 0.50408
# Poissons Ratio (z) = 0.65523 0.55971
#
# Static dielectric constant tensor:
#      x y z
#    x 1.904980 0.000000 0.000000 
#    y 0.000000 1.842050 0.000000 
#    z 0.000000 0.000000 1.961240 
# 
# From -- ./inp_files/12935.got.cif
#   From: 2010.05.17/outbox.cif.g08.bks.cpg/sg20_7_cif.got.tgz:12935.got - 2010.06.03 22:52:26.
