data_PCOD9320728
_publ_section_title
;
Structure prediction by ZEFSAII (Michael W. Deem and Ramdas Pophale) SiO2 
 PCOD9320728
Probable space group: C 2 2 21
;
_chemical_formula_sum "Si O2"
_cell_formula_units_Z 48
_cell_length_a 22.012590
_cell_length_b 10.520773
_cell_length_c 9.133228
_cell_angle_alpha 90.000000
_cell_angle_beta 90.000000
_cell_angle_gamma 90.000000
_cell_volume 2115.159364
_symmetry_space_group_name_H-M "C 2 2 21"
_symmetry_group_IT_number 20
_symmetry_cell_setting 'orthorhombic'
loop_
_space_group_symop_operation_xyz
x,y,z
-x,-y,1/2+z
x,-y,-z
-x,y,1/2-z
1/2+x,1/2+y,z
1/2-x,1/2-y,1/2+z
1/2+x,1/2-y,-z
1/2-x,1/2+y,1/2-z
loop_
_atom_site_type_symbol
_atom_site_label
_atom_site_fract_x
_atom_site_fract_y
_atom_site_fract_z
Si Si1 0.063320 0.500000 0.500000
Si Si2 0.152899 0.127700 0.481841
Si Si3 0.144677 0.219311 0.812751
Si Si4 0.130463 0.357544 0.263531
Si Si5 0.054031 0.646806 0.008472
Si Si6 0.206340 0.000000 0.000000
Si Si7 0.269571 0.047444 0.293086
O O1 0.101974 0.475745 0.355015
O O2 0.017644 0.379788 0.512283
O O3 0.156278 0.181549 0.645737
O O4 0.136878 0.246542 0.380784
O O5 0.210253 0.070996 0.390163
O O6 0.112100 0.000000 0.500000
O O7 0.166670 0.104852 0.916326
O O8 0.185660 0.342202 0.842008
O O9 0.078318 0.267538 0.860727
O O10 0.084290 0.305861 0.141364
O O11 0.194187 0.412756 0.200959
O O12 0.077885 0.500000 0.000000
O O13 0.248532 0.938665 0.875211
#
# Coordination Sequence:
#
# PCOD9320728 Si02
#       7
#     4   8   8   8   8   4   8
#     4  10  23  46  78 114 138 184 253 326 376 424
#     4  12  28  43  64 101 155 198 245 290 372 462
#     4  12  24  43  64 101 145 195 246 310 378 443
#     4  12  24  44  73 104 148 188 248 307 380 440
#     4  10  24  42  75 108 138 183 248 322 376 431
#     4  12  25  38  66  94 146 200 239 298 380 458
#     4  12  23  43  63 103 137 197 242 296 357 451
#
# _framework density 22.693325000000002
#
# number of rings (size 3 to 8) (size 9 to 14) (size 15 to 20)
#    0.500    0.000    3.333    6.000    2.333    0.000 
#    0.000    0.000    1.833    0.000    0.000    0.000 
#    0.000    0.000    0.000    0.000    0.000    0.000 
#
# Total GULP energy -133999.267019 kJ/mol
# GULP energy per Si atom -5583.302792 kJ/mol
# Density = 2.264167 g / cm^3
# Si number density = 22.693325 Si / 1000 Ang^3
#
#
#
# Elastic Constant Matrix: (Units=GPa)
#
#
# Indices 1 2 3 4 5 6 
#
# 1 77.0201 23.5319 43.6514 0.0000 0.0000 0.0000
# 2 23.5319 110.2897 41.3566 0.0000 0.0000 0.0000
# 3 43.6514 41.3566 150.4996 0.0000 0.0000 0.0000
# 4 0.0000 0.0000 0.0000 56.2955 0.0000 0.0000
# 5 0.0000 0.0000 0.0000 0.0000 25.7545 0.0000
# 6 0.0000 0.0000 0.0000 0.0000 0.0000 1.9586
#
#
#
# Elastic Compliance Matrix: (Units=1/GPa)
#
#
# Indices 1 2 3 4 5 6 
#
# 1 0.015870 -0.001851 -0.004094 0.000000 0.000000 0.000000
# 2 -0.001851 0.010324 -0.002300 0.000000 0.000000 0.000000
# 3 -0.004094 -0.002300 0.008464 0.000000 0.000000 0.000000
# 4 0.000000 0.000000 0.000000 0.017763 0.000000 0.000000
# 5 0.000000 0.000000 0.000000 0.000000 0.038828 0.000000
# 6 0.000000 0.000000 0.000000 0.000000 0.000000 0.510565
#
#
# Mechanical properties :
#
#
# Convention : Reuss Voigt Hill
#
# Bulk Modulus (GPa) = 55.04327 61.65436 58.34882
# Shear Modulus (GPa) = 8.00819 32.08636 20.04728
#
# Velocity S-wave (km/s) = 1.88057 3.76428 2.97543
# Velocity P-wave (km/s) = 5.38733 6.79121 6.12959
#
# Compressibility (1/GPa) = 0.01816753
#
# Stress axis : x y z
#
# Youngs Moduli (GPa) = 63.01387 96.85712 118.14497
#
# Poissons Ratio (x) = 0.17925 0.48372
# Poissons Ratio (y) = 0.11662 0.27177
# Poissons Ratio (z) = 0.25800 0.22280
#
# Static dielectric constant tensor:
#      x y z
#    x 1.901470 0.000000 0.000000 
#    y 0.000000 2.004950 0.000000 
#    z 0.000000 0.000000 1.882270 
# 
# From -- ./inp_files/10679.got.cif
#   From: 2010.05.17/outbox.cif.g08.bks.cpg/sg20_6_cif.got.tgz:10679.got - 2010.06.03 22:52:26.
