data_PCOD9320605
_publ_section_title
;
Structure prediction by ZEFSAII (Michael W. Deem and Ramdas Pophale) SiO2 
 PCOD9320605
Probable space group: C 2 2 21
;
_chemical_formula_sum "Si O2"
_cell_formula_units_Z 60
_cell_length_a 10.574124
_cell_length_b 30.100800
_cell_length_c 7.686192
_cell_angle_alpha 90.000000
_cell_angle_beta 90.000000
_cell_angle_gamma 90.000000
_cell_volume 2446.434913
_symmetry_space_group_name_H-M "C 2 2 21"
_symmetry_group_IT_number 20
_symmetry_cell_setting 'orthorhombic'
loop_
_space_group_symop_operation_xyz
x,y,z
-x,-y,1/2+z
x,-y,-z
-x,y,1/2-z
1/2+x,1/2+y,z
1/2-x,1/2-y,1/2+z
1/2+x,1/2-y,-z
1/2-x,1/2+y,1/2-z
loop_
_atom_site_type_symbol
_atom_site_label
_atom_site_fract_x
_atom_site_fract_y
_atom_site_fract_z
Si Si1 0.647401 0.582492 0.197610
Si Si2 0.500000 0.793608 0.750000
Si Si3 0.206171 0.658853 0.769600
Si Si4 0.663448 0.950775 0.978510
Si Si5 0.490215 0.867678 0.997248
Si Si6 0.279223 0.743403 0.562956
Si Si7 0.351350 0.685579 0.232400
Si Si8 0.644942 0.419857 0.217074
O O1 0.500000 0.575059 0.250000
O O2 0.741679 0.553601 0.314778
O O3 0.680367 0.633656 0.249340
O O4 0.664436 0.424719 0.009137
O O5 0.567899 0.831307 0.632955
O O6 0.409511 0.761995 0.640941
O O7 0.116776 0.657320 0.936164
O O8 0.217978 0.706957 0.690080
O O9 0.336953 0.632339 0.769394
O O10 0.116901 0.628990 0.641816
O O11 0.549916 0.915232 0.952745
O O12 0.752884 0.941114 0.148959
O O13 0.611629 0.000000 0.000000
O O14 0.300546 0.716021 0.388786
O O15 0.189194 0.786774 0.561390
O O16 0.500000 0.686637 0.250000
O O17 0.500000 0.434066 0.250000
#
# Coordination Sequence:
#
# PCOD9320605 Si02
#       8
#     8   4   8   8   8   8   8   8
#     4  11  23  47  73 107 151 197 246 311 394 463
#     4  12  26  40  68 106 142 196 240 300 374 432
#     4  10  23  43  71  92 141 195 245 301 365 441
#     4  11  26  48  78 113 146 191 259 319 387 478
#     4  10  24  46  68  98 145 192 241 308 387 440
#     4  12  25  41  67 101 141 189 255 301 349 436
#     4  11  27  44  65 100 147 189 254 309 362 441
#     4  11  23  45  75 109 147 198 239 311 398 458
#
# _framework density 24.525486000000001
#
# number of rings (size 3 to 8) (size 9 to 14) (size 15 to 20)
#    0.000    1.067    2.667    2.400    8.400    2.133 
#    0.000    2.667    0.000    0.000    0.000    0.000 
#    0.000    0.000    0.000    0.000    0.000    0.000 
#
# Total GULP energy -167673.146814 kJ/mol
# GULP energy per Si atom -5589.104894 kJ/mol
# Density = 2.446966 g / cm^3
# Si number density = 24.525486 Si / 1000 Ang^3
#
#
#
# Elastic Constant Matrix: (Units=GPa)
#
#
# Indices 1 2 3 4 5 6 
#
# 1 84.2748 31.2974 6.0220 0.0000 0.0000 0.0000
# 2 31.2974 116.6173 24.6308 0.0000 0.0000 0.0000
# 3 6.0220 24.6308 103.0549 0.0000 0.0000 0.0000
# 4 0.0000 0.0000 0.0000 18.2216 0.0000 0.0000
# 5 0.0000 0.0000 0.0000 0.0000 36.4229 0.0000
# 6 0.0000 0.0000 0.0000 0.0000 0.0000 23.4275
#
#
#
# Elastic Compliance Matrix: (Units=1/GPa)
#
#
# Indices 1 2 3 4 5 6 
#
# 1 0.013180 -0.003554 0.000079 0.000000 0.000000 0.000000
# 2 -0.003554 0.009989 -0.002180 0.000000 0.000000 0.000000
# 3 0.000079 -0.002180 0.010220 0.000000 0.000000 0.000000
# 4 0.000000 0.000000 0.000000 0.054880 0.000000 0.000000
# 5 0.000000 0.000000 0.000000 0.000000 0.027455 0.000000
# 6 0.000000 0.000000 0.000000 0.000000 0.000000 0.042685
#
#
# Mechanical properties :
#
#
# Convention : Reuss Voigt Hill
#
# Bulk Modulus (GPa) = 45.28942 47.53860 46.41401
# Shear Modulus (GPa) = 28.23604 31.74752 29.99178
#
# Velocity S-wave (km/s) = 3.39675 3.60178 3.50077
# Velocity P-wave (km/s) = 5.82153 6.05991 5.94192
#
# Compressibility (1/GPa) = 0.02208021
#
# Stress axis : x y z
#
# Youngs Moduli (GPa) = 75.87174 100.10747 97.84807
#
# Poissons Ratio (x) = 0.35578 -0.00775
# Poissons Ratio (y) = 0.26965 0.21329
# Poissons Ratio (z) = -0.00601 0.21822
#
# Static dielectric constant tensor:
#      x y z
#    x 1.937390 0.000000 0.000000 
#    y 0.000000 1.910740 0.000000 
#    z 0.000000 0.000000 1.922060 
# 
# From -- ./inp_files/7578.got.cif
#   From: 2010.05.17/outbox.cif.g08.bks.cpg/sg20_4_cif.got.tgz:7578.got - 2010.06.03 22:52:26.
