data_PCOD9320473
_publ_section_title
;
Structure prediction by ZEFSAII (Michael W. Deem and Ramdas Pophale) SiO2 
 PCOD9320473
Probable space group: C 2 2 21
;
_chemical_formula_sum "Si O2"
_cell_formula_units_Z 56
_cell_length_a 13.395430
_cell_length_b 29.484777
_cell_length_c 5.583928
_cell_angle_alpha 90.000000
_cell_angle_beta 90.000000
_cell_angle_gamma 90.000000
_cell_volume 2205.435274
_symmetry_space_group_name_H-M "C 2 2 21"
_symmetry_group_IT_number 20
_symmetry_cell_setting 'orthorhombic'
loop_
_space_group_symop_operation_xyz
x,y,z
-x,-y,1/2+z
x,-y,-z
-x,y,1/2-z
1/2+x,1/2+y,z
1/2-x,1/2-y,1/2+z
1/2+x,1/2-y,-z
1/2-x,1/2+y,1/2-z
loop_
_atom_site_type_symbol
_atom_site_label
_atom_site_fract_x
_atom_site_fract_y
_atom_site_fract_z
Si Si1 0.354532 0.710456 0.323927
Si Si2 0.787456 0.949357 0.470565
Si Si3 0.939573 0.500000 0.500000
Si Si4 0.161530 0.765355 0.306414
Si Si5 0.000000 0.975379 0.250000
Si Si6 0.750343 0.137381 0.810681
Si Si7 0.062775 0.398984 0.997792
Si Si8 0.611795 0.610157 0.304825
O O1 0.237458 0.723631 0.310759
O O2 0.397531 0.734987 0.557966
O O3 0.371198 0.656605 0.343839
O O4 0.389679 0.726732 0.061730
O O5 0.892398 0.954065 0.325713
O O6 0.730765 0.905004 0.368314
O O7 0.820065 0.931422 0.729180
O O8 0.742091 0.000000 0.500000
O O9 0.892037 0.549664 0.492491
O O10 0.000000 0.501217 0.750000
O O11 0.232238 0.809937 0.261463
O O12 0.024463 0.000000 0.500000
O O13 0.656771 0.134182 0.989499
O O14 0.855694 0.125086 0.934699
O O15 0.000000 0.393285 0.750000
O O16 0.000000 0.393954 0.250000
O O17 0.500000 0.596759 0.250000
#
# Coordination Sequence:
#
# PCOD9320473 Si02
#       8
#     8   8   4   8   4   8   8   8
#     4   9  18  37  61  90 121 163 217 267 331 390
#     4  11  25  38  61  93 134 188 236 275 329 389
#     4   8  16  36  56  82 112 150 194 260 324 378
#     4   9  18  36  64  90 121 162 209 270 333 395
#     4  10  24  42  60  82 132 186 238 278 324 370
#     4  11  24  41  66  97 135 177 224 281 340 407
#     4  10  23  41  65  90 122 162 214 273 338 401
#     4  11  24  41  64  96 138 182 232 283 331 401
#
# _framework density 25.391812999999999
#
# number of rings (size 3 to 8) (size 9 to 14) (size 15 to 20)
#    0.000    2.000    1.429    0.857   10.000    1.143 
#    5.143    0.714    0.000    5.143    0.000    0.000 
#    0.000    0.000    0.000    0.000    0.000    0.000 
#
# Total GULP energy -156051.267992 kJ/mol
# GULP energy per Si atom -5573.259571 kJ/mol
# Density = 2.533402 g / cm^3
# Si number density = 25.391813 Si / 1000 Ang^3
#
#
#
# Elastic Constant Matrix: (Units=GPa)
#
#
# Indices 1 2 3 4 5 6 
#
# 1 77.3258 28.9315 25.4168 0.0000 0.0000 0.0000
# 2 28.9315 59.5849 27.5560 0.0000 0.0000 0.0000
# 3 25.4168 27.5560 168.5782 0.0000 0.0000 0.0000
# 4 0.0000 0.0000 0.0000 48.9009 0.0000 0.0000
# 5 0.0000 0.0000 0.0000 0.0000 20.0061 0.0000
# 6 0.0000 0.0000 0.0000 0.0000 0.0000 -34.9496
#
#
#
# Elastic Compliance Matrix: (Units=1/GPa)
#
#
# Indices 1 2 3 4 5 6 
#
# 1 0.016039 -0.007215 -0.001239 0.000000 0.000000 0.000000
# 2 -0.007215 0.021401 -0.002410 0.000000 0.000000 0.000000
# 3 -0.001239 -0.002410 0.006513 0.000000 0.000000 0.000000
# 4 0.000000 0.000000 0.000000 0.020450 0.000000 0.000000
# 5 0.000000 0.000000 0.000000 0.000000 0.049985 0.000000
# 6 0.000000 0.000000 0.000000 0.000000 0.000000 -0.028613
#
#
# Mechanical properties :
#
#
# Convention : Reuss Voigt Hill
#
# Bulk Modulus (GPa) = 44.99592 52.14416 48.57004
# Shear Modulus (GPa) = 43.51223 21.69711 32.60467
#
# Velocity S-wave (km/s) = 4.14409 2.92634 3.58727
# Velocity P-wave (km/s) = 6.37630 5.65671 6.02725
#
# Compressibility (1/GPa) = 0.02222424
#
# Stress axis : x y z
#
# Youngs Moduli (GPa) = 62.34829 46.72759 153.54475
#
# Poissons Ratio (x) = 0.33713 0.19022
# Poissons Ratio (y) = 0.44983 0.37010
# Poissons Ratio (z) = 0.07724 0.11263
#
# Static dielectric constant tensor:
#      x y z
#    x 1.975840 0.000000 0.000000 
#    y 0.000000 2.009470 0.000000 
#    z 0.000000 0.000000 2.176730 
# 
# From -- ./inp_files/2255.got.cif
#   From: 2010.05.17/outbox.cif.g08.bks.cpg/sg20_2_cif.got.tgz:2255.got - 2010.06.03 22:52:26.
