data_PCOD9320774
_publ_section_title
;
Structure prediction by ZEFSAII (Michael W. Deem and Ramdas Pophale) SiO2 
 PCOD9320774
Probable space group: C 2 2 21
;
_chemical_formula_sum "Si O2"
_cell_formula_units_Z 32
_cell_length_a 18.173447
_cell_length_b 12.925181
_cell_length_c 5.290479
_cell_angle_alpha 90.000000
_cell_angle_beta 90.000000
_cell_angle_gamma 90.000000
_cell_volume 1242.707551
_symmetry_space_group_name_H-M "C 2 2 21"
_symmetry_group_IT_number 20
_symmetry_cell_setting 'orthorhombic'
loop_
_space_group_symop_operation_xyz
x,y,z
-x,-y,1/2+z
x,-y,-z
-x,y,1/2-z
1/2+x,1/2+y,z
1/2-x,1/2-y,1/2+z
1/2+x,1/2-y,-z
1/2-x,1/2+y,1/2-z
loop_
_atom_site_type_symbol
_atom_site_label
_atom_site_fract_x
_atom_site_fract_y
_atom_site_fract_z
Si Si1 0.114658 0.877027 0.004708
Si Si2 0.418189 0.743881 0.992854
Si Si3 0.000000 0.413060 0.250000
Si Si4 0.215500 0.386033 0.379728
Si Si5 0.363496 0.000000 0.500000
O O1 0.077546 0.824181 0.244970
O O2 0.201417 0.857186 0.056348
O O3 0.087778 0.827590 0.742874
O O4 0.103172 0.000000 0.000000
O O5 0.480099 0.831574 0.030653
O O6 0.341423 0.807218 0.998938
O O7 0.927229 0.480579 0.289155
O O8 0.206981 0.500000 0.500000
O O9 0.191599 0.407332 0.085354
#
# Coordination Sequence:
#
# PCOD9320774 Si02
#       5
#     8   8   4   8   4
#     4  11  25  45  72 101 142 187 253 304 355 417
#     4  11  25  44  69 105 143 195 235 295 363 438
#     4  10  26  42  72 104 154 196 244 292 370 468
#     4  10  24  39  71 107 145 180 231 305 378 439
#     4  10  24  42  66 110 144 192 228 300 376 448
#
# _framework density 25.750225
#
# number of rings (size 3 to 8) (size 9 to 14) (size 15 to 20)
#    0.000    1.500    0.000    2.250   21.000    1.000 
#    0.000    2.500    0.000    0.000    0.000    0.000 
#    0.000    0.000    0.000    0.000    0.000    0.000 
#
# Total GULP energy -89425.425543 kJ/mol
# GULP energy per Si atom -5589.089096 kJ/mol
# Density = 2.569162 g / cm^3
# Si number density = 25.750225 Si / 1000 Ang^3
#
#
#
# Elastic Constant Matrix: (Units=GPa)
#
#
# Indices 1 2 3 4 5 6 
#
# 1 130.7613 22.2022 16.1150 0.0000 0.0000 0.0000
# 2 22.2022 126.1849 72.2479 0.0000 0.0000 0.0000
# 3 16.1150 72.2479 164.1064 0.0000 0.0000 0.0000
# 4 0.0000 0.0000 0.0000 61.9710 0.0000 0.0000
# 5 0.0000 0.0000 0.0000 0.0000 19.4244 0.0000
# 6 0.0000 0.0000 0.0000 0.0000 0.0000 33.6091
#
#
#
# Elastic Compliance Matrix: (Units=1/GPa)
#
#
# Indices 1 2 3 4 5 6 
#
# 1 0.007889 -0.001263 -0.000219 0.000000 0.000000 0.000000
# 2 -0.001263 0.010798 -0.004630 0.000000 0.000000 0.000000
# 3 -0.000219 -0.004630 0.008153 0.000000 0.000000 0.000000
# 4 0.000000 0.000000 0.000000 0.016137 0.000000 0.000000
# 5 0.000000 0.000000 0.000000 0.000000 0.051482 0.000000
# 6 0.000000 0.000000 0.000000 0.000000 0.000000 0.029754
#
#
# Mechanical properties :
#
#
# Convention : Reuss Voigt Hill
#
# Bulk Modulus (GPa) = 68.41112 71.35363 69.88237
# Shear Modulus (GPa) = 35.38393 43.70009 39.54201
#
# Velocity S-wave (km/s) = 3.71094 4.12403 3.92292
# Velocity P-wave (km/s) = 6.70718 7.10260 6.90772
#
# Compressibility (1/GPa) = 0.01461751
#
# Stress axis : x y z
#
# Youngs Moduli (GPa) = 126.76055 92.61095 122.64923
#
# Poissons Ratio (x) = 0.11695 0.02683
# Poissons Ratio (y) = 0.16008 0.56784
# Poissons Ratio (z) = 0.02773 0.42877
#
# Static dielectric constant tensor:
#      x y z
#    x 2.016930 0.000000 0.000000 
#    y 0.000000 1.993180 0.000000 
#    z 0.000000 0.000000 2.231720 
# 
# From -- ./inp_files/3000.got.cif
#   From: 2010.05.17/outbox.cif.g08.bks.cpg/sg20_2_cif.got.tgz:3000.got - 2010.06.03 22:52:26.
