data_PCOD9320230
_publ_section_title
;
Structure prediction by ZEFSAII (Michael W. Deem and Ramdas Pophale) SiO2 
 PCOD9320230
Probable space group: C 2 2 21
;
_chemical_formula_sum "Si O2"
_cell_formula_units_Z 32
_cell_length_a 13.315811
_cell_length_b 4.913068
_cell_length_c 22.776329
_cell_angle_alpha 90.000000
_cell_angle_beta 90.000000
_cell_angle_gamma 90.000000
_cell_volume 1490.061264
_symmetry_space_group_name_H-M "C 2 2 21"
_symmetry_group_IT_number 20
_symmetry_cell_setting 'orthorhombic'
loop_
_space_group_symop_operation_xyz
x,y,z
-x,-y,1/2+z
x,-y,-z
-x,y,1/2-z
1/2+x,1/2+y,z
1/2-x,1/2-y,1/2+z
1/2+x,1/2-y,-z
1/2-x,1/2+y,1/2-z
loop_
_atom_site_type_symbol
_atom_site_label
_atom_site_fract_x
_atom_site_fract_y
_atom_site_fract_z
Si Si1 0.115803 0.911100 0.760539
Si Si2 0.015097 0.000000 0.000000
Si Si3 0.798093 0.588863 0.322497
Si Si4 0.136023 0.500000 0.500000
Si Si5 0.691090 0.788848 0.055700
O O1 0.164313 0.107574 0.809805
O O2 0.185615 0.945467 0.703109
O O3 0.000000 0.972119 0.750000
O O4 0.131821 0.604507 0.782495
O O5 0.092694 0.099132 0.050264
O O6 0.939468 0.249753 0.997264
O O7 0.805811 0.475836 0.387555
O O8 0.214770 0.417842 0.551218
O O9 0.693245 0.000000 0.000000
#
# Coordination Sequence:
#
# PCOD9320230 Si02
#       5
#     8   4   8   4   8
#     4  10  22  44  65  96 124 170 219 276 334 389
#     4  11  24  41  60  90 134 175 216 261 324 394
#     4  10  24  40  67  93 131 165 220 276 329 391
#     4  11  24  43  62  92 136 175 218 259 320 398
#     4  11  25  42  67  99 137 177 223 276 334 403
#
# _framework density 21.475625999999998
#
# number of rings (size 3 to 8) (size 9 to 14) (size 15 to 20)
#    0.000    1.500    2.500    0.750    7.000    4.000 
#    0.000    0.000    0.000    0.000    0.000    0.000 
#    0.000    0.000    0.000    0.000    0.000    0.000 
#
# Total GULP energy -89293.563619 kJ/mol
# GULP energy per Si atom -5580.847726 kJ/mol
# Density = 2.142675 g / cm^3
# Si number density = 21.475626 Si / 1000 Ang^3
#
#
#
# Elastic Constant Matrix: (Units=GPa)
#
#
# Indices 1 2 3 4 5 6 
#
# 1 186.8387 28.0771 14.3309 0.0000 0.0000 0.0000
# 2 28.0771 102.8125 -17.5748 0.0000 0.0000 0.0000
# 3 14.3309 -17.5748 59.4386 0.0000 0.0000 0.0000
# 4 0.0000 0.0000 0.0000 26.0368 0.0000 0.0000
# 5 0.0000 0.0000 0.0000 0.0000 5.4273 0.0000
# 6 0.0000 0.0000 0.0000 0.0000 0.0000 22.2362
#
#
#
# Elastic Compliance Matrix: (Units=1/GPa)
#
#
# Indices 1 2 3 4 5 6 
#
# 1 0.005791 -0.001917 -0.001963 0.000000 0.000000 0.000000
# 2 -0.001917 0.010879 0.003679 0.000000 0.000000 0.000000
# 3 -0.001963 0.003679 0.018385 0.000000 0.000000 0.000000
# 4 0.000000 0.000000 0.000000 0.038407 0.000000 0.000000
# 5 0.000000 0.000000 0.000000 0.000000 0.184254 0.000000
# 6 0.000000 0.000000 0.000000 0.000000 0.000000 0.044972
#
#
# Mechanical properties :
#
#
# Convention : Reuss Voigt Hill
#
# Bulk Modulus (GPa) = 28.85798 44.30627 36.58213
# Shear Modulus (GPa) = 15.89112 32.35717 24.12415
#
# Velocity S-wave (km/s) = 2.72317 3.88583 3.35524
# Velocity P-wave (km/s) = 4.83263 6.38816 5.66405
#
# Compressibility (1/GPa) = 0.03465245
#
# Stress axis : x y z
#
# Youngs Moduli (GPa) = 172.68621 91.92181 54.39182
#
# Poissons Ratio (x) = 0.17621 0.10677
# Poissons Ratio (y) = 0.33104 -0.20010
# Poissons Ratio (z) = 0.33899 -0.33816
#
# Static dielectric constant tensor:
#      x y z
#    x 1.774560 0.000000 0.000000 
#    y 0.000000 1.777960 0.000000 
#    z 0.000000 0.000000 1.788150 
# 
# From -- ./inp_files/25860.got.cif
#   From: 2010.05.17/outbox.cif.g08.bks.cpg/sg20_13_cif.got.tgz:25860.got - 2010.06.03 22:52:26.
