data_PCOD9320320
_publ_section_title
;
Structure prediction by ZEFSAII (Michael W. Deem and Ramdas Pophale) SiO2 
 PCOD9320320
Probable space group: C 2 2 21
;
_chemical_formula_sum "Si O2"
_cell_formula_units_Z 56
_cell_length_a 14.564711
_cell_length_b 7.589293
_cell_length_c 22.685132
_cell_angle_alpha 90.000000
_cell_angle_beta 90.000000
_cell_angle_gamma 90.000000
_cell_volume 2507.520558
_symmetry_space_group_name_H-M "C 2 2 21"
_symmetry_group_IT_number 20
_symmetry_cell_setting 'orthorhombic'
loop_
_space_group_symop_operation_xyz
x,y,z
-x,-y,1/2+z
x,-y,-z
-x,y,1/2-z
1/2+x,1/2+y,z
1/2-x,1/2-y,1/2+z
1/2+x,1/2-y,-z
1/2-x,1/2+y,1/2-z
loop_
_atom_site_type_symbol
_atom_site_label
_atom_site_fract_x
_atom_site_fract_y
_atom_site_fract_z
Si Si1 0.327178 0.466079 0.669272
Si Si2 0.133491 0.349046 0.791659
Si Si3 0.037933 0.112220 0.331269
Si Si4 0.202666 0.545789 0.568786
Si Si5 0.445221 0.976793 0.831324
Si Si6 0.211699 0.876984 0.322839
Si Si7 0.652519 0.447686 0.566754
O O1 0.319419 0.660270 0.697336
O O2 0.432603 0.421427 0.680748
O O3 0.295886 0.486312 0.601171
O O4 0.260140 0.310398 0.690410
O O5 0.094250 0.376549 0.725800
O O6 0.210505 0.490440 0.802777
O O7 0.047317 0.394125 0.835196
O O8 0.055352 0.315582 0.315696
O O9 0.114108 0.975932 0.306113
O O10 0.055335 0.084208 0.401038
O O11 0.193790 0.500000 0.500000
O O12 0.202638 0.096155 0.605896
O O13 0.200188 0.758185 0.573839
O O14 0.381372 0.970071 0.889796
O O15 0.645553 0.500000 0.500000
#
# Coordination Sequence:
#
# PCOD9320320 Si02
#       7
#     8   8   8   8   8   8   8
#     4  12  23  44  72 113 149 199 261 313 400 463
#     4  11  23  46  74 106 158 200 256 326 390 486
#     4   9  22  43  74 101 150 199 253 319 386 473
#     4  11  24  44  74 110 149 199 260 328 400 478
#     4  10  23  49  71 109 155 203 263 319 405 473
#     4  10  22  45  70 103 147 194 250 313 385 463
#     4   9  19  41  70  98 148 193 248 319 382 458
#
# _framework density 22.332816000000001
#
# number of rings (size 3 to 8) (size 9 to 14) (size 15 to 20)
#    0.857    0.857    2.857    0.857    2.000    0.571 
#   10.286    2.143    0.000    0.000    0.000    0.000 
#    0.000    0.000    0.000    0.000    0.000    0.000 
#
# Total GULP energy -156171.247987 kJ/mol
# GULP energy per Si atom -5577.544571 kJ/mol
# Density = 2.228199 g / cm^3
# Si number density = 22.332816 Si / 1000 Ang^3
#
#
#
# Elastic Constant Matrix: (Units=GPa)
#
#
# Indices 1 2 3 4 5 6 
#
# 1 161.2417 68.9680 40.7196 0.0000 0.0000 0.0000
# 2 68.9680 190.4310 39.6479 0.0000 0.0000 0.0000
# 3 40.7196 39.6479 128.8432 0.0000 0.0000 0.0000
# 4 0.0000 0.0000 0.0000 40.0034 0.0000 0.0000
# 5 0.0000 0.0000 0.0000 0.0000 28.1635 0.0000
# 6 0.0000 0.0000 0.0000 0.0000 0.0000 40.4405
#
#
#
# Elastic Compliance Matrix: (Units=1/GPa)
#
#
# Indices 1 2 3 4 5 6 
#
# 1 0.007663 -0.002426 -0.001675 0.000000 0.000000 0.000000
# 2 -0.002426 0.006379 -0.001196 0.000000 0.000000 0.000000
# 3 -0.001675 -0.001196 0.008659 0.000000 0.000000 0.000000
# 4 0.000000 0.000000 0.000000 0.024998 0.000000 0.000000
# 5 0.000000 0.000000 0.000000 0.000000 0.035507 0.000000
# 6 0.000000 0.000000 0.000000 0.000000 0.000000 0.024728
#
#
# Mechanical properties :
#
#
# Convention : Reuss Voigt Hill
#
# Bulk Modulus (GPa) = 82.60795 86.57632 84.59213
# Shear Modulus (GPa) = 40.79517 43.80018 42.29767
#
# Velocity S-wave (km/s) = 4.27862 4.43340 4.35670
# Velocity P-wave (km/s) = 7.84083 8.06581 7.95411
#
# Compressibility (1/GPa) = 0.01210537
#
# Stress axis : x y z
#
# Youngs Moduli (GPa) = 130.50139 156.76285 115.48900
#
# Poissons Ratio (x) = 0.38038 0.19345
# Poissons Ratio (y) = 0.31666 0.13814
# Poissons Ratio (z) = 0.21860 0.18751
#
# Static dielectric constant tensor:
#      x y z
#    x 1.829860 0.000000 0.000000 
#    y 0.000000 1.883130 0.000000 
#    z 0.000000 0.000000 1.875080 
# 
# From -- ./inp_files/31295.got.cif
#   From: 2010.05.17/outbox.cif.g08.bks.cpg/sg20_16_cif.got.tgz:31295.got - 2010.06.03 22:52:26.
