data_PCOD9320263
_publ_section_title
;
Structure prediction by ZEFSAII (Michael W. Deem and Ramdas Pophale) SiO2 
 PCOD9320263
Probable space group: C 2 2 21
;
_chemical_formula_sum "Si O2"
_cell_formula_units_Z 48
_cell_length_a 13.652029
_cell_length_b 9.378162
_cell_length_c 17.013082
_cell_angle_alpha 90.000000
_cell_angle_beta 90.000000
_cell_angle_gamma 90.000000
_cell_volume 2178.200874
_symmetry_space_group_name_H-M "C 2 2 21"
_symmetry_group_IT_number 20
_symmetry_cell_setting 'orthorhombic'
loop_
_space_group_symop_operation_xyz
x,y,z
-x,-y,1/2+z
x,-y,-z
-x,y,1/2-z
1/2+x,1/2+y,z
1/2-x,1/2-y,1/2+z
1/2+x,1/2-y,-z
1/2-x,1/2+y,1/2-z
loop_
_atom_site_type_symbol
_atom_site_label
_atom_site_fract_x
_atom_site_fract_y
_atom_site_fract_z
Si Si1 0.691713 0.106478 0.673936
Si Si2 0.473268 0.731162 0.627608
Si Si3 0.816552 0.112818 0.928147
Si Si4 0.705319 0.409762 0.716319
Si Si5 0.000000 0.991580 0.750000
Si Si6 0.704360 0.341070 0.021414
Si Si7 0.500000 0.017406 0.250000
O O1 0.741174 0.250149 0.706909
O O2 0.704068 0.131789 0.581359
O O3 0.753748 0.972822 0.703678
O O4 0.587053 0.075697 0.712967
O O5 0.581433 0.692183 0.594158
O O6 0.455406 0.597525 0.685443
O O7 0.387830 0.731785 0.563948
O O8 0.470553 0.874498 0.679453
O O9 0.775353 0.019691 0.854978
O O10 0.742181 0.235786 0.954577
O O11 0.831282 0.000000 0.000000
O O12 0.587913 0.401567 0.715868
O O13 0.671643 0.500000 0.000000
#
# Coordination Sequence:
#
# PCOD9320263 Si02
#       7
#     8   8   8   8   4   8   4
#     4  12  25  44  69 102 135 178 230 284 346 413
#     4  10  22  44  69  99 134 181 224 282 346 404
#     4  11  24  45  68  99 142 183 230 283 345 419
#     4  11  24  42  71  98 132 179 232 281 342 409
#     4   9  19  38  70  94 128 172 224 278 326 402
#     4  12  25  44  69 105 140 184 230 283 352 415
#     4  11  25  44  70 102 138 176 234 292 340 408
#
# _framework density 22.036535000000001
#
# number of rings (size 3 to 8) (size 9 to 14) (size 15 to 20)
#    0.000    1.000    3.333    3.000    7.000    0.000 
#    3.000    0.833    0.000    0.000    0.000    0.000 
#    0.000    0.000    0.000    0.000    0.000    0.000 
#
# Total GULP energy -134090.742192 kJ/mol
# GULP energy per Si atom -5587.114258 kJ/mol
# Density = 2.198638 g / cm^3
# Si number density = 22.036535 Si / 1000 Ang^3
#
#
#
# Elastic Constant Matrix: (Units=GPa)
#
#
# Indices 1 2 3 4 5 6 
#
# 1 81.9059 21.3787 8.1722 0.0000 0.0000 0.0000
# 2 21.3787 121.1738 29.4790 0.0000 0.0000 0.0000
# 3 8.1722 29.4790 50.0800 0.0000 0.0000 0.0000
# 4 0.0000 0.0000 0.0000 31.8359 0.0000 0.0000
# 5 0.0000 0.0000 0.0000 0.0000 41.2249 0.0000
# 6 0.0000 0.0000 0.0000 0.0000 0.0000 14.8758
#
#
#
# Elastic Compliance Matrix: (Units=1/GPa)
#
#
# Indices 1 2 3 4 5 6 
#
# 1 0.012832 -0.002048 -0.000889 0.000000 0.000000 0.000000
# 2 -0.002048 0.009959 -0.005528 0.000000 0.000000 0.000000
# 3 -0.000889 -0.005528 0.023367 0.000000 0.000000 0.000000
# 4 0.000000 0.000000 0.000000 0.031411 0.000000 0.000000
# 5 0.000000 0.000000 0.000000 0.000000 0.024257 0.000000
# 6 0.000000 0.000000 0.000000 0.000000 0.000000 0.067223
#
#
# Mechanical properties :
#
#
# Convention : Reuss Voigt Hill
#
# Bulk Modulus (GPa) = 34.21217 41.24661 37.72939
# Shear Modulus (GPa) = 25.54650 30.52929 28.03789
#
# Velocity S-wave (km/s) = 3.40851 3.72613 3.57085
# Velocity P-wave (km/s) = 5.57221 6.10492 5.84464
#
# Compressibility (1/GPa) = 0.02922937
#
# Stress axis : x y z
#
# Youngs Moduli (GPa) = 77.92834 100.41436 42.79540
#
# Poissons Ratio (x) = 0.20563 0.03803
# Poissons Ratio (y) = 0.15958 0.23657
# Poissons Ratio (z) = 0.06925 0.55508
#
# Static dielectric constant tensor:
#      x y z
#    x 1.859190 0.000000 0.000000 
#    y 0.000000 1.767110 0.000000 
#    z 0.000000 0.000000 1.830680 
# 
# From -- ./inp_files/23512.got.cif
#   From: 2010.05.17/outbox.cif.g08.bks.cpg/sg20_12_cif.got.tgz:23512.got - 2010.06.03 22:52:26.
