data_PCOD9320635
_publ_section_title
;
Structure prediction by ZEFSAII (Michael W. Deem and Ramdas Pophale) SiO2 
 PCOD9320635
Probable space group: C 2 2 21
;
_chemical_formula_sum "Si O2"
_cell_formula_units_Z 32
_cell_length_a 22.259962
_cell_length_b 8.285312
_cell_length_c 8.486310
_cell_angle_alpha 90.000000
_cell_angle_beta 90.000000
_cell_angle_gamma 90.000000
_cell_volume 1565.136351
_symmetry_space_group_name_H-M "C 2 2 21"
_symmetry_group_IT_number 20
_symmetry_cell_setting 'orthorhombic'
loop_
_space_group_symop_operation_xyz
x,y,z
-x,-y,1/2+z
x,-y,-z
-x,y,1/2-z
1/2+x,1/2+y,z
1/2-x,1/2-y,1/2+z
1/2+x,1/2-y,-z
1/2-x,1/2+y,1/2-z
loop_
_atom_site_type_symbol
_atom_site_label
_atom_site_fract_x
_atom_site_fract_y
_atom_site_fract_z
Si Si1 0.436841 0.065639 0.183879
Si Si2 0.314501 0.439874 0.824398
Si Si3 0.937760 0.939672 0.319040
Si Si4 0.690412 0.941128 0.320216
O O1 0.500000 0.999494 0.250000
O O2 0.437028 0.254913 0.243306
O O3 0.372877 0.003622 0.248507
O O4 0.436346 0.000000 0.000000
O O5 0.373023 0.495542 0.731545
O O6 0.311921 0.249259 0.819324
O O7 0.250715 0.503730 0.764640
O O8 0.323513 0.500000 0.000000
O O9 0.000000 0.009819 0.250000
O O10 0.941906 0.000000 0.500000
O O11 0.694558 0.000000 0.500000
#
# Coordination Sequence:
#
# PCOD9320635 Si02
#       4
#     8   8   8   8
#     4  10  23  44  69 100 139 181 231 286 344 411
#     4  12  24  41  68  97 132 176 226 283 345 411
#     4  11  25  45  70 100 137 180 229 284 346 412
#     4  11  24  42  63  93 133 175 226 281 341 410
#
# _framework density 20.445502000000001
#
# number of rings (size 3 to 8) (size 9 to 14) (size 15 to 20)
#    0.000    1.000    0.000    7.500    0.000   12.000 
#    0.000    0.000    0.000    0.000    0.000    0.000 
#    0.000    0.000    0.000    0.000    0.000    0.000 
#
# Total GULP energy -89086.802698 kJ/mol
# GULP energy per Si atom -5567.925169 kJ/mol
# Density = 2.039897 g / cm^3
# Si number density = 20.445502 Si / 1000 Ang^3
#
#
#
# Elastic Constant Matrix: (Units=GPa)
#
#
# Indices 1 2 3 4 5 6 
#
# 1 227.5562 54.6493 92.0101 0.0000 0.0000 0.0000
# 2 54.6493 136.7812 43.5351 0.0000 0.0000 0.0000
# 3 92.0101 43.5351 134.2125 0.0000 0.0000 0.0000
# 4 0.0000 0.0000 0.0000 25.7445 0.0000 0.0000
# 5 0.0000 0.0000 0.0000 0.0000 38.5026 0.0000
# 6 0.0000 0.0000 0.0000 0.0000 0.0000 46.9797
#
#
#
# Elastic Compliance Matrix: (Units=1/GPa)
#
#
# Indices 1 2 3 4 5 6 
#
# 1 0.006271 -0.001268 -0.003888 0.000000 0.000000 0.000000
# 2 -0.001268 0.008409 -0.001858 0.000000 0.000000 0.000000
# 3 -0.003888 -0.001858 0.010719 0.000000 0.000000 0.000000
# 4 0.000000 0.000000 0.000000 0.038843 0.000000 0.000000
# 5 0.000000 0.000000 0.000000 0.000000 0.025972 0.000000
# 6 0.000000 0.000000 0.000000 0.000000 0.000000 0.021286
#
#
# Mechanical properties :
#
#
# Convention : Reuss Voigt Hill
#
# Bulk Modulus (GPa) = 87.94606 97.65988 92.80297
# Shear Modulus (GPa) = 38.66405 42.80240 40.73322
#
# Velocity S-wave (km/s) = 4.35337 4.58043 4.46834
# Velocity P-wave (km/s) = 8.26906 8.70881 8.49178
#
# Compressibility (1/GPa) = 0.01137061
#
# Stress axis : x y z
#
# Youngs Moduli (GPa) = 159.46260 118.91905 93.29246
#
# Poissons Ratio (x) = 0.15080 0.36270
# Poissons Ratio (y) = 0.20221 0.17337
# Poissons Ratio (z) = 0.61996 0.22099
#
# Static dielectric constant tensor:
#      x y z
#    x 1.788960 0.000000 0.000000 
#    y 0.000000 1.789660 0.000000 
#    z 0.000000 0.000000 1.753420 
# 
# From -- ./inp_files/9797.got.cif
#   From: 2010.05.17/outbox.cif.g08.bks.cpg/sg20_5_cif.got.tgz:9797.got - 2010.06.03 22:52:26.
