data_PCOD9320004
_publ_section_title
;
Structure prediction by ZEFSAII (Michael W. Deem and Ramdas Pophale) SiO2 
 PCOD9320004
Probable space group: C 2 2 21
;
_chemical_formula_sum "Si O2"
_cell_formula_units_Z 40
_cell_length_a 16.680387
_cell_length_b 9.879225
_cell_length_c 10.657744
_cell_angle_alpha 90.000000
_cell_angle_beta 90.000000
_cell_angle_gamma 90.000000
_cell_volume 1756.282133
_symmetry_space_group_name_H-M "C 2 2 21"
_symmetry_group_IT_number 20
_symmetry_cell_setting 'orthorhombic'
loop_
_space_group_symop_operation_xyz
x,y,z
-x,-y,1/2+z
x,-y,-z
-x,y,1/2-z
1/2+x,1/2+y,z
1/2-x,1/2-y,1/2+z
1/2+x,1/2-y,-z
1/2-x,1/2+y,1/2-z
loop_
_atom_site_type_symbol
_atom_site_label
_atom_site_fract_x
_atom_site_fract_y
_atom_site_fract_z
Si Si1 0.201499 0.916395 0.275671
Si Si2 0.921228 0.500000 0.500000
Si Si3 0.035394 0.093940 0.620440
Si Si4 0.655184 0.712435 0.228116
Si Si5 0.380278 0.280673 0.450961
Si Si6 0.500000 0.132287 0.750000
O O1 0.126804 0.863935 0.358925
O O2 0.282580 0.834595 0.295381
O O3 0.175455 0.868690 0.136741
O O4 0.195894 0.079264 0.287351
O O5 0.865127 0.621858 0.453474
O O6 0.970672 0.448287 0.375986
O O7 0.000000 0.029243 0.750000
O O8 0.971710 0.211124 0.596533
O O9 0.031094 0.000000 0.500000
O O10 0.576201 0.775710 0.291368
O O11 0.625382 0.666647 0.091373
#
# Coordination Sequence:
#
# PCOD9320004 Si02
#       6
#     8   4   8   8   8   4
#     4  11  26  43  75 104 149 186 248 305 374 434
#     4  10  24  42  78 102 148 190 252 298 362 438
#     4  10  22  41  73 104 138 189 244 294 362 440
#     4  11  26  47  71 110 149 192 248 309 371 441
#     4  10  23  44  70 101 148 194 240 302 369 439
#     4  10  26  48  74 106 152 202 252 300 374 448
#
# _framework density 22.775383999999999
#
# number of rings (size 3 to 8) (size 9 to 14) (size 15 to 20)
#    0.000    1.600    0.000    3.000   19.600    1.600 
#    5.400    0.000    0.000    0.000    0.000    0.000 
#    0.000    0.000    0.000    0.000    0.000    0.000 
#
# Total GULP energy -111621.845170 kJ/mol
# GULP energy per Si atom -5581.092259 kJ/mol
# Density = 2.272355 g / cm^3
# Si number density = 22.775384 Si / 1000 Ang^3
#
#
#
# Elastic Constant Matrix: (Units=GPa)
#
#
# Indices 1 2 3 4 5 6 
#
# 1 139.7234 48.0024 11.3625 0.0000 0.0000 0.0000
# 2 48.0024 119.7996 12.3306 0.0000 0.0000 0.0000
# 3 11.3625 12.3306 81.9030 0.0000 0.0000 0.0000
# 4 0.0000 0.0000 0.0000 30.5071 0.0000 0.0000
# 5 0.0000 0.0000 0.0000 0.0000 24.5928 0.0000
# 6 0.0000 0.0000 0.0000 0.0000 0.0000 38.1455
#
#
#
# Elastic Compliance Matrix: (Units=1/GPa)
#
#
# Indices 1 2 3 4 5 6 
#
# 1 0.008335 -0.003271 -0.000664 0.000000 0.000000 0.000000
# 2 -0.003271 0.009763 -0.001016 0.000000 0.000000 0.000000
# 3 -0.000664 -0.001016 0.012455 0.000000 0.000000 0.000000
# 4 0.000000 0.000000 0.000000 0.032779 0.000000 0.000000
# 5 0.000000 0.000000 0.000000 0.000000 0.040662 0.000000
# 6 0.000000 0.000000 0.000000 0.000000 0.000000 0.026215
#
#
# Mechanical properties :
#
#
# Convention : Reuss Voigt Hill
#
# Bulk Modulus (GPa) = 48.42640 53.86859 51.14749
# Shear Modulus (GPa) = 34.01487 36.63113 35.32300
#
# Velocity S-wave (km/s) = 3.86877 4.01479 3.94246
# Velocity P-wave (km/s) = 6.42380 6.72271 6.57496
#
# Compressibility (1/GPa) = 0.02064990
#
# Stress axis : x y z
#
# Youngs Moduli (GPa) = 119.97794 102.43132 80.29163
#
# Poissons Ratio (x) = 0.33509 0.05330
# Poissons Ratio (y) = 0.39249 0.08157
# Poissons Ratio (z) = 0.07964 0.10406
#
# Static dielectric constant tensor:
#      x y z
#    x 1.868120 0.000000 0.000000 
#    y 0.000000 1.886130 0.000000 
#    z 0.000000 0.000000 1.871140 
# 
# From -- ./inp_files/12753.got.cif
#   From: 2010.05.17/outbox.cif.g08.bks.cpg/sg20_7_cif.got.tgz:12753.got - 2010.06.03 22:52:26.
