data_PCOD9320427
_publ_section_title
;
Structure prediction by ZEFSAII (Michael W. Deem and Ramdas Pophale) SiO2 
 PCOD9320427
Probable space group: C 2 2 21
;
_chemical_formula_sum "Si O2"
_cell_formula_units_Z 52
_cell_length_a 23.594961
_cell_length_b 9.528592
_cell_length_c 10.474869
_cell_angle_alpha 90.000000
_cell_angle_beta 90.000000
_cell_angle_gamma 90.000000
_cell_volume 2355.030823
_symmetry_space_group_name_H-M "C 2 2 21"
_symmetry_group_IT_number 20
_symmetry_cell_setting 'orthorhombic'
loop_
_space_group_symop_operation_xyz
x,y,z
-x,-y,1/2+z
x,-y,-z
-x,y,1/2-z
1/2+x,1/2+y,z
1/2-x,1/2-y,1/2+z
1/2+x,1/2-y,-z
1/2-x,1/2+y,1/2-z
loop_
_atom_site_type_symbol
_atom_site_label
_atom_site_fract_x
_atom_site_fract_y
_atom_site_fract_z
Si Si1 0.525306 0.274170 0.388837
Si Si2 0.550251 0.500000 0.000000
Si Si3 0.450094 0.000000 0.000000
Si Si4 0.645857 0.136260 0.660543
Si Si5 0.295341 0.596896 0.252808
Si Si6 0.672851 0.913082 0.870330
Si Si7 0.121911 0.867062 0.224072
Si Si8 0.256529 0.000000 0.000000
O O1 0.500000 0.307593 0.250000
O O2 0.492610 0.366642 0.493766
O O3 0.589364 0.318599 0.352892
O O4 0.516412 0.109810 0.414548
O O5 0.588773 0.527354 0.873806
O O6 0.409740 0.106595 0.921799
O O7 0.658093 0.288036 0.717234
O O8 0.701265 0.099831 0.577352
O O9 0.645351 0.018369 0.768494
O O10 0.237073 0.616302 0.176305
O O11 0.321543 0.444163 0.229868
O O12 0.279679 0.592583 0.402599
O O13 0.637998 0.768855 0.860084
O O14 0.673303 0.000000 0.000000
#
# Coordination Sequence:
#
# PCOD9320427 Si02
#       8
#     8   4   4   8   8   8   8   4
#     4  10  24  49  69 102 131 172 235 301 358 409
#     4  10  25  48  75  90 124 187 226 301 350 410
#     4  11  22  48  71  96 136 169 222 300 355 430
#     4  10  23  39  66  96 130 191 229 276 358 406
#     4  11  24  39  68 102 139 197 232 280 345 425
#     4  11  24  41  64 102 150 190 236 280 343 427
#     4  11  24  47  66 100 145 179 231 301 346 414
#     4   9  21  42  58  90 146 176 238 289 313 420
#
# _framework density 22.080390999999999
#
# number of rings (size 3 to 8) (size 9 to 14) (size 15 to 20)
#    0.000    1.538    1.538    2.308    8.615    1.231 
#    8.308    0.000    0.000    0.000    0.000    0.000 
#    0.000    0.000    0.000    0.000    0.000    0.000 
#
# Total GULP energy -145132.701959 kJ/mol
# GULP energy per Si atom -5582.026998 kJ/mol
# Density = 2.203013 g / cm^3
# Si number density = 22.080391 Si / 1000 Ang^3
#
#
#
# Elastic Constant Matrix: (Units=GPa)
#
#
# Indices 1 2 3 4 5 6 
#
# 1 42.0428 20.9884 19.8019 0.0000 0.0000 0.0000
# 2 20.9884 108.2304 39.1033 0.0000 0.0000 0.0000
# 3 19.8019 39.1033 62.1948 0.0000 0.0000 0.0000
# 4 0.0000 0.0000 0.0000 35.2328 0.0000 0.0000
# 5 0.0000 0.0000 0.0000 0.0000 6.1159 0.0000
# 6 0.0000 0.0000 0.0000 0.0000 0.0000 46.3100
#
#
#
# Elastic Compliance Matrix: (Units=1/GPa)
#
#
# Indices 1 2 3 4 5 6 
#
# 1 0.028681 -0.002928 -0.007291 0.000000 0.000000 0.000000
# 2 -0.002928 0.012254 -0.006772 0.000000 0.000000 0.000000
# 3 -0.007291 -0.006772 0.022658 0.000000 0.000000 0.000000
# 4 0.000000 0.000000 0.000000 0.028383 0.000000 0.000000
# 5 0.000000 0.000000 0.000000 0.000000 0.163508 0.000000
# 6 0.000000 0.000000 0.000000 0.000000 0.000000 0.021594
#
#
# Mechanical properties :
#
#
# Convention : Reuss Voigt Hill
#
# Bulk Modulus (GPa) = 33.77134 41.36171 37.56652
# Shear Modulus (GPa) = 15.57978 26.37003 20.97490
#
# Velocity S-wave (km/s) = 2.65918 3.45958 3.08544
# Velocity P-wave (km/s) = 4.97557 5.89332 5.45378
#
# Compressibility (1/GPa) = 0.02961091
#
# Stress axis : x y z
#
# Youngs Moduli (GPa) = 34.86654 81.60524 44.13514
#
# Poissons Ratio (x) = 0.23892 0.32178
# Poissons Ratio (y) = 0.10208 0.29890
# Poissons Ratio (z) = 0.25421 0.55265
#
# Static dielectric constant tensor:
#      x y z
#    x 1.974950 0.000000 0.000000 
#    y 0.000000 1.792430 0.000000 
#    z 0.000000 0.000000 1.888850 
# 
# From -- ./inp_files/17060.got.cif
#   From: 2010.05.17/outbox.cif.g08.bks.cpg/sg20_9_cif.got.tgz:17060.got - 2010.06.03 22:52:26.
