data_PCOD9320022
_publ_section_title
;
Structure prediction by ZEFSAII (Michael W. Deem and Ramdas Pophale) SiO2 
 PCOD9320022
Probable space group: C 2 2 21
;
_chemical_formula_sum "Si O2"
_cell_formula_units_Z 48
_cell_length_a 9.350428
_cell_length_b 9.895035
_cell_length_c 26.329644
_cell_angle_alpha 90.000000
_cell_angle_beta 90.000000
_cell_angle_gamma 90.000000
_cell_volume 2436.092710
_symmetry_space_group_name_H-M "C 2 2 21"
_symmetry_group_IT_number 20
_symmetry_cell_setting 'orthorhombic'
loop_
_space_group_symop_operation_xyz
x,y,z
-x,-y,1/2+z
x,-y,-z
-x,y,1/2-z
1/2+x,1/2+y,z
1/2-x,1/2-y,1/2+z
1/2+x,1/2-y,-z
1/2-x,1/2+y,1/2-z
loop_
_atom_site_type_symbol
_atom_site_label
_atom_site_fract_x
_atom_site_fract_y
_atom_site_fract_z
Si Si1 0.331368 0.134633 0.966079
Si Si2 0.924403 0.798106 0.303925
Si Si3 0.285339 0.984620 0.140999
Si Si4 0.165004 0.358263 0.029435
Si Si5 0.285379 0.699714 0.861869
Si Si6 0.078568 0.511308 0.803398
O O1 0.268515 0.094190 0.911628
O O2 0.498016 0.175824 0.961313
O O3 0.239995 0.247641 0.994121
O O4 0.328984 0.000000 0.000000
O O5 0.804503 0.906601 0.316595
O O6 0.866998 0.643795 0.302724
O O7 0.000000 0.821565 0.250000
O O8 0.048401 0.807235 0.346567
O O9 0.452337 0.982011 0.155187
O O10 0.243673 0.141860 0.137457
O O11 0.246590 0.360833 0.083312
O O12 0.171437 0.500000 0.000000
O O13 0.197647 0.617605 0.819431
O O14 0.000000 0.537578 0.750000
#
# Coordination Sequence:
#
# PCOD9320022 Si02
#       6
#     8   8   8   8   8   8
#     4  11  24  43  61  89 126 158 205 257 311 366
#     4  10  24  41  64  94 127 165 207 258 312 370
#     4  11  23  39  65  90 124 163 201 259 312 366
#     4  11  26  41  65  92 123 165 209 257 311 376
#     4  11  23  41  62  95 124 160 211 254 311 374
#     4  10  22  42  63  88 126 164 207 258 311 368
#
# _framework density 19.703685
#
# number of rings (size 3 to 8) (size 9 to 14) (size 15 to 20)
#    0.000    1.333    3.333    1.000    4.667    4.000 
#    0.000    0.000    0.000    0.000    0.000    0.000 
#    0.000    0.000    0.000    0.000    0.000    0.000 
#
# Total GULP energy -134145.468534 kJ/mol
# GULP energy per Si atom -5589.394522 kJ/mol
# Density = 1.965884 g / cm^3
# Si number density = 19.703685 Si / 1000 Ang^3
#
#
#
# Elastic Constant Matrix: (Units=GPa)
#
#
# Indices 1 2 3 4 5 6 
#
# 1 52.9384 41.8046 -1.2087 0.0000 0.0000 0.0000
# 2 41.8046 72.2762 17.9737 0.0000 0.0000 0.0000
# 3 -1.2087 17.9737 66.1903 0.0000 0.0000 0.0000
# 4 0.0000 0.0000 0.0000 34.6648 0.0000 0.0000
# 5 0.0000 0.0000 0.0000 0.0000 37.7230 0.0000
# 6 0.0000 0.0000 0.0000 0.0000 0.0000 18.7909
#
#
#
# Elastic Compliance Matrix: (Units=1/GPa)
#
#
# Indices 1 2 3 4 5 6 
#
# 1 0.037627 -0.023523 0.007075 0.000000 0.000000 0.000000
# 2 -0.023523 0.029543 -0.008452 0.000000 0.000000 0.000000
# 3 0.007075 -0.008452 0.017532 0.000000 0.000000 0.000000
# 4 0.000000 0.000000 0.000000 0.028848 0.000000 0.000000
# 5 0.000000 0.000000 0.000000 0.000000 0.026509 0.000000
# 6 0.000000 0.000000 0.000000 0.000000 0.000000 0.053217
#
#
# Mechanical properties :
#
#
# Convention : Reuss Voigt Hill
#
# Bulk Modulus (GPa) = 28.65139 34.28268 31.46703
# Shear Modulus (GPa) = 19.63009 27.09141 23.36075
#
# Velocity S-wave (km/s) = 3.15979 3.71204 3.44699
# Velocity P-wave (km/s) = 5.28063 5.98408 5.64333
#
# Compressibility (1/GPa) = 0.03490232
#
# Stress axis : x y z
#
# Youngs Moduli (GPa) = 26.57659 33.84861 57.03786
#
# Poissons Ratio (x) = 0.79622 -0.40352
# Poissons Ratio (y) = 0.62516 0.48208
# Poissons Ratio (z) = -0.18802 0.28608
#
# Static dielectric constant tensor:
#      x y z
#    x 1.670230 0.000000 0.000000 
#    y 0.000000 1.659000 0.000000 
#    z 0.000000 0.000000 1.703910 
# 
# From -- ./inp_files/30941.got.cif
#   From: 2010.05.17/outbox.cif.g08.bks.cpg/sg20_16_cif.got.tgz:30941.got - 2010.06.03 22:52:26.
