data_PCOD9320481
_publ_section_title
;
Structure prediction by ZEFSAII (Michael W. Deem and Ramdas Pophale) SiO2 
 PCOD9320481
Probable space group: C 2 2 21
;
_chemical_formula_sum "Si O2"
_cell_formula_units_Z 56
_cell_length_a 11.163841
_cell_length_b 19.557238
_cell_length_c 11.900206
_cell_angle_alpha 90.000000
_cell_angle_beta 90.000000
_cell_angle_gamma 90.000000
_cell_volume 2598.218332
_symmetry_space_group_name_H-M "C 2 2 21"
_symmetry_group_IT_number 20
_symmetry_cell_setting 'orthorhombic'
loop_
_space_group_symop_operation_xyz
x,y,z
-x,-y,1/2+z
x,-y,-z
-x,y,1/2-z
1/2+x,1/2+y,z
1/2-x,1/2-y,1/2+z
1/2+x,1/2-y,-z
1/2-x,1/2+y,1/2-z
loop_
_atom_site_type_symbol
_atom_site_label
_atom_site_fract_x
_atom_site_fract_y
_atom_site_fract_z
Si Si1 0.204320 0.200967 0.943810
Si Si2 0.713228 0.922715 0.988233
Si Si3 0.128561 0.966649 0.708124
Si Si4 0.675814 0.372241 0.296459
Si Si5 0.062162 0.245494 0.566610
Si Si6 0.486503 0.889284 0.868702
Si Si7 0.749336 0.064805 0.432023
O O1 0.210981 0.167623 0.817642
O O2 0.077776 0.238913 0.966992
O O3 0.327166 0.242352 0.977701
O O4 0.197062 0.134280 0.022276
O O5 0.832778 0.936305 0.912926
O O6 0.617376 0.882698 0.917155
O O7 0.724497 0.886653 0.108061
O O8 0.665526 0.000000 0.000000
O O9 0.223886 0.943704 0.801145
O O10 0.000000 0.942152 0.750000
O O11 0.129250 0.049707 0.715112
O O12 0.585803 0.322225 0.361452
O O13 0.069510 0.313730 0.642518
O O14 0.500000 0.925062 0.750000
O O15 0.393261 0.928190 0.947105
O O16 0.797270 0.000000 0.500000
#
# Coordination Sequence:
#
# PCOD9320481 Si02
#       7
#     8   8   8   8   8   8   8
#     4  11  24  45  70 100 136 185 226 292 342 417
#     4  10  23  41  67 101 130 177 228 281 345 411
#     4  11  23  40  66 103 136 174 227 287 348 411
#     4  11  23  44  71  97 139 182 230 288 347 423
#     4  11  25  43  67  99 132 183 235 270 350 413
#     4  11  21  41  66  91 134 174 220 280 335 417
#     4  11  23  40  67  99 132 174 227 280 350 411
#
# _framework density 21.553231
#
# number of rings (size 3 to 8) (size 9 to 14) (size 15 to 20)
#    0.000    1.143    2.857    3.429    2.000    0.571 
#    0.000    6.429    3.143    0.000    0.000    0.000 
#    0.000    0.000    0.000    0.000    0.000    0.000 
#
# Total GULP energy -156001.549830 kJ/mol
# GULP energy per Si atom -5571.483922 kJ/mol
# Density = 2.150417 g / cm^3
# Si number density = 21.553231 Si / 1000 Ang^3
#
#
#
# Elastic Constant Matrix: (Units=GPa)
#
#
# Indices 1 2 3 4 5 6 
#
# 1 110.0321 30.5926 34.5188 0.0000 0.0000 0.0000
# 2 30.5926 94.2486 23.6309 0.0000 0.0000 0.0000
# 3 34.5188 23.6309 83.9120 0.0000 0.0000 0.0000
# 4 0.0000 0.0000 0.0000 29.9335 0.0000 0.0000
# 5 0.0000 0.0000 0.0000 0.0000 27.0385 0.0000
# 6 0.0000 0.0000 0.0000 0.0000 0.0000 13.6833
#
#
#
# Elastic Compliance Matrix: (Units=1/GPa)
#
#
# Indices 1 2 3 4 5 6 
#
# 1 0.011006 -0.002622 -0.003789 0.000000 0.000000 0.000000
# 2 -0.002622 0.012041 -0.002312 0.000000 0.000000 0.000000
# 3 -0.003789 -0.002312 0.014127 0.000000 0.000000 0.000000
# 4 0.000000 0.000000 0.000000 0.033407 0.000000 0.000000
# 5 0.000000 0.000000 0.000000 0.000000 0.036984 0.000000
# 6 0.000000 0.000000 0.000000 0.000000 0.000000 0.073082
#
#
# Mechanical properties :
#
#
# Convention : Reuss Voigt Hill
#
# Bulk Modulus (GPa) = 50.69199 51.74191 51.21695
# Shear Modulus (GPa) = 24.42948 27.42776 25.92862
#
# Velocity S-wave (km/s) = 3.37033 3.57116 3.47220
# Velocity P-wave (km/s) = 6.22221 6.40804 6.31581
#
# Compressibility (1/GPa) = 0.01972698
#
# Stress axis : x y z
#
# Youngs Moduli (GPa) = 90.85893 83.04808 70.78602
#
# Poissons Ratio (x) = 0.21779 0.26821
# Poissons Ratio (y) = 0.23828 0.16367
# Poissons Ratio (z) = 0.34427 0.19202
#
# Static dielectric constant tensor:
#      x y z
#    x 1.833780 0.000000 0.000000 
#    y 0.000000 1.789500 0.000000 
#    z 0.000000 0.000000 1.822660 
# 
# From -- ./inp_files/14334.got.cif
#   From: 2010.05.17/outbox.cif.g08.bks.cpg/sg20_8_cif.got.tgz:14334.got - 2010.06.03 22:52:26.
