data_PCOD9320710
_publ_section_title
;
Structure prediction by ZEFSAII (Michael W. Deem and Ramdas Pophale) SiO2 
 PCOD9320710
Probable space group: C 2 2 21
;
_chemical_formula_sum "Si O2"
_cell_formula_units_Z 40
_cell_length_a 8.857944
_cell_length_b 11.219944
_cell_length_c 18.799923
_cell_angle_alpha 90.000000
_cell_angle_beta 90.000000
_cell_angle_gamma 90.000000
_cell_volume 1868.442297
_symmetry_space_group_name_H-M "C 2 2 21"
_symmetry_group_IT_number 20
_symmetry_cell_setting 'orthorhombic'
loop_
_space_group_symop_operation_xyz
x,y,z
-x,-y,1/2+z
x,-y,-z
-x,y,1/2-z
1/2+x,1/2+y,z
1/2-x,1/2-y,1/2+z
1/2+x,1/2-y,-z
1/2-x,1/2+y,1/2-z
loop_
_atom_site_type_symbol
_atom_site_label
_atom_site_fract_x
_atom_site_fract_y
_atom_site_fract_z
Si Si1 0.608294 0.701021 0.605559
Si Si2 0.985985 0.929170 0.898748
Si Si3 0.703841 0.785487 0.862514
Si Si4 0.856687 0.239418 0.286237
Si Si5 0.253065 0.869758 0.007261
O O1 0.537738 0.570074 0.602125
O O2 0.476205 0.789448 0.632840
O O3 0.753088 0.694910 0.656851
O O4 0.662998 0.764157 0.533800
O O5 0.814743 0.881232 0.898363
O O6 0.069150 0.872671 0.828949
O O7 0.095001 0.886381 0.963138
O O8 0.750736 0.786653 0.780628
O O9 0.744634 0.669156 0.910663
O O10 0.000000 0.304608 0.250000
O O11 0.327227 0.000000 0.000000
#
# Coordination Sequence:
#
# PCOD9320710 Si02
#       5
#     8   8   8   8   8
#     4  11  23  45  69  96 138 184 229 282 355 417
#     4  10  23  46  66  94 137 187 220 289 349 420
#     4  11  22  39  68 101 127 178 233 279 342 416
#     4   9  22  43  66  98 135 176 227 281 345 408
#     4  11  23  44  66  96 142 178 223 289 352 413
#
# _framework density 21.408207000000001
#
# number of rings (size 3 to 8) (size 9 to 14) (size 15 to 20)
#    0.000    1.600    2.000    1.800    0.000    4.800 
#   14.400    0.000    0.000    0.000    0.000    0.000 
#    0.000    0.000    0.000    0.000    0.000    0.000 
#
# Total GULP energy -111372.244352 kJ/mol
# GULP energy per Si atom -5568.612218 kJ/mol
# Density = 2.135948 g / cm^3
# Si number density = 21.408207 Si / 1000 Ang^3
#
#
#
# Elastic Constant Matrix: (Units=GPa)
#
#
# Indices 1 2 3 4 5 6 
#
# 1 108.0405 47.1586 25.2281 0.0000 0.0000 0.0000
# 2 47.1586 104.1983 37.1235 0.0000 0.0000 0.0000
# 3 25.2281 37.1235 114.3940 0.0000 0.0000 0.0000
# 4 0.0000 0.0000 0.0000 12.2640 0.0000 0.0000
# 5 0.0000 0.0000 0.0000 0.0000 26.3841 0.0000
# 6 0.0000 0.0000 0.0000 0.0000 0.0000 38.6115
#
#
#
# Elastic Compliance Matrix: (Units=1/GPa)
#
#
# Indices 1 2 3 4 5 6 
#
# 1 0.011629 -0.004918 -0.000969 0.000000 0.000000 0.000000
# 2 -0.004918 0.012932 -0.003112 0.000000 0.000000 0.000000
# 3 -0.000969 -0.003112 0.009965 0.000000 0.000000 0.000000
# 4 0.000000 0.000000 0.000000 0.081540 0.000000 0.000000
# 5 0.000000 0.000000 0.000000 0.000000 0.037902 0.000000
# 6 0.000000 0.000000 0.000000 0.000000 0.000000 0.025899
#
#
# Mechanical properties :
#
#
# Convention : Reuss Voigt Hill
#
# Bulk Modulus (GPa) = 60.50157 60.62813 60.56485
# Shear Modulus (GPa) = 24.58547 29.92675 27.25611
#
# Velocity S-wave (km/s) = 3.39250 3.74292 3.57201
# Velocity P-wave (km/s) = 6.60815 6.86009 6.73530
#
# Compressibility (1/GPa) = 0.01652850
#
# Stress axis : x y z
#
# Youngs Moduli (GPa) = 85.99530 77.33019 100.34872
#
# Poissons Ratio (x) = 0.38030 0.09720
# Poissons Ratio (y) = 0.42291 0.31229
# Poissons Ratio (z) = 0.08329 0.24065
#
# Static dielectric constant tensor:
#      x y z
#    x 1.830660 0.000000 0.000000 
#    y 0.000000 1.781750 0.000000 
#    z 0.000000 0.000000 1.811660 
# 
# From -- ./inp_files/23168.got.cif
#   From: 2010.05.17/outbox.cif.g08.bks.cpg/sg20_12_cif.got.tgz:23168.got - 2010.06.03 22:52:26.
