data_PCOD9320822
_publ_section_title
;
Structure prediction by ZEFSAII (Michael W. Deem and Ramdas Pophale) SiO2 
 PCOD9320822
Probable space group: C 2 2 21
;
_chemical_formula_sum "Si O2"
_cell_formula_units_Z 36
_cell_length_a 8.002574
_cell_length_b 22.591644
_cell_length_c 7.953264
_cell_angle_alpha 90.000000
_cell_angle_beta 90.000000
_cell_angle_gamma 90.000000
_cell_volume 1437.880961
_symmetry_space_group_name_H-M "C 2 2 21"
_symmetry_group_IT_number 20
_symmetry_cell_setting 'orthorhombic'
loop_
_space_group_symop_operation_xyz
x,y,z
-x,-y,1/2+z
x,-y,-z
-x,y,1/2-z
1/2+x,1/2+y,z
1/2-x,1/2-y,1/2+z
1/2+x,1/2-y,-z
1/2-x,1/2+y,1/2-z
loop_
_atom_site_type_symbol
_atom_site_label
_atom_site_fract_x
_atom_site_fract_y
_atom_site_fract_z
Si Si1 0.821948 0.124289 0.654517
Si Si2 0.680918 0.962752 0.831268
Si Si3 0.662069 0.159007 0.984721
Si Si4 0.204942 0.000000 0.000000
Si Si5 0.499640 0.726061 0.048081
O O1 0.683675 0.134909 0.796506
O O2 0.868997 0.181129 0.540582
O O3 0.000000 0.109758 0.750000
O O4 0.755714 0.069099 0.547693
O O5 0.500000 0.977879 0.750000
O O6 0.819807 0.981649 0.697469
O O7 0.675430 0.894572 0.885890
O O8 0.704934 0.000000 0.000000
O O9 0.517430 0.206286 0.010872
O O10 0.823826 0.200174 0.995800
O O11 0.500000 0.724645 0.250000
#
# Coordination Sequence:
#
# PCOD9320822 Si02
#       5
#     8   8   8   4   8
#     4  10  24  42  67 105 146 194 249 302 366 444
#     4  12  26  46  74 109 146 194 242 301 370 445
#     4  11  25  46  73 106 151 189 251 306 369 443
#     4  12  24  44  74 100 150 196 240 300 380 434
#     4  11  24  44  70 107 146 197 250 304 380 433
#
# _framework density 25.036843000000001
#
# number of rings (size 3 to 8) (size 9 to 14) (size 15 to 20)
#    0.000    0.889    3.333    2.667    0.000   13.333 
#    0.000    0.000    0.000    0.000    0.000    0.000 
#    0.000    0.000    0.000    0.000    0.000    0.000 
#
# Total GULP energy -100379.470176 kJ/mol
# GULP energy per Si atom -5576.637232 kJ/mol
# Density = 2.497986 g / cm^3
# Si number density = 25.036843 Si / 1000 Ang^3
#
#
#
# Elastic Constant Matrix: (Units=GPa)
#
#
# Indices 1 2 3 4 5 6 
#
# 1 81.4016 9.6641 10.5713 0.0000 0.0000 0.0000
# 2 9.6641 178.9622 68.2844 0.0000 0.0000 0.0000
# 3 10.5713 68.2844 152.6656 0.0000 0.0000 0.0000
# 4 0.0000 0.0000 0.0000 36.6995 0.0000 0.0000
# 5 0.0000 0.0000 0.0000 0.0000 16.2975 0.0000
# 6 0.0000 0.0000 0.0000 0.0000 0.0000 7.2795
#
#
#
# Elastic Compliance Matrix: (Units=1/GPa)
#
#
# Indices 1 2 3 4 5 6 
#
# 1 0.012422 -0.000413 -0.000675 0.000000 0.000000 0.000000
# 2 -0.000413 0.006751 -0.002991 0.000000 0.000000 0.000000
# 3 -0.000675 -0.002991 0.007935 0.000000 0.000000 0.000000
# 4 0.000000 0.000000 0.000000 0.027248 0.000000 0.000000
# 5 0.000000 0.000000 0.000000 0.000000 0.061359 0.000000
# 6 0.000000 0.000000 0.000000 0.000000 0.000000 0.137371
#
#
# Mechanical properties :
#
#
# Convention : Reuss Voigt Hill
#
# Bulk Modulus (GPa) = 52.77431 65.56322 59.16877
# Shear Modulus (GPa) = 18.68727 33.68930 26.18828
#
# Velocity S-wave (km/s) = 2.73498 3.67221 3.23769
# Velocity P-wave (km/s) = 5.57655 6.65009 6.13684
#
# Compressibility (1/GPa) = 0.01894861
#
# Stress axis : x y z
#
# Youngs Moduli (GPa) = 80.50540 148.11797 126.02532
#
# Poissons Ratio (x) = 0.06118 0.08511
# Poissons Ratio (y) = 0.03326 0.37696
# Poissons Ratio (z) = 0.05437 0.44304
#
# Static dielectric constant tensor:
#      x y z
#    x 2.103300 0.000000 0.000000 
#    y 0.000000 1.943790 0.000000 
#    z 0.000000 0.000000 1.867250 
# 
# From -- ./inp_files/5908.got.cif
#   From: 2010.05.17/outbox.cif.g08.bks.cpg/sg20_3_cif.got.tgz:5908.got - 2010.06.03 22:52:26.
