data_PCOD9320589
_publ_section_title
;
Structure prediction by ZEFSAII (Michael W. Deem and Ramdas Pophale) SiO2 
 PCOD9320589
Probable space group: C 2 2 21
;
_chemical_formula_sum "Si O2"
_cell_formula_units_Z 36
_cell_length_a 5.303663
_cell_length_b 18.786084
_cell_length_c 14.871123
_cell_angle_alpha 90.000000
_cell_angle_beta 90.000000
_cell_angle_gamma 90.000000
_cell_volume 1481.685212
_symmetry_space_group_name_H-M "C 2 2 21"
_symmetry_group_IT_number 20
_symmetry_cell_setting 'orthorhombic'
loop_
_space_group_symop_operation_xyz
x,y,z
-x,-y,1/2+z
x,-y,-z
-x,y,1/2-z
1/2+x,1/2+y,z
1/2-x,1/2-y,1/2+z
1/2+x,1/2-y,-z
1/2-x,1/2+y,1/2-z
loop_
_atom_site_type_symbol
_atom_site_label
_atom_site_fract_x
_atom_site_fract_y
_atom_site_fract_z
Si Si1 0.131302 0.245931 0.347043
Si Si2 0.500000 0.656655 0.750000
Si Si3 0.609859 0.114902 0.891279
Si Si4 0.246037 0.088326 0.408370
Si Si5 0.748027 0.991424 0.607405
O O1 0.379769 0.289965 0.323102
O O2 0.183695 0.169937 0.388190
O O3 0.000000 0.236287 0.250000
O O4 0.968380 0.302585 0.404026
O O5 0.299814 0.613402 0.808339
O O6 0.364377 0.068044 0.866304
O O7 0.728505 0.084127 0.982719
O O8 0.518132 0.063084 0.372011
O O9 0.018693 0.040895 0.368053
O O10 0.763923 0.000000 0.500000
#
# Coordination Sequence:
#
# PCOD9320589 Si02
#       5
#     8   4   8   8   8
#     4  10  25  45  67 103 146 186 239 300 354 433
#     4  10  24  44  72 102 148 180 252 294 356 436
#     4  10  24  43  74 101 142 192 239 294 362 430
#     4  11  25  42  75 102 141 183 237 293 356 420
#     4  10  23  43  68 103 138 177 231 295 345 421
#
# _framework density 24.296659999999999
#
# number of rings (size 3 to 8) (size 9 to 14) (size 15 to 20)
#    0.000    1.778    0.000    2.000   18.667    0.000 
#    2.000    0.000    0.000    0.000    0.000    0.000 
#    0.000    0.000    0.000    0.000    0.000    0.000 
#
# Total GULP energy -100684.250828 kJ/mol
# GULP energy per Si atom -5593.569490 kJ/mol
# Density = 2.424136 g / cm^3
# Si number density = 24.296660 Si / 1000 Ang^3
#
#
#
# Elastic Constant Matrix: (Units=GPa)
#
#
# Indices 1 2 3 4 5 6 
#
# 1 135.1425 49.3183 18.0953 0.0000 0.0000 0.0000
# 2 49.3183 172.9854 28.7807 0.0000 0.0000 0.0000
# 3 18.0953 28.7807 48.4109 0.0000 0.0000 0.0000
# 4 0.0000 0.0000 0.0000 -15.3495 0.0000 0.0000
# 5 0.0000 0.0000 0.0000 0.0000 26.4410 0.0000
# 6 0.0000 0.0000 0.0000 0.0000 0.0000 34.1626
#
#
#
# Elastic Compliance Matrix: (Units=1/GPa)
#
#
# Indices 1 2 3 4 5 6 
#
# 1 0.008415 -0.002082 -0.001908 0.000000 0.000000 0.000000
# 2 -0.002082 0.006930 -0.003342 0.000000 0.000000 0.000000
# 3 -0.001908 -0.003342 0.023356 0.000000 0.000000 0.000000
# 4 0.000000 0.000000 0.000000 -0.065149 0.000000 0.000000
# 5 0.000000 0.000000 0.000000 0.000000 0.037820 0.000000
# 6 0.000000 0.000000 0.000000 0.000000 0.000000 0.029272
#
#
# Mechanical properties :
#
#
# Convention : Reuss Voigt Hill
#
# Bulk Modulus (GPa) = 41.59971 60.99194 51.29583
# Shear Modulus (GPa) = 78.96325 26.40712 52.68518
#
# Velocity S-wave (km/s) = 5.70703 3.30034 4.66167
# Velocity P-wave (km/s) = 7.78368 6.29924 7.08047
#
# Compressibility (1/GPa) = 0.02403863
#
# Stress axis : x y z
#
# Youngs Moduli (GPa) = 118.83958 144.29281 42.81471
#
# Poissons Ratio (x) = 0.30037 0.08168
# Poissons Ratio (y) = 0.24738 0.14309
# Poissons Ratio (z) = 0.22672 0.48224
#
# Static dielectric constant tensor:
#      x y z
#    x 2.017900 0.000000 0.000000 
#    y 0.000000 1.933350 0.000000 
#    z 0.000000 0.000000 1.951100 
# 
# From -- ./inp_files/22714.got.cif
#   From: 2010.05.17/outbox.cif.g08.bks.cpg/sg20_12_cif.got.tgz:22714.got - 2010.06.03 22:52:26.
