data_PCOD9320736
_publ_section_title
;
Structure prediction by ZEFSAII (Michael W. Deem and Ramdas Pophale) SiO2 
 PCOD9320736
Probable space group: C 2 2 21
;
_chemical_formula_sum "Si O2"
_cell_formula_units_Z 64
_cell_length_a 9.524892
_cell_length_b 10.933686
_cell_length_c 29.354016
_cell_angle_alpha 90.000000
_cell_angle_beta 90.000000
_cell_angle_gamma 90.000000
_cell_volume 3056.991168
_symmetry_space_group_name_H-M "C 2 2 21"
_symmetry_group_IT_number 20
_symmetry_cell_setting 'orthorhombic'
loop_
_space_group_symop_operation_xyz
x,y,z
-x,-y,1/2+z
x,-y,-z
-x,y,1/2-z
1/2+x,1/2+y,z
1/2-x,1/2-y,1/2+z
1/2+x,1/2-y,-z
1/2-x,1/2+y,1/2-z
loop_
_atom_site_type_symbol
_atom_site_label
_atom_site_fract_x
_atom_site_fract_y
_atom_site_fract_z
Si Si1 0.843699 0.192862 0.361234
Si Si2 0.077391 0.902029 0.701464
Si Si3 0.820353 0.318450 0.458464
Si Si4 0.187181 0.930004 0.109915
Si Si5 0.656278 0.254102 0.195629
Si Si6 0.367495 0.207082 0.964369
Si Si7 0.577431 0.487046 0.551204
Si Si8 0.862220 0.822410 0.204812
O O1 0.845004 0.255266 0.410061
O O2 0.760709 0.279130 0.326971
O O3 0.992297 0.167236 0.337625
O O4 0.772648 0.060067 0.368032
O O5 0.236938 0.857072 0.700380
O O6 0.000000 0.880700 0.750000
O O7 0.076868 0.045976 0.691987
O O8 0.732512 0.231094 0.492281
O O9 0.721607 0.435818 0.450120
O O10 0.976953 0.339514 0.477589
O O11 0.181672 0.829699 0.149757
O O12 0.292730 0.881886 0.071324
O O13 0.035805 0.957296 0.085958
O O14 0.490563 0.227608 0.198281
O O15 0.681009 0.330075 0.242358
O O16 0.387845 0.344015 0.943167
O O17 0.515865 0.500000 0.500000
#
# Coordination Sequence:
#
# PCOD9320736 Si02
#       8
#     8   8   8   8   8   8   8   8
#     4  12  25  44  70 103 137 184 232 282 349 419
#     4  12  23  48  73  96 140 184 227 284 351 416
#     4  11  24  44  72 101 138 185 235 289 352 414
#     4  12  24  44  72  99 142 180 233 285 352 417
#     4  11  24  42  70 101 129 179 226 281 344 409
#     4  11  24  47  67 102 142 181 235 290 350 417
#     4  10  23  47  70  99 139 186 232 287 352 416
#     4  11  24  47  67  99 140 175 229 283 343 412
#
# _framework density 20.935618000000002
#
# number of rings (size 3 to 8) (size 9 to 14) (size 15 to 20)
#    0.000    0.750    5.000    3.000    0.000    0.000 
#   15.750    0.000    0.000    0.000    0.000    0.000 
#    0.000    0.000    0.000    0.000    0.000    0.000 
#
# Total GULP energy -178823.274355 kJ/mol
# GULP energy per Si atom -5588.227324 kJ/mol
# Density = 2.088797 g / cm^3
# Si number density = 20.935618 Si / 1000 Ang^3
#
#
#
# Elastic Constant Matrix: (Units=GPa)
#
#
# Indices 1 2 3 4 5 6 
#
# 1 123.3682 24.6840 47.6433 0.0000 0.0000 0.0000
# 2 24.6840 41.8989 8.2476 0.0000 0.0000 0.0000
# 3 47.6433 8.2476 108.8985 0.0000 0.0000 0.0000
# 4 0.0000 0.0000 0.0000 31.1778 0.0000 0.0000
# 5 0.0000 0.0000 0.0000 0.0000 38.0340 0.0000
# 6 0.0000 0.0000 0.0000 0.0000 0.0000 40.0595
#
#
#
# Elastic Compliance Matrix: (Units=1/GPa)
#
#
# Indices 1 2 3 4 5 6 
#
# 1 0.010898 -0.005565 -0.004346 0.000000 0.000000 0.000000
# 2 -0.005565 0.027070 0.000384 0.000000 0.000000 0.000000
# 3 -0.004346 0.000384 0.011055 0.000000 0.000000 0.000000
# 4 0.000000 0.000000 0.000000 0.032074 0.000000 0.000000
# 5 0.000000 0.000000 0.000000 0.000000 0.026292 0.000000
# 6 0.000000 0.000000 0.000000 0.000000 0.000000 0.024963
#
#
# Mechanical properties :
#
#
# Convention : Reuss Voigt Hill
#
# Bulk Modulus (GPa) = 33.36730 48.36836 40.86783
# Shear Modulus (GPa) = 30.97993 34.76031 32.87012
#
# Velocity S-wave (km/s) = 3.85095 4.07915 3.96669
# Velocity P-wave (km/s) = 5.97878 6.73346 6.36731
#
# Compressibility (1/GPa) = 0.02996946
#
# Stress axis : x y z
#
# Youngs Moduli (GPa) = 91.76237 36.94175 90.45453
#
# Poissons Ratio (x) = 0.20557 0.39314
# Poissons Ratio (y) = 0.51063 -0.03477
# Poissons Ratio (z) = 0.39883 -0.01420
#
# Static dielectric constant tensor:
#      x y z
#    x 1.762630 0.000000 0.000000 
#    y 0.000000 1.752800 0.000000 
#    z 0.000000 0.000000 1.774760 
# 
# From -- ./inp_files/31089.got.cif
#   From: 2010.05.17/outbox.cif.g08.bks.cpg/sg20_16_cif.got.tgz:31089.got - 2010.06.03 22:52:26.
