data_PCOD9320172
_publ_section_title
;
Structure prediction by ZEFSAII (Michael W. Deem and Ramdas Pophale) SiO2 
 PCOD9320172
Probable space group: C 2 2 21
;
_chemical_formula_sum "Si O2"
_cell_formula_units_Z 48
_cell_length_a 19.301332
_cell_length_b 13.518869
_cell_length_c 7.705750
_cell_angle_alpha 90.000000
_cell_angle_beta 90.000000
_cell_angle_gamma 90.000000
_cell_volume 2010.678137
_symmetry_space_group_name_H-M "C 2 2 21"
_symmetry_group_IT_number 20
_symmetry_cell_setting 'orthorhombic'
loop_
_space_group_symop_operation_xyz
x,y,z
-x,-y,1/2+z
x,-y,-z
-x,y,1/2-z
1/2+x,1/2+y,z
1/2-x,1/2-y,1/2+z
1/2+x,1/2-y,-z
1/2-x,1/2+y,1/2-z
loop_
_atom_site_type_symbol
_atom_site_label
_atom_site_fract_x
_atom_site_fract_y
_atom_site_fract_z
Si Si1 0.964424 0.739701 0.063986
Si Si2 0.687814 0.500000 0.500000
Si Si3 0.101790 0.707837 0.908190
Si Si4 0.264251 0.000000 0.000000
Si Si5 0.829924 0.657683 0.225620
Si Si6 0.425690 0.596817 0.210581
Si Si7 0.761827 0.651626 0.728496
O O1 0.895099 0.681283 0.103468
O O2 0.000000 0.762411 0.250000
O O3 0.941631 0.836370 0.958808
O O4 0.021187 0.683276 0.945098
O O5 0.637499 0.471615 0.658991
O O6 0.733977 0.590440 0.563609
O O7 0.095501 0.824345 0.858887
O O8 0.154703 0.661512 0.769184
O O9 0.139186 0.675776 0.084460
O O10 0.303002 0.948040 0.837255
O O11 0.233636 0.095110 0.899625
O O12 0.770149 0.739772 0.210342
O O13 0.500000 0.547369 0.250000
#
# Coordination Sequence:
#
# PCOD9320172 Si02
#       7
#     8   4   8   4   8   8   8
#     4   9  19  42  71 102 134 192 244 302 376 436
#     4  12  26  42  66 108 146 188 248 296 382 454
#     4  10  23  42  73  95 140 196 238 302 379 435
#     4  12  28  44  72 110 144 200 254 296 390 456
#     4  11  23  45  70 102 146 187 246 312 365 446
#     4  10  22  43  67  99 140 191 247 305 370 450
#     4  12  26  42  69 102 150 189 241 310 372 447
#
# _framework density 23.872543
#
# number of rings (size 3 to 8) (size 9 to 14) (size 15 to 20)
#    0.000    1.333    1.667    3.000    7.000    0.667 
#    3.000    5.833    0.000    0.000    0.000    0.000 
#    0.000    0.000    0.000    0.000    0.000    0.000 
#
# Total GULP energy -134012.773156 kJ/mol
# GULP energy per Si atom -5583.865548 kJ/mol
# Density = 2.381821 g / cm^3
# Si number density = 23.872543 Si / 1000 Ang^3
#
#
#
# Elastic Constant Matrix: (Units=GPa)
#
#
# Indices 1 2 3 4 5 6 
#
# 1 111.1584 29.6143 36.1070 0.0000 0.0000 0.0000
# 2 29.6143 73.1451 25.0015 0.0000 0.0000 0.0000
# 3 36.1070 25.0015 106.2991 0.0000 0.0000 0.0000
# 4 0.0000 0.0000 0.0000 42.5019 0.0000 0.0000
# 5 0.0000 0.0000 0.0000 0.0000 34.9692 0.0000
# 6 0.0000 0.0000 0.0000 0.0000 0.0000 34.9791
#
#
#
# Elastic Compliance Matrix: (Units=1/GPa)
#
#
# Indices 1 2 3 4 5 6 
#
# 1 0.010839 -0.003404 -0.002881 0.000000 0.000000 0.000000
# 2 -0.003404 0.015935 -0.002592 0.000000 0.000000 0.000000
# 3 -0.002881 -0.002592 0.010996 0.000000 0.000000 0.000000
# 4 0.000000 0.000000 0.000000 0.023528 0.000000 0.000000
# 5 0.000000 0.000000 0.000000 0.000000 0.028597 0.000000
# 6 0.000000 0.000000 0.000000 0.000000 0.000000 0.028589
#
#
# Mechanical properties :
#
#
# Convention : Reuss Voigt Hill
#
# Bulk Modulus (GPa) = 49.95828 52.44981 51.20404
# Shear Modulus (GPa) = 34.98737 35.81535 35.40136
#
# Velocity S-wave (km/s) = 3.83246 3.87754 3.85506
# Velocity P-wave (km/s) = 6.36837 6.48580 6.42735
#
# Compressibility (1/GPa) = 0.02001670
#
# Stress axis : x y z
#
# Youngs Moduli (GPa) = 92.26132 62.75347 90.94485
#
# Poissons Ratio (x) = 0.21358 0.26202
# Poissons Ratio (y) = 0.31401 0.23572
# Poissons Ratio (z) = 0.26582 0.16265
#
# Static dielectric constant tensor:
#      x y z
#    x 1.958530 0.000000 0.000000 
#    y 0.000000 1.853340 0.000000 
#    z 0.000000 0.000000 1.995120 
# 
# From -- ./inp_files/9366.got.cif
#   From: 2010.05.17/outbox.cif.g08.bks.cpg/sg20_5_cif.got.tgz:9366.got - 2010.06.03 22:52:26.
