data_PCOD9320571
_publ_section_title
;
Structure prediction by ZEFSAII (Michael W. Deem and Ramdas Pophale) SiO2 
 PCOD9320571
Probable space group: C 2 2 21
;
_chemical_formula_sum "Si O2"
_cell_formula_units_Z 48
_cell_length_a 19.268407
_cell_length_b 16.551358
_cell_length_c 7.648886
_cell_angle_alpha 90.000000
_cell_angle_beta 90.000000
_cell_angle_gamma 90.000000
_cell_volume 2439.369738
_symmetry_space_group_name_H-M "C 2 2 21"
_symmetry_group_IT_number 20
_symmetry_cell_setting 'orthorhombic'
loop_
_space_group_symop_operation_xyz
x,y,z
-x,-y,1/2+z
x,-y,-z
-x,y,1/2-z
1/2+x,1/2+y,z
1/2-x,1/2-y,1/2+z
1/2+x,1/2-y,-z
1/2-x,1/2+y,1/2-z
loop_
_atom_site_type_symbol
_atom_site_label
_atom_site_fract_x
_atom_site_fract_y
_atom_site_fract_z
Si Si1 0.079732 0.369290 0.239598
Si Si2 0.172059 0.831355 0.082168
Si Si3 0.671174 0.859690 0.912926
Si Si4 0.419767 0.326097 0.750534
Si Si5 0.175407 0.094770 0.541344
Si Si6 0.809641 0.588038 0.028230
O O1 0.082425 0.271543 0.255899
O O2 0.126982 0.403415 0.394736
O O3 0.000000 0.395171 0.250000
O O4 0.115078 0.388386 0.054043
O O5 0.163170 0.736199 0.118523
O O6 0.161459 0.882294 0.257860
O O7 0.250370 0.846954 0.015354
O O8 0.120046 0.852903 0.925171
O O9 0.746973 0.875758 0.994226
O O10 0.666838 0.902616 0.726952
O O11 0.500000 0.351173 0.750000
O O12 0.378453 0.360107 0.915551
O O13 0.171858 0.000000 0.500000
O O14 0.776830 0.500000 0.000000
#
# Coordination Sequence:
#
# PCOD9320571 Si02
#       6
#     8   8   8   8   8   8
#     4  10  23  43  64  91 126 164 211 262 308 371
#     4  11  22  39  68  93 121 166 213 256 306 377
#     4  11  22  39  68  93 121 166 213 256 306 377
#     4  10  23  43  64  91 126 164 211 262 308 371
#     4  12  24  39  62  97 127 163 207 265 317 371
#     4  12  24  39  62  97 127 163 207 265 317 371
#
# _framework density 19.677212999999998
#
# number of rings (size 3 to 8) (size 9 to 14) (size 15 to 20)
#    0.000    1.000    3.333    4.000    0.000    1.333 
#    6.000    5.000    0.000    0.000    0.000    0.000 
#    0.000    0.000    0.000    0.000    0.000    0.000 
#
# Total GULP energy -134261.763629 kJ/mol
# GULP energy per Si atom -5594.240151 kJ/mol
# Density = 1.963243 g / cm^3
# Si number density = 19.677213 Si / 1000 Ang^3
#
#
#
# Elastic Constant Matrix: (Units=GPa)
#
#
# Indices 1 2 3 4 5 6 
#
# 1 104.7237 4.5337 59.9867 0.0000 0.0000 0.0000
# 2 4.5337 19.8901 9.0967 0.0000 0.0000 0.0000
# 3 59.9867 9.0967 147.4222 0.0000 0.0000 0.0000
# 4 0.0000 0.0000 0.0000 -22.4498 0.0000 0.0000
# 5 0.0000 0.0000 0.0000 0.0000 32.7912 0.0000
# 6 0.0000 0.0000 0.0000 0.0000 0.0000 -18.4520
#
#
#
# Elastic Compliance Matrix: (Units=1/GPa)
#
#
# Indices 1 2 3 4 5 6 
#
# 1 0.012457 -0.000536 -0.005036 0.000000 0.000000 0.000000
# 2 -0.000536 0.051759 -0.002976 0.000000 0.000000 0.000000
# 3 -0.005036 -0.002976 0.009016 0.000000 0.000000 0.000000
# 4 0.000000 0.000000 0.000000 -0.044544 0.000000 0.000000
# 5 0.000000 0.000000 0.000000 0.000000 0.030496 0.000000
# 6 0.000000 0.000000 0.000000 0.000000 0.000000 -0.054195
#
#
# Mechanical properties :
#
#
# Convention : Reuss Voigt Hill
#
# Bulk Modulus (GPa) = 17.81361 46.58559 32.19960
# Shear Modulus (GPa) = 122.55941 11.60580 67.08261
#
# Velocity S-wave (km/s) = 7.90064 2.43123 5.84513
# Velocity P-wave (km/s) = 9.60726 5.62205 7.87105
#
# Compressibility (1/GPa) = 0.05613685
#
# Stress axis : x y z
#
# Youngs Moduli (GPa) = 80.27908 19.32017 110.91612
#
# Poissons Ratio (x) = 0.01036 0.55852
# Poissons Ratio (y) = 0.04306 0.33004
# Poissons Ratio (z) = 0.40425 0.05749
#
# Static dielectric constant tensor:
#      x y z
#    x 1.657720 0.000000 0.000000 
#    y 0.000000 1.693880 0.000000 
#    z 0.000000 0.000000 1.663380 
# 
# From -- ./inp_files/8448.got.cif
#   From: 2010.05.17/outbox.cif.g08.bks.cpg/sg20_5_cif.got.tgz:8448.got - 2010.06.03 22:52:26.
