data_PCOD9320781
_publ_section_title
;
Structure prediction by ZEFSAII (Michael W. Deem and Ramdas Pophale) SiO2 
 PCOD9320781
Probable space group: C 2 2 21
;
_chemical_formula_sum "Si O2"
_cell_formula_units_Z 48
_cell_length_a 14.145824
_cell_length_b 5.786966
_cell_length_c 24.338085
_cell_angle_alpha 90.000000
_cell_angle_beta 90.000000
_cell_angle_gamma 90.000000
_cell_volume 1992.349773
_symmetry_space_group_name_H-M "C 2 2 21"
_symmetry_group_IT_number 20
_symmetry_cell_setting 'orthorhombic'
loop_
_space_group_symop_operation_xyz
x,y,z
-x,-y,1/2+z
x,-y,-z
-x,y,1/2-z
1/2+x,1/2+y,z
1/2-x,1/2-y,1/2+z
1/2+x,1/2-y,-z
1/2-x,1/2+y,1/2-z
loop_
_atom_site_type_symbol
_atom_site_label
_atom_site_fract_x
_atom_site_fract_y
_atom_site_fract_z
Si Si1 0.277823 0.885791 0.941649
Si Si2 0.000000 0.831294 0.250000
Si Si3 0.806107 0.500000 0.500000
Si Si4 0.179539 0.958546 0.803564
Si Si5 0.083816 0.223527 0.641738
Si Si6 0.075591 0.109219 0.944700
Si Si7 0.743304 0.958769 0.816162
O O1 0.352825 0.902848 0.893238
O O2 0.169504 0.961369 0.931151
O O3 0.263638 0.620047 0.957143
O O4 0.306640 0.000000 0.000000
O O5 0.923375 0.992240 0.279341
O O6 0.954554 0.686860 0.200195
O O7 0.875798 0.656605 0.464723
O O8 0.248342 0.946673 0.750193
O O9 0.204750 0.206286 0.832485
O O10 0.187316 0.699459 0.828593
O O11 0.153915 0.014735 0.658773
O O12 0.998996 0.141430 0.603042
O O13 0.030857 0.000000 0.000000
#
# Coordination Sequence:
#
# PCOD9320781 Si02
#       7
#     8   4   4   8   8   8   8
#     4   9  21  42  66  99 131 173 230 297 368 430
#     4  10  24  40  66 102 138 190 246 298 372 458
#     4   8  18  42  68  94 132 172 218 300 362 424
#     4   9  19  41  64  89 139 176 240 287 345 429
#     4  11  23  40  67 102 135 189 233 295 372 449
#     4   9  21  42  66 102 137 170 237 300 360 434
#     4   9  20  39  64  94 129 187 226 290 356 423
#
# _framework density 24.092157
#
# number of rings (size 3 to 8) (size 9 to 14) (size 15 to 20)
#    0.000    3.000    0.000    0.000    4.667    2.000 
#    9.000    1.667    0.000    0.000    0.000    0.000 
#    0.000    0.000    0.000    0.000    0.000    0.000 
#
# Total GULP energy -133899.171578 kJ/mol
# GULP energy per Si atom -5579.132149 kJ/mol
# Density = 2.403732 g / cm^3
# Si number density = 24.092157 Si / 1000 Ang^3
#
#
#
# Elastic Constant Matrix: (Units=GPa)
#
#
# Indices 1 2 3 4 5 6 
#
# 1 112.1472 21.5465 71.2019 0.0000 0.0000 0.0000
# 2 21.5465 98.3196 35.6872 0.0000 0.0000 0.0000
# 3 71.2019 35.6872 152.6552 0.0000 0.0000 0.0000
# 4 0.0000 0.0000 0.0000 31.8381 0.0000 0.0000
# 5 0.0000 0.0000 0.0000 0.0000 61.6697 0.0000
# 6 0.0000 0.0000 0.0000 0.0000 0.0000 8.8576
#
#
#
# Elastic Compliance Matrix: (Units=1/GPa)
#
#
# Indices 1 2 3 4 5 6 
#
# 1 0.012711 -0.000692 -0.005767 0.000000 0.000000 0.000000
# 2 -0.000692 0.011152 -0.002284 0.000000 0.000000 0.000000
# 3 -0.005767 -0.002284 0.009775 0.000000 0.000000 0.000000
# 4 0.000000 0.000000 0.000000 0.031409 0.000000 0.000000
# 5 0.000000 0.000000 0.000000 0.000000 0.016215 0.000000
# 6 0.000000 0.000000 0.000000 0.000000 0.000000 0.112898
#
#
# Mechanical properties :
#
#
# Convention : Reuss Voigt Hill
#
# Bulk Modulus (GPa) = 61.91699 68.88815 65.40257
# Shear Modulus (GPa) = 23.03826 36.11881 29.57854
#
# Velocity S-wave (km/s) = 3.09569 3.87614 3.50769
# Velocity P-wave (km/s) = 6.20754 6.97770 6.60386
#
# Compressibility (1/GPa) = 0.01615066
#
# Stress axis : x y z
#
# Youngs Moduli (GPa) = 78.67002 89.67239 102.30669
#
# Poissons Ratio (x) = 0.06209 0.59000
# Poissons Ratio (y) = 0.05447 0.23367
# Poissons Ratio (z) = 0.45369 0.20482
#
# Static dielectric constant tensor:
#      x y z
#    x 1.928580 0.000000 0.000000 
#    y 0.000000 1.989320 0.000000 
#    z 0.000000 0.000000 2.085580 
# 
# From -- ./inp_files/30433.got.cif
#   From: 2010.05.17/outbox.cif.g08.bks.cpg/sg20_16_cif.got.tgz:30433.got - 2010.06.03 22:52:26.
