data_PCOD9320269
_publ_section_title
;
Structure prediction by ZEFSAII (Michael W. Deem and Ramdas Pophale) SiO2 
 PCOD9320269
Probable space group: C 2 2 21
;
_chemical_formula_sum "Si O2"
_cell_formula_units_Z 60
_cell_length_a 27.470490
_cell_length_b 11.992711
_cell_length_c 8.887458
_cell_angle_alpha 90.000000
_cell_angle_beta 90.000000
_cell_angle_gamma 90.000000
_cell_volume 2927.934356
_symmetry_space_group_name_H-M "C 2 2 21"
_symmetry_group_IT_number 20
_symmetry_cell_setting 'orthorhombic'
loop_
_space_group_symop_operation_xyz
x,y,z
-x,-y,1/2+z
x,-y,-z
-x,y,1/2-z
1/2+x,1/2+y,z
1/2-x,1/2-y,1/2+z
1/2+x,1/2-y,-z
1/2-x,1/2+y,1/2-z
loop_
_atom_site_type_symbol
_atom_site_label
_atom_site_fract_x
_atom_site_fract_y
_atom_site_fract_z
Si Si1 0.392829 0.888680 0.689019
Si Si2 0.798570 0.775312 0.824448
Si Si3 0.353973 0.506750 0.823610
Si Si4 0.950379 0.759711 0.535264
Si Si5 0.457458 0.120412 0.030527
Si Si6 0.912208 0.000000 0.500000
Si Si7 0.194245 0.749272 0.327161
Si Si8 0.391852 0.857756 0.245240
O O1 0.409143 0.812422 0.551380
O O2 0.343506 0.838999 0.757851
O O3 0.389612 0.021869 0.675515
O O4 0.437688 0.871303 0.802924
O O5 0.816101 0.903870 0.821518
O O6 0.746090 0.759839 0.752724
O O7 0.840724 0.704200 0.743757
O O8 0.798161 0.733137 0.995637
O O9 0.384013 0.496078 0.664092
O O10 0.328946 0.627520 0.811225
O O11 0.375498 0.500000 0.000000
O O12 0.943401 0.887645 0.498613
O O13 0.934716 0.725146 0.701950
O O14 0.003315 0.714231 0.499797
O O15 0.409542 0.120843 0.925582
O O16 0.482009 0.000000 0.000000
#
# Coordination Sequence:
#
# PCOD9320269 Si02
#       8
#     8   8   8   8   8   4   8   8
#     4  11  23  42  67  99 135 174 219 280 343 407
#     4  11  25  43  67  99 134 178 227 284 343 411
#     4  10  24  48  67  96 143 190 225 286 353 406
#     4  12  24  42  67 101 133 173 232 274 336 413
#     4  10  22  44  70  98 135 177 219 281 352 409
#     4  12  24  44  74 100 134 190 236 280 338 414
#     4  11  25  43  67  99 134 178 227 284 343 411
#     4  11  23  42  67  99 135 174 219 280 343 407
#
# _framework density 20.492262
#
# number of rings (size 3 to 8) (size 9 to 14) (size 15 to 20)
#    0.000    1.067    4.000    2.000    5.600    2.133 
#    0.000    4.000    0.000    0.000    0.000    0.000 
#    0.000    0.000    0.000    0.000    0.000    0.000 
#
# Total GULP energy -167393.707037 kJ/mol
# GULP energy per Si atom -5579.790235 kJ/mol
# Density = 2.044562 g / cm^3
# Si number density = 20.492262 Si / 1000 Ang^3
#
#
#
# Elastic Constant Matrix: (Units=GPa)
#
#
# Indices 1 2 3 4 5 6 
#
# 1 107.5254 54.1889 24.6899 0.0000 0.0000 0.0000
# 2 54.1889 138.9340 23.1085 0.0000 0.0000 0.0000
# 3 24.6899 23.1085 75.4669 0.0000 0.0000 0.0000
# 4 0.0000 0.0000 0.0000 29.0058 0.0000 0.0000
# 5 0.0000 0.0000 0.0000 0.0000 15.4992 0.0000
# 6 0.0000 0.0000 0.0000 0.0000 0.0000 7.3002
#
#
#
# Elastic Compliance Matrix: (Units=1/GPa)
#
#
# Indices 1 2 3 4 5 6 
#
# 1 0.012054 -0.004263 -0.002638 0.000000 0.000000 0.000000
# 2 -0.004263 0.009091 -0.001389 0.000000 0.000000 0.000000
# 3 -0.002638 -0.001389 0.014539 0.000000 0.000000 0.000000
# 4 0.000000 0.000000 0.000000 0.034476 0.000000 0.000000
# 5 0.000000 0.000000 0.000000 0.000000 0.064519 0.000000
# 6 0.000000 0.000000 0.000000 0.000000 0.000000 0.136983
#
#
# Mechanical properties :
#
#
# Convention : Reuss Voigt Hill
#
# Bulk Modulus (GPa) = 52.34434 58.43344 55.38889
# Shear Modulus (GPa) = 16.97151 25.02365 20.99758
#
# Velocity S-wave (km/s) = 2.88095 3.49825 3.20450
# Velocity P-wave (km/s) = 6.05520 6.70028 6.38589
#
# Compressibility (1/GPa) = 0.01910426
#
# Stress axis : x y z
#
# Youngs Moduli (GPa) = 82.95860 109.99498 68.77853
#
# Poissons Ratio (x) = 0.46888 0.18147
# Poissons Ratio (y) = 0.35363 0.09555
# Poissons Ratio (z) = 0.21888 0.15281
#
# Static dielectric constant tensor:
#      x y z
#    x 1.680200 0.000000 0.000000 
#    y 0.000000 1.705660 0.000000 
#    z 0.000000 0.000000 1.825830 
# 
# From -- ./inp_files/11587.got.cif
#   From: 2010.05.17/outbox.cif.g08.bks.cpg/sg20_6_cif.got.tgz:11587.got - 2010.06.03 22:52:26.
