data_PCOD9320508
_publ_section_title
;
Structure prediction by ZEFSAII (Michael W. Deem and Ramdas Pophale) SiO2 
 PCOD9320508
Probable space group: C 2 2 21
;
_chemical_formula_sum "Si O2"
_cell_formula_units_Z 40
_cell_length_a 7.134310
_cell_length_b 19.250452
_cell_length_c 13.234154
_cell_angle_alpha 90.000000
_cell_angle_beta 90.000000
_cell_angle_gamma 90.000000
_cell_volume 1817.561403
_symmetry_space_group_name_H-M "C 2 2 21"
_symmetry_group_IT_number 20
_symmetry_cell_setting 'orthorhombic'
loop_
_space_group_symop_operation_xyz
x,y,z
-x,-y,1/2+z
x,-y,-z
-x,y,1/2-z
1/2+x,1/2+y,z
1/2-x,1/2-y,1/2+z
1/2+x,1/2-y,-z
1/2-x,1/2+y,1/2-z
loop_
_atom_site_type_symbol
_atom_site_label
_atom_site_fract_x
_atom_site_fract_y
_atom_site_fract_z
Si Si1 0.276023 0.146479 0.754831
Si Si2 0.805027 0.327015 0.555312
Si Si3 0.000000 0.265326 0.750000
Si Si4 0.039771 0.103104 0.137748
Si Si5 0.500000 0.469266 0.250000
Si Si6 0.310250 0.171318 0.980223
O O1 0.500000 0.149631 0.750000
O O2 0.224948 0.146321 0.874658
O O3 0.168592 0.214460 0.713927
O O4 0.170871 0.078834 0.713582
O O5 0.970754 0.347197 0.480809
O O6 0.913734 0.309849 0.659830
O O7 0.647858 0.383396 0.574738
O O8 0.708928 0.254837 0.521950
O O9 0.000000 0.135420 0.250000
O O10 0.070268 0.022542 0.163632
O O11 0.204365 0.138556 0.075232
#
# Coordination Sequence:
#
# PCOD9320508 Si02
#       6
#     8   8   4   8   4   8
#     4  10  23  42  65  91 129 173 217 272 321 379
#     4  11  21  36  61  95 131 157 205 265 330 396
#     4   9  22  36  62  94 126 165 208 260 336 399
#     4  10  23  42  63  88 132 174 211 271 322 378
#     4   9  24  46  64  86 130 177 228 256 324 381
#     4  11  23  36  63  99 126 162 215 261 332 397
#
# _framework density 22.00751
#
# number of rings (size 3 to 8) (size 9 to 14) (size 15 to 20)
#    0.600    1.200    2.000    1.200    2.800    7.200 
#    0.000    0.000    0.000    0.000    0.000    0.000 
#    0.000    0.000    0.000    0.000    0.000    0.000 
#
# Total GULP energy -111722.467008 kJ/mol
# GULP energy per Si atom -5586.123350 kJ/mol
# Density = 2.195742 g / cm^3
# Si number density = 22.007510 Si / 1000 Ang^3
#
#
#
# Elastic Constant Matrix: (Units=GPa)
#
#
# Indices 1 2 3 4 5 6 
#
# 1 122.5496 -0.8799 -10.4125 0.0000 0.0000 0.0000
# 2 -0.8799 37.7765 -3.6895 0.0000 0.0000 0.0000
# 3 -10.4125 -3.6895 60.1573 0.0000 0.0000 0.0000
# 4 0.0000 0.0000 0.0000 17.0509 0.0000 0.0000
# 5 0.0000 0.0000 0.0000 0.0000 39.6142 0.0000
# 6 0.0000 0.0000 0.0000 0.0000 0.0000 19.5317
#
#
#
# Elastic Compliance Matrix: (Units=1/GPa)
#
#
# Indices 1 2 3 4 5 6 
#
# 1 0.008286 0.000335 0.001455 0.000000 0.000000 0.000000
# 2 0.000335 0.026645 0.001692 0.000000 0.000000 0.000000
# 3 0.001455 0.001692 0.016979 0.000000 0.000000 0.000000
# 4 0.000000 0.000000 0.000000 0.058648 0.000000 0.000000
# 5 0.000000 0.000000 0.000000 0.000000 0.025243 0.000000
# 6 0.000000 0.000000 0.000000 0.000000 0.000000 0.051199
#
#
# Mechanical properties :
#
#
# Convention : Reuss Voigt Hill
#
# Bulk Modulus (GPa) = 16.98567 21.16884 19.07725
# Shear Modulus (GPa) = 25.04260 30.93705 27.98982
#
# Velocity S-wave (km/s) = 3.37695 3.75340 3.57014
# Velocity P-wave (km/s) = 4.78957 5.33140 5.06773
#
# Compressibility (1/GPa) = 0.05887316
#
# Stress axis : x y z
#
# Youngs Moduli (GPa) = 120.68594 37.53109 58.89741
#
# Poissons Ratio (x) = -0.01258 -0.08568
# Poissons Ratio (y) = -0.04044 -0.09966
# Poissons Ratio (z) = -0.17557 -0.06351
#
# Static dielectric constant tensor:
#      x y z
#    x 1.799610 0.000000 0.000000 
#    y 0.000000 1.770780 0.000000 
#    z 0.000000 0.000000 1.879730 
# 
# From -- ./inp_files/22747.got.cif
#   From: 2010.05.17/outbox.cif.g08.bks.cpg/sg20_12_cif.got.tgz:22747.got - 2010.06.03 22:52:26.
