data_PCOD9320284
_publ_section_title
;
Structure prediction by ZEFSAII (Michael W. Deem and Ramdas Pophale) SiO2 
 PCOD9320284
Probable space group: C 2 2 21
;
_chemical_formula_sum "Si O2"
_cell_formula_units_Z 40
_cell_length_a 18.246992
_cell_length_b 5.037804
_cell_length_c 17.510577
_cell_angle_alpha 90.000000
_cell_angle_beta 90.000000
_cell_angle_gamma 90.000000
_cell_volume 1609.655751
_symmetry_space_group_name_H-M "C 2 2 21"
_symmetry_group_IT_number 20
_symmetry_cell_setting 'orthorhombic'
loop_
_space_group_symop_operation_xyz
x,y,z
-x,-y,1/2+z
x,-y,-z
-x,y,1/2-z
1/2+x,1/2+y,z
1/2-x,1/2-y,1/2+z
1/2+x,1/2-y,-z
1/2-x,1/2+y,1/2-z
loop_
_atom_site_type_symbol
_atom_site_label
_atom_site_fract_x
_atom_site_fract_y
_atom_site_fract_z
Si Si1 0.000000 0.082181 0.750000
Si Si2 0.317345 0.974326 0.876495
Si Si3 0.834039 0.831453 0.605604
Si Si4 0.439849 0.000000 0.000000
Si Si5 0.653575 0.452637 0.716974
Si Si6 0.065924 0.312140 0.903438
O O1 0.035051 0.253365 0.818405
O O2 0.065661 0.906164 0.715468
O O3 0.384550 0.053340 0.930946
O O4 0.300513 0.252347 0.835223
O O5 0.249774 0.839885 0.921536
O O6 0.338866 0.752682 0.813444
O O7 0.824972 0.885216 0.696767
O O8 0.887053 0.582128 0.594259
O O9 0.876716 0.086621 0.577354
O O10 0.497546 0.800995 0.960853
#
# Coordination Sequence:
#
# PCOD9320284 Si02
#       6
#     4   8   8   4   8   8
#     4  10  22  44  72 114 134 192 232 316 334 426
#     4  12  26  45  69 107 146 185 231 294 360 428
#     4  11  25  46  75 103 139 188 236 297 350 419
#     4  12  30  46  70 104 146 190 232 298 356 438
#     4  11  23  41  76 105 142 177 242 291 357 411
#     4  11  26  45  72 103 142 186 241 287 356 428
#
# _framework density 24.850035999999999
#
# number of rings (size 3 to 8) (size 9 to 14) (size 15 to 20)
#    0.000    0.800    2.000    4.800    5.600    6.400 
#    0.000    0.000    0.000    0.000    0.000    0.000 
#    0.000    0.000    0.000    0.000    0.000    0.000 
#
# Total GULP energy -111859.533564 kJ/mol
# GULP energy per Si atom -5592.976678 kJ/mol
# Density = 2.479348 g / cm^3
# Si number density = 24.850036 Si / 1000 Ang^3
#
#
#
# Elastic Constant Matrix: (Units=GPa)
#
#
# Indices 1 2 3 4 5 6 
#
# 1 161.1554 17.6593 19.1511 0.0000 0.0000 0.0000
# 2 17.6593 95.4778 27.8862 0.0000 0.0000 0.0000
# 3 19.1511 27.8862 98.7754 0.0000 0.0000 0.0000
# 4 0.0000 0.0000 0.0000 16.1559 0.0000 0.0000
# 5 0.0000 0.0000 0.0000 0.0000 34.3606 0.0000
# 6 0.0000 0.0000 0.0000 0.0000 0.0000 25.8349
#
#
#
# Elastic Compliance Matrix: (Units=1/GPa)
#
#
# Indices 1 2 3 4 5 6 
#
# 1 0.006421 -0.000898 -0.000991 0.000000 0.000000 0.000000
# 2 -0.000898 0.011540 -0.003084 0.000000 0.000000 0.000000
# 3 -0.000991 -0.003084 0.011187 0.000000 0.000000 0.000000
# 4 0.000000 0.000000 0.000000 0.061897 0.000000 0.000000
# 5 0.000000 0.000000 0.000000 0.000000 0.029103 0.000000
# 6 0.000000 0.000000 0.000000 0.000000 0.000000 0.038707
#
#
# Mechanical properties :
#
#
# Convention : Reuss Voigt Hill
#
# Bulk Modulus (GPa) = 52.07873 53.86685 52.97279
# Shear Modulus (GPa) = 28.53817 34.65108 31.59463
#
# Velocity S-wave (km/s) = 3.39250 3.73823 3.56955
# Velocity P-wave (km/s) = 6.02894 6.35266 6.19292
#
# Compressibility (1/GPa) = 0.01920170
#
# Stress axis : x y z
#
# Youngs Moduli (GPa) = 155.72862 86.65151 89.39053
#
# Poissons Ratio (x) = 0.07782 0.08863
# Poissons Ratio (y) = 0.13986 0.27568
# Poissons Ratio (z) = 0.15440 0.26723
#
# Static dielectric constant tensor:
#      x y z
#    x 2.054650 0.000000 0.000000 
#    y 0.000000 1.904590 0.000000 
#    z 0.000000 0.000000 2.067100 
# 
# From -- ./inp_files/25407.got.cif
#   From: 2010.05.17/outbox.cif.g08.bks.cpg/sg20_13_cif.got.tgz:25407.got - 2010.06.03 22:52:26.
