data_PCOD9320003
_publ_section_title
;
Structure prediction by ZEFSAII (Michael W. Deem and Ramdas Pophale) SiO2 
 PCOD9320003
Probable space group: C 2 2 21
;
_chemical_formula_sum "Si O2"
_cell_formula_units_Z 40
_cell_length_a 15.769892
_cell_length_b 7.921228
_cell_length_c 13.419865
_cell_angle_alpha 90.000000
_cell_angle_beta 90.000000
_cell_angle_gamma 90.000000
_cell_volume 1676.368069
_symmetry_space_group_name_H-M "C 2 2 21"
_symmetry_group_IT_number 20
_symmetry_cell_setting 'orthorhombic'
loop_
_space_group_symop_operation_xyz
x,y,z
-x,-y,1/2+z
x,-y,-z
-x,y,1/2-z
1/2+x,1/2+y,z
1/2-x,1/2-y,1/2+z
1/2+x,1/2-y,-z
1/2-x,1/2+y,1/2-z
loop_
_atom_site_type_symbol
_atom_site_label
_atom_site_fract_x
_atom_site_fract_y
_atom_site_fract_z
Si Si1 0.465582 0.778685 0.045150
Si Si2 0.434692 0.526804 0.333982
Si Si3 0.881754 0.667407 0.399235
Si Si4 0.224321 0.322841 0.451786
Si Si5 0.376442 0.869649 0.238548
O O1 0.505468 0.604156 0.081225
O O2 0.369267 0.774258 0.004873
O O3 0.450644 0.873985 0.152655
O O4 0.533575 0.844735 0.966031
O O5 0.500000 0.471920 0.250000
O O6 0.385215 0.359734 0.359991
O O7 0.383576 0.690700 0.295572
O O8 0.795651 0.681469 0.463887
O O9 0.875636 0.526099 0.313912
O O10 0.249889 0.500000 0.500000
O O11 0.203701 0.355080 0.335007
#
# Coordination Sequence:
#
# PCOD9320003 Si02
#       5
#     8   8   8   8   8
#     4   9  23  43  72 109 157 198 258 325 390 464
#     4  10  22  41  72 108 147 200 262 311 382 484
#     4  12  24  46  83 108 151 219 254 322 407 466
#     4  10  24  43  75 113 158 203 264 327 391 478
#     4   9  25  43  71 111 157 198 258 326 388 462
#
# _framework density 23.86111
#
# number of rings (size 3 to 8) (size 9 to 14) (size 15 to 20)
#    1.200    0.800    0.000    1.800    5.600    4.000 
#    0.000    4.000   17.600    0.000    0.000    0.000 
#    0.000    0.000    0.000    0.000    0.000    0.000 
#
# Total GULP energy -111576.995580 kJ/mol
# GULP energy per Si atom -5578.849779 kJ/mol
# Density = 2.380680 g / cm^3
# Si number density = 23.861110 Si / 1000 Ang^3
#
#
#
# Elastic Constant Matrix: (Units=GPa)
#
#
# Indices 1 2 3 4 5 6 
#
# 1 151.0992 78.2011 58.3192 0.0000 0.0000 0.0000
# 2 78.2011 154.8988 55.5040 0.0000 0.0000 0.0000
# 3 58.3192 55.5040 90.9640 0.0000 0.0000 0.0000
# 4 0.0000 0.0000 0.0000 53.6219 0.0000 0.0000
# 5 0.0000 0.0000 0.0000 0.0000 32.4286 0.0000
# 6 0.0000 0.0000 0.0000 0.0000 0.0000 -44.1577
#
#
#
# Elastic Compliance Matrix: (Units=1/GPa)
#
#
# Indices 1 2 3 4 5 6 
#
# 1 0.010131 -0.003567 -0.004319 0.000000 0.000000 0.000000
# 2 -0.003567 0.009518 -0.003521 0.000000 0.000000 0.000000
# 3 -0.004319 -0.003521 0.015911 0.000000 0.000000 0.000000
# 4 0.000000 0.000000 0.000000 0.018649 0.000000 0.000000
# 5 0.000000 0.000000 0.000000 0.000000 0.030837 0.000000
# 6 0.000000 0.000000 0.000000 0.000000 0.000000 -0.022646
#
#
# Mechanical properties :
#
#
# Convention : Reuss Voigt Hill
#
# Bulk Modulus (GPa) = 78.45283 86.77896 82.61589
# Shear Modulus (GPa) = 55.88922 22.04108 38.96515
#
# Velocity S-wave (km/s) = 4.84495 3.04258 4.04542
# Velocity P-wave (km/s) = 8.01551 6.98501 7.51794
#
# Compressibility (1/GPa) = 0.01274651
#
# Stress axis : x y z
#
# Youngs Moduli (GPa) = 98.70390 105.05982 62.85149
#
# Poissons Ratio (x) = 0.37478 0.27144
# Poissons Ratio (y) = 0.35211 0.22129
# Poissons Ratio (z) = 0.42628 0.36989
#
# Static dielectric constant tensor:
#      x y z
#    x 2.012390 0.000000 0.000000 
#    y 0.000000 1.969680 0.000000 
#    z 0.000000 0.000000 2.014740 
# 
# From -- ./inp_files/20487.got.cif
#   From: 2010.05.17/outbox.cif.g08.bks.cpg/sg20_11_cif.got.tgz:20487.got - 2010.06.03 22:52:26.
