data_PCOD9320661
_publ_section_title
;
Structure prediction by ZEFSAII (Michael W. Deem and Ramdas Pophale) SiO2 
 PCOD9320661
Probable space group: C 2 2 21
;
_chemical_formula_sum "Si O2"
_cell_formula_units_Z 64
_cell_length_a 10.858838
_cell_length_b 11.322271
_cell_length_c 23.056825
_cell_angle_alpha 90.000000
_cell_angle_beta 90.000000
_cell_angle_gamma 90.000000
_cell_volume 2834.760698
_symmetry_space_group_name_H-M "C 2 2 21"
_symmetry_group_IT_number 20
_symmetry_cell_setting 'orthorhombic'
loop_
_space_group_symop_operation_xyz
x,y,z
-x,-y,1/2+z
x,-y,-z
-x,y,1/2-z
1/2+x,1/2+y,z
1/2-x,1/2-y,1/2+z
1/2+x,1/2-y,-z
1/2-x,1/2+y,1/2-z
loop_
_atom_site_type_symbol
_atom_site_label
_atom_site_fract_x
_atom_site_fract_y
_atom_site_fract_z
Si Si1 0.788504 0.841049 0.400199
Si Si2 0.392708 0.380181 0.518036
Si Si3 0.157996 0.137980 0.455624
Si Si4 0.798819 0.765775 0.083636
Si Si5 0.171022 0.514701 0.879649
Si Si6 0.290095 0.927505 0.747727
Si Si7 0.140737 0.168506 0.770016
Si Si8 0.401430 0.035332 0.131989
O O1 0.881934 0.821163 0.454279
O O2 0.678350 0.750163 0.414601
O O3 0.854076 0.819869 0.339640
O O4 0.717175 0.964245 0.391029
O O5 0.324661 0.500000 0.500000
O O6 0.521756 0.414729 0.547024
O O7 0.324098 0.302630 0.564411
O O8 0.162097 0.179506 0.522036
O O9 0.264582 0.052544 0.433159
O O10 0.753768 0.868252 0.125955
O O11 0.890553 0.668930 0.108790
O O12 0.176568 0.445032 0.819367
O O13 0.025740 0.526940 0.889561
O O14 0.188609 0.033855 0.756654
O O15 0.278674 0.782864 0.753158
O O16 0.387447 0.960526 0.798273
O O17 0.000000 0.182415 0.750000
#
# Coordination Sequence:
#
# PCOD9320661 Si02
#       8
#     8   8   8   8   8   8   8   8
#     4  10  23  45  64 101 137 182 235 291 361 433
#     4  11  22  42  65  95 135 179 232 292 357 431
#     4  11  25  41  66 101 135 179 230 292 360 426
#     4  11  25  42  67 104 133 187 234 291 359 429
#     4  12  24  45  69 104 144 183 234 298 364 438
#     4  11  25  45  74 110 142 190 251 298 372 438
#     4  11  24  47  74 105 146 197 243 307 369 440
#     4  11  24  45  71 101 140 187 237 293 357 436
#
# _framework density 22.576861999999998
#
# number of rings (size 3 to 8) (size 9 to 14) (size 15 to 20)
#    0.000    1.000    2.500    3.750    3.500    2.000 
#    4.500    3.125    0.000    0.000    0.000    0.000 
#    0.000    0.000    0.000    0.000    0.000    0.000 
#
# Total GULP energy -178279.577844 kJ/mol
# GULP energy per Si atom -5571.236808 kJ/mol
# Density = 2.252548 g / cm^3
# Si number density = 22.576862 Si / 1000 Ang^3
#
#
#
# Elastic Constant Matrix: (Units=GPa)
#
#
# Indices 1 2 3 4 5 6 
#
# 1 56.0322 11.0198 15.4538 0.0000 0.0000 0.0000
# 2 11.0198 113.1382 2.7673 0.0000 0.0000 0.0000
# 3 15.4538 2.7673 76.9303 0.0000 0.0000 0.0000
# 4 0.0000 0.0000 0.0000 43.4048 0.0000 0.0000
# 5 0.0000 0.0000 0.0000 0.0000 17.2512 0.0000
# 6 0.0000 0.0000 0.0000 0.0000 0.0000 25.4394
#
#
#
# Elastic Compliance Matrix: (Units=1/GPa)
#
#
# Indices 1 2 3 4 5 6 
#
# 1 0.019246 -0.001782 -0.003802 0.000000 0.000000 0.000000
# 2 -0.001782 0.009011 0.000034 0.000000 0.000000 0.000000
# 3 -0.003802 0.000034 0.013761 0.000000 0.000000 0.000000
# 4 0.000000 0.000000 0.000000 0.023039 0.000000 0.000000
# 5 0.000000 0.000000 0.000000 0.000000 0.057967 0.000000
# 6 0.000000 0.000000 0.000000 0.000000 0.000000 0.039309
#
#
# Mechanical properties :
#
#
# Convention : Reuss Voigt Hill
#
# Bulk Modulus (GPa) = 32.34270 33.84250 33.09260
# Shear Modulus (GPa) = 27.21242 31.67640 29.44441
#
# Velocity S-wave (km/s) = 3.47554 3.74979 3.61527
# Velocity P-wave (km/s) = 5.51929 5.81123 5.66714
#
# Compressibility (1/GPa) = 0.03091888
#
# Stress axis : x y z
#
# Youngs Moduli (GPa) = 51.95919 110.96994 72.66744
#
# Poissons Ratio (x) = 0.19770 0.27628
# Poissons Ratio (y) = 0.09257 -0.00245
# Poissons Ratio (z) = 0.19755 -0.00374
#
# Static dielectric constant tensor:
#      x y z
#    x 1.871090 0.000000 0.000000 
#    y 0.000000 1.945610 0.000000 
#    z 0.000000 0.000000 1.859540 
# 
# From -- ./inp_files/29166.got.cif
#   From: 2010.05.17/outbox.cif.g08.bks.cpg/sg20_15_cif.got.tgz:29166.got - 2010.06.03 22:52:26.
