data_PCOD9320746
_publ_section_title
;
Structure prediction by ZEFSAII (Michael W. Deem and Ramdas Pophale) SiO2 
 PCOD9320746
Probable space group: C 2 2 21
;
_chemical_formula_sum "Si O2"
_cell_formula_units_Z 40
_cell_length_a 9.480112
_cell_length_b 9.928931
_cell_length_c 16.212385
_cell_angle_alpha 90.000000
_cell_angle_beta 90.000000
_cell_angle_gamma 90.000000
_cell_volume 1526.029290
_symmetry_space_group_name_H-M "C 2 2 21"
_symmetry_group_IT_number 20
_symmetry_cell_setting 'orthorhombic'
loop_
_space_group_symop_operation_xyz
x,y,z
-x,-y,1/2+z
x,-y,-z
-x,y,1/2-z
1/2+x,1/2+y,z
1/2-x,1/2-y,1/2+z
1/2+x,1/2-y,-z
1/2-x,1/2+y,1/2-z
loop_
_atom_site_type_symbol
_atom_site_label
_atom_site_fract_x
_atom_site_fract_y
_atom_site_fract_z
Si Si1 0.433544 0.724102 0.457019
Si Si2 0.323034 0.662381 0.159490
Si Si3 0.618019 0.244430 0.395843
Si Si4 0.432156 0.000511 0.612718
Si Si5 0.759963 0.913936 0.247365
O O1 0.527233 0.661004 0.384286
O O2 0.506965 0.683902 0.542538
O O3 0.267054 0.716073 0.441444
O O4 0.465764 0.884691 0.452156
O O5 0.269184 0.813930 0.177438
O O6 0.312021 0.569132 0.242121
O O7 0.209821 0.588109 0.099947
O O8 0.555681 0.101497 0.369574
O O9 0.637427 0.334859 0.315478
O O10 0.384165 0.080833 0.694246
#
# Coordination Sequence:
#
# PCOD9320746 Si02
#       5
#     8   8   8   8   8
#     4  11  24  44  72 105 147 195 253 313 378 452
#     4  10  23  48  75 104 150 195 247 309 378 452
#     4  11  23  45  71 105 145 200 243 314 378 441
#     4   9  23  45  65 103 146 187 239 299 373 438
#     4   9  24  44  77 103 147 194 248 305 372 455
#
# _framework density 26.211815999999999
#
# number of rings (size 3 to 8) (size 9 to 14) (size 15 to 20)
#    1.200    0.800    0.000    1.800    2.800    8.000 
#   10.800    4.000    0.000    0.000    0.000    0.000 
#    0.000    0.000    0.000    0.000    0.000    0.000 
#
# Total GULP energy -111798.040998 kJ/mol
# GULP energy per Si atom -5589.902050 kJ/mol
# Density = 2.615216 g / cm^3
# Si number density = 26.211816 Si / 1000 Ang^3
#
#
#
# Elastic Constant Matrix: (Units=GPa)
#
#
# Indices 1 2 3 4 5 6 
#
# 1 118.1370 18.0329 20.6131 0.0000 0.0000 0.0000
# 2 18.0329 108.4032 -1.1183 0.0000 0.0000 0.0000
# 3 20.6131 -1.1183 56.4939 0.0000 0.0000 0.0000
# 4 0.0000 0.0000 0.0000 33.0088 0.0000 0.0000
# 5 0.0000 0.0000 0.0000 0.0000 50.3470 0.0000
# 6 0.0000 0.0000 0.0000 0.0000 0.0000 53.6751
#
#
#
# Elastic Compliance Matrix: (Units=1/GPa)
#
#
# Indices 1 2 3 4 5 6 
#
# 1 0.009304 -0.001583 -0.003426 0.000000 0.000000 0.000000
# 2 -0.001583 0.009496 0.000766 0.000000 0.000000 0.000000
# 3 -0.003426 0.000766 0.018966 0.000000 0.000000 0.000000
# 4 0.000000 0.000000 0.000000 0.030295 0.000000 0.000000
# 5 0.000000 0.000000 0.000000 0.000000 0.019862 0.000000
# 6 0.000000 0.000000 0.000000 0.000000 0.000000 0.018631
#
#
# Mechanical properties :
#
#
# Convention : Reuss Voigt Hill
#
# Bulk Modulus (GPa) = 34.15396 39.78775 36.97085
# Shear Modulus (GPa) = 40.06365 43.77329 41.91847
#
# Velocity S-wave (km/s) = 3.91379 4.09098 4.00336
# Velocity P-wave (km/s) = 5.78636 6.12593 5.95857
#
# Compressibility (1/GPa) = 0.02927918
#
# Stress axis : x y z
#
# Youngs Moduli (GPa) = 107.47816 105.30678 52.72511
#
# Poissons Ratio (x) = 0.16671 0.18065
# Poissons Ratio (y) = 0.17015 -0.04037
# Poissons Ratio (z) = 0.36824 -0.08062
#
# Static dielectric constant tensor:
#      x y z
#    x 2.035340 0.000000 0.000000 
#    y 0.000000 2.077090 0.000000 
#    z 0.000000 0.000000 2.298600 
# 
# From -- ./inp_files/26467.got.cif
#   From: 2010.05.17/outbox.cif.g08.bks.cpg/sg20_14_cif.got.tgz:26467.got - 2010.06.03 22:52:26.
