data_PCOD9320565
_publ_section_title
;
Structure prediction by ZEFSAII (Michael W. Deem and Ramdas Pophale) SiO2 
 PCOD9320565
Probable space group: C 2 2 21
;
_chemical_formula_sum "Si O2"
_cell_formula_units_Z 52
_cell_length_a 16.801806
_cell_length_b 17.542583
_cell_length_c 9.052894
_cell_angle_alpha 90.000000
_cell_angle_beta 90.000000
_cell_angle_gamma 90.000000
_cell_volume 2668.314039
_symmetry_space_group_name_H-M "C 2 2 21"
_symmetry_group_IT_number 20
_symmetry_cell_setting 'orthorhombic'
loop_
_space_group_symop_operation_xyz
x,y,z
-x,-y,1/2+z
x,-y,-z
-x,y,1/2-z
1/2+x,1/2+y,z
1/2-x,1/2-y,1/2+z
1/2+x,1/2-y,-z
1/2-x,1/2+y,1/2-z
loop_
_atom_site_type_symbol
_atom_site_label
_atom_site_fract_x
_atom_site_fract_y
_atom_site_fract_z
Si Si1 0.163434 0.458595 0.765384
Si Si2 0.719042 0.500000 0.000000
Si Si3 0.332075 0.331915 0.535907
Si Si4 0.243719 0.765553 0.244746
Si Si5 0.022019 0.264357 0.082519
Si Si6 0.342069 0.888667 0.422099
Si Si7 0.918506 0.688721 0.160929
O O1 0.227799 0.486057 0.646225
O O2 0.130777 0.536853 0.832745
O O3 0.105881 0.399362 0.682488
O O4 0.189020 0.413319 0.915495
O O5 0.672131 0.579482 0.996321
O O6 0.300959 0.303311 0.697618
O O7 0.269722 0.289034 0.425652
O O8 0.422375 0.303071 0.521069
O O9 0.278030 0.839281 0.330854
O O10 0.155422 0.738774 0.287612
O O11 0.081018 0.335923 0.061124
O O12 0.000000 0.249683 0.250000
O O13 0.941016 0.285952 0.002164
O O14 0.000000 0.702542 0.250000
#
# Coordination Sequence:
#
# PCOD9320565 Si02
#       7
#     8   4   8   8   8   8   8
#     4  11  23  40  60  96 132 169 207 269 334 391
#     4  12  24  40  70  98 130 170 224 282 328 388
#     4  11  24  42  66  97 131 173 231 277 327 400
#     4  11  22  40  67  92 126 176 223 273 317 402
#     4  11  26  42  64  95 130 178 218 268 331 405
#     4  10  23  43  61  92 133 169 223 264 326 403
#     4  12  22  41  62  92 130 168 207 264 332 393
#
# _framework density 19.487960999999999
#
# number of rings (size 3 to 8) (size 9 to 14) (size 15 to 20)
#    0.000    0.923    6.154    0.923    6.462    0.615 
#    0.000    0.000    3.385    0.000    0.000    0.000 
#    0.000    0.000    0.000    0.000    0.000    0.000 
#
# Total GULP energy -144985.278363 kJ/mol
# GULP energy per Si atom -5576.356860 kJ/mol
# Density = 1.944361 g / cm^3
# Si number density = 19.487961 Si / 1000 Ang^3
#
#
#
# Elastic Constant Matrix: (Units=GPa)
#
#
# Indices 1 2 3 4 5 6 
#
# 1 43.5115 25.9452 3.5250 0.0000 0.0000 0.0000
# 2 25.9452 93.8403 25.4437 0.0000 0.0000 0.0000
# 3 3.5250 25.4437 69.2183 0.0000 0.0000 0.0000
# 4 0.0000 0.0000 0.0000 24.8864 0.0000 0.0000
# 5 0.0000 0.0000 0.0000 0.0000 22.1254 0.0000
# 6 0.0000 0.0000 0.0000 0.0000 0.0000 14.9808
#
#
#
# Elastic Compliance Matrix: (Units=1/GPa)
#
#
# Indices 1 2 3 4 5 6 
#
# 1 0.027670 -0.008073 0.001558 0.000000 0.000000 0.000000
# 2 -0.008073 0.014191 -0.004805 0.000000 0.000000 0.000000
# 3 0.001558 -0.004805 0.016134 0.000000 0.000000 0.000000
# 4 0.000000 0.000000 0.000000 0.040183 0.000000 0.000000
# 5 0.000000 0.000000 0.000000 0.000000 0.045197 0.000000
# 6 0.000000 0.000000 0.000000 0.000000 0.000000 0.066752
#
#
# Mechanical properties :
#
#
# Convention : Reuss Voigt Hill
#
# Bulk Modulus (GPa) = 28.28412 35.15534 31.71973
# Shear Modulus (GPa) = 20.44558 22.50894 21.47726
#
# Velocity S-wave (km/s) = 3.24256 3.40224 3.32336
# Velocity P-wave (km/s) = 5.34453 5.78899 5.57119
#
# Compressibility (1/GPa) = 0.03535552
#
# Stress axis : x y z
#
# Youngs Moduli (GPa) = 36.14047 70.46565 61.98054
#
# Poissons Ratio (x) = 0.56885 -0.09659
# Poissons Ratio (y) = 0.29175 0.29784
# Poissons Ratio (z) = -0.05632 0.33862
#
# Static dielectric constant tensor:
#      x y z
#    x 1.662860 0.000000 0.000000 
#    y 0.000000 1.706060 0.000000 
#    z 0.000000 0.000000 1.789750 
# 
# From -- ./inp_files/9533.got.cif
#   From: 2010.05.17/outbox.cif.g08.bks.cpg/sg20_5_cif.got.tgz:9533.got - 2010.06.03 22:52:26.
