data_PCOD9320480
_publ_section_title
;
Structure prediction by ZEFSAII (Michael W. Deem and Ramdas Pophale) SiO2 
 PCOD9320480
Probable space group: C 2 2 21
;
_chemical_formula_sum "Si O2"
_cell_formula_units_Z 40
_cell_length_a 5.153094
_cell_length_b 18.585228
_cell_length_c 19.606305
_cell_angle_alpha 90.000000
_cell_angle_beta 90.000000
_cell_angle_gamma 90.000000
_cell_volume 1877.723806
_symmetry_space_group_name_H-M "C 2 2 21"
_symmetry_group_IT_number 20
_symmetry_cell_setting 'orthorhombic'
loop_
_space_group_symop_operation_xyz
x,y,z
-x,-y,1/2+z
x,-y,-z
-x,y,1/2-z
1/2+x,1/2+y,z
1/2-x,1/2-y,1/2+z
1/2+x,1/2-y,-z
1/2-x,1/2+y,1/2-z
loop_
_atom_site_type_symbol
_atom_site_label
_atom_site_fract_x
_atom_site_fract_y
_atom_site_fract_z
Si Si1 0.095752 0.774912 0.040249
Si Si2 0.748100 0.044522 0.298574
Si Si3 0.137509 0.905991 0.119244
Si Si4 0.400332 0.204043 0.172852
Si Si5 0.369321 0.157683 0.678044
O O1 0.050575 0.860955 0.052256
O O2 0.085744 0.734275 0.113680
O O3 0.358575 0.757682 0.001859
O O4 0.500000 0.022847 0.250000
O O5 0.670266 0.120819 0.331250
O O6 0.000000 0.053121 0.250000
O O7 0.823469 0.988265 0.358118
O O8 0.428180 0.875718 0.126313
O O9 0.914880 0.877017 0.171159
O O10 0.500000 0.215903 0.250000
O O11 0.158278 0.257614 0.166668
O O12 0.500000 0.144138 0.750000
#
# Coordination Sequence:
#
# PCOD9320480 Si02
#       5
#     8   8   8   8   8
#     4  11  24  43  67  94 126 168 217 266 314 374
#     4  11  23  38  61  97 135 164 203 263 324 377
#     4  11  22  37  60  89 122 166 206 254 312 371
#     4  10  23  41  66  95 128 168 213 263 319 379
#     4  11  19  33  58  89 121 158 205 252 302 361
#
# _framework density 21.302388000000001
#
# number of rings (size 3 to 8) (size 9 to 14) (size 15 to 20)
#    0.000    1.200    0.000    9.000    0.000    7.200 
#    0.000    1.000    0.000    7.200    0.000    0.000 
#    0.000    0.000    0.000    0.000    0.000    0.000 
#
# Total GULP energy -111525.374799 kJ/mol
# GULP energy per Si atom -5576.268740 kJ/mol
# Density = 2.125390 g / cm^3
# Si number density = 21.302388 Si / 1000 Ang^3
#
#
#
# Elastic Constant Matrix: (Units=GPa)
#
#
# Indices 1 2 3 4 5 6 
#
# 1 105.2060 23.0075 20.2178 0.0000 0.0000 0.0000
# 2 23.0075 129.4992 18.3264 0.0000 0.0000 0.0000
# 3 20.2178 18.3264 66.5867 0.0000 0.0000 0.0000
# 4 0.0000 0.0000 0.0000 -0.8550 0.0000 0.0000
# 5 0.0000 0.0000 0.0000 0.0000 31.9933 0.0000
# 6 0.0000 0.0000 0.0000 0.0000 0.0000 19.4035
#
#
#
# Elastic Compliance Matrix: (Units=1/GPa)
#
#
# Indices 1 2 3 4 5 6 
#
# 1 0.010350 -0.001451 -0.002743 0.000000 0.000000 0.000000
# 2 -0.001451 0.008238 -0.001827 0.000000 0.000000 0.000000
# 3 -0.002743 -0.001827 0.016354 0.000000 0.000000 0.000000
# 4 0.000000 0.000000 0.000000 -1.169578 0.000000 0.000000
# 5 0.000000 0.000000 0.000000 0.000000 0.031257 0.000000
# 6 0.000000 0.000000 0.000000 0.000000 0.000000 0.051537
#
#
# Mechanical properties :
#
#
# Convention : Reuss Voigt Hill
#
# Bulk Modulus (GPa) = 43.66778 47.15503 45.41141
# Shear Modulus (GPa) = -4.84417 26.09105 10.62344
#
# Velocity S-wave (km/s) = -1.50962 3.50350 2.23558
# Velocity P-wave (km/s) = 4.18389 6.20888 5.29410
#
# Compressibility (1/GPa) = 0.02290018
#
# Stress axis : x y z
#
# Youngs Moduli (GPa) = 96.62253 121.38406 61.14793
#
# Poissons Ratio (x) = 0.17607 0.16774
# Poissons Ratio (y) = 0.14015 0.11172
# Poissons Ratio (z) = 0.26506 0.22177
#
# Static dielectric constant tensor:
#      x y z
#    x 1.847210 0.000000 0.000000 
#    y 0.000000 1.812900 0.000000 
#    z 0.000000 0.000000 1.837030 
# 
# From -- ./inp_files/22618.got.cif
#   From: 2010.05.17/outbox.cif.g08.bks.cpg/sg20_12_cif.got.tgz:22618.got - 2010.06.03 22:52:26.
