data_PCOD9320130
_publ_section_title
;
Structure prediction by ZEFSAII (Michael W. Deem and Ramdas Pophale) SiO2 
 PCOD9320130
Probable space group: C 2 2 21
;
_chemical_formula_sum "Si O2"
_cell_formula_units_Z 40
_cell_length_a 17.389003
_cell_length_b 9.299302
_cell_length_c 12.140109
_cell_angle_alpha 90.000000
_cell_angle_beta 90.000000
_cell_angle_gamma 90.000000
_cell_volume 1963.123493
_symmetry_space_group_name_H-M "C 2 2 21"
_symmetry_group_IT_number 20
_symmetry_cell_setting 'orthorhombic'
loop_
_space_group_symop_operation_xyz
x,y,z
-x,-y,1/2+z
x,-y,-z
-x,y,1/2-z
1/2+x,1/2+y,z
1/2-x,1/2-y,1/2+z
1/2+x,1/2-y,-z
1/2-x,1/2+y,1/2-z
loop_
_atom_site_type_symbol
_atom_site_label
_atom_site_fract_x
_atom_site_fract_y
_atom_site_fract_z
Si Si1 0.809025 0.905178 0.352103
Si Si2 0.631843 0.290754 0.930270
Si Si3 0.361235 0.916906 0.228855
Si Si4 0.533480 0.833692 0.468596
Si Si5 0.416195 0.768117 0.795625
O O1 0.821148 0.798223 0.455711
O O2 0.720038 0.936619 0.331716
O O3 0.849811 0.833661 0.248304
O O4 0.852842 0.052981 0.378755
O O5 0.652420 0.171372 0.840026
O O6 0.543306 0.258921 0.958218
O O7 0.418782 0.836540 0.144498
O O8 0.398921 0.071813 0.249896
O O9 0.581380 0.777851 0.572781
O O10 0.513990 0.000000 0.500000
O O11 0.500000 0.723767 0.750000
#
# Coordination Sequence:
#
# PCOD9320130 Si02
#       5
#     8   8   8   8   8
#     4  11  26  41  65  98 135 172 204 278 332 380
#     4  11  24  44  62  97 136 168 214 265 333 382
#     4  11  24  41  71  92 129 171 222 269 318 386
#     4  10  22  42  72  96 121 175 226 265 311 392
#     4  11  22  43  68  97 125 170 223 261 322 394
#
# _framework density 20.375692000000001
#
# number of rings (size 3 to 8) (size 9 to 14) (size 15 to 20)
#    0.000    1.200    2.000    4.200   11.200    1.600 
#    0.000    0.000    0.000    0.000    0.000    0.000 
#    0.000    0.000    0.000    0.000    0.000    0.000 
#
# Total GULP energy -111823.510409 kJ/mol
# GULP energy per Si atom -5591.175520 kJ/mol
# Density = 2.032932 g / cm^3
# Si number density = 20.375692 Si / 1000 Ang^3
#
#
#
# Elastic Constant Matrix: (Units=GPa)
#
#
# Indices 1 2 3 4 5 6 
#
# 1 71.8706 15.2294 12.5228 0.0000 0.0000 0.0000
# 2 15.2294 21.1142 18.6494 0.0000 0.0000 0.0000
# 3 12.5228 18.6494 55.9576 0.0000 0.0000 0.0000
# 4 0.0000 0.0000 0.0000 22.8438 0.0000 0.0000
# 5 0.0000 0.0000 0.0000 0.0000 21.6757 0.0000
# 6 0.0000 0.0000 0.0000 0.0000 0.0000 13.7774
#
#
#
# Elastic Compliance Matrix: (Units=1/GPa)
#
#
# Indices 1 2 3 4 5 6 
#
# 1 0.016430 -0.012192 0.000386 0.000000 0.000000 0.000000
# 2 -0.012192 0.076167 -0.022656 0.000000 0.000000 0.000000
# 3 0.000386 -0.022656 0.025335 0.000000 0.000000 0.000000
# 4 0.000000 0.000000 0.000000 0.043775 0.000000 0.000000
# 5 0.000000 0.000000 0.000000 0.000000 0.046135 0.000000
# 6 0.000000 0.000000 0.000000 0.000000 0.000000 0.072583
#
#
# Mechanical properties :
#
#
# Convention : Reuss Voigt Hill
#
# Bulk Modulus (GPa) = 20.40479 26.86063 23.63271
# Shear Modulus (GPa) = 13.67298 18.49544 16.08421
#
# Velocity S-wave (km/s) = 2.59326 3.01611 2.81264
# Velocity P-wave (km/s) = 4.35921 5.03394 4.70867
#
# Compressibility (1/GPa) = 0.04900810
#
# Stress axis : x y z
#
# Youngs Moduli (GPa) = 60.86392 13.12906 39.47109
#
# Poissons Ratio (x) = 0.16007 -0.01526
# Poissons Ratio (y) = 0.74206 0.89427
# Poissons Ratio (z) = -0.02352 0.29746
#
# Static dielectric constant tensor:
#      x y z
#    x 1.696900 0.000000 0.000000 
#    y 0.000000 1.705840 0.000000 
#    z 0.000000 0.000000 1.741670 
# 
# From -- ./inp_files/12693.got.cif
#   From: 2010.05.17/outbox.cif.g08.bks.cpg/sg20_7_cif.got.tgz:12693.got - 2010.06.03 22:52:26.
