data_PCOD9320712
_publ_section_title
;
Structure prediction by ZEFSAII (Michael W. Deem and Ramdas Pophale) SiO2 
 PCOD9320712
Probable space group: C 2 2 21
;
_chemical_formula_sum "Si O2"
_cell_formula_units_Z 48
_cell_length_a 10.499051
_cell_length_b 9.013279
_cell_length_c 23.550716
_cell_angle_alpha 90.000000
_cell_angle_beta 90.000000
_cell_angle_gamma 90.000000
_cell_volume 2228.624883
_symmetry_space_group_name_H-M "C 2 2 21"
_symmetry_group_IT_number 20
_symmetry_cell_setting 'orthorhombic'
loop_
_space_group_symop_operation_xyz
x,y,z
-x,-y,1/2+z
x,-y,-z
-x,y,1/2-z
1/2+x,1/2+y,z
1/2-x,1/2-y,1/2+z
1/2+x,1/2-y,-z
1/2-x,1/2+y,1/2-z
loop_
_atom_site_type_symbol
_atom_site_label
_atom_site_fract_x
_atom_site_fract_y
_atom_site_fract_z
Si Si1 0.739455 0.227755 0.323715
Si Si2 0.348211 0.134431 0.462327
Si Si3 0.099303 0.530346 0.398904
Si Si4 0.641081 0.653678 0.066716
Si Si5 0.139359 0.008372 0.264780
Si Si6 0.384193 0.686676 0.119872
O O1 0.611743 0.149036 0.347540
O O2 0.814980 0.264501 0.381806
O O3 0.809217 0.098893 0.288793
O O4 0.722309 0.370153 0.285228
O O5 0.484193 0.081786 0.438300
O O6 0.366041 0.269365 0.506142
O O7 0.247833 0.167575 0.413321
O O8 0.294597 0.000000 0.500000
O O9 0.238546 0.543168 0.429345
O O10 0.085551 0.361765 0.379560
O O11 0.500633 0.605590 0.086484
O O12 0.127094 0.119556 0.317799
O O13 0.000000 0.949602 0.250000
#
# Coordination Sequence:
#
# PCOD9320712 Si02
#       6
#     8   8   8   8   8   8
#     4  10  25  46  70 102 139 181 237 287 353 417
#     4  12  24  43  72 103 144 187 231 284 355 423
#     4  10  25  46  67 105 141 181 239 286 351 421
#     4  10  23  46  67 103 141 179 234 285 345 420
#     4  12  24  46  70 102 142 182 236 294 354 420
#     4  12  25  45  74 100 144 186 232 292 349 419
#
# _framework density 21.537946999999999
#
# number of rings (size 3 to 8) (size 9 to 14) (size 15 to 20)
#    1.000    0.000    3.333    3.000    0.000    4.000 
#    3.000    0.000    0.000    0.000    0.000    0.000 
#    0.000    0.000    0.000    0.000    0.000    0.000 
#
# Total GULP energy -133998.092054 kJ/mol
# GULP energy per Si atom -5583.253836 kJ/mol
# Density = 2.148893 g / cm^3
# Si number density = 21.537947 Si / 1000 Ang^3
#
#
#
# Elastic Constant Matrix: (Units=GPa)
#
#
# Indices 1 2 3 4 5 6 
#
# 1 83.0491 10.8934 10.8253 0.0000 0.0000 0.0000
# 2 10.8934 56.3667 -9.3505 0.0000 0.0000 0.0000
# 3 10.8253 -9.3505 60.0453 0.0000 0.0000 0.0000
# 4 0.0000 0.0000 0.0000 31.8789 0.0000 0.0000
# 5 0.0000 0.0000 0.0000 0.0000 36.1322 0.0000
# 6 0.0000 0.0000 0.0000 0.0000 0.0000 13.6533
#
#
#
# Elastic Compliance Matrix: (Units=1/GPa)
#
#
# Indices 1 2 3 4 5 6 
#
# 1 0.012785 -0.002929 -0.002761 0.000000 0.000000 0.000000
# 2 -0.002929 0.018882 0.003468 0.000000 0.000000 0.000000
# 3 -0.002761 0.003468 0.017692 0.000000 0.000000 0.000000
# 4 0.000000 0.000000 0.000000 0.031369 0.000000 0.000000
# 5 0.000000 0.000000 0.000000 0.000000 0.027676 0.000000
# 6 0.000000 0.000000 0.000000 0.000000 0.000000 0.073242
#
#
# Mechanical properties :
#
#
# Convention : Reuss Voigt Hill
#
# Bulk Modulus (GPa) = 22.26348 24.91082 23.58715
# Shear Modulus (GPa) = 24.86799 28.80575 26.83687
#
# Velocity S-wave (km/s) = 3.40165 3.66107 3.53374
# Velocity P-wave (km/s) = 5.07815 5.42793 5.25595
#
# Compressibility (1/GPa) = 0.04491660
#
# Stress axis : x y z
#
# Youngs Moduli (GPa) = 78.21579 52.95939 56.52274
#
# Poissons Ratio (x) = 0.15511 0.15606
# Poissons Ratio (y) = 0.22908 -0.19605
# Poissons Ratio (z) = 0.21596 -0.18369
#
# Static dielectric constant tensor:
#      x y z
#    x 1.779640 0.000000 0.000000 
#    y 0.000000 1.787530 0.000000 
#    z 0.000000 0.000000 1.769680 
# 
# From -- ./inp_files/29080.got.cif
#   From: 2010.05.17/outbox.cif.g08.bks.cpg/sg20_15_cif.got.tgz:29080.got - 2010.06.03 22:52:26.
