data_PCOD9320023
_publ_section_title
;
Structure prediction by ZEFSAII (Michael W. Deem and Ramdas Pophale) SiO2 
 PCOD9320023
Probable space group: C 2 2 21
;
_chemical_formula_sum "Si O2"
_cell_formula_units_Z 64
_cell_length_a 9.931091
_cell_length_b 20.819597
_cell_length_c 15.392773
_cell_angle_alpha 90.000000
_cell_angle_beta 90.000000
_cell_angle_gamma 90.000000
_cell_volume 3182.629947
_symmetry_space_group_name_H-M "C 2 2 21"
_symmetry_group_IT_number 20
_symmetry_cell_setting 'orthorhombic'
loop_
_space_group_symop_operation_xyz
x,y,z
-x,-y,1/2+z
x,-y,-z
-x,y,1/2-z
1/2+x,1/2+y,z
1/2-x,1/2-y,1/2+z
1/2+x,1/2-y,-z
1/2-x,1/2+y,1/2-z
loop_
_atom_site_type_symbol
_atom_site_label
_atom_site_fract_x
_atom_site_fract_y
_atom_site_fract_z
Si Si1 0.791438 0.157750 0.097790
Si Si2 0.325260 0.808672 0.416547
Si Si3 0.843589 0.153993 0.755475
Si Si4 0.856243 0.996097 0.287755
Si Si5 0.514967 0.556708 0.055007
Si Si6 0.233835 0.840471 0.948004
Si Si7 0.377809 0.801286 0.116281
Si Si8 0.342641 0.106834 0.235950
O O1 0.870860 0.224931 0.099731
O O2 0.709708 0.152159 0.186845
O O3 0.895416 0.098709 0.095607
O O4 0.699166 0.159632 0.011156
O O5 0.208454 0.831728 0.352080
O O6 0.315356 0.732090 0.431074
O O7 0.467891 0.821317 0.369429
O O8 0.735771 0.184270 0.688438
O O9 0.000000 0.175835 0.750000
O O10 0.841636 0.078048 0.734680
O O11 0.882217 0.013698 0.387561
O O12 0.733779 0.038892 0.255356
O O13 0.000000 0.018637 0.250000
O O14 0.613117 0.612972 0.020860
O O15 0.448039 0.500000 0.000000
O O16 0.298617 0.865452 0.857967
O O17 0.336764 0.835972 0.027033
O O18 0.500000 0.099314 0.250000
#
# Coordination Sequence:
#
# PCOD9320023 Si02
#       8
#     8   8   8   8   8   8   8   8
#     4  11  24  38  66  97 132 172 224 272 334 399
#     4  11  24  40  64  97 136 173 219 279 340 399
#     4  11  26  42  68  96 130 178 226 277 334 398
#     4  10  22  42  63  90 124 167 225 268 323 391
#     4  11  22  40  68  94 126 174 223 275 321 396
#     4  10  23  40  66  96 131 174 224 268 336 395
#     4  11  23  43  64  94 137 173 218 280 340 400
#     4  11  23  41  64  94 131 171 218 278 332 397
#
# _framework density 20.109155000000001
#
# number of rings (size 3 to 8) (size 9 to 14) (size 15 to 20)
#    0.000    1.250    2.500    2.625    5.250    4.000 
#    0.000    0.000    0.000    4.500    0.000    0.000 
#    0.000    0.000    0.000    0.000    0.000    0.000 
#
# Total GULP energy -178492.304632 kJ/mol
# GULP energy per Si atom -5577.884520 kJ/mol
# Density = 2.006339 g / cm^3
# Si number density = 20.109155 Si / 1000 Ang^3
#
#
#
# Elastic Constant Matrix: (Units=GPa)
#
#
# Indices 1 2 3 4 5 6 
#
# 1 111.9800 15.1723 16.8168 0.0000 0.0000 0.0000
# 2 15.1723 82.9513 15.1854 0.0000 0.0000 0.0000
# 3 16.8168 15.1854 72.8698 0.0000 0.0000 0.0000
# 4 0.0000 0.0000 0.0000 25.4929 0.0000 0.0000
# 5 0.0000 0.0000 0.0000 0.0000 25.3047 0.0000
# 6 0.0000 0.0000 0.0000 0.0000 0.0000 21.0330
#
#
#
# Elastic Compliance Matrix: (Units=1/GPa)
#
#
# Indices 1 2 3 4 5 6 
#
# 1 0.009399 -0.001375 -0.001883 0.000000 0.000000 0.000000
# 2 -0.001375 0.012734 -0.002337 0.000000 0.000000 0.000000
# 3 -0.001883 -0.002337 0.014645 0.000000 0.000000 0.000000
# 4 0.000000 0.000000 0.000000 0.039227 0.000000 0.000000
# 5 0.000000 0.000000 0.000000 0.000000 0.039518 0.000000
# 6 0.000000 0.000000 0.000000 0.000000 0.000000 0.047544
#
#
# Mechanical properties :
#
#
# Convention : Reuss Voigt Hill
#
# Bulk Modulus (GPa) = 39.07683 40.23889 39.65786
# Shear Modulus (GPa) = 27.35455 29.07456 28.21456
#
# Velocity S-wave (km/s) = 3.69223 3.80654 3.74982
# Velocity P-wave (km/s) = 6.13607 6.27482 6.20583
#
# Compressibility (1/GPa) = 0.02559061
#
# Stress axis : x y z
#
# Youngs Moduli (GPa) = 106.39275 78.52740 68.28502
#
# Poissons Ratio (x) = 0.10794 0.12856
# Poissons Ratio (y) = 0.14624 0.15955
# Poissons Ratio (z) = 0.20030 0.18348
#
# Static dielectric constant tensor:
#      x y z
#    x 1.742670 0.000000 0.000000 
#    y 0.000000 1.709520 0.000000 
#    z 0.000000 0.000000 1.816270 
# 
# From -- ./inp_files/23924.got.cif
#   From: 2010.05.17/outbox.cif.g08.bks.cpg/sg20_12_cif.got.tgz:23924.got - 2010.06.03 22:52:26.
