data_PCOD9320422
_publ_section_title
;
Structure prediction by ZEFSAII (Michael W. Deem and Ramdas Pophale) SiO2 
 PCOD9320422
Probable space group: C 2 2 21
;
_chemical_formula_sum "Si O2"
_cell_formula_units_Z 44
_cell_length_a 8.428186
_cell_length_b 24.642266
_cell_length_c 11.289014
_cell_angle_alpha 90.000000
_cell_angle_beta 90.000000
_cell_angle_gamma 90.000000
_cell_volume 2344.610817
_symmetry_space_group_name_H-M "C 2 2 21"
_symmetry_group_IT_number 20
_symmetry_cell_setting 'orthorhombic'
loop_
_space_group_symop_operation_xyz
x,y,z
-x,-y,1/2+z
x,-y,-z
-x,y,1/2-z
1/2+x,1/2+y,z
1/2-x,1/2-y,1/2+z
1/2+x,1/2-y,-z
1/2-x,1/2+y,1/2-z
loop_
_atom_site_type_symbol
_atom_site_label
_atom_site_fract_x
_atom_site_fract_y
_atom_site_fract_z
Si Si1 0.354932 0.500000 0.000000
Si Si2 0.192433 0.026631 0.244553
Si Si3 0.682668 0.688610 0.981462
Si Si4 0.595330 0.424232 0.128598
Si Si5 0.607720 0.721072 0.363099
Si Si6 0.817835 0.356426 0.782455
O O1 0.260898 0.485479 0.880779
O O2 0.470379 0.549992 0.964302
O O3 0.270640 0.081022 0.198470
O O4 0.000000 0.034276 0.250000
O O5 0.213496 0.973493 0.163419
O O6 0.668386 0.630880 0.917266
O O7 0.768438 0.733107 0.901382
O O8 0.510480 0.707359 0.029076
O O9 0.782574 0.677926 0.100398
O O10 0.500000 0.413017 0.250000
O O11 0.500000 0.737963 0.250000
O O12 0.704095 0.668211 0.319272
O O13 0.000000 0.352061 0.750000
#
# Coordination Sequence:
#
# PCOD9320422 Si02
#       6
#     4   8   8   8   8   8
#     4   8  14  30  52  78 108 142 186 234 282 340
#     4   9  17  33  55  81 108 143 191 234 282 346
#     4  11  21  39  60  82 115 151 191 243 289 335
#     4   9  18  30  55  85 108 144 187 232 285 346
#     4  10  23  39  59  85 112 151 196 239 287 346
#     4  11  22  37  57  83 114 152 192 234 285 350
#
# _framework density 18.766439999999999
#
# number of rings (size 3 to 8) (size 9 to 14) (size 15 to 20)
#    0.000    2.545    0.000    6.000    0.000    3.636 
#    0.000    6.364    0.000    0.000    0.000    0.000 
#    0.000    0.000    0.000    0.000    0.000    0.000 
#
# Total GULP energy -122741.537702 kJ/mol
# GULP energy per Si atom -5579.160805 kJ/mol
# Density = 1.872373 g / cm^3
# Si number density = 18.766440 Si / 1000 Ang^3
#
#
#
# Elastic Constant Matrix: (Units=GPa)
#
#
# Indices 1 2 3 4 5 6 
#
# 1 70.7102 38.0034 18.7213 0.0000 0.0000 0.0000
# 2 38.0034 120.6544 34.3499 0.0000 0.0000 0.0000
# 3 18.7213 34.3499 58.3757 0.0000 0.0000 0.0000
# 4 0.0000 0.0000 0.0000 24.0638 0.0000 0.0000
# 5 0.0000 0.0000 0.0000 0.0000 18.4914 0.0000
# 6 0.0000 0.0000 0.0000 0.0000 0.0000 10.1558
#
#
#
# Elastic Compliance Matrix: (Units=1/GPa)
#
#
# Indices 1 2 3 4 5 6 
#
# 1 0.017405 -0.004676 -0.002830 0.000000 0.000000 0.000000
# 2 -0.004676 0.011212 -0.005098 0.000000 0.000000 0.000000
# 3 -0.002830 -0.005098 0.021038 0.000000 0.000000 0.000000
# 4 0.000000 0.000000 0.000000 0.041556 0.000000 0.000000
# 5 0.000000 0.000000 0.000000 0.000000 0.054079 0.000000
# 6 0.000000 0.000000 0.000000 0.000000 0.000000 0.098466
#
#
# Mechanical properties :
#
#
# Convention : Reuss Voigt Hill
#
# Bulk Modulus (GPa) = 40.90609 47.98770 44.44690
# Shear Modulus (GPa) = 18.04310 21.11991 19.58150
#
# Velocity S-wave (km/s) = 3.10410 3.35835 3.23372
# Velocity P-wave (km/s) = 5.88999 6.37688 6.13826
#
# Compressibility (1/GPa) = 0.02444624
#
# Stress axis : x y z
#
# Youngs Moduli (GPa) = 57.45516 89.18625 47.53338
#
# Poissons Ratio (x) = 0.41707 0.13452
# Poissons Ratio (y) = 0.26869 0.24233
# Poissons Ratio (z) = 0.16260 0.45467
#
# Static dielectric constant tensor:
#      x y z
#    x 1.642310 0.000000 0.000000 
#    y 0.000000 1.634480 0.000000 
#    z 0.000000 0.000000 1.693830 
# 
# From -- ./inp_files/13018.got.cif
#   From: 2010.05.17/outbox.cif.g08.bks.cpg/sg20_7_cif.got.tgz:13018.got - 2010.06.03 22:52:26.
