data_PCOD9320803
_publ_section_title
;
Structure prediction by ZEFSAII (Michael W. Deem and Ramdas Pophale) SiO2 
 PCOD9320803
Probable space group: C 2 2 21
;
_chemical_formula_sum "Si O2"
_cell_formula_units_Z 64
_cell_length_a 5.131560
_cell_length_b 19.083294
_cell_length_c 29.705966
_cell_angle_alpha 90.000000
_cell_angle_beta 90.000000
_cell_angle_gamma 90.000000
_cell_volume 2909.018157
_symmetry_space_group_name_H-M "C 2 2 21"
_symmetry_group_IT_number 20
_symmetry_cell_setting 'orthorhombic'
loop_
_space_group_symop_operation_xyz
x,y,z
-x,-y,1/2+z
x,-y,-z
-x,y,1/2-z
1/2+x,1/2+y,z
1/2-x,1/2-y,1/2+z
1/2+x,1/2-y,-z
1/2-x,1/2+y,1/2-z
loop_
_atom_site_type_symbol
_atom_site_label
_atom_site_fract_x
_atom_site_fract_y
_atom_site_fract_z
Si Si1 0.092746 0.362607 0.588271
Si Si2 0.261315 0.293090 0.504759
Si Si3 0.488744 0.115398 0.925748
Si Si4 0.002668 0.120449 0.636241
Si Si5 0.425139 0.767618 0.830141
Si Si6 0.910228 0.844551 0.799335
Si Si7 0.770494 0.476820 0.547929
Si Si8 0.949899 0.965979 0.636833
O O1 0.300271 0.332585 0.552468
O O2 0.008093 0.298509 0.619847
O O3 0.189393 0.422839 0.623244
O O4 0.888805 0.400009 0.555108
O O5 0.541635 0.267012 0.487635
O O6 0.112943 0.339202 0.467351
O O7 0.273474 0.127735 0.888072
O O8 0.767324 0.127206 0.901423
O O9 0.508377 0.035248 0.942747
O O10 0.050068 0.184569 0.669549
O O11 0.975496 0.042994 0.658027
O O12 0.638824 0.804083 0.798852
O O13 0.135923 0.793565 0.818506
O O14 0.896282 0.910490 0.832871
O O15 0.000000 0.867413 0.750000
O O16 0.658854 0.500000 0.500000
O O17 0.567195 0.480888 0.587868
#
# Coordination Sequence:
#
# PCOD9320803 Si02
#       8
#     8   8   8   8   8   8   8   8
#     4  11  22  39  61  86 128 175 225 268 323 389
#     4  12  26  38  56  85 126 173 227 275 320 372
#     4  11  22  38  57  88 126 172 218 267 315 367
#     4  11  23  41  65  94 130 168 211 266 328 390
#     4  11  23  42  69  96 129 168 210 266 332 398
#     4  11  24  45  71  99 129 167 216 270 328 406
#     4  11  21  37  59  90 129 177 226 274 312 382
#     4  10  24  41  68  96 130 176 225 272 339 394
#
# _framework density 22.000551999999999
#
# number of rings (size 3 to 8) (size 9 to 14) (size 15 to 20)
#    0.000    1.000    3.750    3.375    1.750    3.500 
#    0.000    1.250    0.000    0.000    0.000    0.000 
#    0.000    0.000    0.000    0.000    0.000    0.000 
#
# Total GULP energy -178634.550637 kJ/mol
# GULP energy per Si atom -5582.329707 kJ/mol
# Density = 2.195048 g / cm^3
# Si number density = 22.000552 Si / 1000 Ang^3
#
#
#
# Elastic Constant Matrix: (Units=GPa)
#
#
# Indices 1 2 3 4 5 6 
#
# 1 72.6696 35.9797 12.8747 0.0000 0.0000 0.0000
# 2 35.9797 110.0501 13.3392 0.0000 0.0000 0.0000
# 3 12.8747 13.3392 56.7491 0.0000 0.0000 0.0000
# 4 0.0000 0.0000 0.0000 8.4124 0.0000 0.0000
# 5 0.0000 0.0000 0.0000 0.0000 25.2236 0.0000
# 6 0.0000 0.0000 0.0000 0.0000 0.0000 27.5079
#
#
#
# Elastic Compliance Matrix: (Units=1/GPa)
#
#
# Indices 1 2 3 4 5 6 
#
# 1 0.016781 -0.005172 -0.002591 0.000000 0.000000 0.000000
# 2 -0.005172 0.010947 -0.001400 0.000000 0.000000 0.000000
# 3 -0.002591 -0.001400 0.018538 0.000000 0.000000 0.000000
# 4 0.000000 0.000000 0.000000 0.118872 0.000000 0.000000
# 5 0.000000 0.000000 0.000000 0.000000 0.039645 0.000000
# 6 0.000000 0.000000 0.000000 0.000000 0.000000 0.036353
#
#
# Mechanical properties :
#
#
# Convention : Reuss Voigt Hill
#
# Bulk Modulus (GPa) = 35.79114 40.42847 38.10980
# Shear Modulus (GPa) = 18.60277 24.04712 21.32495
#
# Velocity S-wave (km/s) = 2.91100 3.30968 3.11672
# Velocity P-wave (km/s) = 5.25378 5.74642 5.50561
#
# Compressibility (1/GPa) = 0.02793988
#
# Stress axis : x y z
#
# Youngs Moduli (GPa) = 59.59174 91.34551 53.94221
#
# Poissons Ratio (x) = 0.47246 0.13978
# Poissons Ratio (y) = 0.30822 0.07551
# Poissons Ratio (z) = 0.15442 0.12787
#
# Static dielectric constant tensor:
#      x y z
#    x 1.825220 0.000000 0.000000 
#    y 0.000000 1.918810 0.000000 
#    z 0.000000 0.000000 1.801830 
# 
# From -- ./inp_files/30844.got.cif
#   From: 2010.05.17/outbox.cif.g08.bks.cpg/sg20_16_cif.got.tgz:30844.got - 2010.06.03 22:52:26.
