data_PCOD9320182
_publ_section_title
;
Structure prediction by ZEFSAII (Michael W. Deem and Ramdas Pophale) SiO2 
 PCOD9320182
Probable space group: C 2 2 21
;
_chemical_formula_sum "Si O2"
_cell_formula_units_Z 56
_cell_length_a 18.796568
_cell_length_b 15.583805
_cell_length_c 9.543289
_cell_angle_alpha 90.000000
_cell_angle_beta 90.000000
_cell_angle_gamma 90.000000
_cell_volume 2795.439781
_symmetry_space_group_name_H-M "C 2 2 21"
_symmetry_group_IT_number 20
_symmetry_cell_setting 'orthorhombic'
loop_
_space_group_symop_operation_xyz
x,y,z
-x,-y,1/2+z
x,-y,-z
-x,y,1/2-z
1/2+x,1/2+y,z
1/2-x,1/2-y,1/2+z
1/2+x,1/2-y,-z
1/2-x,1/2+y,1/2-z
loop_
_atom_site_type_symbol
_atom_site_label
_atom_site_fract_x
_atom_site_fract_y
_atom_site_fract_z
Si Si1 0.649171 0.000000 0.500000
Si Si2 0.581118 0.204796 0.076993
Si Si3 0.374783 0.500000 0.500000
Si Si4 0.782708 0.400532 0.481668
Si Si5 0.178441 0.220480 0.381457
Si Si6 0.082690 0.676616 0.401365
Si Si7 0.429808 0.343524 0.653826
Si Si8 0.741001 0.392385 0.166868
O O1 0.610511 0.080715 0.430266
O O2 0.696478 0.043449 0.619775
O O3 0.597788 0.207674 0.242751
O O4 0.501334 0.167823 0.071929
O O5 0.643533 0.150802 0.002312
O O6 0.570075 0.292551 0.992434
O O7 0.417471 0.442189 0.610861
O O8 0.326119 0.566748 0.588656
O O9 0.797879 0.500000 0.500000
O O10 0.724026 0.363925 0.587456
O O11 0.744198 0.388152 0.332926
O O12 0.121334 0.255878 0.494908
O O13 0.134597 0.198992 0.241950
O O14 0.236480 0.297093 0.379581
O O15 0.500000 0.333506 0.750000
#
# Coordination Sequence:
#
# PCOD9320182 Si02
#       8
#     4   8   4   8   8   8   8   8
#     4   9  20  42  68 100 145 174 226 276 347 406
#     4  11  24  43  69 100 140 179 236 271 345 412
#     4  11  26  46  72  96 143 176 234 288 351 410
#     4  12  25  39  67 107 137 173 229 285 338 409
#     4  11  24  43  70  96 141 177 229 277 349 414
#     4  10  23  43  68 100 137 191 223 280 336 418
#     4  12  25  50  69 100 133 188 233 290 345 408
#     4  10  22  43  69 102 133 182 219 282 349 409
#
# _framework density 20.032626
#
# number of rings (size 3 to 8) (size 9 to 14) (size 15 to 20)
#    0.000    1.143    2.857    2.571    5.000    1.143 
#    6.429    0.000    0.000    0.000    0.000    0.000 
#    0.000    0.000    0.000    0.000    0.000    0.000 
#
# Total GULP energy -156236.467609 kJ/mol
# GULP energy per Si atom -5579.873843 kJ/mol
# Density = 1.998703 g / cm^3
# Si number density = 20.032626 Si / 1000 Ang^3
#
#
#
# Elastic Constant Matrix: (Units=GPa)
#
#
# Indices 1 2 3 4 5 6 
#
# 1 74.4049 37.5789 28.2522 0.0000 0.0000 0.0000
# 2 37.5789 86.9550 29.3013 0.0000 0.0000 0.0000
# 3 28.2522 29.3013 81.1220 0.0000 0.0000 0.0000
# 4 0.0000 0.0000 0.0000 32.4664 0.0000 0.0000
# 5 0.0000 0.0000 0.0000 0.0000 5.7458 0.0000
# 6 0.0000 0.0000 0.0000 0.0000 0.0000 -5.6320
#
#
#
# Elastic Compliance Matrix: (Units=1/GPa)
#
#
# Indices 1 2 3 4 5 6 
#
# 1 0.018264 -0.006546 -0.003996 0.000000 0.000000 0.000000
# 2 -0.006546 0.015440 -0.003297 0.000000 0.000000 0.000000
# 3 -0.003996 -0.003297 0.014910 0.000000 0.000000 0.000000
# 4 0.000000 0.000000 0.000000 0.030801 0.000000 0.000000
# 5 0.000000 0.000000 0.000000 0.000000 0.174040 0.000000
# 6 0.000000 0.000000 0.000000 0.000000 0.000000 -0.177558
#
#
# Mechanical properties :
#
#
# Convention : Reuss Voigt Hill
#
# Bulk Modulus (GPa) = 47.76802 48.08298 47.92550
# Shear Modulus (GPa) = 45.22654 16.33934 30.78294
#
# Velocity S-wave (km/s) = 4.75662 2.85903 3.92425
# Velocity P-wave (km/s) = 7.35283 5.91212 6.67148
#
# Compressibility (1/GPa) = 0.02093451
#
# Stress axis : x y z
#
# Youngs Moduli (GPa) = 54.75367 64.76529 67.07014
#
# Poissons Ratio (x) = 0.42398 0.26802
# Poissons Ratio (y) = 0.35844 0.22114
# Poissons Ratio (z) = 0.21880 0.21354
#
# Static dielectric constant tensor:
#      x y z
#    x 1.703090 0.000000 0.000000 
#    y 0.000000 1.715960 0.000000 
#    z 0.000000 0.000000 1.780320 
# 
# From -- ./inp_files/10243.got.cif
#   From: 2010.05.17/outbox.cif.g08.bks.cpg/sg20_6_cif.got.tgz:10243.got - 2010.06.03 22:52:26.
