data_PCOD9320740
_publ_section_title
;
Structure prediction by ZEFSAII (Michael W. Deem and Ramdas Pophale) SiO2 
 PCOD9320740
Probable space group: C 2 2 21
;
_chemical_formula_sum "Si O2"
_cell_formula_units_Z 36
_cell_length_a 10.287308
_cell_length_b 10.172166
_cell_length_c 14.510838
_cell_angle_alpha 90.000000
_cell_angle_beta 90.000000
_cell_angle_gamma 90.000000
_cell_volume 1518.475102
_symmetry_space_group_name_H-M "C 2 2 21"
_symmetry_group_IT_number 20
_symmetry_cell_setting 'orthorhombic'
loop_
_space_group_symop_operation_xyz
x,y,z
-x,-y,1/2+z
x,-y,-z
-x,y,1/2-z
1/2+x,1/2+y,z
1/2-x,1/2-y,1/2+z
1/2+x,1/2-y,-z
1/2-x,1/2+y,1/2-z
loop_
_atom_site_type_symbol
_atom_site_label
_atom_site_fract_x
_atom_site_fract_y
_atom_site_fract_z
Si Si1 0.000000 0.119937 0.750000
Si Si2 0.839531 0.758432 0.402643
Si Si3 0.232393 0.911774 0.750144
Si Si4 0.000000 0.433605 0.250000
Si Si5 0.389775 0.500000 0.500000
Si Si6 0.587942 0.256668 0.903290
O O1 0.035014 0.209814 0.838209
O O2 0.122775 0.023194 0.738255
O O3 0.741990 0.681224 0.339005
O O4 0.367489 0.809058 0.499155
O O5 0.802766 0.905897 0.436271
O O6 0.198922 0.817454 0.836443
O O7 0.370982 0.980727 0.756828
O O8 0.011249 0.340751 0.160839
O O9 0.471855 0.605933 0.442537
#
# Coordination Sequence:
#
# PCOD9320740 Si02
#       6
#     4   8   8   4   4   8
#     4  12  22  48  74 102 146 188 240 294 366 434
#     4  10  23  47  74 106 147 191 241 303 360 433
#     4  12  25  48  76 106 146 193 241 297 369 432
#     4  12  28  48  76 110 146 196 244 300 368 434
#     4   8  20  46  74 106 146 190 242 302 368 422
#     4  10  23  47  74 105 148 192 239 305 360 430
#
# _framework density 23.707995
#
# number of rings (size 3 to 8) (size 9 to 14) (size 15 to 20)
#    1.333    0.000    2.222    2.667    0.000    0.889 
#    0.000   46.667    0.000    0.000    0.000    0.000 
#    0.000    0.000    0.000    0.000    0.000    0.000 
#
# Total GULP energy -100437.274624 kJ/mol
# GULP energy per Si atom -5579.848590 kJ/mol
# Density = 2.365403 g / cm^3
# Si number density = 23.707995 Si / 1000 Ang^3
#
#
#
# Elastic Constant Matrix: (Units=GPa)
#
#
# Indices 1 2 3 4 5 6 
#
# 1 143.8828 52.9898 49.6768 0.0000 0.0000 0.0000
# 2 52.9898 95.7001 52.0688 0.0000 0.0000 0.0000
# 3 49.6768 52.0688 215.6461 0.0000 0.0000 0.0000
# 4 0.0000 0.0000 0.0000 26.9634 0.0000 0.0000
# 5 0.0000 0.0000 0.0000 0.0000 21.9184 0.0000
# 6 0.0000 0.0000 0.0000 0.0000 0.0000 42.1033
#
#
#
# Elastic Compliance Matrix: (Units=1/GPa)
#
#
# Indices 1 2 3 4 5 6 
#
# 1 0.008911 -0.004394 -0.000992 0.000000 0.000000 0.000000
# 2 -0.004394 0.014197 -0.002416 0.000000 0.000000 0.000000
# 3 -0.000992 -0.002416 0.005449 0.000000 0.000000 0.000000
# 4 0.000000 0.000000 0.000000 0.037087 0.000000 0.000000
# 5 0.000000 0.000000 0.000000 0.000000 0.045624 0.000000
# 6 0.000000 0.000000 0.000000 0.000000 0.000000 0.023751
#
#
# Mechanical properties :
#
#
# Convention : Reuss Voigt Hill
#
# Bulk Modulus (GPa) = 77.20087 84.96665 81.08376
# Shear Modulus (GPa) = 32.27052 38.22990 35.25021
#
# Velocity S-wave (km/s) = 3.69340 4.01999 3.86015
# Velocity P-wave (km/s) = 7.12897 7.58048 7.35819
#
# Compressibility (1/GPa) = 0.01295322
#
# Stress axis : x y z
#
# Youngs Moduli (GPa) = 112.22200 70.43819 183.52257
#
# Poissons Ratio (x) = 0.30954 0.18199
# Poissons Ratio (y) = 0.49316 0.44331
# Poissons Ratio (z) = 0.11129 0.17015
#
# Static dielectric constant tensor:
#      x y z
#    x 1.869470 0.000000 0.000000 
#    y 0.000000 1.939560 0.000000 
#    z 0.000000 0.000000 2.002940 
# 
# From -- ./inp_files/23218.got.cif
#   From: 2010.05.17/outbox.cif.g08.bks.cpg/sg20_12_cif.got.tgz:23218.got - 2010.06.03 22:52:26.
