data_PCOD9320001
_publ_section_title
;
Structure prediction by ZEFSAII (Michael W. Deem and Ramdas Pophale) SiO2 
 PCOD9320001
Probable space group: C 2 2 21
;
_chemical_formula_sum "Si O2"
_cell_formula_units_Z 56
_cell_length_a 8.275378
_cell_length_b 23.781826
_cell_length_c 14.117743
_cell_angle_alpha 90.000000
_cell_angle_beta 90.000000
_cell_angle_gamma 90.000000
_cell_volume 2778.422642
_symmetry_space_group_name_H-M "C 2 2 21"
_symmetry_group_IT_number 20
_symmetry_cell_setting 'orthorhombic'
loop_
_space_group_symop_operation_xyz
x,y,z
-x,-y,1/2+z
x,-y,-z
-x,y,1/2-z
1/2+x,1/2+y,z
1/2-x,1/2-y,1/2+z
1/2+x,1/2-y,-z
1/2-x,1/2+y,1/2-z
loop_
_atom_site_type_symbol
_atom_site_label
_atom_site_fract_x
_atom_site_fract_y
_atom_site_fract_z
Si Si1 0.326042 0.538962 0.300171
Si Si2 0.181766 0.216581 0.393310
Si Si3 0.338211 0.891798 0.966890
Si Si4 0.692473 0.304205 0.253880
Si Si5 0.164751 0.579445 0.691561
Si Si6 0.619731 0.116646 0.173896
Si Si7 0.691862 0.730959 0.070518
O O1 0.500000 0.548357 0.250000
O O2 0.285666 0.570509 0.401115
O O3 0.285822 0.473347 0.308370
O O4 0.194091 0.564099 0.227810
O O5 0.227124 0.270343 0.331718
O O6 0.237284 0.159539 0.345339
O O7 0.288396 0.225353 0.485785
O O8 0.993827 0.215976 0.414586
O O9 0.512492 0.898677 0.916487
O O10 0.285549 0.826776 0.952324
O O11 0.351703 0.905832 0.078644
O O12 0.500000 0.306779 0.250000
O O13 0.762341 0.366780 0.246592
O O14 0.740058 0.265354 0.341667
O O15 0.000000 0.565834 0.750000
O O16 0.500000 0.145538 0.250000
#
# Coordination Sequence:
#
# PCOD9320001 Si02
#       7
#     8   8   8   8   8   8   8
#     4  11  24  47  71  99 135 179 234 289 345 409
#     4  12  23  41  63  99 133 174 223 275 338 411
#     4  11  23  45  71 103 134 182 229 287 343 416
#     4  12  25  43  65  96 138 180 221 285 348 411
#     4  12  26  45  69 100 140 182 229 287 351 410
#     4  10  22  41  70  96 129 171 231 282 336 407
#     4  12  25  40  67  97 138 174 225 274 343 412
#
# _framework density 20.155321000000001
#
# number of rings (size 3 to 8) (size 9 to 14) (size 15 to 20)
#    0.000    0.571    1.429    9.000    2.000    0.000 
#    0.000    2.857    0.000    0.000    0.000    0.000 
#    0.000    0.000    0.000    0.000    0.000    0.000 
#
# Total GULP energy -156430.590952 kJ/mol
# GULP energy per Si atom -5586.806820 kJ/mol
# Density = 2.010945 g / cm^3
# Si number density = 20.155321 Si / 1000 Ang^3
#
#
#
# Elastic Constant Matrix: (Units=GPa)
#
#
# Indices 1 2 3 4 5 6 
#
# 1 133.9477 -0.9121 47.9231 0.0000 0.0000 0.0000
# 2 -0.9121 102.9185 33.1625 0.0000 0.0000 0.0000
# 3 47.9231 33.1625 105.0505 0.0000 0.0000 0.0000
# 4 0.0000 0.0000 0.0000 25.8286 0.0000 0.0000
# 5 0.0000 0.0000 0.0000 0.0000 29.9228 0.0000
# 6 0.0000 0.0000 0.0000 0.0000 0.0000 13.4705
#
#
#
# Elastic Compliance Matrix: (Units=1/GPa)
#
#
# Indices 1 2 3 4 5 6 
#
# 1 0.009149 0.001587 -0.004675 0.000000 0.000000 0.000000
# 2 0.001587 0.011092 -0.004226 0.000000 0.000000 0.000000
# 3 -0.004675 -0.004226 0.012986 0.000000 0.000000 0.000000
# 4 0.000000 0.000000 0.000000 0.038717 0.000000 0.000000
# 5 0.000000 0.000000 0.000000 0.000000 0.033419 0.000000
# 6 0.000000 0.000000 0.000000 0.000000 0.000000 0.074237
#
#
# Mechanical properties :
#
#
# Convention : Reuss Voigt Hill
#
# Bulk Modulus (GPa) = 53.76164 55.80708 54.78436
# Shear Modulus (GPa) = 24.94687 31.29390 28.12039
#
# Velocity S-wave (km/s) = 3.52196 3.94463 3.73927
# Velocity P-wave (km/s) = 6.57803 6.96386 6.77369
#
# Compressibility (1/GPa) = 0.01860062
#
# Stress axis : x y z
#
# Youngs Moduli (GPa) = 109.30248 90.15417 77.00714
#
# Poissons Ratio (x) = -0.14311 0.35999
# Poissons Ratio (y) = -0.17351 0.32541
# Poissons Ratio (z) = 0.51096 0.38097
#
# Static dielectric constant tensor:
#      x y z
#    x 1.707970 0.000000 0.000000 
#    y 0.000000 1.689050 0.000000 
#    z 0.000000 0.000000 1.748840 
# 
# From -- ./inp_files/19229.got.cif
#   From: 2010.05.17/outbox.cif.g08.bks.cpg/sg20_10_cif.got.tgz:19229.got - 2010.06.03 22:52:26.
