data_PCOD9320591
_publ_section_title
;
Structure prediction by ZEFSAII (Michael W. Deem and Ramdas Pophale) SiO2 
 PCOD9320591
Probable space group: C 2 2 21
;
_chemical_formula_sum "Si O2"
_cell_formula_units_Z 56
_cell_length_a 13.220106
_cell_length_b 12.581836
_cell_length_c 14.292277
_cell_angle_alpha 90.000000
_cell_angle_beta 90.000000
_cell_angle_gamma 90.000000
_cell_volume 2377.280249
_symmetry_space_group_name_H-M "C 2 2 21"
_symmetry_group_IT_number 20
_symmetry_cell_setting 'orthorhombic'
loop_
_space_group_symop_operation_xyz
x,y,z
-x,-y,1/2+z
x,-y,-z
-x,y,1/2-z
1/2+x,1/2+y,z
1/2-x,1/2-y,1/2+z
1/2+x,1/2-y,-z
1/2-x,1/2+y,1/2-z
loop_
_atom_site_type_symbol
_atom_site_label
_atom_site_fract_x
_atom_site_fract_y
_atom_site_fract_z
Si Si1 0.061477 0.207605 0.400264
Si Si2 0.621972 0.851610 0.738174
Si Si3 0.397631 0.080457 0.803704
Si Si4 0.437721 0.512632 0.835050
Si Si5 0.250929 0.658732 0.852395
Si Si6 0.287760 0.811112 0.559266
Si Si7 0.896989 0.105344 0.526843
O O1 0.069954 0.331449 0.378558
O O2 0.166786 0.183565 0.451139
O O3 0.958771 0.174709 0.451421
O O4 0.069715 0.114382 0.322698
O O5 0.500000 0.829002 0.750000
O O6 0.680386 0.760779 0.678274
O O7 0.667354 0.863492 0.845285
O O8 0.642268 0.961440 0.681163
O O9 0.500000 0.055521 0.750000
O O10 0.325071 0.142739 0.733120
O O11 0.500000 0.559941 0.750000
O O12 0.328924 0.561089 0.850938
O O13 0.511790 0.551386 0.916347
O O14 0.189755 0.657071 0.951078
O O15 0.324518 0.689707 0.574901
O O16 0.835045 0.000000 0.500000
#
# Coordination Sequence:
#
# PCOD9320591 Si02
#       7
#     8   8   8   8   8   8   8
#     4  11  23  44  68 102 142 182 242 306 358 427
#     4  11  26  48  71 101 145 190 240 297 367 444
#     4  11  25  45  67  99 145 186 236 294 368 435
#     4  11  23  41  73 103 139 188 242 301 357 426
#     4  12  24  42  75 104 139 189 245 296 367 439
#     4  12  24  43  73 104 146 186 245 300 365 439
#     4  10  23  43  68 103 139 184 243 302 362 432
#
# _framework density 23.556331
#
# number of rings (size 3 to 8) (size 9 to 14) (size 15 to 20)
#    0.000    0.857    2.857    4.286    0.000    4.000 
#    0.000    0.000    0.000    0.000    0.000    0.000 
#    0.000    0.000    0.000    0.000    0.000    0.000 
#
# Total GULP energy -155940.946298 kJ/mol
# GULP energy per Si atom -5569.319511 kJ/mol
# Density = 2.350272 g / cm^3
# Si number density = 23.556331 Si / 1000 Ang^3
#
#
#
# Elastic Constant Matrix: (Units=GPa)
#
#
# Indices 1 2 3 4 5 6 
#
# 1 51.7195 21.9650 9.1215 0.0000 0.0000 0.0000
# 2 21.9650 150.8448 20.7549 0.0000 0.0000 0.0000
# 3 9.1215 20.7549 76.8753 0.0000 0.0000 0.0000
# 4 0.0000 0.0000 0.0000 30.6122 0.0000 0.0000
# 5 0.0000 0.0000 0.0000 0.0000 31.1026 0.0000
# 6 0.0000 0.0000 0.0000 0.0000 0.0000 30.3792
#
#
#
# Elastic Compliance Matrix: (Units=1/GPa)
#
#
# Indices 1 2 3 4 5 6 
#
# 1 0.020825 -0.002796 -0.001716 0.000000 0.000000 0.000000
# 2 -0.002796 0.007261 -0.001628 0.000000 0.000000 0.000000
# 3 -0.001716 -0.001628 0.013651 0.000000 0.000000 0.000000
# 4 0.000000 0.000000 0.000000 0.032667 0.000000 0.000000
# 5 0.000000 0.000000 0.000000 0.000000 0.032152 0.000000
# 6 0.000000 0.000000 0.000000 0.000000 0.000000 0.032917
#
#
# Mechanical properties :
#
#
# Convention : Reuss Voigt Hill
#
# Bulk Modulus (GPa) = 33.94936 42.56915 38.25925
# Shear Modulus (GPa) = 30.94577 33.59201 32.26889
#
# Velocity S-wave (km/s) = 3.62842 3.78038 3.70518
# Velocity P-wave (km/s) = 5.65661 6.09635 5.88059
#
# Compressibility (1/GPa) = 0.02945563
#
# Stress axis : x y z
#
# Youngs Moduli (GPa) = 48.01853 137.73024 73.25286
#
# Poissons Ratio (x) = 0.38514 0.12570
# Poissons Ratio (y) = 0.13428 0.11929
# Poissons Ratio (z) = 0.08240 0.22428
#
# Static dielectric constant tensor:
#      x y z
#    x 1.908410 0.000000 0.000000 
#    y 0.000000 2.108210 0.000000 
#    z 0.000000 0.000000 2.030080 
# 
# From -- ./inp_files/20758.got.cif
#   From: 2010.05.17/outbox.cif.g08.bks.cpg/sg20_11_cif.got.tgz:20758.got - 2010.06.03 22:52:26.
