data_PCOD9320430
_publ_section_title
;
Structure prediction by ZEFSAII (Michael W. Deem and Ramdas Pophale) SiO2 
 PCOD9320430
Probable space group: C 2 2 21
;
_chemical_formula_sum "Si O2"
_cell_formula_units_Z 60
_cell_length_a 6.468184
_cell_length_b 19.314060
_cell_length_c 21.531966
_cell_angle_alpha 90.000000
_cell_angle_beta 90.000000
_cell_angle_gamma 90.000000
_cell_volume 2689.921631
_symmetry_space_group_name_H-M "C 2 2 21"
_symmetry_group_IT_number 20
_symmetry_cell_setting 'orthorhombic'
loop_
_space_group_symop_operation_xyz
x,y,z
-x,-y,1/2+z
x,-y,-z
-x,y,1/2-z
1/2+x,1/2+y,z
1/2-x,1/2-y,1/2+z
1/2+x,1/2-y,-z
1/2-x,1/2+y,1/2-z
loop_
_atom_site_type_symbol
_atom_site_label
_atom_site_fract_x
_atom_site_fract_y
_atom_site_fract_z
Si Si1 0.127871 0.837915 0.452336
Si Si2 0.092795 0.553712 0.894161
Si Si3 0.187417 0.567525 0.377429
Si Si4 0.470872 0.506233 0.816131
Si Si5 0.290094 0.360589 0.345335
Si Si6 0.385712 0.300660 0.575844
Si Si7 0.500000 0.111421 0.250000
Si Si8 0.832091 0.216224 0.196789
O O1 0.264141 0.907384 0.444116
O O2 0.274213 0.771993 0.438482
O O3 0.945317 0.842756 0.401455
O O4 0.016082 0.827149 0.517449
O O5 0.245708 0.528032 0.839163
O O6 0.957178 0.487003 0.912924
O O7 0.929159 0.610653 0.869625
O O8 0.419296 0.537680 0.370264
O O9 0.210455 0.643105 0.406188
O O10 0.106177 0.570605 0.306379
O O11 0.500000 0.469476 0.750000
O O12 0.607329 0.575410 0.810267
O O13 0.265201 0.292390 0.305083
O O14 0.546243 0.294167 0.632525
O O15 0.662783 0.159487 0.213540
O O16 0.000000 0.213329 0.250000
#
# Coordination Sequence:
#
# PCOD9320430 Si02
#       8
#     8   8   8   8   8   8   4   8
#     4  11  25  50  75 104 141 197 251 314 372 452
#     4  10  23  47  70 101 145 192 248 302 369 447
#     4  11  25  44  70 107 144 193 243 305 372 449
#     4  10  23  39  68 101 145 191 239 293 367 445
#     4  10  23  42  68 102 140 187 250 296 363 438
#     4  12  26  48  78 104 146 190 251 313 380 437
#     4  12  26  44  72 104 156 192 236 308 382 458
#     4  12  26  42  69 110 146 185 244 304 375 454
#
# _framework density 22.305482000000001
#
# number of rings (size 3 to 8) (size 9 to 14) (size 15 to 20)
#    0.000    1.067    2.667    2.400    6.533    1.067 
#    0.000    7.333    0.000    0.000    0.000    0.000 
#    0.000    0.000    0.000    0.000    0.000    0.000 
#
# Total GULP energy -167857.148671 kJ/mol
# GULP energy per Si atom -5595.238289 kJ/mol
# Density = 2.225471 g / cm^3
# Si number density = 22.305482 Si / 1000 Ang^3
#
#
#
# Elastic Constant Matrix: (Units=GPa)
#
#
# Indices 1 2 3 4 5 6 
#
# 1 96.9417 23.1509 26.6290 0.0000 0.0000 0.0000
# 2 23.1509 98.0227 6.3057 0.0000 0.0000 0.0000
# 3 26.6290 6.3057 67.3094 0.0000 0.0000 0.0000
# 4 0.0000 0.0000 0.0000 11.3399 0.0000 0.0000
# 5 0.0000 0.0000 0.0000 0.0000 35.5959 0.0000
# 6 0.0000 0.0000 0.0000 0.0000 0.0000 33.0643
#
#
#
# Elastic Compliance Matrix: (Units=1/GPa)
#
#
# Indices 1 2 3 4 5 6 
#
# 1 0.012191 -0.002585 -0.004581 0.000000 0.000000 0.000000
# 2 -0.002585 0.010812 0.000010 0.000000 0.000000 0.000000
# 3 -0.004581 0.000010 0.016668 0.000000 0.000000 0.000000
# 4 0.000000 0.000000 0.000000 0.088184 0.000000 0.000000
# 5 0.000000 0.000000 0.000000 0.000000 0.028093 0.000000
# 6 0.000000 0.000000 0.000000 0.000000 0.000000 0.030244
#
#
# Mechanical properties :
#
#
# Convention : Reuss Voigt Hill
#
# Bulk Modulus (GPa) = 39.43359 41.60500 40.51929
# Shear Modulus (GPa) = 23.92839 29.74590 26.83714
#
# Velocity S-wave (km/s) = 3.27885 3.65577 3.47243
# Velocity P-wave (km/s) = 5.66143 6.04255 5.85509
#
# Compressibility (1/GPa) = 0.02535909
#
# Stress axis : x y z
#
# Youngs Moduli (GPa) = 82.02741 92.49387 59.99462
#
# Poissons Ratio (x) = 0.23906 0.27483
# Poissons Ratio (y) = 0.21201 -0.00058
# Poissons Ratio (z) = 0.37576 -0.00089
#
# Static dielectric constant tensor:
#      x y z
#    x 1.824590 0.000000 0.000000 
#    y 0.000000 1.804390 0.000000 
#    z 0.000000 0.000000 1.832380 
# 
# From -- ./inp_files/28479.got.cif
#   From: 2010.05.17/outbox.cif.g08.bks.cpg/sg20_15_cif.got.tgz:28479.got - 2010.06.03 22:52:26.
