data_PCOD9320518
_publ_section_title
;
Structure prediction by ZEFSAII (Michael W. Deem and Ramdas Pophale) SiO2 
 PCOD9320518
Probable space group: C 2 2 21
;
_chemical_formula_sum "Si O2"
_cell_formula_units_Z 48
_cell_length_a 10.158305
_cell_length_b 12.044400
_cell_length_c 14.491342
_cell_angle_alpha 90.000000
_cell_angle_beta 90.000000
_cell_angle_gamma 90.000000
_cell_volume 1773.025674
_symmetry_space_group_name_H-M "C 2 2 21"
_symmetry_group_IT_number 20
_symmetry_cell_setting 'orthorhombic'
loop_
_space_group_symop_operation_xyz
x,y,z
-x,-y,1/2+z
x,-y,-z
-x,y,1/2-z
1/2+x,1/2+y,z
1/2-x,1/2-y,1/2+z
1/2+x,1/2-y,-z
1/2-x,1/2+y,1/2-z
loop_
_atom_site_type_symbol
_atom_site_label
_atom_site_fract_x
_atom_site_fract_y
_atom_site_fract_z
Si Si1 0.614146 0.398182 0.095886
Si Si2 0.610772 0.003301 0.365193
Si Si3 0.172060 0.458356 0.151438
Si Si4 0.204969 0.262785 0.606947
Si Si5 0.258020 0.300848 0.894598
Si Si6 0.970071 0.873303 0.615939
O O1 0.760207 0.453023 0.086074
O O2 0.649228 0.282815 0.146146
O O3 0.533177 0.497344 0.142449
O O4 0.543774 0.375009 0.997162
O O5 0.643277 0.984405 0.257956
O O6 0.475352 0.940094 0.390087
O O7 0.601519 0.136820 0.380747
O O8 0.280232 0.361959 0.144290
O O9 0.218645 0.571593 0.104843
O O10 0.224978 0.242241 0.498498
O O11 0.336301 0.318447 0.648411
O O12 0.403862 0.305217 0.853094
#
# Coordination Sequence:
#
# PCOD9320518 Si02
#       6
#     8   8   8   8   8   8
#     4   9  20  39  64  88 130 168 210 265 328 382
#     4  10  24  46  65  95 134 180 218 268 338 405
#     4  11  25  41  67  98 134 174 220 272 335 399
#     4  10  23  42  64  97 130 168 224 273 323 394
#     4  11  23  38  68 100 128 170 220 276 330 381
#     4   9  20  39  63  94 124 165 213 273 318 381
#
# _framework density 27.072367
#
# number of rings (size 3 to 8) (size 9 to 14) (size 15 to 20)
#    0.000    2.000    0.000    2.500   11.667    0.000 
#   12.000    2.500    0.000    0.000    0.000    0.000 
#    0.000    0.000    0.000    0.000    0.000    0.000 
#
# Total GULP energy -134150.814540 kJ/mol
# GULP energy per Si atom -5589.617272 kJ/mol
# Density = 2.701075 g / cm^3
# Si number density = 27.072367 Si / 1000 Ang^3
#
#
#
# Elastic Constant Matrix: (Units=GPa)
#
#
# Indices 1 2 3 4 5 6 
#
# 1 78.1311 29.3813 7.6567 0.0000 0.0000 0.0000
# 2 29.3813 203.9135 5.7519 0.0000 0.0000 0.0000
# 3 7.6567 5.7519 79.8811 0.0000 0.0000 0.0000
# 4 0.0000 0.0000 0.0000 13.7249 0.0000 0.0000
# 5 0.0000 0.0000 0.0000 0.0000 4.1526 0.0000
# 6 0.0000 0.0000 0.0000 0.0000 0.0000 98.5700
#
#
#
# Elastic Compliance Matrix: (Units=1/GPa)
#
#
# Indices 1 2 3 4 5 6 
#
# 1 0.013640 -0.001932 -0.001168 0.000000 0.000000 0.000000
# 2 -0.001932 0.005188 -0.000188 0.000000 0.000000 0.000000
# 3 -0.001168 -0.000188 0.012644 0.000000 0.000000 0.000000
# 4 0.000000 0.000000 0.000000 0.072860 0.000000 0.000000
# 5 0.000000 0.000000 0.000000 0.000000 0.240811 0.000000
# 6 0.000000 0.000000 0.000000 0.000000 0.000000 0.010145
#
#
# Mechanical properties :
#
#
# Convention : Reuss Voigt Hill
#
# Bulk Modulus (GPa) = 40.17021 49.72283 44.94652
# Shear Modulus (GPa) = 13.50749 44.56522 29.03636
#
# Velocity S-wave (km/s) = 2.23612 4.06168 3.27853
# Velocity P-wave (km/s) = 4.64083 6.35632 5.56508
#
# Compressibility (1/GPa) = 0.02489407
#
# Stress axis : x y z
#
# Youngs Moduli (GPa) = 73.31285 192.76037 79.08793
#
# Poissons Ratio (x) = 0.37249 0.09240
# Poissons Ratio (y) = 0.14167 0.01489
# Poissons Ratio (z) = 0.08565 0.03630
#
# Static dielectric constant tensor:
#      x y z
#    x 2.163570 0.000000 0.000000 
#    y 0.000000 2.184730 0.000000 
#    z 0.000000 0.000000 2.042500 
# 
# From -- ./inp_files/24255.got.cif
#   From: 2010.05.17/outbox.cif.g08.bks.cpg/sg20_13_cif.got.tgz:24255.got - 2010.06.03 22:52:26.
