data_PCOD9320361
_publ_section_title
;
Structure prediction by ZEFSAII (Michael W. Deem and Ramdas Pophale) SiO2 
 PCOD9320361
Probable space group: C 2 2 21
;
_chemical_formula_sum "Si O2"
_cell_formula_units_Z 28
_cell_length_a 7.925564
_cell_length_b 14.374270
_cell_length_c 9.816474
_cell_angle_alpha 90.000000
_cell_angle_beta 90.000000
_cell_angle_gamma 90.000000
_cell_volume 1118.333916
_symmetry_space_group_name_H-M "C 2 2 21"
_symmetry_group_IT_number 20
_symmetry_cell_setting 'orthorhombic'
loop_
_space_group_symop_operation_xyz
x,y,z
-x,-y,1/2+z
x,-y,-z
-x,y,1/2-z
1/2+x,1/2+y,z
1/2-x,1/2-y,1/2+z
1/2+x,1/2-y,-z
1/2-x,1/2+y,1/2-z
loop_
_atom_site_type_symbol
_atom_site_label
_atom_site_fract_x
_atom_site_fract_y
_atom_site_fract_z
Si Si1 0.727514 0.714304 0.201797
Si Si2 0.134758 0.999194 0.850664
Si Si3 0.074220 0.696795 0.044064
Si Si4 0.458524 0.000000 0.000000
O O1 0.670187 0.606683 0.194040
O O2 0.781150 0.735433 0.355556
O O3 0.899787 0.724469 0.114915
O O4 0.597533 0.771287 0.110357
O O5 0.000000 0.044621 0.750000
O O6 0.323989 0.035963 0.884613
O O7 0.051904 0.000000 0.000000
O O8 0.069724 0.584927 0.049250
#
# Coordination Sequence:
#
# PCOD9320361 Si02
#       4
#     8   8   8   4
#     4  10  23  43  70 100 144 178 231 292 345 423
#     4   9  20  43  70  99 139 176 228 291 342 414
#     4  10  22  46  70 102 139 187 232 286 356 410
#     4   8  20  46  74  96 140 190 230 286 350 420
#
# _framework density 25.037243
#
# number of rings (size 3 to 8) (size 9 to 14) (size 15 to 20)
#    0.857    1.714    0.000    0.000    4.000    0.000 
#   12.857    2.857   12.571    0.000    0.000    0.000 
#    0.000    0.000    0.000    0.000    0.000    0.000 
#
# Total GULP energy -78168.862960 kJ/mol
# GULP energy per Si atom -5583.490211 kJ/mol
# Density = 2.498026 g / cm^3
# Si number density = 25.037243 Si / 1000 Ang^3
#
#
#
# Elastic Constant Matrix: (Units=GPa)
#
#
# Indices 1 2 3 4 5 6 
#
# 1 118.1419 23.5655 48.4636 0.0000 0.0000 0.0000
# 2 23.5655 45.5782 8.7470 0.0000 0.0000 0.0000
# 3 48.4636 8.7470 132.4454 0.0000 0.0000 0.0000
# 4 0.0000 0.0000 0.0000 22.6373 0.0000 0.0000
# 5 0.0000 0.0000 0.0000 0.0000 51.4199 0.0000
# 6 0.0000 0.0000 0.0000 0.0000 0.0000 9.3883
#
#
#
# Elastic Compliance Matrix: (Units=1/GPa)
#
#
# Indices 1 2 3 4 5 6 
#
# 1 0.010966 -0.004963 -0.003685 0.000000 0.000000 0.000000
# 2 -0.004963 0.024468 0.000200 0.000000 0.000000 0.000000
# 3 -0.003685 0.000200 0.008885 0.000000 0.000000 0.000000
# 4 0.000000 0.000000 0.000000 0.044175 0.000000 0.000000
# 5 0.000000 0.000000 0.000000 0.000000 0.019448 0.000000
# 6 0.000000 0.000000 0.000000 0.000000 0.000000 0.106515
#
#
# Mechanical properties :
#
#
# Convention : Reuss Voigt Hill
#
# Bulk Modulus (GPa) = 36.46421 50.85754 43.66087
# Shear Modulus (GPa) = 20.79065 31.04841 25.91953
#
# Velocity S-wave (km/s) = 2.88477 3.52531 3.22100
# Velocity P-wave (km/s) = 5.06868 6.07678 5.59548
#
# Compressibility (1/GPa) = 0.02742415
#
# Stress axis : x y z
#
# Youngs Moduli (GPa) = 91.19239 40.87015 112.54423
#
# Poissons Ratio (x) = 0.20282 0.41470
# Poissons Ratio (y) = 0.45255 -0.02250
# Poissons Ratio (z) = 0.33603 -0.00817
#
# Static dielectric constant tensor:
#      x y z
#    x 2.007910 0.000000 0.000000 
#    y 0.000000 1.909760 0.000000 
#    z 0.000000 0.000000 1.987250 
# 
# From -- ./inp_files/5686.got.cif
#   From: 2010.05.17/outbox.cif.g08.bks.cpg/sg20_3_cif.got.tgz:5686.got - 2010.06.03 22:52:26.
