data_PCOD9320901
_publ_section_title
;
Structure prediction by ZEFSAII (Michael W. Deem and Ramdas Pophale) SiO2 
 PCOD9320901
Probable space group: C 2 2 21
;
_chemical_formula_sum "Si O2"
_cell_formula_units_Z 36
_cell_length_a 25.834137
_cell_length_b 12.416441
_cell_length_c 5.197225
_cell_angle_alpha 90.000000
_cell_angle_beta 90.000000
_cell_angle_gamma 90.000000
_cell_volume 1667.103665
_symmetry_space_group_name_H-M "C 2 2 21"
_symmetry_group_IT_number 20
_symmetry_cell_setting 'orthorhombic'
loop_
_space_group_symop_operation_xyz
x,y,z
-x,-y,1/2+z
x,-y,-z
-x,y,1/2-z
1/2+x,1/2+y,z
1/2-x,1/2-y,1/2+z
1/2+x,1/2-y,-z
1/2-x,1/2+y,1/2-z
loop_
_atom_site_type_symbol
_atom_site_label
_atom_site_fract_x
_atom_site_fract_y
_atom_site_fract_z
Si Si1 0.500000 0.424990 0.750000
Si Si2 0.216351 0.268517 0.145470
Si Si3 0.606085 0.714500 0.206852
Si Si4 0.329456 0.000000 0.500000
Si Si5 0.000000 0.451047 0.750000
Si Si6 0.400274 0.148541 0.199281
O O1 0.500238 0.500000 0.500000
O O2 0.444878 0.359822 0.746550
O O3 0.244241 0.259196 0.417720
O O4 0.165947 0.188916 0.126898
O O5 0.199827 0.393338 0.097427
O O6 0.618398 0.774016 0.475406
O O7 0.590817 0.790081 0.967610
O O8 0.364170 0.951318 0.730330
O O9 0.043883 0.387008 0.601277
O O10 0.971586 0.500000 0.500000
#
# Coordination Sequence:
#
# PCOD9320901 Si02
#       6
#     4   8   8   4   4   8
#     4  12  26  48  76 104 140 194 250 304 366 434
#     4  11  25  46  70 103 140 185 241 303 365 433
#     4  11  24  45  71  97 140 179 232 299 356 417
#     4  10  24  44  70  98 138 190 222 300 362 442
#     4  12  22  32  52  98 134 164 210 244 312 416
#     4  11  22  39  66  98 140 177 217 272 353 424
#
# _framework density 21.594339999999999
#
# number of rings (size 3 to 8) (size 9 to 14) (size 15 to 20)
#    0.000    0.889    1.111    6.667    3.111    4.444 
#    6.000    0.000    0.000    0.000    0.000    0.000 
#    0.000    0.000    0.000    0.000    0.000    0.000 
#
# Total GULP energy -100281.580273 kJ/mol
# GULP energy per Si atom -5571.198904 kJ/mol
# Density = 2.154519 g / cm^3
# Si number density = 21.594340 Si / 1000 Ang^3
#
#
#
# Elastic Constant Matrix: (Units=GPa)
#
#
# Indices 1 2 3 4 5 6 
#
# 1 131.3894 34.4424 12.0661 0.0000 0.0000 0.0000
# 2 34.4424 61.2548 36.6083 0.0000 0.0000 0.0000
# 3 12.0661 36.6083 125.4920 0.0000 0.0000 0.0000
# 4 0.0000 0.0000 0.0000 37.3794 0.0000 0.0000
# 5 0.0000 0.0000 0.0000 0.0000 36.2525 0.0000
# 6 0.0000 0.0000 0.0000 0.0000 0.0000 33.5134
#
#
#
# Elastic Compliance Matrix: (Units=1/GPa)
#
#
# Indices 1 2 3 4 5 6 
#
# 1 0.008983 -0.005492 0.000738 0.000000 0.000000 0.000000
# 2 -0.005492 0.023130 -0.006219 0.000000 0.000000 0.000000
# 3 0.000738 -0.006219 0.009712 0.000000 0.000000 0.000000
# 4 0.000000 0.000000 0.000000 0.026753 0.000000 0.000000
# 5 0.000000 0.000000 0.000000 0.000000 0.027584 0.000000
# 6 0.000000 0.000000 0.000000 0.000000 0.000000 0.029839
#
#
# Mechanical properties :
#
#
# Convention : Reuss Voigt Hill
#
# Bulk Modulus (GPa) = 50.30488 53.81886 52.06187
# Shear Modulus (GPa) = 32.34700 37.09702 34.72201
#
# Velocity S-wave (km/s) = 3.87452 4.14926 4.01424
# Velocity P-wave (km/s) = 6.58497 6.92329 6.75625
#
# Compressibility (1/GPa) = 0.01987879
#
# Stress axis : x y z
#
# Youngs Moduli (GPa) = 111.32290 43.23313 102.96582
#
# Poissons Ratio (x) = 0.23745 -0.07604
# Poissons Ratio (y) = 0.61141 0.64039
# Poissons Ratio (z) = -0.08221 0.26889
#
# Static dielectric constant tensor:
#      x y z
#    x 1.826640 0.000000 0.000000 
#    y 0.000000 1.810460 0.000000 
#    z 0.000000 0.000000 1.749010 
# 
# From -- ./inp_files/1257.got.cif
#   From: 2010.05.17/outbox.cif.g08.bks.cpg/sg20_1_cif.got.tgz:1257.got - 2010.06.03 22:52:26.
