data_PCOD9320390
_publ_section_title
;
Structure prediction by ZEFSAII (Michael W. Deem and Ramdas Pophale) SiO2 
 PCOD9320390
Probable space group: C 2 2 21
;
_chemical_formula_sum "Si O2"
_cell_formula_units_Z 40
_cell_length_a 17.316833
_cell_length_b 8.117731
_cell_length_c 10.801852
_cell_angle_alpha 90.000000
_cell_angle_beta 90.000000
_cell_angle_gamma 90.000000
_cell_volume 1518.452976
_symmetry_space_group_name_H-M "C 2 2 21"
_symmetry_group_IT_number 20
_symmetry_cell_setting 'orthorhombic'
loop_
_space_group_symop_operation_xyz
x,y,z
-x,-y,1/2+z
x,-y,-z
-x,y,1/2-z
1/2+x,1/2+y,z
1/2-x,1/2-y,1/2+z
1/2+x,1/2-y,-z
1/2-x,1/2+y,1/2-z
loop_
_atom_site_type_symbol
_atom_site_label
_atom_site_fract_x
_atom_site_fract_y
_atom_site_fract_z
Si Si1 0.389712 0.666211 0.582900
Si Si2 0.153653 0.375880 0.147073
Si Si3 0.273734 0.846416 0.752044
Si Si4 0.000000 0.674602 0.750000
Si Si5 0.052969 0.179406 0.497073
Si Si6 0.660082 0.000000 0.500000
O O1 0.375608 0.500000 0.500000
O O2 0.367466 0.809069 0.485599
O O3 0.337488 0.710656 0.703560
O O4 0.482533 0.679377 0.595900
O O5 0.190404 0.230661 0.229463
O O6 0.219523 0.511644 0.150947
O O7 0.075197 0.431939 0.215655
O O8 0.291407 0.947351 0.879093
O O9 0.011378 0.794019 0.634602
O O10 0.106932 0.337958 0.496404
O O11 0.090979 0.000000 0.500000
#
# Coordination Sequence:
#
# PCOD9320390 Si02
#       6
#     8   8   8   4   8   4
#     4  10  24  46  76 112 154 206 265 330 405 469
#     4  11  25  44  77 103 154 203 259 322 396 473
#     4  12  27  46  74 116 157 204 261 333 401 483
#     4  10  22  48  72 106 150 200 268 320 382 482
#     4  10  24  43  74 112 154 205 260 325 392 476
#     4  12  28  46  76 112 162 202 266 314 410 472
#
# _framework density 26.342599
#
# number of rings (size 3 to 8) (size 9 to 14) (size 15 to 20)
#    0.000    1.200    2.000    1.800    9.800    7.200 
#    0.000    0.000    0.000    0.000    0.000    0.000 
#    0.000    0.000    0.000    0.000    0.000    0.000 
#
# Total GULP energy -111715.942372 kJ/mol
# GULP energy per Si atom -5585.797119 kJ/mol
# Density = 2.628264 g / cm^3
# Si number density = 26.342599 Si / 1000 Ang^3
#
#
#
# Elastic Constant Matrix: (Units=GPa)
#
#
# Indices 1 2 3 4 5 6 
#
# 1 114.7598 31.6968 36.9935 0.0000 0.0000 0.0000
# 2 31.6968 123.9689 8.9354 0.0000 0.0000 0.0000
# 3 36.9935 8.9354 97.5943 0.0000 0.0000 0.0000
# 4 0.0000 0.0000 0.0000 40.2552 0.0000 0.0000
# 5 0.0000 0.0000 0.0000 0.0000 -3.2405 0.0000
# 6 0.0000 0.0000 0.0000 0.0000 0.0000 25.2787
#
#
#
# Elastic Compliance Matrix: (Units=1/GPa)
#
#
# Indices 1 2 3 4 5 6 
#
# 1 0.010612 -0.002440 -0.003799 0.000000 0.000000 0.000000
# 2 -0.002440 0.008681 0.000130 0.000000 0.000000 0.000000
# 3 -0.003799 0.000130 0.011675 0.000000 0.000000 0.000000
# 4 0.000000 0.000000 0.000000 0.024842 0.000000 0.000000
# 5 0.000000 0.000000 0.000000 0.000000 -0.308595 0.000000
# 6 0.000000 0.000000 0.000000 0.000000 0.000000 0.039559
#
#
# Mechanical properties :
#
#
# Convention : Reuss Voigt Hill
#
# Bulk Modulus (GPa) = 53.33282 54.61937 53.97609
# Shear Modulus (GPa) = -25.67282 29.70517 2.01617
#
# Velocity S-wave (km/s) = -3.12520 3.36169 0.87580
# Velocity P-wave (km/s) = 2.69579 5.98725 4.64298
#
# Compressibility (1/GPa) = 0.01875018
#
# Stress axis : x y z
#
# Youngs Moduli (GPa) = 94.22946 115.19497 85.65497
#
# Poissons Ratio (x) = 0.28103 0.32543
# Poissons Ratio (y) = 0.22988 -0.01113
# Poissons Ratio (z) = 0.35801 -0.01497
#
# Static dielectric constant tensor:
#      x y z
#    x 2.108920 0.000000 0.000000 
#    y 0.000000 2.243910 0.000000 
#    z 0.000000 0.000000 2.110060 
# 
# From -- ./inp_files/15594.got.cif
#   From: 2010.05.17/outbox.cif.g08.bks.cpg/sg20_8_cif.got.tgz:15594.got - 2010.06.03 22:52:26.
