data_PCOD9320583
_publ_section_title
;
Structure prediction by ZEFSAII (Michael W. Deem and Ramdas Pophale) SiO2 
 PCOD9320583
Probable space group: C 2 2 21
;
_chemical_formula_sum "Si O2"
_cell_formula_units_Z 60
_cell_length_a 15.783658
_cell_length_b 27.738391
_cell_length_c 6.250018
_cell_angle_alpha 90.000000
_cell_angle_beta 90.000000
_cell_angle_gamma 90.000000
_cell_volume 2736.340862
_symmetry_space_group_name_H-M "C 2 2 21"
_symmetry_group_IT_number 20
_symmetry_cell_setting 'orthorhombic'
loop_
_space_group_symop_operation_xyz
x,y,z
-x,-y,1/2+z
x,-y,-z
-x,y,1/2-z
1/2+x,1/2+y,z
1/2-x,1/2-y,1/2+z
1/2+x,1/2-y,-z
1/2-x,1/2+y,1/2-z
loop_
_atom_site_type_symbol
_atom_site_label
_atom_site_fract_x
_atom_site_fract_y
_atom_site_fract_z
Si Si1 0.340686 0.210702 0.729961
Si Si2 0.412395 0.814274 0.868417
Si Si3 0.909855 0.882127 0.365055
Si Si4 0.157417 0.053391 0.515270
Si Si5 0.695119 0.876774 0.914222
Si Si6 0.462979 0.057539 0.501761
Si Si7 0.500000 0.422114 0.750000
Si Si8 0.157312 0.776579 0.129899
O O1 0.306713 0.169721 0.569023
O O2 0.258693 0.227596 0.861946
O O3 0.372840 0.256223 0.597596
O O4 0.412061 0.188164 0.878546
O O5 0.500000 0.825567 0.750000
O O6 0.340521 0.852936 0.803040
O O7 0.385392 0.760791 0.792540
O O8 0.859022 0.925778 0.253619
O O9 0.864827 0.831532 0.334272
O O10 0.000000 0.878912 0.250000
O O11 0.936058 0.891490 0.606551
O O12 0.217889 0.093771 0.408615
O O13 0.065334 0.049858 0.401639
O O14 0.195757 0.000000 0.500000
O O15 0.624808 0.913904 0.996694
O O16 0.500000 0.068490 0.750000
O O17 0.454464 0.000000 0.500000
O O18 0.500000 0.067577 0.250000
#
# Coordination Sequence:
#
# PCOD9320583 Si02
#       8
#     8   8   8   8   8   8   4   8
#     4  11  24  40  66  96 134 182 230 291 357 424
#     4  11  26  43  66 102 140 184 236 292 361 436
#     4  10  23  43  66  98 130 171 224 286 349 432
#     4  11  25  44  70 100 139 182 238 292 361 435
#     4  11  25  41  70 100 141 186 240 301 361 444
#     4  10  23  45  74 106 146 195 247 311 378 446
#     4  10  26  42  70  96 132 178 228 294 368 422
#     4  11  22  41  67  93 132 176 227 287 347 423
#
# _framework density 21.927091000000001
#
# number of rings (size 3 to 8) (size 9 to 14) (size 15 to 20)
#    0.000    1.333    2.667    1.200    8.400    4.800 
#    0.000    0.000    0.000    0.000    0.000    0.000 
#    0.000    0.000    0.000    0.000    0.000    0.000 
#
# Total GULP energy -167224.529009 kJ/mol
# GULP energy per Si atom -5574.150967 kJ/mol
# Density = 2.187718 g / cm^3
# Si number density = 21.927091 Si / 1000 Ang^3
#
#
#
# Elastic Constant Matrix: (Units=GPa)
#
#
# Indices 1 2 3 4 5 6 
#
# 1 64.5583 23.5304 25.3836 0.0000 0.0000 0.0000
# 2 23.5304 118.7925 34.3139 0.0000 0.0000 0.0000
# 3 25.3836 34.3139 84.7939 0.0000 0.0000 0.0000
# 4 0.0000 0.0000 0.0000 5.5919 0.0000 0.0000
# 5 0.0000 0.0000 0.0000 0.0000 28.1600 0.0000
# 6 0.0000 0.0000 0.0000 0.0000 0.0000 27.8635
#
#
#
# Elastic Compliance Matrix: (Units=1/GPa)
#
#
# Indices 1 2 3 4 5 6 
#
# 1 0.018088 -0.002286 -0.004490 0.000000 0.000000 0.000000
# 2 -0.002286 0.009821 -0.003290 0.000000 0.000000 0.000000
# 3 -0.004490 -0.003290 0.014469 0.000000 0.000000 0.000000
# 4 0.000000 0.000000 0.000000 0.178831 0.000000 0.000000
# 5 0.000000 0.000000 0.000000 0.000000 0.035511 0.000000
# 6 0.000000 0.000000 0.000000 0.000000 0.000000 0.035889
#
#
# Mechanical properties :
#
#
# Convention : Reuss Voigt Hill
#
# Bulk Modulus (GPa) = 44.95066 48.28895 46.61981
# Shear Modulus (GPa) = 15.61734 24.65086 20.13410
#
# Velocity S-wave (km/s) = 2.67168 3.35658 3.03352
# Velocity P-wave (km/s) = 5.48286 6.09036 5.79457
#
# Compressibility (1/GPa) = 0.02224661
#
# Stress axis : x y z
#
# Youngs Moduli (GPa) = 55.28396 101.82043 69.11455
#
# Poissons Ratio (x) = 0.23277 0.31031
# Poissons Ratio (y) = 0.12638 0.22739
# Poissons Ratio (z) = 0.24821 0.33499
#
# Static dielectric constant tensor:
#      x y z
#    x 1.814150 0.000000 0.000000 
#    y 0.000000 1.768960 0.000000 
#    z 0.000000 0.000000 1.930440 
# 
# From -- ./inp_files/2837.got.cif
#   From: 2010.05.17/outbox.cif.g08.bks.cpg/sg20_2_cif.got.tgz:2837.got - 2010.06.03 22:52:26.
