data_PCOD9320576
_publ_section_title
;
Structure prediction by ZEFSAII (Michael W. Deem and Ramdas Pophale) SiO2 
 PCOD9320576
Probable space group: C 2 2 21
;
_chemical_formula_sum "Si O2"
_cell_formula_units_Z 40
_cell_length_a 18.576743
_cell_length_b 15.175148
_cell_length_c 7.027535
_cell_angle_alpha 90.000000
_cell_angle_beta 90.000000
_cell_angle_gamma 90.000000
_cell_volume 1981.096020
_symmetry_space_group_name_H-M "C 2 2 21"
_symmetry_group_IT_number 20
_symmetry_cell_setting 'orthorhombic'
loop_
_space_group_symop_operation_xyz
x,y,z
-x,-y,1/2+z
x,-y,-z
-x,y,1/2-z
1/2+x,1/2+y,z
1/2-x,1/2-y,1/2+z
1/2+x,1/2-y,-z
1/2-x,1/2+y,1/2-z
loop_
_atom_site_type_symbol
_atom_site_label
_atom_site_fract_x
_atom_site_fract_y
_atom_site_fract_z
Si Si1 0.418585 0.254443 0.501579
Si Si2 0.022381 0.395795 0.467874
Si Si3 0.167082 0.693884 0.622346
Si Si4 0.812781 0.838928 0.193808
Si Si5 0.109916 0.000000 0.500000
Si Si6 0.000000 0.108590 0.250000
O O1 0.463573 0.168422 0.434598
O O2 0.370233 0.232150 0.686850
O O3 0.369670 0.295570 0.338635
O O4 0.473658 0.327731 0.580365
O O5 0.015695 0.500000 0.500000
O O6 0.104713 0.362713 0.481644
O O7 0.000000 0.381474 0.250000
O O8 0.193656 0.769992 0.480266
O O9 0.237953 0.645126 0.697251
O O10 0.842871 0.927941 0.106428
O O11 0.061222 0.951629 0.658137
#
# Coordination Sequence:
#
# PCOD9320576 Si02
#       6
#     8   8   8   8   4   4
#     4  11  22  45  74  94 141 181 225 286 350 406
#     4  10  23  43  66 102 132 171 235 285 328 414
#     4  11  23  46  66  96 140 183 229 275 348 412
#     4  12  25  45  72  99 138 192 222 286 349 413
#     4  12  26  42  72 108 136 174 244 282 350 414
#     4  12  22  46  68 106 138 170 232 296 344 420
#
# _framework density 20.190843999999998
#
# number of rings (size 3 to 8) (size 9 to 14) (size 15 to 20)
#    0.000    0.800    7.000    1.200    2.800    1.600 
#   14.400    0.000    0.000    0.000    0.000    0.000 
#    0.000    0.000    0.000    0.000    0.000    0.000 
#
# Total GULP energy -111764.333476 kJ/mol
# GULP energy per Si atom -5588.216674 kJ/mol
# Density = 2.014489 g / cm^3
# Si number density = 20.190844 Si / 1000 Ang^3
#
#
#
# Elastic Constant Matrix: (Units=GPa)
#
#
# Indices 1 2 3 4 5 6 
#
# 1 118.9491 43.2865 21.2608 0.0000 0.0000 0.0000
# 2 43.2865 85.5463 9.7172 0.0000 0.0000 0.0000
# 3 21.2608 9.7172 69.8362 0.0000 0.0000 0.0000
# 4 0.0000 0.0000 0.0000 22.3350 0.0000 0.0000
# 5 0.0000 0.0000 0.0000 0.0000 34.7575 0.0000
# 6 0.0000 0.0000 0.0000 0.0000 0.0000 3.5524
#
#
#
# Elastic Compliance Matrix: (Units=1/GPa)
#
#
# Indices 1 2 3 4 5 6 
#
# 1 0.010734 -0.005142 -0.002552 0.000000 0.000000 0.000000
# 2 -0.005142 0.014340 -0.000430 0.000000 0.000000 0.000000
# 3 -0.002552 -0.000430 0.015156 0.000000 0.000000 0.000000
# 4 0.000000 0.000000 0.000000 0.044773 0.000000 0.000000
# 5 0.000000 0.000000 0.000000 0.000000 0.028771 0.000000
# 6 0.000000 0.000000 0.000000 0.000000 0.000000 0.281497
#
#
# Mechanical properties :
#
#
# Convention : Reuss Voigt Hill
#
# Bulk Modulus (GPa) = 41.69754 46.98450 44.34102
# Shear Modulus (GPa) = 11.91858 25.46680 18.69269
#
# Velocity S-wave (km/s) = 2.43224 3.55534 3.04600
# Velocity P-wave (km/s) = 5.34642 6.33835 5.86340
#
# Compressibility (1/GPa) = 0.02398223
#
# Stress axis : x y z
#
# Youngs Moduli (GPa) = 93.15970 69.73468 65.97991
#
# Poissons Ratio (x) = 0.35855 0.16841
# Poissons Ratio (y) = 0.47899 0.02837
# Poissons Ratio (z) = 0.23779 0.02999
#
# Static dielectric constant tensor:
#      x y z
#    x 1.757950 0.000000 0.000000 
#    y 0.000000 1.715500 0.000000 
#    z 0.000000 0.000000 1.728170 
# 
# From -- ./inp_files/9247.got.cif
#   From: 2010.05.17/outbox.cif.g08.bks.cpg/sg20_5_cif.got.tgz:9247.got - 2010.06.03 22:52:26.
