data_PCOD9320308
_publ_section_title
;
Structure prediction by ZEFSAII (Michael W. Deem and Ramdas Pophale) SiO2 
 PCOD9320308
Probable space group: C 2 2 21
;
_chemical_formula_sum "Si O2"
_cell_formula_units_Z 32
_cell_length_a 28.892519
_cell_length_b 5.219079
_cell_length_c 8.379428
_cell_angle_alpha 90.000000
_cell_angle_beta 90.000000
_cell_angle_gamma 90.000000
_cell_volume 1263.553549
_symmetry_space_group_name_H-M "C 2 2 21"
_symmetry_group_IT_number 20
_symmetry_cell_setting 'orthorhombic'
loop_
_space_group_symop_operation_xyz
x,y,z
-x,-y,1/2+z
x,-y,-z
-x,y,1/2-z
1/2+x,1/2+y,z
1/2-x,1/2-y,1/2+z
1/2+x,1/2-y,-z
1/2-x,1/2+y,1/2-z
loop_
_atom_site_type_symbol
_atom_site_label
_atom_site_fract_x
_atom_site_fract_y
_atom_site_fract_z
Si Si1 0.091161 0.712322 0.245479
Si Si2 0.000000 0.367671 0.250000
Si Si3 0.662530 0.000000 0.500000
Si Si4 0.037998 0.000000 0.500000
Si Si5 0.845932 0.500000 0.500000
Si Si6 0.279115 0.736718 0.242308
O O1 0.129040 0.596480 0.363726
O O2 0.071074 0.946808 0.347697
O O3 0.045845 0.536841 0.234625
O O4 0.119471 0.705484 0.082592
O O5 0.994377 0.209855 0.084283
O O6 0.694372 0.782259 0.423462
O O7 0.812791 0.342162 0.380835
O O8 0.262449 0.446639 0.263221
#
# Coordination Sequence:
#
# PCOD9320308 Si02
#       6
#     8   4   4   4   4   8
#     4  11  25  48  67 108 152 195 258 317 381 465
#     4  12  26  46  72 104 156 202 260 322 390 470
#     4  10  22  45  68 101 144 182 237 317 374 458
#     4  12  26  44  77 103 144 222 251 321 396 454
#     4  10  26  45  73 112 152 196 258 330 382 470
#     4  11  24  47  74 107 148 195 251 318 400 471
#
# _framework density 25.325403000000001
#
# number of rings (size 3 to 8) (size 9 to 14) (size 15 to 20)
#    0.000    1.000    2.500    2.250    7.000    4.000 
#    4.500    0.000    0.000    0.000    0.000    0.000 
#    0.000    0.000    0.000    0.000    0.000    0.000 
#
# Total GULP energy -89537.895128 kJ/mol
# GULP energy per Si atom -5596.118446 kJ/mol
# Density = 2.526776 g / cm^3
# Si number density = 25.325403 Si / 1000 Ang^3
#
#
#
# Elastic Constant Matrix: (Units=GPa)
#
#
# Indices 1 2 3 4 5 6 
#
# 1 131.8391 19.7259 51.4041 0.0000 0.0000 0.0000
# 2 19.7259 51.9911 15.4265 0.0000 0.0000 0.0000
# 3 51.4041 15.4265 105.2420 0.0000 0.0000 0.0000
# 4 0.0000 0.0000 0.0000 231.7560 0.0000 0.0000
# 5 0.0000 0.0000 0.0000 0.0000 50.7533 0.0000
# 6 0.0000 0.0000 0.0000 0.0000 0.0000 1.3675
#
#
#
# Elastic Compliance Matrix: (Units=1/GPa)
#
#
# Indices 1 2 3 4 5 6 
#
# 1 0.009639 -0.002363 -0.004362 0.000000 0.000000 0.000000
# 2 -0.002363 0.020688 -0.001878 0.000000 0.000000 0.000000
# 3 -0.004362 -0.001878 0.011908 0.000000 0.000000 0.000000
# 4 0.000000 0.000000 0.000000 0.004315 0.000000 0.000000
# 5 0.000000 0.000000 0.000000 0.000000 0.019703 0.000000
# 6 0.000000 0.000000 0.000000 0.000000 0.000000 0.731243
#
#
# Mechanical properties :
#
#
# Convention : Reuss Voigt Hill
#
# Bulk Modulus (GPa) = 39.95414 51.35391 45.65403
# Shear Modulus (GPa) = 6.07500 70.27641 38.17571
#
# Velocity S-wave (km/s) = 1.55048 5.27348 3.88675
# Velocity P-wave (km/s) = 4.36072 7.57635 6.18130
#
# Compressibility (1/GPa) = 0.02502870
#
# Stress axis : x y z
#
# Youngs Moduli (GPa) = 103.74283 48.33735 83.97938
#
# Poissons Ratio (x) = 0.11422 0.36630
# Poissons Ratio (y) = 0.24514 0.15774
# Poissons Ratio (z) = 0.45250 0.09079
#
# Static dielectric constant tensor:
#      x y z
#    x 1.854280 0.000000 0.000000 
#    y 0.000000 2.088060 0.000000 
#    z 0.000000 0.000000 2.113020 
# 
# From -- ./inp_files/5208.got.cif
#   From: 2010.05.17/outbox.cif.g08.bks.cpg/sg20_3_cif.got.tgz:5208.got - 2010.06.03 22:52:26.
