data_PCOD9320997
_publ_section_title
;
Structure prediction by ZEFSAII (Michael W. Deem and Ramdas Pophale) SiO2 
 PCOD9320997
Probable space group: C 2 2 21
;
_chemical_formula_sum "Si O2"
_cell_formula_units_Z 32
_cell_length_a 13.191022
_cell_length_b 8.209316
_cell_length_c 10.820593
_cell_angle_alpha 90.000000
_cell_angle_beta 90.000000
_cell_angle_gamma 90.000000
_cell_volume 1171.754095
_symmetry_space_group_name_H-M "C 2 2 21"
_symmetry_group_IT_number 20
_symmetry_cell_setting 'orthorhombic'
loop_
_space_group_symop_operation_xyz
x,y,z
-x,-y,1/2+z
x,-y,-z
-x,y,1/2-z
1/2+x,1/2+y,z
1/2-x,1/2-y,1/2+z
1/2+x,1/2-y,-z
1/2-x,1/2+y,1/2-z
loop_
_atom_site_type_symbol
_atom_site_label
_atom_site_fract_x
_atom_site_fract_y
_atom_site_fract_z
Si Si1 0.000000 0.578029 0.250000
Si Si2 0.724460 0.191182 0.540233
Si Si3 0.169710 0.319952 0.198586
Si Si4 0.500000 0.568985 0.250000
Si Si5 0.472407 0.659374 0.942806
O O1 0.896800 0.473224 0.253434
O O2 0.015936 0.686544 0.127326
O O3 0.780645 0.301989 0.436810
O O4 0.746225 0.210738 0.686307
O O5 0.610129 0.262066 0.530657
O O6 0.729775 0.000000 0.500000
O O7 0.081055 0.186472 0.188681
O O8 0.570356 0.444804 0.327601
O O9 0.528855 0.500000 0.000000
#
# Coordination Sequence:
#
# PCOD9320997 Si02
#       5
#     4   8   8   4   8
#     4  10  24  52  82 112 158 226 272 334 414 484
#     4  12  27  51  78 118 166 211 270 336 410 489
#     4  11  26  52  80 117 163 214 275 333 405 488
#     4  10  24  46  74 110 152 210 264 330 392 472
#     4  11  23  46  79 110 161 203 268 339 398 483
#
# _framework density 27.309484999999999
#
# number of rings (size 3 to 8) (size 9 to 14) (size 15 to 20)
#    0.000    1.000    5.000    0.000    3.500    1.000 
#    4.500    2.500    0.000    0.000    0.000    0.000 
#    0.000    0.000    0.000    0.000    0.000    0.000 
#
# Total GULP energy -89139.370785 kJ/mol
# GULP energy per Si atom -5571.210674 kJ/mol
# Density = 2.724733 g / cm^3
# Si number density = 27.309485 Si / 1000 Ang^3
#
#
#
# Elastic Constant Matrix: (Units=GPa)
#
#
# Indices 1 2 3 4 5 6 
#
# 1 74.2310 41.2603 72.2822 0.0000 0.0000 0.0000
# 2 41.2603 135.4938 57.7794 0.0000 0.0000 0.0000
# 3 72.2822 57.7794 172.2706 0.0000 0.0000 0.0000
# 4 0.0000 0.0000 0.0000 63.8067 0.0000 0.0000
# 5 0.0000 0.0000 0.0000 0.0000 43.5271 0.0000
# 6 0.0000 0.0000 0.0000 0.0000 0.0000 7.6005
#
#
#
# Elastic Compliance Matrix: (Units=1/GPa)
#
#
# Indices 1 2 3 4 5 6 
#
# 1 0.024150 -0.003539 -0.008946 0.000000 0.000000 0.000000
# 2 -0.003539 0.009131 -0.001577 0.000000 0.000000 0.000000
# 3 -0.008946 -0.001577 0.010087 0.000000 0.000000 0.000000
# 4 0.000000 0.000000 0.000000 0.015672 0.000000 0.000000
# 5 0.000000 0.000000 0.000000 0.000000 0.022974 0.000000
# 6 0.000000 0.000000 0.000000 0.000000 0.000000 0.131570
#
#
# Mechanical properties :
#
#
# Convention : Reuss Voigt Hill
#
# Bulk Modulus (GPa) = 65.60400 80.51547 73.05973
# Shear Modulus (GPa) = 20.26011 37.03175 28.64593
#
# Velocity S-wave (km/s) = 2.72669 3.68639 3.24224
# Velocity P-wave (km/s) = 5.82989 6.90405 6.38958
#
# Compressibility (1/GPa) = 0.01524297
#
# Stress axis : x y z
#
# Youngs Moduli (GPa) = 41.40855 109.51873 99.13339
#
# Poissons Ratio (x) = 0.38761 0.88682
# Poissons Ratio (y) = 0.14655 0.15638
# Poissons Ratio (z) = 0.37043 0.17276
#
# Static dielectric constant tensor:
#      x y z
#    x 2.253330 0.000000 0.000000 
#    y 0.000000 2.101710 0.000000 
#    z 0.000000 0.000000 2.696810 
# 
# From -- ./inp_files/14672.got.cif
#   From: 2010.05.17/outbox.cif.g08.bks.cpg/sg20_8_cif.got.tgz:14672.got - 2010.06.03 22:52:26.
