data_PCOD9320942
_publ_section_title
;
Structure prediction by ZEFSAII (Michael W. Deem and Ramdas Pophale) SiO2 
 PCOD9320942
Probable space group: C 2 2 21
;
_chemical_formula_sum "Si O2"
_cell_formula_units_Z 56
_cell_length_a 11.664846
_cell_length_b 10.623188
_cell_length_c 21.424925
_cell_angle_alpha 90.000000
_cell_angle_beta 90.000000
_cell_angle_gamma 90.000000
_cell_volume 2654.930686
_symmetry_space_group_name_H-M "C 2 2 21"
_symmetry_group_IT_number 20
_symmetry_cell_setting 'orthorhombic'
loop_
_space_group_symop_operation_xyz
x,y,z
-x,-y,1/2+z
x,-y,-z
-x,y,1/2-z
1/2+x,1/2+y,z
1/2-x,1/2-y,1/2+z
1/2+x,1/2-y,-z
1/2-x,1/2+y,1/2-z
loop_
_atom_site_type_symbol
_atom_site_label
_atom_site_fract_x
_atom_site_fract_y
_atom_site_fract_z
Si Si1 0.055415 0.124005 0.539590
Si Si2 0.942916 0.820688 0.685900
Si Si3 0.851992 0.785308 0.396293
Si Si4 0.246130 0.138773 0.645206
Si Si5 0.881260 0.099154 0.729597
Si Si6 0.062945 0.483162 0.926598
Si Si7 0.592445 0.788955 0.423879
O O1 0.146313 0.155368 0.593972
O O2 0.046263 0.234715 0.488831
O O3 0.931384 0.108808 0.571818
O O4 0.088390 0.000000 0.500000
O O5 0.822814 0.757848 0.665841
O O6 0.000000 0.768298 0.750000
O O7 0.033862 0.792521 0.631080
O O8 0.916818 0.965840 0.700055
O O9 0.826929 0.818408 0.324701
O O10 0.928148 0.660178 0.404649
O O11 0.728375 0.772552 0.426956
O O12 0.193211 0.083304 0.708619
O O13 0.337459 0.048820 0.612765
O O14 0.000000 0.163823 0.750000
O O15 0.948616 0.566539 0.915195
O O16 0.088273 0.500000 0.000000
#
# Coordination Sequence:
#
# PCOD9320942 Si02
#       7
#     8   8   8   8   8   8   8
#     4  12  25  43  70 104 138 186 236 289 364 436
#     4  10  24  45  70  98 137 180 239 293 357 432
#     4  12  25  44  70 101 142 186 233 294 366 425
#     4  11  24  43  72 100 136 185 236 295 362 430
#     4  11  24  43  65 101 135 182 237 286 352 434
#     4  11  24  46  69 103 140 184 233 301 363 427
#     4  11  25  44  71 100 143 182 239 295 360 433
#
# _framework density 21.092828999999998
#
# number of rings (size 3 to 8) (size 9 to 14) (size 15 to 20)
#    0.000    0.857    2.857    3.857   10.000    1.714 
#    0.000    2.857    0.000    0.000    0.000    0.000 
#    0.000    0.000    0.000    0.000    0.000    0.000 
#
# Total GULP energy -156422.775079 kJ/mol
# GULP energy per Si atom -5586.527681 kJ/mol
# Density = 2.104482 g / cm^3
# Si number density = 21.092829 Si / 1000 Ang^3
#
#
#
# Elastic Constant Matrix: (Units=GPa)
#
#
# Indices 1 2 3 4 5 6 
#
# 1 68.7891 17.7217 10.7766 0.0000 0.0000 0.0000
# 2 17.7217 69.9829 32.7023 0.0000 0.0000 0.0000
# 3 10.7766 32.7023 132.1260 0.0000 0.0000 0.0000
# 4 0.0000 0.0000 0.0000 22.8113 0.0000 0.0000
# 5 0.0000 0.0000 0.0000 0.0000 30.3503 0.0000
# 6 0.0000 0.0000 0.0000 0.0000 0.0000 -22.4813
#
#
#
# Elastic Compliance Matrix: (Units=1/GPa)
#
#
# Indices 1 2 3 4 5 6 
#
# 1 0.015565 -0.003786 -0.000332 0.000000 0.000000 0.000000
# 2 -0.003786 0.017079 -0.003918 0.000000 0.000000 0.000000
# 3 -0.000332 -0.003918 0.008565 0.000000 0.000000 0.000000
# 4 0.000000 0.000000 0.000000 0.043838 0.000000 0.000000
# 5 0.000000 0.000000 0.000000 0.000000 0.032949 0.000000
# 6 0.000000 0.000000 0.000000 0.000000 0.000000 -0.044481
#
#
# Mechanical properties :
#
#
# Convention : Reuss Voigt Hill
#
# Bulk Modulus (GPa) = 39.78463 43.69990 41.74227
# Shear Modulus (GPa) = 51.03796 20.11590 35.57693
#
# Velocity S-wave (km/s) = 4.92436 3.09153 4.11138
# Velocity P-wave (km/s) = 7.15787 5.78846 6.50928
#
# Compressibility (1/GPa) = 0.02513533
#
# Stress axis : x y z
#
# Youngs Moduli (GPa) = 64.24819 58.55152 116.74773
#
# Poissons Ratio (x) = 0.22168 0.03881
# Poissons Ratio (y) = 0.24325 0.45746
# Poissons Ratio (z) = 0.02136 0.22943
#
# Static dielectric constant tensor:
#      x y z
#    x 1.745810 0.000000 0.000000 
#    y 0.000000 1.822210 0.000000 
#    z 0.000000 0.000000 1.787520 
# 
# From -- ./inp_files/27210.got.cif
#   From: 2010.05.17/outbox.cif.g08.bks.cpg/sg20_14_cif.got.tgz:27210.got - 2010.06.03 22:52:26.
