data_PCOD9320296
_publ_section_title
;
Structure prediction by ZEFSAII (Michael W. Deem and Ramdas Pophale) SiO2 
 PCOD9320296
Probable space group: C 2 2 21
;
_chemical_formula_sum "Si O2"
_cell_formula_units_Z 48
_cell_length_a 23.775456
_cell_length_b 10.319924
_cell_length_c 7.981333
_cell_angle_alpha 90.000000
_cell_angle_beta 90.000000
_cell_angle_gamma 90.000000
_cell_volume 1958.307040
_symmetry_space_group_name_H-M "C 2 2 21"
_symmetry_group_IT_number 20
_symmetry_cell_setting 'orthorhombic'
loop_
_space_group_symop_operation_xyz
x,y,z
-x,-y,1/2+z
x,-y,-z
-x,y,1/2-z
1/2+x,1/2+y,z
1/2-x,1/2-y,1/2+z
1/2+x,1/2-y,-z
1/2-x,1/2+y,1/2-z
loop_
_atom_site_type_symbol
_atom_site_label
_atom_site_fract_x
_atom_site_fract_y
_atom_site_fract_z
Si Si1 0.620314 0.476454 0.181261
Si Si2 0.865170 0.300720 0.614725
Si Si3 0.027986 0.355021 0.068674
Si Si4 0.071411 0.226558 0.585095
Si Si5 0.669274 0.262814 0.669359
Si Si6 0.739620 0.132595 0.962182
O O1 0.656033 0.347163 0.138055
O O2 0.582494 0.414914 0.330581
O O3 0.655770 0.599734 0.237806
O O4 0.590905 0.500000 0.000000
O O5 0.906449 0.319656 0.456035
O O6 0.905362 0.324187 0.772028
O O7 0.809560 0.381732 0.601950
O O8 0.000000 0.347995 0.250000
O O9 0.020706 0.500000 0.000000
O O10 0.992447 0.254362 0.957457
O O11 0.109641 0.258194 0.423540
O O12 0.703768 0.174985 0.801708
O O13 0.712815 0.266549 0.512994
O O14 0.771924 0.000000 0.000000
#
# Coordination Sequence:
#
# PCOD9320296 Si02
#       6
#     8   8   8   8   8   8
#     4  10  22  44  76  95 147 187 241 305 369 445
#     4  10  23  45  69 105 138 191 243 297 374 443
#     4  12  25  45  74 103 153 195 247 320 376 445
#     4  10  23  42  71 102 137 192 244 293 379 438
#     4  12  24  46  68 105 146 195 242 315 372 438
#     4  12  26  41  71 103 142 190 250 300 374 456
#
# _framework density 24.510967999999998
#
# number of rings (size 3 to 8) (size 9 to 14) (size 15 to 20)
#    1.000    0.000    1.667    5.500    2.333    1.333 
#    0.000    5.000    0.000    0.000    0.000    0.000 
#    0.000    0.000    0.000    0.000    0.000    0.000 
#
# Total GULP energy -133720.311769 kJ/mol
# GULP energy per Si atom -5571.679657 kJ/mol
# Density = 2.445518 g / cm^3
# Si number density = 24.510968 Si / 1000 Ang^3
#
#
#
# Elastic Constant Matrix: (Units=GPa)
#
#
# Indices 1 2 3 4 5 6 
#
# 1 91.5960 -9.1095 11.0195 0.0000 0.0000 0.0000
# 2 -9.1095 71.8001 25.6228 0.0000 0.0000 0.0000
# 3 11.0195 25.6228 112.8256 0.0000 0.0000 0.0000
# 4 0.0000 0.0000 0.0000 36.9454 0.0000 0.0000
# 5 0.0000 0.0000 0.0000 0.0000 15.5152 0.0000
# 6 0.0000 0.0000 0.0000 0.0000 0.0000 26.9284
#
#
#
# Elastic Compliance Matrix: (Units=1/GPa)
#
#
# Indices 1 2 3 4 5 6 
#
# 1 0.011302 0.001989 -0.001556 0.000000 0.000000 0.000000
# 2 0.001989 0.015506 -0.003716 0.000000 0.000000 0.000000
# 3 -0.001556 -0.003716 0.009859 0.000000 0.000000 0.000000
# 4 0.000000 0.000000 0.000000 0.027067 0.000000 0.000000
# 5 0.000000 0.000000 0.000000 0.000000 0.064453 0.000000
# 6 0.000000 0.000000 0.000000 0.000000 0.000000 0.037136
#
#
# Mechanical properties :
#
#
# Convention : Reuss Voigt Hill
#
# Bulk Modulus (GPa) = 33.21924 36.80970 35.01447
# Shear Modulus (GPa) = 27.48440 32.45706 29.97073
#
# Velocity S-wave (km/s) = 3.35223 3.64288 3.50057
# Velocity P-wave (km/s) = 5.34467 5.72227 5.53669
#
# Compressibility (1/GPa) = 0.03010304
#
# Stress axis : x y z
#
# Youngs Moduli (GPa) = 88.47612 64.49148 101.43004
#
# Poissons Ratio (x) = -0.12828 0.15779
# Poissons Ratio (y) = -0.17599 0.37688
# Poissons Ratio (z) = 0.13764 0.23963
#
# Static dielectric constant tensor:
#      x y z
#    x 1.857600 0.000000 0.000000 
#    y 0.000000 2.123530 0.000000 
#    z 0.000000 0.000000 2.093210 
# 
# From -- ./inp_files/10650.got.cif
#   From: 2010.05.17/outbox.cif.g08.bks.cpg/sg20_6_cif.got.tgz:10650.got - 2010.06.03 22:52:26.
