data_PCOD9320981
_publ_section_title
;
Structure prediction by ZEFSAII (Michael W. Deem and Ramdas Pophale) SiO2 
 PCOD9320981
Probable space group: C 2 2 21
;
_chemical_formula_sum "Si O2"
_cell_formula_units_Z 32
_cell_length_a 12.912410
_cell_length_b 6.975310
_cell_length_c 13.468925
_cell_angle_alpha 90.000000
_cell_angle_beta 90.000000
_cell_angle_gamma 90.000000
_cell_volume 1213.119980
_symmetry_space_group_name_H-M "C 2 2 21"
_symmetry_group_IT_number 20
_symmetry_cell_setting 'orthorhombic'
loop_
_space_group_symop_operation_xyz
x,y,z
-x,-y,1/2+z
x,-y,-z
-x,y,1/2-z
1/2+x,1/2+y,z
1/2-x,1/2-y,1/2+z
1/2+x,1/2-y,-z
1/2-x,1/2+y,1/2-z
loop_
_atom_site_type_symbol
_atom_site_label
_atom_site_fract_x
_atom_site_fract_y
_atom_site_fract_z
Si Si1 0.540892 0.068929 0.885186
Si Si2 0.768768 0.016881 0.882540
Si Si3 0.312537 0.963493 0.881778
Si Si4 0.396532 0.536077 0.288519
O O1 0.650421 0.977977 0.853608
O O2 0.562762 0.293179 0.860106
O O3 0.427982 0.015619 0.845212
O O4 0.535923 0.000000 0.000000
O O5 0.796364 0.238023 0.861956
O O6 0.844864 0.894694 0.815027
O O7 0.782745 0.000000 0.000000
O O8 0.204372 0.052691 0.841474
O O9 0.311217 0.000000 0.000000
O O10 0.500000 0.428563 0.250000
#
# Coordination Sequence:
#
# PCOD9320981 Si02
#       4
#     8   8   8   8
#     4   9  22  47  77 105 148 202 259 319 384 454
#     4  10  24  46  72 111 148 196 253 316 386 457
#     4  10  24  46  78 106 147 208 254 318 391 448
#     4  11  26  44  72 113 154 197 253 318 375 463
#
# _framework density 26.378266
#
# number of rings (size 3 to 8) (size 9 to 14) (size 15 to 20)
#    0.000    2.000    0.000    0.000   14.000    1.000 
#   22.500    0.000    0.000    0.000    0.000    0.000 
#    0.000    0.000    0.000    0.000    0.000    0.000 
#
# Total GULP energy -89352.328501 kJ/mol
# GULP energy per Si atom -5584.520531 kJ/mol
# Density = 2.631823 g / cm^3
# Si number density = 26.378266 Si / 1000 Ang^3
#
#
#
# Elastic Constant Matrix: (Units=GPa)
#
#
# Indices 1 2 3 4 5 6 
#
# 1 324.5388 51.5817 62.9893 0.0000 0.0000 0.0000
# 2 51.5817 110.5631 7.7449 0.0000 0.0000 0.0000
# 3 62.9893 7.7449 146.3505 0.0000 0.0000 0.0000
# 4 0.0000 0.0000 0.0000 35.4868 0.0000 0.0000
# 5 0.0000 0.0000 0.0000 0.0000 59.3877 0.0000
# 6 0.0000 0.0000 0.0000 0.0000 0.0000 45.8244
#
#
#
# Elastic Compliance Matrix: (Units=1/GPa)
#
#
# Indices 1 2 3 4 5 6 
#
# 1 0.003619 -0.001585 -0.001474 0.000000 0.000000 0.000000
# 2 -0.001585 0.009773 0.000165 0.000000 0.000000 0.000000
# 3 -0.001474 0.000165 0.007459 0.000000 0.000000 0.000000
# 4 0.000000 0.000000 0.000000 0.028179 0.000000 0.000000
# 5 0.000000 0.000000 0.000000 0.000000 0.016839 0.000000
# 6 0.000000 0.000000 0.000000 0.000000 0.000000 0.021822
#
#
# Mechanical properties :
#
#
# Convention : Reuss Voigt Hill
#
# Bulk Modulus (GPa) = 66.39026 91.78713 79.08870
# Shear Modulus (GPa) = 50.76154 58.74888 54.75521
#
# Velocity S-wave (km/s) = 4.39152 4.72441 4.56100
# Velocity P-wave (km/s) = 7.13703 8.03941 7.60162
#
# Compressibility (1/GPa) = 0.01506245
#
# Stress axis : x y z
#
# Youngs Moduli (GPa) = 276.29482 102.32646 134.07480
#
# Poissons Ratio (x) = 0.16222 0.19761
# Poissons Ratio (y) = 0.43801 -0.02214
# Poissons Ratio (z) = 0.40722 -0.01690
#
# Static dielectric constant tensor:
#      x y z
#    x 2.023270 0.000000 0.000000 
#    y 0.000000 2.017400 0.000000 
#    z 0.000000 0.000000 2.133640 
# 
# From -- ./inp_files/19524.got.cif
#   From: 2010.05.17/outbox.cif.g08.bks.cpg/sg20_10_cif.got.tgz:19524.got - 2010.06.03 22:52:26.
