data_PCOD9320122
_publ_section_title
;
Structure prediction by ZEFSAII (Michael W. Deem and Ramdas Pophale) SiO2 
 PCOD9320122
Probable space group: C 2 2 21
;
_chemical_formula_sum "Si O2"
_cell_formula_units_Z 40
_cell_length_a 17.844529
_cell_length_b 5.406717
_cell_length_c 17.771334
_cell_angle_alpha 90.000000
_cell_angle_beta 90.000000
_cell_angle_gamma 90.000000
_cell_volume 1714.583961
_symmetry_space_group_name_H-M "C 2 2 21"
_symmetry_group_IT_number 20
_symmetry_cell_setting 'orthorhombic'
loop_
_space_group_symop_operation_xyz
x,y,z
-x,-y,1/2+z
x,-y,-z
-x,y,1/2-z
1/2+x,1/2+y,z
1/2-x,1/2-y,1/2+z
1/2+x,1/2-y,-z
1/2-x,1/2+y,1/2-z
loop_
_atom_site_type_symbol
_atom_site_label
_atom_site_fract_x
_atom_site_fract_y
_atom_site_fract_z
Si Si1 0.215906 0.112573 0.085961
Si Si2 0.938126 0.125807 0.607608
Si Si3 0.598559 0.446601 0.418562
Si Si4 0.500000 0.078422 0.250000
Si Si5 0.135817 0.434814 0.346936
Si Si6 0.642859 0.000000 0.000000
O O1 0.197749 0.394285 0.064411
O O2 0.136734 0.027040 0.119180
O O3 0.279242 0.037089 0.145391
O O4 0.229765 0.000000 0.000000
O O5 0.965449 0.260070 0.682704
O O6 0.911547 0.306171 0.540617
O O7 0.011427 0.974131 0.584199
O O8 0.629793 0.500000 0.500000
O O9 0.639454 0.645370 0.366680
O O10 0.601931 0.154038 0.401637
O O11 0.573934 0.940649 0.280835
#
# Coordination Sequence:
#
# PCOD9320122 Si02
#       6
#     8   8   8   4   8   4
#     4  10  22  42  71 103 138 179 239 303 362 425
#     4  10  24  43  69  99 144 187 242 296 359 435
#     4  11  23  40  69 103 136 184 236 301 355 416
#     4  10  26  50  64 104 144 198 238 290 362 448
#     4  11  26  43  68 101 147 186 235 297 357 434
#     4  10  22  42  74 108 136 186 246 310 364 416
#
# _framework density 23.329272
#
# number of rings (size 3 to 8) (size 9 to 14) (size 15 to 20)
#    0.000    1.600    0.000    3.600   18.200    3.200 
#    3.600    0.000    0.000    0.000    0.000    0.000 
#    0.000    0.000    0.000    0.000    0.000    0.000 
#
# Total GULP energy -111345.299628 kJ/mol
# GULP energy per Si atom -5567.264981 kJ/mol
# Density = 2.327617 g / cm^3
# Si number density = 23.329272 Si / 1000 Ang^3
#
#
#
# Elastic Constant Matrix: (Units=GPa)
#
#
# Indices 1 2 3 4 5 6 
#
# 1 156.6413 7.2211 -4.3926 0.0000 0.0000 0.0000
# 2 7.2211 37.3585 -4.2608 0.0000 0.0000 0.0000
# 3 -4.3926 -4.2608 34.9567 0.0000 0.0000 0.0000
# 4 0.0000 0.0000 0.0000 16.8579 0.0000 0.0000
# 5 0.0000 0.0000 0.0000 0.0000 34.2630 0.0000
# 6 0.0000 0.0000 0.0000 0.0000 0.0000 32.9215
#
#
#
# Elastic Compliance Matrix: (Units=1/GPa)
#
#
# Indices 1 2 3 4 5 6 
#
# 1 0.006457 -0.001172 0.000669 0.000000 0.000000 0.000000
# 2 -0.001172 0.027358 0.003187 0.000000 0.000000 0.000000
# 3 0.000669 0.003187 0.029079 0.000000 0.000000 0.000000
# 4 0.000000 0.000000 0.000000 0.059319 0.000000 0.000000
# 5 0.000000 0.000000 0.000000 0.000000 0.029186 0.000000
# 6 0.000000 0.000000 0.000000 0.000000 0.000000 0.030375
#
#
# Mechanical properties :
#
#
# Convention : Reuss Voigt Hill
#
# Bulk Modulus (GPa) = 14.64946 25.12130 19.88538
# Shear Modulus (GPa) = 25.10544 32.16776 28.63660
#
# Velocity S-wave (km/s) = 3.28401 3.71733 3.50737
# Velocity P-wave (km/s) = 4.54672 5.40520 4.99444
#
# Compressibility (1/GPa) = 0.06826191
#
# Stress axis : x y z
#
# Youngs Moduli (GPa) = 154.87599 36.55282 34.38869
#
# Poissons Ratio (x) = 0.04283 -0.02299
# Poissons Ratio (y) = 0.18148 -0.10961
# Poissons Ratio (z) = -0.10354 -0.11651
#
# Static dielectric constant tensor:
#      x y z
#    x 1.926080 0.000000 0.000000 
#    y 0.000000 1.966790 0.000000 
#    z 0.000000 0.000000 1.949680 
# 
# From -- ./inp_files/22640.got.cif
#   From: 2010.05.17/outbox.cif.g08.bks.cpg/sg20_12_cif.got.tgz:22640.got - 2010.06.03 22:52:26.
