data_PCOD9320362
_publ_section_title
;
Structure prediction by ZEFSAII (Michael W. Deem and Ramdas Pophale) SiO2 
 PCOD9320362
Probable space group: C 2 2 21
;
_chemical_formula_sum "Si O2"
_cell_formula_units_Z 48
_cell_length_a 5.254705
_cell_length_b 15.583576
_cell_length_c 21.836645
_cell_angle_alpha 90.000000
_cell_angle_beta 90.000000
_cell_angle_gamma 90.000000
_cell_volume 1788.139418
_symmetry_space_group_name_H-M "C 2 2 21"
_symmetry_group_IT_number 20
_symmetry_cell_setting 'orthorhombic'
loop_
_space_group_symop_operation_xyz
x,y,z
-x,-y,1/2+z
x,-y,-z
-x,y,1/2-z
1/2+x,1/2+y,z
1/2-x,1/2-y,1/2+z
1/2+x,1/2-y,-z
1/2-x,1/2+y,1/2-z
loop_
_atom_site_type_symbol
_atom_site_label
_atom_site_fract_x
_atom_site_fract_y
_atom_site_fract_z
Si Si1 0.139381 0.096563 0.169330
Si Si2 0.000000 0.768494 0.750000
Si Si3 0.020796 0.338122 0.568448
Si Si4 0.116155 0.850663 0.041231
Si Si5 0.000000 0.492842 0.250000
Si Si6 0.500000 0.336121 0.250000
Si Si7 0.462789 0.000000 0.000000
Si Si8 0.844709 0.937139 0.141637
O O1 0.378070 0.134140 0.133482
O O2 0.966816 0.174308 0.190305
O O3 0.266061 0.050398 0.227791
O O4 0.966948 0.029930 0.133759
O O5 0.251959 0.717395 0.760586
O O6 0.873185 0.248079 0.566463
O O7 0.285991 0.329380 0.528145
O O8 0.899514 0.424754 0.538339
O O9 0.863230 0.884966 0.077863
O O10 0.293050 0.938414 0.045584
O O11 0.898124 0.445654 0.312270
O O12 0.538050 0.389029 0.188027
#
# Coordination Sequence:
#
# PCOD9320362 Si02
#       8
#     8   4   8   8   4   4   4   8
#     4  12  23  46  72 103 154 203 260 341 402 490
#     4  12  26  42  67 109 154 204 272 339 413 496
#     4  10  22  46  70 103 145 200 257 324 410 481
#     4  10  22  46  70 103 145 200 257 324 410 481
#     4  12  24  44  76 114 152 208 280 326 428 484
#     4  12  26  42  67 109 154 204 272 339 413 496
#     4   8  20  44  66  96 148 172 246 332 374 468
#     4  12  23  46  72 103 154 203 260 341 402 490
#
# _framework density 26.843547000000001
#
# number of rings (size 3 to 8) (size 9 to 14) (size 15 to 20)
#    1.000    0.000    5.000    2.000    0.000    1.333 
#   12.000    0.000    0.000    0.000    0.000    0.000 
#    0.000    0.000    0.000    0.000    0.000    0.000 
#
# Total GULP energy -133674.518021 kJ/mol
# GULP energy per Si atom -5569.771584 kJ/mol
# Density = 2.678245 g / cm^3
# Si number density = 26.843547 Si / 1000 Ang^3
#
#
#
# Elastic Constant Matrix: (Units=GPa)
#
#
# Indices 1 2 3 4 5 6 
#
# 1 93.1997 50.9483 42.7825 0.0000 0.0000 0.0000
# 2 50.9483 200.5489 38.1336 0.0000 0.0000 0.0000
# 3 42.7825 38.1336 92.9073 0.0000 0.0000 0.0000
# 4 0.0000 0.0000 0.0000 37.7262 0.0000 0.0000
# 5 0.0000 0.0000 0.0000 0.0000 55.5152 0.0000
# 6 0.0000 0.0000 0.0000 0.0000 0.0000 23.4711
#
#
#
# Elastic Compliance Matrix: (Units=1/GPa)
#
#
# Indices 1 2 3 4 5 6 
#
# 1 0.014821 -0.002676 -0.005727 0.000000 0.000000 0.000000
# 2 -0.002676 0.005892 -0.001186 0.000000 0.000000 0.000000
# 3 -0.005727 -0.001186 0.013887 0.000000 0.000000 0.000000
# 4 0.000000 0.000000 0.000000 0.026507 0.000000 0.000000
# 5 0.000000 0.000000 0.000000 0.000000 0.018013 0.000000
# 6 0.000000 0.000000 0.000000 0.000000 0.000000 0.042606
#
#
# Mechanical properties :
#
#
# Convention : Reuss Voigt Hill
#
# Bulk Modulus (GPa) = 64.83914 72.26496 68.55205
# Shear Modulus (GPa) = 34.23623 40.32860 37.28241
#
# Velocity S-wave (km/s) = 3.57515 3.88023 3.73081
# Velocity P-wave (km/s) = 6.42255 6.85960 6.64467
#
# Compressibility (1/GPa) = 0.01542278
#
# Stress axis : x y z
#
# Youngs Moduli (GPa) = 67.46976 169.72972 72.00919
#
# Poissons Ratio (x) = 0.45427 0.41236
# Poissons Ratio (y) = 0.18058 0.08539
# Poissons Ratio (z) = 0.38637 0.20126
#
# Static dielectric constant tensor:
#      x y z
#    x 2.089490 0.000000 0.000000 
#    y 0.000000 2.144000 0.000000 
#    z 0.000000 0.000000 2.146200 
# 
# From -- ./inp_files/28378.got.cif
#   From: 2010.05.17/outbox.cif.g08.bks.cpg/sg20_15_cif.got.tgz:28378.got - 2010.06.03 22:52:26.
