data_PCOD9320205
_publ_section_title
;
Structure prediction by ZEFSAII (Michael W. Deem and Ramdas Pophale) SiO2 
 PCOD9320205
Probable space group: C 2 2 21
;
_chemical_formula_sum "Si O2"
_cell_formula_units_Z 64
_cell_length_a 12.519323
_cell_length_b 15.041922
_cell_length_c 17.707992
_cell_angle_alpha 90.000000
_cell_angle_beta 90.000000
_cell_angle_gamma 90.000000
_cell_volume 3334.674848
_symmetry_space_group_name_H-M "C 2 2 21"
_symmetry_group_IT_number 20
_symmetry_cell_setting 'orthorhombic'
loop_
_space_group_symop_operation_xyz
x,y,z
-x,-y,1/2+z
x,-y,-z
-x,y,1/2-z
1/2+x,1/2+y,z
1/2-x,1/2-y,1/2+z
1/2+x,1/2-y,-z
1/2-x,1/2+y,1/2-z
loop_
_atom_site_type_symbol
_atom_site_label
_atom_site_fract_x
_atom_site_fract_y
_atom_site_fract_z
Si Si1 0.072902 0.670516 0.899515
Si Si2 0.230131 0.107903 0.698669
Si Si3 0.263068 0.065804 0.200120
Si Si4 0.879093 0.270536 0.718805
Si Si5 0.966857 0.858626 0.664652
Si Si6 0.140438 0.371558 0.929039
Si Si7 0.558941 0.998681 0.412354
Si Si8 0.361926 0.518448 0.084541
O O1 0.163095 0.648297 0.837638
O O2 0.037246 0.770763 0.886057
O O3 0.976827 0.600337 0.889795
O O4 0.119302 0.654802 0.983934
O O5 0.171861 0.179268 0.751389
O O6 0.252083 0.018422 0.745122
O O7 0.160352 0.073603 0.627935
O O8 0.312305 0.148939 0.244587
O O9 0.148570 0.094967 0.168477
O O10 0.346747 0.038029 0.136501
O O11 0.869471 0.289621 0.629236
O O12 0.000000 0.275675 0.750000
O O13 0.000000 0.833852 0.750000
O O14 0.053812 0.925783 0.632103
O O15 0.251870 0.424575 0.921892
O O16 0.047056 0.440510 0.905663
O O17 0.589134 0.000000 0.500000
O O18 0.399847 0.500000 0.000000
#
# Coordination Sequence:
#
# PCOD9320205 Si02
#       8
#     8   8   8   8   8   8   8   8
#     4  11  24  44  72 100 133 177 234 281 341 406
#     4  12  25  43  70 102 133 180 228 279 336 413
#     4  12  25  45  68 102 140 175 222 290 340 400
#     4  12  25  42  72 102 133 176 231 283 339 403
#     4  12  27  47  65  99 145 181 220 284 340 403
#     4  11  21  46  71 103 131 178 233 284 336 403
#     4  10  22  43  72 100 135 176 229 291 340 399
#     4  12  24  46  73  94 137 186 227 266 345 420
#
# _framework density 19.192277000000001
#
# number of rings (size 3 to 8) (size 9 to 14) (size 15 to 20)
#    0.000    0.500    7.500    0.375    3.500    1.500 
#    6.750    0.000    0.000    0.000    0.000    0.000 
#    0.000    0.000    0.000    0.000    0.000    0.000 
#
# Total GULP energy -178981.679386 kJ/mol
# GULP energy per Si atom -5593.177481 kJ/mol
# Density = 1.914859 g / cm^3
# Si number density = 19.192277 Si / 1000 Ang^3
#
#
#
# Elastic Constant Matrix: (Units=GPa)
#
#
# Indices 1 2 3 4 5 6 
#
# 1 89.5048 12.1112 22.3945 0.0000 0.0000 0.0000
# 2 12.1112 73.9439 16.7878 0.0000 0.0000 0.0000
# 3 22.3945 16.7878 61.9781 0.0000 0.0000 0.0000
# 4 0.0000 0.0000 0.0000 32.6287 0.0000 0.0000
# 5 0.0000 0.0000 0.0000 0.0000 21.0707 0.0000
# 6 0.0000 0.0000 0.0000 0.0000 0.0000 24.1179
#
#
#
# Elastic Compliance Matrix: (Units=1/GPa)
#
#
# Indices 1 2 3 4 5 6 
#
# 1 0.012363 -0.001077 -0.004175 0.000000 0.000000 0.000000
# 2 -0.001077 0.014504 -0.003539 0.000000 0.000000 0.000000
# 3 -0.004175 -0.003539 0.018602 0.000000 0.000000 0.000000
# 4 0.000000 0.000000 0.000000 0.030648 0.000000 0.000000
# 5 0.000000 0.000000 0.000000 0.000000 0.047459 0.000000
# 6 0.000000 0.000000 0.000000 0.000000 0.000000 0.041463
#
#
# Mechanical properties :
#
#
# Convention : Reuss Voigt Hill
#
# Bulk Modulus (GPa) = 35.86122 36.44597 36.15360
# Shear Modulus (GPa) = 26.05283 27.17235 26.61259
#
# Velocity S-wave (km/s) = 3.68838 3.76679 3.72779
# Velocity P-wave (km/s) = 6.07162 6.16031 6.11613
#
# Compressibility (1/GPa) = 0.02788528
#
# Stress axis : x y z
#
# Youngs Moduli (GPa) = 80.88639 68.94781 53.75721
#
# Poissons Ratio (x) = 0.07425 0.22446
# Poissons Ratio (y) = 0.08711 0.19027
# Poissons Ratio (z) = 0.33773 0.24404
#
# Static dielectric constant tensor:
#      x y z
#    x 1.652700 0.000000 0.000000 
#    y 0.000000 1.644120 0.000000 
#    z 0.000000 0.000000 1.675500 
# 
# From -- ./inp_files/24481.got.cif
#   From: 2010.05.17/outbox.cif.g08.bks.cpg/sg20_13_cif.got.tgz:24481.got - 2010.06.03 22:52:26.
