data_PCOD9320834
_publ_section_title
;
Structure prediction by ZEFSAII (Michael W. Deem and Ramdas Pophale) SiO2 
 PCOD9320834
Probable space group: C 2 2 21
;
_chemical_formula_sum "Si O2"
_cell_formula_units_Z 40
_cell_length_a 10.201392
_cell_length_b 21.143919
_cell_length_c 8.417027
_cell_angle_alpha 90.000000
_cell_angle_beta 90.000000
_cell_angle_gamma 90.000000
_cell_volume 1815.530891
_symmetry_space_group_name_H-M "C 2 2 21"
_symmetry_group_IT_number 20
_symmetry_cell_setting 'orthorhombic'
loop_
_space_group_symop_operation_xyz
x,y,z
-x,-y,1/2+z
x,-y,-z
-x,y,1/2-z
1/2+x,1/2+y,z
1/2-x,1/2-y,1/2+z
1/2+x,1/2-y,-z
1/2-x,1/2+y,1/2-z
loop_
_atom_site_type_symbol
_atom_site_label
_atom_site_fract_x
_atom_site_fract_y
_atom_site_fract_z
Si Si1 0.782075 0.189449 0.753129
Si Si2 0.000000 0.903356 0.250000
Si Si3 0.768233 0.823442 0.604662
Si Si4 0.065520 0.562788 0.425092
Si Si5 0.000000 0.099029 0.250000
Si Si6 0.511515 0.500000 0.000000
Si Si7 0.500000 0.122790 0.750000
O O1 0.821425 0.192498 0.569326
O O2 0.786691 0.258598 0.826055
O O3 0.632763 0.164204 0.749423
O O4 0.886889 0.140316 0.825233
O O5 0.927180 0.949727 0.376007
O O6 0.660227 0.878104 0.598991
O O7 0.885154 0.855283 0.698824
O O8 0.132788 0.500000 0.500000
O O9 0.000000 0.551587 0.250000
O O10 0.984496 0.583634 0.584154
O O11 0.944655 0.050334 0.117127
#
# Coordination Sequence:
#
# PCOD9320834 Si02
#       7
#     8   4   8   8   4   4   4
#     4  11  26  46  72 105 146 186 242 300 363 439
#     4  11  24  46  72 104 142 185 240 296 353 436
#     4  11  27  44  74 101 147 186 239 298 370 438
#     4  11  25  47  72 105 143 194 244 300 364 439
#     4  11  23  46  68 108 137 195 232 302 361 437
#     4  10  24  42  70 102 142 188 242 292 364 428
#     4  10  25  48  70 106 145 194 238 304 364 435
#
# _framework density 22.032122000000001
#
# number of rings (size 3 to 8) (size 9 to 14) (size 15 to 20)
#    0.000    1.200    3.000    0.600    8.400    3.200 
#    3.600    0.000    0.000    0.000    0.000    0.000 
#    0.000    0.000    0.000    0.000    0.000    0.000 
#
# Total GULP energy -111381.015665 kJ/mol
# GULP energy per Si atom -5569.050783 kJ/mol
# Density = 2.198198 g / cm^3
# Si number density = 22.032122 Si / 1000 Ang^3
#
#
#
# Elastic Constant Matrix: (Units=GPa)
#
#
# Indices 1 2 3 4 5 6 
#
# 1 73.7492 47.9370 20.5835 0.0000 0.0000 0.0000
# 2 47.9370 181.0785 64.7806 0.0000 0.0000 0.0000
# 3 20.5835 64.7806 120.6467 0.0000 0.0000 0.0000
# 4 0.0000 0.0000 0.0000 61.6860 0.0000 0.0000
# 5 0.0000 0.0000 0.0000 0.0000 24.8743 0.0000
# 6 0.0000 0.0000 0.0000 0.0000 0.0000 28.8294
#
#
#
# Elastic Compliance Matrix: (Units=1/GPa)
#
#
# Indices 1 2 3 4 5 6 
#
# 1 0.016410 -0.004137 -0.000578 0.000000 0.000000 0.000000
# 2 -0.004137 0.007879 -0.003525 0.000000 0.000000 0.000000
# 3 -0.000578 -0.003525 0.010280 0.000000 0.000000 0.000000
# 4 0.000000 0.000000 0.000000 0.016211 0.000000 0.000000
# 5 0.000000 0.000000 0.000000 0.000000 0.040202 0.000000
# 6 0.000000 0.000000 0.000000 0.000000 0.000000 0.034687
#
#
# Mechanical properties :
#
#
# Convention : Reuss Voigt Hill
#
# Bulk Modulus (GPa) = 55.28410 71.34186 63.31298
# Shear Modulus (GPa) = 33.74314 39.22285 36.48299
#
# Velocity S-wave (km/s) = 3.91774 4.22389 4.07369
# Velocity P-wave (km/s) = 6.75366 7.49930 7.13622
#
# Compressibility (1/GPa) = 0.01808838
#
# Stress axis : x y z
#
# Youngs Moduli (GPa) = 60.93778 126.92501 97.27841
#
# Poissons Ratio (x) = 0.52515 0.05624
# Poissons Ratio (y) = 0.25213 0.34286
# Poissons Ratio (z) = 0.03523 0.44735
#
# Static dielectric constant tensor:
#      x y z
#    x 1.712830 0.000000 0.000000 
#    y 0.000000 1.827530 0.000000 
#    z 0.000000 0.000000 1.906750 
# 
# From -- ./inp_files/7140.got.cif
#   From: 2010.05.17/outbox.cif.g08.bks.cpg/sg20_4_cif.got.tgz:7140.got - 2010.06.03 22:52:26.
