data_PCOD9320439
_publ_section_title
;
Structure prediction by ZEFSAII (Michael W. Deem and Ramdas Pophale) SiO2 
 PCOD9320439
Probable space group: C 2 2 21
;
_chemical_formula_sum "Si O2"
_cell_formula_units_Z 40
_cell_length_a 26.254205
_cell_length_b 9.321627
_cell_length_c 7.664063
_cell_angle_alpha 90.000000
_cell_angle_beta 90.000000
_cell_angle_gamma 90.000000
_cell_volume 1875.640747
_symmetry_space_group_name_H-M "C 2 2 21"
_symmetry_group_IT_number 20
_symmetry_cell_setting 'orthorhombic'
loop_
_space_group_symop_operation_xyz
x,y,z
-x,-y,1/2+z
x,-y,-z
-x,y,1/2-z
1/2+x,1/2+y,z
1/2-x,1/2-y,1/2+z
1/2+x,1/2-y,-z
1/2-x,1/2+y,1/2-z
loop_
_atom_site_type_symbol
_atom_site_label
_atom_site_fract_x
_atom_site_fract_y
_atom_site_fract_z
Si Si1 0.854362 0.888760 0.160960
Si Si2 0.138296 0.712857 0.836167
Si Si3 0.159474 0.605208 0.220422
Si Si4 0.730950 0.559414 0.183535
Si Si5 0.058206 0.941174 0.698717
O O1 0.854739 0.720317 0.130585
O O2 0.903698 0.935965 0.273147
O O3 0.801980 0.924231 0.254290
O O4 0.851809 0.000000 0.000000
O O5 0.142677 0.556785 0.749673
O O6 0.189190 0.812313 0.820199
O O7 0.091029 0.801007 0.752950
O O8 0.136017 0.670757 0.041988
O O9 0.220698 0.598070 0.201044
O O10 0.751544 0.500000 0.000000
O O11 0.000000 0.926739 0.750000
O O12 0.053830 0.000000 0.500000
#
# Coordination Sequence:
#
# PCOD9320439 Si02
#       5
#     8   8   8   8   8
#     4  10  23  40  63  96 132 176 233 275 332 414
#     4  10  24  42  64 106 140 180 230 290 350 409
#     4  11  23  39  68  97 146 185 220 287 345 411
#     4  11  22  36  60  96 139 190 230 267 329 413
#     4  10  24  45  75 100 128 179 236 293 356 423
#
# _framework density 21.326044
#
# number of rings (size 3 to 8) (size 9 to 14) (size 15 to 20)
#    0.000    1.600    2.000    1.200    8.400    3.200 
#    0.000    1.000    4.400    0.000    0.000    0.000 
#    0.000    0.000    0.000    0.000    0.000    0.000 
#
# Total GULP energy -111357.348799 kJ/mol
# GULP energy per Si atom -5567.867440 kJ/mol
# Density = 2.127751 g / cm^3
# Si number density = 21.326044 Si / 1000 Ang^3
#
#
#
# Elastic Constant Matrix: (Units=GPa)
#
#
# Indices 1 2 3 4 5 6 
#
# 1 161.9377 71.4662 37.4889 0.0000 0.0000 0.0000
# 2 71.4662 201.3335 49.9030 0.0000 0.0000 0.0000
# 3 37.4889 49.9030 75.2322 0.0000 0.0000 0.0000
# 4 0.0000 0.0000 0.0000 33.5621 0.0000 0.0000
# 5 0.0000 0.0000 0.0000 0.0000 -0.8869 0.0000
# 6 0.0000 0.0000 0.0000 0.0000 0.0000 -14.5450
#
#
#
# Elastic Compliance Matrix: (Units=1/GPa)
#
#
# Indices 1 2 3 4 5 6 
#
# 1 0.007672 -0.002125 -0.002413 0.000000 0.000000 0.000000
# 2 -0.002125 0.006533 -0.003274 0.000000 0.000000 0.000000
# 3 -0.002413 -0.003274 0.016667 0.000000 0.000000 0.000000
# 4 0.000000 0.000000 0.000000 0.029796 0.000000 0.000000
# 5 0.000000 0.000000 0.000000 0.000000 -1.127503 0.000000
# 6 0.000000 0.000000 0.000000 0.000000 0.000000 -0.068752
#
#
# Mechanical properties :
#
#
# Convention : Reuss Voigt Hill
#
# Bulk Modulus (GPa) = 65.59207 84.02443 74.80825
# Shear Modulus (GPa) = -4.48478 22.26905 8.89214
#
# Velocity S-wave (km/s) = -1.45173 3.23494 2.04418
# Velocity P-wave (km/s) = 5.29278 7.31017 6.38170
#
# Compressibility (1/GPa) = 0.01524575
#
# Stress axis : x y z
#
# Youngs Moduli (GPa) = 130.34897 153.07389 59.99967
#
# Poissons Ratio (x) = 0.32528 0.14480
# Poissons Ratio (y) = 0.27699 0.19646
# Poissons Ratio (z) = 0.31457 0.50123
#
# Static dielectric constant tensor:
#      x y z
#    x 1.822200 0.000000 0.000000 
#    y 0.000000 1.795290 0.000000 
#    z 0.000000 0.000000 2.328920 
# 
# From -- ./inp_files/10960.got.cif
#   From: 2010.05.17/outbox.cif.g08.bks.cpg/sg20_6_cif.got.tgz:10960.got - 2010.06.03 22:52:26.
