data_PCOD9320876
_publ_section_title
;
Structure prediction by ZEFSAII (Michael W. Deem and Ramdas Pophale) SiO2 
 PCOD9320876
Probable space group: C 2 2 21
;
_chemical_formula_sum "Si O2"
_cell_formula_units_Z 40
_cell_length_a 6.908754
_cell_length_b 7.284047
_cell_length_c 27.859268
_cell_angle_alpha 90.000000
_cell_angle_beta 90.000000
_cell_angle_gamma 90.000000
_cell_volume 1401.981134
_symmetry_space_group_name_H-M "C 2 2 21"
_symmetry_group_IT_number 20
_symmetry_cell_setting 'orthorhombic'
loop_
_space_group_symop_operation_xyz
x,y,z
-x,-y,1/2+z
x,-y,-z
-x,y,1/2-z
1/2+x,1/2+y,z
1/2-x,1/2-y,1/2+z
1/2+x,1/2-y,-z
1/2-x,1/2+y,1/2-z
loop_
_atom_site_type_symbol
_atom_site_label
_atom_site_fract_x
_atom_site_fract_y
_atom_site_fract_z
Si Si1 0.829122 0.321429 0.434185
Si Si2 0.000000 0.022072 0.750000
Si Si3 0.627019 0.241579 0.824884
Si Si4 0.129157 0.742863 0.075808
Si Si5 0.319872 0.500000 0.500000
Si Si6 0.583169 0.179910 0.184328
O O1 0.910708 0.267794 0.381861
O O2 0.595620 0.295789 0.431554
O O3 0.906539 0.178532 0.473494
O O4 0.848741 0.537016 0.442991
O O5 0.140873 0.173834 0.775100
O O6 0.006413 0.880795 0.704974
O O7 0.850236 0.302121 0.820572
O O8 0.617420 0.033215 0.806071
O O9 0.164755 0.738527 0.132689
O O10 0.255957 0.893008 0.047458
#
# Coordination Sequence:
#
# PCOD9320876 Si02
#       6
#     8   4   8   8   4   8
#     4  10  24  44  66  98 140 182 230 290 353 417
#     4  12  24  36  70  96 136 180 236 290 340 428
#     4  10  24  44  66  98 140 182 230 290 353 417
#     4  10  24  44  66  98 140 182 230 290 353 417
#     4  12  24  36  70  96 136 180 236 290 340 428
#     4  10  24  44  66  98 140 182 230 290 353 417
#
# _framework density 28.531051000000001
#
# number of rings (size 3 to 8) (size 9 to 14) (size 15 to 20)
#    0.000    1.600    0.000    2.400   11.200    0.000 
#    0.000   12.000    0.000    0.000    0.000    0.000 
#    0.000    0.000    0.000    0.000    0.000    0.000 
#
# Total GULP energy -112010.647873 kJ/mol
# GULP energy per Si atom -5600.532394 kJ/mol
# Density = 2.846611 g / cm^3
# Si number density = 28.531051 Si / 1000 Ang^3
#
#
#
# Elastic Constant Matrix: (Units=GPa)
#
#
# Indices 1 2 3 4 5 6 
#
# 1 128.3651 43.7930 -3.8697 0.0000 0.0000 0.0000
# 2 43.7930 199.7704 84.2020 0.0000 0.0000 0.0000
# 3 -3.8697 84.2020 213.6301 0.0000 0.0000 0.0000
# 4 0.0000 0.0000 0.0000 77.5290 0.0000 0.0000
# 5 0.0000 0.0000 0.0000 0.0000 19.4690 0.0000
# 6 0.0000 0.0000 0.0000 0.0000 0.0000 48.5655
#
#
#
# Elastic Compliance Matrix: (Units=1/GPa)
#
#
# Indices 1 2 3 4 5 6 
#
# 1 0.008623 -0.002346 0.001081 0.000000 0.000000 0.000000
# 2 -0.002346 0.006641 -0.002660 0.000000 0.000000 0.000000
# 3 0.001081 -0.002660 0.005749 0.000000 0.000000 0.000000
# 4 0.000000 0.000000 0.000000 0.012898 0.000000 0.000000
# 5 0.000000 0.000000 0.000000 0.000000 0.051364 0.000000
# 6 0.000000 0.000000 0.000000 0.000000 0.000000 0.020591
#
#
# Mechanical properties :
#
#
# Convention : Reuss Voigt Hill
#
# Bulk Modulus (GPa) = 75.97007 87.77957 81.87482
# Shear Modulus (GPa) = 42.33536 56.95536 49.64536
#
# Velocity S-wave (km/s) = 3.85624 4.47280 4.17591
# Velocity P-wave (km/s) = 6.82000 7.58338 7.21180
#
# Compressibility (1/GPa) = 0.01316308
#
# Stress axis : x y z
#
# Youngs Moduli (GPa) = 115.96629 150.57432 173.94167
#
# Poissons Ratio (x) = 0.35323 -0.18800
# Poissons Ratio (y) = 0.27205 0.46271
# Poissons Ratio (z) = -0.12534 0.40055
#
# Static dielectric constant tensor:
#      x y z
#    x 2.405950 0.000000 0.000000 
#    y 0.000000 2.073530 0.000000 
#    z 0.000000 0.000000 2.215300 
# 
# From -- ./inp_files/31132.got.cif
#   From: 2010.05.17/outbox.cif.g08.bks.cpg/sg20_16_cif.got.tgz:31132.got - 2010.06.03 22:52:26.
