data_PCOD9320637
_publ_section_title
;
Structure prediction by ZEFSAII (Michael W. Deem and Ramdas Pophale) SiO2 
 PCOD9320637
Probable space group: C 2 2 21
;
_chemical_formula_sum "Si O2"
_cell_formula_units_Z 64
_cell_length_a 8.453245
_cell_length_b 11.593158
_cell_length_c 26.800071
_cell_angle_alpha 90.000000
_cell_angle_beta 90.000000
_cell_angle_gamma 90.000000
_cell_volume 2626.401729
_symmetry_space_group_name_H-M "C 2 2 21"
_symmetry_group_IT_number 20
_symmetry_cell_setting 'orthorhombic'
loop_
_space_group_symop_operation_xyz
x,y,z
-x,-y,1/2+z
x,-y,-z
-x,y,1/2-z
1/2+x,1/2+y,z
1/2-x,1/2-y,1/2+z
1/2+x,1/2-y,-z
1/2-x,1/2+y,1/2-z
loop_
_atom_site_type_symbol
_atom_site_label
_atom_site_fract_x
_atom_site_fract_y
_atom_site_fract_z
Si Si1 0.916454 0.581936 0.573686
Si Si2 0.644899 0.831044 0.917578
Si Si3 0.074575 0.968232 0.143162
Si Si4 0.405145 0.076189 0.820951
Si Si5 0.134613 0.827445 0.682071
Si Si6 0.645618 0.159735 0.274601
Si Si7 0.740589 0.411681 0.041984
Si Si8 0.667326 0.265840 0.379565
O O1 0.828106 0.460829 0.562733
O O2 0.802719 0.691113 0.582838
O O3 0.999336 0.566878 0.627671
O O4 0.068770 0.599183 0.539222
O O5 0.747518 0.814384 0.866423
O O6 0.683178 0.721316 0.952732
O O7 0.458860 0.819393 0.904914
O O8 0.213309 0.923319 0.178498
O O9 0.993771 0.081378 0.164080
O O10 0.173230 0.974179 0.091771
O O11 0.935187 0.878957 0.133272
O O12 0.435976 0.957574 0.793838
O O13 0.441426 0.204774 0.804325
O O14 0.229305 0.864260 0.731249
O O15 0.500000 0.230683 0.250000
O O16 0.710901 0.216322 0.325319
O O17 0.685854 0.500000 0.000000
#
# Coordination Sequence:
#
# PCOD9320637 Si02
#       8
#     8   8   8   8   8   8   8   8
#     4  11  22  42  73  98 138 187 230 285 375 424
#     4  11  21  45  66  99 143 182 228 291 364 416
#     4  10  23  44  69  96 135 188 229 288 376 421
#     4  11  24  42  62  98 141 186 244 294 346 410
#     4  12  23  41  67  97 142 196 239 288 348 424
#     4  12  25  40  62  98 148 188 249 300 334 408
#     4  10  24  50  73 105 144 174 237 308 366 452
#     4  11  22  41  69  96 137 189 236 287 350 415
#
# _framework density 24.367939
#
# number of rings (size 3 to 8) (size 9 to 14) (size 15 to 20)
#    0.000    1.000    7.500    0.000    3.500    0.500 
#    2.250    2.500    0.000    0.000    0.000    0.000 
#    0.000    0.000    0.000    0.000    0.000    0.000 
#
# Total GULP energy -178813.194222 kJ/mol
# GULP energy per Si atom -5587.912319 kJ/mol
# Density = 2.431248 g / cm^3
# Si number density = 24.367939 Si / 1000 Ang^3
#
#
#
# Elastic Constant Matrix: (Units=GPa)
#
#
# Indices 1 2 3 4 5 6 
#
# 1 82.0091 8.3555 4.1441 0.0000 0.0000 0.0000
# 2 8.3555 75.6473 -0.2284 0.0000 0.0000 0.0000
# 3 4.1441 -0.2284 31.5432 0.0000 0.0000 0.0000
# 4 0.0000 0.0000 0.0000 25.4661 0.0000 0.0000
# 5 0.0000 0.0000 0.0000 0.0000 20.8568 0.0000
# 6 0.0000 0.0000 0.0000 0.0000 0.0000 58.6713
#
#
#
# Elastic Compliance Matrix: (Units=1/GPa)
#
#
# Indices 1 2 3 4 5 6 
#
# 1 0.012417 -0.001376 -0.001641 0.000000 0.000000 0.000000
# 2 -0.001376 0.013372 0.000278 0.000000 0.000000 0.000000
# 3 -0.001641 0.000278 0.031920 0.000000 0.000000 0.000000
# 4 0.000000 0.000000 0.000000 0.039268 0.000000 0.000000
# 5 0.000000 0.000000 0.000000 0.000000 0.047946 0.000000
# 6 0.000000 0.000000 0.000000 0.000000 0.000000 0.017044
#
#
# Mechanical properties :
#
#
# Convention : Reuss Voigt Hill
#
# Bulk Modulus (GPa) = 19.14640 23.74911 21.44775
# Shear Modulus (GPa) = 27.04792 32.79407 29.92100
#
# Velocity S-wave (km/s) = 3.33525 3.67248 3.50792
# Velocity P-wave (km/s) = 4.76509 5.26783 5.02275
#
# Compressibility (1/GPa) = 0.05222915
#
# Stress axis : x y z
#
# Youngs Moduli (GPa) = 80.53512 74.78248 31.32809
#
# Poissons Ratio (x) = 0.10293 0.05142
# Poissons Ratio (y) = 0.11085 -0.00870
# Poissons Ratio (z) = 0.13218 -0.02077
#
# Static dielectric constant tensor:
#      x y z
#    x 1.955770 0.000000 0.000000 
#    y 0.000000 1.990260 0.000000 
#    z 0.000000 0.000000 1.974780 
# 
# From -- ./inp_files/31088.got.cif
#   From: 2010.05.17/outbox.cif.g08.bks.cpg/sg20_16_cif.got.tgz:31088.got - 2010.06.03 22:52:26.
