data_PCOD9320452
_publ_section_title
;
Structure prediction by ZEFSAII (Michael W. Deem and Ramdas Pophale) SiO2 
 PCOD9320452
Probable space group: C 2 2 21
;
_chemical_formula_sum "Si O2"
_cell_formula_units_Z 40
_cell_length_a 6.705847
_cell_length_b 7.931033
_cell_length_c 25.684222
_cell_angle_alpha 90.000000
_cell_angle_beta 90.000000
_cell_angle_gamma 90.000000
_cell_volume 1365.997210
_symmetry_space_group_name_H-M "C 2 2 21"
_symmetry_group_IT_number 20
_symmetry_cell_setting 'orthorhombic'
loop_
_space_group_symop_operation_xyz
x,y,z
-x,-y,1/2+z
x,-y,-z
-x,y,1/2-z
1/2+x,1/2+y,z
1/2-x,1/2-y,1/2+z
1/2+x,1/2-y,-z
1/2-x,1/2+y,1/2-z
loop_
_atom_site_type_symbol
_atom_site_label
_atom_site_fract_x
_atom_site_fract_y
_atom_site_fract_z
Si Si1 0.922015 0.562088 0.179249
Si Si2 0.585499 0.751400 0.368815
Si Si3 0.639024 0.550401 0.701676
Si Si4 0.154375 0.847355 0.527184
Si Si5 0.759697 0.662685 0.072335
O O1 0.833417 0.370152 0.177441
O O2 0.136738 0.521697 0.204015
O O3 0.897689 0.581777 0.115894
O O4 0.857430 0.746428 0.198056
O O5 0.554671 0.563929 0.345578
O O6 0.724285 0.740306 0.419737
O O7 0.366955 0.799569 0.392763
O O8 0.500000 0.503557 0.750000
O O9 0.941489 0.919527 0.547988
O O10 0.127650 0.721999 0.479047
O O11 0.268532 0.000000 0.500000
#
# Coordination Sequence:
#
# PCOD9320452 Si02
#       5
#     8   8   8   8   8
#     4  12  27  51  75 113 157 209 270 345 421 499
#     4  10  27  46  74 116 156 216 266 349 411 504
#     4  12  30  50  82 110 154 210 277 359 429 507
#     4  10  23  40  70 110 159 215 266 328 406 502
#     4  10  25  40  73 114 160 218 263 338 397 512
#
# _framework density 29.282637000000001
#
# number of rings (size 3 to 8) (size 9 to 14) (size 15 to 20)
#    1.200    0.000    2.000    1.200   11.200    0.800 
#    0.000    0.000    0.000    0.000    0.000    0.000 
#    0.000    0.000    0.000    0.000    0.000    0.000 
#
# Total GULP energy -111474.070040 kJ/mol
# GULP energy per Si atom -5573.703502 kJ/mol
# Density = 2.921599 g / cm^3
# Si number density = 29.282637 Si / 1000 Ang^3
#
#
#
# Elastic Constant Matrix: (Units=GPa)
#
#
# Indices 1 2 3 4 5 6 
#
# 1 107.2953 55.8434 38.9621 0.0000 0.0000 0.0000
# 2 55.8434 174.3228 54.7166 0.0000 0.0000 0.0000
# 3 38.9621 54.7166 143.5120 0.0000 0.0000 0.0000
# 4 0.0000 0.0000 0.0000 66.9893 0.0000 0.0000
# 5 0.0000 0.0000 0.0000 0.0000 46.1145 0.0000
# 6 0.0000 0.0000 0.0000 0.0000 0.0000 55.0062
#
#
#
# Elastic Compliance Matrix: (Units=1/GPa)
#
#
# Indices 1 2 3 4 5 6 
#
# 1 0.011659 -0.003114 -0.001978 0.000000 0.000000 0.000000
# 2 -0.003114 0.007348 -0.001956 0.000000 0.000000 0.000000
# 3 -0.001978 -0.001956 0.008251 0.000000 0.000000 0.000000
# 4 0.000000 0.000000 0.000000 0.014928 0.000000 0.000000
# 5 0.000000 0.000000 0.000000 0.000000 0.021685 0.000000
# 6 0.000000 0.000000 0.000000 0.000000 0.000000 0.018180
#
#
# Mechanical properties :
#
#
# Convention : Reuss Voigt Hill
#
# Bulk Modulus (GPa) = 75.97881 80.46381 78.22131
# Shear Modulus (GPa) = 49.73420 51.99587 50.86504
#
# Velocity S-wave (km/s) = 4.12566 4.21842 4.17230
# Velocity P-wave (km/s) = 6.97838 7.15994 7.06974
#
# Compressibility (1/GPa) = 0.01316156
#
# Stress axis : x y z
#
# Youngs Moduli (GPa) = 85.76979 136.09045 121.19905
#
# Poissons Ratio (x) = 0.42380 0.23974
# Poissons Ratio (y) = 0.26709 0.23708
# Poissons Ratio (z) = 0.16966 0.26621
#
# Static dielectric constant tensor:
#      x y z
#    x 2.424060 0.000000 0.000000 
#    y 0.000000 2.527110 0.000000 
#    z 0.000000 0.000000 2.525550 
# 
# From -- ./inp_files/30044.got.cif
#   From: 2010.05.17/outbox.cif.g08.bks.cpg/sg20_16_cif.got.tgz:30044.got - 2010.06.03 22:52:26.
