data_PCOD9320584
_publ_section_title
;
Structure prediction by ZEFSAII (Michael W. Deem and Ramdas Pophale) SiO2 
 PCOD9320584
Probable space group: C 2 2 21
;
_chemical_formula_sum "Si O2"
_cell_formula_units_Z 56
_cell_length_a 12.085313
_cell_length_b 8.385895
_cell_length_c 21.785776
_cell_angle_alpha 90.000000
_cell_angle_beta 90.000000
_cell_angle_gamma 90.000000
_cell_volume 2207.904868
_symmetry_space_group_name_H-M "C 2 2 21"
_symmetry_group_IT_number 20
_symmetry_cell_setting 'orthorhombic'
loop_
_space_group_symop_operation_xyz
x,y,z
-x,-y,1/2+z
x,-y,-z
-x,y,1/2-z
1/2+x,1/2+y,z
1/2-x,1/2-y,1/2+z
1/2+x,1/2-y,-z
1/2-x,1/2+y,1/2-z
loop_
_atom_site_type_symbol
_atom_site_label
_atom_site_fract_x
_atom_site_fract_y
_atom_site_fract_z
Si Si1 0.931206 0.529437 0.186335
Si Si2 0.270447 0.659256 0.816878
Si Si3 0.072700 0.721129 0.095212
Si Si4 0.028686 0.240080 0.147273
Si Si5 0.402430 0.419226 0.291814
Si Si6 0.849901 0.115238 0.942186
Si Si7 0.348378 0.317618 0.523170
O O1 0.012037 0.580176 0.129784
O O2 0.921909 0.342564 0.167108
O O3 0.000000 0.528775 0.250000
O O4 0.835269 0.666966 0.184382
O O5 0.141344 0.683205 0.825063
O O6 0.301654 0.568545 0.754762
O O7 0.310693 0.555984 0.875307
O O8 0.131786 0.815940 0.149701
O O9 0.974533 0.830454 0.068142
O O10 0.141627 0.696969 0.034450
O O11 0.058245 0.214228 0.075134
O O12 0.036153 0.070808 0.180508
O O13 0.500000 0.344223 0.250000
O O14 0.770570 0.269457 0.949761
O O15 0.844091 0.000000 0.000000
O O16 0.347641 0.500000 0.500000
#
# Coordination Sequence:
#
# PCOD9320584 Si02
#       7
#     8   8   8   8   8   8   8
#     4  11  22  45  69 101 140 180 232 292 349 426
#     4  10  23  45  70 100 145 181 230 291 357 421
#     4  11  22  43  73  90 140 189 218 292 363 410
#     4  11  27  41  71 104 136 181 241 288 349 429
#     4  12  21  44  68  98 135 183 223 283 360 422
#     4  10  23  43  66  98 133 179 234 284 343 427
#     4  11  24  46  65  98 139 179 239 293 352 429
#
# _framework density 25.363412
#
# number of rings (size 3 to 8) (size 9 to 14) (size 15 to 20)
#    0.000    1.143    5.714    0.857    6.000    0.000 
#    7.714    0.000    0.000    0.000    0.000    0.000 
#    0.000    0.000    0.000    0.000    0.000    0.000 
#
# Total GULP energy -156422.179283 kJ/mol
# GULP energy per Si atom -5586.506403 kJ/mol
# Density = 2.530568 g / cm^3
# Si number density = 25.363412 Si / 1000 Ang^3
#
#
#
# Elastic Constant Matrix: (Units=GPa)
#
#
# Indices 1 2 3 4 5 6 
#
# 1 64.4831 7.8667 24.8681 0.0000 0.0000 0.0000
# 2 7.8667 95.9870 36.9120 0.0000 0.0000 0.0000
# 3 24.8681 36.9120 182.0950 0.0000 0.0000 0.0000
# 4 0.0000 0.0000 0.0000 10.3778 0.0000 0.0000
# 5 0.0000 0.0000 0.0000 0.0000 40.2354 0.0000
# 6 0.0000 0.0000 0.0000 0.0000 0.0000 31.3615
#
#
#
# Elastic Compliance Matrix: (Units=1/GPa)
#
#
# Indices 1 2 3 4 5 6 
#
# 1 0.016394 -0.000523 -0.002133 0.000000 0.000000 0.000000
# 2 -0.000523 0.011316 -0.002222 0.000000 0.000000 0.000000
# 3 -0.002133 -0.002222 0.006233 0.000000 0.000000 0.000000
# 4 0.000000 0.000000 0.000000 0.096360 0.000000 0.000000
# 5 0.000000 0.000000 0.000000 0.000000 0.024854 0.000000
# 6 0.000000 0.000000 0.000000 0.000000 0.000000 0.031886
#
#
# Mechanical properties :
#
#
# Convention : Reuss Voigt Hill
#
# Bulk Modulus (GPa) = 41.34586 53.53987 47.44286
# Shear Modulus (GPa) = 24.40664 34.58948 29.49806
#
# Velocity S-wave (km/s) = 3.10543 3.69691 3.41400
# Velocity P-wave (km/s) = 5.40324 6.27517 5.85546
#
# Compressibility (1/GPa) = 0.02418622
#
# Stress axis : x y z
#
# Youngs Moduli (GPa) = 60.99675 88.37391 160.42658
#
# Poissons Ratio (x) = 0.04626 0.34216
# Poissons Ratio (y) = 0.03193 0.35651
# Poissons Ratio (z) = 0.13009 0.19639
#
# Static dielectric constant tensor:
#      x y z
#    x 2.077600 0.000000 0.000000 
#    y 0.000000 2.158900 0.000000 
#    z 0.000000 0.000000 2.037500 
# 
# From -- ./inp_files/27553.got.cif
#   From: 2010.05.17/outbox.cif.g08.bks.cpg/sg20_14_cif.got.tgz:27553.got - 2010.06.03 22:52:26.
