data_PCOD9320552
_publ_section_title
;
Structure prediction by ZEFSAII (Michael W. Deem and Ramdas Pophale) SiO2 
 PCOD9320552
Probable space group: C 2 2 21
;
_chemical_formula_sum "Si O2"
_cell_formula_units_Z 48
_cell_length_a 9.128683
_cell_length_b 31.007560
_cell_length_c 8.328957
_cell_angle_alpha 90.000000
_cell_angle_beta 90.000000
_cell_angle_gamma 90.000000
_cell_volume 2357.579458
_symmetry_space_group_name_H-M "C 2 2 21"
_symmetry_group_IT_number 20
_symmetry_cell_setting 'orthorhombic'
loop_
_space_group_symop_operation_xyz
x,y,z
-x,-y,1/2+z
x,-y,-z
-x,y,1/2-z
1/2+x,1/2+y,z
1/2-x,1/2-y,1/2+z
1/2+x,1/2-y,-z
1/2-x,1/2+y,1/2-z
loop_
_atom_site_type_symbol
_atom_site_label
_atom_site_fract_x
_atom_site_fract_y
_atom_site_fract_z
Si Si1 0.468612 0.878681 0.558823
Si Si2 0.106758 0.286956 0.097138
Si Si3 0.722666 0.451465 0.503474
Si Si4 0.296184 0.629983 0.503817
Si Si5 0.139299 0.784692 0.163787
Si Si6 0.500000 0.579411 0.750000
Si Si7 0.500000 0.410298 0.750000
O O1 0.500000 0.872268 0.750000
O O2 0.407394 0.835338 0.473275
O O3 0.352751 0.916675 0.523997
O O4 0.631668 0.888008 0.491609
O O5 0.257916 0.275194 0.185153
O O6 0.000000 0.281939 0.250000
O O7 0.090314 0.255122 0.946270
O O8 0.781071 0.500000 0.500000
O O9 0.623062 0.446564 0.345500
O O10 0.602410 0.440283 0.640031
O O11 0.286236 0.680210 0.548144
O O12 0.403376 0.607716 0.630064
O O13 0.382446 0.620189 0.340061
O O14 0.000000 0.805040 0.250000
#
# Coordination Sequence:
#
# PCOD9320552 Si02
#       7
#     8   8   8   8   8   4   4
#     4  12  26  47  70 100 141 186 226 283 354 408
#     4  12  27  45  66  97 141 183 225 287 343 404
#     4  11  24  45  71 103 135 176 230 283 344 413
#     4  11  23  44  67  99 136 178 227 273 338 410
#     4  12  26  42  67 100 132 181 236 279 337 403
#     4  10  23  44  70 100 136 178 220 284 339 412
#     4  10  23  42  72 100 138 178 220 280 345 400
#
# _framework density 20.359864999999999
#
# number of rings (size 3 to 8) (size 9 to 14) (size 15 to 20)
#    0.000    0.667    4.167    3.000    5.833    0.000 
#    3.000    0.833    0.000    0.000    0.000    0.000 
#    0.000    0.000    0.000    0.000    0.000    0.000 
#
# Total GULP energy -133912.813685 kJ/mol
# GULP energy per Si atom -5579.700570 kJ/mol
# Density = 2.031353 g / cm^3
# Si number density = 20.359865 Si / 1000 Ang^3
#
#
#
# Elastic Constant Matrix: (Units=GPa)
#
#
# Indices 1 2 3 4 5 6 
#
# 1 129.9978 55.5780 32.8446 0.0000 0.0000 0.0000
# 2 55.5780 101.5864 41.6615 0.0000 0.0000 0.0000
# 3 32.8446 41.6615 86.0592 0.0000 0.0000 0.0000
# 4 0.0000 0.0000 0.0000 -3.6272 0.0000 0.0000
# 5 0.0000 0.0000 0.0000 0.0000 34.8706 0.0000
# 6 0.0000 0.0000 0.0000 0.0000 0.0000 24.2642
#
#
#
# Elastic Compliance Matrix: (Units=1/GPa)
#
#
# Indices 1 2 3 4 5 6 
#
# 1 0.010191 -0.004966 -0.001485 0.000000 0.000000 0.000000
# 2 -0.004966 0.014703 -0.005222 0.000000 0.000000 0.000000
# 3 -0.001485 -0.005222 0.014715 0.000000 0.000000 0.000000
# 4 0.000000 0.000000 0.000000 -0.275697 0.000000 0.000000
# 5 0.000000 0.000000 0.000000 0.000000 0.028677 0.000000
# 6 0.000000 0.000000 0.000000 0.000000 0.000000 0.041213
#
#
# Mechanical properties :
#
#
# Convention : Reuss Voigt Hill
#
# Bulk Modulus (GPa) = 61.49699 64.20129 62.84914
# Shear Modulus (GPa) = -36.38188 23.60550 -6.38819
#
# Velocity S-wave (km/s) = -4.23181 3.40871 -1.77326
# Velocity P-wave (km/s) = 2.52843 6.86252 5.17142
#
# Compressibility (1/GPa) = 0.01626096
#
# Stress axis : x y z
#
# Youngs Moduli (GPa) = 98.12628 68.01518 67.95898
#
# Poissons Ratio (x) = 0.33779 0.10093
# Poissons Ratio (y) = 0.48734 0.35489
# Poissons Ratio (z) = 0.14573 0.35518
#
# Static dielectric constant tensor:
#      x y z
#    x 1.907690 0.000000 0.000000 
#    y 0.000000 1.697000 0.000000 
#    z 0.000000 0.000000 1.786930 
# 
# From -- ./inp_files/6560.got.cif
#   From: 2010.05.17/outbox.cif.g08.bks.cpg/sg20_4_cif.got.tgz:6560.got - 2010.06.03 22:52:26.
