data_PCOD9320447
_publ_section_title
;
Structure prediction by ZEFSAII (Michael W. Deem and Ramdas Pophale) SiO2 
 PCOD9320447
Probable space group: C 2 2 21
;
_chemical_formula_sum "Si O2"
_cell_formula_units_Z 32
_cell_length_a 6.131159
_cell_length_b 12.801821
_cell_length_c 14.671019
_cell_angle_alpha 90.000000
_cell_angle_beta 90.000000
_cell_angle_gamma 90.000000
_cell_volume 1151.528282
_symmetry_space_group_name_H-M "C 2 2 21"
_symmetry_group_IT_number 20
_symmetry_cell_setting 'orthorhombic'
loop_
_space_group_symop_operation_xyz
x,y,z
-x,-y,1/2+z
x,-y,-z
-x,y,1/2-z
1/2+x,1/2+y,z
1/2-x,1/2-y,1/2+z
1/2+x,1/2-y,-z
1/2-x,1/2+y,1/2-z
loop_
_atom_site_type_symbol
_atom_site_label
_atom_site_fract_x
_atom_site_fract_y
_atom_site_fract_z
Si Si1 0.437992 0.832416 0.093581
Si Si2 0.383179 0.967860 0.658299
Si Si3 0.154533 0.300279 0.610067
Si Si4 0.582811 0.513024 0.892741
O O1 0.642345 0.772166 0.140905
O O2 0.545700 0.947186 0.082261
O O3 0.392577 0.777613 0.996418
O O4 0.198465 0.875283 0.125587
O O5 0.500000 0.005781 0.750000
O O6 0.421203 0.842406 0.649010
O O7 0.129109 0.990947 0.664733
O O8 0.258490 0.415506 0.621197
O O9 0.525931 0.500000 0.000000
#
# Coordination Sequence:
#
# PCOD9320447 Si02
#       4
#     8   8   8   8
#     4  10  23  40  68 104 128 178 242 298 348 415
#     4  11  24  44  66  98 151 190 223 285 359 433
#     4  10  23  40  68 105 131 175 241 300 349 408
#     4   9  20  41  68  94 131 178 232 294 351 408
#
# _framework density 27.789154
#
# number of rings (size 3 to 8) (size 9 to 14) (size 15 to 20)
#    0.000    2.000    0.000    3.750   10.500    4.000 
#    4.500    0.000    0.000    0.000    0.000    0.000 
#    0.000    0.000    0.000    0.000    0.000    0.000 
#
# Total GULP energy -89079.148680 kJ/mol
# GULP energy per Si atom -5567.446793 kJ/mol
# Density = 2.772590 g / cm^3
# Si number density = 27.789154 Si / 1000 Ang^3
#
#
#
# Elastic Constant Matrix: (Units=GPa)
#
#
# Indices 1 2 3 4 5 6 
#
# 1 113.3410 45.2913 7.7651 0.0000 0.0000 0.0000
# 2 45.2913 177.7902 -0.4423 0.0000 0.0000 0.0000
# 3 7.7651 -0.4423 52.3093 0.0000 0.0000 0.0000
# 4 0.0000 0.0000 0.0000 18.5402 0.0000 0.0000
# 5 0.0000 0.0000 0.0000 0.0000 43.6110 0.0000
# 6 0.0000 0.0000 0.0000 0.0000 0.0000 82.5860
#
#
#
# Elastic Compliance Matrix: (Units=1/GPa)
#
#
# Indices 1 2 3 4 5 6 
#
# 1 0.009939 -0.002536 -0.001497 0.000000 0.000000 0.000000
# 2 -0.002536 0.006272 0.000429 0.000000 0.000000 0.000000
# 3 -0.001497 0.000429 0.019343 0.000000 0.000000 0.000000
# 4 0.000000 0.000000 0.000000 0.053937 0.000000 0.000000
# 5 0.000000 0.000000 0.000000 0.000000 0.022930 0.000000
# 6 0.000000 0.000000 0.000000 0.000000 0.000000 0.012109
#
#
# Mechanical properties :
#
#
# Convention : Reuss Voigt Hill
#
# Bulk Modulus (GPa) = 35.27671 49.85207 42.56439
# Shear Modulus (GPa) = 35.41490 48.33588 41.87539
#
# Velocity S-wave (km/s) = 3.57377 4.17511 3.88609
# Velocity P-wave (km/s) = 5.45445 6.42031 5.95699
#
# Compressibility (1/GPa) = 0.02834732
#
# Stress axis : x y z
#
# Youngs Moduli (GPa) = 100.61685 159.44899 51.69858
#
# Poissons Ratio (x) = 0.40429 0.07738
# Poissons Ratio (y) = 0.25512 -0.02220
# Poissons Ratio (z) = 0.15060 -0.06847
#
# Static dielectric constant tensor:
#      x y z
#    x 2.876340 0.000000 0.000000 
#    y 0.000000 2.219530 0.000000 
#    z 0.000000 0.000000 2.285550 
# 
# From -- ./inp_files/22498.got.cif
#   From: 2010.05.17/outbox.cif.g08.bks.cpg/sg20_12_cif.got.tgz:22498.got - 2010.06.03 22:52:26.
