data_PCOD9320830
_publ_section_title
;
Structure prediction by ZEFSAII (Michael W. Deem and Ramdas Pophale) SiO2 
 PCOD9320830
Probable space group: C 2 2 21
;
_chemical_formula_sum "Si O2"
_cell_formula_units_Z 36
_cell_length_a 11.590532
_cell_length_b 23.773058
_cell_length_c 5.613323
_cell_angle_alpha 90.000000
_cell_angle_beta 90.000000
_cell_angle_gamma 90.000000
_cell_volume 1546.708432
_symmetry_space_group_name_H-M "C 2 2 21"
_symmetry_group_IT_number 20
_symmetry_cell_setting 'orthorhombic'
loop_
_space_group_symop_operation_xyz
x,y,z
-x,-y,1/2+z
x,-y,-z
-x,y,1/2-z
1/2+x,1/2+y,z
1/2-x,1/2-y,1/2+z
1/2+x,1/2-y,-z
1/2-x,1/2+y,1/2-z
loop_
_atom_site_type_symbol
_atom_site_label
_atom_site_fract_x
_atom_site_fract_y
_atom_site_fract_z
Si Si1 0.128342 0.465874 0.252422
Si Si2 0.193803 0.888491 0.439699
Si Si3 0.669289 0.700723 0.933158
Si Si4 0.631528 0.823131 0.761845
Si Si5 0.000000 0.125208 0.250000
O O1 0.131049 0.500000 0.500000
O O2 0.241036 0.426609 0.250327
O O3 0.000000 0.438013 0.250000
O O4 0.135969 0.500000 0.000000
O O5 0.155574 0.830201 0.317857
O O6 0.294387 0.872626 0.623324
O O7 0.080832 0.910332 0.573238
O O8 0.637822 0.765798 0.916109
O O9 0.801008 0.693490 0.021042
O O10 0.587539 0.666148 0.110375
O O11 0.500000 0.840229 0.750000
#
# Coordination Sequence:
#
# PCOD9320830 Si02
#       5
#     8   8   8   8   4
#     4  10  25  47  75 105 140 178 231 303 371 418
#     4  11  24  42  70  97 135 184 228 284 345 427
#     4  11  23  41  60  96 139 184 223 281 338 408
#     4  11  24  36  62  99 139 181 234 276 336 416
#     4  10  24  42  68  92 140 184 226 274 358 404
#
# _framework density 23.275236
#
# number of rings (size 3 to 8) (size 9 to 14) (size 15 to 20)
#    0.000    1.333    2.222    2.000   12.444    0.889 
#    0.000    0.000    4.889    0.000    0.000    0.000 
#    0.000    0.000    0.000    0.000    0.000    0.000 
#
# Total GULP energy -100598.394288 kJ/mol
# GULP energy per Si atom -5588.799683 kJ/mol
# Density = 2.322226 g / cm^3
# Si number density = 23.275236 Si / 1000 Ang^3
#
#
#
# Elastic Constant Matrix: (Units=GPa)
#
#
# Indices 1 2 3 4 5 6 
#
# 1 168.0841 19.7609 39.9690 0.0000 0.0000 0.0000
# 2 19.7609 33.8324 7.5928 0.0000 0.0000 0.0000
# 3 39.9690 7.5928 82.1931 0.0000 0.0000 0.0000
# 4 0.0000 0.0000 0.0000 27.3681 0.0000 0.0000
# 5 0.0000 0.0000 0.0000 0.0000 40.1047 0.0000
# 6 0.0000 0.0000 0.0000 0.0000 0.0000 15.1992
#
#
#
# Elastic Compliance Matrix: (Units=1/GPa)
#
#
# Indices 1 2 3 4 5 6 
#
# 1 0.007100 -0.003443 -0.003134 0.000000 0.000000 0.000000
# 2 -0.003443 0.031853 -0.001268 0.000000 0.000000 0.000000
# 3 -0.003134 -0.001268 0.013808 0.000000 0.000000 0.000000
# 4 0.000000 0.000000 0.000000 0.036539 0.000000 0.000000
# 5 0.000000 0.000000 0.000000 0.000000 0.024935 0.000000
# 6 0.000000 0.000000 0.000000 0.000000 0.000000 0.065793
#
#
# Mechanical properties :
#
#
# Convention : Reuss Voigt Hill
#
# Bulk Modulus (GPa) = 26.97660 46.52832 36.75246
# Shear Modulus (GPa) = 24.02984 30.98687 27.50835
#
# Velocity S-wave (km/s) = 3.21662 3.65269 3.44157
# Velocity P-wave (km/s) = 5.04092 6.15007 5.62291
#
# Compressibility (1/GPa) = 0.03706917
#
# Stress axis : x y z
#
# Youngs Moduli (GPa) = 140.85453 31.39396 72.42301
#
# Poissons Ratio (x) = 0.10810 0.22699
# Poissons Ratio (y) = 0.48501 0.09184
# Poissons Ratio (z) = 0.44148 0.03981
#
# Static dielectric constant tensor:
#      x y z
#    x 1.867100 0.000000 0.000000 
#    y 0.000000 1.877140 0.000000 
#    z 0.000000 0.000000 1.937400 
# 
# From -- ./inp_files/1191.got.cif
#   From: 2010.05.17/outbox.cif.g08.bks.cpg/sg20_1_cif.got.tgz:1191.got - 2010.06.03 22:52:26.
