data_PCOD9320237
_publ_section_title
;
Structure prediction by ZEFSAII (Michael W. Deem and Ramdas Pophale) SiO2 
 PCOD9320237
Probable space group: C 2 2 21
;
_chemical_formula_sum "Si O2"
_cell_formula_units_Z 48
_cell_length_a 6.653600
_cell_length_b 13.211659
_cell_length_c 25.905290
_cell_angle_alpha 90.000000
_cell_angle_beta 90.000000
_cell_angle_gamma 90.000000
_cell_volume 2277.206961
_symmetry_space_group_name_H-M "C 2 2 21"
_symmetry_group_IT_number 20
_symmetry_cell_setting 'orthorhombic'
loop_
_space_group_symop_operation_xyz
x,y,z
-x,-y,1/2+z
x,-y,-z
-x,y,1/2-z
1/2+x,1/2+y,z
1/2-x,1/2-y,1/2+z
1/2+x,1/2-y,-z
1/2-x,1/2+y,1/2-z
loop_
_atom_site_type_symbol
_atom_site_label
_atom_site_fract_x
_atom_site_fract_y
_atom_site_fract_z
Si Si1 0.841573 0.339317 0.298334
Si Si2 0.000000 0.715512 0.250000
Si Si3 0.175548 0.060531 0.292914
Si Si4 0.211427 0.146303 0.948621
Si Si5 0.933511 0.209645 0.119390
Si Si6 0.148918 0.844985 0.511701
Si Si7 0.497504 0.000000 0.500000
O O1 0.629950 0.286628 0.286545
O O2 0.793022 0.457176 0.303113
O O3 0.925020 0.286105 0.349517
O O4 0.000000 0.324226 0.250000
O O5 0.835743 0.642804 0.274410
O O6 0.000000 0.046822 0.250000
O O7 0.091331 0.113995 0.343661
O O8 0.249408 0.213884 0.897454
O O9 0.278561 0.229169 0.992053
O O10 0.984042 0.120414 0.963388
O O11 0.359411 0.051869 0.956979
O O12 0.981175 0.160110 0.064130
O O13 0.344198 0.913821 0.519458
#
# Coordination Sequence:
#
# PCOD9320237 Si02
#       7
#     8   4   8   8   8   8   4
#     4  12  24  44  69 102 136 181 230 279 348 399
#     4  12  22  44  66  92 140 178 210 296 332 400
#     4  12  24  44  69 102 136 181 230 279 348 399
#     4  10  22  44  66  97 135 178 224 284 334 399
#     4  10  23  44  69 104 138 175 237 278 332 416
#     4  10  22  44  66  97 135 178 224 284 334 399
#     4  12  22  44  72  92 132 188 222 280 352 388
#
# _framework density 21.078453
#
# number of rings (size 3 to 8) (size 9 to 14) (size 15 to 20)
#    1.000    0.000    6.667    0.500    2.333    0.000 
#    9.000    6.667    0.000    0.000    0.000    0.000 
#    0.000    0.000    0.000    0.000    0.000    0.000 
#
# Total GULP energy -133654.690071 kJ/mol
# GULP energy per Si atom -5568.945420 kJ/mol
# Density = 2.103048 g / cm^3
# Si number density = 21.078453 Si / 1000 Ang^3
#
#
#
# Elastic Constant Matrix: (Units=GPa)
#
#
# Indices 1 2 3 4 5 6 
#
# 1 51.8416 11.0674 -4.2486 0.0000 0.0000 0.0000
# 2 11.0674 87.9779 -6.2370 0.0000 0.0000 0.0000
# 3 -4.2486 -6.2370 21.9327 0.0000 0.0000 0.0000
# 4 0.0000 0.0000 0.0000 35.9755 0.0000 0.0000
# 5 0.0000 0.0000 0.0000 0.0000 26.2028 0.0000
# 6 0.0000 0.0000 0.0000 0.0000 0.0000 67.0582
#
#
#
# Elastic Compliance Matrix: (Units=1/GPa)
#
#
# Indices 1 2 3 4 5 6 
#
# 1 0.020044 -0.002292 0.003231 0.000000 0.000000 0.000000
# 2 -0.002292 0.011863 0.002929 0.000000 0.000000 0.000000
# 3 0.003231 0.002929 0.047053 0.000000 0.000000 0.000000
# 4 0.000000 0.000000 0.000000 0.027797 0.000000 0.000000
# 5 0.000000 0.000000 0.000000 0.000000 0.038164 0.000000
# 6 0.000000 0.000000 0.000000 0.000000 0.000000 0.014912
#
#
# Mechanical properties :
#
#
# Convention : Reuss Voigt Hill
#
# Bulk Modulus (GPa) = 11.53479 18.10177 14.81828
# Shear Modulus (GPa) = 27.62511 36.59199 32.10855
#
# Velocity S-wave (km/s) = 3.62413 4.17104 3.90717
# Velocity P-wave (km/s) = 4.79548 5.63944 5.23449
#
# Compressibility (1/GPa) = 0.08669428
#
# Stress axis : x y z
#
# Youngs Moduli (GPa) = 49.89102 84.29896 21.25274
#
# Poissons Ratio (x) = 0.19325 -0.06866
# Poissons Ratio (y) = 0.11437 -0.06226
# Poissons Ratio (z) = -0.16119 -0.24694
#
# Static dielectric constant tensor:
#      x y z
#    x 1.382790 0.000000 0.000000 
#    y 0.000000 1.756280 0.000000 
#    z 0.000000 0.000000 1.756460 
# 
# From -- ./inp_files/30709.got.cif
#   From: 2010.05.17/outbox.cif.g08.bks.cpg/sg20_16_cif.got.tgz:30709.got - 2010.06.03 22:52:26.
