data_PCOD9320597
_publ_section_title
;
Structure prediction by ZEFSAII (Michael W. Deem and Ramdas Pophale) SiO2 
 PCOD9320597
Probable space group: C 2 2 21
;
_chemical_formula_sum "Si O2"
_cell_formula_units_Z 48
_cell_length_a 13.738545
_cell_length_b 11.584767
_cell_length_c 13.623769
_cell_angle_alpha 90.000000
_cell_angle_beta 90.000000
_cell_angle_gamma 90.000000
_cell_volume 2168.329684
_symmetry_space_group_name_H-M "C 2 2 21"
_symmetry_group_IT_number 20
_symmetry_cell_setting 'orthorhombic'
loop_
_space_group_symop_operation_xyz
x,y,z
-x,-y,1/2+z
x,-y,-z
-x,y,1/2-z
1/2+x,1/2+y,z
1/2-x,1/2-y,1/2+z
1/2+x,1/2-y,-z
1/2-x,1/2+y,1/2-z
loop_
_atom_site_type_symbol
_atom_site_label
_atom_site_fract_x
_atom_site_fract_y
_atom_site_fract_z
Si Si1 0.540055 0.832336 0.140587
Si Si2 0.788837 0.497518 0.315482
Si Si3 0.346948 0.061219 0.900659
Si Si4 0.097767 0.130603 0.687681
Si Si5 0.528367 0.362551 0.010789
Si Si6 0.696410 0.251231 0.138331
O O1 0.500000 0.820436 0.250000
O O2 0.462172 0.919275 0.092230
O O3 0.645496 0.892715 0.143191
O O4 0.533279 0.709845 0.088021
O O5 0.818376 0.505426 0.199828
O O6 0.674169 0.472661 0.321550
O O7 0.808443 0.615144 0.372853
O O8 0.298440 0.187034 0.882666
O O9 0.311476 0.000000 0.000000
O O10 0.158410 0.222276 0.751514
O O11 0.000000 0.102243 0.750000
O O12 0.062206 0.170305 0.581200
O O13 0.622292 0.319729 0.069871
O O14 0.527792 0.500000 0.000000
#
# Coordination Sequence:
#
# PCOD9320597 Si02
#       6
#     8   8   8   8   8   8
#     4  10  25  44  67 102 139 183 235 299 353 415
#     4  10  23  46  69 103 143 179 231 301 359 421
#     4  10  23  43  69 102 136 186 236 288 354 432
#     4   9  22  45  68 102 134 181 225 285 359 425
#     4  11  25  43  67  99 137 189 239 291 354 431
#     4  10  23  44  68 102 135 181 229 292 362 421
#
# _framework density 22.136855000000001
#
# number of rings (size 3 to 8) (size 9 to 14) (size 15 to 20)
#    0.000    2.000    0.000    0.500    7.000    8.000 
#   27.000    0.000    0.000    0.000    0.000    0.000 
#    0.000    0.000    0.000    0.000    0.000    0.000 
#
# Total GULP energy -134067.851232 kJ/mol
# GULP energy per Si atom -5586.160468 kJ/mol
# Density = 2.208647 g / cm^3
# Si number density = 22.136855 Si / 1000 Ang^3
#
#
#
# Elastic Constant Matrix: (Units=GPa)
#
#
# Indices 1 2 3 4 5 6 
#
# 1 103.7261 30.3129 18.9807 0.0000 0.0000 0.0000
# 2 30.3129 85.9898 67.5655 0.0000 0.0000 0.0000
# 3 18.9807 67.5655 77.1153 0.0000 0.0000 0.0000
# 4 0.0000 0.0000 0.0000 21.7899 0.0000 0.0000
# 5 0.0000 0.0000 0.0000 0.0000 8.7745 0.0000
# 6 0.0000 0.0000 0.0000 0.0000 0.0000 -3.5822
#
#
#
# Elastic Compliance Matrix: (Units=1/GPa)
#
#
# Indices 1 2 3 4 5 6 
#
# 1 0.010862 -0.005547 0.002187 0.000000 0.000000 0.000000
# 2 -0.005547 0.040159 -0.033820 0.000000 0.000000 0.000000
# 3 0.002187 -0.033820 0.042061 0.000000 0.000000 0.000000
# 4 0.000000 0.000000 0.000000 0.045893 0.000000 0.000000
# 5 0.000000 0.000000 0.000000 0.000000 0.113967 0.000000
# 6 0.000000 0.000000 0.000000 0.000000 0.000000 -0.279157
#
#
# Mechanical properties :
#
#
# Convention : Reuss Voigt Hill
#
# Bulk Modulus (GPa) = 53.41714 55.61661 54.51687
# Shear Modulus (GPa) = 91.93648 15.39456 53.66552
#
# Velocity S-wave (km/s) = 6.45144 2.63996 4.92902
# Velocity P-wave (km/s) = 8.92623 5.87120 7.55475
#
# Compressibility (1/GPa) = 0.01872058
#
# Stress axis : x y z
#
# Youngs Moduli (GPa) = 92.06637 24.90131 23.77488
#
# Poissons Ratio (x) = 0.13813 -0.05199
# Poissons Ratio (y) = 0.51072 0.80407
# Poissons Ratio (z) = -0.20134 0.84216
#
# Static dielectric constant tensor:
#      x y z
#    x 1.826990 0.000000 0.000000 
#    y 0.000000 1.781340 0.000000 
#    z 0.000000 0.000000 1.864850 
# 
# From -- ./inp_files/20644.got.cif
#   From: 2010.05.17/outbox.cif.g08.bks.cpg/sg20_11_cif.got.tgz:20644.got - 2010.06.03 22:52:26.
