data_PCOD9320528
_publ_section_title
;
Structure prediction by ZEFSAII (Michael W. Deem and Ramdas Pophale) SiO2 
 PCOD9320528
Probable space group: C 2 2 21
;
_chemical_formula_sum "Si O2"
_cell_formula_units_Z 48
_cell_length_a 11.351782
_cell_length_b 14.800821
_cell_length_c 12.292662
_cell_angle_alpha 90.000000
_cell_angle_beta 90.000000
_cell_angle_gamma 90.000000
_cell_volume 2065.360130
_symmetry_space_group_name_H-M "C 2 2 21"
_symmetry_group_IT_number 20
_symmetry_cell_setting 'orthorhombic'
loop_
_space_group_symop_operation_xyz
x,y,z
-x,-y,1/2+z
x,-y,-z
-x,y,1/2-z
1/2+x,1/2+y,z
1/2-x,1/2-y,1/2+z
1/2+x,1/2-y,-z
1/2-x,1/2+y,1/2-z
loop_
_atom_site_type_symbol
_atom_site_label
_atom_site_fract_x
_atom_site_fract_y
_atom_site_fract_z
Si Si1 0.818190 0.167581 0.127202
Si Si2 0.796594 0.861483 0.413824
Si Si3 0.972821 0.772945 0.050841
Si Si4 0.117466 0.404775 0.016719
Si Si5 0.636207 0.964011 0.249509
Si Si6 0.285643 0.855604 0.845919
O O1 0.769857 0.267362 0.105318
O O2 0.816546 0.158304 0.256301
O O3 0.931487 0.167502 0.051846
O O4 0.722012 0.102582 0.070797
O O5 0.730388 0.928928 0.335678
O O6 0.771074 0.884490 0.539788
O O7 0.931288 0.835406 0.390396
O O8 0.867457 0.731697 0.124867
O O9 0.037588 0.682834 0.002487
O O10 0.173144 0.418737 0.134954
O O11 0.048938 0.500000 0.000000
O O12 0.500000 0.933183 0.250000
O O13 0.633907 0.069651 0.285146
#
# Coordination Sequence:
#
# PCOD9320528 Si02
#       6
#     8   8   8   8   8   8
#     4  10  23  42  67  98 136 179 232 286 341 424
#     4  10  25  42  67 101 142 178 236 286 354 422
#     4  10  24  45  70 101 140 187 233 294 355 420
#     4  11  22  43  65 102 133 176 228 286 352 414
#     4  12  24  41  71 103 137 180 233 297 352 423
#     4  11  23  44  69  99 138 183 238 291 353 420
#
# _framework density 23.240497999999999
#
# number of rings (size 3 to 8) (size 9 to 14) (size 15 to 20)
#    0.000    1.333    1.667    3.500    9.333    0.667 
#    3.000    1.667    3.667    0.000    0.000    0.000 
#    0.000    0.000    0.000    0.000    0.000    0.000 
#
# Total GULP energy -133825.673756 kJ/mol
# GULP energy per Si atom -5576.069740 kJ/mol
# Density = 2.318760 g / cm^3
# Si number density = 23.240498 Si / 1000 Ang^3
#
#
#
# Elastic Constant Matrix: (Units=GPa)
#
#
# Indices 1 2 3 4 5 6 
#
# 1 65.8400 13.6203 17.1923 0.0000 0.0000 0.0000
# 2 13.6203 51.6801 17.9938 0.0000 0.0000 0.0000
# 3 17.1923 17.9938 164.4768 0.0000 0.0000 0.0000
# 4 0.0000 0.0000 0.0000 23.5496 0.0000 0.0000
# 5 0.0000 0.0000 0.0000 0.0000 29.3838 0.0000
# 6 0.0000 0.0000 0.0000 0.0000 0.0000 25.3372
#
#
#
# Elastic Compliance Matrix: (Units=1/GPa)
#
#
# Indices 1 2 3 4 5 6 
#
# 1 0.016321 -0.003854 -0.001284 0.000000 0.000000 0.000000
# 2 -0.003854 0.021026 -0.001897 0.000000 0.000000 0.000000
# 3 -0.001284 -0.001897 0.006422 0.000000 0.000000 0.000000
# 4 0.000000 0.000000 0.000000 0.042464 0.000000 0.000000
# 5 0.000000 0.000000 0.000000 0.000000 0.034032 0.000000
# 6 0.000000 0.000000 0.000000 0.000000 0.000000 0.039468
#
#
# Mechanical properties :
#
#
# Convention : Reuss Voigt Hill
#
# Bulk Modulus (GPa) = 33.67345 42.17889 37.92617
# Shear Modulus (GPa) = 27.21777 31.20015 29.20896
#
# Velocity S-wave (km/s) = 3.42590 3.66798 3.54900
# Velocity P-wave (km/s) = 5.49269 6.01057 5.75746
#
# Compressibility (1/GPa) = 0.02969699
#
# Stress axis : x y z
#
# Youngs Moduli (GPa) = 61.27065 47.55965 155.72176
#
# Poissons Ratio (x) = 0.18331 0.20000
# Poissons Ratio (y) = 0.23615 0.29547
# Poissons Ratio (z) = 0.07869 0.09024
#
# Static dielectric constant tensor:
#      x y z
#    x 1.994100 0.000000 0.000000 
#    y 0.000000 1.939940 0.000000 
#    z 0.000000 0.000000 1.978650 
# 
# From -- ./inp_files/14154.got.cif
#   From: 2010.05.17/outbox.cif.g08.bks.cpg/sg20_8_cif.got.tgz:14154.got - 2010.06.03 22:52:26.
