data_PCOD9320727
_publ_section_title
;
Structure prediction by ZEFSAII (Michael W. Deem and Ramdas Pophale) SiO2 
 PCOD9320727
Probable space group: C 2 2 21
;
_chemical_formula_sum "Si O2"
_cell_formula_units_Z 40
_cell_length_a 24.419031
_cell_length_b 13.350099
_cell_length_c 5.192403
_cell_angle_alpha 90.000000
_cell_angle_beta 90.000000
_cell_angle_gamma 90.000000
_cell_volume 1692.705108
_symmetry_space_group_name_H-M "C 2 2 21"
_symmetry_group_IT_number 20
_symmetry_cell_setting 'orthorhombic'
loop_
_space_group_symop_operation_xyz
x,y,z
-x,-y,1/2+z
x,-y,-z
-x,y,1/2-z
1/2+x,1/2+y,z
1/2-x,1/2-y,1/2+z
1/2+x,1/2-y,-z
1/2-x,1/2+y,1/2-z
loop_
_atom_site_type_symbol
_atom_site_label
_atom_site_fract_x
_atom_site_fract_y
_atom_site_fract_z
Si Si1 0.308060 0.569935 0.750813
Si Si2 0.500000 0.566878 0.750000
Si Si3 0.185906 0.429945 0.244866
Si Si4 0.085355 0.618903 0.481764
Si Si5 0.000000 0.742182 0.750000
Si Si6 0.090640 0.207393 0.865054
O O1 0.306251 0.500000 0.500000
O O2 0.246718 0.612687 0.799458
O O3 0.351598 0.653892 0.671701
O O4 0.322135 0.500000 0.000000
O O5 0.487890 0.500000 0.500000
O O6 0.550959 0.638984 0.683735
O O7 0.190352 0.500000 0.500000
O O8 0.136093 0.357725 0.323891
O O9 0.172970 0.500000 0.000000
O O10 0.079503 0.500000 0.500000
O O11 0.027858 0.667354 0.550008
O O12 0.098393 0.677969 0.221059
O O13 0.948051 0.796076 0.617776
#
# Coordination Sequence:
#
# PCOD9320727 Si02
#       6
#     8   4   8   8   4   8
#     4  10  23  46  78 109 149 195 242 309 386 459
#     4  12  25  43  70  98 140 186 233 301 370 440
#     4   9  21  45  72 107 144 188 245 303 373 452
#     4  11  27  45  71 100 144 197 242 313 372 444
#     4  12  27  43  70  98 150 182 259 305 368 458
#     4  12  26  46  67 110 142 191 251 308 377 464
#
# _framework density 23.630814000000001
#
# number of rings (size 3 to 8) (size 9 to 14) (size 15 to 20)
#    0.000    1.200    2.000    1.800   11.200    0.000 
#    3.600    0.000    0.000    0.000    0.000    0.000 
#    0.000    0.000    0.000    0.000    0.000    0.000 
#
# Total GULP energy -111537.705739 kJ/mol
# GULP energy per Si atom -5576.885287 kJ/mol
# Density = 2.357703 g / cm^3
# Si number density = 23.630814 Si / 1000 Ang^3
#
#
#
# Elastic Constant Matrix: (Units=GPa)
#
#
# Indices 1 2 3 4 5 6 
#
# 1 124.0709 34.9511 29.3453 0.0000 0.0000 0.0000
# 2 34.9511 110.6180 40.0960 0.0000 0.0000 0.0000
# 3 29.3453 40.0960 152.6365 0.0000 0.0000 0.0000
# 4 0.0000 0.0000 0.0000 30.1698 0.0000 0.0000
# 5 0.0000 0.0000 0.0000 0.0000 37.5699 0.0000
# 6 0.0000 0.0000 0.0000 0.0000 0.0000 5.8749
#
#
#
# Elastic Compliance Matrix: (Units=1/GPa)
#
#
# Indices 1 2 3 4 5 6 
#
# 1 0.009008 -0.002452 -0.001088 0.000000 0.000000 0.000000
# 2 -0.002452 0.010659 -0.002329 0.000000 0.000000 0.000000
# 3 -0.001088 -0.002329 0.007372 0.000000 0.000000 0.000000
# 4 0.000000 0.000000 0.000000 0.033146 0.000000 0.000000
# 5 0.000000 0.000000 0.000000 0.000000 0.026617 0.000000
# 6 0.000000 0.000000 0.000000 0.000000 0.000000 0.170215
#
#
# Mechanical properties :
#
#
# Convention : Reuss Voigt Hill
#
# Bulk Modulus (GPa) = 65.34800 66.23446 65.79123
# Shear Modulus (GPa) = 18.25791 33.58514 25.92152
#
# Velocity S-wave (km/s) = 2.78264 3.77403 3.31560
# Velocity P-wave (km/s) = 6.16749 6.86154 6.52375
#
# Compressibility (1/GPa) = 0.01530269
#
# Stress axis : x y z
#
# Youngs Moduli (GPa) = 111.01388 93.81859 135.64229
#
# Poissons Ratio (x) = 0.23003 0.14754
# Poissons Ratio (y) = 0.27219 0.31585
# Poissons Ratio (z) = 0.12075 0.21846
#
# Static dielectric constant tensor:
#      x y z
#    x 1.953100 0.000000 0.000000 
#    y 0.000000 1.921870 0.000000 
#    z 0.000000 0.000000 1.984700 
# 
# From -- ./inp_files/4094.got.cif
#   From: 2010.05.17/outbox.cif.g08.bks.cpg/sg20_3_cif.got.tgz:4094.got - 2010.06.03 22:52:26.
