data_PCOD9320799
_publ_section_title
;
Structure prediction by ZEFSAII (Michael W. Deem and Ramdas Pophale) SiO2 
 PCOD9320799
Probable space group: C 2 2 21
;
_chemical_formula_sum "Si O2"
_cell_formula_units_Z 56
_cell_length_a 11.106991
_cell_length_b 15.111474
_cell_length_c 13.466761
_cell_angle_alpha 90.000000
_cell_angle_beta 90.000000
_cell_angle_gamma 90.000000
_cell_volume 2260.301643
_symmetry_space_group_name_H-M "C 2 2 21"
_symmetry_group_IT_number 20
_symmetry_cell_setting 'orthorhombic'
loop_
_space_group_symop_operation_xyz
x,y,z
-x,-y,1/2+z
x,-y,-z
-x,y,1/2-z
1/2+x,1/2+y,z
1/2-x,1/2-y,1/2+z
1/2+x,1/2-y,-z
1/2-x,1/2+y,1/2-z
loop_
_atom_site_type_symbol
_atom_site_label
_atom_site_fract_x
_atom_site_fract_y
_atom_site_fract_z
Si Si1 0.608089 0.941290 0.914522
Si Si2 0.379215 0.121588 0.697213
Si Si3 0.050908 0.213848 0.643774
Si Si4 0.659968 0.124235 0.420667
Si Si5 0.335217 0.767859 0.506615
Si Si6 0.690431 0.477772 0.193837
Si Si7 0.924010 0.031966 0.890278
O O1 0.471703 0.913769 0.949023
O O2 0.598819 0.016286 0.830582
O O3 0.681625 0.849613 0.915433
O O4 0.666120 0.000000 0.000000
O O5 0.500000 0.153704 0.750000
O O6 0.362453 0.184929 0.600454
O O7 0.272343 0.107440 0.778440
O O8 0.121404 0.304269 0.661904
O O9 0.000000 0.189771 0.750000
O O10 0.954960 0.225797 0.555578
O O11 0.128351 0.131043 0.609778
O O12 0.736368 0.189605 0.493068
O O13 0.737539 0.045749 0.375055
O O14 0.647341 0.515782 0.301613
O O15 0.564096 0.460597 0.139999
O O16 0.920221 0.000000 0.000000
#
# Coordination Sequence:
#
# PCOD9320799 Si02
#       7
#     8   8   8   8   8   8   8
#     4   9  21  41  67  96 139 185 235 292 355 432
#     4  11  22  45  70 108 146 190 242 298 362 449
#     4  11  24  47  71 102 145 188 239 306 369 436
#     4  11  23  42  68 104 143 185 239 294 371 423
#     4  10  24  41  66 108 141 180 239 301 363 427
#     4  11  24  43  76 105 139 194 246 300 360 447
#     4  11  25  50  74 102 143 195 256 302 368 451
#
# _framework density 24.775452000000001
#
# number of rings (size 3 to 8) (size 9 to 14) (size 15 to 20)
#    0.000    1.429    2.857    1.714    4.000    4.571 
#   10.286    1.429    0.000    0.000    0.000    0.000 
#    0.000    0.000    0.000    0.000    0.000    0.000 
#
# Total GULP energy -156144.270304 kJ/mol
# GULP energy per Si atom -5576.581082 kJ/mol
# Density = 2.471906 g / cm^3
# Si number density = 24.775452 Si / 1000 Ang^3
#
#
#
# Elastic Constant Matrix: (Units=GPa)
#
#
# Indices 1 2 3 4 5 6 
#
# 1 156.8949 20.2440 55.3888 0.0000 0.0000 0.0000
# 2 20.2440 91.0796 32.6497 0.0000 0.0000 0.0000
# 3 55.3888 32.6497 115.6179 0.0000 0.0000 0.0000
# 4 0.0000 0.0000 0.0000 43.7974 0.0000 0.0000
# 5 0.0000 0.0000 0.0000 0.0000 21.0269 0.0000
# 6 0.0000 0.0000 0.0000 0.0000 0.0000 -148.1917
#
#
#
# Elastic Compliance Matrix: (Units=1/GPa)
#
#
# Indices 1 2 3 4 5 6 
#
# 1 0.007686 -0.000432 -0.003560 0.000000 0.000000 0.000000
# 2 -0.000432 0.012240 -0.003250 0.000000 0.000000 0.000000
# 3 -0.003560 -0.003250 0.011272 0.000000 0.000000 0.000000
# 4 0.000000 0.000000 0.000000 0.022832 0.000000 0.000000
# 5 0.000000 0.000000 0.000000 0.000000 0.047558 0.000000
# 6 0.000000 0.000000 0.000000 0.000000 0.000000 -0.006748
#
#
# Mechanical properties :
#
#
# Convention : Reuss Voigt Hill
#
# Bulk Modulus (GPa) = 59.82579 64.46192 62.14386
# Shear Modulus (GPa) = 43.51713 0.34718 21.93215
#
# Velocity S-wave (km/s) = 4.19556 0.37475 2.97852
# Velocity P-wave (km/s) = 6.90434 5.12467 6.07997
#
# Compressibility (1/GPa) = 0.01671520
#
# Stress axis : x y z
#
# Youngs Moduli (GPa) = 130.10113 81.69707 88.71204
#
# Poissons Ratio (x) = 0.03531 0.31584
# Poissons Ratio (y) = 0.05623 0.28827
# Poissons Ratio (z) = 0.46319 0.26548
#
# Static dielectric constant tensor:
#      x y z
#    x 2.083490 0.000000 0.000000 
#    y 0.000000 1.987940 0.000000 
#    z 0.000000 0.000000 2.022820 
# 
# From -- ./inp_files/20062.got.cif
#   From: 2010.05.17/outbox.cif.g08.bks.cpg/sg20_11_cif.got.tgz:20062.got - 2010.06.03 22:52:26.
