data_PCOD9320053
_publ_section_title
;
Structure prediction by ZEFSAII (Michael W. Deem and Ramdas Pophale) SiO2 
 PCOD9320053
Probable space group: C 2 2 21
;
_chemical_formula_sum "Si O2"
_cell_formula_units_Z 64
_cell_length_a 15.098398
_cell_length_b 18.215281
_cell_length_c 10.858613
_cell_angle_alpha 90.000000
_cell_angle_beta 90.000000
_cell_angle_gamma 90.000000
_cell_volume 2986.352711
_symmetry_space_group_name_H-M "C 2 2 21"
_symmetry_group_IT_number 20
_symmetry_cell_setting 'orthorhombic'
loop_
_space_group_symop_operation_xyz
x,y,z
-x,-y,1/2+z
x,-y,-z
-x,y,1/2-z
1/2+x,1/2+y,z
1/2-x,1/2-y,1/2+z
1/2+x,1/2-y,-z
1/2-x,1/2+y,1/2-z
loop_
_atom_site_type_symbol
_atom_site_label
_atom_site_fract_x
_atom_site_fract_y
_atom_site_fract_z
Si Si1 0.313975 0.450266 0.875519
Si Si2 0.879026 0.800859 0.452560
Si Si3 0.100238 0.921931 0.255580
Si Si4 0.184370 0.311092 0.528062
Si Si5 0.417435 0.998098 0.632677
Si Si6 0.076181 0.166439 0.490711
Si Si7 0.883613 0.447622 0.111900
Si Si8 0.856779 0.351670 0.693217
O O1 0.334873 0.509726 0.770761
O O2 0.231772 0.396127 0.848343
O O3 0.308956 0.500000 0.000000
O O4 0.397002 0.395786 0.894410
O O5 0.877213 0.868990 0.357340
O O6 0.790703 0.806241 0.533712
O O7 0.872477 0.723741 0.379187
O O8 0.974732 0.807351 0.516328
O O9 0.096063 0.870177 0.376124
O O10 0.000000 0.951182 0.250000
O O11 0.142077 0.234815 0.486247
O O12 0.152452 0.369499 0.426743
O O13 0.148591 0.334368 0.662135
O O14 0.509228 0.042059 0.615620
O O15 0.363232 0.030231 0.747500
O O16 0.430941 0.912332 0.661408
O O17 0.373094 0.000000 0.500000
O O18 0.852551 0.500000 0.000000
#
# Coordination Sequence:
#
# PCOD9320053 Si02
#       8
#     8   8   8   8   8   8   8   8
#     4  10  22  43  69  98 136 183 237 301 356 428
#     4  11  25  42  70 105 134 189 245 296 371 440
#     4   9  20  41  70  95 129 179 241 298 352 433
#     4  12  25  44  68 102 153 183 237 305 361 438
#     4  10  23  42  66 101 139 196 239 275 361 433
#     4  10  22  44  68 100 133 185 239 301 363 433
#     4  10  22  42  66 102 145 182 232 296 349 426
#     4  12  24  42  70 102 145 191 238 293 370 445
#
# _framework density 21.430826
#
# number of rings (size 3 to 8) (size 9 to 14) (size 15 to 20)
#    0.000    1.500    3.750    0.375    5.250    1.000 
#    2.250    3.125    2.750    0.000    0.000    0.000 
#    0.000    0.000    0.000    0.000    0.000    0.000 
#
# Total GULP energy -178644.269746 kJ/mol
# GULP energy per Si atom -5582.633430 kJ/mol
# Density = 2.138205 g / cm^3
# Si number density = 21.430826 Si / 1000 Ang^3
#
#
#
# Elastic Constant Matrix: (Units=GPa)
#
#
# Indices 1 2 3 4 5 6 
#
# 1 132.3274 59.0241 3.8175 0.0000 0.0000 0.0000
# 2 59.0241 115.4626 30.2727 0.0000 0.0000 0.0000
# 3 3.8175 30.2727 76.6091 0.0000 0.0000 0.0000
# 4 0.0000 0.0000 0.0000 -97.3844 0.0000 0.0000
# 5 0.0000 0.0000 0.0000 0.0000 14.6420 0.0000
# 6 0.0000 0.0000 0.0000 0.0000 0.0000 24.7301
#
#
#
# Elastic Compliance Matrix: (Units=1/GPa)
#
#
# Indices 1 2 3 4 5 6 
#
# 1 0.009982 -0.005547 0.001695 0.000000 0.000000 0.000000
# 2 -0.005547 0.012745 -0.004760 0.000000 0.000000 0.000000
# 3 0.001695 -0.004760 0.014850 0.000000 0.000000 0.000000
# 4 0.000000 0.000000 0.000000 -0.010269 0.000000 0.000000
# 5 0.000000 0.000000 0.000000 0.000000 0.068297 0.000000
# 6 0.000000 0.000000 0.000000 0.000000 0.000000 0.040437
#
#
# Mechanical properties :
#
#
# Convention : Reuss Voigt Hill
#
# Bulk Modulus (GPa) = 49.13541 56.73642 52.93591
# Shear Modulus (GPa) = 31.24023 3.81652 17.52837
#
# Velocity S-wave (km/s) = 3.82216 1.33593 2.86301
# Velocity P-wave (km/s) = 6.51581 5.37692 5.97357
#
# Compressibility (1/GPa) = 0.02035192
#
# Stress axis : x y z
#
# Youngs Moduli (GPa) = 100.17545 78.46515 67.34164
#
# Poissons Ratio (x) = 0.43527 -0.11412
# Poissons Ratio (y) = 0.55571 0.32052
# Poissons Ratio (z) = -0.16976 0.37347
#
# Static dielectric constant tensor:
#      x y z
#    x 1.869660 0.000000 0.000000 
#    y 0.000000 1.747380 0.000000 
#    z 0.000000 0.000000 1.780470 
# 
# From -- ./inp_files/15326.got.cif
#   From: 2010.05.17/outbox.cif.g08.bks.cpg/sg20_8_cif.got.tgz:15326.got - 2010.06.03 22:52:26.
