data_PCOD9320560
_publ_section_title
;
Structure prediction by ZEFSAII (Michael W. Deem and Ramdas Pophale) SiO2 
 PCOD9320560
Probable space group: C 2 2 21
;
_chemical_formula_sum "Si O2"
_cell_formula_units_Z 56
_cell_length_a 7.388112
_cell_length_b 20.269294
_cell_length_c 14.472548
_cell_angle_alpha 90.000000
_cell_angle_beta 90.000000
_cell_angle_gamma 90.000000
_cell_volume 2167.290320
_symmetry_space_group_name_H-M "C 2 2 21"
_symmetry_group_IT_number 20
_symmetry_cell_setting 'orthorhombic'
loop_
_space_group_symop_operation_xyz
x,y,z
-x,-y,1/2+z
x,-y,-z
-x,y,1/2-z
1/2+x,1/2+y,z
1/2-x,1/2-y,1/2+z
1/2+x,1/2-y,-z
1/2-x,1/2+y,1/2-z
loop_
_atom_site_type_symbol
_atom_site_label
_atom_site_fract_x
_atom_site_fract_y
_atom_site_fract_z
Si Si1 0.722170 0.724144 0.648625
Si Si2 0.180976 0.863661 0.623831
Si Si3 0.211265 0.220714 0.863213
Si Si4 0.727905 0.084023 0.935489
Si Si5 0.102165 0.916383 0.154229
Si Si6 0.775963 0.131894 0.339514
Si Si7 0.395462 0.007141 0.104753
O O1 0.773390 0.720243 0.756503
O O2 0.505776 0.728949 0.637133
O O3 0.797626 0.658237 0.603384
O O4 0.780660 0.795698 0.615525
O O5 0.197239 0.785629 0.593521
O O6 0.251370 0.862921 0.728971
O O7 0.621150 0.916240 0.626779
O O8 0.977775 0.891182 0.636080
O O9 0.217743 0.143751 0.891489
O O10 0.932369 0.064610 0.908537
O O11 0.579994 0.034463 0.895062
O O12 0.725498 0.093089 0.045446
O O13 0.000000 0.896322 0.250000
O O14 0.247288 0.972937 0.171015
O O15 0.325717 0.000000 0.000000
#
# Coordination Sequence:
#
# PCOD9320560 Si02
#       7
#     8   8   8   8   8   8   8
#     4   9  19  41  72 104 151 189 260 323 384 461
#     4  10  23  42  78 111 151 202 260 328 401 466
#     4   9  18  42  71 108 143 196 253 319 392 471
#     4  11  25  48  74 114 151 202 259 333 391 467
#     4  11  24  51  76 104 156 204 255 327 398 468
#     4  10  24  48  72 110 151 211 257 323 398 489
#     4  12  30  49  71 110 155 202 266 322 402 485
#
# _framework density 25.838716000000002
#
# number of rings (size 3 to 8) (size 9 to 14) (size 15 to 20)
#    0.000    1.714    2.857    0.857    6.000    5.714 
#    2.571    0.000    0.000    0.000    0.000    0.000 
#    0.000    0.000    0.000    0.000    0.000    0.000 
#
# Total GULP energy -156573.648935 kJ/mol
# GULP energy per Si atom -5591.916033 kJ/mol
# Density = 2.577991 g / cm^3
# Si number density = 25.838716 Si / 1000 Ang^3
#
#
#
# Elastic Constant Matrix: (Units=GPa)
#
#
# Indices 1 2 3 4 5 6 
#
# 1 126.8642 84.6461 37.7589 0.0000 0.0000 0.0000
# 2 84.6461 144.0914 28.2122 0.0000 0.0000 0.0000
# 3 37.7589 28.2122 66.0978 0.0000 0.0000 0.0000
# 4 0.0000 0.0000 0.0000 24.4474 0.0000 0.0000
# 5 0.0000 0.0000 0.0000 0.0000 24.8434 0.0000
# 6 0.0000 0.0000 0.0000 0.0000 0.0000 50.7091
#
#
#
# Elastic Compliance Matrix: (Units=1/GPa)
#
#
# Indices 1 2 3 4 5 6 
#
# 1 0.014341 -0.007443 -0.005016 0.000000 0.000000 0.000000
# 2 -0.007443 0.011435 -0.000629 0.000000 0.000000 0.000000
# 3 -0.005016 -0.000629 0.018263 0.000000 0.000000 0.000000
# 4 0.000000 0.000000 0.000000 0.040904 0.000000 0.000000
# 5 0.000000 0.000000 0.000000 0.000000 0.040252 0.000000
# 6 0.000000 0.000000 0.000000 0.000000 0.000000 0.019720
#
#
# Mechanical properties :
#
#
# Convention : Reuss Voigt Hill
#
# Bulk Modulus (GPa) = 55.97790 70.92088 63.44939
# Shear Modulus (GPa) = 28.24118 32.42903 30.33510
#
# Velocity S-wave (km/s) = 3.30961 3.54652 3.43011
# Velocity P-wave (km/s) = 6.02628 6.65414 6.34798
#
# Compressibility (1/GPa) = 0.01786419
#
# Stress axis : x y z
#
# Youngs Moduli (GPa) = 69.72927 87.44778 54.75544
#
# Poissons Ratio (x) = 0.65084 0.27464
# Poissons Ratio (y) = 0.51897 0.03445
# Poissons Ratio (z) = 0.34975 0.05503
#
# Static dielectric constant tensor:
#      x y z
#    x 1.999060 0.000000 0.000000 
#    y 0.000000 2.143480 0.000000 
#    z 0.000000 0.000000 2.031250 
# 
# From -- ./inp_files/26821.got.cif
#   From: 2010.05.17/outbox.cif.g08.bks.cpg/sg20_14_cif.got.tgz:26821.got - 2010.06.03 22:52:26.
