data_PCOD9320282
_publ_section_title
;
Structure prediction by ZEFSAII (Michael W. Deem and Ramdas Pophale) SiO2 
 PCOD9320282
Probable space group: C 2 2 21
;
_chemical_formula_sum "Si O2"
_cell_formula_units_Z 32
_cell_length_a 12.997097
_cell_length_b 7.897184
_cell_length_c 10.905732
_cell_angle_alpha 90.000000
_cell_angle_beta 90.000000
_cell_angle_gamma 90.000000
_cell_volume 1119.369420
_symmetry_space_group_name_H-M "C 2 2 21"
_symmetry_group_IT_number 20
_symmetry_cell_setting 'orthorhombic'
loop_
_space_group_symop_operation_xyz
x,y,z
-x,-y,1/2+z
x,-y,-z
-x,y,1/2-z
1/2+x,1/2+y,z
1/2-x,1/2-y,1/2+z
1/2+x,1/2-y,-z
1/2-x,1/2+y,1/2-z
loop_
_atom_site_type_symbol
_atom_site_label
_atom_site_fract_x
_atom_site_fract_y
_atom_site_fract_z
Si Si1 0.506523 0.500000 0.000000
Si Si2 0.668034 0.015927 0.642015
Si Si3 0.000000 0.717658 0.250000
Si Si4 0.126591 0.692279 0.027468
Si Si5 0.828946 0.109627 0.155730
O O1 0.575902 0.656799 0.049278
O O2 0.420729 0.512073 0.889022
O O3 0.572109 0.893495 0.660657
O O4 0.756884 0.963133 0.737761
O O5 0.699414 0.000000 0.500000
O O6 0.631651 0.202196 0.682776
O O7 0.913664 0.775710 0.345028
O O8 0.247521 0.662227 0.046497
O O9 0.090606 0.500000 0.000000
#
# Coordination Sequence:
#
# PCOD9320282 Si02
#       5
#     4   8   4   8   8
#     4  12  26  50  82 120 158 224 276 340 416 496
#     4  11  26  48  78 111 164 215 267 349 417 485
#     4  10  22  44  72 104 156 202 262 340 398 466
#     4  11  25  48  75 116 160 205 274 339 401 490
#     4  11  27  48  78 118 163 213 282 336 421 496
#
# _framework density 28.587523999999998
#
# number of rings (size 3 to 8) (size 9 to 14) (size 15 to 20)
#    0.000    1.000    1.250    3.750   12.250    0.000 
#    4.500    1.250    0.000    0.000    0.000    0.000 
#    0.000    0.000    0.000    0.000    0.000    0.000 
#
# Total GULP energy -89314.378499 kJ/mol
# GULP energy per Si atom -5582.148656 kJ/mol
# Density = 2.852246 g / cm^3
# Si number density = 28.587524 Si / 1000 Ang^3
#
#
#
# Elastic Constant Matrix: (Units=GPa)
#
#
# Indices 1 2 3 4 5 6 
#
# 1 140.5526 44.9547 11.2124 0.0000 0.0000 0.0000
# 2 44.9547 170.4053 10.2268 0.0000 0.0000 0.0000
# 3 11.2124 10.2268 74.2144 0.0000 0.0000 0.0000
# 4 0.0000 0.0000 0.0000 30.2681 0.0000 0.0000
# 5 0.0000 0.0000 0.0000 0.0000 39.6861 0.0000
# 6 0.0000 0.0000 0.0000 0.0000 0.0000 44.4797
#
#
#
# Elastic Compliance Matrix: (Units=1/GPa)
#
#
# Indices 1 2 3 4 5 6 
#
# 1 0.007830 -0.002011 -0.000906 0.000000 0.000000 0.000000
# 2 -0.002011 0.006434 -0.000583 0.000000 0.000000 0.000000
# 3 -0.000906 -0.000583 0.013692 0.000000 0.000000 0.000000
# 4 0.000000 0.000000 0.000000 0.033038 0.000000 0.000000
# 5 0.000000 0.000000 0.000000 0.000000 0.025198 0.000000
# 6 0.000000 0.000000 0.000000 0.000000 0.000000 0.022482
#
#
# Mechanical properties :
#
#
# Convention : Reuss Voigt Hill
#
# Bulk Modulus (GPa) = 47.71889 57.55113 52.63501
# Shear Modulus (GPa) = 40.76337 44.13868 42.45103
#
# Velocity S-wave (km/s) = 3.78023 3.93362 3.85768
# Velocity P-wave (km/s) = 5.98180 6.38799 6.18823
#
# Compressibility (1/GPa) = 0.02095606
#
# Stress axis : x y z
#
# Youngs Moduli (GPa) = 127.70806 155.42540 73.03728
#
# Poissons Ratio (x) = 0.31262 0.06616
# Poissons Ratio (y) = 0.25687 0.04256
# Poissons Ratio (z) = 0.11568 0.09057
#
# Static dielectric constant tensor:
#      x y z
#    x 2.148630 0.000000 0.000000 
#    y 0.000000 2.672310 0.000000 
#    z 0.000000 0.000000 2.707110 
# 
# From -- ./inp_files/12602.got.cif
#   From: 2010.05.17/outbox.cif.g08.bks.cpg/sg20_7_cif.got.tgz:12602.got - 2010.06.03 22:52:26.
