data_PCOD9320628
_publ_section_title
;
Structure prediction by ZEFSAII (Michael W. Deem and Ramdas Pophale) SiO2 
 PCOD9320628
Probable space group: C 2 2 21
;
_chemical_formula_sum "Si O2"
_cell_formula_units_Z 40
_cell_length_a 26.861752
_cell_length_b 7.240227
_cell_length_c 9.696992
_cell_angle_alpha 90.000000
_cell_angle_beta 90.000000
_cell_angle_gamma 90.000000
_cell_volume 1885.921255
_symmetry_space_group_name_H-M "C 2 2 21"
_symmetry_group_IT_number 20
_symmetry_cell_setting 'orthorhombic'
loop_
_space_group_symop_operation_xyz
x,y,z
-x,-y,1/2+z
x,-y,-z
-x,y,1/2-z
1/2+x,1/2+y,z
1/2-x,1/2-y,1/2+z
1/2+x,1/2-y,-z
1/2-x,1/2+y,1/2-z
loop_
_atom_site_type_symbol
_atom_site_label
_atom_site_fract_x
_atom_site_fract_y
_atom_site_fract_z
Si Si1 0.208355 0.678631 0.412160
Si Si2 0.544482 0.023850 0.345239
Si Si3 0.133107 0.236743 0.345425
Si Si4 0.199785 0.431612 0.144810
Si Si5 0.953645 0.956206 0.157004
O O1 0.228266 0.500000 0.500000
O O2 0.162260 0.746222 0.508589
O O3 0.199115 0.593461 0.260052
O O4 0.246494 0.846168 0.392927
O O5 0.500000 0.957132 0.250000
O O6 0.553805 0.239129 0.319191
O O7 0.526039 0.000000 0.500000
O O8 0.594517 0.906877 0.335457
O O9 0.171446 0.265322 0.221666
O O10 0.098382 0.060877 0.324802
O O11 0.177407 0.500000 0.000000
O O12 0.000000 0.017190 0.250000
O O13 0.968065 0.000000 0.000000
#
# Coordination Sequence:
#
# PCOD9320628 Si02
#       5
#     8   8   8   8   8
#     4  10  23  44  67  95 133 180 231 282 352 404
#     4  11  23  43  70 101 137 179 224 282 342 412
#     4  11  24  46  69  99 141 184 232 272 350 422
#     4  11  23  43  65  98 134 175 234 291 339 397
#     4  11  25  44  71 105 136 180 227 280 348 417
#
# _framework density 21.209793000000001
#
# number of rings (size 3 to 8) (size 9 to 14) (size 15 to 20)
#    0.000    1.200    2.000    4.800    0.000    3.200 
#    7.200    0.000    0.000    0.000    0.000    0.000 
#    0.000    0.000    0.000    0.000    0.000    0.000 
#
# Total GULP energy -111754.761203 kJ/mol
# GULP energy per Si atom -5587.738060 kJ/mol
# Density = 2.116152 g / cm^3
# Si number density = 21.209793 Si / 1000 Ang^3
#
#
#
# Elastic Constant Matrix: (Units=GPa)
#
#
# Indices 1 2 3 4 5 6 
#
# 1 144.2989 53.8408 59.6154 0.0000 0.0000 0.0000
# 2 53.8408 102.7112 29.6917 0.0000 0.0000 0.0000
# 3 59.6154 29.6917 126.2502 0.0000 0.0000 0.0000
# 4 0.0000 0.0000 0.0000 -0.9385 0.0000 0.0000
# 5 0.0000 0.0000 0.0000 0.0000 82.9955 0.0000
# 6 0.0000 0.0000 0.0000 0.0000 0.0000 44.6876
#
#
#
# Elastic Compliance Matrix: (Units=1/GPa)
#
#
# Indices 1 2 3 4 5 6 
#
# 1 0.010042 -0.004177 -0.003759 0.000000 0.000000 0.000000
# 2 -0.004177 0.012184 -0.000893 0.000000 0.000000 0.000000
# 3 -0.003759 -0.000893 0.009906 0.000000 0.000000 0.000000
# 4 0.000000 0.000000 0.000000 -1.065509 0.000000 0.000000
# 5 0.000000 0.000000 0.000000 0.000000 0.012049 0.000000
# 6 0.000000 0.000000 0.000000 0.000000 0.000000 0.022378
#
#
# Mechanical properties :
#
#
# Convention : Reuss Voigt Hill
#
# Bulk Modulus (GPa) = 69.09575 73.28401 71.18988
# Shear Modulus (GPa) = -5.12049 40.68975 17.78463
#
# Velocity S-wave (km/s) = -1.55546 4.38475 2.89885
# Velocity P-wave (km/s) = 5.42421 7.76284 6.69641
#
# Compressibility (1/GPa) = 0.01447267
#
# Stress axis : x y z
#
# Youngs Moduli (GPa) = 99.58433 82.07624 100.94943
#
# Poissons Ratio (x) = 0.34284 0.37950
# Poissons Ratio (y) = 0.41597 0.09015
# Poissons Ratio (z) = 0.37437 0.07329
#
# Static dielectric constant tensor:
#      x y z
#    x 1.823100 0.000000 0.000000 
#    y 0.000000 1.812520 0.000000 
#    z 0.000000 0.000000 1.769050 
# 
# From -- ./inp_files/10498.got.cif
#   From: 2010.05.17/outbox.cif.g08.bks.cpg/sg20_6_cif.got.tgz:10498.got - 2010.06.03 22:52:26.
