data_PCOD9320115
_publ_section_title
;
Structure prediction by ZEFSAII (Michael W. Deem and Ramdas Pophale) SiO2 
 PCOD9320115
Probable space group: C 2 2 21
;
_chemical_formula_sum "Si O2"
_cell_formula_units_Z 32
_cell_length_a 16.191331
_cell_length_b 11.501315
_cell_length_c 6.887941
_cell_angle_alpha 90.000000
_cell_angle_beta 90.000000
_cell_angle_gamma 90.000000
_cell_volume 1282.683381
_symmetry_space_group_name_H-M "C 2 2 21"
_symmetry_group_IT_number 20
_symmetry_cell_setting 'orthorhombic'
loop_
_space_group_symop_operation_xyz
x,y,z
-x,-y,1/2+z
x,-y,-z
-x,y,1/2-z
1/2+x,1/2+y,z
1/2-x,1/2-y,1/2+z
1/2+x,1/2-y,-z
1/2-x,1/2+y,1/2-z
loop_
_atom_site_type_symbol
_atom_site_label
_atom_site_fract_x
_atom_site_fract_y
_atom_site_fract_z
Si Si1 0.000000 0.583967 0.750000
Si Si2 0.942094 0.234217 0.937793
Si Si3 0.791881 0.612114 0.137556
Si Si4 0.148341 0.500000 0.000000
Si Si5 0.000000 0.954488 0.750000
Si Si6 0.358293 0.500000 0.500000
O O1 0.917602 0.524924 0.671269
O O2 0.026111 0.660221 0.568885
O O3 0.847803 0.274410 0.896214
O O4 0.000000 0.237249 0.750000
O O5 0.963597 0.125520 0.076687
O O6 0.793999 0.583116 0.368383
O O7 0.696780 0.610597 0.062686
O O8 0.817669 0.500000 0.000000
O O9 0.919928 0.023465 0.676659
#
# Coordination Sequence:
#
# PCOD9320115 Si02
#       6
#     4   8   8   4   4   4
#     4  11  18  28  58  99 148 190 223 280 366 446
#     4  11  22  42  68 112 150 188 243 315 377 455
#     4  10  22  42  70 112 146 193 248 303 381 448
#     4  12  18  32  64 104 154 196 230 294 368 460
#     4  11  28  50  76 103 146 202 263 308 392 460
#     4  10  26  56  72 104 142 210 258 310 388 460
#
# _framework density 24.947700000000001
#
# number of rings (size 3 to 8) (size 9 to 14) (size 15 to 20)
#    0.750    0.500    5.000    1.500    1.750    1.000 
#    4.500    0.000    0.000    0.000    0.000    0.000 
#    0.000    0.000    0.000    0.000    0.000    0.000 
#
# Total GULP energy -89092.176187 kJ/mol
# GULP energy per Si atom -5568.261012 kJ/mol
# Density = 2.489092 g / cm^3
# Si number density = 24.947700 Si / 1000 Ang^3
#
#
#
# Elastic Constant Matrix: (Units=GPa)
#
#
# Indices 1 2 3 4 5 6 
#
# 1 163.6319 43.4331 68.2191 0.0000 0.0000 0.0000
# 2 43.4331 50.7784 25.6905 0.0000 0.0000 0.0000
# 3 68.2191 25.6905 181.2990 0.0000 0.0000 0.0000
# 4 0.0000 0.0000 0.0000 22.4527 0.0000 0.0000
# 5 0.0000 0.0000 0.0000 0.0000 54.9428 0.0000
# 6 0.0000 0.0000 0.0000 0.0000 0.0000 9.9923
#
#
#
# Elastic Compliance Matrix: (Units=1/GPa)
#
#
# Indices 1 2 3 4 5 6 
#
# 1 0.008789 -0.006296 -0.002415 0.000000 0.000000 0.000000
# 2 -0.006296 0.025724 -0.001276 0.000000 0.000000 0.000000
# 3 -0.002415 -0.001276 0.006605 0.000000 0.000000 0.000000
# 4 0.000000 0.000000 0.000000 0.044538 0.000000 0.000000
# 5 0.000000 0.000000 0.000000 0.000000 0.018201 0.000000
# 6 0.000000 0.000000 0.000000 0.000000 0.000000 0.100077
#
#
# Mechanical properties :
#
#
# Convention : Reuss Voigt Hill
#
# Bulk Modulus (GPa) = 47.29361 74.48830 60.89096
# Shear Modulus (GPa) = 21.64901 34.70200 28.17551
#
# Velocity S-wave (km/s) = 2.94900 3.73364 3.36428
# Velocity P-wave (km/s) = 5.53116 6.96487 6.28900
#
# Compressibility (1/GPa) = 0.02114451
#
# Stress axis : x y z
#
# Youngs Moduli (GPa) = 113.77464 38.87364 151.39310
#
# Poissons Ratio (x) = 0.24475 0.36562
# Poissons Ratio (y) = 0.71633 0.19320
# Poissons Ratio (z) = 0.27477 0.04961
#
# Static dielectric constant tensor:
#      x y z
#    x 2.321910 0.000000 0.000000 
#    y 0.000000 2.066190 0.000000 
#    z 0.000000 0.000000 1.992300 
# 
# From -- ./inp_files/2412.got.cif
#   From: 2010.05.17/outbox.cif.g08.bks.cpg/sg20_2_cif.got.tgz:2412.got - 2010.06.03 22:52:26.
