data_PCOD9320891
_publ_section_title
;
Structure prediction by ZEFSAII (Michael W. Deem and Ramdas Pophale) SiO2 
 PCOD9320891
Probable space group: C 2 2 21
;
_chemical_formula_sum "Si O2"
_cell_formula_units_Z 44
_cell_length_a 20.468008
_cell_length_b 5.198142
_cell_length_c 19.962729
_cell_angle_alpha 90.000000
_cell_angle_beta 90.000000
_cell_angle_gamma 90.000000
_cell_volume 2123.946770
_symmetry_space_group_name_H-M "C 2 2 21"
_symmetry_group_IT_number 20
_symmetry_cell_setting 'orthorhombic'
loop_
_space_group_symop_operation_xyz
x,y,z
-x,-y,1/2+z
x,-y,-z
-x,y,1/2-z
1/2+x,1/2+y,z
1/2-x,1/2-y,1/2+z
1/2+x,1/2-y,-z
1/2-x,1/2+y,1/2-z
loop_
_atom_site_type_symbol
_atom_site_label
_atom_site_fract_x
_atom_site_fract_y
_atom_site_fract_z
Si Si1 0.506644 0.378493 0.425874
Si Si2 0.611259 0.593463 0.827333
Si Si3 0.924462 0.590573 0.751063
Si Si4 0.748193 0.195919 0.202948
Si Si5 0.084414 0.500000 0.500000
Si Si6 0.126298 0.796089 0.618739
O O1 0.503287 0.500000 0.500000
O O2 0.437838 0.403670 0.389809
O O3 0.534525 0.099339 0.443324
O O4 0.565614 0.507457 0.384422
O O5 0.610497 0.312875 0.793167
O O6 0.684212 0.702763 0.836582
O O7 0.581346 0.806548 0.777834
O O8 0.895865 0.592559 0.825248
O O9 0.000000 0.666573 0.750000
O O10 0.764354 0.445367 0.250230
O O11 0.805120 0.117711 0.150644
O O12 0.129440 0.692548 0.542629
#
# Coordination Sequence:
#
# PCOD9320891 Si02
#       6
#     8   8   8   8   4   8
#     4  10  24  44  69  97 134 180 240 287 340 412
#     4  12  24  42  66 102 136 178 219 292 350 400
#     4  12  23  37  69 102 131 169 228 285 345 404
#     4  12  25  43  67 101 142 178 219 281 354 417
#     4  10  24  44  70  92 134 184 234 284 336 414
#     4  11  23  42  67  96 136 183 229 281 345 412
#
# _framework density 20.716149999999999
#
# number of rings (size 3 to 8) (size 9 to 14) (size 15 to 20)
#    0.000    0.727    5.455    1.636    7.636    0.000 
#    1.636    0.000    6.000    0.000    0.000    0.000 
#    0.000    0.000    0.000    0.000    0.000    0.000 
#
# Total GULP energy -122692.312579 kJ/mol
# GULP energy per Si atom -5576.923299 kJ/mol
# Density = 2.066900 g / cm^3
# Si number density = 20.716150 Si / 1000 Ang^3
#
#
#
# Elastic Constant Matrix: (Units=GPa)
#
#
# Indices 1 2 3 4 5 6 
#
# 1 153.8637 8.5513 49.4663 0.0000 0.0000 0.0000
# 2 8.5513 61.8754 12.5983 0.0000 0.0000 0.0000
# 3 49.4663 12.5983 82.3433 0.0000 0.0000 0.0000
# 4 0.0000 0.0000 0.0000 24.1495 0.0000 0.0000
# 5 0.0000 0.0000 0.0000 0.0000 35.7686 0.0000
# 6 0.0000 0.0000 0.0000 0.0000 0.0000 29.7995
#
#
#
# Elastic Compliance Matrix: (Units=1/GPa)
#
#
# Indices 1 2 3 4 5 6 
#
# 1 0.008056 -0.000132 -0.004819 0.000000 0.000000 0.000000
# 2 -0.000132 0.016683 -0.002473 0.000000 0.000000 0.000000
# 3 -0.004819 -0.002473 0.015418 0.000000 0.000000 0.000000
# 4 0.000000 0.000000 0.000000 0.041409 0.000000 0.000000
# 5 0.000000 0.000000 0.000000 0.000000 0.027957 0.000000
# 6 0.000000 0.000000 0.000000 0.000000 0.000000 0.033558
#
#
# Mechanical properties :
#
#
# Convention : Reuss Voigt Hill
#
# Bulk Modulus (GPa) = 39.51322 48.81270 44.16296
# Shear Modulus (GPa) = 30.05423 33.10795 31.58109
#
# Velocity S-wave (km/s) = 3.81302 4.00205 3.90868
# Velocity P-wave (km/s) = 6.20488 6.70589 6.46024
#
# Compressibility (1/GPa) = 0.02530799
#
# Stress axis : x y z
#
# Youngs Moduli (GPa) = 124.13166 59.94013 64.86032
#
# Poissons Ratio (x) = 0.00792 0.31258
# Poissons Ratio (y) = 0.01640 0.16041
# Poissons Ratio (z) = 0.59822 0.14824
#
# Static dielectric constant tensor:
#      x y z
#    x 1.784730 0.000000 0.000000 
#    y 0.000000 1.848310 0.000000 
#    z 0.000000 0.000000 1.758260 
# 
# From -- ./inp_files/27831.got.cif
#   From: 2010.05.17/outbox.cif.g08.bks.cpg/sg20_14_cif.got.tgz:27831.got - 2010.06.03 22:52:26.
