data_PCOD9320396
_publ_section_title
;
Structure prediction by ZEFSAII (Michael W. Deem and Ramdas Pophale) SiO2 
 PCOD9320396
Probable space group: C 2 2 21
;
_chemical_formula_sum "Si O2"
_cell_formula_units_Z 32
_cell_length_a 6.153753
_cell_length_b 18.713535
_cell_length_c 11.426471
_cell_angle_alpha 90.000000
_cell_angle_beta 90.000000
_cell_angle_gamma 90.000000
_cell_volume 1315.854942
_symmetry_space_group_name_H-M "C 2 2 21"
_symmetry_group_IT_number 20
_symmetry_cell_setting 'orthorhombic'
loop_
_space_group_symop_operation_xyz
x,y,z
-x,-y,1/2+z
x,-y,-z
-x,y,1/2-z
1/2+x,1/2+y,z
1/2-x,1/2-y,1/2+z
1/2+x,1/2-y,-z
1/2-x,1/2+y,1/2-z
loop_
_atom_site_type_symbol
_atom_site_label
_atom_site_fract_x
_atom_site_fract_y
_atom_site_fract_z
Si Si1 0.525713 0.605774 0.611505
Si Si2 0.884232 0.269464 0.875038
Si Si3 0.000000 0.841683 0.750000
Si Si4 0.315397 0.000000 0.000000
Si Si5 0.854287 0.402310 0.573761
O O1 0.500000 0.598218 0.750000
O O2 0.556548 0.690125 0.584507
O O3 0.329770 0.562600 0.554109
O O4 0.737457 0.575889 0.546728
O O5 0.639962 0.292776 0.839981
O O6 0.000000 0.274751 0.750000
O O7 0.009902 0.329326 0.948063
O O8 0.170277 0.887945 0.672238
O O9 0.462172 0.039215 0.097490
#
# Coordination Sequence:
#
# PCOD9320396 Si02
#       5
#     8   8   4   4   8
#     4  11  27  52  76 111 157 204 259 315 386 461
#     4   9  22  44  80 111 145 195 252 320 369 454
#     4  10  22  48  76 122 146 194 262 314 394 456
#     4  12  28  52  70 118 150 208 250 320 394 454
#     4  11  25  46  76 115 152 202 251 323 384 459
#
# _framework density 24.318788999999999
#
# number of rings (size 3 to 8) (size 9 to 14) (size 15 to 20)
#    0.000    1.500    0.000    2.250    7.000    5.000 
#   42.750    0.000    0.000    0.000    0.000    0.000 
#    0.000    0.000    0.000    0.000    0.000    0.000 
#
# Total GULP energy -89381.183687 kJ/mol
# GULP energy per Si atom -5586.323980 kJ/mol
# Density = 2.426344 g / cm^3
# Si number density = 24.318789 Si / 1000 Ang^3
#
#
#
# Elastic Constant Matrix: (Units=GPa)
#
#
# Indices 1 2 3 4 5 6 
#
# 1 171.3821 106.2201 69.9844 0.0000 0.0000 0.0000
# 2 106.2201 154.6147 47.6122 0.0000 0.0000 0.0000
# 3 69.9844 47.6122 114.4169 0.0000 0.0000 0.0000
# 4 0.0000 0.0000 0.0000 0.4183 0.0000 0.0000
# 5 0.0000 0.0000 0.0000 0.0000 16.8276 0.0000
# 6 0.0000 0.0000 0.0000 0.0000 0.0000 20.1611
#
#
#
# Elastic Compliance Matrix: (Units=1/GPa)
#
#
# Indices 1 2 3 4 5 6 
#
# 1 0.011837 -0.006770 -0.004423 0.000000 0.000000 0.000000
# 2 -0.006770 0.011290 -0.000557 0.000000 0.000000 0.000000
# 3 -0.004423 -0.000557 0.011677 0.000000 0.000000 0.000000
# 4 0.000000 0.000000 0.000000 2.390870 0.000000 0.000000
# 5 0.000000 0.000000 0.000000 0.000000 0.059426 0.000000
# 6 0.000000 0.000000 0.000000 0.000000 0.000000 0.049600
#
#
# Mechanical properties :
#
#
# Convention : Reuss Voigt Hill
#
# Bulk Modulus (GPa) = 88.46472 98.67188 93.56830
# Shear Modulus (GPa) = 1.95162 21.92118 11.93640
#
# Velocity S-wave (km/s) = 0.89680 3.00561 2.21787
# Velocity P-wave (km/s) = 6.12604 7.25998 6.71698
#
# Compressibility (1/GPa) = 0.01130394
#
# Stress axis : x y z
#
# Youngs Moduli (GPa) = 84.48069 88.57189 85.63636
#
# Poissons Ratio (x) = 0.59963 0.37878
# Poissons Ratio (y) = 0.57193 0.04772
# Poissons Ratio (z) = 0.37366 0.04936
#
# Static dielectric constant tensor:
#      x y z
#    x 1.963810 0.000000 0.000000 
#    y 0.000000 2.059230 0.000000 
#    z 0.000000 0.000000 1.916500 
# 
# From -- ./inp_files/11959.got.cif
#   From: 2010.05.17/outbox.cif.g08.bks.cpg/sg20_6_cif.got.tgz:11959.got - 2010.06.03 22:52:26.
