data_PCOD9320843
_publ_section_title
;
Structure prediction by ZEFSAII (Michael W. Deem and Ramdas Pophale) SiO2 
 PCOD9320843
Probable space group: C 2 2 21
;
_chemical_formula_sum "Si O2"
_cell_formula_units_Z 64
_cell_length_a 22.852194
_cell_length_b 9.237446
_cell_length_c 16.320115
_cell_angle_alpha 90.000000
_cell_angle_beta 90.000000
_cell_angle_gamma 90.000000
_cell_volume 3445.109496
_symmetry_space_group_name_H-M "C 2 2 21"
_symmetry_group_IT_number 20
_symmetry_cell_setting 'orthorhombic'
loop_
_space_group_symop_operation_xyz
x,y,z
-x,-y,1/2+z
x,-y,-z
-x,y,1/2-z
1/2+x,1/2+y,z
1/2-x,1/2-y,1/2+z
1/2+x,1/2-y,-z
1/2-x,1/2+y,1/2-z
loop_
_atom_site_type_symbol
_atom_site_label
_atom_site_fract_x
_atom_site_fract_y
_atom_site_fract_z
Si Si1 0.535229 0.333314 0.870098
Si Si2 0.909852 0.166718 0.811495
Si Si3 0.767025 0.826739 0.500000
Si Si4 0.409852 0.333282 0.811495
Si Si5 0.787904 0.326197 0.177829
Si Si6 0.390863 0.830361 0.500000
Si Si7 0.964771 0.833314 0.370098
Si Si8 0.212096 0.326197 0.677829
O O1 0.466215 0.298195 0.867315
O O2 0.562882 0.330266 0.779560
O O3 0.571569 0.223090 0.923336
O O4 0.541289 0.500000 0.899234
O O5 0.937118 0.169733 0.720440
O O6 0.854421 0.269866 0.817199
O O7 0.966215 0.201805 0.867315
O O8 0.891915 1.000000 0.828153
O O9 0.735147 0.790159 0.414047
O O10 0.829312 0.750315 0.500000
O O11 0.735147 0.790158 0.585953
O O12 0.774900 0.000000 0.500000
O O13 0.354421 0.230134 0.817199
O O14 0.784499 0.500000 0.188194
O O15 0.750000 0.250000 0.250000
O O16 0.428431 0.776911 0.576664
O O17 0.381759 0.000000 0.500000
#
# Coordination Sequence:
#
# PCOD9320843 Si02
#       8
#     8   8   8   8   8   8   8   8
#     4   9  19  37  59  81 110 148 183 221 278 343
#     4   9  19  37  60  84 109 143 188 230 275 336
#     4  10  24  43  58  77 113 158 194 228 283 352
#     4   9  19  37  60  84 109 143 188 230 275 336
#     4  11  23  39  60  85 116 154 193 237 288 339
#     4  12  24  35  54  85 113 140 184 236 279 324
#     4   9  19  37  59  81 110 148 183 221 278 343
#     4  11  23  39  60  85 116 154 193 237 288 339
#
# _framework density 18.577058999999998
#
# number of rings (size 3 to 8) (size 9 to 14) (size 15 to 20)
#    0.000    2.000    0.000    4.875    0.000   11.000 
#    0.000    5.000    0.000    0.000    0.000    0.000 
#    0.000    0.000    0.000    0.000    0.000    0.000 
#
# Total GULP energy -178595.700269 kJ/mol
# GULP energy per Si atom -5581.115633 kJ/mol
# Density = 1.853478 g / cm^3
# Si number density = 18.577059 Si / 1000 Ang^3
#
#
#
# Elastic Constant Matrix: (Units=GPa)
#
#
# Indices 1 2 3 4 5 6 
#
# 1 130.2932 52.6651 58.4433 0.0000 0.0000 0.0000
# 2 52.6651 37.9291 46.8711 0.0000 0.0000 0.0000
# 3 58.4433 46.8711 95.9887 0.0000 0.0000 0.0000
# 4 0.0000 0.0000 0.0000 26.4119 0.0000 0.0000
# 5 0.0000 0.0000 0.0000 0.0000 21.5107 0.0000
# 6 0.0000 0.0000 0.0000 0.0000 0.0000 37.8026
#
#
#
# Elastic Compliance Matrix: (Units=1/GPa)
#
#
# Indices 1 2 3 4 5 6 
#
# 1 0.017854 -0.028638 0.003113 0.000000 0.000000 0.000000
# 2 -0.028638 0.112415 -0.037456 0.000000 0.000000 0.000000
# 3 0.003113 -0.037456 0.026812 0.000000 0.000000 0.000000
# 4 0.000000 0.000000 0.000000 0.037862 0.000000 0.000000
# 5 0.000000 0.000000 0.000000 0.000000 0.046489 0.000000
# 6 0.000000 0.000000 0.000000 0.000000 0.000000 0.026453
#
#
# Mechanical properties :
#
#
# Convention : Reuss Voigt Hill
#
# Bulk Modulus (GPa) = 32.13322 64.46333 48.29827
# Shear Modulus (GPa) = 12.36953 24.22714 18.29833
#
# Velocity S-wave (km/s) = 2.58321 3.61521 3.14187
# Velocity P-wave (km/s) = 5.12173 7.22511 6.26236
#
# Compressibility (1/GPa) = 0.03112045
#
# Stress axis : x y z
#
# Youngs Moduli (GPa) = 56.00965 8.89560 37.29675
#
# Poissons Ratio (x) = 0.25475 -0.11611
# Poissons Ratio (y) = 1.60399 1.39698
# Poissons Ratio (z) = -0.17437 0.33319
#
# Static dielectric constant tensor:
#      x y z
#    x 1.613030 0.000000 0.000000 
#    y 0.000000 1.616470 0.000000 
#    z 0.000000 0.000000 1.716940 
# 
# From -- ./inp_files/25530.got.cif
#   From: 2010.05.17/outbox.cif.g08.bks.cpg/sg20_13_cif.got.tgz:25530.got - 2010.06.03 22:52:26.
