data_PCOD9320836
_publ_section_title
;
Structure prediction by ZEFSAII (Michael W. Deem and Ramdas Pophale) SiO2 
 PCOD9320836
Probable space group: C 2 2 21
;
_chemical_formula_sum "Si O2"
_cell_formula_units_Z 44
_cell_length_a 7.391295
_cell_length_b 17.813083
_cell_length_c 14.885131
_cell_angle_alpha 90.000000
_cell_angle_beta 90.000000
_cell_angle_gamma 90.000000
_cell_volume 1959.802416
_symmetry_space_group_name_H-M "C 2 2 21"
_symmetry_group_IT_number 20
_symmetry_cell_setting 'orthorhombic'
loop_
_space_group_symop_operation_xyz
x,y,z
-x,-y,1/2+z
x,-y,-z
-x,y,1/2-z
1/2+x,1/2+y,z
1/2-x,1/2-y,1/2+z
1/2+x,1/2-y,-z
1/2-x,1/2+y,1/2-z
loop_
_atom_site_type_symbol
_atom_site_label
_atom_site_fract_x
_atom_site_fract_y
_atom_site_fract_z
Si Si1 0.794406 0.968332 0.722683
Si Si2 0.776041 0.636822 0.059156
Si Si3 0.001871 0.756290 0.646005
Si Si4 0.304311 0.132470 0.390125
Si Si5 0.093949 0.412415 0.376341
Si Si6 0.680553 0.000000 0.000000
O O1 0.789886 0.927544 0.626705
O O2 0.707359 0.910673 0.794541
O O3 0.000000 0.982337 0.750000
O O4 0.688349 0.045651 0.706180
O O5 0.660684 0.708845 0.088384
O O6 0.989959 0.647446 0.080442
O O7 0.766656 0.608862 0.956922
O O8 0.186527 0.792887 0.609716
O O9 0.003874 0.667040 0.644728
O O10 0.000000 0.781809 0.750000
O O11 0.220568 0.071585 0.459524
O O12 0.949459 0.468682 0.421403
#
# Coordination Sequence:
#
# PCOD9320836 Si02
#       6
#     8   8   8   8   8   4
#     4  12  22  45  73 105 136 186 237 293 350 426
#     4  11  23  47  71  97 142 184 232 285 354 420
#     4  12  27  45  67 106 141 184 235 294 356 414
#     4  11  23  44  73 101 135 191 233 287 358 422
#     4  11  26  44  69 105 144 178 236 296 340 419
#     4  10  24  42  72 100 132 192 232 280 356 412
#
# _framework density 22.451242000000001
#
# number of rings (size 3 to 8) (size 9 to 14) (size 15 to 20)
#    0.000    0.727    7.273    0.545    7.636    1.455 
#    3.273    0.000    0.000    0.000    0.000    0.000 
#    0.000    0.000    0.000    0.000    0.000    0.000 
#
# Total GULP energy -123088.980866 kJ/mol
# GULP energy per Si atom -5594.953676 kJ/mol
# Density = 2.240014 g / cm^3
# Si number density = 22.451242 Si / 1000 Ang^3
#
#
#
# Elastic Constant Matrix: (Units=GPa)
#
#
# Indices 1 2 3 4 5 6 
#
# 1 97.7885 38.7736 11.9045 0.0000 0.0000 0.0000
# 2 38.7736 123.0803 -6.4044 0.0000 0.0000 0.0000
# 3 11.9045 -6.4044 64.5337 0.0000 0.0000 0.0000
# 4 0.0000 0.0000 0.0000 36.0406 0.0000 0.0000
# 5 0.0000 0.0000 0.0000 0.0000 17.1302 0.0000
# 6 0.0000 0.0000 0.0000 0.0000 0.0000 38.7759
#
#
#
# Elastic Compliance Matrix: (Units=1/GPa)
#
#
# Indices 1 2 3 4 5 6 
#
# 1 0.012113 -0.003953 -0.002627 0.000000 0.000000 0.000000
# 2 -0.003953 0.009457 0.001668 0.000000 0.000000 0.000000
# 3 -0.002627 0.001668 0.016146 0.000000 0.000000 0.000000
# 4 0.000000 0.000000 0.000000 0.027746 0.000000 0.000000
# 5 0.000000 0.000000 0.000000 0.000000 0.058377 0.000000
# 6 0.000000 0.000000 0.000000 0.000000 0.000000 0.025789
#
#
# Mechanical properties :
#
#
# Convention : Reuss Voigt Hill
#
# Bulk Modulus (GPa) = 35.85235 41.54998 38.70117
# Shear Modulus (GPa) = 29.62982 34.46460 32.04721
#
# Velocity S-wave (km/s) = 3.63676 3.92227 3.78221
# Velocity P-wave (km/s) = 5.79986 6.24974 6.02900
#
# Compressibility (1/GPa) = 0.02789217
#
# Stress axis : x y z
#
# Youngs Moduli (GPa) = 82.55474 105.74460 61.93546
#
# Poissons Ratio (x) = 0.41797 0.16269
# Poissons Ratio (y) = 0.32631 -0.10329
# Poissons Ratio (z) = 0.21685 -0.17634
#
# Static dielectric constant tensor:
#      x y z
#    x 1.817910 0.000000 0.000000 
#    y 0.000000 1.824180 0.000000 
#    z 0.000000 0.000000 1.894860 
# 
# From -- ./inp_files/18758.got.cif
#   From: 2010.05.17/outbox.cif.g08.bks.cpg/sg20_10_cif.got.tgz:18758.got - 2010.06.03 22:52:26.
