data_PCOD9320630
_publ_section_title
;
Structure prediction by ZEFSAII (Michael W. Deem and Ramdas Pophale) SiO2 
 PCOD9320630
Probable space group: C 2 2 21
;
_chemical_formula_sum "Si O2"
_cell_formula_units_Z 44
_cell_length_a 13.461897
_cell_length_b 4.868453
_cell_length_c 25.019564
_cell_angle_alpha 90.000000
_cell_angle_beta 90.000000
_cell_angle_gamma 90.000000
_cell_volume 1639.747518
_symmetry_space_group_name_H-M "C 2 2 21"
_symmetry_group_IT_number 20
_symmetry_cell_setting 'orthorhombic'
loop_
_space_group_symop_operation_xyz
x,y,z
-x,-y,1/2+z
x,-y,-z
-x,y,1/2-z
1/2+x,1/2+y,z
1/2-x,1/2-y,1/2+z
1/2+x,1/2-y,-z
1/2-x,1/2+y,1/2-z
loop_
_atom_site_type_symbol
_atom_site_label
_atom_site_fract_x
_atom_site_fract_y
_atom_site_fract_z
Si Si1 0.789204 0.873962 0.175926
Si Si2 0.335882 0.388291 0.330561
Si Si3 0.371929 0.621817 0.442996
Si Si4 0.464545 0.294680 0.802932
Si Si5 0.243086 0.000000 0.500000
Si Si6 0.400522 0.336366 0.913682
O O1 0.692429 0.072403 0.176140
O O2 0.872469 0.009807 0.212987
O O3 0.845410 0.915943 0.118670
O O4 0.752063 0.578259 0.193111
O O5 0.325244 0.468739 0.393087
O O6 0.444647 0.502392 0.317861
O O7 0.348092 0.500000 0.500000
O O8 0.489482 0.619029 0.435695
O O9 0.319082 0.910722 0.452815
O O10 0.500000 0.134152 0.750000
O O11 0.428192 0.157451 0.859094
O O12 0.166916 0.200092 0.466617
#
# Coordination Sequence:
#
# PCOD9320630 Si02
#       6
#     8   8   8   8   4   8
#     4  10  23  44  67  96 131 175 218 275 329 396
#     4  11  23  44  68  97 135 174 221 272 333 395
#     4  11  22  38  63  90 126 176 212 267 330 393
#     4   9  22  44  68 100 135 174 227 283 332 398
#     4  12  20  42  60  90 132 166 222 268 338 392
#     4   9  21  42  59  96 128 171 224 270 333 403
#
# _framework density 26.833400000000001
#
# number of rings (size 3 to 8) (size 9 to 14) (size 15 to 20)
#    1.091    0.727    2.727    1.091    0.000    2.909 
#    8.182    1.818    0.000    0.000    0.000    0.000 
#    0.000    0.000    0.000    0.000    0.000    0.000 
#
# Total GULP energy -122547.455149 kJ/mol
# GULP energy per Si atom -5570.338870 kJ/mol
# Density = 2.677233 g / cm^3
# Si number density = 26.833400 Si / 1000 Ang^3
#
#
#
# Elastic Constant Matrix: (Units=GPa)
#
#
# Indices 1 2 3 4 5 6 
#
# 1 136.0291 10.9368 30.2556 0.0000 0.0000 0.0000
# 2 10.9368 50.3776 0.3178 0.0000 0.0000 0.0000
# 3 30.2556 0.3178 149.7166 0.0000 0.0000 0.0000
# 4 0.0000 0.0000 0.0000 8.9353 0.0000 0.0000
# 5 0.0000 0.0000 0.0000 0.0000 64.6554 0.0000
# 6 0.0000 0.0000 0.0000 0.0000 0.0000 19.0281
#
#
#
# Elastic Compliance Matrix: (Units=1/GPa)
#
#
# Indices 1 2 3 4 5 6 
#
# 1 0.007839 -0.001692 -0.001581 0.000000 0.000000 0.000000
# 2 -0.001692 0.020215 0.000299 0.000000 0.000000 0.000000
# 3 -0.001581 0.000299 0.006998 0.000000 0.000000 0.000000
# 4 0.000000 0.000000 0.000000 0.111915 0.000000 0.000000
# 5 0.000000 0.000000 0.000000 0.000000 0.015467 0.000000
# 6 0.000000 0.000000 0.000000 0.000000 0.000000 0.052554
#
#
# Mechanical properties :
#
#
# Convention : Reuss Voigt Hill
#
# Bulk Modulus (GPa) = 34.35755 46.57152 40.46453
# Shear Modulus (GPa) = 21.67911 38.16464 29.92188
#
# Velocity S-wave (km/s) = 2.84547 3.77541 3.34293
# Velocity P-wave (km/s) = 4.86080 6.03311 5.47840
#
# Compressibility (1/GPa) = 0.02910569
#
# Stress axis : x y z
#
# Youngs Moduli (GPa) = 127.56834 49.46704 142.89685
#
# Poissons Ratio (x) = 0.08369 0.22585
# Poissons Ratio (y) = 0.21582 -0.04272
# Poissons Ratio (z) = 0.20163 -0.01479
#
# Static dielectric constant tensor:
#      x y z
#    x 2.023450 0.000000 0.000000 
#    y 0.000000 2.359840 0.000000 
#    z 0.000000 0.000000 2.233160 
# 
# From -- ./inp_files/30387.got.cif
#   From: 2010.05.17/outbox.cif.g08.bks.cpg/sg20_16_cif.got.tgz:30387.got - 2010.06.03 22:52:26.
