data_PCOD9320433
_publ_section_title
;
Structure prediction by ZEFSAII (Michael W. Deem and Ramdas Pophale) SiO2 
 PCOD9320433
Probable space group: C 2 2 21
;
_chemical_formula_sum "Si O2"
_cell_formula_units_Z 48
_cell_length_a 29.881758
_cell_length_b 9.110871
_cell_length_c 8.227760
_cell_angle_alpha 90.000000
_cell_angle_beta 90.000000
_cell_angle_gamma 90.000000
_cell_volume 2239.998135
_symmetry_space_group_name_H-M "C 2 2 21"
_symmetry_group_IT_number 20
_symmetry_cell_setting 'orthorhombic'
loop_
_space_group_symop_operation_xyz
x,y,z
-x,-y,1/2+z
x,-y,-z
-x,y,1/2-z
1/2+x,1/2+y,z
1/2-x,1/2-y,1/2+z
1/2+x,1/2-y,-z
1/2-x,1/2+y,1/2-z
loop_
_atom_site_type_symbol
_atom_site_label
_atom_site_fract_x
_atom_site_fract_y
_atom_site_fract_z
Si Si1 0.125725 0.910412 0.160073
Si Si2 0.725375 0.427831 0.243032
Si Si3 0.393640 0.310644 0.843043
Si Si4 0.207754 0.771474 0.581535
Si Si5 0.518934 0.838646 0.434708
Si Si6 0.422311 0.825187 0.503502
O O1 0.178934 0.895097 0.152594
O O2 0.112119 0.015728 0.307776
O O3 0.104201 0.751648 0.148471
O O4 0.110488 0.000000 0.000000
O O5 0.767241 0.374236 0.139342
O O6 0.723137 0.332097 0.407836
O O7 0.722397 0.597460 0.295063
O O8 0.346006 0.259740 0.913399
O O9 0.437979 0.264551 0.938902
O O10 0.401668 0.232415 0.666884
O O11 0.500000 0.853770 0.250000
O O12 0.474391 0.782134 0.523587
O O13 0.530695 0.000000 0.500000
O O14 0.420134 0.000000 0.500000
#
# Coordination Sequence:
#
# PCOD9320433 Si02
#       6
#     8   8   8   8   8   8
#     4   9  19  37  64  84 119 160 200 247 301 362
#     4  10  23  40  61  85 123 153 199 247 300 363
#     4   9  19  38  61  80 123 160 197 244 306 358
#     4  10  23  41  59  88 117 160 196 249 305 353
#     4   9  18  37  61  87 122 155 195 253 300 357
#     4   9  18  34  63  90 118 156 204 247 302 352
#
# _framework density 21.42859
#
# number of rings (size 3 to 8) (size 9 to 14) (size 15 to 20)
#    0.000    2.667    0.000    0.000    7.000    1.333 
#   12.000    0.000   55.000    0.000    0.000    0.000 
#    0.000    0.000    0.000    0.000    0.000    0.000 
#
# Total GULP energy -134003.463425 kJ/mol
# GULP energy per Si atom -5583.477643 kJ/mol
# Density = 2.137982 g / cm^3
# Si number density = 21.428590 Si / 1000 Ang^3
#
#
#
# Elastic Constant Matrix: (Units=GPa)
#
#
# Indices 1 2 3 4 5 6 
#
# 1 124.1032 68.1100 26.9965 0.0000 0.0000 0.0000
# 2 68.1100 60.2607 18.5674 0.0000 0.0000 0.0000
# 3 26.9965 18.5674 31.2453 0.0000 0.0000 0.0000
# 4 0.0000 0.0000 0.0000 22.0311 0.0000 0.0000
# 5 0.0000 0.0000 0.0000 0.0000 26.1539 0.0000
# 6 0.0000 0.0000 0.0000 0.0000 0.0000 31.2871
#
#
#
# Elastic Compliance Matrix: (Units=1/GPa)
#
#
# Indices 1 2 3 4 5 6 
#
# 1 0.021879 -0.023141 -0.005152 0.000000 0.000000 0.000000
# 2 -0.023141 0.044790 -0.006622 0.000000 0.000000 0.000000
# 3 -0.005152 -0.006622 0.040392 0.000000 0.000000 0.000000
# 4 0.000000 0.000000 0.000000 0.045390 0.000000 0.000000
# 5 0.000000 0.000000 0.000000 0.000000 0.038235 0.000000
# 6 0.000000 0.000000 0.000000 0.000000 0.000000 0.031962
#
#
# Mechanical properties :
#
#
# Convention : Reuss Voigt Hill
#
# Bulk Modulus (GPa) = 26.86011 49.21742 38.03877
# Shear Modulus (GPa) = 16.39938 22.69009 19.54473
#
# Velocity S-wave (km/s) = 2.76941 3.25756 3.02335
# Velocity P-wave (km/s) = 4.77369 6.09647 5.47517
#
# Compressibility (1/GPa) = 0.03722993
#
# Stress axis : x y z
#
# Youngs Moduli (GPa) = 45.70614 22.32620 24.75765
#
# Poissons Ratio (x) = 0.51666 0.12756
# Poissons Ratio (y) = 1.05770 0.16395
# Poissons Ratio (z) = 0.23549 0.14784
#
# Static dielectric constant tensor:
#      x y z
#    x 1.741700 0.000000 0.000000 
#    y 0.000000 1.769300 0.000000 
#    z 0.000000 0.000000 1.870920 
# 
# From -- ./inp_files/11436.got.cif
#   From: 2010.05.17/outbox.cif.g08.bks.cpg/sg20_6_cif.got.tgz:11436.got - 2010.06.03 22:52:26.
