data_PCOD9320679
_publ_section_title
;
Structure prediction by ZEFSAII (Michael W. Deem and Ramdas Pophale) SiO2 
 PCOD9320679
Probable space group: C 2 2 21
;
_chemical_formula_sum "Si O2"
_cell_formula_units_Z 40
_cell_length_a 8.983754
_cell_length_b 18.116293
_cell_length_c 10.340877
_cell_angle_alpha 90.000000
_cell_angle_beta 90.000000
_cell_angle_gamma 90.000000
_cell_volume 1683.001720
_symmetry_space_group_name_H-M "C 2 2 21"
_symmetry_group_IT_number 20
_symmetry_cell_setting 'orthorhombic'
loop_
_space_group_symop_operation_xyz
x,y,z
-x,-y,1/2+z
x,-y,-z
-x,y,1/2-z
1/2+x,1/2+y,z
1/2-x,1/2-y,1/2+z
1/2+x,1/2-y,-z
1/2-x,1/2+y,1/2-z
loop_
_atom_site_type_symbol
_atom_site_label
_atom_site_fract_x
_atom_site_fract_y
_atom_site_fract_z
Si Si1 0.350157 0.581722 0.877658
Si Si2 0.401363 0.029226 0.365395
Si Si3 0.335034 0.814762 0.560099
Si Si4 0.908246 0.701955 0.883655
Si Si5 0.323790 0.578221 0.569786
O O1 0.265533 0.502626 0.870784
O O2 0.350722 0.591707 0.723586
O O3 0.500143 0.587324 0.962403
O O4 0.243259 0.642150 0.941200
O O5 0.500000 0.998141 0.250000
O O6 0.391664 0.116669 0.356295
O O7 0.465208 0.000000 0.500000
O O8 0.218050 0.763994 0.633448
O O9 0.472396 0.773342 0.492734
O O10 0.814095 0.634274 0.948066
O O11 0.000000 0.687563 0.750000
O O12 0.288842 0.500000 0.500000
#
# Coordination Sequence:
#
# PCOD9320679 Si02
#       5
#     8   8   8   8   8
#     4  10  23  45  70 110 147 190 249 313 380 460
#     4  10  24  42  74 107 149 192 250 309 380 459
#     4  11  25  46  72 103 151 199 249 315 387 453
#     4  12  27  49  75 107 153 204 259 320 388 467
#     4  11  24  44  76 107 145 196 249 317 388 452
#
# _framework density 23.767057000000001
#
# number of rings (size 3 to 8) (size 9 to 14) (size 15 to 20)
#    0.000    1.200    2.000    3.000    8.400    1.600 
#   10.800    0.000    0.000    0.000    0.000    0.000 
#    0.000    0.000    0.000    0.000    0.000    0.000 
#
# Total GULP energy -111345.797213 kJ/mol
# GULP energy per Si atom -5567.289861 kJ/mol
# Density = 2.371296 g / cm^3
# Si number density = 23.767057 Si / 1000 Ang^3
#
#
#
# Elastic Constant Matrix: (Units=GPa)
#
#
# Indices 1 2 3 4 5 6 
#
# 1 157.8052 47.8932 39.4733 0.0000 0.0000 0.0000
# 2 47.8932 110.7450 24.0962 0.0000 0.0000 0.0000
# 3 39.4733 24.0962 54.9942 0.0000 0.0000 0.0000
# 4 0.0000 0.0000 0.0000 18.9756 0.0000 0.0000
# 5 0.0000 0.0000 0.0000 0.0000 36.6528 0.0000
# 6 0.0000 0.0000 0.0000 0.0000 0.0000 37.8476
#
#
#
# Elastic Compliance Matrix: (Units=1/GPa)
#
#
# Indices 1 2 3 4 5 6 
#
# 1 0.008324 -0.002542 -0.004861 0.000000 0.000000 0.000000
# 2 -0.002542 0.010758 -0.002889 0.000000 0.000000 0.000000
# 3 -0.004861 -0.002889 0.022939 0.000000 0.000000 0.000000
# 4 0.000000 0.000000 0.000000 0.052699 0.000000 0.000000
# 5 0.000000 0.000000 0.000000 0.000000 0.027283 0.000000
# 6 0.000000 0.000000 0.000000 0.000000 0.000000 0.026422
#
#
# Mechanical properties :
#
#
# Convention : Reuss Voigt Hill
#
# Bulk Modulus (GPa) = 46.64965 60.71890 53.68427
# Shear Modulus (GPa) = 28.38411 32.83399 30.60905
#
# Velocity S-wave (km/s) = 3.45956 3.72087 3.59259
# Velocity P-wave (km/s) = 5.96896 6.63798 6.31234
#
# Compressibility (1/GPa) = 0.02143639
#
# Stress axis : x y z
#
# Youngs Moduli (GPa) = 120.12768 92.95606 43.59450
#
# Poissons Ratio (x) = 0.23633 0.21192
# Poissons Ratio (y) = 0.30540 0.12594
# Poissons Ratio (z) = 0.58396 0.26853
#
# Static dielectric constant tensor:
#      x y z
#    x 2.257640 0.000000 0.000000 
#    y 0.000000 1.949890 0.000000 
#    z 0.000000 0.000000 3.057750 
# 
# From -- ./inp_files/12688.got.cif
#   From: 2010.05.17/outbox.cif.g08.bks.cpg/sg20_7_cif.got.tgz:12688.got - 2010.06.03 22:52:26.
