data_PCOD9320952
_publ_section_title
;
Structure prediction by ZEFSAII (Michael W. Deem and Ramdas Pophale) SiO2 
 PCOD9320952
Probable space group: C 2 2 21
;
_chemical_formula_sum "Si O2"
_cell_formula_units_Z 36
_cell_length_a 14.335207
_cell_length_b 4.952193
_cell_length_c 20.664727
_cell_angle_alpha 90.000000
_cell_angle_beta 90.000000
_cell_angle_gamma 90.000000
_cell_volume 1467.003678
_symmetry_space_group_name_H-M "C 2 2 21"
_symmetry_group_IT_number 20
_symmetry_cell_setting 'orthorhombic'
loop_
_space_group_symop_operation_xyz
x,y,z
-x,-y,1/2+z
x,-y,-z
-x,y,1/2-z
1/2+x,1/2+y,z
1/2-x,1/2-y,1/2+z
1/2+x,1/2-y,-z
1/2-x,1/2+y,1/2-z
loop_
_atom_site_type_symbol
_atom_site_label
_atom_site_fract_x
_atom_site_fract_y
_atom_site_fract_z
Si Si1 0.308708 0.311540 0.736281
Si Si2 0.065129 0.453491 0.132521
Si Si3 0.845920 0.500000 0.500000
Si Si4 0.054650 0.941935 0.339714
Si Si5 0.839483 0.245696 0.960397
O O1 0.257518 0.069577 0.774975
O O2 0.392917 0.433468 0.778434
O O3 0.495635 0.300944 0.872396
O O4 0.151426 0.332968 0.172815
O O5 0.093706 0.569454 0.062600
O O6 0.018587 0.700950 0.171196
O O7 0.771838 0.281553 0.472181
O O8 0.129726 0.800990 0.387455
O O9 0.872508 0.500000 0.000000
O O10 0.882224 0.000000 0.000000
#
# Coordination Sequence:
#
# PCOD9320952 Si02
#       5
#     8   8   4   8   8
#     4  12  27  52  80 108 152 208 263 310 386 465
#     4  12  28  47  79 115 155 197 255 322 387 444
#     4  10  28  44  78 110 158 194 260 300 384 460
#     4  12  27  48  77 110 156 196 256 321 385 447
#     4  10  24  45  73 105 149 195 251 297 377 453
#
# _framework density 24.539816999999999
#
# number of rings (size 3 to 8) (size 9 to 14) (size 15 to 20)
#    0.667    0.000    0.000    6.000    7.778    3.556 
#    0.000    0.000    0.000    0.000    0.000    0.000 
#    0.000    0.000    0.000    0.000    0.000    0.000 
#
# Total GULP energy -100702.642944 kJ/mol
# GULP energy per Si atom -5594.591275 kJ/mol
# Density = 2.448396 g / cm^3
# Si number density = 24.539817 Si / 1000 Ang^3
#
#
#
# Elastic Constant Matrix: (Units=GPa)
#
#
# Indices 1 2 3 4 5 6 
#
# 1 104.6045 54.2604 54.1939 0.0000 0.0000 0.0000
# 2 54.2604 169.2630 35.8501 0.0000 0.0000 0.0000
# 3 54.1939 35.8501 129.7200 0.0000 0.0000 0.0000
# 4 0.0000 0.0000 0.0000 34.1152 0.0000 0.0000
# 5 0.0000 0.0000 0.0000 0.0000 36.5517 0.0000
# 6 0.0000 0.0000 0.0000 0.0000 0.0000 54.1772
#
#
#
# Elastic Compliance Matrix: (Units=1/GPa)
#
#
# Indices 1 2 3 4 5 6 
#
# 1 0.013835 -0.003411 -0.004837 0.000000 0.000000 0.000000
# 2 -0.003411 0.007116 -0.000542 0.000000 0.000000 0.000000
# 3 -0.004837 -0.000542 0.009880 0.000000 0.000000 0.000000
# 4 0.000000 0.000000 0.000000 0.029312 0.000000 0.000000
# 5 0.000000 0.000000 0.000000 0.000000 0.027358 0.000000
# 6 0.000000 0.000000 0.000000 0.000000 0.000000 0.018458
#
#
# Mechanical properties :
#
#
# Convention : Reuss Voigt Hill
#
# Bulk Modulus (GPa) = 75.46452 76.91070 76.18761
# Shear Modulus (GPa) = 39.07586 42.25436 40.66511
#
# Velocity S-wave (km/s) = 3.99475 4.15404 4.07517
# Velocity P-wave (km/s) = 7.21776 7.37681 7.29772
#
# Compressibility (1/GPa) = 0.01325126
#
# Stress axis : x y z
#
# Youngs Moduli (GPa) = 72.27979 140.52780 101.21863
#
# Poissons Ratio (x) = 0.47928 0.48964
# Poissons Ratio (y) = 0.24651 0.05484
# Poissons Ratio (z) = 0.34965 0.07614
#
# Static dielectric constant tensor:
#      x y z
#    x 2.027270 0.000000 0.000000 
#    y 0.000000 1.872660 0.000000 
#    z 0.000000 0.000000 1.941990 
# 
# From -- ./inp_files/27386.got.cif
#   From: 2010.05.17/outbox.cif.g08.bks.cpg/sg20_14_cif.got.tgz:27386.got - 2010.06.03 22:52:26.
