data_PCOD9320354
_publ_section_title
;
Structure prediction by ZEFSAII (Michael W. Deem and Ramdas Pophale) SiO2 
 PCOD9320354
Probable space group: C 2 2 21
;
_chemical_formula_sum "Si O2"
_cell_formula_units_Z 52
_cell_length_a 23.015098
_cell_length_b 5.136160
_cell_length_c 20.165169
_cell_angle_alpha 90.000000
_cell_angle_beta 90.000000
_cell_angle_gamma 90.000000
_cell_volume 2383.709014
_symmetry_space_group_name_H-M "C 2 2 21"
_symmetry_group_IT_number 20
_symmetry_cell_setting 'orthorhombic'
loop_
_space_group_symop_operation_xyz
x,y,z
-x,-y,1/2+z
x,-y,-z
-x,y,1/2-z
1/2+x,1/2+y,z
1/2-x,1/2-y,1/2+z
1/2+x,1/2-y,-z
1/2-x,1/2+y,1/2-z
loop_
_atom_site_type_symbol
_atom_site_label
_atom_site_fract_x
_atom_site_fract_y
_atom_site_fract_z
Si Si1 0.773997 0.141675 0.582397
Si Si2 0.892107 0.271206 0.608331
Si Si3 0.336922 0.276370 0.661231
Si Si4 0.692750 0.500000 0.500000
Si Si5 0.811557 0.253188 0.189852
Si Si6 0.519057 0.750655 0.546544
Si Si7 0.629904 0.267485 0.372605
O O1 0.837108 0.238426 0.559142
O O2 0.728968 0.264047 0.532263
O O3 0.750510 0.260227 0.652499
O O4 0.787891 0.845077 0.605227
O O5 0.879480 0.544057 0.642578
O O6 0.953205 0.251372 0.573158
O O7 0.876895 0.036331 0.658712
O O8 0.307410 0.226527 0.731513
O O9 0.656241 0.359215 0.443007
O O10 0.843041 0.501531 0.155735
O O11 0.850391 0.000645 0.174945
O O12 0.528134 0.500000 0.500000
O O13 0.562206 0.756468 0.609461
O O14 0.529616 0.000000 0.500000
#
# Coordination Sequence:
#
# PCOD9320354 Si02
#       7
#     8   8   8   4   8   8   8
#     4   9  25  38  72  94 144 174 225 279 350 415
#     4  10  24  42  64 100 126 178 230 268 340 408
#     4  10  23  43  66 101 137 177 227 277 347 413
#     4  10  22  46  68 108 140 176 234 300 348 420
#     4  11  24  42  70 101 137 178 230 286 349 410
#     4  12  25  46  70  92 138 184 230 284 343 424
#     4  11  25  43  67 103 131 181 231 289 347 406
#
# _framework density 21.814741000000001
#
# number of rings (size 3 to 8) (size 9 to 14) (size 15 to 20)
#    0.923    0.615    0.769    2.769    9.692    0.000 
#    2.769    4.615    0.000    0.000    0.000    0.000 
#    0.000    0.000    0.000    0.000    0.000    0.000 
#
# Total GULP energy -145145.442451 kJ/mol
# GULP energy per Si atom -5582.517017 kJ/mol
# Density = 2.176509 g / cm^3
# Si number density = 21.814741 Si / 1000 Ang^3
#
#
#
# Elastic Constant Matrix: (Units=GPa)
#
#
# Indices 1 2 3 4 5 6 
#
# 1 94.2132 25.2834 7.4410 0.0000 0.0000 0.0000
# 2 25.2834 151.0199 29.1220 0.0000 0.0000 0.0000
# 3 7.4410 29.1220 85.1318 0.0000 0.0000 0.0000
# 4 0.0000 0.0000 0.0000 30.9488 0.0000 0.0000
# 5 0.0000 0.0000 0.0000 0.0000 19.2960 0.0000
# 6 0.0000 0.0000 0.0000 0.0000 0.0000 15.6024
#
#
#
# Elastic Compliance Matrix: (Units=1/GPa)
#
#
# Indices 1 2 3 4 5 6 
#
# 1 0.011124 -0.001793 -0.000359 0.000000 0.000000 0.000000
# 2 -0.001793 0.007378 -0.002367 0.000000 0.000000 0.000000
# 3 -0.000359 -0.002367 0.012588 0.000000 0.000000 0.000000
# 4 0.000000 0.000000 0.000000 0.032311 0.000000 0.000000
# 5 0.000000 0.000000 0.000000 0.000000 0.051824 0.000000
# 6 0.000000 0.000000 0.000000 0.000000 0.000000 0.064093
#
#
# Mechanical properties :
#
#
# Convention : Reuss Voigt Hill
#
# Bulk Modulus (GPa) = 45.34891 50.45084 47.89988
# Shear Modulus (GPa) = 25.54840 31.07067 28.30953
#
# Velocity S-wave (km/s) = 3.42592 3.77808 3.60630
# Velocity P-wave (km/s) = 6.04008 6.49685 6.27262
#
# Compressibility (1/GPa) = 0.02205125
#
# Stress axis : x y z
#
# Youngs Moduli (GPa) = 89.89753 135.53189 79.44286
#
# Poissons Ratio (x) = 0.24302 0.02851
# Poissons Ratio (y) = 0.16120 0.18806
# Poissons Ratio (z) = 0.03226 0.32084
#
# Static dielectric constant tensor:
#      x y z
#    x 1.805600 0.000000 0.000000 
#    y 0.000000 1.847030 0.000000 
#    z 0.000000 0.000000 1.807110 
# 
# From -- ./inp_files/27899.got.cif
#   From: 2010.05.17/outbox.cif.g08.bks.cpg/sg20_14_cif.got.tgz:27899.got - 2010.06.03 22:52:26.
