data_PCOD9320954
_publ_section_title
;
Structure prediction by ZEFSAII (Michael W. Deem and Ramdas Pophale) SiO2 
 PCOD9320954
Probable space group: C 2 2 21
;
_chemical_formula_sum "Si O2"
_cell_formula_units_Z 48
_cell_length_a 17.185730
_cell_length_b 8.129913
_cell_length_c 15.162874
_cell_angle_alpha 90.000000
_cell_angle_beta 90.000000
_cell_angle_gamma 90.000000
_cell_volume 2118.533855
_symmetry_space_group_name_H-M "C 2 2 21"
_symmetry_group_IT_number 20
_symmetry_cell_setting 'orthorhombic'
loop_
_space_group_symop_operation_xyz
x,y,z
-x,-y,1/2+z
x,-y,-z
-x,y,1/2-z
1/2+x,1/2+y,z
1/2-x,1/2-y,1/2+z
1/2+x,1/2-y,-z
1/2-x,1/2+y,1/2-z
loop_
_atom_site_type_symbol
_atom_site_label
_atom_site_fract_x
_atom_site_fract_y
_atom_site_fract_z
Si Si1 0.780249 0.455256 0.768006
Si Si2 0.017091 0.106150 0.348490
Si Si3 0.748831 0.387892 0.419208
Si Si4 0.604040 0.258530 0.336130
Si Si5 0.097270 0.564851 0.598253
Si Si6 0.846611 0.898140 0.584973
O O1 0.758446 0.521245 0.673375
O O2 0.841039 0.301991 0.755175
O O3 0.829890 0.573957 0.833376
O O4 0.703491 0.419206 0.825340
O O5 0.935807 0.067769 0.395296
O O6 0.000000 0.170077 0.250000
O O7 0.058332 0.256489 0.399060
O O8 0.063072 0.933688 0.335979
O O9 0.730072 0.500000 0.500000
O O10 0.674000 0.271272 0.407509
O O11 0.827636 0.289969 0.438085
O O12 0.553126 0.097246 0.359541
O O13 0.112978 0.500000 0.500000
O O14 0.819487 0.000000 0.500000
#
# Coordination Sequence:
#
# PCOD9320954 Si02
#       6
#     8   8   8   8   8   8
#     4   9  22  48  69 101 140 183 239 289 349 417
#     4  12  26  45  73 102 142 191 233 289 357 421
#     4  11  24  43  74 105 138 186 235 292 359 418
#     4   9  25  44  71 103 135 190 244 280 346 428
#     4  10  24  45  76  97 140 189 245 281 344 429
#     4  11  26  43  67 107 144 177 230 302 358 405
#
# _framework density 22.657177999999998
#
# number of rings (size 3 to 8) (size 9 to 14) (size 15 to 20)
#    1.000    0.667    0.000    2.500    4.667    6.667 
#    0.000    0.000    0.000    0.000    0.000    0.000 
#    0.000    0.000    0.000    0.000    0.000    0.000 
#
# Total GULP energy -133713.653066 kJ/mol
# GULP energy per Si atom -5571.402211 kJ/mol
# Density = 2.260561 g / cm^3
# Si number density = 22.657178 Si / 1000 Ang^3
#
#
#
# Elastic Constant Matrix: (Units=GPa)
#
#
# Indices 1 2 3 4 5 6 
#
# 1 82.0944 38.3046 -1.0165 0.0000 0.0000 0.0000
# 2 38.3046 119.7208 18.0372 0.0000 0.0000 0.0000
# 3 -1.0165 18.0372 89.6470 0.0000 0.0000 0.0000
# 4 0.0000 0.0000 0.0000 31.7978 0.0000 0.0000
# 5 0.0000 0.0000 0.0000 0.0000 15.3785 0.0000
# 6 0.0000 0.0000 0.0000 0.0000 0.0000 -564.3728
#
#
#
# Elastic Compliance Matrix: (Units=1/GPa)
#
#
# Indices 1 2 3 4 5 6 
#
# 1 0.014428 -0.004786 0.001127 0.000000 0.000000 0.000000
# 2 -0.004786 0.010201 -0.002107 0.000000 0.000000 0.000000
# 3 0.001127 -0.002107 0.011592 0.000000 0.000000 0.000000
# 4 0.000000 0.000000 0.000000 0.031449 0.000000 0.000000
# 5 0.000000 0.000000 0.000000 0.000000 0.065026 0.000000
# 6 0.000000 0.000000 0.000000 0.000000 0.000000 -0.001772
#
#
# Mechanical properties :
#
#
# Convention : Reuss Voigt Hill
#
# Bulk Modulus (GPa) = 40.50453 44.67921 42.59187
# Shear Modulus (GPa) = 33.18159 -87.69684 -27.25763
#
# Velocity S-wave (km/s) = 3.83104 -6.22816 -3.47226
# Velocity P-wave (km/s) = 6.12251 5.65310 1.66246
#
# Compressibility (1/GPa) = 0.02468859
#
# Stress axis : x y z
#
# Youngs Moduli (GPa) = 69.30888 98.02512 86.26988
#
# Poissons Ratio (x) = 0.46915 -0.09719
# Poissons Ratio (y) = 0.33171 0.18176
# Poissons Ratio (z) = -0.07808 0.20652
#
# Static dielectric constant tensor:
#      x y z
#    x 1.852740 0.000000 0.000000 
#    y 0.000000 2.007590 0.000000 
#    z 0.000000 0.000000 3.510690 
# 
# From -- ./inp_files/21257.got.cif
#   From: 2010.05.17/outbox.cif.g08.bks.cpg/sg20_11_cif.got.tgz:21257.got - 2010.06.03 22:52:26.
