data_PCOD9320895
_publ_section_title
;
Structure prediction by ZEFSAII (Michael W. Deem and Ramdas Pophale) SiO2 
 PCOD9320895
Probable space group: C 2 2 21
;
_chemical_formula_sum "Si O2"
_cell_formula_units_Z 40
_cell_length_a 8.943207
_cell_length_b 27.633337
_cell_length_c 7.994290
_cell_angle_alpha 90.000000
_cell_angle_beta 90.000000
_cell_angle_gamma 90.000000
_cell_volume 1975.634107
_symmetry_space_group_name_H-M "C 2 2 21"
_symmetry_group_IT_number 20
_symmetry_cell_setting 'orthorhombic'
loop_
_space_group_symop_operation_xyz
x,y,z
-x,-y,1/2+z
x,-y,-z
-x,y,1/2-z
1/2+x,1/2+y,z
1/2-x,1/2-y,1/2+z
1/2+x,1/2-y,-z
1/2-x,1/2+y,1/2-z
loop_
_atom_site_type_symbol
_atom_site_label
_atom_site_fract_x
_atom_site_fract_y
_atom_site_fract_z
Si Si1 0.671373 0.293179 0.202138
Si Si2 0.169668 0.803093 0.808946
Si Si3 0.814924 0.090976 0.385255
Si Si4 0.178131 0.606906 0.750256
Si Si5 0.356266 0.445533 0.952566
O O1 0.500000 0.299721 0.250000
O O2 0.729294 0.239662 0.240146
O O3 0.769194 0.337135 0.275818
O O4 0.677541 0.298350 0.005789
O O5 0.215992 0.858683 0.786273
O O6 0.000000 0.796394 0.750000
O O7 0.732393 0.090441 0.563823
O O8 0.785450 0.053275 0.234987
O O9 0.990248 0.085279 0.434385
O O10 0.000000 0.603817 0.750000
O O11 0.254196 0.576647 0.900580
O O12 0.398799 0.500000 0.000000
#
# Coordination Sequence:
#
# PCOD9320895 Si02
#       5
#     8   8   8   8   8
#     4  11  24  39  67  96 132 184 227 278 332 412
#     4  11  21  41  62  97 134 173 222 280 345 398
#     4  10  24  44  70 105 133 176 232 290 336 415
#     4  11  25  45  66 101 144 181 226 283 347 415
#     4  11  24  44  75 102 131 183 233 291 349 410
#
# _framework density 20.246666000000001
#
# number of rings (size 3 to 8) (size 9 to 14) (size 15 to 20)
#    0.000    1.200    2.000    4.800    8.400    2.400 
#    3.600    0.000    0.000    0.000    0.000    0.000 
#    0.000    0.000    0.000    0.000    0.000    0.000 
#
# Total GULP energy -111611.134450 kJ/mol
# GULP energy per Si atom -5580.556723 kJ/mol
# Density = 2.020058 g / cm^3
# Si number density = 20.246666 Si / 1000 Ang^3
#
#
#
# Elastic Constant Matrix: (Units=GPa)
#
#
# Indices 1 2 3 4 5 6 
#
# 1 100.6078 14.1730 40.2271 0.0000 0.0000 0.0000
# 2 14.1730 64.3932 28.5356 0.0000 0.0000 0.0000
# 3 40.2271 28.5356 81.4559 0.0000 0.0000 0.0000
# 4 0.0000 0.0000 0.0000 37.8389 0.0000 0.0000
# 5 0.0000 0.0000 0.0000 0.0000 26.0944 0.0000
# 6 0.0000 0.0000 0.0000 0.0000 0.0000 15.4844
#
#
#
# Elastic Compliance Matrix: (Units=1/GPa)
#
#
# Indices 1 2 3 4 5 6 
#
# 1 0.012385 -0.000018 -0.006110 0.000000 0.000000 0.000000
# 2 -0.000018 0.018383 -0.006431 0.000000 0.000000 0.000000
# 3 -0.006110 -0.006431 0.017547 0.000000 0.000000 0.000000
# 4 0.000000 0.000000 0.000000 0.026428 0.000000 0.000000
# 5 0.000000 0.000000 0.000000 0.000000 0.038322 0.000000
# 6 0.000000 0.000000 0.000000 0.000000 0.000000 0.064581
#
#
# Mechanical properties :
#
#
# Convention : Reuss Voigt Hill
#
# Bulk Modulus (GPa) = 43.10934 45.81425 44.46179
# Shear Modulus (GPa) = 23.75321 26.78497 25.26909
#
# Velocity S-wave (km/s) = 3.42890 3.64116 3.53662
# Velocity P-wave (km/s) = 6.08398 6.35252 6.21970
#
# Compressibility (1/GPa) = 0.02319683
#
# Stress axis : x y z
#
# Youngs Moduli (GPa) = 80.74145 54.39662 56.99001
#
# Poissons Ratio (x) = 0.00100 0.34821
# Poissons Ratio (y) = 0.00148 0.36650
# Poissons Ratio (z) = 0.49333 0.34983
#
# Static dielectric constant tensor:
#      x y z
#    x 1.676410 0.000000 0.000000 
#    y 0.000000 2.068240 0.000000 
#    z 0.000000 0.000000 1.737990 
# 
# From -- ./inp_files/6102.got.cif
#   From: 2010.05.17/outbox.cif.g08.bks.cpg/sg20_4_cif.got.tgz:6102.got - 2010.06.03 22:52:26.
