data_PCOD9320131
_publ_section_title
;
Structure prediction by ZEFSAII (Michael W. Deem and Ramdas Pophale) SiO2 
 PCOD9320131
Probable space group: C 2 2 21
;
_chemical_formula_sum "Si O2"
_cell_formula_units_Z 60
_cell_length_a 18.832446
_cell_length_b 7.849561
_cell_length_c 17.924678
_cell_angle_alpha 90.000000
_cell_angle_beta 90.000000
_cell_angle_gamma 90.000000
_cell_volume 2649.741223
_symmetry_space_group_name_H-M "C 2 2 21"
_symmetry_group_IT_number 20
_symmetry_cell_setting 'orthorhombic'
loop_
_space_group_symop_operation_xyz
x,y,z
-x,-y,1/2+z
x,-y,-z
-x,y,1/2-z
1/2+x,1/2+y,z
1/2-x,1/2-y,1/2+z
1/2+x,1/2-y,-z
1/2-x,1/2+y,1/2-z
loop_
_atom_site_type_symbol
_atom_site_label
_atom_site_fract_x
_atom_site_fract_y
_atom_site_fract_z
Si Si1 0.908105 0.203549 0.145861
Si Si2 0.338742 0.349594 0.172127
Si Si3 0.415128 0.034585 0.241264
Si Si4 0.045991 0.252363 0.953149
Si Si5 0.111848 0.314771 0.520484
Si Si6 0.318318 0.832790 0.350809
Si Si7 0.439625 0.590578 0.381501
Si Si8 0.163435 0.500000 0.000000
O O1 0.895221 0.389888 0.179665
O O2 0.991239 0.162103 0.159658
O O3 0.863525 0.045301 0.177632
O O4 0.893292 0.212069 0.057020
O O5 0.350889 0.286042 0.086705
O O6 0.256052 0.326450 0.191391
O O7 0.386122 0.219177 0.219357
O O8 0.500000 0.038021 0.250000
O O9 0.372950 0.963316 0.312491
O O10 0.969362 0.339852 0.950294
O O11 0.053128 0.110712 0.889991
O O12 0.051559 0.164755 0.034601
O O13 0.111083 0.377825 0.954506
O O14 0.142563 0.500000 0.500000
O O15 0.364422 0.659705 0.353734
O O16 0.299533 0.892648 0.435335
#
# Coordination Sequence:
#
# PCOD9320131 Si02
#       8
#     8   8   8   8   8   8   8   4
#     4  11  23  44  75 103 140 190 246 299 350 436
#     4  12  28  47  72 109 147 190 238 302 376 431
#     4  12  28  51  73 102 145 199 247 294 358 441
#     4   9  17  32  65 102 133 175 232 291 353 404
#     4  11  20  39  73 106 146 181 243 306 360 418
#     4  11  27  48  68 103 148 185 242 300 374 431
#     4   9  18  39  64  97 133 181 234 293 342 421
#     4  10  22  42  72  98 146 188 232 306 364 424
#
# _framework density 22.643719999999998
#
# number of rings (size 3 to 8) (size 9 to 14) (size 15 to 20)
#    0.000    1.333    4.667    0.400    5.600    0.533 
#    9.600    0.000    0.000    0.000    0.000    0.000 
#    0.000    0.000    0.000    0.000    0.000    0.000 
#
# Total GULP energy -167711.233880 kJ/mol
# GULP energy per Si atom -5590.374463 kJ/mol
# Density = 2.259218 g / cm^3
# Si number density = 22.643720 Si / 1000 Ang^3
#
#
#
# Elastic Constant Matrix: (Units=GPa)
#
#
# Indices 1 2 3 4 5 6 
#
# 1 119.7386 16.9972 11.0033 0.0000 0.0000 0.0000
# 2 16.9972 70.6633 7.4430 0.0000 0.0000 0.0000
# 3 11.0033 7.4430 78.8022 0.0000 0.0000 0.0000
# 4 0.0000 0.0000 0.0000 23.4319 0.0000 0.0000
# 5 0.0000 0.0000 0.0000 0.0000 17.3457 0.0000
# 6 0.0000 0.0000 0.0000 0.0000 0.0000 10.5751
#
#
#
# Elastic Compliance Matrix: (Units=1/GPa)
#
#
# Indices 1 2 3 4 5 6 
#
# 1 0.008729 -0.001991 -0.001031 0.000000 0.000000 0.000000
# 2 -0.001991 0.014748 -0.001115 0.000000 0.000000 0.000000
# 3 -0.001031 -0.001115 0.012939 0.000000 0.000000 0.000000
# 4 0.000000 0.000000 0.000000 0.042677 0.000000 0.000000
# 5 0.000000 0.000000 0.000000 0.000000 0.057651 0.000000
# 6 0.000000 0.000000 0.000000 0.000000 0.000000 0.094562
#
#
# Mechanical properties :
#
#
# Convention : Reuss Voigt Hill
#
# Bulk Modulus (GPa) = 35.53339 37.78789 36.66064
# Shear Modulus (GPa) = 20.08353 25.85459 22.96906
#
# Velocity S-wave (km/s) = 2.98138 3.38272 3.18837
# Velocity P-wave (km/s) = 5.25147 5.65520 5.45707
#
# Compressibility (1/GPa) = 0.02814255
#
# Stress axis : x y z
#
# Youngs Moduli (GPa) = 114.56223 67.80587 77.28424
#
# Poissons Ratio (x) = 0.13500 0.07966
# Poissons Ratio (y) = 0.22810 0.08617
# Poissons Ratio (z) = 0.11809 0.07560
#
# Static dielectric constant tensor:
#      x y z
#    x 1.791400 0.000000 0.000000 
#    y 0.000000 1.820760 0.000000 
#    z 0.000000 0.000000 1.893660 
# 
# From -- ./inp_files/25291.got.cif
#   From: 2010.05.17/outbox.cif.g08.bks.cpg/sg20_13_cif.got.tgz:25291.got - 2010.06.03 22:52:26.
