data_PCOD9320794
_publ_section_title
;
Structure prediction by ZEFSAII (Michael W. Deem and Ramdas Pophale) SiO2 
 PCOD9320794
Probable space group: C 2 2 21
;
_chemical_formula_sum "Si O2"
_cell_formula_units_Z 64
_cell_length_a 16.574313
_cell_length_b 21.193894
_cell_length_c 9.551235
_cell_angle_alpha 90.000000
_cell_angle_beta 90.000000
_cell_angle_gamma 90.000000
_cell_volume 3355.102747
_symmetry_space_group_name_H-M "C 2 2 21"
_symmetry_group_IT_number 20
_symmetry_cell_setting 'orthorhombic'
loop_
_space_group_symop_operation_xyz
x,y,z
-x,-y,1/2+z
x,-y,-z
-x,y,1/2-z
1/2+x,1/2+y,z
1/2-x,1/2-y,1/2+z
1/2+x,1/2-y,-z
1/2-x,1/2+y,1/2-z
loop_
_atom_site_type_symbol
_atom_site_label
_atom_site_fract_x
_atom_site_fract_y
_atom_site_fract_z
Si Si1 0.089782 0.733582 0.696800
Si Si2 0.246486 0.571644 0.053505
Si Si3 0.905369 0.403638 0.095691
Si Si4 0.347721 0.683743 0.976302
Si Si5 0.808256 0.229414 0.462186
Si Si6 0.297772 0.120604 0.147357
Si Si7 0.412390 0.935301 0.412840
Si Si8 0.405389 0.236614 0.268975
O O1 0.116988 0.668767 0.625630
O O2 0.089415 0.791051 0.589446
O O3 0.152645 0.749136 0.817195
O O4 0.000000 0.722328 0.750000
O O5 0.234579 0.581135 0.219784
O O6 0.253715 0.500000 0.000000
O O7 0.320802 0.612984 0.000763
O O8 0.164974 0.598510 0.979048
O O9 0.898547 0.440026 0.244890
O O10 0.000752 0.404389 0.062499
O O11 0.850450 0.420310 0.962734
O O12 0.267713 0.726506 0.000694
O O13 0.380954 0.704164 0.827618
O O14 0.772755 0.159210 0.433916
O O15 0.875559 0.242801 0.578593
O O16 0.355385 0.175806 0.212775
O O17 0.417070 0.000000 0.500000
O O18 0.500000 0.223629 0.250000
#
# Coordination Sequence:
#
# PCOD9320794 Si02
#       8
#     8   8   8   8   8   8   8   8
#     4  12  21  35  60  96 125 163 202 266 327 380
#     4  11  24  43  63  86 121 172 218 259 309 377
#     4  11  23  38  62  90 127 167 218 255 314 366
#     4  11  21  38  60  89 125 164 207 262 324 375
#     4  11  21  36  58  91 135 158 206 259 321 380
#     4  11  24  37  60  94 127 170 212 267 312 377
#     4  10  24  41  61  87 125 178 219 258 300 373
#     4  11  23  35  60  98 130 161 201 262 332 384
#
# _framework density 19.075420999999999
#
# number of rings (size 3 to 8) (size 9 to 14) (size 15 to 20)
#    0.000    1.000    6.250    2.250    3.500    4.000 
#    0.000    0.000    0.000    0.750    0.000    0.000 
#    0.000    0.000    0.000    0.000    0.000    0.000 
#
# Total GULP energy -178660.515601 kJ/mol
# GULP energy per Si atom -5583.141113 kJ/mol
# Density = 1.903200 g / cm^3
# Si number density = 19.075421 Si / 1000 Ang^3
#
#
#
# Elastic Constant Matrix: (Units=GPa)
#
#
# Indices 1 2 3 4 5 6 
#
# 1 29.1714 16.3750 0.3048 0.0000 0.0000 0.0000
# 2 16.3750 84.0714 43.2392 0.0000 0.0000 0.0000
# 3 0.3048 43.2392 78.3525 0.0000 0.0000 0.0000
# 4 0.0000 0.0000 0.0000 29.0502 0.0000 0.0000
# 5 0.0000 0.0000 0.0000 0.0000 34.3924 0.0000
# 6 0.0000 0.0000 0.0000 0.0000 0.0000 11.7077
#
#
#
# Elastic Compliance Matrix: (Units=1/GPa)
#
#
# Indices 1 2 3 4 5 6 
#
# 1 0.040310 -0.010850 0.005831 0.000000 0.000000 0.000000
# 2 -0.010850 0.019529 -0.010735 0.000000 0.000000 0.000000
# 3 0.005831 -0.010735 0.018664 0.000000 0.000000 0.000000
# 4 0.000000 0.000000 0.000000 0.034423 0.000000 0.000000
# 5 0.000000 0.000000 0.000000 0.000000 0.029076 0.000000
# 6 0.000000 0.000000 0.000000 0.000000 0.000000 0.085414
#
#
# Mechanical properties :
#
#
# Convention : Reuss Voigt Hill
#
# Bulk Modulus (GPa) = 21.27899 34.60371 27.94135
# Shear Modulus (GPa) = 18.20890 23.80847 21.00869
#
# Velocity S-wave (km/s) = 3.09297 3.53671 3.32226
# Velocity P-wave (km/s) = 4.89231 5.90403 5.42182
#
# Compressibility (1/GPa) = 0.04699471
#
# Stress axis : x y z
#
# Youngs Moduli (GPa) = 24.80775 51.20524 53.57804
#
# Poissons Ratio (x) = 0.55560 -0.31241
# Poissons Ratio (y) = 0.26917 0.57517
# Poissons Ratio (z) = -0.14465 0.54969
#
# Static dielectric constant tensor:
#      x y z
#    x 1.943920 0.000000 0.000000 
#    y 0.000000 1.676640 0.000000 
#    z 0.000000 0.000000 1.760950 
# 
# From -- ./inp_files/9633.got.cif
#   From: 2010.05.17/outbox.cif.g08.bks.cpg/sg20_5_cif.got.tgz:9633.got - 2010.06.03 22:52:26.
