data_PCOD9320647
_publ_section_title
;
Structure prediction by ZEFSAII (Michael W. Deem and Ramdas Pophale) SiO2 
 PCOD9320647
Probable space group: C 2 2 21
;
_chemical_formula_sum "Si O2"
_cell_formula_units_Z 40
_cell_length_a 7.335810
_cell_length_b 16.136662
_cell_length_c 13.413139
_cell_angle_alpha 90.000000
_cell_angle_beta 90.000000
_cell_angle_gamma 90.000000
_cell_volume 1587.786854
_symmetry_space_group_name_H-M "C 2 2 21"
_symmetry_group_IT_number 20
_symmetry_cell_setting 'orthorhombic'
loop_
_space_group_symop_operation_xyz
x,y,z
-x,-y,1/2+z
x,-y,-z
-x,y,1/2-z
1/2+x,1/2+y,z
1/2-x,1/2-y,1/2+z
1/2+x,1/2-y,-z
1/2-x,1/2+y,1/2-z
loop_
_atom_site_type_symbol
_atom_site_label
_atom_site_fract_x
_atom_site_fract_y
_atom_site_fract_z
Si Si1 0.730586 0.627069 0.687622
Si Si2 0.304632 0.443855 0.804991
Si Si3 0.656445 0.771698 0.845824
Si Si4 0.011887 0.915186 0.998223
Si Si5 0.745870 0.236096 0.440573
O O1 0.785414 0.533728 0.717349
O O2 0.309941 0.689482 0.720904
O O3 0.567187 0.607566 0.606873
O O4 0.847339 0.689219 0.618479
O O5 0.500000 0.444420 0.750000
O O6 0.206005 0.356169 0.787424
O O7 0.348759 0.438091 0.922833
O O8 0.450140 0.777207 0.888762
O O9 0.776315 0.764529 0.945464
O O10 0.136414 0.845735 0.949751
O O11 0.125765 0.000000 0.000000
#
# Coordination Sequence:
#
# PCOD9320647 Si02
#       5
#     8   8   8   8   8
#     4  11  24  46  77 102 144 195 249 297 365 442
#     4  11  23  44  77 107 135 193 247 298 367 450
#     4  12  25  43  77 109 150 190 244 305 365 436
#     4  10  23  44  71 102 143 196 249 298 367 435
#     4  12  23  43  70 106 143 191 237 305 362 423
#
# _framework density 25.192298000000001
#
# number of rings (size 3 to 8) (size 9 to 14) (size 15 to 20)
#    0.000    0.800    4.000    3.000    2.800    0.000 
#    3.600    0.000    0.000    2.400    0.000    0.000 
#    0.000    0.000    0.000    0.000    0.000    0.000 
#
# Total GULP energy -111590.139534 kJ/mol
# GULP energy per Si atom -5579.506977 kJ/mol
# Density = 2.513496 g / cm^3
# Si number density = 25.192298 Si / 1000 Ang^3
#
#
#
# Elastic Constant Matrix: (Units=GPa)
#
#
# Indices 1 2 3 4 5 6 
#
# 1 71.7962 43.5821 20.6846 0.0000 0.0000 0.0000
# 2 43.5821 270.8323 43.1612 0.0000 0.0000 0.0000
# 3 20.6846 43.1612 141.3676 0.0000 0.0000 0.0000
# 4 0.0000 0.0000 0.0000 54.3091 0.0000 0.0000
# 5 0.0000 0.0000 0.0000 0.0000 37.6945 0.0000
# 6 0.0000 0.0000 0.0000 0.0000 0.0000 35.3696
#
#
#
# Elastic Compliance Matrix: (Units=1/GPa)
#
#
# Indices 1 2 3 4 5 6 
#
# 1 0.015778 -0.002282 -0.001612 0.000000 0.000000 0.000000
# 2 -0.002282 0.004211 -0.000952 0.000000 0.000000 0.000000
# 3 -0.001612 -0.000952 0.007600 0.000000 0.000000 0.000000
# 4 0.000000 0.000000 0.000000 0.018413 0.000000 0.000000
# 5 0.000000 0.000000 0.000000 0.000000 0.026529 0.000000
# 6 0.000000 0.000000 0.000000 0.000000 0.000000 0.028273
#
#
# Mechanical properties :
#
#
# Convention : Reuss Voigt Hill
#
# Bulk Modulus (GPa) = 55.87260 77.65022 66.76141
# Shear Modulus (GPa) = 42.93245 50.57918 46.75581
#
# Velocity S-wave (km/s) = 4.13266 4.48562 4.31276
# Velocity P-wave (km/s) = 6.70809 7.59722 7.16645
#
# Compressibility (1/GPa) = 0.01789786
#
# Stress axis : x y z
#
# Youngs Moduli (GPa) = 63.37947 237.45939 131.57538
#
# Poissons Ratio (x) = 0.54191 0.21208
# Poissons Ratio (y) = 0.14464 0.12524
# Poissons Ratio (z) = 0.10216 0.22602
#
# Static dielectric constant tensor:
#      x y z
#    x 2.036110 0.000000 0.000000 
#    y 0.000000 2.198010 0.000000 
#    z 0.000000 0.000000 2.059900 
# 
# From -- ./inp_files/23559.got.cif
#   From: 2010.05.17/outbox.cif.g08.bks.cpg/sg20_12_cif.got.tgz:23559.got - 2010.06.03 22:52:26.
