data_PCOD9320220
_publ_section_title
;
Structure prediction by ZEFSAII (Michael W. Deem and Ramdas Pophale) SiO2 
 PCOD9320220
Probable space group: C 2 2 21
;
_chemical_formula_sum "Si O2"
_cell_formula_units_Z 48
_cell_length_a 11.679910
_cell_length_b 22.856866
_cell_length_c 8.557499
_cell_angle_alpha 90.000000
_cell_angle_beta 90.000000
_cell_angle_gamma 90.000000
_cell_volume 2284.562457
_symmetry_space_group_name_H-M "C 2 2 21"
_symmetry_group_IT_number 20
_symmetry_cell_setting 'orthorhombic'
loop_
_space_group_symop_operation_xyz
x,y,z
-x,-y,1/2+z
x,-y,-z
-x,y,1/2-z
1/2+x,1/2+y,z
1/2-x,1/2-y,1/2+z
1/2+x,1/2-y,-z
1/2-x,1/2+y,1/2-z
loop_
_atom_site_type_symbol
_atom_site_label
_atom_site_fract_x
_atom_site_fract_y
_atom_site_fract_z
Si Si1 0.916425 0.317560 0.933125
Si Si2 0.500000 0.413662 0.250000
Si Si3 0.650188 0.871324 0.984557
Si Si4 0.500000 0.659576 0.250000
Si Si5 0.619676 0.311715 0.437703
Si Si6 0.000000 0.355923 0.250000
Si Si7 0.121513 0.000000 0.000000
Si Si8 0.763638 0.091551 0.295844
O O1 0.955306 0.339901 0.602478
O O2 0.888578 0.253325 0.870121
O O3 0.820372 0.364268 0.886143
O O4 0.927151 0.318565 0.124615
O O5 0.587878 0.367128 0.328770
O O6 0.548125 0.455397 0.110313
O O7 0.706298 0.918641 0.872356
O O8 0.750372 0.824411 0.011319
O O9 0.590756 0.890984 0.144844
O O10 0.532214 0.689737 0.414319
O O11 0.386638 0.621823 0.276551
O O12 0.206054 0.034220 0.113193
#
# Coordination Sequence:
#
# PCOD9320220 Si02
#       8
#     8   4   8   4   8   4   4   8
#     4  10  23  41  69 107 153 184 243 295 378 442
#     4  12  29  44  73 102 145 197 252 314 374 442
#     4   9  23  40  67 102 147 190 237 292 365 440
#     4  10  22  44  62 106 142 189 234 293 382 430
#     4  11  24  40  70 108 146 189 239 305 378 442
#     4   8  21  40  65 100 151 186 228 289 360 460
#     4  12  28  48  72 100 148 198 264 300 370 444
#     4  11  23  45  72  98 147 191 247 304 359 437
#
# _framework density 21.010587999999998
#
# number of rings (size 3 to 8) (size 9 to 14) (size 15 to 20)
#    1.000    0.667    1.667    1.500    9.333    1.333 
#    0.000    0.000   11.000    0.000    0.000    0.000 
#    0.000    0.000    0.000    0.000    0.000    0.000 
#
# Total GULP energy -133661.021124 kJ/mol
# GULP energy per Si atom -5569.209213 kJ/mol
# Density = 2.096277 g / cm^3
# Si number density = 21.010588 Si / 1000 Ang^3
#
#
#
# Elastic Constant Matrix: (Units=GPa)
#
#
# Indices 1 2 3 4 5 6 
#
# 1 134.4513 26.7013 32.7377 0.0000 0.0000 0.0000
# 2 26.7013 45.7009 -4.8684 0.0000 0.0000 0.0000
# 3 32.7377 -4.8684 68.5665 0.0000 0.0000 0.0000
# 4 0.0000 0.0000 0.0000 25.5477 0.0000 0.0000
# 5 0.0000 0.0000 0.0000 0.0000 51.5087 0.0000
# 6 0.0000 0.0000 0.0000 0.0000 0.0000 10.9111
#
#
#
# Elastic Compliance Matrix: (Units=1/GPa)
#
#
# Indices 1 2 3 4 5 6 
#
# 1 0.009976 -0.006384 -0.005216 0.000000 0.000000 0.000000
# 2 -0.006384 0.026134 0.004904 0.000000 0.000000 0.000000
# 3 -0.005216 0.004904 0.017423 0.000000 0.000000 0.000000
# 4 0.000000 0.000000 0.000000 0.039142 0.000000 0.000000
# 5 0.000000 0.000000 0.000000 0.000000 0.019414 0.000000
# 6 0.000000 0.000000 0.000000 0.000000 0.000000 0.091650
#
#
# Mechanical properties :
#
#
# Convention : Reuss Voigt Hill
#
# Bulk Modulus (GPa) = 24.91329 39.76223 32.33776
# Shear Modulus (GPa) = 21.69088 30.53670 26.11379
#
# Velocity S-wave (km/s) = 3.21655 3.81648 3.52929
# Velocity P-wave (km/s) = 5.06736 6.19569 5.65972
#
# Compressibility (1/GPa) = 0.04013922
#
# Stress axis : x y z
#
# Youngs Moduli (GPa) = 100.24494 38.26478 57.39516
#
# Poissons Ratio (x) = 0.24428 0.29938
# Poissons Ratio (y) = 0.63996 -0.28145
# Poissons Ratio (z) = 0.52290 -0.18764
#
# Static dielectric constant tensor:
#      x y z
#    x 1.724390 0.000000 0.000000 
#    y 0.000000 1.755190 0.000000 
#    z 0.000000 0.000000 1.562900 
# 
# From -- ./inp_files/7469.got.cif
#   From: 2010.05.17/outbox.cif.g08.bks.cpg/sg20_4_cif.got.tgz:7469.got - 2010.06.03 22:52:26.
