data_PCOD9320992
_publ_section_title
;
Structure prediction by ZEFSAII (Michael W. Deem and Ramdas Pophale) SiO2 
 PCOD9320992
Probable space group: C 2 2 21
;
_chemical_formula_sum "Si O2"
_cell_formula_units_Z 32
_cell_length_a 9.039833
_cell_length_b 27.187035
_cell_length_c 4.759633
_cell_angle_alpha 90.000000
_cell_angle_beta 90.000000
_cell_angle_gamma 90.000000
_cell_volume 1169.757183
_symmetry_space_group_name_H-M "C 2 2 21"
_symmetry_group_IT_number 20
_symmetry_cell_setting 'orthorhombic'
loop_
_space_group_symop_operation_xyz
x,y,z
-x,-y,1/2+z
x,-y,-z
-x,y,1/2-z
1/2+x,1/2+y,z
1/2-x,1/2-y,1/2+z
1/2+x,1/2-y,-z
1/2-x,1/2+y,1/2-z
loop_
_atom_site_type_symbol
_atom_site_label
_atom_site_fract_x
_atom_site_fract_y
_atom_site_fract_z
Si Si1 0.101166 0.000000 0.000000
Si Si2 0.500000 0.656315 0.750000
Si Si3 0.500000 0.844243 0.250000
Si Si4 0.265295 0.915568 0.093945
Si Si5 0.256394 0.282757 0.951440
Si Si6 0.609717 0.000000 0.000000
O O1 0.000000 0.018714 0.750000
O O2 0.800642 0.044228 0.382264
O O3 0.371738 0.621221 0.633574
O O4 0.592039 0.689828 0.531832
O O5 0.403066 0.880214 0.053510
O O6 0.615751 0.812798 0.067337
O O7 0.310612 0.953392 0.346022
O O8 0.256063 0.231665 0.127564
O O9 0.500000 0.981613 0.750000
#
# Coordination Sequence:
#
# PCOD9320992 Si02
#       6
#     4   4   4   8   8   4
#     4  12  26  50  74 104 154 210 246 300 364 430
#     4  10  24  46  74 108 142 186 244 308 348 454
#     4  10  24  46  74 108 142 186 244 308 348 454
#     4  11  24  48  69 112 146 196 249 294 364 419
#     4  11  24  50  73 104 140 186 233 302 384 435
#     4  12  26  50  74 104 154 210 246 300 364 430
#
# _framework density 27.356103999999998
#
# number of rings (size 3 to 8) (size 9 to 14) (size 15 to 20)
#    0.000    1.000    2.500    3.000    0.000    0.000 
#   18.000    0.000    0.000    0.000    0.000    0.000 
#    0.000    0.000    0.000    0.000    0.000    0.000 
#
# Total GULP energy -89633.731749 kJ/mol
# GULP energy per Si atom -5602.108234 kJ/mol
# Density = 2.729384 g / cm^3
# Si number density = 27.356104 Si / 1000 Ang^3
#
#
#
# Elastic Constant Matrix: (Units=GPa)
#
#
# Indices 1 2 3 4 5 6 
#
# 1 205.7870 72.5154 14.7733 0.0000 0.0000 0.0000
# 2 72.5154 156.6300 19.6461 0.0000 0.0000 0.0000
# 3 14.7733 19.6461 91.3056 0.0000 0.0000 0.0000
# 4 0.0000 0.0000 0.0000 25.0165 0.0000 0.0000
# 5 0.0000 0.0000 0.0000 0.0000 21.5064 0.0000
# 6 0.0000 0.0000 0.0000 0.0000 0.0000 66.8199
#
#
#
# Elastic Compliance Matrix: (Units=1/GPa)
#
#
# Indices 1 2 3 4 5 6 
#
# 1 0.005819 -0.002647 -0.000372 0.000000 0.000000 0.000000
# 2 -0.002647 0.007766 -0.001243 0.000000 0.000000 0.000000
# 3 -0.000372 -0.001243 0.011280 0.000000 0.000000 0.000000
# 4 0.000000 0.000000 0.000000 0.039974 0.000000 0.000000
# 5 0.000000 0.000000 0.000000 0.000000 0.046498 0.000000
# 6 0.000000 0.000000 0.000000 0.000000 0.000000 0.014966
#
#
# Mechanical properties :
#
#
# Convention : Reuss Voigt Hill
#
# Bulk Modulus (GPa) = 61.19602 74.17691 67.68647
# Shear Modulus (GPa) = 35.64486 45.78773 40.71629
#
# Velocity S-wave (km/s) = 3.61362 4.09561 3.86214
# Velocity P-wave (km/s) = 6.31108 7.03843 6.68465
#
# Compressibility (1/GPa) = 0.01634093
#
# Stress axis : x y z
#
# Youngs Moduli (GPa) = 171.85143 128.76629 88.65423
#
# Poissons Ratio (x) = 0.34089 0.03297
# Poissons Ratio (y) = 0.45496 0.11017
# Poissons Ratio (z) = 0.06391 0.16001
#
# Static dielectric constant tensor:
#      x y z
#    x 2.151960 0.000000 0.000000 
#    y 0.000000 2.117860 0.000000 
#    z 0.000000 0.000000 2.126800 
# 
# From -- ./inp_files/741.got.cif
#   From: 2010.05.17/outbox.cif.g08.bks.cpg/sg20_1_cif.got.tgz:741.got - 2010.06.03 22:52:26.
