data_PCOD9320440
_publ_section_title
;
Structure prediction by ZEFSAII (Michael W. Deem and Ramdas Pophale) SiO2 
 PCOD9320440
Probable space group: C 2 2 21
;
_chemical_formula_sum "Si O2"
_cell_formula_units_Z 56
_cell_length_a 15.118520
_cell_length_b 5.138477
_cell_length_c 32.759586
_cell_angle_alpha 90.000000
_cell_angle_beta 90.000000
_cell_angle_gamma 90.000000
_cell_volume 2544.966678
_symmetry_space_group_name_H-M "C 2 2 21"
_symmetry_group_IT_number 20
_symmetry_cell_setting 'orthorhombic'
loop_
_space_group_symop_operation_xyz
x,y,z
-x,-y,1/2+z
x,-y,-z
-x,y,1/2-z
1/2+x,1/2+y,z
1/2-x,1/2-y,1/2+z
1/2+x,1/2-y,-z
1/2-x,1/2+y,1/2-z
loop_
_atom_site_type_symbol
_atom_site_label
_atom_site_fract_x
_atom_site_fract_y
_atom_site_fract_z
Si Si1 0.625159 0.160901 0.381828
Si Si2 0.438125 0.074206 0.402957
Si Si3 0.427283 0.261839 0.525962
Si Si4 0.597854 0.360608 0.668703
Si Si5 0.693739 0.596598 0.246797
Si Si6 0.604688 0.298792 0.838929
Si Si7 0.701955 0.518583 0.919005
O O1 0.530215 0.224719 0.402003
O O2 0.650885 0.425319 0.358180
O O3 0.613204 0.927818 0.349104
O O4 0.695317 0.039905 0.413283
O O5 0.351818 0.209202 0.422483
O O6 0.465619 0.821733 0.429963
O O7 0.411588 0.988505 0.357502
O O8 0.466867 0.500000 0.500000
O O9 0.332156 0.360496 0.541827
O O10 0.429075 0.000000 0.500000
O O11 0.627714 0.378647 0.715256
O O12 0.493309 0.415839 0.665565
O O13 0.727956 0.301644 0.244300
O O14 0.652285 0.681664 0.203922
O O15 0.661997 0.425540 0.875201
#
# Coordination Sequence:
#
# PCOD9320440 Si02
#       7
#     8   8   8   8   8   8   8
#     4  11  25  41  69 100 132 168 237 270 334 404
#     4  10  23  44  70 100 128 181 222 276 339 410
#     4  11  23  42  72  97 135 173 213 264 339 407
#     4  11  23  43  61  95 131 178 223 289 331 402
#     4  12  26  40  60  93 132 175 229 282 343 396
#     4  10  23  40  65  93 130 176 230 270 344 400
#     4  11  22  42  72  96 132 178 214 285 327 405
#
# _framework density 22.004217000000001
#
# number of rings (size 3 to 8) (size 9 to 14) (size 15 to 20)
#    0.000    1.143    2.857    3.000    8.000    0.000 
#    0.000    3.571    6.286    0.000    0.000    0.000 
#    0.000    0.000    0.000    0.000    0.000    0.000 
#
# Total GULP energy -156142.067689 kJ/mol
# GULP energy per Si atom -5576.502417 kJ/mol
# Density = 2.195413 g / cm^3
# Si number density = 22.004217 Si / 1000 Ang^3
#
#
#
# Elastic Constant Matrix: (Units=GPa)
#
#
# Indices 1 2 3 4 5 6 
#
# 1 40.6529 -3.9751 -7.6063 0.0000 0.0000 0.0000
# 2 -3.9751 97.1235 18.1436 0.0000 0.0000 0.0000
# 3 -7.6063 18.1436 65.8264 0.0000 0.0000 0.0000
# 4 0.0000 0.0000 0.0000 33.0131 0.0000 0.0000
# 5 0.0000 0.0000 0.0000 0.0000 15.5655 0.0000
# 6 0.0000 0.0000 0.0000 0.0000 0.0000 21.2646
#
#
#
# Elastic Compliance Matrix: (Units=1/GPa)
#
#
# Indices 1 2 3 4 5 6 
#
# 1 0.025166 0.000513 0.002767 0.000000 0.000000 0.000000
# 2 0.000513 0.010866 -0.002936 0.000000 0.000000 0.000000
# 3 0.002767 -0.002936 0.016320 0.000000 0.000000 0.000000
# 4 0.000000 0.000000 0.000000 0.030291 0.000000 0.000000
# 5 0.000000 0.000000 0.000000 0.000000 0.064245 0.000000
# 6 0.000000 0.000000 0.000000 0.000000 0.000000 0.047027
#
#
# Mechanical properties :
#
#
# Convention : Reuss Voigt Hill
#
# Bulk Modulus (GPa) = 18.85350 24.08078 21.46714
# Shear Modulus (GPa) = 23.70721 27.10466 25.40593
#
# Velocity S-wave (km/s) = 3.28593 3.51350 3.40162
# Velocity P-wave (km/s) = 4.79408 5.23708 5.02047
#
# Compressibility (1/GPa) = 0.05304054
#
# Stress axis : x y z
#
# Youngs Moduli (GPa) = 39.73566 92.03388 61.27347
#
# Poissons Ratio (x) = -0.04723 -0.16952
# Poissons Ratio (y) = -0.02039 0.17987
# Poissons Ratio (z) = -0.10993 0.27017
#
# Static dielectric constant tensor:
#      x y z
#    x 1.869920 0.000000 0.000000 
#    y 0.000000 1.918270 0.000000 
#    z 0.000000 0.000000 1.820990 
# 
# From -- ./inp_files/31299.got.cif
#   From: 2010.05.17/outbox.cif.g08.bks.cpg/sg20_16_cif.got.tgz:31299.got - 2010.06.03 22:52:26.
