data_PCOD9320458
_publ_section_title
;
Structure prediction by ZEFSAII (Michael W. Deem and Ramdas Pophale) SiO2 
 PCOD9320458
Probable space group: C 2 2 21
;
_chemical_formula_sum "Si O2"
_cell_formula_units_Z 44
_cell_length_a 20.288629
_cell_length_b 8.327045
_cell_length_c 13.292373
_cell_angle_alpha 90.000000
_cell_angle_beta 90.000000
_cell_angle_gamma 90.000000
_cell_volume 2245.671006
_symmetry_space_group_name_H-M "C 2 2 21"
_symmetry_group_IT_number 20
_symmetry_cell_setting 'orthorhombic'
loop_
_space_group_symop_operation_xyz
x,y,z
-x,-y,1/2+z
x,-y,-z
-x,y,1/2-z
1/2+x,1/2+y,z
1/2-x,1/2-y,1/2+z
1/2+x,1/2-y,-z
1/2-x,1/2+y,1/2-z
loop_
_atom_site_type_symbol
_atom_site_label
_atom_site_fract_x
_atom_site_fract_y
_atom_site_fract_z
Si Si1 0.374908 0.603936 0.715466
Si Si2 0.500000 0.397319 0.750000
Si Si3 0.041890 0.188350 0.464128
Si Si4 0.670519 0.662266 0.561925
Si Si5 0.703976 0.623249 0.086286
Si Si6 0.404287 0.183248 0.468938
O O1 0.443118 0.508639 0.703951
O O2 0.366033 0.635244 0.832439
O O3 0.316439 0.484783 0.680687
O O4 0.379296 0.756879 0.640839
O O5 0.470124 0.302103 0.844429
O O6 0.114698 0.248432 0.493872
O O7 0.981432 0.276256 0.518417
O O8 0.040272 0.000000 0.500000
O O9 0.687090 0.500000 0.500000
O O10 0.736937 0.752656 0.591896
O O11 0.724465 0.500000 0.000000
O O12 0.637711 0.708860 0.046540
O O13 0.392721 0.000000 0.500000
#
# Coordination Sequence:
#
# PCOD9320458 Si02
#       6
#     8   4   8   8   8   8
#     4  11  21  39  67  91 123 174 222 261 331 403
#     4  12  18  40  70  94 118 166 228 264 326 408
#     4  11  20  38  66  92 123 166 218 269 323 394
#     4  11  23  39  64  97 124 167 220 282 322 388
#     4  10  23  41  60  86 127 173 213 260 328 396
#     4  11  22  39  62  92 126 167 212 266 321 385
#
# _framework density 19.593252
#
# number of rings (size 3 to 8) (size 9 to 14) (size 15 to 20)
#    0.000    1.091    7.273    1.091    0.000    5.091 
#    0.000    4.545    0.000    0.000    0.000    0.000 
#    0.000    0.000    0.000    0.000    0.000    0.000 
#
# Total GULP energy -122724.303574 kJ/mol
# GULP energy per Si atom -5578.377435 kJ/mol
# Density = 1.954866 g / cm^3
# Si number density = 19.593252 Si / 1000 Ang^3
#
#
#
# Elastic Constant Matrix: (Units=GPa)
#
#
# Indices 1 2 3 4 5 6 
#
# 1 99.5052 14.9273 17.9225 0.0000 0.0000 0.0000
# 2 14.9273 61.9146 29.8324 0.0000 0.0000 0.0000
# 3 17.9225 29.8324 112.7114 0.0000 0.0000 0.0000
# 4 0.0000 0.0000 0.0000 10.9370 0.0000 0.0000
# 5 0.0000 0.0000 0.0000 0.0000 -2.1577 0.0000
# 6 0.0000 0.0000 0.0000 0.0000 0.0000 9.2904
#
#
#
# Elastic Compliance Matrix: (Units=1/GPa)
#
#
# Indices 1 2 3 4 5 6 
#
# 1 0.010556 -0.001990 -0.001152 0.000000 0.000000 0.000000
# 2 -0.001990 0.018887 -0.004683 0.000000 0.000000 0.000000
# 3 -0.001152 -0.004683 0.010295 0.000000 0.000000 0.000000
# 4 0.000000 0.000000 0.000000 0.091433 0.000000 0.000000
# 5 0.000000 0.000000 0.000000 0.000000 -0.463450 0.000000
# 6 0.000000 0.000000 0.000000 0.000000 0.000000 0.107638
#
#
# Mechanical properties :
#
#
# Convention : Reuss Voigt Hill
#
# Bulk Modulus (GPa) = 41.51277 44.38840 42.95058
# Shear Modulus (GPa) = -24.88011 17.71054 -3.58479
#
# Velocity S-wave (km/s) = -3.56733 3.00977 -1.35410
# Velocity P-wave (km/s) = 2.06529 5.89766 4.41859
#
# Compressibility (1/GPa) = 0.02408897
#
# Stress axis : x y z
#
# Youngs Moduli (GPa) = 94.73546 52.94564 97.13668
#
# Poissons Ratio (x) = 0.10536 0.11188
# Poissons Ratio (y) = 0.18852 0.45486
# Poissons Ratio (z) = 0.10912 0.24793
#
# Static dielectric constant tensor:
#      x y z
#    x 1.708850 0.000000 0.000000 
#    y 0.000000 1.728390 0.000000 
#    z 0.000000 0.000000 1.686170 
# 
# From -- ./inp_files/21203.got.cif
#   From: 2010.05.17/outbox.cif.g08.bks.cpg/sg20_11_cif.got.tgz:21203.got - 2010.06.03 22:52:26.
