data_PCOD9320068
_publ_section_title
;
Structure prediction by ZEFSAII (Michael W. Deem and Ramdas Pophale) SiO2 
 PCOD9320068
Probable space group: C 2 2 21
;
_chemical_formula_sum "Si O2"
_cell_formula_units_Z 32
_cell_length_a 34.854364
_cell_length_b 5.261248
_cell_length_c 7.905993
_cell_angle_alpha 90.000000
_cell_angle_beta 90.000000
_cell_angle_gamma 90.000000
_cell_volume 1449.780859
_symmetry_space_group_name_H-M "C 2 2 21"
_symmetry_group_IT_number 20
_symmetry_cell_setting 'orthorhombic'
loop_
_space_group_symop_operation_xyz
x,y,z
-x,-y,1/2+z
x,-y,-z
-x,y,1/2-z
1/2+x,1/2+y,z
1/2-x,1/2-y,1/2+z
1/2+x,1/2-y,-z
1/2-x,1/2+y,1/2-z
loop_
_atom_site_type_symbol
_atom_site_label
_atom_site_fract_x
_atom_site_fract_y
_atom_site_fract_z
Si Si1 0.655610 0.255936 0.885223
Si Si2 0.469467 0.000000 0.000000
Si Si3 0.269739 0.382204 0.812146
Si Si4 0.078196 0.858038 0.681992
Si Si5 0.500000 0.625578 0.750000
O O1 0.690021 0.263278 0.749745
O O2 0.615659 0.314527 0.790752
O O3 0.662742 0.500000 0.000000
O O4 0.654993 0.000000 0.000000
O O5 0.495341 0.785458 0.921248
O O6 0.440508 0.086195 0.856135
O O7 0.258034 0.634560 0.703231
O O8 0.270741 0.500000 0.000000
O O9 0.085861 0.000000 0.500000
O O10 0.041104 0.991445 0.762467
#
# Coordination Sequence:
#
# PCOD9320068 Si02
#       5
#     8   4   8   8   4
#     4  12  28  47  72 109 149 188 242 298 360 431
#     4  10  22  42  68  92 136 180 246 294 370 414
#     4  12  25  48  79 111 150 191 239 293 358 433
#     4  10  24  45  66  98 140 189 245 299 366 426
#     4  10  22  42  66  98 132 182 244 298 360 426
#
# _framework density 22.072299000000001
#
# number of rings (size 3 to 8) (size 9 to 14) (size 15 to 20)
#    0.000    1.000    0.000    6.000    7.000    5.000 
#    6.750    0.000    0.000    0.000    0.000    0.000 
#    0.000    0.000    0.000    0.000    0.000    0.000 
#
# Total GULP energy -89312.682246 kJ/mol
# GULP energy per Si atom -5582.042640 kJ/mol
# Density = 2.202206 g / cm^3
# Si number density = 22.072299 Si / 1000 Ang^3
#
#
#
# Elastic Constant Matrix: (Units=GPa)
#
#
# Indices 1 2 3 4 5 6 
#
# 1 182.3216 57.8677 72.9966 0.0000 0.0000 0.0000
# 2 57.8677 118.5142 35.1765 0.0000 0.0000 0.0000
# 3 72.9966 35.1765 95.5152 0.0000 0.0000 0.0000
# 4 0.0000 0.0000 0.0000 -163.0352 0.0000 0.0000
# 5 0.0000 0.0000 0.0000 0.0000 51.2552 0.0000
# 6 0.0000 0.0000 0.0000 0.0000 0.0000 16.7281
#
#
#
# Elastic Compliance Matrix: (Units=1/GPa)
#
#
# Indices 1 2 3 4 5 6 
#
# 1 0.008515 -0.002499 -0.005587 0.000000 0.000000 0.000000
# 2 -0.002499 0.010207 -0.001849 0.000000 0.000000 0.000000
# 3 -0.005587 -0.001849 0.015420 0.000000 0.000000 0.000000
# 4 0.000000 0.000000 0.000000 -0.006134 0.000000 0.000000
# 5 0.000000 0.000000 0.000000 0.000000 0.019510 0.000000
# 6 0.000000 0.000000 0.000000 0.000000 0.000000 0.059780
#
#
# Mechanical properties :
#
#
# Convention : Reuss Voigt Hill
#
# Bulk Modulus (GPa) = 70.06913 80.93695 75.50304
# Shear Modulus (GPa) = 37.89996 -3.65637 17.12179
#
# Velocity S-wave (km/s) = 4.14826 -1.28846 2.78819
# Velocity P-wave (km/s) = 7.39989 5.87666 6.68182
#
# Compressibility (1/GPa) = 0.01427162
#
# Stress axis : x y z
#
# Youngs Moduli (GPa) = 117.43993 97.97226 64.84955
#
# Poissons Ratio (x) = 0.24487 0.36232
# Poissons Ratio (y) = 0.29353 0.11990
# Poissons Ratio (z) = 0.65614 0.18114
#
# Static dielectric constant tensor:
#      x y z
#    x 3.079640 0.000000 0.000000 
#    y 0.000000 1.876780 0.000000 
#    z 0.000000 0.000000 2.003210 
# 
# From -- ./inp_files/11322.got.cif
#   From: 2010.05.17/outbox.cif.g08.bks.cpg/sg20_6_cif.got.tgz:11322.got - 2010.06.03 22:52:26.
