data_PCOD9320049
_publ_section_title
;
Structure prediction by ZEFSAII (Michael W. Deem and Ramdas Pophale) SiO2 
 PCOD9320049
Probable space group: C 2 2 21
;
_chemical_formula_sum "Si O2"
_cell_formula_units_Z 52
_cell_length_a 10.737313
_cell_length_b 9.688847
_cell_length_c 20.647966
_cell_angle_alpha 90.000000
_cell_angle_beta 90.000000
_cell_angle_gamma 90.000000
_cell_volume 2148.052974
_symmetry_space_group_name_H-M "C 2 2 21"
_symmetry_group_IT_number 20
_symmetry_cell_setting 'orthorhombic'
loop_
_space_group_symop_operation_xyz
x,y,z
-x,-y,1/2+z
x,-y,-z
-x,y,1/2-z
1/2+x,1/2+y,z
1/2-x,1/2-y,1/2+z
1/2+x,1/2-y,-z
1/2-x,1/2+y,1/2-z
loop_
_atom_site_type_symbol
_atom_site_label
_atom_site_fract_x
_atom_site_fract_y
_atom_site_fract_z
Si Si1 0.476134 0.585505 0.107263
Si Si2 0.832515 0.007631 0.699130
Si Si3 0.718536 0.725711 0.052562
Si Si4 0.500000 0.059972 0.250000
Si Si5 0.217365 0.759229 0.299294
Si Si6 0.217166 0.000000 0.500000
Si Si7 0.405358 0.000000 0.000000
Si Si8 0.076006 0.394211 0.363929
O O1 0.538822 0.481220 0.159421
O O2 0.593319 0.639344 0.064253
O O3 0.373326 0.519972 0.061480
O O4 0.423983 0.729221 0.135956
O O5 0.801609 0.100749 0.760693
O O6 0.716123 0.049228 0.651656
O O7 0.830246 0.845607 0.717440
O O8 0.769069 0.768733 0.123709
O O9 0.704702 0.861702 0.009745
O O10 0.819399 0.630080 0.018278
O O11 0.606092 0.162275 0.273938
O O12 0.483183 0.957428 0.310470
O O13 0.466775 0.954257 0.067178
#
# Coordination Sequence:
#
# PCOD9320049 Si02
#       8
#     8   8   8   4   8   4   4   8
#     4  11  25  44  72  99 137 187 225 287 356 404
#     4  10  24  44  67 102 138 178 227 291 342 418
#     4  11  25  47  67 100 144 176 236 292 337 428
#     4  10  22  42  66 102 138 182 230 282 352 428
#     4  10  23  44  67 100 141 179 225 295 351 406
#     4  12  27  45  68 104 136 178 241 281 342 418
#     4  12  19  49  68  92 146 186 215 301 348 390
#     4  11  24  43  74 100 137 188 232 279 354 425
#
# _framework density 24.207968999999999
#
# number of rings (size 3 to 8) (size 9 to 14) (size 15 to 20)
#    0.000    1.231    6.154    0.462   10.769    1.846 
#    0.000    0.000    0.000    0.000    0.000    0.000 
#    0.000    0.000    0.000    0.000    0.000    0.000 
#
# Total GULP energy -145355.572151 kJ/mol
# GULP energy per Si atom -5590.598929 kJ/mol
# Density = 2.415287 g / cm^3
# Si number density = 24.207969 Si / 1000 Ang^3
#
#
#
# Elastic Constant Matrix: (Units=GPa)
#
#
# Indices 1 2 3 4 5 6 
#
# 1 57.1108 -5.8727 6.8199 0.0000 0.0000 0.0000
# 2 -5.8727 108.3336 35.5208 0.0000 0.0000 0.0000
# 3 6.8199 35.5208 114.5644 0.0000 0.0000 0.0000
# 4 0.0000 0.0000 0.0000 58.0517 0.0000 0.0000
# 5 0.0000 0.0000 0.0000 0.0000 24.0062 0.0000
# 6 0.0000 0.0000 0.0000 0.0000 0.0000 30.3092
#
#
#
# Elastic Compliance Matrix: (Units=1/GPa)
#
#
# Indices 1 2 3 4 5 6 
#
# 1 0.017841 0.001464 -0.001516 0.000000 0.000000 0.000000
# 2 0.001464 0.010396 -0.003310 0.000000 0.000000 0.000000
# 3 -0.001516 -0.003310 0.009845 0.000000 0.000000 0.000000
# 4 0.000000 0.000000 0.000000 0.017226 0.000000 0.000000
# 5 0.000000 0.000000 0.000000 0.000000 0.041656 0.000000
# 6 0.000000 0.000000 0.000000 0.000000 0.000000 0.032993
#
#
# Mechanical properties :
#
#
# Convention : Reuss Voigt Hill
#
# Bulk Modulus (GPa) = 31.88975 39.21609 35.55292
# Shear Modulus (GPa) = 33.98255 38.70948 36.34601
#
# Velocity S-wave (km/s) = 3.75076 4.00314 3.87900
# Velocity P-wave (km/s) = 5.65327 6.13202 5.89750
#
# Compressibility (1/GPa) = 0.03135804
#
# Stress axis : x y z
#
# Youngs Moduli (GPa) = 56.04933 96.19528 101.57098
#
# Poissons Ratio (x) = -0.14086 0.15399
# Poissons Ratio (y) = -0.08207 0.33623
# Poissons Ratio (z) = 0.08498 0.31844
#
# Static dielectric constant tensor:
#      x y z
#    x 2.011780 0.000000 0.000000 
#    y 0.000000 1.928830 0.000000 
#    z 0.000000 0.000000 1.983450 
# 
# From -- ./inp_files/27536.got.cif
#   From: 2010.05.17/outbox.cif.g08.bks.cpg/sg20_14_cif.got.tgz:27536.got - 2010.06.03 22:52:26.
