data_PCOD9320643
_publ_section_title
;
Structure prediction by ZEFSAII (Michael W. Deem and Ramdas Pophale) SiO2 
 PCOD9320643
Probable space group: C 2 2 21
;
_chemical_formula_sum "Si O2"
_cell_formula_units_Z 40
_cell_length_a 18.375509
_cell_length_b 7.552133
_cell_length_c 12.069883
_cell_angle_alpha 90.000000
_cell_angle_beta 90.000000
_cell_angle_gamma 90.000000
_cell_volume 1674.989418
_symmetry_space_group_name_H-M "C 2 2 21"
_symmetry_group_IT_number 20
_symmetry_cell_setting 'orthorhombic'
loop_
_space_group_symop_operation_xyz
x,y,z
-x,-y,1/2+z
x,-y,-z
-x,y,1/2-z
1/2+x,1/2+y,z
1/2-x,1/2-y,1/2+z
1/2+x,1/2-y,-z
1/2-x,1/2+y,1/2-z
loop_
_atom_site_type_symbol
_atom_site_label
_atom_site_fract_x
_atom_site_fract_y
_atom_site_fract_z
Si Si1 0.442989 0.127877 0.160826
Si Si2 0.625851 0.685345 0.045604
Si Si3 0.325784 0.794144 0.679548
Si Si4 0.538644 0.263452 0.576786
Si Si5 0.831934 0.106835 0.228151
O O1 0.500000 0.204793 0.250000
O O2 0.367717 0.099664 0.225052
O O3 0.470373 0.936059 0.122535
O O4 0.436432 0.244987 0.050846
O O5 0.541752 0.656480 0.077511
O O6 0.665104 0.727341 0.160227
O O7 0.656971 0.500000 0.000000
O O8 0.634046 0.809468 0.938939
O O9 0.242623 0.848819 0.666761
O O10 0.331878 0.593719 0.726898
O O11 0.598441 0.357595 0.651833
#
# Coordination Sequence:
#
# PCOD9320643 Si02
#       5
#     8   8   8   8   8
#     4  11  23  42  67  99 136 174 223 275 338 400
#     4  10  23  44  70  96 136 175 226 281 336 400
#     4  11  25  45  67 100 138 182 222 280 342 403
#     4  11  24  42  70 100 133 175 225 282 332 404
#     4  11  25  43  69  98 136 179 228 276 339 408
#
# _framework density 23.880749000000002
#
# number of rings (size 3 to 8) (size 9 to 14) (size 15 to 20)
#    0.000    1.200    2.000    3.000    5.600    0.000 
#    0.000    0.000    0.000    0.000    0.000    0.000 
#    0.000    0.000    0.000    0.000    0.000    0.000 
#
# Total GULP energy -111959.849461 kJ/mol
# GULP energy per Si atom -5597.992473 kJ/mol
# Density = 2.382640 g / cm^3
# Si number density = 23.880749 Si / 1000 Ang^3
#
#
#
# Elastic Constant Matrix: (Units=GPa)
#
#
# Indices 1 2 3 4 5 6 
#
# 1 104.5666 -12.6294 45.6490 0.0000 0.0000 0.0000
# 2 -12.6294 45.9523 24.9229 0.0000 0.0000 0.0000
# 3 45.6490 24.9229 153.5290 0.0000 0.0000 0.0000
# 4 0.0000 0.0000 0.0000 26.5375 0.0000 0.0000
# 5 0.0000 0.0000 0.0000 0.0000 37.4684 0.0000
# 6 0.0000 0.0000 0.0000 0.0000 0.0000 29.0974
#
#
#
# Elastic Compliance Matrix: (Units=1/GPa)
#
#
# Indices 1 2 3 4 5 6 
#
# 1 0.012283 0.005874 -0.004606 0.000000 0.000000 0.000000
# 2 0.005874 0.026672 -0.006076 0.000000 0.000000 0.000000
# 3 -0.004606 -0.006076 0.008869 0.000000 0.000000 0.000000
# 4 0.000000 0.000000 0.000000 0.037683 0.000000 0.000000
# 5 0.000000 0.000000 0.000000 0.000000 0.026689 0.000000
# 6 0.000000 0.000000 0.000000 0.000000 0.000000 0.034367
#
#
# Mechanical properties :
#
#
# Convention : Reuss Voigt Hill
#
# Bulk Modulus (GPa) = 26.17239 46.65920 36.41579
# Shear Modulus (GPa) = 29.60059 35.02766 32.31413
#
# Velocity S-wave (km/s) = 3.52450 3.83400 3.68250
# Velocity P-wave (km/s) = 5.24845 6.25941 5.77609
#
# Compressibility (1/GPa) = 0.03820820
#
# Stress axis : x y z
#
# Youngs Moduli (GPa) = 81.41063 37.49303 112.74913
#
# Poissons Ratio (x) = -0.22023 0.51930
# Poissons Ratio (y) = -0.47820 0.68509
# Poissons Ratio (z) = 0.37496 0.22782
#
# Static dielectric constant tensor:
#      x y z
#    x 1.854540 0.000000 0.000000 
#    y 0.000000 1.973020 0.000000 
#    z 0.000000 0.000000 1.918410 
# 
# From -- ./inp_files/12662.got.cif
#   From: 2010.05.17/outbox.cif.g08.bks.cpg/sg20_7_cif.got.tgz:12662.got - 2010.06.03 22:52:26.
