data_PCOD9320598
_publ_section_title
;
Structure prediction by ZEFSAII (Michael W. Deem and Ramdas Pophale) SiO2 
 PCOD9320598
Probable space group: C 2 2 21
;
_chemical_formula_sum "Si O2"
_cell_formula_units_Z 64
_cell_length_a 16.151950
_cell_length_b 20.461192
_cell_length_c 7.812282
_cell_angle_alpha 90.000000
_cell_angle_beta 90.000000
_cell_angle_gamma 90.000000
_cell_volume 2581.866626
_symmetry_space_group_name_H-M "C 2 2 21"
_symmetry_group_IT_number 20
_symmetry_cell_setting 'orthorhombic'
loop_
_space_group_symop_operation_xyz
x,y,z
-x,-y,1/2+z
x,-y,-z
-x,y,1/2-z
1/2+x,1/2+y,z
1/2-x,1/2-y,1/2+z
1/2+x,1/2-y,-z
1/2-x,1/2+y,1/2-z
loop_
_atom_site_type_symbol
_atom_site_label
_atom_site_fract_x
_atom_site_fract_y
_atom_site_fract_z
Si Si1 0.690918 0.700296 0.604877
Si Si2 0.789737 0.172625 0.493580
Si Si3 0.288350 0.442854 0.134176
Si Si4 0.576903 0.191258 0.882171
Si Si5 0.488153 0.314094 0.952084
Si Si6 0.848085 0.599432 0.872164
Si Si7 0.981060 0.432955 0.552873
Si Si8 0.581673 0.572039 0.936163
O O1 0.758507 0.757645 0.577513
O O2 0.685844 0.688642 0.808715
O O3 0.715549 0.627801 0.539620
O O4 0.601697 0.713806 0.512231
O O5 0.706905 0.128137 0.477025
O O6 0.857839 0.117620 0.443635
O O7 0.208495 0.448548 0.260182
O O8 0.366110 0.440581 0.263953
O O9 0.293754 0.500000 0.000000
O O10 0.500000 0.192755 0.750000
O O11 0.560721 0.259365 0.977092
O O12 0.642790 0.163442 0.749029
O O13 0.568208 0.132417 0.013691
O O14 0.500000 0.329433 0.750000
O O15 0.504027 0.379177 0.060504
O O16 0.935079 0.572512 0.937285
O O17 0.937719 0.500000 0.500000
O O18 0.000000 0.435957 0.750000
O O19 0.560107 0.500000 0.000000
#
# Coordination Sequence:
#
# PCOD9320598 Si02
#       8
#     8   8   8   8   8   8   8   8
#     4  10  23  43  70 103 137 186 238 301 366 436
#     4  10  23  43  70  97 139 181 236 302 358 439
#     4  10  25  45  69 101 144 187 245 300 364 441
#     4   9  19  39  64  92 140 182 236 291 353 432
#     4  11  24  42  74 106 143 191 243 301 373 446
#     4   9  20  41  62  93 135 184 239 292 350 433
#     4  11  22  38  62  96 139 187 236 300 370 437
#     4  10  25  46  70 107 146 192 246 307 373 446
#
# _framework density 24.788266
#
# number of rings (size 3 to 8) (size 9 to 14) (size 15 to 20)
#    0.000    2.250    0.000    3.375    7.000    6.000 
#   11.250    1.250    0.000    0.000    0.000    0.000 
#    0.000    0.000    0.000    0.000    0.000    0.000 
#
# Total GULP energy -178430.678304 kJ/mol
# GULP energy per Si atom -5575.958697 kJ/mol
# Density = 2.473185 g / cm^3
# Si number density = 24.788266 Si / 1000 Ang^3
#
#
#
# Elastic Constant Matrix: (Units=GPa)
#
#
# Indices 1 2 3 4 5 6 
#
# 1 77.2820 11.5002 25.9100 0.0000 0.0000 0.0000
# 2 11.5002 193.4835 35.8027 0.0000 0.0000 0.0000
# 3 25.9100 35.8027 59.9149 0.0000 0.0000 0.0000
# 4 0.0000 0.0000 0.0000 41.8727 0.0000 0.0000
# 5 0.0000 0.0000 0.0000 0.0000 27.9668 0.0000
# 6 0.0000 0.0000 0.0000 0.0000 0.0000 53.8425
#
#
#
# Elastic Compliance Matrix: (Units=1/GPa)
#
#
# Indices 1 2 3 4 5 6 
#
# 1 0.015155 0.000351 -0.006763 0.000000 0.000000 0.000000
# 2 0.000351 0.005819 -0.003629 0.000000 0.000000 0.000000
# 3 -0.006763 -0.003629 0.021784 0.000000 0.000000 0.000000
# 4 0.000000 0.000000 0.000000 0.023882 0.000000 0.000000
# 5 0.000000 0.000000 0.000000 0.000000 0.035757 0.000000
# 6 0.000000 0.000000 0.000000 0.000000 0.000000 0.018573
#
#
# Mechanical properties :
#
#
# Convention : Reuss Voigt Hill
#
# Bulk Modulus (GPa) = 44.10210 53.01179 48.55695
# Shear Modulus (GPa) = 33.64511 41.90090 37.77300
#
# Velocity S-wave (km/s) = 3.68815 4.11585 3.90786
# Velocity P-wave (km/s) = 5.99723 6.63470 6.32400
#
# Compressibility (1/GPa) = 0.02267466
#
# Stress axis : x y z
#
# Youngs Moduli (GPa) = 65.98511 171.84921 45.90613
#
# Poissons Ratio (x) = -0.06027 0.31048
# Poissons Ratio (y) = -0.02314 0.16659
# Poissons Ratio (z) = 0.44628 0.62362
#
# Static dielectric constant tensor:
#      x y z
#    x 2.120810 0.000000 0.000000 
#    y 0.000000 2.040950 0.000000 
#    z 0.000000 0.000000 1.991950 
# 
# From -- ./inp_files/9656.got.cif
#   From: 2010.05.17/outbox.cif.g08.bks.cpg/sg20_5_cif.got.tgz:9656.got - 2010.06.03 22:52:26.
