data_PCOD9320384
_publ_section_title
;
Structure prediction by ZEFSAII (Michael W. Deem and Ramdas Pophale) SiO2 
 PCOD9320384
Probable space group: C 2 2 21
;
_chemical_formula_sum "Si O2"
_cell_formula_units_Z 56
_cell_length_a 5.789265
_cell_length_b 29.686386
_cell_length_c 14.468247
_cell_angle_alpha 90.000000
_cell_angle_beta 90.000000
_cell_angle_gamma 90.000000
_cell_volume 2486.547009
_symmetry_space_group_name_H-M "C 2 2 21"
_symmetry_group_IT_number 20
_symmetry_cell_setting 'orthorhombic'
loop_
_space_group_symop_operation_xyz
x,y,z
-x,-y,1/2+z
x,-y,-z
-x,y,1/2-z
1/2+x,1/2+y,z
1/2-x,1/2-y,1/2+z
1/2+x,1/2-y,-z
1/2-x,1/2+y,1/2-z
loop_
_atom_site_type_symbol
_atom_site_label
_atom_site_fract_x
_atom_site_fract_y
_atom_site_fract_z
Si Si1 0.530575 0.500000 0.000000
Si Si2 0.561994 0.667000 0.643128
Si Si3 0.249343 0.371923 0.793387
Si Si4 0.475600 0.242227 0.046210
Si Si5 0.407749 0.147192 0.488318
Si Si6 0.698395 0.524427 0.320803
Si Si7 0.242204 0.412224 0.418891
Si Si8 0.000000 0.448583 0.250000
O O1 0.388436 0.527125 0.075719
O O2 0.664094 0.460869 0.053419
O O3 0.500000 0.658659 0.750000
O O4 0.512543 0.719943 0.625463
O O5 0.808008 0.658933 0.590905
O O6 0.412746 0.630380 0.586109
O O7 0.500000 0.358364 0.750000
O O8 0.262361 0.360117 0.902274
O O9 0.234150 0.426224 0.786789
O O10 0.000000 0.355411 0.750000
O O11 0.439775 0.188599 0.050685
O O12 0.240230 0.256448 0.992570
O O13 0.551453 0.102203 0.506598
O O14 0.500000 0.509299 0.250000
O O15 0.876020 0.483591 0.318016
O O16 0.153652 0.417920 0.314615
#
# Coordination Sequence:
#
# PCOD9320384 Si02
#       8
#     4   8   8   8   8   8   8   4
#     4  12  28  42  70  98 146 196 256 292 380 440
#     4  11  25  47  76 109 151 193 247 312 384 458
#     4  11  27  46  74 104 146 200 260 313 373 442
#     4  10  22  47  73 107 142 189 237 301 374 445
#     4  11  26  46  77 106 151 191 248 316 379 454
#     4  11  25  47  62  95 143 191 248 313 357 437
#     4  12  27  43  70 107 143 197 248 304 377 447
#     4  12  26  42  68  98 144 190 246 312 368 436
#
# _framework density 22.521187999999999
#
# number of rings (size 3 to 8) (size 9 to 14) (size 15 to 20)
#    0.000    0.857    3.571    1.714   14.000    0.571 
#    0.000    2.857    0.000    0.000    0.000    0.000 
#    0.000    0.000    0.000    0.000    0.000    0.000 
#
# Total GULP energy -155913.753343 kJ/mol
# GULP energy per Si atom -5568.348334 kJ/mol
# Density = 2.246993 g / cm^3
# Si number density = 22.521188 Si / 1000 Ang^3
#
#
#
# Elastic Constant Matrix: (Units=GPa)
#
#
# Indices 1 2 3 4 5 6 
#
# 1 62.1734 15.6234 36.3491 0.0000 0.0000 0.0000
# 2 15.6234 56.9313 6.4989 0.0000 0.0000 0.0000
# 3 36.3491 6.4989 101.3221 0.0000 0.0000 0.0000
# 4 0.0000 0.0000 0.0000 29.6445 0.0000 0.0000
# 5 0.0000 0.0000 0.0000 0.0000 33.2735 0.0000
# 6 0.0000 0.0000 0.0000 0.0000 0.0000 26.6714
#
#
#
# Elastic Compliance Matrix: (Units=1/GPa)
#
#
# Indices 1 2 3 4 5 6 
#
# 1 0.021736 -0.005112 -0.007470 0.000000 0.000000 0.000000
# 2 -0.005112 0.018897 0.000622 0.000000 0.000000 0.000000
# 3 -0.007470 0.000622 0.012509 0.000000 0.000000 0.000000
# 4 0.000000 0.000000 0.000000 0.033733 0.000000 0.000000
# 5 0.000000 0.000000 0.000000 0.000000 0.030054 0.000000
# 6 0.000000 0.000000 0.000000 0.000000 0.000000 0.037493
#
#
# Mechanical properties :
#
#
# Convention : Reuss Voigt Hill
#
# Bulk Modulus (GPa) = 34.22068 37.48550 35.85309
# Shear Modulus (GPa) = 26.58399 28.71492 27.64946
#
# Velocity S-wave (km/s) = 3.43942 3.57461 3.50767
# Velocity P-wave (km/s) = 5.56783 5.80671 5.68852
#
# Compressibility (1/GPa) = 0.02922210
#
# Stress axis : x y z
#
# Youngs Moduli (GPa) = 46.00707 52.91863 79.93994
#
# Poissons Ratio (x) = 0.27053 0.59713
# Poissons Ratio (y) = 0.23519 -0.04971
# Poissons Ratio (z) = 0.34366 -0.03291
#
# Static dielectric constant tensor:
#      x y z
#    x 2.004140 0.000000 0.000000 
#    y 0.000000 1.844730 0.000000 
#    z 0.000000 0.000000 1.868630 
# 
# From -- ./inp_files/18005.got.cif
#   From: 2010.05.17/outbox.cif.g08.bks.cpg/sg20_10_cif.got.tgz:18005.got - 2010.06.03 22:52:26.
