data_PCOD9320190
_publ_section_title
;
Structure prediction by ZEFSAII (Michael W. Deem and Ramdas Pophale) SiO2 
 PCOD9320190
Probable space group: C 2 2 21
;
_chemical_formula_sum "Si O2"
_cell_formula_units_Z 52
_cell_length_a 8.017178
_cell_length_b 24.884676
_cell_length_c 11.775753
_cell_angle_alpha 90.000000
_cell_angle_beta 90.000000
_cell_angle_gamma 90.000000
_cell_volume 2349.320153
_symmetry_space_group_name_H-M "C 2 2 21"
_symmetry_group_IT_number 20
_symmetry_cell_setting 'orthorhombic'
loop_
_space_group_symop_operation_xyz
x,y,z
-x,-y,1/2+z
x,-y,-z
-x,y,1/2-z
1/2+x,1/2+y,z
1/2-x,1/2-y,1/2+z
1/2+x,1/2-y,-z
1/2-x,1/2+y,1/2-z
loop_
_atom_site_type_symbol
_atom_site_label
_atom_site_fract_x
_atom_site_fract_y
_atom_site_fract_z
Si Si1 0.052336 0.575257 0.559275
Si Si2 0.180069 0.442845 0.691365
Si Si3 0.182602 0.824648 0.805542
Si Si4 0.747624 0.050485 0.790185
Si Si5 0.500000 0.636169 0.750000
Si Si6 0.822654 0.762158 0.350193
Si Si7 0.919478 0.305184 0.997647
O O1 0.142736 0.553621 0.444735
O O2 0.165804 0.573457 0.672719
O O3 0.009664 0.636881 0.529688
O O4 0.883952 0.547715 0.606453
O O5 0.251243 0.384533 0.720177
O O6 0.289254 0.490466 0.746859
O O7 0.000000 0.448107 0.750000
O O8 0.296418 0.777593 0.754229
O O9 0.239578 0.817150 0.936533
O O10 0.000000 0.821652 0.750000
O O11 0.887992 0.094023 0.820691
O O12 0.609481 0.678986 0.819635
O O13 0.637352 0.770440 0.396825
O O14 0.945505 0.729160 0.431007
#
# Coordination Sequence:
#
# PCOD9320190 Si02
#       7
#     8   8   8   8   4   8   8
#     4  10  22  43  69  99 125 183 230 274 347 405
#     4  11  23  44  72  98 138 178 233 284 342 422
#     4  11  24  43  66 101 137 178 231 288 346 410
#     4  11  24  43  71  98 138 179 228 285 340 421
#     4  12  26  44  66 106 144 178 226 292 354 408
#     4  12  24  44  66  98 140 181 232 284 347 417
#     4  11  23  41  68  96 133 183 224 290 341 410
#
# _framework density 22.134063000000001
#
# number of rings (size 3 to 8) (size 9 to 14) (size 15 to 20)
#    0.000    0.923    4.615    3.231    3.231    1.231 
#    2.769    0.000    3.385    0.000    0.000    0.000 
#    0.000    0.000    0.000    0.000    0.000    0.000 
#
# Total GULP energy -144925.349595 kJ/mol
# GULP energy per Si atom -5574.051908 kJ/mol
# Density = 2.208368 g / cm^3
# Si number density = 22.134063 Si / 1000 Ang^3
#
#
#
# Elastic Constant Matrix: (Units=GPa)
#
#
# Indices 1 2 3 4 5 6 
#
# 1 46.1763 22.6323 7.2568 0.0000 0.0000 0.0000
# 2 22.6323 161.2493 22.2272 0.0000 0.0000 0.0000
# 3 7.2568 22.2272 66.5466 0.0000 0.0000 0.0000
# 4 0.0000 0.0000 0.0000 20.2166 0.0000 0.0000
# 5 0.0000 0.0000 0.0000 0.0000 25.6083 0.0000
# 6 0.0000 0.0000 0.0000 0.0000 0.0000 89.1111
#
#
#
# Elastic Compliance Matrix: (Units=1/GPa)
#
#
# Indices 1 2 3 4 5 6 
#
# 1 0.023403 -0.003074 -0.001525 0.000000 0.000000 0.000000
# 2 -0.003074 0.006905 -0.001971 0.000000 0.000000 0.000000
# 3 -0.001525 -0.001971 0.015852 0.000000 0.000000 0.000000
# 4 0.000000 0.000000 0.000000 0.049464 0.000000 0.000000
# 5 0.000000 0.000000 0.000000 0.000000 0.039050 0.000000
# 6 0.000000 0.000000 0.000000 0.000000 0.000000 0.011222
#
#
# Mechanical properties :
#
#
# Convention : Reuss Voigt Hill
#
# Bulk Modulus (GPa) = 30.28650 42.02276 36.15463
# Shear Modulus (GPa) = 29.40442 41.77760 35.59101
#
# Velocity S-wave (km/s) = 3.64877 4.34923 4.01431
# Velocity P-wave (km/s) = 5.60930 6.65190 6.15273
#
# Compressibility (1/GPa) = 0.03301801
#
# Stress axis : x y z
#
# Youngs Moduli (GPa) = 42.73012 144.82701 63.08474
#
# Poissons Ratio (x) = 0.44527 0.09621
# Poissons Ratio (y) = 0.13137 0.12434
# Poissons Ratio (z) = 0.06517 0.28545
#
# Static dielectric constant tensor:
#      x y z
#    x 1.868980 0.000000 0.000000 
#    y 0.000000 1.830460 0.000000 
#    z 0.000000 0.000000 1.883220 
# 
# From -- ./inp_files/13256.got.cif
#   From: 2010.05.17/outbox.cif.g08.bks.cpg/sg20_7_cif.got.tgz:13256.got - 2010.06.03 22:52:26.
