data_PCOD9320543
_publ_section_title
;
Structure prediction by ZEFSAII (Michael W. Deem and Ramdas Pophale) SiO2 
 PCOD9320543
Probable space group: C 2 2 21
;
_chemical_formula_sum "Si O2"
_cell_formula_units_Z 56
_cell_length_a 11.404883
_cell_length_b 16.203921
_cell_length_c 13.894980
_cell_angle_alpha 90.000000
_cell_angle_beta 90.000000
_cell_angle_gamma 90.000000
_cell_volume 2567.845427
_symmetry_space_group_name_H-M "C 2 2 21"
_symmetry_group_IT_number 20
_symmetry_cell_setting 'orthorhombic'
loop_
_space_group_symop_operation_xyz
x,y,z
-x,-y,1/2+z
x,-y,-z
-x,y,1/2-z
1/2+x,1/2+y,z
1/2-x,1/2-y,1/2+z
1/2+x,1/2-y,-z
1/2-x,1/2+y,1/2-z
loop_
_atom_site_type_symbol
_atom_site_label
_atom_site_fract_x
_atom_site_fract_y
_atom_site_fract_z
Si Si1 0.099776 0.928890 0.921199
Si Si2 0.257950 0.973637 0.201498
Si Si3 0.862025 0.829932 0.911507
Si Si4 0.129106 0.683663 0.732205
Si Si5 0.552696 0.098687 0.356840
Si Si6 0.814083 0.460828 0.597851
Si Si7 0.736488 0.770186 0.591217
O O1 0.180239 0.847689 0.936787
O O2 0.969086 0.892846 0.925237
O O3 0.138357 0.978174 0.823642
O O4 0.117213 0.000000 0.000000
O O5 0.279675 0.878089 0.179781
O O6 0.351559 0.026628 0.141488
O O7 0.297996 0.977721 0.313177
O O8 0.899505 0.758375 0.839621
O O9 0.757471 0.882111 0.865688
O O10 0.805207 0.790231 0.006704
O O11 0.193482 0.720782 0.826026
O O12 0.000000 0.643835 0.750000
O O13 0.500000 0.100219 0.250000
O O14 0.444285 0.072250 0.422354
O O15 0.617384 0.184250 0.375300
O O16 0.766331 0.500000 0.500000
#
# Coordination Sequence:
#
# PCOD9320543 Si02
#       7
#     8   8   8   8   8   8   8
#     4  11  24  47  68  99 144 189 235 288 364 438
#     4  10  23  42  69  97 133 183 235 284 358 435
#     4  12  26  41  70 101 141 185 235 296 355 427
#     4  12  23  43  71 107 142 184 240 302 365 421
#     4   9  20  41  65  93 135 181 234 290 356 418
#     4  11  23  40  67  97 136 182 240 293 351 425
#     4  11  25  43  67 106 139 184 239 300 359 422
#
# _framework density 21.808164999999999
#
# number of rings (size 3 to 8) (size 9 to 14) (size 15 to 20)
#    0.000    1.143    1.429    6.000    2.000    4.571 
#    2.571    0.000    0.000    0.000    0.000    0.000 
#    0.000    0.000    0.000    0.000    0.000    0.000 
#
# Total GULP energy -156312.156260 kJ/mol
# GULP energy per Si atom -5582.577009 kJ/mol
# Density = 2.175853 g / cm^3
# Si number density = 21.808165 Si / 1000 Ang^3
#
#
#
# Elastic Constant Matrix: (Units=GPa)
#
#
# Indices 1 2 3 4 5 6 
#
# 1 82.4018 29.2442 27.3121 0.0000 0.0000 0.0000
# 2 29.2442 99.9909 18.7552 0.0000 0.0000 0.0000
# 3 27.3121 18.7552 56.5201 0.0000 0.0000 0.0000
# 4 0.0000 0.0000 0.0000 44.8285 0.0000 0.0000
# 5 0.0000 0.0000 0.0000 0.0000 18.1251 0.0000
# 6 0.0000 0.0000 0.0000 0.0000 0.0000 38.3319
#
#
#
# Elastic Compliance Matrix: (Units=1/GPa)
#
#
# Indices 1 2 3 4 5 6 
#
# 1 0.015418 -0.003318 -0.006349 0.000000 0.000000 0.000000
# 2 -0.003318 0.011379 -0.002172 0.000000 0.000000 0.000000
# 3 -0.006349 -0.002172 0.021482 0.000000 0.000000 0.000000
# 4 0.000000 0.000000 0.000000 0.022307 0.000000 0.000000
# 5 0.000000 0.000000 0.000000 0.000000 0.055172 0.000000
# 6 0.000000 0.000000 0.000000 0.000000 0.000000 0.026088
#
#
# Mechanical properties :
#
#
# Convention : Reuss Voigt Hill
#
# Bulk Modulus (GPa) = 40.65253 43.28175 41.96714
# Shear Modulus (GPa) = 27.21458 31.16386 29.18922
#
# Velocity S-wave (km/s) = 3.53641 3.78431 3.66246
# Velocity P-wave (km/s) = 5.94612 6.24375 6.09675
#
# Compressibility (1/GPa) = 0.02459871
#
# Stress axis : x y z
#
# Youngs Moduli (GPa) = 64.86027 87.88208 46.55103
#
# Poissons Ratio (x) = 0.29162 0.29556
# Poissons Ratio (y) = 0.21523 0.10113
# Poissons Ratio (z) = 0.41181 0.19091
#
# Static dielectric constant tensor:
#      x y z
#    x 1.834220 0.000000 0.000000 
#    y 0.000000 1.859100 0.000000 
#    z 0.000000 0.000000 1.859010 
# 
# From -- ./inp_files/20047.got.cif
#   From: 2010.05.17/outbox.cif.g08.bks.cpg/sg20_11_cif.got.tgz:20047.got - 2010.06.03 22:52:26.
