data_PCOD9320099
_publ_section_title
;
Structure prediction by ZEFSAII (Michael W. Deem and Ramdas Pophale) SiO2 
 PCOD9320099
Probable space group: C 2 2 21
;
_chemical_formula_sum "Si O2"
_cell_formula_units_Z 56
_cell_length_a 16.236872
_cell_length_b 29.547350
_cell_length_c 4.972214
_cell_angle_alpha 90.000000
_cell_angle_beta 90.000000
_cell_angle_gamma 90.000000
_cell_volume 2385.452184
_symmetry_space_group_name_H-M "C 2 2 21"
_symmetry_group_IT_number 20
_symmetry_cell_setting 'orthorhombic'
loop_
_space_group_symop_operation_xyz
x,y,z
-x,-y,1/2+z
x,-y,-z
-x,y,1/2-z
1/2+x,1/2+y,z
1/2-x,1/2-y,1/2+z
1/2+x,1/2-y,-z
1/2-x,1/2+y,1/2-z
loop_
_atom_site_type_symbol
_atom_site_label
_atom_site_fract_x
_atom_site_fract_y
_atom_site_fract_z
Si Si1 0.500000 0.766401 0.750000
Si Si2 0.689391 0.618588 0.901990
Si Si3 0.912412 0.332162 0.410968
Si Si4 0.210898 0.404227 0.922818
Si Si5 0.304763 0.758938 0.103535
Si Si6 0.578192 0.455596 0.881387
Si Si7 0.078785 0.193519 0.153740
Si Si8 0.218050 0.000000 0.500000
O O1 0.428684 0.804029 0.685888
O O2 0.464323 0.731682 0.528541
O O3 0.761507 0.604165 0.113932
O O4 0.622592 0.578360 0.916385
O O5 0.644731 0.663468 0.001017
O O6 0.721335 0.622125 0.601488
O O7 0.874069 0.380131 0.496559
O O8 0.847030 0.303776 0.229017
O O9 0.000000 0.333565 0.250000
O O10 0.222389 0.456006 0.027119
O O11 0.237325 0.741114 0.316458
O O12 0.375065 0.720797 0.111941
O O13 0.500000 0.431736 0.750000
O O14 0.653522 0.477682 0.711575
O O15 0.537008 0.500000 0.000000
O O16 0.000000 0.165655 0.250000
#
# Coordination Sequence:
#
# PCOD9320099 Si02
#       8
#     4   8   8   8   8   8   8   4
#     4  10  24  42  66  88 136 174 228 276 348 394
#     4  11  25  43  67 101 138 185 230 282 336 422
#     4  11  26  44  72  98 135 183 231 289 352 416
#     4  11  25  45  73 100 137 180 234 286 351 417
#     4  11  24  40  65  92 128 171 222 272 328 401
#     4  11  20  37  62  97 137 186 228 277 341 415
#     4  11  25  41  62  94 137 180 221 280 339 393
#     4  10  22  42  68  98 140 178 230 288 354 404
#
# _framework density 23.475631
#
# number of rings (size 3 to 8) (size 9 to 14) (size 15 to 20)
#    0.000    1.143    2.143    3.857   12.000    0.000 
#    1.286    0.000    1.571    0.000    0.000    0.000 
#    0.000    0.000    0.000    0.000    0.000    0.000 
#
# Total GULP energy -156174.826529 kJ/mol
# GULP energy per Si atom -5577.672376 kJ/mol
# Density = 2.342220 g / cm^3
# Si number density = 23.475631 Si / 1000 Ang^3
#
#
#
# Elastic Constant Matrix: (Units=GPa)
#
#
# Indices 1 2 3 4 5 6 
#
# 1 107.8578 43.9588 14.2480 0.0000 0.0000 0.0000
# 2 43.9588 133.7848 -0.9795 0.0000 0.0000 0.0000
# 3 14.2480 -0.9795 68.4218 0.0000 0.0000 0.0000
# 4 0.0000 0.0000 0.0000 12.9061 0.0000 0.0000
# 5 0.0000 0.0000 0.0000 0.0000 36.1043 0.0000
# 6 0.0000 0.0000 0.0000 0.0000 0.0000 180.5615
#
#
#
# Elastic Compliance Matrix: (Units=1/GPa)
#
#
# Indices 1 2 3 4 5 6 
#
# 1 0.011073 -0.003656 -0.002358 0.000000 0.000000 0.000000
# 2 -0.003656 0.008682 0.000886 0.000000 0.000000 0.000000
# 3 -0.002358 0.000886 0.015119 0.000000 0.000000 0.000000
# 4 0.000000 0.000000 0.000000 0.077483 0.000000 0.000000
# 5 0.000000 0.000000 0.000000 0.000000 0.027698 0.000000
# 6 0.000000 0.000000 0.000000 0.000000 0.000000 0.005538
#
#
# Mechanical properties :
#
#
# Convention : Reuss Voigt Hill
#
# Bulk Modulus (GPa) = 40.62103 47.16876 43.89490
# Shear Modulus (GPa) = 30.47755 62.77019 46.62387
#
# Velocity S-wave (km/s) = 3.60705 5.17653 4.46135
# Velocity P-wave (km/s) = 5.88972 7.47428 6.72881
#
# Compressibility (1/GPa) = 0.02461779
#
# Stress axis : x y z
#
# Youngs Moduli (GPa) = 90.31109 115.17667 66.14221
#
# Poissons Ratio (x) = 0.42104 0.15597
# Poissons Ratio (y) = 0.33014 -0.05857
# Poissons Ratio (z) = 0.21296 -0.10199
#
# Static dielectric constant tensor:
#      x y z
#    x 1.989900 0.000000 0.000000 
#    y 0.000000 1.909280 0.000000 
#    z 0.000000 0.000000 1.993700 
# 
# From -- ./inp_files/2273.got.cif
#   From: 2010.05.17/outbox.cif.g08.bks.cpg/sg20_2_cif.got.tgz:2273.got - 2010.06.03 22:52:26.
