data_PCOD9320395
_publ_section_title
;
Structure prediction by ZEFSAII (Michael W. Deem and Ramdas Pophale) SiO2 
 PCOD9320395
Probable space group: C 2 2 21
;
_chemical_formula_sum "Si O2"
_cell_formula_units_Z 32
_cell_length_a 12.001943
_cell_length_b 9.578875
_cell_length_c 12.316273
_cell_angle_alpha 90.000000
_cell_angle_beta 90.000000
_cell_angle_gamma 90.000000
_cell_volume 1415.941702
_symmetry_space_group_name_H-M "C 2 2 21"
_symmetry_group_IT_number 20
_symmetry_cell_setting 'orthorhombic'
loop_
_space_group_symop_operation_xyz
x,y,z
-x,-y,1/2+z
x,-y,-z
-x,y,1/2-z
1/2+x,1/2+y,z
1/2-x,1/2-y,1/2+z
1/2+x,1/2-y,-z
1/2-x,1/2+y,1/2-z
loop_
_atom_site_type_symbol
_atom_site_label
_atom_site_fract_x
_atom_site_fract_y
_atom_site_fract_z
Si Si1 0.592700 0.009728 0.121796
Si Si2 0.181430 0.000000 0.000000
Si Si3 0.579407 0.291464 0.835331
Si Si4 0.500000 0.254908 0.250000
Si Si5 0.239315 0.118095 0.774019
O O1 0.528736 0.861345 0.135649
O O2 0.696541 0.999165 0.203721
O O3 0.520584 0.144775 0.150970
O O4 0.635334 0.000000 0.000000
O O5 0.108483 0.116451 0.061696
O O6 0.245169 0.923354 0.099080
O O7 0.500000 0.364402 0.750000
O O8 0.689848 0.249372 0.769134
O O9 0.388298 0.346449 0.245494
#
# Coordination Sequence:
#
# PCOD9320395 Si02
#       5
#     8   4   8   4   8
#     4  10  22  48  76 107 149 191 254 304 377 456
#     4  12  24  50  72 108 158 188 256 314 380 452
#     4  10  24  48  70 108 150 193 249 308 372 446
#     4  12  22  50  72 106 154 194 248 304 376 444
#     4  10  26  47  72 113 143 199 253 304 379 450
#
# _framework density 22.599800999999999
#
# number of rings (size 3 to 8) (size 9 to 14) (size 15 to 20)
#    1.500    0.000    1.250    3.000    1.750    0.000 
#   31.500    0.000    0.000    0.000    0.000    0.000 
#    0.000    0.000    0.000    0.000    0.000    0.000 
#
# Total GULP energy -89141.895725 kJ/mol
# GULP energy per Si atom -5571.368483 kJ/mol
# Density = 2.254836 g / cm^3
# Si number density = 22.599801 Si / 1000 Ang^3
#
#
#
# Elastic Constant Matrix: (Units=GPa)
#
#
# Indices 1 2 3 4 5 6 
#
# 1 112.7846 21.7879 50.7262 0.0000 0.0000 0.0000
# 2 21.7879 78.2510 24.5268 0.0000 0.0000 0.0000
# 3 50.7262 24.5268 180.7384 0.0000 0.0000 0.0000
# 4 0.0000 0.0000 0.0000 93.5178 0.0000 0.0000
# 5 0.0000 0.0000 0.0000 0.0000 45.7399 0.0000
# 6 0.0000 0.0000 0.0000 0.0000 0.0000 -38.3350
#
#
#
# Elastic Compliance Matrix: (Units=1/GPa)
#
#
# Indices 1 2 3 4 5 6 
#
# 1 0.010462 -0.002081 -0.002654 0.000000 0.000000 0.000000
# 2 -0.002081 0.013761 -0.001283 0.000000 0.000000 0.000000
# 3 -0.002654 -0.001283 0.006452 0.000000 0.000000 0.000000
# 4 0.000000 0.000000 0.000000 0.010693 0.000000 0.000000
# 5 0.000000 0.000000 0.000000 0.000000 0.021863 0.000000
# 6 0.000000 0.000000 0.000000 0.000000 0.000000 -0.026086
#
#
# Mechanical properties :
#
#
# Convention : Reuss Voigt Hill
#
# Bulk Modulus (GPa) = 53.65302 62.87286 58.26294
# Shear Modulus (GPa) = 90.26128 38.50008 64.38068
#
# Velocity S-wave (km/s) = 6.32658 4.13190 5.34314
# Velocity P-wave (km/s) = 8.78405 7.11645 7.99386
#
# Compressibility (1/GPa) = 0.01863828
#
# Stress axis : x y z
#
# Youngs Moduli (GPa) = 95.58286 72.66857 154.99430
#
# Poissons Ratio (x) = 0.15124 0.41134
# Poissons Ratio (y) = 0.19893 0.19891
# Poissons Ratio (z) = 0.25367 0.09326
#
# Static dielectric constant tensor:
#      x y z
#    x 1.833720 0.000000 0.000000 
#    y 0.000000 1.949430 0.000000 
#    z 0.000000 0.000000 1.836360 
# 
# From -- ./inp_files/13625.got.cif
#   From: 2010.05.17/outbox.cif.g08.bks.cpg/sg20_7_cif.got.tgz:13625.got - 2010.06.03 22:52:26.
