data_PCOD9320286
_publ_section_title
;
Structure prediction by ZEFSAII (Michael W. Deem and Ramdas Pophale) SiO2 
 PCOD9320286
Probable space group: C 2 2 21
;
_chemical_formula_sum "Si O2"
_cell_formula_units_Z 40
_cell_length_a 8.055359
_cell_length_b 26.805300
_cell_length_c 8.268596
_cell_angle_alpha 90.000000
_cell_angle_beta 90.000000
_cell_angle_gamma 90.000000
_cell_volume 1785.407461
_symmetry_space_group_name_H-M "C 2 2 21"
_symmetry_group_IT_number 20
_symmetry_cell_setting 'orthorhombic'
loop_
_space_group_symop_operation_xyz
x,y,z
-x,-y,1/2+z
x,-y,-z
-x,y,1/2-z
1/2+x,1/2+y,z
1/2-x,1/2-y,1/2+z
1/2+x,1/2-y,-z
1/2-x,1/2+y,1/2-z
loop_
_atom_site_type_symbol
_atom_site_label
_atom_site_fract_x
_atom_site_fract_y
_atom_site_fract_z
Si Si1 0.000000 0.842881 0.750000
Si Si2 0.500000 0.514312 0.750000
Si Si3 0.167768 0.800215 0.294845
Si Si4 0.691039 0.802228 0.558048
Si Si5 0.857513 0.932680 0.946934
Si Si6 0.069064 0.626246 0.930002
O O1 0.147217 0.812376 0.833285
O O2 0.074641 0.880853 0.619684
O O3 0.359057 0.473737 0.802713
O O4 0.518057 0.548653 0.590499
O O5 0.114083 0.748930 0.378395
O O6 0.297663 0.829335 0.404469
O O7 0.000000 0.829647 0.250000
O O8 0.258746 0.791984 0.125903
O O9 0.570967 0.850422 0.546953
O O10 0.673522 0.920947 0.009639
O O11 0.000000 0.616003 0.750000
#
# Coordination Sequence:
#
# PCOD9320286 Si02
#       6
#     4   4   8   8   8   8
#     4  11  26  40  70 100 134 188 240 288 348 431
#     4   9  22  44  80  96 126 174 214 290 376 465
#     4  11  24  40  64  94 142 202 242 293 340 410
#     4  11  26  41  63 101 144 194 247 290 348 402
#     4  10  22  44  73 103 130 170 231 284 363 443
#     4  10  24  41  67 105 142 186 237 298 350 418
#
# _framework density 22.403849000000001
#
# number of rings (size 3 to 8) (size 9 to 14) (size 15 to 20)
#    0.000    1.600    0.000    2.400   19.600    0.000 
#    0.000    0.000   26.400    0.000    0.000    0.000 
#    0.000    0.000    0.000    0.000    0.000    0.000 
#
# Total GULP energy -111604.501200 kJ/mol
# GULP energy per Si atom -5580.225060 kJ/mol
# Density = 2.235286 g / cm^3
# Si number density = 22.403849 Si / 1000 Ang^3
#
#
#
# Elastic Constant Matrix: (Units=GPa)
#
#
# Indices 1 2 3 4 5 6 
#
# 1 93.8858 22.5832 39.7920 0.0000 0.0000 0.0000
# 2 22.5832 61.2376 34.4963 0.0000 0.0000 0.0000
# 3 39.7920 34.4963 89.2011 0.0000 0.0000 0.0000
# 4 0.0000 0.0000 0.0000 31.8574 0.0000 0.0000
# 5 0.0000 0.0000 0.0000 0.0000 41.3800 0.0000
# 6 0.0000 0.0000 0.0000 0.0000 0.0000 8.2820
#
#
#
# Elastic Compliance Matrix: (Units=1/GPa)
#
#
# Indices 1 2 3 4 5 6 
#
# 1 0.013324 -0.002001 -0.005170 0.000000 0.000000 0.000000
# 2 -0.002001 0.021179 -0.007298 0.000000 0.000000 0.000000
# 3 -0.005170 -0.007298 0.016339 0.000000 0.000000 0.000000
# 4 0.000000 0.000000 0.000000 0.031390 0.000000 0.000000
# 5 0.000000 0.000000 0.000000 0.000000 0.024166 0.000000
# 6 0.000000 0.000000 0.000000 0.000000 0.000000 0.120743
#
#
# Mechanical properties :
#
#
# Convention : Reuss Voigt Hill
#
# Bulk Modulus (GPa) = 45.65323 48.67417 47.16370
# Shear Modulus (GPa) = 18.98404 26.13409 22.55906
#
# Velocity S-wave (km/s) = 2.91410 3.41911 3.17666
# Velocity P-wave (km/s) = 5.63420 6.11229 5.87811
#
# Compressibility (1/GPa) = 0.02190425
#
# Stress axis : x y z
#
# Youngs Moduli (GPa) = 75.05418 47.21712 61.20360
#
# Poissons Ratio (x) = 0.09450 0.31640
# Poissons Ratio (y) = 0.15021 0.44664
# Poissons Ratio (z) = 0.38800 0.34457
#
# Static dielectric constant tensor:
#      x y z
#    x 1.873940 0.000000 0.000000 
#    y 0.000000 1.839790 0.000000 
#    z 0.000000 0.000000 1.900140 
# 
# From -- ./inp_files/6306.got.cif
#   From: 2010.05.17/outbox.cif.g08.bks.cpg/sg20_4_cif.got.tgz:6306.got - 2010.06.03 22:52:26.
