data_PCOD9320507
_publ_section_title
;
Structure prediction by ZEFSAII (Michael W. Deem and Ramdas Pophale) SiO2 
 PCOD9320507
Probable space group: C 2 2 21
;
_chemical_formula_sum "Si O2"
_cell_formula_units_Z 40
_cell_length_a 9.376598
_cell_length_b 17.639677
_cell_length_c 12.808442
_cell_angle_alpha 90.000000
_cell_angle_beta 90.000000
_cell_angle_gamma 90.000000
_cell_volume 2118.518357
_symmetry_space_group_name_H-M "C 2 2 21"
_symmetry_group_IT_number 20
_symmetry_cell_setting 'orthorhombic'
loop_
_space_group_symop_operation_xyz
x,y,z
-x,-y,1/2+z
x,-y,-z
-x,y,1/2-z
1/2+x,1/2+y,z
1/2-x,1/2-y,1/2+z
1/2+x,1/2-y,-z
1/2-x,1/2+y,1/2-z
loop_
_atom_site_type_symbol
_atom_site_label
_atom_site_fract_x
_atom_site_fract_y
_atom_site_fract_z
Si Si1 0.624536 0.167485 0.589093
Si Si2 0.000000 0.437629 0.750000
Si Si3 0.709935 0.819086 0.647197
Si Si4 0.139765 0.447038 0.095070
Si Si5 0.160227 0.849789 0.271057
Si Si6 0.000000 0.208678 0.250000
O O1 0.695893 0.188043 0.478332
O O2 0.497631 0.106620 0.573204
O O3 0.743859 0.136824 0.668490
O O4 0.557194 0.237263 0.655638
O O5 0.100142 0.383816 0.681165
O O6 0.903475 0.493595 0.683363
O O7 0.665074 0.739030 0.698678
O O8 0.866618 0.834371 0.697015
O O9 0.265274 0.393983 0.135121
O O10 0.180387 0.500000 0.000000
O O11 0.000000 0.873463 0.250000
#
# Coordination Sequence:
#
# PCOD9320507 Si02
#       6
#     8   4   8   8   8   4
#     4  11  21  41  68  94 135 181 219 274 347 398
#     4  12  23  42  66 103 128 172 236 268 325 424
#     4  11  24  39  70 101 133 175 230 281 335 401
#     4  12  23  44  70  93 132 186 220 269 346 414
#     4  11  24  43  65  99 138 174 222 281 337 403
#     4  10  23  42  62  99 140 168 222 290 333 402
#
# _framework density 18.881119999999999
#
# number of rings (size 3 to 8) (size 9 to 14) (size 15 to 20)
#    0.000    0.800    9.000    0.000    2.800    3.200 
#    1.800    1.000    0.000    0.000    0.000    0.000 
#    0.000    0.000    0.000    0.000    0.000    0.000 
#
# Total GULP energy -111644.252588 kJ/mol
# GULP energy per Si atom -5582.212629 kJ/mol
# Density = 1.883815 g / cm^3
# Si number density = 18.881120 Si / 1000 Ang^3
#
#
#
# Elastic Constant Matrix: (Units=GPa)
#
#
# Indices 1 2 3 4 5 6 
#
# 1 101.9508 12.4809 15.0604 0.0000 0.0000 0.0000
# 2 12.4809 56.2316 2.0125 0.0000 0.0000 0.0000
# 3 15.0604 2.0125 85.8013 0.0000 0.0000 0.0000
# 4 0.0000 0.0000 0.0000 38.7031 0.0000 0.0000
# 5 0.0000 0.0000 0.0000 0.0000 31.1560 0.0000
# 6 0.0000 0.0000 0.0000 0.0000 0.0000 11.1850
#
#
#
# Elastic Compliance Matrix: (Units=1/GPa)
#
#
# Indices 1 2 3 4 5 6 
#
# 1 0.010342 -0.002232 -0.001763 0.000000 0.000000 0.000000
# 2 -0.002232 0.018280 -0.000037 0.000000 0.000000 0.000000
# 3 -0.001763 -0.000037 0.011965 0.000000 0.000000 0.000000
# 4 0.000000 0.000000 0.000000 0.025838 0.000000 0.000000
# 5 0.000000 0.000000 0.000000 0.000000 0.032097 0.000000
# 6 0.000000 0.000000 0.000000 0.000000 0.000000 0.089406
#
#
# Mechanical properties :
#
#
# Convention : Reuss Voigt Hill
#
# Bulk Modulus (GPa) = 30.74725 33.67679 32.21202
# Shear Modulus (GPa) = 24.17399 30.50414 27.33906
#
# Velocity S-wave (km/s) = 3.58205 4.02380 3.80933
# Velocity P-wave (km/s) = 5.78170 6.28195 6.03701
#
# Compressibility (1/GPa) = 0.03252324
#
# Stress axis : x y z
#
# Youngs Moduli (GPa) = 96.68956 54.70330 83.57601
#
# Poissons Ratio (x) = 0.12212 0.14734
# Poissons Ratio (y) = 0.21585 0.00309
# Poissons Ratio (z) = 0.17046 0.00202
#
# Static dielectric constant tensor:
#      x y z
#    x 1.656250 0.000000 0.000000 
#    y 0.000000 1.628020 0.000000 
#    z 0.000000 0.000000 1.641340 
# 
# From -- ./inp_files/12953.got.cif
#   From: 2010.05.17/outbox.cif.g08.bks.cpg/sg20_7_cif.got.tgz:12953.got - 2010.06.03 22:52:26.
