data_PCOD9320935
_publ_section_title
;
Structure prediction by ZEFSAII (Michael W. Deem and Ramdas Pophale) SiO2 
 PCOD9320935
Probable space group: C 2 2 21
;
_chemical_formula_sum "Si O2"
_cell_formula_units_Z 32
_cell_length_a 14.402570
_cell_length_b 12.690868
_cell_length_c 7.611376
_cell_angle_alpha 90.000000
_cell_angle_beta 90.000000
_cell_angle_gamma 90.000000
_cell_volume 1391.215790
_symmetry_space_group_name_H-M "C 2 2 21"
_symmetry_group_IT_number 20
_symmetry_cell_setting 'orthorhombic'
loop_
_space_group_symop_operation_xyz
x,y,z
-x,-y,1/2+z
x,-y,-z
-x,y,1/2-z
1/2+x,1/2+y,z
1/2-x,1/2-y,1/2+z
1/2+x,1/2-y,-z
1/2-x,1/2+y,1/2-z
loop_
_atom_site_type_symbol
_atom_site_label
_atom_site_fract_x
_atom_site_fract_y
_atom_site_fract_z
Si Si1 0.385269 0.771854 0.531642
Si Si2 0.810028 0.721759 0.864024
Si Si3 0.000000 0.430785 0.750000
Si Si4 0.152381 0.500000 0.500000
Si Si5 0.466075 0.618067 0.048938
O O1 0.291725 0.772065 0.643910
O O2 0.352943 0.788822 0.330787
O O3 0.456121 0.860271 0.596125
O O4 0.444262 0.664224 0.551801
O O5 0.796762 0.610301 0.964822
O O6 0.881433 0.799344 0.964314
O O7 0.915356 0.492520 0.833094
O O8 0.500000 0.616989 0.250000
O O9 0.439488 0.500000 0.000000
#
# Coordination Sequence:
#
# PCOD9320935 Si02
#       5
#     8   8   4   4   8
#     4  11  25  47  70 100 141 178 234 283 345 406
#     4  11  25  47  66 107 137 179 233 284 342 414
#     4  12  24  44  72  98 140 184 224 290 342 412
#     4  12  24  42  72 102 138 180 230 284 344 412
#     4  10  24  45  69  97 135 179 228 281 337 403
#
# _framework density 23.001465
#
# number of rings (size 3 to 8) (size 9 to 14) (size 15 to 20)
#    0.000    1.000    2.500    3.000    5.250    0.000 
#   11.250    0.000    0.000    0.000    0.000    0.000 
#    0.000    0.000    0.000    0.000    0.000    0.000 
#
# Total GULP energy -89510.698095 kJ/mol
# GULP energy per Si atom -5594.418631 kJ/mol
# Density = 2.294911 g / cm^3
# Si number density = 23.001465 Si / 1000 Ang^3
#
#
#
# Elastic Constant Matrix: (Units=GPa)
#
#
# Indices 1 2 3 4 5 6 
#
# 1 111.5461 32.9093 16.1479 0.0000 0.0000 0.0000
# 2 32.9093 107.4799 14.2198 0.0000 0.0000 0.0000
# 3 16.1479 14.2198 56.7030 0.0000 0.0000 0.0000
# 4 0.0000 0.0000 0.0000 33.1250 0.0000 0.0000
# 5 0.0000 0.0000 0.0000 0.0000 42.2754 0.0000
# 6 0.0000 0.0000 0.0000 0.0000 0.0000 17.2185
#
#
#
# Elastic Compliance Matrix: (Units=1/GPa)
#
#
# Indices 1 2 3 4 5 6 
#
# 1 0.010108 -0.002807 -0.002175 0.000000 0.000000 0.000000
# 2 -0.002807 0.010403 -0.001809 0.000000 0.000000 0.000000
# 3 -0.002175 -0.001809 0.018709 0.000000 0.000000 0.000000
# 4 0.000000 0.000000 0.000000 0.030189 0.000000 0.000000
# 5 0.000000 0.000000 0.000000 0.000000 0.023654 0.000000
# 6 0.000000 0.000000 0.000000 0.000000 0.000000 0.058077
#
#
# Mechanical properties :
#
#
# Convention : Reuss Voigt Hill
#
# Bulk Modulus (GPa) = 39.00560 44.69809 41.85184
# Shear Modulus (GPa) = 28.85704 32.68724 30.77214
#
# Velocity S-wave (km/s) = 3.54584 3.77383 3.66161
# Velocity P-wave (km/s) = 5.81022 6.20193 6.00927
#
# Compressibility (1/GPa) = 0.02563734
#
# Stress axis : x y z
#
# Youngs Moduli (GPa) = 98.93233 96.12608 53.45090
#
# Poissons Ratio (x) = 0.26985 0.11623
# Poissons Ratio (y) = 0.27773 0.09671
# Poissons Ratio (z) = 0.21513 0.17393
#
# Static dielectric constant tensor:
#      x y z
#    x 1.794070 0.000000 0.000000 
#    y 0.000000 1.857950 0.000000 
#    z 0.000000 0.000000 1.928400 
# 
# From -- ./inp_files/6833.got.cif
#   From: 2010.05.17/outbox.cif.g08.bks.cpg/sg20_4_cif.got.tgz:6833.got - 2010.06.03 22:52:26.
