data_PCOD9320505
_publ_section_title
;
Structure prediction by ZEFSAII (Michael W. Deem and Ramdas Pophale) SiO2 
 PCOD9320505
Probable space group: C 2 2 21
;
_chemical_formula_sum "Si O2"
_cell_formula_units_Z 48
_cell_length_a 28.120347
_cell_length_b 10.307581
_cell_length_c 8.674164
_cell_angle_alpha 90.000000
_cell_angle_beta 90.000000
_cell_angle_gamma 90.000000
_cell_volume 2514.230328
_symmetry_space_group_name_H-M "C 2 2 21"
_symmetry_group_IT_number 20
_symmetry_cell_setting 'orthorhombic'
loop_
_space_group_symop_operation_xyz
x,y,z
-x,-y,1/2+z
x,-y,-z
-x,y,1/2-z
1/2+x,1/2+y,z
1/2-x,1/2-y,1/2+z
1/2+x,1/2-y,-z
1/2-x,1/2+y,1/2-z
loop_
_atom_site_type_symbol
_atom_site_label
_atom_site_fract_x
_atom_site_fract_y
_atom_site_fract_z
Si Si1 0.955674 0.103637 0.864556
Si Si2 0.454727 0.900736 0.861860
Si Si3 0.139300 0.507503 0.184086
Si Si4 0.208676 0.257177 0.832031
Si Si5 0.351256 0.527070 0.816935
Si Si6 0.687319 0.737769 0.195168
O O1 0.951673 0.252388 0.920079
O O2 0.905182 0.071635 0.786348
O O3 0.000000 0.094989 0.750000
O O4 0.962033 0.000000 0.000000
O O5 0.500000 0.908118 0.750000
O O6 0.407104 0.940451 0.770352
O O7 0.461063 0.000000 0.000000
O O8 0.181981 0.609355 0.211679
O O9 0.156247 0.364733 0.233917
O O10 0.130276 0.500000 0.000000
O O11 0.184155 0.138621 0.741376
O O12 0.263937 0.262136 0.791137
O O13 0.200663 0.241476 0.014640
O O14 0.340379 0.393387 0.731599
O O15 0.346156 0.500000 0.000000
#
# Coordination Sequence:
#
# PCOD9320505 Si02
#       6
#     8   8   8   8   8   8
#     4  10  24  44  65  95 128 165 208 261 313 377
#     4  11  24  43  68  96 128 163 209 259 315 379
#     4  10  23  42  62  92 127 166 209 262 316 373
#     4  11  22  42  62  94 128 167 215 265 319 377
#     4  11  23  41  62  93 128 167 214 262 312 377
#     4  11  24  38  66  92 127 170 213 263 321 377
#
# _framework density 19.091329999999999
#
# number of rings (size 3 to 8) (size 9 to 14) (size 15 to 20)
#    0.000    1.333    1.667    3.000    4.667    4.667 
#    3.000    0.000    0.000    0.000    0.000    0.000 
#    0.000    0.000    0.000    0.000    0.000    0.000 
#
# Total GULP energy -134195.480932 kJ/mol
# GULP energy per Si atom -5591.478372 kJ/mol
# Density = 1.904788 g / cm^3
# Si number density = 19.091330 Si / 1000 Ang^3
#
#
#
# Elastic Constant Matrix: (Units=GPa)
#
#
# Indices 1 2 3 4 5 6 
#
# 1 92.5132 61.4194 22.7889 0.0000 0.0000 0.0000
# 2 61.4194 184.3959 41.9375 0.0000 0.0000 0.0000
# 3 22.7889 41.9375 40.0867 0.0000 0.0000 0.0000
# 4 0.0000 0.0000 0.0000 32.9214 0.0000 0.0000
# 5 0.0000 0.0000 0.0000 0.0000 21.2895 0.0000
# 6 0.0000 0.0000 0.0000 0.0000 0.0000 34.1274
#
#
#
# Elastic Compliance Matrix: (Units=1/GPa)
#
#
# Indices 1 2 3 4 5 6 
#
# 1 0.014387 -0.003847 -0.004154 0.000000 0.000000 0.000000
# 2 -0.003847 0.008145 -0.006334 0.000000 0.000000 0.000000
# 3 -0.004154 -0.006334 0.033934 0.000000 0.000000 0.000000
# 4 0.000000 0.000000 0.000000 0.030375 0.000000 0.000000
# 5 0.000000 0.000000 0.000000 0.000000 0.046972 0.000000
# 6 0.000000 0.000000 0.000000 0.000000 0.000000 0.029302
#
#
# Mechanical properties :
#
#
# Convention : Reuss Voigt Hill
#
# Bulk Modulus (GPa) = 35.97716 63.25414 49.61565
# Shear Modulus (GPa) = 24.86943 30.39098 27.63021
#
# Velocity S-wave (km/s) = 3.61315 3.99416 3.80842
# Velocity P-wave (km/s) = 6.02429 7.38074 6.73675
#
# Compressibility (1/GPa) = 0.02779541
#
# Stress axis : x y z
#
# Youngs Moduli (GPa) = 69.50871 122.77234 29.46911
#
# Poissons Ratio (x) = 0.47234 0.12241
# Poissons Ratio (y) = 0.26742 0.18666
# Poissons Ratio (z) = 0.28872 0.77765
#
# Static dielectric constant tensor:
#      x y z
#    x 1.636290 0.000000 0.000000 
#    y 0.000000 1.644260 0.000000 
#    z 0.000000 0.000000 1.641840 
# 
# From -- ./inp_files/6476.got.cif
#   From: 2010.05.17/outbox.cif.g08.bks.cpg/sg20_4_cif.got.tgz:6476.got - 2010.06.03 22:52:26.
