data_PCOD9320035
_publ_section_title
;
Structure prediction by ZEFSAII (Michael W. Deem and Ramdas Pophale) SiO2 
 PCOD9320035
Probable space group: C 2 2 21
;
_chemical_formula_sum "Si O2"
_cell_formula_units_Z 40
_cell_length_a 7.477510
_cell_length_b 12.405268
_cell_length_c 17.552987
_cell_angle_alpha 90.000000
_cell_angle_beta 90.000000
_cell_angle_gamma 90.000000
_cell_volume 1628.224123
_symmetry_space_group_name_H-M "C 2 2 21"
_symmetry_group_IT_number 20
_symmetry_cell_setting 'orthorhombic'
loop_
_space_group_symop_operation_xyz
x,y,z
-x,-y,1/2+z
x,-y,-z
-x,y,1/2-z
1/2+x,1/2+y,z
1/2-x,1/2-y,1/2+z
1/2+x,1/2-y,-z
1/2-x,1/2+y,1/2-z
loop_
_atom_site_type_symbol
_atom_site_label
_atom_site_fract_x
_atom_site_fract_y
_atom_site_fract_z
Si Si1 0.360277 0.740297 0.085051
Si Si2 0.915198 0.103464 0.832143
Si Si3 0.374715 0.615451 0.507666
Si Si4 0.485119 0.836738 0.669110
Si Si5 0.931527 0.533628 0.585306
O O1 0.241918 0.776446 0.012194
O O2 0.214741 0.705444 0.147685
O O3 0.464995 0.853196 0.096939
O O4 0.484408 0.643041 0.058157
O O5 0.736673 0.043504 0.857496
O O6 0.000000 0.069390 0.750000
O O7 0.037984 0.102387 0.908155
O O8 0.888039 0.232769 0.824801
O O9 0.283878 0.500000 0.500000
O O10 0.500000 0.891836 0.750000
O O11 0.538693 0.926866 0.609792
O O12 0.869874 0.500000 0.500000
#
# Coordination Sequence:
#
# PCOD9320035 Si02
#       5
#     8   8   8   8   8
#     4  11  24  41  68 101 132 174 231 289 341 410
#     4  10  22  42  64  94 137 174 220 283 341 409
#     4  11  22  40  66  96 129 172 224 277 338 405
#     4  10  24  44  65  98 139 180 229 286 352 423
#     4  12  24  43  74 103 134 184 236 289 352 419
#
# _framework density 24.566642000000002
#
# number of rings (size 3 to 8) (size 9 to 14) (size 15 to 20)
#    0.000    1.200    0.000    7.200    0.000    6.400 
#    0.000    8.000    0.000    1.200    0.000    0.000 
#    0.000    0.000    0.000    0.000    0.000    0.000 
#
# Total GULP energy -111621.441020 kJ/mol
# GULP energy per Si atom -5581.072051 kJ/mol
# Density = 2.451073 g / cm^3
# Si number density = 24.566642 Si / 1000 Ang^3
#
#
#
# Elastic Constant Matrix: (Units=GPa)
#
#
# Indices 1 2 3 4 5 6 
#
# 1 73.8760 34.8455 29.8503 0.0000 0.0000 0.0000
# 2 34.8455 118.0809 32.4758 0.0000 0.0000 0.0000
# 3 29.8503 32.4758 118.6229 0.0000 0.0000 0.0000
# 4 0.0000 0.0000 0.0000 28.7283 0.0000 0.0000
# 5 0.0000 0.0000 0.0000 0.0000 38.4721 0.0000
# 6 0.0000 0.0000 0.0000 0.0000 0.0000 37.3131
#
#
#
# Elastic Compliance Matrix: (Units=1/GPa)
#
#
# Indices 1 2 3 4 5 6 
#
# 1 0.016709 -0.004082 -0.003087 0.000000 0.000000 0.000000
# 2 -0.004082 0.010155 -0.001753 0.000000 0.000000 0.000000
# 3 -0.003087 -0.001753 0.009687 0.000000 0.000000 0.000000
# 4 0.000000 0.000000 0.000000 0.034809 0.000000 0.000000
# 5 0.000000 0.000000 0.000000 0.000000 0.025993 0.000000
# 6 0.000000 0.000000 0.000000 0.000000 0.000000 0.026800
#
#
# Mechanical properties :
#
#
# Convention : Reuss Voigt Hill
#
# Bulk Modulus (GPa) = 53.45555 56.10257 54.77906
# Shear Modulus (GPa) = 33.73071 35.12991 34.43031
#
# Velocity S-wave (km/s) = 3.70946 3.78562 3.74773
# Velocity P-wave (km/s) = 6.33667 6.48030 6.40889
#
# Compressibility (1/GPa) = 0.01870713
#
# Stress axis : x y z
#
# Youngs Moduli (GPa) = 59.84858 98.46928 103.23220
#
# Poissons Ratio (x) = 0.40192 0.31869
# Poissons Ratio (y) = 0.24428 0.18098
# Poissons Ratio (z) = 0.18476 0.17263
#
# Static dielectric constant tensor:
#      x y z
#    x 2.035600 0.000000 0.000000 
#    y 0.000000 1.936020 0.000000 
#    z 0.000000 0.000000 2.118260 
# 
# From -- ./inp_files/23136.got.cif
#   From: 2010.05.17/outbox.cif.g08.bks.cpg/sg20_12_cif.got.tgz:23136.got - 2010.06.03 22:52:26.
