data_PCOD9320394
_publ_section_title
;
Structure prediction by ZEFSAII (Michael W. Deem and Ramdas Pophale) SiO2 
 PCOD9320394
Probable space group: C 2 2 21
;
_chemical_formula_sum "Si O2"
_cell_formula_units_Z 36
_cell_length_a 13.302721
_cell_length_b 5.501334
_cell_length_c 20.298357
_cell_angle_alpha 90.000000
_cell_angle_beta 90.000000
_cell_angle_gamma 90.000000
_cell_volume 1485.488801
_symmetry_space_group_name_H-M "C 2 2 21"
_symmetry_group_IT_number 20
_symmetry_cell_setting 'orthorhombic'
loop_
_space_group_symop_operation_xyz
x,y,z
-x,-y,1/2+z
x,-y,-z
-x,y,1/2-z
1/2+x,1/2+y,z
1/2-x,1/2-y,1/2+z
1/2+x,1/2-y,-z
1/2-x,1/2+y,1/2-z
loop_
_atom_site_type_symbol
_atom_site_label
_atom_site_fract_x
_atom_site_fract_y
_atom_site_fract_z
Si Si1 0.470932 0.116388 0.675245
Si Si2 0.851167 0.879145 0.569432
Si Si3 0.842985 0.674609 0.894434
Si Si4 0.762433 0.436506 0.710732
Si Si5 0.285280 0.500000 0.000000
O O1 0.500000 0.188643 0.750000
O O2 0.433044 0.324908 0.624875
O O3 0.568312 0.017698 0.636601
O O4 0.375877 0.940419 0.683035
O O5 0.791745 0.633803 0.549133
O O6 0.884650 0.000000 0.500000
O O7 0.762531 0.038447 0.600597
O O8 0.823160 0.891716 0.843207
O O9 0.853663 0.796742 0.965574
O O10 0.748353 0.701485 0.742582
#
# Coordination Sequence:
#
# PCOD9320394 Si02
#       5
#     8   8   8   8   4
#     4  12  26  45  75 115 145 215 261 325 401 475
#     4  10  24  51  72 107 158 205 259 336 392 477
#     4  11  25  47  73 107 153 200 261 325 393 465
#     4  12  26  52  74 108 162 201 253 324 389 470
#     4  10  22  48  76 100 154 204 258 326 396 460
#
# _framework density 24.234448
#
# number of rings (size 3 to 8) (size 9 to 14) (size 15 to 20)
#    0.000    0.889    4.444    1.333    1.556    0.000 
#   22.000    0.000    0.000    0.000    0.000    0.000 
#    0.000    0.000    0.000    0.000    0.000    0.000 
#
# Total GULP energy -100573.101996 kJ/mol
# GULP energy per Si atom -5587.394555 kJ/mol
# Density = 2.417929 g / cm^3
# Si number density = 24.234448 Si / 1000 Ang^3
#
#
#
# Elastic Constant Matrix: (Units=GPa)
#
#
# Indices 1 2 3 4 5 6 
#
# 1 99.1005 11.0957 39.7705 0.0000 0.0000 0.0000
# 2 11.0957 76.6988 21.4074 0.0000 0.0000 0.0000
# 3 39.7705 21.4074 92.9877 0.0000 0.0000 0.0000
# 4 0.0000 0.0000 0.0000 38.3663 0.0000 0.0000
# 5 0.0000 0.0000 0.0000 0.0000 53.9992 0.0000
# 6 0.0000 0.0000 0.0000 0.0000 0.0000 11.8882
#
#
#
# Elastic Compliance Matrix: (Units=1/GPa)
#
#
# Indices 1 2 3 4 5 6 
#
# 1 0.012189 -0.000329 -0.005138 0.000000 0.000000 0.000000
# 2 -0.000329 0.013942 -0.003069 0.000000 0.000000 0.000000
# 3 -0.005138 -0.003069 0.013658 0.000000 0.000000 0.000000
# 4 0.000000 0.000000 0.000000 0.026065 0.000000 0.000000
# 5 0.000000 0.000000 0.000000 0.000000 0.018519 0.000000
# 6 0.000000 0.000000 0.000000 0.000000 0.000000 0.084117
#
#
# Mechanical properties :
#
#
# Convention : Reuss Voigt Hill
#
# Bulk Modulus (GPa) = 44.01813 45.92602 44.97208
# Shear Modulus (GPa) = 25.88873 33.95162 29.92018
#
# Velocity S-wave (km/s) = 3.27197 3.74701 3.51752
# Velocity P-wave (km/s) = 5.69889 6.14101 5.92407
#
# Compressibility (1/GPa) = 0.02271791
#
# Stress axis : x y z
#
# Youngs Moduli (GPa) = 82.03837 71.72463 73.21767
#
# Poissons Ratio (x) = 0.02363 0.37616
# Poissons Ratio (y) = 0.02703 0.22469
# Poissons Ratio (z) = 0.42147 0.22011
#
# Static dielectric constant tensor:
#      x y z
#    x 1.926680 0.000000 0.000000 
#    y 0.000000 1.918300 0.000000 
#    z 0.000000 0.000000 2.044820 
# 
# From -- ./inp_files/25906.got.cif
#   From: 2010.05.17/outbox.cif.g08.bks.cpg/sg20_13_cif.got.tgz:25906.got - 2010.06.03 22:52:26.
