data_PCOD9320280
_publ_section_title
;
Structure prediction by ZEFSAII (Michael W. Deem and Ramdas Pophale) SiO2 
 PCOD9320280
Probable space group: C 2 2 21
;
_chemical_formula_sum "Si O2"
_cell_formula_units_Z 48
_cell_length_a 9.160299
_cell_length_b 6.975255
_cell_length_c 27.764853
_cell_angle_alpha 90.000000
_cell_angle_beta 90.000000
_cell_angle_gamma 90.000000
_cell_volume 1774.046983
_symmetry_space_group_name_H-M "C 2 2 21"
_symmetry_group_IT_number 20
_symmetry_cell_setting 'orthorhombic'
loop_
_space_group_symop_operation_xyz
x,y,z
-x,-y,1/2+z
x,-y,-z
-x,y,1/2-z
1/2+x,1/2+y,z
1/2-x,1/2-y,1/2+z
1/2+x,1/2-y,-z
1/2-x,1/2+y,1/2-z
loop_
_atom_site_type_symbol
_atom_site_label
_atom_site_fract_x
_atom_site_fract_y
_atom_site_fract_z
Si Si1 0.361426 0.500000 0.000000
Si Si2 0.148294 0.244221 0.722153
Si Si3 0.785751 0.579179 0.403456
Si Si4 0.768747 0.868964 0.622624
Si Si5 0.940113 0.377932 0.953145
Si Si6 0.500000 0.115466 0.750000
Si Si7 0.441906 0.633657 0.167650
O O1 0.270705 0.396435 0.957796
O O2 0.445173 0.663970 0.972556
O O3 0.191278 0.367716 0.675308
O O4 0.291356 0.183275 0.751619
O O5 0.000000 0.364050 0.750000
O O6 0.079741 0.046852 0.703111
O O7 0.763427 0.357809 0.389894
O O8 0.700652 0.688990 0.362234
O O9 0.954966 0.612684 0.407351
O O10 0.706855 0.951035 0.572604
O O11 0.935007 0.929474 0.629851
O O12 0.976336 0.500000 0.000000
O O13 0.492300 0.189296 0.696033
#
# Coordination Sequence:
#
# PCOD9320280 Si02
#       7
#     4   8   8   8   8   4   8
#     4  10  24  48  68 114 140 186 250 304 344 440
#     4   9  22  46  65 109 141 181 248 294 348 448
#     4  10  24  47  73 104 149 187 248 298 355 451
#     4  10  25  46  70 110 145 186 243 299 367 432
#     4  11  25  51  75 103 149 194 238 302 370 431
#     4  10  22  44  72 104 138 202 234 292 378 434
#     4  11  23  48  72 104 152 190 237 311 363 425
#
# _framework density 27.056781000000001
#
# number of rings (size 3 to 8) (size 9 to 14) (size 15 to 20)
#    0.500    1.333    1.667    0.000    4.667    1.333 
#   24.000    0.000    0.000    0.000    0.000    0.000 
#    0.000    0.000    0.000    0.000    0.000    0.000 
#
# Total GULP energy -133799.198293 kJ/mol
# GULP energy per Si atom -5574.966596 kJ/mol
# Density = 2.699520 g / cm^3
# Si number density = 27.056781 Si / 1000 Ang^3
#
#
#
# Elastic Constant Matrix: (Units=GPa)
#
#
# Indices 1 2 3 4 5 6 
#
# 1 83.0022 2.1280 55.0212 0.0000 0.0000 0.0000
# 2 2.1280 105.9960 41.1078 0.0000 0.0000 0.0000
# 3 55.0212 41.1078 147.2307 0.0000 0.0000 0.0000
# 4 0.0000 0.0000 0.0000 47.5707 0.0000 0.0000
# 5 0.0000 0.0000 0.0000 0.0000 68.5827 0.0000
# 6 0.0000 0.0000 0.0000 0.0000 0.0000 36.4394
#
#
#
# Elastic Compliance Matrix: (Units=1/GPa)
#
#
# Indices 1 2 3 4 5 6 
#
# 1 0.016505 0.002311 -0.006813 0.000000 0.000000 0.000000
# 2 0.002311 0.010904 -0.003908 0.000000 0.000000 0.000000
# 3 -0.006813 -0.003908 0.010429 0.000000 0.000000 0.000000
# 4 0.000000 0.000000 0.000000 0.021021 0.000000 0.000000
# 5 0.000000 0.000000 0.000000 0.000000 0.014581 0.000000
# 6 0.000000 0.000000 0.000000 0.000000 0.000000 0.027443
#
#
# Mechanical properties :
#
#
# Convention : Reuss Voigt Hill
#
# Bulk Modulus (GPa) = 47.57959 59.19365 53.38662
# Shear Modulus (GPa) = 40.09318 46.38335 43.23827
#
# Velocity S-wave (km/s) = 3.85361 4.14490 4.00191
# Velocity P-wave (km/s) = 6.11749 6.69567 6.41310
#
# Compressibility (1/GPa) = 0.02101742
#
# Stress axis : x y z
#
# Youngs Moduli (GPa) = 60.58736 91.71348 95.88303
#
# Poissons Ratio (x) = -0.21195 0.65328
# Poissons Ratio (y) = -0.14002 0.37471
# Poissons Ratio (z) = 0.41280 0.35841
#
# Static dielectric constant tensor:
#      x y z
#    x 1.738910 0.000000 0.000000 
#    y 0.000000 2.245970 0.000000 
#    z 0.000000 0.000000 1.958920 
# 
# From -- ./inp_files/30991.got.cif
#   From: 2010.05.17/outbox.cif.g08.bks.cpg/sg20_16_cif.got.tgz:30991.got - 2010.06.03 22:52:26.
