data_PCOD9320491
_publ_section_title
;
Structure prediction by ZEFSAII (Michael W. Deem and Ramdas Pophale) SiO2 
 PCOD9320491
Probable space group: C 2 2 21
;
_chemical_formula_sum "Si O2"
_cell_formula_units_Z 40
_cell_length_a 8.497096
_cell_length_b 15.061011
_cell_length_c 12.307963
_cell_angle_alpha 90.000000
_cell_angle_beta 90.000000
_cell_angle_gamma 90.000000
_cell_volume 1575.109797
_symmetry_space_group_name_H-M "C 2 2 21"
_symmetry_group_IT_number 20
_symmetry_cell_setting 'orthorhombic'
loop_
_space_group_symop_operation_xyz
x,y,z
-x,-y,1/2+z
x,-y,-z
-x,y,1/2-z
1/2+x,1/2+y,z
1/2-x,1/2-y,1/2+z
1/2+x,1/2-y,-z
1/2-x,1/2+y,1/2-z
loop_
_atom_site_type_symbol
_atom_site_label
_atom_site_fract_x
_atom_site_fract_y
_atom_site_fract_z
Si Si1 0.334501 0.346460 0.506043
Si Si2 0.318598 0.808598 0.213341
Si Si3 0.422966 0.935963 0.585375
Si Si4 0.688899 0.660376 0.572412
Si Si5 0.213081 0.384188 0.711490
O O1 0.217910 0.350740 0.403241
O O2 0.510242 0.339114 0.463200
O O3 0.282013 0.252800 0.557434
O O4 0.330095 0.408983 0.613113
O O5 0.500000 0.817513 0.250000
O O6 0.207521 0.855601 0.300694
O O7 0.270636 0.702952 0.221122
O O8 0.289613 0.902106 0.504564
O O9 0.553814 0.870544 0.638007
O O10 0.332312 0.957295 0.698376
O O11 0.511350 0.000000 0.500000
#
# Coordination Sequence:
#
# PCOD9320491 Si02
#       5
#     8   8   8   8   8
#     4  11  21  37  67 104 135 164 214 290 363 417
#     4  11  21  37  69 107 139 166 209 291 365 420
#     4  11  24  45  65  89 134 192 238 278 328 415
#     4  11  22  36  65 101 135 171 216 276 352 420
#     4  10  23  41  68  94 129 175 229 287 342 408
#
# _framework density 25.395054999999999
#
# number of rings (size 3 to 8) (size 9 to 14) (size 15 to 20)
#    0.000    1.200    2.000    6.600    5.600    0.000 
#   10.800    1.000    4.400    0.000    0.000    0.000 
#    0.000    0.000    0.000    0.000    0.000    0.000 
#
# Total GULP energy -111557.125681 kJ/mol
# GULP energy per Si atom -5577.856284 kJ/mol
# Density = 2.533725 g / cm^3
# Si number density = 25.395055 Si / 1000 Ang^3
#
#
#
# Elastic Constant Matrix: (Units=GPa)
#
#
# Indices 1 2 3 4 5 6 
#
# 1 65.9402 19.7023 -8.4858 0.0000 0.0000 0.0000
# 2 19.7023 44.3144 28.9927 0.0000 0.0000 0.0000
# 3 -8.4858 28.9927 192.1107 0.0000 0.0000 0.0000
# 4 0.0000 0.0000 0.0000 26.9327 0.0000 0.0000
# 5 0.0000 0.0000 0.0000 0.0000 47.8329 0.0000
# 6 0.0000 0.0000 0.0000 0.0000 0.0000 13.3121
#
#
#
# Elastic Compliance Matrix: (Units=1/GPa)
#
#
# Indices 1 2 3 4 5 6 
#
# 1 0.018335 -0.009633 0.002264 0.000000 0.000000 0.000000
# 2 -0.009633 0.030099 -0.004968 0.000000 0.000000 0.000000
# 3 0.002264 -0.004968 0.006055 0.000000 0.000000 0.000000
# 4 0.000000 0.000000 0.000000 0.037130 0.000000 0.000000
# 5 0.000000 0.000000 0.000000 0.000000 0.020906 0.000000
# 6 0.000000 0.000000 0.000000 0.000000 0.000000 0.075120
#
#
# Mechanical properties :
#
#
# Convention : Reuss Voigt Hill
#
# Bulk Modulus (GPa) = 33.54034 42.53153 38.03593
# Shear Modulus (GPa) = 22.49656 35.09261 28.79458
#
# Velocity S-wave (km/s) = 2.97958 3.72138 3.37095
# Velocity P-wave (km/s) = 5.00732 5.93711 5.49192
#
# Compressibility (1/GPa) = 0.02981484
#
# Stress axis : x y z
#
# Youngs Moduli (GPa) = 54.54143 33.22373 165.15107
#
# Poissons Ratio (x) = 0.32003 -0.37383
# Poissons Ratio (y) = 0.52538 0.82046
# Poissons Ratio (z) = -0.12346 0.16505
#
# Static dielectric constant tensor:
#      x y z
#    x 2.039980 0.000000 0.000000 
#    y 0.000000 2.194060 0.000000 
#    z 0.000000 0.000000 2.188450 
# 
# From -- ./inp_files/12720.got.cif
#   From: 2010.05.17/outbox.cif.g08.bks.cpg/sg20_7_cif.got.tgz:12720.got - 2010.06.03 22:52:26.
