data_PCOD9320392
_publ_section_title
;
Structure prediction by ZEFSAII (Michael W. Deem and Ramdas Pophale) SiO2 
 PCOD9320392
Probable space group: C 2 2 21
;
_chemical_formula_sum "Si O2"
_cell_formula_units_Z 32
_cell_length_a 11.153005
_cell_length_b 16.382910
_cell_length_c 7.813213
_cell_angle_alpha 90.000000
_cell_angle_beta 90.000000
_cell_angle_gamma 90.000000
_cell_volume 1427.619944
_symmetry_space_group_name_H-M "C 2 2 21"
_symmetry_group_IT_number 20
_symmetry_cell_setting 'orthorhombic'
loop_
_space_group_symop_operation_xyz
x,y,z
-x,-y,1/2+z
x,-y,-z
-x,y,1/2-z
1/2+x,1/2+y,z
1/2-x,1/2-y,1/2+z
1/2+x,1/2-y,-z
1/2-x,1/2+y,1/2-z
loop_
_atom_site_type_symbol
_atom_site_label
_atom_site_fract_x
_atom_site_fract_y
_atom_site_fract_z
Si Si1 0.422393 0.149689 0.925821
Si Si2 0.230964 0.057152 0.746228
Si Si3 0.931403 0.170224 0.931826
Si Si4 0.000000 0.940320 0.750000
Si Si5 0.075963 0.500000 0.000000
O O1 0.500000 0.161273 0.750000
O O2 0.290788 0.110321 0.895714
O O3 0.415776 0.236885 0.013811
O O4 0.496706 0.080117 0.020278
O O5 0.192592 0.124093 0.605183
O O6 0.116767 0.998591 0.769940
O O7 0.339667 0.007661 0.664720
O O8 0.000000 0.166684 0.750000
O O9 0.990808 0.116906 0.082857
#
# Coordination Sequence:
#
# PCOD9320392 Si02
#       5
#     8   8   8   4   4
#     4  10  25  48  71 108 151 199 251 310 384 453
#     4  11  24  47  78 108 150 205 252 317 383 463
#     4  12  26  47  78 113 152 199 256 321 392 455
#     4  12  24  52  76 114 154 194 266 320 384 470
#     4  10  22  48  74 108 146 202 258 302 376 470
#
# _framework density 22.414928
#
# number of rings (size 3 to 8) (size 9 to 14) (size 15 to 20)
#    0.000    1.000    5.000    0.000    0.000    9.000 
#    4.500    0.000    0.000    0.000    0.000    0.000 
#    0.000    0.000    0.000    0.000    0.000    0.000 
#
# Total GULP energy -89490.991728 kJ/mol
# GULP energy per Si atom -5593.186983 kJ/mol
# Density = 2.236391 g / cm^3
# Si number density = 22.414928 Si / 1000 Ang^3
#
#
#
# Elastic Constant Matrix: (Units=GPa)
#
#
# Indices 1 2 3 4 5 6 
#
# 1 126.9225 107.9048 60.2904 0.0000 0.0000 0.0000
# 2 107.9048 244.9645 87.6520 0.0000 0.0000 0.0000
# 3 60.2904 87.6520 117.3422 0.0000 0.0000 0.0000
# 4 0.0000 0.0000 0.0000 42.1300 0.0000 0.0000
# 5 0.0000 0.0000 0.0000 0.0000 29.7423 0.0000
# 6 0.0000 0.0000 0.0000 0.0000 0.0000 13.5265
#
#
#
# Elastic Compliance Matrix: (Units=1/GPa)
#
#
# Indices 1 2 3 4 5 6 
#
# 1 0.013527 -0.004738 -0.003411 0.000000 0.000000 0.000000
# 2 -0.004738 0.007231 -0.002967 0.000000 0.000000 0.000000
# 3 -0.003411 -0.002967 0.012491 0.000000 0.000000 0.000000
# 4 0.000000 0.000000 0.000000 0.023736 0.000000 0.000000
# 5 0.000000 0.000000 0.000000 0.000000 0.033622 0.000000
# 6 0.000000 0.000000 0.000000 0.000000 0.000000 0.073929
#
#
# Mechanical properties :
#
#
# Convention : Reuss Voigt Hill
#
# Bulk Modulus (GPa) = 90.76901 111.21373 100.99137
# Shear Modulus (GPa) = 26.25486 32.63856 29.44671
#
# Velocity S-wave (km/s) = 3.42616 3.82004 3.62845
# Velocity P-wave (km/s) = 7.49895 8.31748 7.91880
#
# Compressibility (1/GPa) = 0.01101698
#
# Stress axis : x y z
#
# Youngs Moduli (GPa) = 73.92448 138.29470 80.05847
#
# Poissons Ratio (x) = 0.65526 0.27308
# Poissons Ratio (y) = 0.35027 0.23752
# Poissons Ratio (z) = 0.25216 0.41031
#
# Static dielectric constant tensor:
#      x y z
#    x 1.872980 0.000000 0.000000 
#    y 0.000000 1.776730 0.000000 
#    z 0.000000 0.000000 1.885460 
# 
# From -- ./inp_files/6828.got.cif
#   From: 2010.05.17/outbox.cif.g08.bks.cpg/sg20_4_cif.got.tgz:6828.got - 2010.06.03 22:52:26.
