data_PCOD9320968
_publ_section_title
;
Structure prediction by ZEFSAII (Michael W. Deem and Ramdas Pophale) SiO2 
 PCOD9320968
Probable space group: C 2 2 21
;
_chemical_formula_sum "Si O2"
_cell_formula_units_Z 28
_cell_length_a 9.978116
_cell_length_b 13.020432
_cell_length_c 8.129161
_cell_angle_alpha 90.000000
_cell_angle_beta 90.000000
_cell_angle_gamma 90.000000
_cell_volume 1056.135564
_symmetry_space_group_name_H-M "C 2 2 21"
_symmetry_group_IT_number 20
_symmetry_cell_setting 'orthorhombic'
loop_
_space_group_symop_operation_xyz
x,y,z
-x,-y,1/2+z
x,-y,-z
-x,y,1/2-z
1/2+x,1/2+y,z
1/2-x,1/2-y,1/2+z
1/2+x,1/2-y,-z
1/2-x,1/2+y,1/2-z
loop_
_atom_site_type_symbol
_atom_site_label
_atom_site_fract_x
_atom_site_fract_y
_atom_site_fract_z
Si Si1 0.773178 0.626405 0.708091
Si Si2 0.500000 0.506848 0.750000
Si Si3 0.879886 0.436517 0.830913
Si Si4 0.834376 0.169411 0.142049
O O1 0.629722 0.580931 0.775756
O O2 0.864257 0.526641 0.696602
O O3 0.849785 0.710890 0.817461
O O4 0.746927 0.665228 0.525811
O O5 0.550932 0.417561 0.620399
O O6 0.748092 0.369988 0.801055
O O7 0.000000 0.371600 0.750000
O O8 0.881500 0.500000 0.000000
#
# Coordination Sequence:
#
# PCOD9320968 Si02
#       4
#     8   4   8   8
#     4  11  25  44  70 102 137 182 233 284 352 419
#     4  10  24  46  70 100 144 182 234 292 352 408
#     4  11  23  42  66  95 135 174 223 285 343 413
#     4  11  25  44  70 102 137 182 233 284 352 419
#
# _framework density 26.511747
#
# number of rings (size 3 to 8) (size 9 to 14) (size 15 to 20)
#    0.000    1.143    0.000    6.857    4.000   13.714 
#    0.000    0.000    0.000    0.000    0.000    0.000 
#    0.000    0.000    0.000    0.000    0.000    0.000 
#
# Total GULP energy -78001.714465 kJ/mol
# GULP energy per Si atom -5571.551033 kJ/mol
# Density = 2.645141 g / cm^3
# Si number density = 26.511747 Si / 1000 Ang^3
#
#
#
# Elastic Constant Matrix: (Units=GPa)
#
#
# Indices 1 2 3 4 5 6 
#
# 1 118.7897 4.1281 2.2992 0.0000 0.0000 0.0000
# 2 4.1281 140.2732 8.4050 0.0000 0.0000 0.0000
# 3 2.2992 8.4050 102.8927 0.0000 0.0000 0.0000
# 4 0.0000 0.0000 0.0000 42.4092 0.0000 0.0000
# 5 0.0000 0.0000 0.0000 0.0000 31.7159 0.0000
# 6 0.0000 0.0000 0.0000 0.0000 0.0000 -7.6548
#
#
#
# Elastic Compliance Matrix: (Units=1/GPa)
#
#
# Indices 1 2 3 4 5 6 
#
# 1 0.008430 -0.000238 -0.000169 0.000000 0.000000 0.000000
# 2 -0.000238 0.007171 -0.000580 0.000000 0.000000 0.000000
# 3 -0.000169 -0.000580 0.009770 0.000000 0.000000 0.000000
# 4 0.000000 0.000000 0.000000 0.023580 0.000000 0.000000
# 5 0.000000 0.000000 0.000000 0.000000 0.031530 0.000000
# 6 0.000000 0.000000 0.000000 0.000000 0.000000 -0.130637
#
#
# Mechanical properties :
#
#
# Convention : Reuss Voigt Hill
#
# Bulk Modulus (GPa) = 42.74250 43.51333 43.12792
# Shear Modulus (GPa) = -123.81237 36.43561 -43.68838
#
# Velocity S-wave (km/s) = -6.84122 3.71120 -4.06382
# Velocity P-wave (km/s) = 6.80044 5.90021 2.39097
#
# Compressibility (1/GPa) = 0.02339592
#
# Stress axis : x y z
#
# Youngs Moduli (GPa) = 118.62705 139.45582 102.35360
#
# Poissons Ratio (x) = 0.03318 0.01729
# Poissons Ratio (y) = 0.02823 0.05941
# Poissons Ratio (z) = 0.02004 0.08095
#
# Static dielectric constant tensor:
#      x y z
#    x 2.332530 0.000000 0.000000 
#    y 0.000000 2.043060 0.000000 
#    z 0.000000 0.000000 2.096780 
# 
# From -- ./inp_files/6707.got.cif
#   From: 2010.05.17/outbox.cif.g08.bks.cpg/sg20_4_cif.got.tgz:6707.got - 2010.06.03 22:52:26.
