data_PCOD9320165
_publ_section_title
;
Structure prediction by ZEFSAII (Michael W. Deem and Ramdas Pophale) SiO2 
 PCOD9320165
Probable space group: C 2 2 21
;
_chemical_formula_sum "Si O2"
_cell_formula_units_Z 60
_cell_length_a 11.795697
_cell_length_b 30.139511
_cell_length_c 8.255198
_cell_angle_alpha 90.000000
_cell_angle_beta 90.000000
_cell_angle_gamma 90.000000
_cell_volume 2934.859426
_symmetry_space_group_name_H-M "C 2 2 21"
_symmetry_group_IT_number 20
_symmetry_cell_setting 'orthorhombic'
loop_
_space_group_symop_operation_xyz
x,y,z
-x,-y,1/2+z
x,-y,-z
-x,y,1/2-z
1/2+x,1/2+y,z
1/2-x,1/2-y,1/2+z
1/2+x,1/2-y,-z
1/2-x,1/2+y,1/2-z
loop_
_atom_site_type_symbol
_atom_site_label
_atom_site_fract_x
_atom_site_fract_y
_atom_site_fract_z
Si Si1 0.000000 0.243578 0.750000
Si Si2 0.702296 0.950808 0.535642
Si Si3 0.889333 0.903228 0.330855
Si Si4 0.436680 0.619978 0.082663
Si Si5 0.944797 0.702530 0.579385
Si Si6 0.983317 0.393837 0.556211
Si Si7 0.256456 0.049006 0.418998
Si Si8 0.810935 0.821628 0.121395
O O1 0.975333 0.270893 0.584715
O O2 0.894432 0.212429 0.793380
O O3 0.805823 0.936191 0.421632
O O4 0.596114 0.919389 0.505327
O O5 0.736867 0.951228 0.723855
O O6 0.663582 0.000000 0.500000
O O7 0.820152 0.867994 0.222486
O O8 0.000000 0.926540 0.250000
O O9 0.959800 0.874007 0.458651
O O10 0.500000 0.615401 0.250000
O O11 0.358039 0.576964 0.047983
O O12 0.356138 0.662298 0.054846
O O13 0.978291 0.651823 0.539595
O O14 0.810617 0.699849 0.606576
O O15 0.000000 0.717579 0.750000
O O16 0.869326 0.423201 0.529836
O O17 0.000000 0.385852 0.750000
O O18 0.255579 0.000000 0.500000
#
# Coordination Sequence:
#
# PCOD9320165 Si02
#       8
#     4   8   8   8   8   8   8   8
#     4  12  28  52  70 116 150 174 244 306 354 446
#     4  11  24  40  64 102 140 192 239 289 351 415
#     4  10  22  43  67  91 138 184 234 287 347 418
#     4  11  21  43  70  98 132 194 237 287 360 422
#     4  12  27  47  80 112 141 192 235 294 372 431
#     4  10  22  46  69  99 145 186 234 294 355 427
#     4  11  24  39  65 101 141 184 237 295 349 412
#     4  11  25  50  72 103 145 186 238 295 359 433
#
# _framework density 20.443909000000001
#
# number of rings (size 3 to 8) (size 9 to 14) (size 15 to 20)
#    0.000    1.067    5.333    1.200    5.600    2.133 
#    2.400    0.000    0.000    0.000    0.000    0.000 
#    0.000    0.000    0.000    0.000    0.000    0.000 
#
# Total GULP energy -167392.266793 kJ/mol
# GULP energy per Si atom -5579.742226 kJ/mol
# Density = 2.039738 g / cm^3
# Si number density = 20.443909 Si / 1000 Ang^3
#
#
#
# Elastic Constant Matrix: (Units=GPa)
#
#
# Indices 1 2 3 4 5 6 
#
# 1 110.9404 33.4593 59.8302 0.0000 0.0000 0.0000
# 2 33.4593 95.1438 56.3982 0.0000 0.0000 0.0000
# 3 59.8302 56.3982 97.3949 0.0000 0.0000 0.0000
# 4 0.0000 0.0000 0.0000 26.4439 0.0000 0.0000
# 5 0.0000 0.0000 0.0000 0.0000 26.6031 0.0000
# 6 0.0000 0.0000 0.0000 0.0000 0.0000 -19.3963
#
#
#
# Elastic Compliance Matrix: (Units=1/GPa)
#
#
# Indices 1 2 3 4 5 6 
#
# 1 0.013484 0.000256 -0.008431 0.000000 0.000000 0.000000
# 2 0.000256 0.016009 -0.009427 0.000000 0.000000 0.000000
# 3 -0.008431 -0.009427 0.020906 0.000000 0.000000 0.000000
# 4 0.000000 0.000000 0.000000 0.037816 0.000000 0.000000
# 5 0.000000 0.000000 0.000000 0.000000 0.037590 0.000000
# 6 0.000000 0.000000 0.000000 0.000000 0.000000 -0.051556
#
#
# Mechanical properties :
#
#
# Convention : Reuss Voigt Hill
#
# Bulk Modulus (GPa) = 65.82014 66.98381 66.40197
# Shear Modulus (GPa) = 43.66165 16.98290 30.32228
#
# Velocity S-wave (km/s) = 4.62636 2.88533 3.85540
# Velocity P-wave (km/s) = 7.79762 6.62842 7.23667
#
# Compressibility (1/GPa) = 0.01519292
#
# Stress axis : x y z
#
# Youngs Moduli (GPa) = 74.16393 62.46653 47.83336
#
# Poissons Ratio (x) = -0.01599 0.40330
# Poissons Ratio (y) = -0.01899 0.45094
# Poissons Ratio (z) = 0.62530 0.58889
#
# Static dielectric constant tensor:
#      x y z
#    x 1.719830 0.000000 0.000000 
#    y 0.000000 1.700920 0.000000 
#    z 0.000000 0.000000 2.194680 
# 
# From -- ./inp_files/7632.got.cif
#   From: 2010.05.17/outbox.cif.g08.bks.cpg/sg20_4_cif.got.tgz:7632.got - 2010.06.03 22:52:26.
