data_PCOD9320357
_publ_section_title
;
Structure prediction by ZEFSAII (Michael W. Deem and Ramdas Pophale) SiO2 
 PCOD9320357
Probable space group: C 2 2 21
;
_chemical_formula_sum "Si O2"
_cell_formula_units_Z 32
_cell_length_a 13.109712
_cell_length_b 14.384954
_cell_length_c 7.322676
_cell_angle_alpha 90.000000
_cell_angle_beta 90.000000
_cell_angle_gamma 90.000000
_cell_volume 1380.929309
_symmetry_space_group_name_H-M "C 2 2 21"
_symmetry_group_IT_number 20
_symmetry_cell_setting 'orthorhombic'
loop_
_space_group_symop_operation_xyz
x,y,z
-x,-y,1/2+z
x,-y,-z
-x,y,1/2-z
1/2+x,1/2+y,z
1/2-x,1/2-y,1/2+z
1/2+x,1/2-y,-z
1/2-x,1/2+y,1/2-z
loop_
_atom_site_type_symbol
_atom_site_label
_atom_site_fract_x
_atom_site_fract_y
_atom_site_fract_z
Si Si1 0.136402 0.000000 0.500000
Si Si2 0.092625 0.634447 0.459624
Si Si3 0.503240 0.680337 0.458008
Si Si4 0.500000 0.009974 0.750000
Si Si5 0.693787 0.410363 0.125284
O O1 0.064677 0.915699 0.564542
O O2 0.192726 0.950242 0.330935
O O3 0.062213 0.739926 0.431108
O O4 0.092479 0.563780 0.287032
O O5 0.197983 0.631738 0.568525
O O6 0.007396 0.581830 0.582393
O O7 0.500000 0.717142 0.250000
O O8 0.398259 0.656763 0.561906
O O9 0.678436 0.500000 0.000000
#
# Coordination Sequence:
#
# PCOD9320357 Si02
#       5
#     4   8   8   4   8
#     4  12  26  46  78 108 150 206 246 330 390 446
#     4  11  26  47  72 112 150 205 256 317 392 470
#     4  12  24  47  75 110 154 194 253 328 387 458
#     4  10  22  46  68  96 160 194 244 312 374 456
#     4  12  25  50  75 108 152 197 261 306 385 473
#
# _framework density 23.172802000000001
#
# number of rings (size 3 to 8) (size 9 to 14) (size 15 to 20)
#    0.000    0.500    7.500    0.750    3.500    4.000 
#    4.500    0.000    0.000    0.000    0.000    0.000 
#    0.000    0.000    0.000    0.000    0.000    0.000 
#
# Total GULP energy -89249.536483 kJ/mol
# GULP energy per Si atom -5578.096030 kJ/mol
# Density = 2.312006 g / cm^3
# Si number density = 23.172802 Si / 1000 Ang^3
#
#
#
# Elastic Constant Matrix: (Units=GPa)
#
#
# Indices 1 2 3 4 5 6 
#
# 1 125.4053 57.6679 72.8232 0.0000 0.0000 0.0000
# 2 57.6679 150.7783 25.4329 0.0000 0.0000 0.0000
# 3 72.8232 25.4329 135.9634 0.0000 0.0000 0.0000
# 4 0.0000 0.0000 0.0000 24.9875 0.0000 0.0000
# 5 0.0000 0.0000 0.0000 0.0000 -62.7454 0.0000
# 6 0.0000 0.0000 0.0000 0.0000 0.0000 44.0491
#
#
#
# Elastic Compliance Matrix: (Units=1/GPa)
#
#
# Indices 1 2 3 4 5 6 
#
# 1 0.013677 -0.004126 -0.006554 0.000000 0.000000 0.000000
# 2 -0.004126 0.008093 0.000696 0.000000 0.000000 0.000000
# 3 -0.006554 0.000696 0.010735 0.000000 0.000000 0.000000
# 4 0.000000 0.000000 0.000000 0.040020 0.000000 0.000000
# 5 0.000000 0.000000 0.000000 0.000000 -0.015937 0.000000
# 6 0.000000 0.000000 0.000000 0.000000 0.000000 0.022702
#
#
# Mechanical properties :
#
#
# Convention : Reuss Voigt Hill
#
# Bulk Modulus (GPa) = 79.75855 80.44389 80.10122
# Shear Modulus (GPa) = 48.33906 18.33977 33.33941
#
# Velocity S-wave (km/s) = 4.57226 2.81630 3.79717
# Velocity P-wave (km/s) = 7.89733 6.73539 7.33939
#
# Compressibility (1/GPa) = 0.01253784
#
# Stress axis : x y z
#
# Youngs Moduli (GPa) = 73.11454 123.56696 93.15255
#
# Poissons Ratio (x) = 0.50979 0.61051
# Poissons Ratio (y) = 0.30164 -0.06482
# Poissons Ratio (z) = 0.47919 -0.08599
#
# Static dielectric constant tensor:
#      x y z
#    x 1.902370 0.000000 0.000000 
#    y 0.000000 2.102690 0.000000 
#    z 0.000000 0.000000 2.064340 
# 
# From -- ./inp_files/6918.got.cif
#   From: 2010.05.17/outbox.cif.g08.bks.cpg/sg20_4_cif.got.tgz:6918.got - 2010.06.03 22:52:26.
