data_PCOD9320027
_publ_section_title
;
Structure prediction by ZEFSAII (Michael W. Deem and Ramdas Pophale) SiO2 
 PCOD9320027
Probable space group: C 2 2 21
;
_chemical_formula_sum "Si O2"
_cell_formula_units_Z 60
_cell_length_a 27.504476
_cell_length_b 8.967458
_cell_length_c 11.142002
_cell_angle_alpha 90.000000
_cell_angle_beta 90.000000
_cell_angle_gamma 90.000000
_cell_volume 2748.121683
_symmetry_space_group_name_H-M "C 2 2 21"
_symmetry_group_IT_number 20
_symmetry_cell_setting 'orthorhombic'
loop_
_space_group_symop_operation_xyz
x,y,z
-x,-y,1/2+z
x,-y,-z
-x,y,1/2-z
1/2+x,1/2+y,z
1/2-x,1/2-y,1/2+z
1/2+x,1/2-y,-z
1/2-x,1/2+y,1/2-z
loop_
_atom_site_type_symbol
_atom_site_label
_atom_site_fract_x
_atom_site_fract_y
_atom_site_fract_z
Si Si1 0.760364 0.707136 0.798982
Si Si2 0.884505 0.425798 0.344332
Si Si3 0.914926 0.000000 0.500000
Si Si4 0.776805 0.594578 0.121544
Si Si5 0.584524 0.147780 0.573265
Si Si6 0.666302 0.328145 0.505887
Si Si7 0.654320 0.762060 0.926361
Si Si8 0.020793 0.260264 0.116265
O O1 0.776058 0.536221 0.781118
O O2 0.762267 0.793305 0.674136
O O3 0.707484 0.726271 0.866766
O O4 0.799898 0.773832 0.886718
O O5 0.892461 0.377997 0.205921
O O6 0.868935 0.597737 0.354952
O O7 0.850945 0.327723 0.436025
O O8 0.938995 0.389759 0.389808
O O9 0.878747 0.111731 0.573650
O O10 0.950638 0.113226 0.428706
O O11 0.819767 0.711397 0.098955
O O12 0.768393 0.500000 0.000000
O O13 0.610706 0.296573 0.529316
O O14 0.527864 0.179334 0.554995
O O15 0.598425 0.000000 0.500000
O O16 0.677039 0.500000 0.500000
O O17 0.000000 0.232878 0.250000
#
# Coordination Sequence:
#
# PCOD9320027 Si02
#       8
#     8   8   4   8   8   8   8   8
#     4  11  24  43  68  95 137 188 231 285 344 409
#     4   9  22  45  68  95 131 167 233 275 332 408
#     4  10  22  42  64 104 136 156 230 290 324 414
#     4  10  24  45  67  96 145 178 235 289 345 413
#     4  11  24  42  71  94 137 185 219 272 351 415
#     4  11  26  44  63 100 138 177 233 281 339 417
#     4  10  23  40  72  97 126 175 222 283 345 387
#     4   9  21  45  65  95 134 174 215 279 341 398
#
# _framework density 21.833095
#
# number of rings (size 3 to 8) (size 9 to 14) (size 15 to 20)
#    0.000    1.867    0.000    2.000   14.933    2.133 
#   14.400    0.000    0.000    0.000    0.000    0.000 
#    0.000    0.000    0.000    0.000    0.000    0.000 
#
# Total GULP energy -167054.846445 kJ/mol
# GULP energy per Si atom -5568.494881 kJ/mol
# Density = 2.178340 g / cm^3
# Si number density = 21.833095 Si / 1000 Ang^3
#
#
#
# Elastic Constant Matrix: (Units=GPa)
#
#
# Indices 1 2 3 4 5 6 
#
# 1 146.8862 59.7720 22.0448 0.0000 0.0000 0.0000
# 2 59.7720 163.2144 23.7035 0.0000 0.0000 0.0000
# 3 22.0448 23.7035 55.5649 0.0000 0.0000 0.0000
# 4 0.0000 0.0000 0.0000 32.6748 0.0000 0.0000
# 5 0.0000 0.0000 0.0000 0.0000 35.0015 0.0000
# 6 0.0000 0.0000 0.0000 0.0000 0.0000 20.9234
#
#
#
# Elastic Compliance Matrix: (Units=1/GPa)
#
#
# Indices 1 2 3 4 5 6 
#
# 1 0.008226 -0.002706 -0.002109 0.000000 0.000000 0.000000
# 2 -0.002706 0.007422 -0.002092 0.000000 0.000000 0.000000
# 3 -0.002109 -0.002092 0.019726 0.000000 0.000000 0.000000
# 4 0.000000 0.000000 0.000000 0.030605 0.000000 0.000000
# 5 0.000000 0.000000 0.000000 0.000000 0.028570 0.000000
# 6 0.000000 0.000000 0.000000 0.000000 0.000000 0.047793
#
#
# Mechanical properties :
#
#
# Convention : Reuss Voigt Hill
#
# Bulk Modulus (GPa) = 46.38515 64.07844 55.23180
# Shear Modulus (GPa) = 30.61034 35.06295 32.83664
#
# Velocity S-wave (km/s) = 3.74841 4.01178 3.88233
# Velocity P-wave (km/s) = 6.32658 7.13247 6.74158
#
# Compressibility (1/GPa) = 0.02155862
#
# Stress axis : x y z
#
# Youngs Moduli (GPa) = 121.57011 134.73780 50.69359
#
# Poissons Ratio (x) = 0.36461 0.10692
# Poissons Ratio (y) = 0.32898 0.10607
# Poissons Ratio (z) = 0.25640 0.28193
#
# Static dielectric constant tensor:
#      x y z
#    x 1.853900 0.000000 0.000000 
#    y 0.000000 1.723940 0.000000 
#    z 0.000000 0.000000 1.975770 
# 
# From -- ./inp_files/17079.got.cif
#   From: 2010.05.17/outbox.cif.g08.bks.cpg/sg20_9_cif.got.tgz:17079.got - 2010.06.03 22:52:26.
