data_PCOD9320272
_publ_section_title
;
Structure prediction by ZEFSAII (Michael W. Deem and Ramdas Pophale) SiO2 
 PCOD9320272
Probable space group: C 2 2 21
;
_chemical_formula_sum "Si O2"
_cell_formula_units_Z 36
_cell_length_a 22.988267
_cell_length_b 7.615255
_cell_length_c 9.771588
_cell_angle_alpha 90.000000
_cell_angle_beta 90.000000
_cell_angle_gamma 90.000000
_cell_volume 1710.629001
_symmetry_space_group_name_H-M "C 2 2 21"
_symmetry_group_IT_number 20
_symmetry_cell_setting 'orthorhombic'
loop_
_space_group_symop_operation_xyz
x,y,z
-x,-y,1/2+z
x,-y,-z
-x,y,1/2-z
1/2+x,1/2+y,z
1/2-x,1/2-y,1/2+z
1/2+x,1/2-y,-z
1/2-x,1/2+y,1/2-z
loop_
_atom_site_type_symbol
_atom_site_label
_atom_site_fract_x
_atom_site_fract_y
_atom_site_fract_z
Si Si1 0.319690 0.927169 0.804154
Si Si2 0.635379 0.296444 0.045045
Si Si3 0.418088 0.000000 0.000000
Si Si4 0.999182 0.820936 0.416217
Si Si5 0.240862 0.353600 0.102345
O O1 0.341502 0.787293 0.688258
O O2 0.284409 0.805775 0.908124
O O3 0.270309 0.057543 0.747745
O O4 0.374596 0.021215 0.871219
O O5 0.566515 0.266292 0.044136
O O6 0.643442 0.500000 0.000000
O O7 0.675079 0.194032 0.938084
O O8 0.457138 0.168358 0.036067
O O9 0.000000 0.845795 0.250000
O O10 0.012368 0.000000 0.500000
O O11 0.263122 0.500000 0.000000
#
# Coordination Sequence:
#
# PCOD9320272 Si02
#       5
#     8   8   4   8   8
#     4  11  24  43  65 105 137 181 230 292 354 425
#     4  10  22  44  71  95 135 178 233 290 353 426
#     4  12  28  42  76 102 150 178 242 290 360 422
#     4  11  26  49  72 108 142 191 245 298 363 430
#     4  10  24  40  68  98 134 181 230 283 359 423
#
# _framework density 21.044889999999999
#
# number of rings (size 3 to 8) (size 9 to 14) (size 15 to 20)
#    0.000    1.333    2.222    1.333   12.444    5.333 
#    0.000    0.000    0.000    0.000    0.000    0.000 
#    0.000    0.000    0.000    0.000    0.000    0.000 
#
# Total GULP energy -100407.084550 kJ/mol
# GULP energy per Si atom -5578.171364 kJ/mol
# Density = 2.099699 g / cm^3
# Si number density = 21.044890 Si / 1000 Ang^3
#
#
#
# Elastic Constant Matrix: (Units=GPa)
#
#
# Indices 1 2 3 4 5 6 
#
# 1 85.0595 45.1801 22.3355 0.0000 0.0000 0.0000
# 2 45.1801 86.5575 47.4215 0.0000 0.0000 0.0000
# 3 22.3355 47.4215 87.4949 0.0000 0.0000 0.0000
# 4 0.0000 0.0000 0.0000 29.6288 0.0000 0.0000
# 5 0.0000 0.0000 0.0000 0.0000 63.5052 0.0000
# 6 0.0000 0.0000 0.0000 0.0000 0.0000 120.4065
#
#
#
# Elastic Compliance Matrix: (Units=1/GPa)
#
#
# Indices 1 2 3 4 5 6 
#
# 1 0.016291 -0.008854 0.000640 0.000000 0.000000 0.000000
# 2 -0.008854 0.021245 -0.009254 0.000000 0.000000 0.000000
# 3 0.000640 -0.009254 0.016281 0.000000 0.000000 0.000000
# 4 0.000000 0.000000 0.000000 0.033751 0.000000 0.000000
# 5 0.000000 0.000000 0.000000 0.000000 0.015747 0.000000
# 6 0.000000 0.000000 0.000000 0.000000 0.000000 0.008305
#
#
# Mechanical properties :
#
#
# Convention : Reuss Voigt Hill
#
# Bulk Modulus (GPa) = 52.96337 54.33179 53.64758
# Shear Modulus (GPa) = 32.71168 52.31974 42.51571
#
# Velocity S-wave (km/s) = 3.94684 4.99149 4.49958
# Velocity P-wave (km/s) = 6.78170 7.68721 7.24861
#
# Compressibility (1/GPa) = 0.01888097
#
# Stress axis : x y z
#
# Youngs Moduli (GPa) = 61.38196 47.07075 61.41954
#
# Poissons Ratio (x) = 0.41678 -0.03931
# Poissons Ratio (y) = 0.54349 0.56838
# Poissons Ratio (z) = -0.03929 0.43560
#
# Static dielectric constant tensor:
#      x y z
#    x 1.715860 0.000000 0.000000 
#    y 0.000000 1.698720 0.000000 
#    z 0.000000 0.000000 1.185180 
# 
# From -- ./inp_files/5900.got.cif
#   From: 2010.05.17/outbox.cif.g08.bks.cpg/sg20_3_cif.got.tgz:5900.got - 2010.06.03 22:52:26.
