data_PCOD9320227
_publ_section_title
;
Structure prediction by ZEFSAII (Michael W. Deem and Ramdas Pophale) SiO2 
 PCOD9320227
Probable space group: C 2 2 21
;
_chemical_formula_sum "Si O2"
_cell_formula_units_Z 28
_cell_length_a 10.182398
_cell_length_b 17.031109
_cell_length_c 7.273669
_cell_angle_alpha 90.000000
_cell_angle_beta 90.000000
_cell_angle_gamma 90.000000
_cell_volume 1261.381714
_symmetry_space_group_name_H-M "C 2 2 21"
_symmetry_group_IT_number 20
_symmetry_cell_setting 'orthorhombic'
loop_
_space_group_symop_operation_xyz
x,y,z
-x,-y,1/2+z
x,-y,-z
-x,y,1/2-z
1/2+x,1/2+y,z
1/2-x,1/2-y,1/2+z
1/2+x,1/2-y,-z
1/2-x,1/2+y,1/2-z
loop_
_atom_site_type_symbol
_atom_site_label
_atom_site_fract_x
_atom_site_fract_y
_atom_site_fract_z
Si Si1 0.353733 0.359207 0.171160
Si Si2 0.624911 0.232839 0.617473
Si Si3 0.276183 0.000000 0.500000
Si Si4 0.024854 0.581341 0.527260
O O1 0.500000 0.355476 0.250000
O O2 0.249940 0.308490 0.288906
O O3 0.308072 0.449098 0.141135
O O4 0.349142 0.314989 0.976534
O O5 0.500000 0.244148 0.750000
O O6 0.581760 0.164587 0.474027
O O7 0.385465 0.063222 0.430348
O O8 0.103265 0.500000 0.500000
O O9 0.000000 0.585816 0.750000
#
# Coordination Sequence:
#
# PCOD9320227 Si02
#       4
#     8   8   4   8
#     4  12  26  42  69 105 147 179 229 301 361 405
#     4  11  22  46  67 103 134 184 244 275 342 436
#     4  10  22  44  64  94 142 172 222 282 344 420
#     4   9  18  37  68  87 118 167 230 266 314 407
#
# _framework density 22.197880000000001
#
# number of rings (size 3 to 8) (size 9 to 14) (size 15 to 20)
#    0.857    0.571    5.714    1.714    0.000    4.571 
#    2.571    0.000    0.000    0.000    0.000    0.000 
#    0.000    0.000    0.000    0.000    0.000    0.000 
#
# Total GULP energy -77946.052827 kJ/mol
# GULP energy per Si atom -5567.575202 kJ/mol
# Density = 2.214736 g / cm^3
# Si number density = 22.197880 Si / 1000 Ang^3
#
#
#
# Elastic Constant Matrix: (Units=GPa)
#
#
# Indices 1 2 3 4 5 6 
#
# 1 172.2318 36.8375 37.1835 0.0000 0.0000 0.0000
# 2 36.8375 82.9329 31.3525 0.0000 0.0000 0.0000
# 3 37.1835 31.3525 49.3328 0.0000 0.0000 0.0000
# 4 0.0000 0.0000 0.0000 42.8509 0.0000 0.0000
# 5 0.0000 0.0000 0.0000 0.0000 20.3443 0.0000
# 6 0.0000 0.0000 0.0000 0.0000 0.0000 -125.1955
#
#
#
# Elastic Compliance Matrix: (Units=1/GPa)
#
#
# Indices 1 2 3 4 5 6 
#
# 1 0.007070 -0.001482 -0.004387 0.000000 0.000000 0.000000
# 2 -0.001482 0.016182 -0.009167 0.000000 0.000000 0.000000
# 3 -0.004387 -0.009167 0.029403 0.000000 0.000000 0.000000
# 4 0.000000 0.000000 0.000000 0.023337 0.000000 0.000000
# 5 0.000000 0.000000 0.000000 0.000000 0.049154 0.000000
# 6 0.000000 0.000000 0.000000 0.000000 0.000000 -0.007988
#
#
# Mechanical properties :
#
#
# Convention : Reuss Voigt Hill
#
# Bulk Modulus (GPa) = 44.28145 57.24940 50.76542
# Shear Modulus (GPa) = 32.30847 0.87489 16.59168
#
# Velocity S-wave (km/s) = 3.81921 0.62848 2.73691
# Velocity P-wave (km/s) = 6.28015 5.13548 5.73644
#
# Compressibility (1/GPa) = 0.02258282
#
# Stress axis : x y z
#
# Youngs Moduli (GPa) = 141.43757 61.79797 34.00990
#
# Poissons Ratio (x) = 0.09158 0.14921
# Poissons Ratio (y) = 0.20960 0.31177
# Poissons Ratio (z) = 0.62052 0.56650
#
# Static dielectric constant tensor:
#      x y z
#    x 1.912350 0.000000 0.000000 
#    y 0.000000 1.869750 0.000000 
#    z 0.000000 0.000000 1.916650 
# 
# From -- ./inp_files/5680.got.cif
#   From: 2010.05.17/outbox.cif.g08.bks.cpg/sg20_3_cif.got.tgz:5680.got - 2010.06.03 22:52:26.
