data_PCOD9320506
_publ_section_title
;
Structure prediction by ZEFSAII (Michael W. Deem and Ramdas Pophale) SiO2 
 PCOD9320506
Probable space group: C 2 2 21
;
_chemical_formula_sum "Si O2"
_cell_formula_units_Z 48
_cell_length_a 24.213159
_cell_length_b 5.468669
_cell_length_c 16.648828
_cell_angle_alpha 90.000000
_cell_angle_beta 90.000000
_cell_angle_gamma 90.000000
_cell_volume 2204.533782
_symmetry_space_group_name_H-M "C 2 2 21"
_symmetry_group_IT_number 20
_symmetry_cell_setting 'orthorhombic'
loop_
_space_group_symop_operation_xyz
x,y,z
-x,-y,1/2+z
x,-y,-z
-x,y,1/2-z
1/2+x,1/2+y,z
1/2-x,1/2-y,1/2+z
1/2+x,1/2-y,-z
1/2-x,1/2+y,1/2-z
loop_
_atom_site_type_symbol
_atom_site_label
_atom_site_fract_x
_atom_site_fract_y
_atom_site_fract_z
Si Si1 0.000000 0.243988 0.750000
Si Si2 0.359272 0.688546 0.572431
Si Si3 0.264300 0.000000 0.500000
Si Si4 0.469153 0.015308 0.589240
Si Si5 0.216733 0.867991 0.344007
Si Si6 0.588190 0.614921 0.192259
Si Si7 0.677563 0.127546 0.726699
O O1 0.000946 0.398373 0.832894
O O2 0.052475 0.063620 0.753906
O O3 0.365531 0.500000 0.500000
O O4 0.411984 0.864648 0.577528
O O5 0.361006 0.534496 0.653722
O O6 0.304389 0.836712 0.555030
O O7 0.229412 0.155325 0.562008
O O8 0.495726 0.000000 0.500000
O O9 0.450439 0.283153 0.620310
O O10 0.274330 0.867666 0.294193
O O11 0.183360 0.631104 0.316270
O O12 0.188399 0.129855 0.326573
O O13 0.616711 0.840348 0.236145
#
# Coordination Sequence:
#
# PCOD9320506 Si02
#       7
#     4   8   4   8   8   8   8
#     4  10  26  38  70 104 140 182 226 300 356 430
#     4  11  20  33  62 101 134 175 211 291 357 403
#     4  12  24  36  62 102 140 174 234 294 338 408
#     4  11  21  41  64 104 140 172 227 289 358 425
#     4  10  24  39  62  97 136 183 224 279 344 415
#     4  11  23  41  66 100 136 179 234 284 355 421
#     4  10  23  42  62  94 138 184 226 271 347 421
#
# _framework density 21.773312000000001
#
# number of rings (size 3 to 8) (size 9 to 14) (size 15 to 20)
#    0.000    1.333    2.500    2.500   14.000    0.000 
#    0.000    0.000    0.000    4.000    4.333    0.000 
#    0.000    0.000    0.000    0.000    0.000    0.000 
#
# Total GULP energy -134188.761628 kJ/mol
# GULP energy per Si atom -5591.198401 kJ/mol
# Density = 2.172376 g / cm^3
# Si number density = 21.773312 Si / 1000 Ang^3
#
#
#
# Elastic Constant Matrix: (Units=GPa)
#
#
# Indices 1 2 3 4 5 6 
#
# 1 36.9646 23.0578 48.6684 0.0000 0.0000 0.0000
# 2 23.0578 111.6984 59.2648 0.0000 0.0000 0.0000
# 3 48.6684 59.2648 138.3257 0.0000 0.0000 0.0000
# 4 0.0000 0.0000 0.0000 39.6347 0.0000 0.0000
# 5 0.0000 0.0000 0.0000 0.0000 31.9209 0.0000
# 6 0.0000 0.0000 0.0000 0.0000 0.0000 33.2547
#
#
#
# Elastic Compliance Matrix: (Units=1/GPa)
#
#
# Indices 1 2 3 4 5 6 
#
# 1 0.050544 -0.001292 -0.017230 0.000000 0.000000 0.000000
# 2 -0.001292 0.011620 -0.004524 0.000000 0.000000 0.000000
# 3 -0.017230 -0.004524 0.015230 0.000000 0.000000 0.000000
# 4 0.000000 0.000000 0.000000 0.025230 0.000000 0.000000
# 5 0.000000 0.000000 0.000000 0.000000 0.031327 0.000000
# 6 0.000000 0.000000 0.000000 0.000000 0.000000 0.030071
#
#
# Mechanical properties :
#
#
# Convention : Reuss Voigt Hill
#
# Bulk Modulus (GPa) = 31.94681 60.99673 46.47177
# Shear Modulus (GPa) = 22.67091 31.36191 27.01641
#
# Velocity S-wave (km/s) = 3.23030 3.79936 3.52633
# Velocity P-wave (km/s) = 5.34953 6.87910 6.16196
#
# Compressibility (1/GPa) = 0.03130203
#
# Stress axis : x y z
#
# Youngs Moduli (GPa) = 19.78479 86.06146 65.66158
#
# Poissons Ratio (x) = 0.11119 1.13133
# Poissons Ratio (y) = 0.02556 0.29704
# Poissons Ratio (z) = 0.34089 0.38932
#
# Static dielectric constant tensor:
#      x y z
#    x 1.778330 0.000000 0.000000 
#    y 0.000000 1.853520 0.000000 
#    z 0.000000 0.000000 1.835770 
# 
# From -- ./inp_files/22184.got.cif
#   From: 2010.05.17/outbox.cif.g08.bks.cpg/sg20_12_cif.got.tgz:22184.got - 2010.06.03 22:52:26.
