data_PCOD9320955
_publ_section_title
;
Structure prediction by ZEFSAII (Michael W. Deem and Ramdas Pophale) SiO2 
 PCOD9320955
Probable space group: C 2 2 21
;
_chemical_formula_sum "Si O2"
_cell_formula_units_Z 48
_cell_length_a 7.131455
_cell_length_b 13.337585
_cell_length_c 21.398071
_cell_angle_alpha 90.000000
_cell_angle_beta 90.000000
_cell_angle_gamma 90.000000
_cell_volume 2035.307207
_symmetry_space_group_name_H-M "C 2 2 21"
_symmetry_group_IT_number 20
_symmetry_cell_setting 'orthorhombic'
loop_
_space_group_symop_operation_xyz
x,y,z
-x,-y,1/2+z
x,-y,-z
-x,y,1/2-z
1/2+x,1/2+y,z
1/2-x,1/2-y,1/2+z
1/2+x,1/2-y,-z
1/2-x,1/2+y,1/2-z
loop_
_atom_site_type_symbol
_atom_site_label
_atom_site_fract_x
_atom_site_fract_y
_atom_site_fract_z
Si Si1 0.845497 0.253586 0.701234
Si Si2 0.467458 0.333472 0.658918
Si Si3 0.641646 0.312892 0.385657
Si Si4 0.516313 0.684995 0.477554
Si Si5 0.641996 0.904843 0.465005
Si Si6 0.140932 0.047761 0.837725
O O1 0.645591 0.303842 0.699660
O O2 0.000000 0.289634 0.750000
O O3 0.956337 0.253192 0.634546
O O4 0.808204 0.134270 0.711593
O O5 0.316896 0.244505 0.645058
O O6 0.558734 0.358019 0.590562
O O7 0.362111 0.433141 0.680612
O O8 0.637341 0.326743 0.459823
O O9 0.571523 0.418223 0.357127
O O10 0.323738 0.630179 0.495625
O O11 0.521237 0.804539 0.465428
O O12 0.720077 0.934814 0.396771
O O13 0.555536 0.000000 0.500000
#
# Coordination Sequence:
#
# PCOD9320955 Si02
#       6
#     8   8   8   8   8   8
#     4  10  24  46  59  90 127 157 217 267 296 369
#     4  12  20  41  69  86 128 167 193 263 321 348
#     4   9  22  39  58  94 122 157 210 243 306 380
#     4  11  18  33  61  89 122 156 195 245 305 372
#     4  11  19  34  57  87 128 155 193 249 299 368
#     4   9  21  39  58  92 117 161 210 246 305 369
#
# _framework density 23.583663999999999
#
# number of rings (size 3 to 8) (size 9 to 14) (size 15 to 20)
#    1.000    0.667    5.000    0.000    0.000    0.667 
#    6.000    2.500    0.000    0.000    0.000    0.000 
#    0.000    0.000    0.000    0.000    0.000    0.000 
#
# Total GULP energy -133724.796239 kJ/mol
# GULP energy per Si atom -5571.866510 kJ/mol
# Density = 2.352999 g / cm^3
# Si number density = 23.583664 Si / 1000 Ang^3
#
#
#
# Elastic Constant Matrix: (Units=GPa)
#
#
# Indices 1 2 3 4 5 6 
#
# 1 59.7511 -2.8385 15.5341 0.0000 0.0000 0.0000
# 2 -2.8385 76.5094 7.3846 0.0000 0.0000 0.0000
# 3 15.5341 7.3846 66.1551 0.0000 0.0000 0.0000
# 4 0.0000 0.0000 0.0000 24.1479 0.0000 0.0000
# 5 0.0000 0.0000 0.0000 0.0000 22.2774 0.0000
# 6 0.0000 0.0000 0.0000 0.0000 0.0000 37.4427
#
#
#
# Elastic Compliance Matrix: (Units=1/GPa)
#
#
# Indices 1 2 3 4 5 6 
#
# 1 0.017912 0.001082 -0.004327 0.000000 0.000000 0.000000
# 2 0.001082 0.013278 -0.001736 0.000000 0.000000 0.000000
# 3 -0.004327 -0.001736 0.016326 0.000000 0.000000 0.000000
# 4 0.000000 0.000000 0.000000 0.041411 0.000000 0.000000
# 5 0.000000 0.000000 0.000000 0.000000 0.044888 0.000000
# 6 0.000000 0.000000 0.000000 0.000000 0.000000 0.026707
#
#
# Mechanical properties :
#
#
# Convention : Reuss Voigt Hill
#
# Bulk Modulus (GPa) = 26.62809 26.95287 26.79048
# Shear Modulus (GPa) = 27.32186 28.92931 28.12558
#
# Velocity S-wave (km/s) = 3.40738 3.50618 3.45713
# Velocity P-wave (km/s) = 5.17646 5.27679 5.22686
#
# Compressibility (1/GPa) = 0.03755432
#
# Stress axis : x y z
#
# Youngs Moduli (GPa) = 55.82727 75.31245 61.25269
#
# Poissons Ratio (x) = -0.08150 0.26503
# Poissons Ratio (y) = -0.06042 0.10635
# Poissons Ratio (z) = 0.24156 0.13076
#
# Static dielectric constant tensor:
#      x y z
#    x 1.902760 0.000000 0.000000 
#    y 0.000000 1.883870 0.000000 
#    z 0.000000 0.000000 2.015860 
# 
# From -- ./inp_files/28782.got.cif
#   From: 2010.05.17/outbox.cif.g08.bks.cpg/sg20_15_cif.got.tgz:28782.got - 2010.06.03 22:52:26.
