data_PCOD9320479
_publ_section_title
;
Structure prediction by ZEFSAII (Michael W. Deem and Ramdas Pophale) SiO2 
 PCOD9320479
Probable space group: C 2 2 21
;
_chemical_formula_sum "Si O2"
_cell_formula_units_Z 32
_cell_length_a 7.004721
_cell_length_b 12.640075
_cell_length_c 16.889293
_cell_angle_alpha 90.000000
_cell_angle_beta 90.000000
_cell_angle_gamma 90.000000
_cell_volume 1495.381360
_symmetry_space_group_name_H-M "C 2 2 21"
_symmetry_group_IT_number 20
_symmetry_cell_setting 'orthorhombic'
loop_
_space_group_symop_operation_xyz
x,y,z
-x,-y,1/2+z
x,-y,-z
-x,y,1/2-z
1/2+x,1/2+y,z
1/2-x,1/2-y,1/2+z
1/2+x,1/2-y,-z
1/2-x,1/2+y,1/2-z
loop_
_atom_site_type_symbol
_atom_site_label
_atom_site_fract_x
_atom_site_fract_y
_atom_site_fract_z
Si Si1 0.384042 0.307424 0.935883
Si Si2 0.130977 0.671397 0.826413
Si Si3 0.445985 0.495665 0.163878
Si Si4 0.003061 0.777721 0.384792
O O1 0.502463 0.210663 0.898741
O O2 0.467355 0.416308 0.902197
O O3 0.170439 0.298869 0.901402
O O4 0.400312 0.300868 0.029894
O O5 0.234324 0.557599 0.835530
O O6 0.320425 0.747594 0.826570
O O7 0.000000 0.678080 0.750000
O O8 0.500000 0.538493 0.250000
O O9 0.572753 0.391055 0.147003
#
# Coordination Sequence:
#
# PCOD9320479 Si02
#       4
#     8   8   8   8
#     4  12  21  45  66  94 128 175 215 265 330 380
#     4  10  23  43  63  92 134 165 214 275 314 383
#     4  10  23  42  64  93 129 167 213 266 317 388
#     4  10  23  41  66  92 131 165 219 270 317 387
#
# _framework density 21.399224
#
# number of rings (size 3 to 8) (size 9 to 14) (size 15 to 20)
#    1.500    0.000    2.500    3.000    0.000    0.000 
#   13.500    0.000    0.000    0.000    0.000    0.000 
#    0.000    0.000    0.000    0.000    0.000    0.000 
#
# Total GULP energy -89137.444883 kJ/mol
# GULP energy per Si atom -5571.090305 kJ/mol
# Density = 2.135052 g / cm^3
# Si number density = 21.399224 Si / 1000 Ang^3
#
#
#
# Elastic Constant Matrix: (Units=GPa)
#
#
# Indices 1 2 3 4 5 6 
#
# 1 68.3792 3.3807 0.3337 0.0000 0.0000 0.0000
# 2 3.3807 30.8575 13.8573 0.0000 0.0000 0.0000
# 3 0.3337 13.8573 54.0274 0.0000 0.0000 0.0000
# 4 0.0000 0.0000 0.0000 8.2016 0.0000 0.0000
# 5 0.0000 0.0000 0.0000 0.0000 41.0010 0.0000
# 6 0.0000 0.0000 0.0000 0.0000 0.0000 23.4987
#
#
#
# Elastic Compliance Matrix: (Units=1/GPa)
#
#
# Indices 1 2 3 4 5 6 
#
# 1 0.014710 -0.001775 0.000364 0.000000 0.000000 0.000000
# 2 -0.001775 0.036840 -0.009438 0.000000 0.000000 0.000000
# 3 0.000364 -0.009438 0.020928 0.000000 0.000000 0.000000
# 4 0.000000 0.000000 0.000000 0.121928 0.000000 0.000000
# 5 0.000000 0.000000 0.000000 0.000000 0.024390 0.000000
# 6 0.000000 0.000000 0.000000 0.000000 0.000000 0.042556
#
#
# Mechanical properties :
#
#
# Convention : Reuss Voigt Hill
#
# Bulk Modulus (GPa) = 19.69272 20.93416 20.31344
# Shear Modulus (GPa) = 16.66805 23.58641 20.12723
#
# Velocity S-wave (km/s) = 2.79392 3.32355 3.07018
# Velocity P-wave (km/s) = 4.43063 4.95297 4.69907
#
# Compressibility (1/GPa) = 0.05078020
#
# Stress axis : x y z
#
# Youngs Moduli (GPa) = 67.97942 27.14443 47.78373
#
# Poissons Ratio (x) = 0.04819 -0.01742
# Poissons Ratio (y) = 0.12069 0.45098
# Poissons Ratio (z) = -0.02478 0.25619
#
# Static dielectric constant tensor:
#      x y z
#    x 1.815520 0.000000 0.000000 
#    y 0.000000 1.752820 0.000000 
#    z 0.000000 0.000000 1.775450 
# 
# From -- ./inp_files/18201.got.cif
#   From: 2010.05.17/outbox.cif.g08.bks.cpg/sg20_10_cif.got.tgz:18201.got - 2010.06.03 22:52:26.
