data_PCOD9320527
_publ_section_title
;
Structure prediction by ZEFSAII (Michael W. Deem and Ramdas Pophale) SiO2 
 PCOD9320527
Probable space group: C 2 2 21
;
_chemical_formula_sum "Si O2"
_cell_formula_units_Z 56
_cell_length_a 21.540108
_cell_length_b 13.537879
_cell_length_c 8.940956
_cell_angle_alpha 90.000000
_cell_angle_beta 90.000000
_cell_angle_gamma 90.000000
_cell_volume 2607.248716
_symmetry_space_group_name_H-M "C 2 2 21"
_symmetry_group_IT_number 20
_symmetry_cell_setting 'orthorhombic'
loop_
_space_group_symop_operation_xyz
x,y,z
-x,-y,1/2+z
x,-y,-z
-x,y,1/2-z
1/2+x,1/2+y,z
1/2-x,1/2-y,1/2+z
1/2+x,1/2-y,-z
1/2-x,1/2+y,1/2-z
loop_
_atom_site_type_symbol
_atom_site_label
_atom_site_fract_x
_atom_site_fract_y
_atom_site_fract_z
Si Si1 0.557286 0.454382 0.848202
Si Si2 0.361956 0.157752 0.369152
Si Si3 0.112941 0.252860 0.408083
Si Si4 0.500000 0.142534 0.750000
Si Si5 0.833324 0.198991 0.380974
Si Si6 0.572182 0.657949 0.705231
Si Si7 0.297070 0.104514 0.079547
Si Si8 0.452341 0.000000 0.500000
O O1 0.500000 0.415858 0.750000
O O2 0.608266 0.375291 0.898985
O O3 0.587407 0.546458 0.757413
O O4 0.530138 0.500000 0.000000
O O5 0.341412 0.198157 0.530997
O O6 0.389952 0.256950 0.292569
O O7 0.311951 0.111626 0.256269
O O8 0.411780 0.072279 0.396507
O O9 0.165739 0.212175 0.297684
O O10 0.085053 0.177787 0.530211
O O11 0.146118 0.338284 0.501629
O O12 0.059304 0.293124 0.298318
O O13 0.489208 0.072774 0.607748
O O14 0.769810 0.153973 0.440680
O O15 0.500000 0.671657 0.750000
O O16 0.294864 0.000000 0.000000
#
# Coordination Sequence:
#
# PCOD9320527 Si02
#       8
#     8   8   8   4   8   8   8   4
#     4  11  25  41  69 105 144 187 237 296 362 434
#     4  11  24  45  68  98 140 182 237 295 363 433
#     4  11  26  44  71 104 144 188 242 304 373 443
#     4  12  26  42  72 110 146 186 242 300 380 442
#     4  12  25  46  72 102 140 192 242 301 365 439
#     4  10  23  42  67 100 145 188 228 294 364 440
#     4  11  26  48  72  96 138 191 245 299 363 440
#     4  12  26  40  68 106 140 184 230 294 368 448
#
# _framework density 21.478580000000001
#
# number of rings (size 3 to 8) (size 9 to 14) (size 15 to 20)
#    0.000    0.857    2.857    3.000   11.000    0.000 
#    0.000    1.429    0.000    0.000    0.000    0.000 
#    0.000    0.000    0.000    0.000    0.000    0.000 
#
# Total GULP energy -156463.113798 kJ/mol
# GULP energy per Si atom -5587.968350 kJ/mol
# Density = 2.142969 g / cm^3
# Si number density = 21.478580 Si / 1000 Ang^3
#
#
#
# Elastic Constant Matrix: (Units=GPa)
#
#
# Indices 1 2 3 4 5 6 
#
# 1 64.1013 18.3773 15.3029 0.0000 0.0000 0.0000
# 2 18.3773 87.9225 23.5223 0.0000 0.0000 0.0000
# 3 15.3029 23.5223 108.9144 0.0000 0.0000 0.0000
# 4 0.0000 0.0000 0.0000 36.9559 0.0000 0.0000
# 5 0.0000 0.0000 0.0000 0.0000 36.6366 0.0000
# 6 0.0000 0.0000 0.0000 0.0000 0.0000 43.3739
#
#
#
# Elastic Compliance Matrix: (Units=1/GPa)
#
#
# Indices 1 2 3 4 5 6 
#
# 1 0.016889 -0.003073 -0.001709 0.000000 0.000000 0.000000
# 2 -0.003073 0.012630 -0.002296 0.000000 0.000000 0.000000
# 3 -0.001709 -0.002296 0.009918 0.000000 0.000000 0.000000
# 4 0.000000 0.000000 0.000000 0.027059 0.000000 0.000000
# 5 0.000000 0.000000 0.000000 0.000000 0.027295 0.000000
# 6 0.000000 0.000000 0.000000 0.000000 0.000000 0.023055
#
#
# Mechanical properties :
#
#
# Convention : Reuss Voigt Hill
#
# Bulk Modulus (GPa) = 39.55592 41.70479 40.63036
# Shear Modulus (GPa) = 35.86023 36.97565 36.41794
#
# Velocity S-wave (km/s) = 4.09048 4.15361 4.12217
# Velocity P-wave (km/s) = 6.38481 6.51632 6.45090
#
# Compressibility (1/GPa) = 0.02528066
#
# Stress axis : x y z
#
# Youngs Moduli (GPa) = 59.20887 79.17534 100.83119
#
# Poissons Ratio (x) = 0.24329 0.17236
# Poissons Ratio (y) = 0.18194 0.23151
# Poissons Ratio (z) = 0.10121 0.18179
#
# Static dielectric constant tensor:
#      x y z
#    x 1.761110 0.000000 0.000000 
#    y 0.000000 1.781490 0.000000 
#    z 0.000000 0.000000 1.737370 
# 
# From -- ./inp_files/10264.got.cif
#   From: 2010.05.17/outbox.cif.g08.bks.cpg/sg20_6_cif.got.tgz:10264.got - 2010.06.03 22:52:26.
