data_PCOD9320812
_publ_section_title
;
Structure prediction by ZEFSAII (Michael W. Deem and Ramdas Pophale) SiO2 
 PCOD9320812
Probable space group: C 2 2 21
;
_chemical_formula_sum "Si O2"
_cell_formula_units_Z 40
_cell_length_a 10.378418
_cell_length_b 11.586720
_cell_length_c 16.080753
_cell_angle_alpha 90.000000
_cell_angle_beta 90.000000
_cell_angle_gamma 90.000000
_cell_volume 1933.739870
_symmetry_space_group_name_H-M "C 2 2 21"
_symmetry_group_IT_number 20
_symmetry_cell_setting 'orthorhombic'
loop_
_space_group_symop_operation_xyz
x,y,z
-x,-y,1/2+z
x,-y,-z
-x,y,1/2-z
1/2+x,1/2+y,z
1/2-x,1/2-y,1/2+z
1/2+x,1/2-y,-z
1/2-x,1/2+y,1/2-z
loop_
_atom_site_type_symbol
_atom_site_label
_atom_site_fract_x
_atom_site_fract_y
_atom_site_fract_z
Si Si1 0.678263 0.722972 0.614939
Si Si2 0.970173 0.695846 0.653001
Si Si3 0.888100 0.471338 0.819108
Si Si4 0.366090 0.513153 0.788700
Si Si5 0.097588 0.888755 0.549964
O O1 0.818414 0.685885 0.646398
O O2 0.640775 0.854884 0.630309
O O3 0.595090 0.637540 0.672899
O O4 0.671129 0.684122 0.519530
O O5 0.000000 0.716702 0.750000
O O6 0.052510 0.581044 0.631797
O O7 0.000681 0.800768 0.592161
O O8 0.752372 0.506510 0.775397
O O9 0.000000 0.447945 0.750000
O O10 0.500000 0.468093 0.750000
O O11 0.326299 0.439067 0.870587
O O12 0.043616 0.000000 0.500000
#
# Coordination Sequence:
#
# PCOD9320812 Si02
#       5
#     8   8   8   8   8
#     4  11  23  43  66 104 139 183 238 301 362 422
#     4  11  22  47  71  99 139 186 241 294 354 427
#     4  11  23  41  72 104 132 187 245 291 358 423
#     4  11  22  43  70  96 138 189 244 292 352 440
#     4  10  24  42  62  97 141 186 222 298 367 413
#
# _framework density 20.685305
#
# number of rings (size 3 to 8) (size 9 to 14) (size 15 to 20)
#    0.000    1.200    4.000    3.600    0.000    2.400 
#   14.400    0.000    0.000    0.000    0.000    0.000 
#    0.000    0.000    0.000    0.000    0.000    0.000 
#
# Total GULP energy -111456.503562 kJ/mol
# GULP energy per Si atom -5572.825178 kJ/mol
# Density = 2.063822 g / cm^3
# Si number density = 20.685305 Si / 1000 Ang^3
#
#
#
# Elastic Constant Matrix: (Units=GPa)
#
#
# Indices 1 2 3 4 5 6 
#
# 1 76.1528 13.7621 28.3129 0.0000 0.0000 0.0000
# 2 13.7621 150.4550 38.8339 0.0000 0.0000 0.0000
# 3 28.3129 38.8339 89.8916 0.0000 0.0000 0.0000
# 4 0.0000 0.0000 0.0000 45.6927 0.0000 0.0000
# 5 0.0000 0.0000 0.0000 0.0000 19.3202 0.0000
# 6 0.0000 0.0000 0.0000 0.0000 0.0000 33.4645
#
#
#
# Elastic Compliance Matrix: (Units=1/GPa)
#
#
# Indices 1 2 3 4 5 6 
#
# 1 0.014877 -0.000170 -0.004612 0.000000 0.000000 0.000000
# 2 -0.000170 0.007483 -0.003179 0.000000 0.000000 0.000000
# 3 -0.004612 -0.003179 0.013951 0.000000 0.000000 0.000000
# 4 0.000000 0.000000 0.000000 0.021885 0.000000 0.000000
# 5 0.000000 0.000000 0.000000 0.000000 0.051759 0.000000
# 6 0.000000 0.000000 0.000000 0.000000 0.000000 0.029882
#
#
# Mechanical properties :
#
#
# Convention : Reuss Voigt Hill
#
# Bulk Modulus (GPa) = 49.05020 53.14638 51.09829
# Shear Modulus (GPa) = 30.75866 35.40150 33.08008
#
# Velocity S-wave (km/s) = 3.86032 4.14143 4.00335
# Velocity P-wave (km/s) = 6.60557 6.97261 6.79157
#
# Compressibility (1/GPa) = 0.02038728
#
# Stress axis : x y z
#
# Youngs Moduli (GPa) = 67.21764 133.64350 71.68193
#
# Poissons Ratio (x) = 0.02277 0.33061
# Poissons Ratio (y) = 0.01145 0.22787
# Poissons Ratio (z) = 0.31002 0.42484
#
# Static dielectric constant tensor:
#      x y z
#    x 1.642600 0.000000 0.000000 
#    y 0.000000 1.851180 0.000000 
#    z 0.000000 0.000000 1.758180 
# 
# From -- ./inp_files/19689.got.cif
#   From: 2010.05.17/outbox.cif.g08.bks.cpg/sg20_10_cif.got.tgz:19689.got - 2010.06.03 22:52:26.
