data_PCOD9320939
_publ_section_title
;
Structure prediction by ZEFSAII (Michael W. Deem and Ramdas Pophale) SiO2 
 PCOD9320939
Probable space group: C 2 2 21
;
_chemical_formula_sum "Si O2"
_cell_formula_units_Z 44
_cell_length_a 19.125481
_cell_length_b 9.661474
_cell_length_c 9.899435
_cell_angle_alpha 90.000000
_cell_angle_beta 90.000000
_cell_angle_gamma 90.000000
_cell_volume 1829.220940
_symmetry_space_group_name_H-M "C 2 2 21"
_symmetry_group_IT_number 20
_symmetry_cell_setting 'orthorhombic'
loop_
_space_group_symop_operation_xyz
x,y,z
-x,-y,1/2+z
x,-y,-z
-x,y,1/2-z
1/2+x,1/2+y,z
1/2-x,1/2-y,1/2+z
1/2+x,1/2-y,-z
1/2-x,1/2+y,1/2-z
loop_
_atom_site_type_symbol
_atom_site_label
_atom_site_fract_x
_atom_site_fract_y
_atom_site_fract_z
Si Si1 0.000000 0.615900 0.750000
Si Si2 0.590091 0.367301 0.353754
Si Si3 0.892390 0.859397 0.740735
Si Si4 0.636380 0.707233 0.943608
Si Si5 0.278090 0.647613 0.048344
Si Si6 0.010754 0.609811 0.084366
O O1 0.931027 0.712976 0.754552
O O2 0.002308 0.574525 0.580600
O O3 0.568397 0.529115 0.340251
O O4 0.618955 0.357578 0.200761
O O5 0.656306 0.334370 0.447775
O O6 0.532050 0.256992 0.396709
O O7 0.888159 0.871097 0.578613
O O8 0.814550 0.857463 0.804807
O O9 0.718118 0.739584 0.957388
O O10 0.592638 0.849672 0.927008
O O11 0.248008 0.500000 0.000000
O O12 0.000000 0.564133 0.250000
#
# Coordination Sequence:
#
# PCOD9320939 Si02
#       6
#     4   8   8   8   8   8
#     4  12  24  42  70 106 138 188 242 292 364 420
#     4  11  25  48  69 108 148 186 241 302 365 424
#     4  11  26  45  72 106 144 191 241 296 363 434
#     4  12  23  44  75 105 144 183 244 293 363 428
#     4  10  24  45  70 102 145 192 235 293 361 431
#     4  12  24  44  71 108 141 190 242 301 359 426
#
# _framework density 24.053957
#
# number of rings (size 3 to 8) (size 9 to 14) (size 15 to 20)
#    0.000    0.727    3.636    3.273    2.545    0.000 
#    0.000    3.636    0.000    0.000    0.000    0.000 
#    0.000    0.000    0.000    0.000    0.000    0.000 
#
# Total GULP energy -122729.849094 kJ/mol
# GULP energy per Si atom -5578.629504 kJ/mol
# Density = 2.399921 g / cm^3
# Si number density = 24.053957 Si / 1000 Ang^3
#
#
#
# Elastic Constant Matrix: (Units=GPa)
#
#
# Indices 1 2 3 4 5 6 
#
# 1 88.0509 39.6458 28.1424 0.0000 0.0000 0.0000
# 2 39.6458 131.9965 51.9247 0.0000 0.0000 0.0000
# 3 28.1424 51.9247 203.5172 0.0000 0.0000 0.0000
# 4 0.0000 0.0000 0.0000 51.7695 0.0000 0.0000
# 5 0.0000 0.0000 0.0000 0.0000 34.5964 0.0000
# 6 0.0000 0.0000 0.0000 0.0000 0.0000 -16.8634
#
#
#
# Elastic Compliance Matrix: (Units=1/GPa)
#
#
# Indices 1 2 3 4 5 6 
#
# 1 0.013283 -0.003632 -0.000910 0.000000 0.000000 0.000000
# 2 -0.003632 0.009414 -0.001900 0.000000 0.000000 0.000000
# 3 -0.000910 -0.001900 0.005524 0.000000 0.000000 0.000000
# 4 0.000000 0.000000 0.000000 0.019316 0.000000 0.000000
# 5 0.000000 0.000000 0.000000 0.000000 0.028905 0.000000
# 6 0.000000 0.000000 0.000000 0.000000 0.000000 -0.059300
#
#
# Mechanical properties :
#
#
# Convention : Reuss Voigt Hill
#
# Bulk Modulus (GPa) = 65.19641 73.66561 69.43101
# Shear Modulus (GPa) = 142.29555 34.15727 88.22641
#
# Velocity S-wave (km/s) = 7.69969 3.77241 6.06285
# Velocity P-wave (km/s) = 10.30583 7.04744 8.82826
#
# Compressibility (1/GPa) = 0.01533827
#
# Stress axis : x y z
#
# Youngs Moduli (GPa) = 75.28335 106.22447 181.02371
#
# Poissons Ratio (x) = 0.38576 0.16478
# Poissons Ratio (y) = 0.27340 0.34389
# Poissons Ratio (z) = 0.06853 0.20179
#
# Static dielectric constant tensor:
#      x y z
#    x 1.822020 0.000000 0.000000 
#    y 0.000000 2.083410 0.000000 
#    z 0.000000 0.000000 1.980270 
# 
# From -- ./inp_files/8300.got.cif
#   From: 2010.05.17/outbox.cif.g08.bks.cpg/sg20_5_cif.got.tgz:8300.got - 2010.06.03 22:52:26.
