data_PCOD9320232
_publ_section_title
;
Structure prediction by ZEFSAII (Michael W. Deem and Ramdas Pophale) SiO2 
 PCOD9320232
Probable space group: C 2 2 21
;
_chemical_formula_sum "Si O2"
_cell_formula_units_Z 36
_cell_length_a 10.240642
_cell_length_b 10.973160
_cell_length_c 14.978797
_cell_angle_alpha 90.000000
_cell_angle_beta 90.000000
_cell_angle_gamma 90.000000
_cell_volume 1683.200420
_symmetry_space_group_name_H-M "C 2 2 21"
_symmetry_group_IT_number 20
_symmetry_cell_setting 'orthorhombic'
loop_
_space_group_symop_operation_xyz
x,y,z
-x,-y,1/2+z
x,-y,-z
-x,y,1/2-z
1/2+x,1/2+y,z
1/2-x,1/2-y,1/2+z
1/2+x,1/2-y,-z
1/2-x,1/2+y,1/2-z
loop_
_atom_site_type_symbol
_atom_site_label
_atom_site_fract_x
_atom_site_fract_y
_atom_site_fract_z
Si Si1 0.000000 0.325127 0.750000
Si Si2 0.145021 0.439467 0.234314
Si Si3 0.513071 0.300308 0.436397
Si Si4 0.700971 0.780622 0.067199
Si Si5 0.304463 0.498172 0.596285
O O1 0.116364 0.416787 0.776604
O O2 0.966461 0.250549 0.837064
O O3 0.196189 0.379725 0.144986
O O4 0.232394 0.433596 0.323097
O O5 0.000000 0.385510 0.250000
O O6 0.414626 0.217936 0.494749
O O7 0.657214 0.297570 0.477899
O O8 0.438043 0.428244 0.422217
O O9 0.683426 0.646031 0.111820
O O10 0.230855 0.500000 0.500000
#
# Coordination Sequence:
#
# PCOD9320232 Si02
#       5
#     4   8   8   8   8
#     4  10  22  44  66 100 144 194 236 296 366 442
#     4  10  23  40  68 102 138 190 237 297 365 428
#     4  11  24  46  74 101 144 193 241 306 366 434
#     4  11  24  46  70 108 141 190 247 303 367 439
#     4  10  23  44  71  96 146 189 238 299 368 430
#
# _framework density 21.387827000000001
#
# number of rings (size 3 to 8) (size 9 to 14) (size 15 to 20)
#    0.667    0.889    2.222    1.333    6.222    0.889 
#   18.000    0.000    0.000    0.000    0.000    0.000 
#    0.000    0.000    0.000    0.000    0.000    0.000 
#
# Total GULP energy -100327.081275 kJ/mol
# GULP energy per Si atom -5573.726738 kJ/mol
# Density = 2.133915 g / cm^3
# Si number density = 21.387827 Si / 1000 Ang^3
#
#
#
# Elastic Constant Matrix: (Units=GPa)
#
#
# Indices 1 2 3 4 5 6 
#
# 1 136.1519 13.3111 32.5932 0.0000 0.0000 0.0000
# 2 13.3111 78.2449 25.6894 0.0000 0.0000 0.0000
# 3 32.5932 25.6894 96.6097 0.0000 0.0000 0.0000
# 4 0.0000 0.0000 0.0000 40.2507 0.0000 0.0000
# 5 0.0000 0.0000 0.0000 0.0000 37.0688 0.0000
# 6 0.0000 0.0000 0.0000 0.0000 0.0000 21.5429
#
#
#
# Elastic Compliance Matrix: (Units=1/GPa)
#
#
# Indices 1 2 3 4 5 6 
#
# 1 0.008009 -0.000521 -0.002564 0.000000 0.000000 0.000000
# 2 -0.000521 0.014037 -0.003557 0.000000 0.000000 0.000000
# 3 -0.002564 -0.003557 0.012162 0.000000 0.000000 0.000000
# 4 0.000000 0.000000 0.000000 0.024844 0.000000 0.000000
# 5 0.000000 0.000000 0.000000 0.000000 0.026977 0.000000
# 6 0.000000 0.000000 0.000000 0.000000 0.000000 0.046419
#
#
# Mechanical properties :
#
#
# Convention : Reuss Voigt Hill
#
# Bulk Modulus (GPa) = 47.78927 50.46597 49.12762
# Shear Modulus (GPa) = 32.74281 35.73336 34.23808
#
# Velocity S-wave (km/s) = 3.91693 4.09189 4.00537
# Velocity P-wave (km/s) = 6.54592 6.78024 6.66411
#
# Compressibility (1/GPa) = 0.02092520
#
# Stress axis : x y z
#
# Youngs Moduli (GPa) = 124.85390 71.24148 82.22611
#
# Poissons Ratio (x) = 0.03711 0.21080
# Poissons Ratio (y) = 0.06503 0.29246
# Poissons Ratio (z) = 0.32008 0.25339
#
# Static dielectric constant tensor:
#      x y z
#    x 1.844160 0.000000 0.000000 
#    y 0.000000 1.796710 0.000000 
#    z 0.000000 0.000000 1.791680 
# 
# From -- ./inp_files/19627.got.cif
#   From: 2010.05.17/outbox.cif.g08.bks.cpg/sg20_10_cif.got.tgz:19627.got - 2010.06.03 22:52:26.
