data_PCOD9320426
_publ_section_title
;
Structure prediction by ZEFSAII (Michael W. Deem and Ramdas Pophale) SiO2 
 PCOD9320426
Probable space group: C 2 2 21
;
_chemical_formula_sum "Si O2"
_cell_formula_units_Z 40
_cell_length_a 26.305136
_cell_length_b 8.101149
_cell_length_c 7.667051
_cell_angle_alpha 90.000000
_cell_angle_beta 90.000000
_cell_angle_gamma 90.000000
_cell_volume 1633.862570
_symmetry_space_group_name_H-M "C 2 2 21"
_symmetry_group_IT_number 20
_symmetry_cell_setting 'orthorhombic'
loop_
_space_group_symop_operation_xyz
x,y,z
-x,-y,1/2+z
x,-y,-z
-x,y,1/2-z
1/2+x,1/2+y,z
1/2-x,1/2-y,1/2+z
1/2+x,1/2-y,-z
1/2-x,1/2+y,1/2-z
loop_
_atom_site_type_symbol
_atom_site_label
_atom_site_fract_x
_atom_site_fract_y
_atom_site_fract_z
Si Si1 0.080287 0.658415 0.806731
Si Si2 0.376500 0.306486 0.040599
Si Si3 0.229280 0.823857 0.585155
Si Si4 0.551327 0.776602 0.840682
Si Si5 0.324552 0.324401 0.547904
O O1 0.088957 0.722135 0.610722
O O2 0.058894 0.474077 0.811069
O O3 0.135034 0.684021 0.901722
O O4 0.047682 0.756577 0.952130
O O5 0.401000 0.289531 0.230045
O O6 0.373533 0.500000 0.000000
O O7 0.318719 0.242644 0.017700
O O8 0.281382 0.724408 0.587999
O O9 0.207385 0.849521 0.776039
O O10 0.241066 0.000000 0.500000
O O11 0.500000 0.719829 0.750000
O O12 0.348801 0.500000 0.500000
#
# Coordination Sequence:
#
# PCOD9320426 Si02
#       5
#     8   8   8   8   8
#     4  10  26  43  72 100 136 180 232 291 343 422
#     4  10  24  45  69 104 143 180 227 293 352 416
#     4  10  23  39  65  97 136 186 224 274 342 418
#     4  11  26  46  73  99 133 187 236 293 352 422
#     4  11  24  41  66 100 139 183 228 286 345 413
#
# _framework density 24.481864999999999
#
# number of rings (size 3 to 8) (size 9 to 14) (size 15 to 20)
#    0.000    1.600    0.000    1.800   19.600    3.200 
#    3.600    0.000    0.000    0.000    0.000    0.000 
#    0.000    0.000    0.000    0.000    0.000    0.000 
#
# Total GULP energy -111800.042385 kJ/mol
# GULP energy per Si atom -5590.002119 kJ/mol
# Density = 2.442614 g / cm^3
# Si number density = 24.481865 Si / 1000 Ang^3
#
#
#
# Elastic Constant Matrix: (Units=GPa)
#
#
# Indices 1 2 3 4 5 6 
#
# 1 61.8854 2.2111 -5.3624 0.0000 0.0000 0.0000
# 2 2.2111 27.1357 -3.0795 0.0000 0.0000 0.0000
# 3 -5.3624 -3.0795 100.7486 0.0000 0.0000 0.0000
# 4 0.0000 0.0000 0.0000 37.8875 0.0000 0.0000
# 5 0.0000 0.0000 0.0000 0.0000 33.0286 0.0000
# 6 0.0000 0.0000 0.0000 0.0000 0.0000 1126.3503
#
#
#
# Elastic Compliance Matrix: (Units=1/GPa)
#
#
# Indices 1 2 3 4 5 6 
#
# 1 0.016275 -0.001232 0.000829 0.000000 0.000000 0.000000
# 2 -0.001232 0.037073 0.001068 0.000000 0.000000 0.000000
# 3 0.000829 0.001068 0.010002 0.000000 0.000000 0.000000
# 4 0.000000 0.000000 0.000000 0.026394 0.000000 0.000000
# 5 0.000000 0.000000 0.000000 0.000000 0.030277 0.000000
# 6 0.000000 0.000000 0.000000 0.000000 0.000000 0.000888
#
#
# Mechanical properties :
#
#
# Convention : Reuss Voigt Hill
#
# Bulk Modulus (GPa) = 15.46102 19.70090 17.58096
# Shear Modulus (GPa) = 35.42571 252.51999 143.97285
#
# Velocity S-wave (km/s) = 3.80810 10.16709 7.67695
# Velocity P-wave (km/s) = 5.06601 12.07853 9.26162
#
# Compressibility (1/GPa) = 0.06467877
#
# Stress axis : x y z
#
# Youngs Moduli (GPa) = 61.44502 26.97352 99.97573
#
# Poissons Ratio (x) = 0.03323 -0.08284
# Poissons Ratio (y) = 0.07570 -0.10673
# Poissons Ratio (z) = -0.05091 -0.02880
#
# Static dielectric constant tensor:
#      x y z
#    x 1.991810 0.000000 0.000000 
#    y 0.000000 1.914970 0.000000 
#    z 0.000000 0.000000 1.958220 
# 
# From -- ./inp_files/6270.got.cif
#   From: 2010.05.17/outbox.cif.g08.bks.cpg/sg20_4_cif.got.tgz:6270.got - 2010.06.03 22:52:26.
