data_PCOD9320694
_publ_section_title
;
Structure prediction by ZEFSAII (Michael W. Deem and Ramdas Pophale) SiO2 
 PCOD9320694
Probable space group: C 2 2 21
;
_chemical_formula_sum "Si O2"
_cell_formula_units_Z 32
_cell_length_a 13.586919
_cell_length_b 4.942803
_cell_length_c 18.190239
_cell_angle_alpha 90.000000
_cell_angle_beta 90.000000
_cell_angle_gamma 90.000000
_cell_volume 1221.610321
_symmetry_space_group_name_H-M "C 2 2 21"
_symmetry_group_IT_number 20
_symmetry_cell_setting 'orthorhombic'
loop_
_space_group_symop_operation_xyz
x,y,z
-x,-y,1/2+z
x,-y,-z
-x,y,1/2-z
1/2+x,1/2+y,z
1/2-x,1/2-y,1/2+z
1/2+x,1/2-y,-z
1/2-x,1/2+y,1/2-z
loop_
_atom_site_type_symbol
_atom_site_label
_atom_site_fract_x
_atom_site_fract_y
_atom_site_fract_z
Si Si1 0.742165 0.642047 0.422001
Si Si2 0.433341 0.587906 0.649654
Si Si3 0.800057 0.177674 0.778224
Si Si4 0.965634 0.431311 0.082753
O O1 0.755480 0.500000 0.500000
O O2 0.838748 0.802954 0.396289
O O3 0.718111 0.416745 0.360477
O O4 0.645724 0.829317 0.423754
O O5 0.395458 0.581641 0.733212
O O6 0.469175 0.304554 0.618349
O O7 0.517324 0.807564 0.632778
O O8 0.783460 0.494313 0.764059
O O9 0.998389 0.500000 0.000000
#
# Coordination Sequence:
#
# PCOD9320694 Si02
#       4
#     8   8   8   8
#     4  11  26  48  74 104 143 186 230 293 354 408
#     4  11  25  48  73 101 144 188 227 292 352 406
#     4  10  23  45  73 105 138 183 239 282 343 428
#     4  12  27  45  70 107 141 181 242 284 341 427
#
# _framework density 26.194934
#
# number of rings (size 3 to 8) (size 9 to 14) (size 15 to 20)
#    0.000    1.000    0.000    6.000    0.000   17.000 
#    0.000   10.000    0.000    0.000    0.000    0.000 
#    0.000    0.000    0.000    0.000    0.000    0.000 
#
# Total GULP energy -89880.744170 kJ/mol
# GULP energy per Si atom -5617.546511 kJ/mol
# Density = 2.613531 g / cm^3
# Si number density = 26.194934 Si / 1000 Ang^3
#
#
#
# Elastic Constant Matrix: (Units=GPa)
#
#
# Indices 1 2 3 4 5 6 
#
# 1 107.6106 3.7518 14.9170 0.0000 0.0000 0.0000
# 2 3.7518 119.3915 52.9034 0.0000 0.0000 0.0000
# 3 14.9170 52.9034 205.1307 0.0000 0.0000 0.0000
# 4 0.0000 0.0000 0.0000 46.0042 0.0000 0.0000
# 5 0.0000 0.0000 0.0000 0.0000 35.8948 0.0000
# 6 0.0000 0.0000 0.0000 0.0000 0.0000 49.8253
#
#
#
# Elastic Compliance Matrix: (Units=1/GPa)
#
#
# Indices 1 2 3 4 5 6 
#
# 1 0.009387 0.000008 -0.000685 0.000000 0.000000 0.000000
# 2 0.000008 0.009456 -0.002439 0.000000 0.000000 0.000000
# 3 -0.000685 -0.002439 0.005554 0.000000 0.000000 0.000000
# 4 0.000000 0.000000 0.000000 0.021737 0.000000 0.000000
# 5 0.000000 0.000000 0.000000 0.000000 0.027859 0.000000
# 6 0.000000 0.000000 0.000000 0.000000 0.000000 0.020070
#
#
# Mechanical properties :
#
#
# Convention : Reuss Voigt Hill
#
# Bulk Modulus (GPa) = 55.04753 63.91968 59.48361
# Shear Modulus (GPa) = 47.01404 50.38225 48.69814
#
# Velocity S-wave (km/s) = 4.24108 4.39037 4.31637
# Velocity P-wave (km/s) = 6.71137 7.08202 6.89918
#
# Compressibility (1/GPa) = 0.01816612
#
# Stress axis : x y z
#
# Youngs Moduli (GPa) = 106.52577 105.74761 180.05439
#
# Poissons Ratio (x) = -0.00089 0.12331
# Poissons Ratio (y) = -0.00090 0.43923
# Poissons Ratio (z) = 0.07295 0.25797
#
# Static dielectric constant tensor:
#      x y z
#    x 2.097980 0.000000 0.000000 
#    y 0.000000 1.964910 0.000000 
#    z 0.000000 0.000000 2.039770 
# 
# From -- ./inp_files/24604.got.cif
#   From: 2010.05.17/outbox.cif.g08.bks.cpg/sg20_13_cif.got.tgz:24604.got - 2010.06.03 22:52:26.
