data_PCOD9320076
_publ_section_title
;
Structure prediction by ZEFSAII (Michael W. Deem and Ramdas Pophale) SiO2 
 PCOD9320076
Probable space group: C 2 2 21
;
_chemical_formula_sum "Si O2"
_cell_formula_units_Z 60
_cell_length_a 10.094993
_cell_length_b 17.242094
_cell_length_c 16.807326
_cell_angle_alpha 90.000000
_cell_angle_beta 90.000000
_cell_angle_gamma 90.000000
_cell_volume 2925.463301
_symmetry_space_group_name_H-M "C 2 2 21"
_symmetry_group_IT_number 20
_symmetry_cell_setting 'orthorhombic'
loop_
_space_group_symop_operation_xyz
x,y,z
-x,-y,1/2+z
x,-y,-z
-x,y,1/2-z
1/2+x,1/2+y,z
1/2-x,1/2-y,1/2+z
1/2+x,1/2-y,-z
1/2-x,1/2+y,1/2-z
loop_
_atom_site_type_symbol
_atom_site_label
_atom_site_fract_x
_atom_site_fract_y
_atom_site_fract_z
Si Si1 0.221844 0.897432 0.084539
Si Si2 0.061417 0.500000 0.500000
Si Si3 0.213979 0.121575 0.604900
Si Si4 0.349386 0.815658 0.237873
Si Si5 0.012448 0.216855 0.983225
Si Si6 0.378057 0.880393 0.553112
Si Si7 0.886503 0.833542 0.856697
Si Si8 0.008994 0.998248 0.341605
O O1 0.275532 0.855272 0.163501
O O2 0.144374 0.834857 0.030091
O O3 0.114957 0.963237 0.110262
O O4 0.343816 0.936996 0.040526
O O5 0.970670 0.454672 0.564039
O O6 0.272473 0.161953 0.682499
O O7 0.320104 0.110588 0.535905
O O8 0.141236 0.040952 0.623739
O O9 0.100220 0.175675 0.568284
O O10 0.500000 0.843606 0.250000
O O11 0.359184 0.724299 0.216063
O O12 0.038468 0.301730 0.950303
O O13 0.959866 0.215235 0.073573
O O14 0.253893 0.865376 0.610409
O O15 0.975948 0.909415 0.843737
O O16 0.000000 0.972838 0.250000
#
# Coordination Sequence:
#
# PCOD9320076 Si02
#       8
#     8   4   8   8   8   8   8   8
#     4  11  23  42  67  93 127 170 217 258 324 384
#     4  12  24  38  64 100 132 158 206 276 318 370
#     4  10  23  41  69  89 129 175 215 261 327 389
#     4  12  23  42  65  96 128 172 214 265 327 390
#     4  10  22  42  67  91 125 173 220 265 307 388
#     4  11  23  42  64  96 131 168 212 267 326 377
#     4  11  23  40  66  97 130 166 223 265 320 381
#     4  11  22  42  65  92 127 173 212 266 316 392
#
# _framework density 20.509573
#
# number of rings (size 3 to 8) (size 9 to 14) (size 15 to 20)
#    0.000    1.067    2.667    4.400    1.867    3.733 
#    4.800    0.000    0.000    0.000    0.000    0.000 
#    0.000    0.000    0.000    0.000    0.000    0.000 
#
# Total GULP energy -167768.109180 kJ/mol
# GULP energy per Si atom -5592.270306 kJ/mol
# Density = 2.046289 g / cm^3
# Si number density = 20.509573 Si / 1000 Ang^3
#
#
#
# Elastic Constant Matrix: (Units=GPa)
#
#
# Indices 1 2 3 4 5 6 
#
# 1 76.7937 27.2814 8.0356 0.0000 0.0000 0.0000
# 2 27.2814 88.2154 -14.2503 0.0000 0.0000 0.0000
# 3 8.0356 -14.2503 40.0286 0.0000 0.0000 0.0000
# 4 0.0000 0.0000 0.0000 6.5336 0.0000 0.0000
# 5 0.0000 0.0000 0.0000 0.0000 21.5294 0.0000
# 6 0.0000 0.0000 0.0000 0.0000 0.0000 23.2725
#
#
#
# Elastic Compliance Matrix: (Units=1/GPa)
#
#
# Indices 1 2 3 4 5 6 
#
# 1 0.015563 -0.005642 -0.005133 0.000000 0.000000 0.000000
# 2 -0.005642 0.014073 0.006143 0.000000 0.000000 0.000000
# 3 -0.005133 0.006143 0.028199 0.000000 0.000000 0.000000
# 4 0.000000 0.000000 0.000000 0.153055 0.000000 0.000000
# 5 0.000000 0.000000 0.000000 0.000000 0.046448 0.000000
# 6 0.000000 0.000000 0.000000 0.000000 0.000000 0.042969
#
#
# Mechanical properties :
#
#
# Convention : Reuss Voigt Hill
#
# Bulk Modulus (GPa) = 20.58847 27.46344 24.02595
# Shear Modulus (GPa) = 15.34855 22.53183 18.94019
#
# Velocity S-wave (km/s) = 2.73858 3.31811 3.04218
# Velocity P-wave (km/s) = 4.47885 5.30089 4.90711
#
# Compressibility (1/GPa) = 0.04857087
#
# Stress axis : x y z
#
# Youngs Moduli (GPa) = 64.25298 71.05742 35.46178
#
# Poissons Ratio (x) = 0.40093 0.18202
# Poissons Ratio (y) = 0.36254 -0.21783
# Poissons Ratio (z) = 0.32981 -0.43649
#
# Static dielectric constant tensor:
#      x y z
#    x 1.748850 0.000000 0.000000 
#    y 0.000000 1.730430 0.000000 
#    z 0.000000 0.000000 1.726910 
# 
# From -- ./inp_files/23767.got.cif
#   From: 2010.05.17/outbox.cif.g08.bks.cpg/sg20_12_cif.got.tgz:23767.got - 2010.06.03 22:52:26.
