data_PCOD9320377
_publ_section_title
;
Structure prediction by ZEFSAII (Michael W. Deem and Ramdas Pophale) SiO2 
 PCOD9320377
Probable space group: C 2 2 21
;
_chemical_formula_sum "Si O2"
_cell_formula_units_Z 52
_cell_length_a 16.001974
_cell_length_b 9.561154
_cell_length_c 14.885618
_cell_angle_alpha 90.000000
_cell_angle_beta 90.000000
_cell_angle_gamma 90.000000
_cell_volume 2277.459924
_symmetry_space_group_name_H-M "C 2 2 21"
_symmetry_group_IT_number 20
_symmetry_cell_setting 'orthorhombic'
loop_
_space_group_symop_operation_xyz
x,y,z
-x,-y,1/2+z
x,-y,-z
-x,y,1/2-z
1/2+x,1/2+y,z
1/2-x,1/2-y,1/2+z
1/2+x,1/2-y,-z
1/2-x,1/2+y,1/2-z
loop_
_atom_site_type_symbol
_atom_site_label
_atom_site_fract_x
_atom_site_fract_y
_atom_site_fract_z
Si Si1 0.944628 0.716317 0.917609
Si Si2 0.932603 0.921372 0.328394
Si Si3 0.287626 0.634056 0.342447
Si Si4 0.000000 0.455025 0.250000
Si Si5 0.127251 0.628428 0.227995
Si Si6 0.531754 0.500000 0.500000
Si Si7 0.624149 0.897617 0.079406
Si Si8 0.317389 0.000000 0.000000
O O1 0.924054 0.876197 0.944018
O O2 0.876176 0.623712 0.966380
O O3 0.953109 0.667008 0.814500
O O4 0.039187 0.678017 0.950698
O O5 0.885442 0.774822 0.318789
O O6 0.000000 0.926546 0.250000
O O7 0.871076 0.051995 0.318221
O O8 0.975392 0.928935 0.424415
O O9 0.221209 0.628458 0.261928
O O10 0.310849 0.786397 0.381624
O O11 0.242231 0.550771 0.421099
O O12 0.941457 0.587575 0.198545
O O13 0.098793 0.493949 0.166132
O O14 0.653920 0.000000 0.000000
#
# Coordination Sequence:
#
# PCOD9320377 Si02
#       8
#     8   8   8   4   8   4   8   4
#     4  11  24  46  76 109 147 204 261 311 384 478
#     4  12  28  49  80 111 158 207 259 322 397 467
#     4  12  27  50  73 117 156 201 257 331 393 444
#     4  10  22  46  76 106 150 206 252 304 392 478
#     4  11  24  46  78 107 151 198 257 316 382 467
#     4  12  27  46  78 111 150 202 268 315 386 462
#     4  11  24  46  76 106 147 203 258 308 388 464
#     4  12  27  48  80 113 160 202 260 325 398 460
#
# _framework density 22.832452
#
# number of rings (size 3 to 8) (size 9 to 14) (size 15 to 20)
#    0.000    0.615    4.615    2.308    7.538    0.000 
#    4.154    0.000    0.000    0.000    0.000    0.000 
#    0.000    0.000    0.000    0.000    0.000    0.000 
#
# Total GULP energy -145056.845992 kJ/mol
# GULP energy per Si atom -5579.109461 kJ/mol
# Density = 2.278048 g / cm^3
# Si number density = 22.832452 Si / 1000 Ang^3
#
#
#
# Elastic Constant Matrix: (Units=GPa)
#
#
# Indices 1 2 3 4 5 6 
#
# 1 43.8431 10.4119 4.3893 0.0000 0.0000 0.0000
# 2 10.4119 134.9164 28.9734 0.0000 0.0000 0.0000
# 3 4.3893 28.9734 85.3032 0.0000 0.0000 0.0000
# 4 0.0000 0.0000 0.0000 50.9201 0.0000 0.0000
# 5 0.0000 0.0000 0.0000 0.0000 -5.5947 0.0000
# 6 0.0000 0.0000 0.0000 0.0000 0.0000 26.9928
#
#
#
# Elastic Compliance Matrix: (Units=1/GPa)
#
#
# Indices 1 2 3 4 5 6 
#
# 1 0.023266 -0.001659 -0.000634 0.000000 0.000000 0.000000
# 2 -0.001659 0.008114 -0.002670 0.000000 0.000000 0.000000
# 3 -0.000634 -0.002670 0.012662 0.000000 0.000000 0.000000
# 4 0.000000 0.000000 0.000000 0.019639 0.000000 0.000000
# 5 0.000000 0.000000 0.000000 0.000000 -0.178741 0.000000
# 6 0.000000 0.000000 0.000000 0.000000 0.000000 0.037047
#
#
# Mechanical properties :
#
#
# Convention : Reuss Voigt Hill
#
# Bulk Modulus (GPa) = 29.31229 39.06799 34.19014
# Shear Modulus (GPa) = -88.16065 29.14953 -29.50556
#
# Velocity S-wave (km/s) = -6.22060 3.57693 -3.59871
# Velocity P-wave (km/s) = 6.22323 5.84868 1.50357
#
# Compressibility (1/GPa) = 0.03411539
#
# Stress axis : x y z
#
# Youngs Moduli (GPa) = 42.98095 123.25092 78.97339
#
# Poissons Ratio (x) = 0.20453 0.05003
# Poissons Ratio (y) = 0.07133 0.21089
# Poissons Ratio (z) = 0.02723 0.32913
#
# Static dielectric constant tensor:
#      x y z
#    x 2.565530 0.000000 0.000000 
#    y 0.000000 1.855390 0.000000 
#    z 0.000000 0.000000 1.660270 
# 
# From -- ./inp_files/25256.got.cif
#   From: 2010.05.17/outbox.cif.g08.bks.cpg/sg20_13_cif.got.tgz:25256.got - 2010.06.03 22:52:26.
