data_PCOD9320705
_publ_section_title
;
Structure prediction by ZEFSAII (Michael W. Deem and Ramdas Pophale) SiO2 
 PCOD9320705
Probable space group: C 2 2 21
;
_chemical_formula_sum "Si O2"
_cell_formula_units_Z 40
_cell_length_a 11.068951
_cell_length_b 9.077406
_cell_length_c 14.487434
_cell_angle_alpha 90.000000
_cell_angle_beta 90.000000
_cell_angle_gamma 90.000000
_cell_volume 1455.659154
_symmetry_space_group_name_H-M "C 2 2 21"
_symmetry_group_IT_number 20
_symmetry_cell_setting 'orthorhombic'
loop_
_space_group_symop_operation_xyz
x,y,z
-x,-y,1/2+z
x,-y,-z
-x,y,1/2-z
1/2+x,1/2+y,z
1/2-x,1/2-y,1/2+z
1/2+x,1/2-y,-z
1/2-x,1/2+y,1/2-z
loop_
_atom_site_type_symbol
_atom_site_label
_atom_site_fract_x
_atom_site_fract_y
_atom_site_fract_z
Si Si1 0.758532 0.916130 0.176824
Si Si2 0.773708 0.624025 0.080785
Si Si3 0.012984 0.842738 0.972604
Si Si4 0.466689 0.084518 0.402893
Si Si5 0.880501 0.217123 0.193799
O O1 0.788105 0.803482 0.092831
O O2 0.728621 0.809719 0.263054
O O3 0.638841 0.009968 0.153370
O O4 0.854430 0.042410 0.198396
O O5 0.628236 0.626351 0.094285
O O6 0.896579 0.579816 0.136065
O O7 0.777042 0.500000 0.000000
O O8 0.913413 0.755964 0.913200
O O9 0.056766 0.750830 0.061140
O O10 0.965380 0.000000 0.000000
O O11 0.464692 0.000000 0.500000
O O12 0.000000 0.256991 0.250000
#
# Coordination Sequence:
#
# PCOD9320705 Si02
#       5
#     8   8   8   8   8
#     4  12  28  50  79 113 161 214 260 331 399 474
#     4  10  23  45  75 116 153 206 266 323 393 459
#     4  11  24  47  80 113 155 203 265 326 389 470
#     4  11  23  45  76 116 151 199 261 322 389 469
#     4  12  28  53  76 117 162 207 266 328 396 481
#
# _framework density 27.478961000000002
#
# number of rings (size 3 to 8) (size 9 to 14) (size 15 to 20)
#    0.000    0.800    4.000    1.200    2.800    8.800 
#    3.600    0.000    0.000    0.000    0.000    0.000 
#    0.000    0.000    0.000    0.000    0.000    0.000 
#
# Total GULP energy -111665.053045 kJ/mol
# GULP energy per Si atom -5583.252652 kJ/mol
# Density = 2.741642 g / cm^3
# Si number density = 27.478961 Si / 1000 Ang^3
#
#
#
# Elastic Constant Matrix: (Units=GPa)
#
#
# Indices 1 2 3 4 5 6 
#
# 1 97.7048 24.6453 27.2849 0.0000 0.0000 0.0000
# 2 24.6453 203.9297 54.1374 0.0000 0.0000 0.0000
# 3 27.2849 54.1374 91.2960 0.0000 0.0000 0.0000
# 4 0.0000 0.0000 0.0000 53.5645 0.0000 0.0000
# 5 0.0000 0.0000 0.0000 0.0000 41.2947 0.0000
# 6 0.0000 0.0000 0.0000 0.0000 0.0000 64.7124
#
#
#
# Elastic Compliance Matrix: (Units=1/GPa)
#
#
# Indices 1 2 3 4 5 6 
#
# 1 0.011219 -0.000553 -0.003025 0.000000 0.000000 0.000000
# 2 -0.000553 0.005847 -0.003302 0.000000 0.000000 0.000000
# 3 -0.003025 -0.003302 0.013816 0.000000 0.000000 0.000000
# 4 0.000000 0.000000 0.000000 0.018669 0.000000 0.000000
# 5 0.000000 0.000000 0.000000 0.000000 0.024216 0.000000
# 6 0.000000 0.000000 0.000000 0.000000 0.000000 0.015453
#
#
# Mechanical properties :
#
#
# Convention : Reuss Voigt Hill
#
# Bulk Modulus (GPa) = 58.40510 67.22951 62.81730
# Shear Modulus (GPa) = 46.00356 51.03852 48.52104
#
# Velocity S-wave (km/s) = 4.09606 4.31439 4.20664
# Velocity P-wave (km/s) = 6.60840 7.02407 6.81940
#
# Compressibility (1/GPa) = 0.01712179
#
# Stress axis : x y z
#
# Youngs Moduli (GPa) = 89.13329 171.02664 72.38210
#
# Poissons Ratio (x) = 0.09453 0.21897
# Poissons Ratio (y) = 0.04927 0.23901
# Poissons Ratio (z) = 0.26965 0.56473
#
# Static dielectric constant tensor:
#      x y z
#    x 2.109690 0.000000 0.000000 
#    y 0.000000 2.170470 0.000000 
#    z 0.000000 0.000000 2.295600 
# 
# From -- ./inp_files/24089.got.cif
#   From: 2010.05.17/outbox.cif.g08.bks.cpg/sg20_13_cif.got.tgz:24089.got - 2010.06.03 22:52:26.
