data_PCOD9320683
_publ_section_title
;
Structure prediction by ZEFSAII (Michael W. Deem and Ramdas Pophale) SiO2 
 PCOD9320683
Probable space group: C 2 2 21
;
_chemical_formula_sum "Si O2"
_cell_formula_units_Z 56
_cell_length_a 5.295948
_cell_length_b 14.209562
_cell_length_c 29.859476
_cell_angle_alpha 90.000000
_cell_angle_beta 90.000000
_cell_angle_gamma 90.000000
_cell_volume 2247.018177
_symmetry_space_group_name_H-M "C 2 2 21"
_symmetry_group_IT_number 20
_symmetry_cell_setting 'orthorhombic'
loop_
_space_group_symop_operation_xyz
x,y,z
-x,-y,1/2+z
x,-y,-z
-x,y,1/2-z
1/2+x,1/2+y,z
1/2-x,1/2-y,1/2+z
1/2+x,1/2-y,-z
1/2-x,1/2+y,1/2-z
loop_
_atom_site_type_symbol
_atom_site_label
_atom_site_fract_x
_atom_site_fract_y
_atom_site_fract_z
Si Si1 0.002211 0.760445 0.347589
Si Si2 0.726437 0.582684 0.178401
Si Si3 0.981007 0.260753 0.101419
Si Si4 0.876782 0.806580 0.989609
Si Si5 0.336232 0.550701 0.824562
Si Si6 0.000000 0.452930 0.250000
Si Si7 0.447466 0.976889 0.095582
Si Si8 0.341621 0.000000 0.500000
O O1 0.147613 0.684175 0.317434
O O2 0.225212 0.767673 0.385298
O O3 0.959798 0.867645 0.332312
O O4 0.724763 0.728184 0.362229
O O5 0.441605 0.551049 0.188846
O O6 0.771922 0.542621 0.127311
O O7 0.867271 0.517667 0.213639
O O8 0.953800 0.187291 0.061849
O O9 0.885327 0.365895 0.087678
O O10 0.609822 0.751667 0.990463
O O11 0.827063 0.908448 0.009860
O O12 0.187130 0.598817 0.783321
O O13 0.183929 0.533849 0.870187
O O14 0.503160 0.017359 0.046087
#
# Coordination Sequence:
#
# PCOD9320683 Si02
#       8
#     8   8   8   8   8   4   8   4
#     4  11  25  43  77 102 139 188 240 286 369 435
#     4  11  23  45  74 102 141 186 238 299 358 441
#     4  11  23  48  67 101 144 190 239 308 355 431
#     4  12  27  46  67 102 147 188 251 311 363 428
#     4  10  23  46  69 100 141 188 225 301 357 428
#     4  10  24  46  68 104 142 172 236 294 362 430
#     4  10  23  45  70  99 145 187 243 294 365 423
#     4  12  26  46  72 108 142 206 246 304 372 438
#
# _framework density 24.921918000000002
#
# number of rings (size 3 to 8) (size 9 to 14) (size 15 to 20)
#    0.000    1.143    2.857    2.143    8.000    0.571 
#    5.143    0.000    0.000    0.000    0.000    0.000 
#    0.000    0.000    0.000    0.000    0.000    0.000 
#
# Total GULP energy -156122.710525 kJ/mol
# GULP energy per Si atom -5575.811090 kJ/mol
# Density = 2.486519 g / cm^3
# Si number density = 24.921918 Si / 1000 Ang^3
#
#
#
# Elastic Constant Matrix: (Units=GPa)
#
#
# Indices 1 2 3 4 5 6 
#
# 1 69.1623 20.8789 14.1026 0.0000 0.0000 0.0000
# 2 20.8789 89.9456 0.8686 0.0000 0.0000 0.0000
# 3 14.1026 0.8686 100.2058 0.0000 0.0000 0.0000
# 4 0.0000 0.0000 0.0000 -25.3420 0.0000 0.0000
# 5 0.0000 0.0000 0.0000 0.0000 24.1512 0.0000
# 6 0.0000 0.0000 0.0000 0.0000 0.0000 39.2891
#
#
#
# Elastic Compliance Matrix: (Units=1/GPa)
#
#
# Indices 1 2 3 4 5 6 
#
# 1 0.016029 -0.003699 -0.002224 0.000000 0.000000 0.000000
# 2 -0.003699 0.011973 0.000417 0.000000 0.000000 0.000000
# 3 -0.002224 0.000417 0.010289 0.000000 0.000000 0.000000
# 4 0.000000 0.000000 0.000000 -0.039460 0.000000 0.000000
# 5 0.000000 0.000000 0.000000 0.000000 0.041406 0.000000
# 6 0.000000 0.000000 0.000000 0.000000 0.000000 0.025452
#
#
# Mechanical properties :
#
#
# Convention : Reuss Voigt Hill
#
# Bulk Modulus (GPa) = 36.65984 36.77931 36.71957
# Shear Modulus (GPa) = 58.27959 22.51724 40.39841
#
# Velocity S-wave (km/s) = 4.84104 3.00911 4.03053
# Velocity P-wave (km/s) = 6.78154 5.18294 6.03540
#
# Compressibility (1/GPa) = 0.02727781
#
# Stress axis : x y z
#
# Youngs Moduli (GPa) = 62.38718 83.52458 97.19287
#
# Poissons Ratio (x) = 0.30898 0.21614
# Poissons Ratio (y) = 0.23079 -0.04051
# Poissons Ratio (z) = 0.13874 -0.03482
#
# Static dielectric constant tensor:
#      x y z
#    x 2.158950 0.000000 0.000000 
#    y 0.000000 1.977340 0.000000 
#    z 0.000000 0.000000 1.985420 
# 
# From -- ./inp_files/30763.got.cif
#   From: 2010.05.17/outbox.cif.g08.bks.cpg/sg20_16_cif.got.tgz:30763.got - 2010.06.03 22:52:26.
