data_PCOD9320851
_publ_section_title
;
Structure prediction by ZEFSAII (Michael W. Deem and Ramdas Pophale) SiO2 
 PCOD9320851
Probable space group: C 2 2 21
;
_chemical_formula_sum "Si O2"
_cell_formula_units_Z 64
_cell_length_a 16.856509
_cell_length_b 8.885637
_cell_length_c 20.551895
_cell_angle_alpha 90.000000
_cell_angle_beta 90.000000
_cell_angle_gamma 90.000000
_cell_volume 3078.279687
_symmetry_space_group_name_H-M "C 2 2 21"
_symmetry_group_IT_number 20
_symmetry_cell_setting 'orthorhombic'
loop_
_space_group_symop_operation_xyz
x,y,z
-x,-y,1/2+z
x,-y,-z
-x,y,1/2-z
1/2+x,1/2+y,z
1/2-x,1/2-y,1/2+z
1/2+x,1/2-y,-z
1/2-x,1/2+y,1/2-z
loop_
_atom_site_type_symbol
_atom_site_label
_atom_site_fract_x
_atom_site_fract_y
_atom_site_fract_z
Si Si1 0.055848 0.976039 0.692042
Si Si2 0.058737 0.238228 0.956894
Si Si3 0.673976 0.917654 0.869688
Si Si4 0.926598 0.897419 0.596306
Si Si5 0.798453 0.233797 0.217148
Si Si6 0.092643 0.720176 0.378492
Si Si7 0.735659 0.746956 0.136840
Si Si8 0.084873 0.497418 0.260601
O O1 0.131928 0.890167 0.719388
O O2 0.000000 0.035507 0.750000
O O3 0.996993 0.874975 0.648113
O O4 0.087087 0.108625 0.646531
O O5 0.126590 0.348087 0.929803
O O6 0.973682 0.299051 0.933181
O O7 0.071362 0.073473 0.923674
O O8 0.060143 0.205379 0.033124
O O9 0.741322 0.805874 0.842177
O O10 0.614096 0.939365 0.808636
O O11 0.712111 0.081794 0.881089
O O12 0.840778 0.854309 0.623274
O O13 0.750848 0.238363 0.285084
O O14 0.845847 0.389041 0.214208
O O15 0.183939 0.695026 0.397608
O O16 0.072105 0.620785 0.315748
O O17 0.000000 0.417997 0.250000
#
# Coordination Sequence:
#
# PCOD9320851 Si02
#       8
#     8   8   8   8   8   8   8   8
#     4  11  21  38  65  92 124 166 202 252 316 381
#     4  10  24  45  63  86 123 172 213 253 311 385
#     4  11  23  39  60  91 128 162 208 259 315 375
#     4  10  24  43  66  86 124 168 214 254 318 380
#     4  11  23  36  59  97 133 154 203 260 323 370
#     4  11  22  38  63  94 124 161 210 257 311 375
#     4  11  23  39  63  95 126 162 206 266 319 370
#     4  11  22  36  59  92 128 164 202 259 320 372
#
# _framework density 20.790832999999999
#
# number of rings (size 3 to 8) (size 9 to 14) (size 15 to 20)
#    0.000    1.250    5.000    0.750    5.250    0.500 
#    2.250    1.250    0.000    0.000    0.000    0.000 
#    0.000    0.000    0.000    0.000    0.000    0.000 
#
# Total GULP energy -178866.760982 kJ/mol
# GULP energy per Si atom -5589.586281 kJ/mol
# Density = 2.074351 g / cm^3
# Si number density = 20.790833 Si / 1000 Ang^3
#
#
#
# Elastic Constant Matrix: (Units=GPa)
#
#
# Indices 1 2 3 4 5 6 
#
# 1 123.7899 8.3133 13.2670 0.0000 0.0000 0.0000
# 2 8.3133 26.9903 -6.3296 0.0000 0.0000 0.0000
# 3 13.2670 -6.3296 34.2306 0.0000 0.0000 0.0000
# 4 0.0000 0.0000 0.0000 17.1943 0.0000 0.0000
# 5 0.0000 0.0000 0.0000 0.0000 12.2373 0.0000
# 6 0.0000 0.0000 0.0000 0.0000 0.0000 26.0830
#
#
#
# Elastic Compliance Matrix: (Units=1/GPa)
#
#
# Indices 1 2 3 4 5 6 
#
# 1 0.008760 -0.003653 -0.004071 0.000000 0.000000 0.000000
# 2 -0.003653 0.040253 0.008859 0.000000 0.000000 0.000000
# 3 -0.004071 0.008859 0.032429 0.000000 0.000000 0.000000
# 4 0.000000 0.000000 0.000000 0.058159 0.000000 0.000000
# 5 0.000000 0.000000 0.000000 0.000000 0.081717 0.000000
# 6 0.000000 0.000000 0.000000 0.000000 0.000000 0.038339
#
#
# Mechanical properties :
#
#
# Convention : Reuss Voigt Hill
#
# Bulk Modulus (GPa) = 11.94549 23.94579 17.94564
# Shear Modulus (GPa) = 17.52601 22.42027 19.97314
#
# Velocity S-wave (km/s) = 2.90654 3.28742 3.10283
# Velocity P-wave (km/s) = 4.12577 5.09431 4.63541
#
# Compressibility (1/GPa) = 0.08371359
#
# Stress axis : x y z
#
# Youngs Moduli (GPa) = 114.15840 24.84288 30.83620
#
# Poissons Ratio (x) = 0.09074 0.12552
# Poissons Ratio (y) = 0.41699 -0.27318
# Poissons Ratio (z) = 0.46468 -0.22008
#
# Static dielectric constant tensor:
#      x y z
#    x 1.747160 0.000000 0.000000 
#    y 0.000000 1.756470 0.000000 
#    z 0.000000 0.000000 1.712440 
# 
# From -- ./inp_files/29478.got.cif
#   From: 2010.05.17/outbox.cif.g08.bks.cpg/sg20_15_cif.got.tgz:29478.got - 2010.06.03 22:52:26.
