data_PCOD9320091
_publ_section_title
;
Structure prediction by ZEFSAII (Michael W. Deem and Ramdas Pophale) SiO2 
 PCOD9320091
Probable space group: C 2 2 21
;
_chemical_formula_sum "Si O2"
_cell_formula_units_Z 40
_cell_length_a 11.713774
_cell_length_b 9.866167
_cell_length_c 14.029703
_cell_angle_alpha 90.000000
_cell_angle_beta 90.000000
_cell_angle_gamma 90.000000
_cell_volume 1621.413484
_symmetry_space_group_name_H-M "C 2 2 21"
_symmetry_group_IT_number 20
_symmetry_cell_setting 'orthorhombic'
loop_
_space_group_symop_operation_xyz
x,y,z
-x,-y,1/2+z
x,-y,-z
-x,y,1/2-z
1/2+x,1/2+y,z
1/2-x,1/2-y,1/2+z
1/2+x,1/2-y,-z
1/2-x,1/2+y,1/2-z
loop_
_atom_site_type_symbol
_atom_site_label
_atom_site_fract_x
_atom_site_fract_y
_atom_site_fract_z
Si Si1 0.444096 0.778066 0.856219
Si Si2 0.068495 0.529859 0.846036
Si Si3 0.770072 0.886024 0.917280
Si Si4 0.992191 0.983725 0.636235
Si Si5 0.191290 0.211769 0.074147
O O1 0.500000 0.779877 0.750000
O O2 0.491374 0.917788 0.900397
O O3 0.484669 0.636111 0.900824
O O4 0.307854 0.776524 0.864769
O O5 0.000000 0.562024 0.750000
O O6 0.187464 0.444704 0.835529
O O7 0.104822 0.668905 0.894208
O O8 0.900879 0.888793 0.889784
O O9 0.728833 0.747658 0.966049
O O10 0.757799 0.000000 0.000000
O O11 0.000000 0.991387 0.750000
O O12 0.874801 0.924432 0.598241
#
# Coordination Sequence:
#
# PCOD9320091 Si02
#       5
#     8   8   8   8   8
#     4  10  23  40  68  99 135 169 223 273 330 388
#     4  10  22  42  68  92 134 174 217 269 332 389
#     4  10  22  44  67  93 140 173 209 285 339 371
#     4  11  24  43  70  98 135 178 223 270 335 400
#     4  11  24  44  68  95 136 178 218 277 335 387
#
# _framework density 24.669834000000002
#
# number of rings (size 3 to 8) (size 9 to 14) (size 15 to 20)
#    0.000    1.600    4.000    0.600    8.400    0.000 
#    3.600    0.000    0.000    0.000    0.000    0.000 
#    0.000    0.000    0.000    0.000    0.000    0.000 
#
# Total GULP energy -111801.481594 kJ/mol
# GULP energy per Si atom -5590.074080 kJ/mol
# Density = 2.461368 g / cm^3
# Si number density = 24.669834 Si / 1000 Ang^3
#
#
#
# Elastic Constant Matrix: (Units=GPa)
#
#
# Indices 1 2 3 4 5 6 
#
# 1 150.2320 67.2158 36.2896 0.0000 0.0000 0.0000
# 2 67.2158 140.8668 17.7538 0.0000 0.0000 0.0000
# 3 36.2896 17.7538 80.2731 0.0000 0.0000 0.0000
# 4 0.0000 0.0000 0.0000 22.3911 0.0000 0.0000
# 5 0.0000 0.0000 0.0000 0.0000 47.5197 0.0000
# 6 0.0000 0.0000 0.0000 0.0000 0.0000 43.2429
#
#
#
# Elastic Compliance Matrix: (Units=1/GPa)
#
#
# Indices 1 2 3 4 5 6 
#
# 1 0.009238 -0.003993 -0.003293 0.000000 0.000000 0.000000
# 2 -0.003993 0.009028 -0.000192 0.000000 0.000000 0.000000
# 3 -0.003293 -0.000192 0.013989 0.000000 0.000000 0.000000
# 4 0.000000 0.000000 0.000000 0.044661 0.000000 0.000000
# 5 0.000000 0.000000 0.000000 0.000000 0.021044 0.000000
# 6 0.000000 0.000000 0.000000 0.000000 0.000000 0.023125
#
#
# Mechanical properties :
#
#
# Convention : Reuss Voigt Hill
#
# Bulk Modulus (GPa) = 57.80537 68.21001 63.00769
# Shear Modulus (GPa) = 35.25898 39.30493 37.28196
#
# Velocity S-wave (km/s) = 3.78462 3.99587 3.89168
# Velocity P-wave (km/s) = 6.52536 6.99989 6.76679
#
# Compressibility (1/GPa) = 0.01729943
#
# Stress axis : x y z
#
# Youngs Moduli (GPa) = 108.24276 110.76136 71.48637
#
# Poissons Ratio (x) = 0.44229 0.23543
# Poissons Ratio (y) = 0.43223 0.01370
# Poissons Ratio (z) = 0.35648 0.02122
#
# Static dielectric constant tensor:
#      x y z
#    x 1.943360 0.000000 0.000000 
#    y 0.000000 1.995720 0.000000 
#    z 0.000000 0.000000 2.034850 
# 
# From -- ./inp_files/23185.got.cif
#   From: 2010.05.17/outbox.cif.g08.bks.cpg/sg20_12_cif.got.tgz:23185.got - 2010.06.03 22:52:26.
