data_PCOD9320526
_publ_section_title
;
Structure prediction by ZEFSAII (Michael W. Deem and Ramdas Pophale) SiO2 
 PCOD9320526
Probable space group: C 2 2 21
;
_chemical_formula_sum "Si O2"
_cell_formula_units_Z 48
_cell_length_a 29.775064
_cell_length_b 5.111342
_cell_length_c 13.271382
_cell_angle_alpha 90.000000
_cell_angle_beta 90.000000
_cell_angle_gamma 90.000000
_cell_volume 2019.778729
_symmetry_space_group_name_H-M "C 2 2 21"
_symmetry_group_IT_number 20
_symmetry_cell_setting 'orthorhombic'
loop_
_space_group_symop_operation_xyz
x,y,z
-x,-y,1/2+z
x,-y,-z
-x,y,1/2-z
1/2+x,1/2+y,z
1/2-x,1/2-y,1/2+z
1/2+x,1/2-y,-z
1/2-x,1/2+y,1/2-z
loop_
_atom_site_type_symbol
_atom_site_label
_atom_site_fract_x
_atom_site_fract_y
_atom_site_fract_z
Si Si1 0.018831 0.234189 0.935648
Si Si2 0.297039 0.881353 0.178569
Si Si3 0.114494 0.861185 0.605443
Si Si4 0.199663 0.879183 0.184787
Si Si5 0.958105 0.435931 0.197864
Si Si6 0.396896 0.703823 0.689477
O O1 0.063890 0.116578 0.884902
O O2 0.983659 0.318816 0.850567
O O3 0.028051 0.500000 0.000000
O O4 0.000030 0.000000 0.000000
O O5 0.340912 0.815214 0.115738
O O6 0.247630 0.840205 0.130494
O O7 0.300090 0.673355 0.271383
O O8 0.299019 0.173677 0.221865
O O9 0.069195 0.696596 0.609987
O O10 0.118117 0.000000 0.500000
O O11 0.109871 0.044951 0.705630
O O12 0.151700 0.809105 0.136889
O O13 0.918729 0.519543 0.275360
O O14 0.000000 0.288114 0.250000
#
# Coordination Sequence:
#
# PCOD9320526 Si02
#       6
#     8   8   8   8   8   8
#     4  11  28  45  68  96 131 176 232 284 339 396
#     4   9  18  35  60  93 124 165 214 258 327 402
#     4  11  24  40  65  97 141 179 224 279 341 403
#     4   9  17  35  65  90 123 165 209 267 327 388
#     4  10  24  42  64  93 133 180 226 277 337 403
#     4  10  23  42  66  98 130 177 223 281 336 409
#
# _framework density 23.764980999999999
#
# number of rings (size 3 to 8) (size 9 to 14) (size 15 to 20)
#    0.000    2.000    1.667    0.000    9.333    0.667 
#    0.000    0.833    0.000    6.000    0.000    0.000 
#    0.000    0.000    0.000    0.000    0.000    0.000 
#
# Total GULP energy -133981.102848 kJ/mol
# GULP energy per Si atom -5582.545952 kJ/mol
# Density = 2.371089 g / cm^3
# Si number density = 23.764981 Si / 1000 Ang^3
#
#
#
# Elastic Constant Matrix: (Units=GPa)
#
#
# Indices 1 2 3 4 5 6 
#
# 1 212.2481 20.0310 20.4464 0.0000 0.0000 0.0000
# 2 20.0310 63.5458 19.9512 0.0000 0.0000 0.0000
# 3 20.4464 19.9512 62.2567 0.0000 0.0000 0.0000
# 4 0.0000 0.0000 0.0000 26.8167 0.0000 0.0000
# 5 0.0000 0.0000 0.0000 0.0000 14.7849 0.0000
# 6 0.0000 0.0000 0.0000 0.0000 0.0000 22.1103
#
#
#
# Elastic Compliance Matrix: (Units=1/GPa)
#
#
# Indices 1 2 3 4 5 6 
#
# 1 0.004942 -0.001165 -0.001250 0.000000 0.000000 0.000000
# 2 -0.001165 0.017772 -0.005313 0.000000 0.000000 0.000000
# 3 -0.001250 -0.005313 0.018175 0.000000 0.000000 0.000000
# 4 0.000000 0.000000 0.000000 0.037290 0.000000 0.000000
# 5 0.000000 0.000000 0.000000 0.000000 0.067636 0.000000
# 6 0.000000 0.000000 0.000000 0.000000 0.000000 0.045228
#
#
# Mechanical properties :
#
#
# Convention : Reuss Voigt Hill
#
# Bulk Modulus (GPa) = 39.31724 50.98976 45.15350
# Shear Modulus (GPa) = 23.25831 31.25051 27.25441
#
# Velocity S-wave (km/s) = 3.13178 3.63020 3.39016
# Velocity P-wave (km/s) = 5.44587 6.25089 5.86221
#
# Compressibility (1/GPa) = 0.02543414
#
# Stress axis : x y z
#
# Youngs Moduli (GPa) = 202.35434 56.26818 55.01939
#
# Poissons Ratio (x) = 0.06558 0.06875
# Poissons Ratio (y) = 0.23584 0.29230
# Poissons Ratio (z) = 0.25284 0.29893
#
# Static dielectric constant tensor:
#      x y z
#    x 1.968740 0.000000 0.000000 
#    y 0.000000 1.943350 0.000000 
#    z 0.000000 0.000000 1.942640 
# 
# From -- ./inp_files/22152.got.cif
#   From: 2010.05.17/outbox.cif.g08.bks.cpg/sg20_12_cif.got.tgz:22152.got - 2010.06.03 22:52:26.
