data_PCOD9320132
_publ_section_title
;
Structure prediction by ZEFSAII (Michael W. Deem and Ramdas Pophale) SiO2 
 PCOD9320132
Probable space group: C 2 2 21
;
_chemical_formula_sum "Si O2"
_cell_formula_units_Z 48
_cell_length_a 13.878094
_cell_length_b 16.612174
_cell_length_c 9.514491
_cell_angle_alpha 90.000000
_cell_angle_beta 90.000000
_cell_angle_gamma 90.000000
_cell_volume 2193.521299
_symmetry_space_group_name_H-M "C 2 2 21"
_symmetry_group_IT_number 20
_symmetry_cell_setting 'orthorhombic'
loop_
_space_group_symop_operation_xyz
x,y,z
-x,-y,1/2+z
x,-y,-z
-x,y,1/2-z
1/2+x,1/2+y,z
1/2-x,1/2-y,1/2+z
1/2+x,1/2-y,-z
1/2-x,1/2+y,1/2-z
loop_
_atom_site_type_symbol
_atom_site_label
_atom_site_fract_x
_atom_site_fract_y
_atom_site_fract_z
Si Si1 0.697669 0.562466 0.124271
Si Si2 0.958006 0.765262 0.974839
Si Si3 0.500000 0.125548 0.750000
Si Si4 0.719882 0.315990 0.340433
Si Si5 0.500000 0.401126 0.750000
Si Si6 0.668130 0.726082 0.957326
Si Si7 0.687933 0.975443 0.161261
O O1 0.590375 0.551004 0.188094
O O2 0.778717 0.549939 0.242229
O O3 0.716176 0.500000 0.000000
O O4 0.695945 0.649734 0.052742
O O5 0.967324 0.685359 0.878000
O O6 0.958647 0.841024 0.868577
O O7 0.054546 0.774175 0.067168
O O8 0.867374 0.776329 0.074997
O O9 0.409061 0.068370 0.714146
O O10 0.725209 0.276636 0.187509
O O11 0.809644 0.300095 0.441945
O O12 0.723496 0.411624 0.320937
O O13 0.678501 0.000000 0.000000
#
# Coordination Sequence:
#
# PCOD9320132 Si02
#       7
#     8   8   4   8   4   8   8
#     4  11  24  44  66 101 140 182 226 290 357 413
#     4  10  22  42  73  98 135 176 235 291 346 406
#     4  11  24  50  66 104 145 184 230 292 339 422
#     4  12  24  44  72 100 135 181 235 294 339 426
#     4   9  22  40  68 100 135 172 220 294 353 410
#     4  11  25  43  68 103 135 180 237 288 355 411
#     4  12  27  46  71 102 143 187 232 281 356 419
#
# _framework density 21.882624
#
# number of rings (size 3 to 8) (size 9 to 14) (size 15 to 20)
#    0.000    1.000    3.333    2.500    7.000    4.000 
#    0.000    0.000    0.000    0.000    0.000    0.000 
#    0.000    0.000    0.000    0.000    0.000    0.000 
#
# Total GULP energy -134169.113831 kJ/mol
# GULP energy per Si atom -5590.379743 kJ/mol
# Density = 2.183282 g / cm^3
# Si number density = 21.882624 Si / 1000 Ang^3
#
#
#
# Elastic Constant Matrix: (Units=GPa)
#
#
# Indices 1 2 3 4 5 6 
#
# 1 110.8306 20.3475 49.2080 0.0000 0.0000 0.0000
# 2 20.3475 42.7855 20.5102 0.0000 0.0000 0.0000
# 3 49.2080 20.5102 126.9426 0.0000 0.0000 0.0000
# 4 0.0000 0.0000 0.0000 24.6901 0.0000 0.0000
# 5 0.0000 0.0000 0.0000 0.0000 26.7715 0.0000
# 6 0.0000 0.0000 0.0000 0.0000 0.0000 28.8710
#
#
#
# Elastic Compliance Matrix: (Units=1/GPa)
#
#
# Indices 1 2 3 4 5 6 
#
# 1 0.011381 -0.003575 -0.003834 0.000000 0.000000 0.000000
# 2 -0.003575 0.026457 -0.002889 0.000000 0.000000 0.000000
# 3 -0.003834 -0.002889 0.009831 0.000000 0.000000 0.000000
# 4 0.000000 0.000000 0.000000 0.040502 0.000000 0.000000
# 5 0.000000 0.000000 0.000000 0.000000 0.037353 0.000000
# 6 0.000000 0.000000 0.000000 0.000000 0.000000 0.034637
#
#
# Mechanical properties :
#
#
# Convention : Reuss Voigt Hill
#
# Bulk Modulus (GPa) = 36.93653 51.18778 44.06215
# Shear Modulus (GPa) = 26.34602 28.76607 27.55604
#
# Velocity S-wave (km/s) = 3.47359 3.62962 3.55246
# Velocity P-wave (km/s) = 5.74489 6.40377 6.08326
#
# Compressibility (1/GPa) = 0.02707347
#
# Stress axis : x y z
#
# Youngs Moduli (GPa) = 87.86214 37.79671 101.72203
#
# Poissons Ratio (x) = 0.13511 0.39004
# Poissons Ratio (y) = 0.31407 0.29388
# Poissons Ratio (z) = 0.33690 0.10920
#
# Static dielectric constant tensor:
#      x y z
#    x 1.815410 0.000000 0.000000 
#    y 0.000000 1.833190 0.000000 
#    z 0.000000 0.000000 1.776690 
# 
# From -- ./inp_files/8462.got.cif
#   From: 2010.05.17/outbox.cif.g08.bks.cpg/sg20_5_cif.got.tgz:8462.got - 2010.06.03 22:52:26.
