data_PCOD9320161
_publ_section_title
;
Structure prediction by ZEFSAII (Michael W. Deem and Ramdas Pophale) SiO2 
 PCOD9320161
Probable space group: C 2 2 21
;
_chemical_formula_sum "Si O2"
_cell_formula_units_Z 64
_cell_length_a 21.844748
_cell_length_b 10.411120
_cell_length_c 12.821843
_cell_angle_alpha 90.000000
_cell_angle_beta 90.000000
_cell_angle_gamma 90.000000
_cell_volume 2916.049864
_symmetry_space_group_name_H-M "C 2 2 21"
_symmetry_group_IT_number 20
_symmetry_cell_setting 'orthorhombic'
loop_
_space_group_symop_operation_xyz
x,y,z
-x,-y,1/2+z
x,-y,-z
-x,y,1/2-z
1/2+x,1/2+y,z
1/2-x,1/2-y,1/2+z
1/2+x,1/2-y,-z
1/2-x,1/2+y,1/2-z
loop_
_atom_site_type_symbol
_atom_site_label
_atom_site_fract_x
_atom_site_fract_y
_atom_site_fract_z
Si Si1 0.323726 0.373071 0.672297
Si Si2 0.130024 0.237134 0.721400
Si Si3 0.727278 0.092167 0.150953
Si Si4 0.097596 0.908154 0.087392
Si Si5 0.927259 0.366628 0.511672
Si Si6 0.449547 0.956971 0.883395
Si Si7 0.060736 0.303325 0.221094
Si Si8 0.756442 0.834135 0.082793
O O1 0.283985 0.401575 0.772292
O O2 0.346262 0.499414 0.614140
O O3 0.380130 0.284992 0.710691
O O4 0.277176 0.298998 0.598430
O O5 0.173520 0.321175 0.800389
O O6 0.087522 0.142725 0.792213
O O7 0.089399 0.338550 0.659462
O O8 0.177565 0.171025 0.640020
O O9 0.714649 0.940526 0.141469
O O10 0.752473 0.135151 0.038761
O O11 0.103207 0.769751 0.032810
O O12 0.062797 0.000000 0.000000
O O13 0.889697 0.500000 0.500000
O O14 0.952944 0.350179 0.395911
O O15 0.981946 0.397082 0.593407
O O16 0.437993 0.074444 0.800626
O O17 0.429734 0.000000 0.000000
O O18 0.000000 0.223730 0.250000
#
# Coordination Sequence:
#
# PCOD9320161 Si02
#       8
#     8   8   8   8   8   8   8   8
#     4  11  24  43  68 101 145 186 235 297 361 444
#     4  11  24  42  69 104 136 185 238 299 362 429
#     4  10  22  43  66  99 138 185 239 294 357 424
#     4  12  24  45  70 107 145 188 237 291 365 436
#     4  11  24  44  73 102 139 186 241 301 354 426
#     4  11  25  45  73 106 139 184 249 311 356 426
#     4  12  23  44  69 101 140 186 244 297 359 430
#     4  10  22  43  69  98 136 187 237 293 354 430
#
# _framework density 21.947498
#
# number of rings (size 3 to 8) (size 9 to 14) (size 15 to 20)
#    0.000    1.000    5.000    2.250    1.750    0.000 
#    2.250    1.250    2.750    0.000    0.000    0.000 
#    0.000    0.000    0.000    0.000    0.000    0.000 
#
# Total GULP energy -178163.655957 kJ/mol
# GULP energy per Si atom -5567.614249 kJ/mol
# Density = 2.189754 g / cm^3
# Si number density = 21.947498 Si / 1000 Ang^3
#
#
#
# Elastic Constant Matrix: (Units=GPa)
#
#
# Indices 1 2 3 4 5 6 
#
# 1 68.0227 34.4771 33.6472 0.0000 0.0000 0.0000
# 2 34.4771 131.5732 44.7805 0.0000 0.0000 0.0000
# 3 33.6472 44.7805 120.4498 0.0000 0.0000 0.0000
# 4 0.0000 0.0000 0.0000 42.8652 0.0000 0.0000
# 5 0.0000 0.0000 0.0000 0.0000 23.3996 0.0000
# 6 0.0000 0.0000 0.0000 0.0000 0.0000 34.3016
#
#
#
# Elastic Compliance Matrix: (Units=1/GPa)
#
#
# Indices 1 2 3 4 5 6 
#
# 1 0.018374 -0.003512 -0.003827 0.000000 0.000000 0.000000
# 2 -0.003512 0.009373 -0.002503 0.000000 0.000000 0.000000
# 3 -0.003827 -0.002503 0.010302 0.000000 0.000000 0.000000
# 4 0.000000 0.000000 0.000000 0.023329 0.000000 0.000000
# 5 0.000000 0.000000 0.000000 0.000000 0.042736 0.000000
# 6 0.000000 0.000000 0.000000 0.000000 0.000000 0.029153
#
#
# Mechanical properties :
#
#
# Convention : Reuss Voigt Hill
#
# Bulk Modulus (GPa) = 54.45565 60.65059 57.55312
# Shear Modulus (GPa) = 31.43206 33.92265 32.67735
#
# Velocity S-wave (km/s) = 3.78848 3.93571 3.86280
# Velocity P-wave (km/s) = 6.63343 6.95324 6.79522
#
# Compressibility (1/GPa) = 0.01836357
#
# Stress axis : x y z
#
# Youngs Moduli (GPa) = 54.42430 106.69285 97.06862
#
# Poissons Ratio (x) = 0.37473 0.37148
# Poissons Ratio (y) = 0.19115 0.24301
# Poissons Ratio (z) = 0.20828 0.26710
#
# Static dielectric constant tensor:
#      x y z
#    x 1.827220 0.000000 0.000000 
#    y 0.000000 1.878360 0.000000 
#    z 0.000000 0.000000 1.872970 
# 
# From -- ./inp_files/16806.got.cif
#   From: 2010.05.17/outbox.cif.g08.bks.cpg/sg20_9_cif.got.tgz:16806.got - 2010.06.03 22:52:26.
