data_PCOD9320651
_publ_section_title
;
Structure prediction by ZEFSAII (Michael W. Deem and Ramdas Pophale) SiO2 
 PCOD9320651
Probable space group: C 2 2 21
;
_chemical_formula_sum "Si O2"
_cell_formula_units_Z 40
_cell_length_a 8.791882
_cell_length_b 22.603615
_cell_length_c 8.547469
_cell_angle_alpha 90.000000
_cell_angle_beta 90.000000
_cell_angle_gamma 90.000000
_cell_volume 1698.624119
_symmetry_space_group_name_H-M "C 2 2 21"
_symmetry_group_IT_number 20
_symmetry_cell_setting 'orthorhombic'
loop_
_space_group_symop_operation_xyz
x,y,z
-x,-y,1/2+z
x,-y,-z
-x,y,1/2-z
1/2+x,1/2+y,z
1/2-x,1/2-y,1/2+z
1/2+x,1/2-y,-z
1/2-x,1/2+y,1/2-z
loop_
_atom_site_type_symbol
_atom_site_label
_atom_site_fract_x
_atom_site_fract_y
_atom_site_fract_z
Si Si1 0.567522 0.294113 0.581838
Si Si2 0.861940 0.448188 0.127049
Si Si3 0.827161 0.643719 0.304511
Si Si4 0.346421 0.523641 0.173551
Si Si5 0.254337 0.818943 0.020539
O O1 0.500000 0.314127 0.750000
O O2 0.728046 0.328739 0.551648
O O3 0.625500 0.226859 0.591925
O O4 0.427251 0.305733 0.460958
O O5 0.716299 0.471237 0.220855
O O6 0.810123 0.385429 0.056995
O O7 0.000000 0.441733 0.250000
O O8 0.899203 0.500000 0.000000
O O9 0.773323 0.576293 0.314141
O O10 0.000000 0.639524 0.250000
O O11 0.776262 0.686993 0.164989
O O12 0.500000 0.546923 0.250000
O O13 0.369311 0.500000 0.000000
#
# Coordination Sequence:
#
# PCOD9320651 Si02
#       5
#     8   8   8   8   8
#     4  10  23  44  71 110 145 203 250 319 385 453
#     4  12  26  46  75 114 155 203 261 325 389 461
#     4  11  24  44  74 101 149 198 252 315 384 453
#     4  12  27  46  73 108 153 202 254 317 392 469
#     4  11  23  45  74 102 156 192 261 317 382 468
#
# _framework density 23.548469999999998
#
# number of rings (size 3 to 8) (size 9 to 14) (size 15 to 20)
#    0.000    0.800    2.000    5.400    5.600    0.000 
#    7.200    1.000    0.000    0.000    0.000    0.000 
#    0.000    0.000    0.000    0.000    0.000    0.000 
#
# Total GULP energy -111431.622854 kJ/mol
# GULP energy per Si atom -5571.581143 kJ/mol
# Density = 2.349487 g / cm^3
# Si number density = 23.548470 Si / 1000 Ang^3
#
#
#
# Elastic Constant Matrix: (Units=GPa)
#
#
# Indices 1 2 3 4 5 6 
#
# 1 201.0512 55.3571 25.4945 0.0000 0.0000 0.0000
# 2 55.3571 117.1881 1.6937 0.0000 0.0000 0.0000
# 3 25.4945 1.6937 50.3388 0.0000 0.0000 0.0000
# 4 0.0000 0.0000 0.0000 53.4659 0.0000 0.0000
# 5 0.0000 0.0000 0.0000 0.0000 23.5533 0.0000
# 6 0.0000 0.0000 0.0000 0.0000 0.0000 -102.2397
#
#
#
# Elastic Compliance Matrix: (Units=1/GPa)
#
#
# Indices 1 2 3 4 5 6 
#
# 1 0.006143 -0.002858 -0.003015 0.000000 0.000000 0.000000
# 2 -0.002858 0.009867 0.001116 0.000000 0.000000 0.000000
# 3 -0.003015 0.001116 0.021355 0.000000 0.000000 0.000000
# 4 0.000000 0.000000 0.000000 0.018704 0.000000 0.000000
# 5 0.000000 0.000000 0.000000 0.000000 0.042457 0.000000
# 6 0.000000 0.000000 0.000000 0.000000 0.000000 -0.009781
#
#
# Mechanical properties :
#
#
# Convention : Reuss Voigt Hill
#
# Bulk Modulus (GPa) = 35.90681 59.29651 47.60166
# Shear Modulus (GPa) = 46.49267 14.02476 30.25871
#
# Velocity S-wave (km/s) = 4.44817 2.44308 3.58852
# Velocity P-wave (km/s) = 6.45467 5.76138 6.11785
#
# Compressibility (1/GPa) = 0.02784987
#
# Stress axis : x y z
#
# Youngs Moduli (GPa) = 162.78154 101.34402 46.82767
#
# Poissons Ratio (x) = 0.28968 0.14119
# Poissons Ratio (y) = 0.46528 -0.05224
# Poissons Ratio (z) = 0.49080 -0.11306
#
# Static dielectric constant tensor:
#      x y z
#    x 2.144120 0.000000 0.000000 
#    y 0.000000 1.895510 0.000000 
#    z 0.000000 0.000000 1.964820 
# 
# From -- ./inp_files/6117.got.cif
#   From: 2010.05.17/outbox.cif.g08.bks.cpg/sg20_4_cif.got.tgz:6117.got - 2010.06.03 22:52:26.
