data_PCOD9320314
_publ_section_title
;
Structure prediction by ZEFSAII (Michael W. Deem and Ramdas Pophale) SiO2 
 PCOD9320314
Probable space group: C 2 2 21
;
_chemical_formula_sum "Si O2"
_cell_formula_units_Z 60
_cell_length_a 24.800981
_cell_length_b 11.574954
_cell_length_c 9.400514
_cell_angle_alpha 90.000000
_cell_angle_beta 90.000000
_cell_angle_gamma 90.000000
_cell_volume 2698.607568
_symmetry_space_group_name_H-M "C 2 2 21"
_symmetry_group_IT_number 20
_symmetry_cell_setting 'orthorhombic'
loop_
_space_group_symop_operation_xyz
x,y,z
-x,-y,1/2+z
x,-y,-z
-x,y,1/2-z
1/2+x,1/2+y,z
1/2-x,1/2-y,1/2+z
1/2+x,1/2-y,-z
1/2-x,1/2+y,1/2-z
loop_
_atom_site_type_symbol
_atom_site_label
_atom_site_fract_x
_atom_site_fract_y
_atom_site_fract_z
Si Si1 0.598419 0.192653 0.075742
Si Si2 0.830389 0.500000 0.000000
Si Si3 0.947058 0.062568 0.852049
Si Si4 0.742708 0.159657 0.698817
Si Si5 0.782927 0.368573 0.511126
Si Si6 0.983833 0.602894 0.589904
Si Si7 0.919638 0.674003 0.113527
Si Si8 0.857164 0.058422 0.651346
O O1 0.654925 0.127813 0.059896
O O2 0.568623 0.150984 0.220064
O O3 0.613515 0.323248 0.109897
O O4 0.561831 0.197159 0.935444
O O5 0.794360 0.429922 0.112511
O O6 0.866987 0.599039 0.074817
O O7 0.921568 0.187174 0.895930
O O8 0.899281 0.000614 0.760925
O O9 0.000000 0.075845 0.750000
O O10 0.961192 0.000000 0.000000
O O11 0.752160 0.279071 0.613604
O O12 0.800490 0.096891 0.718068
O O13 0.718749 0.183856 0.853180
O O14 0.762300 0.500000 0.500000
O O15 0.956847 0.500000 0.500000
O O16 0.000000 0.583169 0.750000
O O17 0.035806 0.632087 0.497000
O O18 0.846236 0.000000 0.500000
#
# Coordination Sequence:
#
# PCOD9320314 Si02
#       8
#     8   4   8   8   8   8   8   8
#     4  10  23  43  69  96 140 186 236 299 369 439
#     4  12  26  46  74 102 148 194 258 308 380 444
#     4  11  25  46  77 110 149 194 239 307 374 461
#     4  11  27  45  73 105 147 202 253 322 377 454
#     4  11  26  45  73 105 144 195 251 310 385 459
#     4  12  25  40  64  99 136 177 228 289 360 440
#     4  11  24  45  71 102 140 191 242 302 367 440
#     4  10  22  45  68  99 140 193 239 303 365 434
#
# _framework density 22.233688999999998
#
# number of rings (size 3 to 8) (size 9 to 14) (size 15 to 20)
#    0.000    1.067    1.333    4.400    9.333    2.133 
#    2.400    0.000    0.000    0.000    0.000    0.000 
#    0.000    0.000    0.000    0.000    0.000    0.000 
#
# Total GULP energy -167520.846722 kJ/mol
# GULP energy per Si atom -5584.028224 kJ/mol
# Density = 2.218308 g / cm^3
# Si number density = 22.233689 Si / 1000 Ang^3
#
#
#
# Elastic Constant Matrix: (Units=GPa)
#
#
# Indices 1 2 3 4 5 6 
#
# 1 77.4243 32.8939 21.5273 0.0000 0.0000 0.0000
# 2 32.8939 80.6189 53.4829 0.0000 0.0000 0.0000
# 3 21.5273 53.4829 135.0855 0.0000 0.0000 0.0000
# 4 0.0000 0.0000 0.0000 34.9005 0.0000 0.0000
# 5 0.0000 0.0000 0.0000 0.0000 24.5700 0.0000
# 6 0.0000 0.0000 0.0000 0.0000 0.0000 92.6058
#
#
#
# Elastic Compliance Matrix: (Units=1/GPa)
#
#
# Indices 1 2 3 4 5 6 
#
# 1 0.015624 -0.006406 0.000046 0.000000 0.000000 0.000000
# 2 -0.006406 0.019449 -0.006679 0.000000 0.000000 0.000000
# 3 0.000046 -0.006679 0.010040 0.000000 0.000000 0.000000
# 4 0.000000 0.000000 0.000000 0.028653 0.000000 0.000000
# 5 0.000000 0.000000 0.000000 0.000000 0.040700 0.000000
# 6 0.000000 0.000000 0.000000 0.000000 0.000000 0.010798
#
#
# Mechanical properties :
#
#
# Convention : Reuss Voigt Hill
#
# Bulk Modulus (GPa) = 52.53360 56.54854 54.54107
# Shear Modulus (GPa) = 31.70835 42.76358 37.23596
#
# Velocity S-wave (km/s) = 3.78052 4.39038 4.09682
# Velocity P-wave (km/s) = 6.53725 7.15469 6.85293
#
# Compressibility (1/GPa) = 0.01903544
#
# Stress axis : x y z
#
# Youngs Moduli (GPa) = 64.00221 51.41716 99.60335
#
# Poissons Ratio (x) = 0.32936 -0.00460
# Poissons Ratio (y) = 0.40998 0.66528
# Poissons Ratio (z) = -0.00296 0.34343
#
# Static dielectric constant tensor:
#      x y z
#    x 1.870990 0.000000 0.000000 
#    y 0.000000 2.054040 0.000000 
#    z 0.000000 0.000000 1.710350 
# 
# From -- ./inp_files/11129.got.cif
#   From: 2010.05.17/outbox.cif.g08.bks.cpg/sg20_6_cif.got.tgz:11129.got - 2010.06.03 22:52:26.
