data_PCOD9320521
_publ_section_title
;
Structure prediction by ZEFSAII (Michael W. Deem and Ramdas Pophale) SiO2 
 PCOD9320521
Probable space group: C 2 2 21
;
_chemical_formula_sum "Si O2"
_cell_formula_units_Z 44
_cell_length_a 13.826926
_cell_length_b 16.864734
_cell_length_c 7.494040
_cell_angle_alpha 90.000000
_cell_angle_beta 90.000000
_cell_angle_gamma 90.000000
_cell_volume 1747.515921
_symmetry_space_group_name_H-M "C 2 2 21"
_symmetry_group_IT_number 20
_symmetry_cell_setting 'orthorhombic'
loop_
_space_group_symop_operation_xyz
x,y,z
-x,-y,1/2+z
x,-y,-z
-x,y,1/2-z
1/2+x,1/2+y,z
1/2-x,1/2-y,1/2+z
1/2+x,1/2-y,-z
1/2-x,1/2+y,1/2-z
loop_
_atom_site_type_symbol
_atom_site_label
_atom_site_fract_x
_atom_site_fract_y
_atom_site_fract_z
Si Si1 0.905951 0.922588 0.127468
Si Si2 0.717740 0.006456 0.784747
Si Si3 0.550408 0.832734 0.932865
Si Si4 0.734399 0.829377 0.711548
Si Si5 0.609408 0.257662 0.581150
Si Si6 0.449412 0.000000 0.000000
O O1 0.899429 0.843048 0.013310
O O2 0.000000 0.920440 0.250000
O O3 0.804841 0.931357 0.234937
O O4 0.911685 0.000000 0.000000
O O5 0.756323 0.922573 0.708481
O O6 0.621135 0.020032 0.668411
O O7 0.702378 0.000000 0.000000
O O8 0.500000 0.805004 0.750000
O O9 0.662359 0.824885 0.884660
O O10 0.496361 0.780136 0.076075
O O11 0.513481 0.922612 0.961463
O O12 0.674919 0.800721 0.541124
O O13 0.827167 0.776152 0.745803
#
# Coordination Sequence:
#
# PCOD9320521 Si02
#       6
#     8   8   8   8   8   4
#     4  11  24  44  68  97 136 185 238 296 350 407
#     4  11  24  45  67 105 142 181 237 299 342 420
#     4  10  23  42  66 101 135 179 234 287 346 433
#     4  11  23  46  67  96 144 179 232 297 347 422
#     4  11  23  45  66  95 139 185 225 292 358 410
#     4  12  24  42  74 102 140 192 228 278 384 422
#
# _framework density 25.178597
#
# number of rings (size 3 to 8) (size 9 to 14) (size 15 to 20)
#    0.000    1.091    7.273    1.636    5.091    0.000 
#    3.273    2.727    0.000    0.000    0.000    0.000 
#    0.000    0.000    0.000    0.000    0.000    0.000 
#
# Total GULP energy -123147.114215 kJ/mol
# GULP energy per Si atom -5597.596101 kJ/mol
# Density = 2.512129 g / cm^3
# Si number density = 25.178597 Si / 1000 Ang^3
#
#
#
# Elastic Constant Matrix: (Units=GPa)
#
#
# Indices 1 2 3 4 5 6 
#
# 1 137.6245 -3.4362 8.2611 0.0000 0.0000 0.0000
# 2 -3.4362 72.3845 -5.5999 0.0000 0.0000 0.0000
# 3 8.2611 -5.5999 84.9627 0.0000 0.0000 0.0000
# 4 0.0000 0.0000 0.0000 22.0896 0.0000 0.0000
# 5 0.0000 0.0000 0.0000 0.0000 44.5565 0.0000
# 6 0.0000 0.0000 0.0000 0.0000 0.0000 8.1209
#
#
#
# Elastic Compliance Matrix: (Units=1/GPa)
#
#
# Indices 1 2 3 4 5 6 
#
# 1 0.007315 0.000294 -0.000692 0.000000 0.000000 0.000000
# 2 0.000294 0.013898 0.000887 0.000000 0.000000 0.000000
# 3 -0.000692 0.000887 0.011896 0.000000 0.000000 0.000000
# 4 0.000000 0.000000 0.000000 0.045270 0.000000 0.000000
# 5 0.000000 0.000000 0.000000 0.000000 0.022443 0.000000
# 6 0.000000 0.000000 0.000000 0.000000 0.000000 0.123139
#
#
# Mechanical properties :
#
#
# Convention : Reuss Voigt Hill
#
# Bulk Modulus (GPa) = 29.33680 32.60243 30.96962
# Shear Modulus (GPa) = 21.33613 34.66985 28.00299
#
# Velocity S-wave (km/s) = 2.91416 3.71476 3.33855
# Velocity P-wave (km/s) = 4.79582 5.60142 5.21420
#
# Compressibility (1/GPa) = 0.03408688
#
# Stress axis : x y z
#
# Youngs Moduli (GPa) = 136.70518 71.95435 84.06447
#
# Poissons Ratio (x) = -0.02113 0.05816
# Poissons Ratio (y) = -0.04015 -0.07460
# Poissons Ratio (z) = 0.09459 -0.06385
#
# Static dielectric constant tensor:
#      x y z
#    x 2.009070 0.000000 0.000000 
#    y 0.000000 1.950900 0.000000 
#    z 0.000000 0.000000 2.047810 
# 
# From -- ./inp_files/8285.got.cif
#   From: 2010.05.17/outbox.cif.g08.bks.cpg/sg20_5_cif.got.tgz:8285.got - 2010.06.03 22:52:26.
