data_PCOD9320950
_publ_section_title
;
Structure prediction by ZEFSAII (Michael W. Deem and Ramdas Pophale) SiO2 
 PCOD9320950
Probable space group: C 2 2 21
;
_chemical_formula_sum "Si O2"
_cell_formula_units_Z 32
_cell_length_a 17.048006
_cell_length_b 14.951256
_cell_length_c 5.295002
_cell_angle_alpha 90.000000
_cell_angle_beta 90.000000
_cell_angle_gamma 90.000000
_cell_volume 1349.638305
_symmetry_space_group_name_H-M "C 2 2 21"
_symmetry_group_IT_number 20
_symmetry_cell_setting 'orthorhombic'
loop_
_space_group_symop_operation_xyz
x,y,z
-x,-y,1/2+z
x,-y,-z
-x,y,1/2-z
1/2+x,1/2+y,z
1/2-x,1/2-y,1/2+z
1/2+x,1/2-y,-z
1/2-x,1/2+y,1/2-z
loop_
_atom_site_type_symbol
_atom_site_label
_atom_site_fract_x
_atom_site_fract_y
_atom_site_fract_z
Si Si1 0.150182 0.654597 0.735119
Si Si2 0.315057 0.603183 0.705335
Si Si3 0.052586 0.500000 0.500000
Si Si4 0.909005 0.148144 0.219802
Si Si5 0.703342 0.000000 0.000000
O O1 0.242033 0.673023 0.675127
O O2 0.107203 0.586500 0.545626
O O3 0.103487 0.745382 0.752621
O O4 0.155419 0.591733 0.986957
O O5 0.366700 0.605042 0.459746
O O6 0.262324 0.516202 0.769992
O O7 0.368743 0.622495 0.952237
O O8 0.000000 0.508711 0.250000
O O9 0.000000 0.125253 0.250000
#
# Coordination Sequence:
#
# PCOD9320950 Si02
#       5
#     8   8   4   8   4
#     4  10  24  45  73 104 142 193 244 294 364 449
#     4  10  25  45  72 102 137 197 249 294 357 443
#     4  12  27  42  68 111 156 190 232 306 385 446
#     4  12  25  44  70 107 148 187 238 309 375 432
#     4   8  23  42  76  95 134 180 252 296 335 430
#
# _framework density 23.710056000000002
#
# number of rings (size 3 to 8) (size 9 to 14) (size 15 to 20)
#    1.500    0.000    0.000    3.750    3.500    7.000 
#    0.000    2.500    0.000    0.000    0.000    0.000 
#    0.000    0.000    0.000    0.000    0.000    0.000 
#
# Total GULP energy -89278.628554 kJ/mol
# GULP energy per Si atom -5579.914285 kJ/mol
# Density = 2.365609 g / cm^3
# Si number density = 23.710056 Si / 1000 Ang^3
#
#
#
# Elastic Constant Matrix: (Units=GPa)
#
#
# Indices 1 2 3 4 5 6 
#
# 1 157.2992 -1.0834 91.6413 0.0000 0.0000 0.0000
# 2 -1.0834 59.4105 36.9284 0.0000 0.0000 0.0000
# 3 91.6413 36.9284 198.0116 0.0000 0.0000 0.0000
# 4 0.0000 0.0000 0.0000 35.5564 0.0000 0.0000
# 5 0.0000 0.0000 0.0000 0.0000 11.2289 0.0000
# 6 0.0000 0.0000 0.0000 0.0000 0.0000 21.8998
#
#
#
# Elastic Compliance Matrix: (Units=1/GPa)
#
#
# Indices 1 2 3 4 5 6 
#
# 1 0.009208 0.003186 -0.004856 0.000000 0.000000 0.000000
# 2 0.003186 0.020142 -0.005231 0.000000 0.000000 0.000000
# 3 -0.004856 -0.005231 0.008273 0.000000 0.000000 0.000000
# 4 0.000000 0.000000 0.000000 0.028124 0.000000 0.000000
# 5 0.000000 0.000000 0.000000 0.000000 0.089056 0.000000
# 6 0.000000 0.000000 0.000000 0.000000 0.000000 0.045662
#
#
# Mechanical properties :
#
#
# Convention : Reuss Voigt Hill
#
# Bulk Modulus (GPa) = 41.97841 74.41043 58.19442
# Shear Modulus (GPa) = 22.50149 32.88603 27.69376
#
# Velocity S-wave (km/s) = 3.08397 3.72830 3.42133
# Velocity P-wave (km/s) = 5.51584 7.07002 6.34073
#
# Compressibility (1/GPa) = 0.02382177
#
# Stress axis : x y z
#
# Youngs Moduli (GPa) = 108.59834 49.64852 120.87386
#
# Poissons Ratio (x) = -0.15819 0.58695
# Poissons Ratio (y) = -0.34602 0.63228
# Poissons Ratio (z) = 0.52734 0.25971
#
# Static dielectric constant tensor:
#      x y z
#    x 1.964160 0.000000 0.000000 
#    y 0.000000 2.140970 0.000000 
#    z 0.000000 0.000000 1.919940 
# 
# From -- ./inp_files/2465.got.cif
#   From: 2010.05.17/outbox.cif.g08.bks.cpg/sg20_2_cif.got.tgz:2465.got - 2010.06.03 22:52:26.
