data_PCOD9320889
_publ_section_title
;
Structure prediction by ZEFSAII (Michael W. Deem and Ramdas Pophale) SiO2 
 PCOD9320889
Probable space group: C 2 2 21
;
_chemical_formula_sum "Si O2"
_cell_formula_units_Z 64
_cell_length_a 11.395520
_cell_length_b 7.936666
_cell_length_c 30.671153
_cell_angle_alpha 90.000000
_cell_angle_beta 90.000000
_cell_angle_gamma 90.000000
_cell_volume 2773.973796
_symmetry_space_group_name_H-M "C 2 2 21"
_symmetry_group_IT_number 20
_symmetry_cell_setting 'orthorhombic'
loop_
_space_group_symop_operation_xyz
x,y,z
-x,-y,1/2+z
x,-y,-z
-x,y,1/2-z
1/2+x,1/2+y,z
1/2-x,1/2-y,1/2+z
1/2+x,1/2-y,-z
1/2-x,1/2+y,1/2-z
loop_
_atom_site_type_symbol
_atom_site_label
_atom_site_fract_x
_atom_site_fract_y
_atom_site_fract_z
Si Si1 0.549065 0.895569 0.327864
Si Si2 0.215783 0.515789 0.400663
Si Si3 0.863214 0.828007 0.757803
Si Si4 0.533970 0.590539 0.113664
Si Si5 0.812332 0.110314 0.907541
Si Si6 0.793929 0.414097 0.311195
Si Si7 0.269476 0.708321 0.031303
Si Si8 0.464750 0.309254 0.515737
O O1 0.628457 0.841231 0.287470
O O2 0.514625 0.716767 0.350451
O O3 0.614394 0.994212 0.365493
O O4 0.428563 0.977898 0.311954
O O5 0.339602 0.518952 0.376023
O O6 0.224465 0.364733 0.434969
O O7 0.199489 0.697889 0.422230
O O8 0.801656 0.765282 0.713589
O O9 0.792628 0.965964 0.784654
O O10 0.000000 0.876579 0.750000
O O11 0.445274 0.440131 0.103749
O O12 0.544088 0.694269 0.068203
O O13 0.743887 0.097483 0.861567
O O14 0.773544 0.966296 0.941425
O O15 0.396674 0.725005 0.007008
O O16 0.144691 0.714105 0.006328
O O17 0.446020 0.500000 0.500000
#
# Coordination Sequence:
#
# PCOD9320889 Si02
#       8
#     8   8   8   8   8   8   8   8
#     4  11  23  46  74 102 149 191 245 314 365 452
#     4  12  24  46  80 103 144 201 247 306 374 446
#     4  10  24  44  69 102 149 190 236 311 371 442
#     4  11  23  47  71 105 146 188 258 308 371 460
#     4  11  25  46  76 110 143 197 253 304 379 462
#     4  11  23  46  71 108 146 192 246 301 382 452
#     4  11  26  52  77 109 156 198 259 328 382 456
#     4  11  24  50  75 108 152 199 257 321 386 453
#
# _framework density 23.071594999999999
#
# number of rings (size 3 to 8) (size 9 to 14) (size 15 to 20)
#    0.000    1.000    6.250    0.000    1.750    4.000 
#    4.500    6.875    0.000    0.000    0.000    0.000 
#    0.000    0.000    0.000    0.000    0.000    0.000 
#
# Total GULP energy -178978.537203 kJ/mol
# GULP energy per Si atom -5593.079288 kJ/mol
# Density = 2.301908 g / cm^3
# Si number density = 23.071595 Si / 1000 Ang^3
#
#
#
# Elastic Constant Matrix: (Units=GPa)
#
#
# Indices 1 2 3 4 5 6 
#
# 1 101.5743 56.9978 33.5639 0.0000 0.0000 0.0000
# 2 56.9978 110.4231 27.3372 0.0000 0.0000 0.0000
# 3 33.5639 27.3372 102.2931 0.0000 0.0000 0.0000
# 4 0.0000 0.0000 0.0000 22.5389 0.0000 0.0000
# 5 0.0000 0.0000 0.0000 0.0000 53.9938 0.0000
# 6 0.0000 0.0000 0.0000 0.0000 0.0000 28.0868
#
#
#
# Elastic Compliance Matrix: (Units=1/GPa)
#
#
# Indices 1 2 3 4 5 6 
#
# 1 0.014665 -0.006830 -0.002986 0.000000 0.000000 0.000000
# 2 -0.006830 0.012879 -0.001201 0.000000 0.000000 0.000000
# 3 -0.002986 -0.001201 0.011077 0.000000 0.000000 0.000000
# 4 0.000000 0.000000 0.000000 0.044368 0.000000 0.000000
# 5 0.000000 0.000000 0.000000 0.000000 0.018521 0.000000
# 6 0.000000 0.000000 0.000000 0.000000 0.000000 0.035604
#
#
# Mechanical properties :
#
#
# Convention : Reuss Voigt Hill
#
# Bulk Modulus (GPa) = 60.29342 61.12093 60.70718
# Shear Modulus (GPa) = 30.36276 34.01665 32.18971
#
# Velocity S-wave (km/s) = 3.63164 3.84395 3.73930
# Velocity P-wave (km/s) = 6.61627 6.80078 6.70916
#
# Compressibility (1/GPa) = 0.01658556
#
# Stress axis : x y z
#
# Youngs Moduli (GPa) = 68.19184 77.64630 90.28061
#
# Poissons Ratio (x) = 0.53034 0.26961
# Poissons Ratio (y) = 0.46576 0.10840
# Poissons Ratio (z) = 0.20364 0.09323
#
# Static dielectric constant tensor:
#      x y z
#    x 1.902570 0.000000 0.000000 
#    y 0.000000 1.845360 0.000000 
#    z 0.000000 0.000000 1.922900 
# 
# From -- ./inp_files/31214.got.cif
#   From: 2010.05.17/outbox.cif.g08.bks.cpg/sg20_16_cif.got.tgz:31214.got - 2010.06.03 22:52:26.
