data_PCOD9320568
_publ_section_title
;
Structure prediction by ZEFSAII (Michael W. Deem and Ramdas Pophale) SiO2 
 PCOD9320568
Probable space group: C 2 2 21
;
_chemical_formula_sum "Si O2"
_cell_formula_units_Z 52
_cell_length_a 12.858026
_cell_length_b 7.141383
_cell_length_c 27.975786
_cell_angle_alpha 90.000000
_cell_angle_beta 90.000000
_cell_angle_gamma 90.000000
_cell_volume 2568.851044
_symmetry_space_group_name_H-M "C 2 2 21"
_symmetry_group_IT_number 20
_symmetry_cell_setting 'orthorhombic'
loop_
_space_group_symop_operation_xyz
x,y,z
-x,-y,1/2+z
x,-y,-z
-x,y,1/2-z
1/2+x,1/2+y,z
1/2-x,1/2-y,1/2+z
1/2+x,1/2-y,-z
1/2-x,1/2+y,1/2-z
loop_
_atom_site_type_symbol
_atom_site_label
_atom_site_fract_x
_atom_site_fract_y
_atom_site_fract_z
Si Si1 0.870919 0.000000 0.500000
Si Si2 0.359835 0.707939 0.107236
Si Si3 0.389512 0.305881 0.230361
Si Si4 0.695458 0.722345 0.500630
Si Si5 0.004679 0.526787 0.344349
Si Si6 0.026267 0.166100 0.576434
Si Si7 0.283665 0.076542 0.313823
O O1 0.797325 0.168720 0.484224
O O2 0.938978 0.071975 0.543784
O O3 0.335230 0.774791 0.053440
O O4 0.413966 0.505080 0.101835
O O5 0.257221 0.679972 0.138843
O O6 0.433392 0.853206 0.134233
O O7 0.500000 0.387425 0.250000
O O8 0.428164 0.135401 0.196179
O O9 0.321597 0.221704 0.273594
O O10 0.312727 0.450602 0.204182
O O11 0.712716 0.500000 0.500000
O O12 0.604775 0.759318 0.538362
O O13 0.989759 0.682327 0.385660
O O14 0.890815 0.468181 0.325643
#
# Coordination Sequence:
#
# PCOD9320568 Si02
#       7
#     4   8   8   8   8   8   8
#     4  12  22  40  66  86 126 182 212 264 336 362
#     4  11  22  43  65  95 133 172 214 271 324 386
#     4  10  23  43  66  95 132 163 215 279 321 394
#     4  10  23  43  63  95 134 170 225 265 314 390
#     4  11  24  42  66  94 132 167 217 268 327 390
#     4  11  23  43  62  96 134 168 221 273 313 391
#     4  11  23  43  68  99 127 172 218 265 335 394
#
# _framework density 20.242512999999999
#
# number of rings (size 3 to 8) (size 9 to 14) (size 15 to 20)
#    0.000    1.231    3.846    2.769    0.000    4.923 
#    6.923    0.000    0.000    0.000    0.000    0.000 
#    0.000    0.000    0.000    0.000    0.000    0.000 
#
# Total GULP energy -145275.144206 kJ/mol
# GULP energy per Si atom -5587.505546 kJ/mol
# Density = 2.019644 g / cm^3
# Si number density = 20.242513 Si / 1000 Ang^3
#
#
#
# Elastic Constant Matrix: (Units=GPa)
#
#
# Indices 1 2 3 4 5 6 
#
# 1 121.7488 27.3363 23.3867 0.0000 0.0000 0.0000
# 2 27.3363 29.1696 12.9900 0.0000 0.0000 0.0000
# 3 23.3867 12.9900 28.1945 0.0000 0.0000 0.0000
# 4 0.0000 0.0000 0.0000 28.0894 0.0000 0.0000
# 5 0.0000 0.0000 0.0000 0.0000 -116.1110 0.0000
# 6 0.0000 0.0000 0.0000 0.0000 0.0000 36.9876
#
#
#
# Elastic Compliance Matrix: (Units=1/GPa)
#
#
# Indices 1 2 3 4 5 6 
#
# 1 0.011047 -0.007891 -0.005528 0.000000 0.000000 0.000000
# 2 -0.007891 0.048769 -0.015923 0.000000 0.000000 0.000000
# 3 -0.005528 -0.015923 0.047389 0.000000 0.000000 0.000000
# 4 0.000000 0.000000 0.000000 0.035601 0.000000 0.000000
# 5 0.000000 0.000000 0.000000 0.000000 -0.008612 0.000000
# 6 0.000000 0.000000 0.000000 0.000000 0.000000 0.027036
#
#
# Mechanical properties :
#
#
# Convention : Reuss Voigt Hill
#
# Bulk Modulus (GPa) = 20.60983 34.05987 27.33485
# Shear Modulus (GPa) = 21.17853 -2.51347 9.33253
#
# Velocity S-wave (km/s) = 3.23807 -1.11552 2.14950
# Velocity P-wave (km/s) = 4.91769 3.89914 4.43773
#
# Compressibility (1/GPa) = 0.04852054
#
# Stress axis : x y z
#
# Youngs Moduli (GPa) = 90.51981 20.50493 21.10176
#
# Poissons Ratio (x) = 0.16181 0.11665
# Poissons Ratio (y) = 0.71432 0.33601
# Poissons Ratio (z) = 0.50037 0.32651
#
# Static dielectric constant tensor:
#      x y z
#    x 1.710030 0.000000 0.000000 
#    y 0.000000 1.684520 0.000000 
#    z 0.000000 0.000000 1.741570 
# 
# From -- ./inp_files/30283.got.cif
#   From: 2010.05.17/outbox.cif.g08.bks.cpg/sg20_16_cif.got.tgz:30283.got - 2010.06.03 22:52:26.
