data_PCOD9320848
_publ_section_title
;
Structure prediction by ZEFSAII (Michael W. Deem and Ramdas Pophale) SiO2 
 PCOD9320848
Probable space group: C 2 2 21
;
_chemical_formula_sum "Si O2"
_cell_formula_units_Z 64
_cell_length_a 22.967448
_cell_length_b 15.713073
_cell_length_c 9.176660
_cell_angle_alpha 90.000000
_cell_angle_beta 90.000000
_cell_angle_gamma 90.000000
_cell_volume 3311.757367
_symmetry_space_group_name_H-M "C 2 2 21"
_symmetry_group_IT_number 20
_symmetry_cell_setting 'orthorhombic'
loop_
_space_group_symop_operation_xyz
x,y,z
-x,-y,1/2+z
x,-y,-z
-x,y,1/2-z
1/2+x,1/2+y,z
1/2-x,1/2-y,1/2+z
1/2+x,1/2-y,-z
1/2-x,1/2+y,1/2-z
loop_
_atom_site_type_symbol
_atom_site_label
_atom_site_fract_x
_atom_site_fract_y
_atom_site_fract_z
Si Si1 0.242160 0.878933 0.247212
Si Si2 0.658390 0.216370 0.245577
Si Si3 0.135396 0.994144 0.175820
Si Si4 0.938828 0.153202 0.828177
Si Si5 0.157680 0.599689 0.964343
Si Si6 0.561427 0.364557 0.678022
Si Si7 0.657675 0.899523 0.487034
Si Si8 0.066973 0.664092 0.724857
O O1 0.205403 0.792176 0.239263
O O2 0.277960 0.888113 0.396197
O O3 0.199063 0.958402 0.218347
O O4 0.291772 0.876428 0.125683
O O5 0.600372 0.264113 0.299589
O O6 0.673720 0.145919 0.364124
O O7 0.651140 0.165189 0.096777
O O8 0.113955 0.080195 0.254466
O O9 0.092157 0.923629 0.242403
O O10 0.131160 0.000000 0.000000
O O11 0.000000 0.166043 0.750000
O O12 0.941918 0.132467 0.001365
O O13 0.108412 0.625361 0.848188
O O14 0.150848 0.500000 0.000000
O O15 0.500000 0.394016 0.750000
O O16 0.569696 0.266498 0.723743
O O17 0.595962 0.867283 0.424931
O O18 0.655312 0.000000 0.500000
O O19 0.000000 0.639460 0.750000
#
# Coordination Sequence:
#
# PCOD9320848 Si02
#       8
#     8   8   8   8   8   8   8   8
#     4  10  24  43  64  95 130 171 223 265 329 400
#     4  11  23  40  69  94 129 174 218 274 330 390
#     4  11  24  41  67 101 136 180 220 269 334 401
#     4  11  24  41  64 102 136 174 226 271 332 402
#     4  11  25  45  65  95 132 171 221 283 328 389
#     4  11  23  42  68  96 140 181 214 275 328 404
#     4  11  22  45  65  93 129 167 219 276 328 385
#     4  10  24  43  67  96 128 172 219 267 339 394
#
# _framework density 19.325087
#
# number of rings (size 3 to 8) (size 9 to 14) (size 15 to 20)
#    0.000    1.250    1.250    4.125    7.000    2.500 
#    9.000    1.250    0.000    0.000    0.000    0.000 
#    0.000    0.000    0.000    0.000    0.000    0.000 
#
# Total GULP energy -178769.167535 kJ/mol
# GULP energy per Si atom -5586.536485 kJ/mol
# Density = 1.928110 g / cm^3
# Si number density = 19.325087 Si / 1000 Ang^3
#
#
#
# Elastic Constant Matrix: (Units=GPa)
#
#
# Indices 1 2 3 4 5 6 
#
# 1 109.5977 32.4000 47.4432 0.0000 0.0000 0.0000
# 2 32.4000 77.9503 46.9647 0.0000 0.0000 0.0000
# 3 47.4432 46.9647 139.9755 0.0000 0.0000 0.0000
# 4 0.0000 0.0000 0.0000 85.9712 0.0000 0.0000
# 5 0.0000 0.0000 0.0000 0.0000 23.2120 0.0000
# 6 0.0000 0.0000 0.0000 0.0000 0.0000 24.8635
#
#
#
# Elastic Compliance Matrix: (Units=1/GPa)
#
#
# Indices 1 2 3 4 5 6 
#
# 1 0.011217 -0.002973 -0.002805 0.000000 0.000000 0.000000
# 2 -0.002973 0.016867 -0.004652 0.000000 0.000000 0.000000
# 3 -0.002805 -0.004652 0.009655 0.000000 0.000000 0.000000
# 4 0.000000 0.000000 0.000000 0.011632 0.000000 0.000000
# 5 0.000000 0.000000 0.000000 0.000000 0.043081 0.000000
# 6 0.000000 0.000000 0.000000 0.000000 0.000000 0.040220
#
#
# Mechanical properties :
#
#
# Convention : Reuss Voigt Hill
#
# Bulk Modulus (GPa) = 59.23571 64.57104 61.90338
# Shear Modulus (GPa) = 31.41554 40.19038 35.80296
#
# Velocity S-wave (km/s) = 4.03629 4.56532 4.30893
# Velocity P-wave (km/s) = 7.24161 7.82784 7.54043
#
# Compressibility (1/GPa) = 0.01688171
#
# Stress axis : x y z
#
# Youngs Moduli (GPa) = 89.14943 59.28782 103.56911
#
# Poissons Ratio (x) = 0.17624 0.29046
# Poissons Ratio (y) = 0.26501 0.48177
# Poissons Ratio (z) = 0.25002 0.27579
#
# Static dielectric constant tensor:
#      x y z
#    x 1.673050 0.000000 0.000000 
#    y 0.000000 1.928200 0.000000 
#    z 0.000000 0.000000 1.683620 
# 
# From -- ./inp_files/10825.got.cif
#   From: 2010.05.17/outbox.cif.g08.bks.cpg/sg20_6_cif.got.tgz:10825.got - 2010.06.03 22:52:26.
