data_PCOD9320870
_publ_section_title
;
Structure prediction by ZEFSAII (Michael W. Deem and Ramdas Pophale) SiO2 
 PCOD9320870
Probable space group: C 2 2 21
;
_chemical_formula_sum "Si O2"
_cell_formula_units_Z 64
_cell_length_a 13.962511
_cell_length_b 9.489946
_cell_length_c 22.206225
_cell_angle_alpha 90.000000
_cell_angle_beta 90.000000
_cell_angle_gamma 90.000000
_cell_volume 2942.401988
_symmetry_space_group_name_H-M "C 2 2 21"
_symmetry_group_IT_number 20
_symmetry_cell_setting 'orthorhombic'
loop_
_space_group_symop_operation_xyz
x,y,z
-x,-y,1/2+z
x,-y,-z
-x,y,1/2-z
1/2+x,1/2+y,z
1/2-x,1/2-y,1/2+z
1/2+x,1/2-y,-z
1/2-x,1/2+y,1/2-z
loop_
_atom_site_type_symbol
_atom_site_label
_atom_site_fract_x
_atom_site_fract_y
_atom_site_fract_z
Si Si1 0.011825 0.557781 0.855394
Si Si2 0.134816 0.233910 0.072527
Si Si3 0.774942 0.741617 0.178333
Si Si4 0.791117 0.337209 0.014611
Si Si5 0.698647 0.965708 0.782887
Si Si6 0.563954 0.222265 0.415232
Si Si7 0.522879 0.510353 0.435736
Si Si8 0.150310 0.219770 0.359648
O O1 0.967433 0.421069 0.885539
O O2 0.929209 0.668550 0.833013
O O3 0.068883 0.636065 0.909203
O O4 0.093415 0.501520 0.809491
O O5 0.186115 0.198175 0.136135
O O6 0.212015 0.255330 0.020267
O O7 0.068459 0.106008 0.054297
O O8 0.807607 0.612461 0.219297
O O9 0.853604 0.779810 0.128875
O O10 0.749830 0.881571 0.216001
O O11 0.891155 0.307965 0.980352
O O12 0.768901 0.500000 0.000000
O O13 0.801833 0.302301 0.084312
O O14 0.766919 0.856779 0.820712
O O15 0.492551 0.352806 0.418036
O O16 0.576488 0.500000 0.500000
O O17 0.587395 0.592895 0.387943
#
# Coordination Sequence:
#
# PCOD9320870 Si02
#       8
#     8   8   8   8   8   8   8   8
#     4  10  24  44  65 100 134 173 233 285 341 424
#     4   9  23  43  63  98 132 173 226 274 344 424
#     4  10  24  45  67  94 132 174 231 286 343 425
#     4  11  21  39  66  97 133 180 219 272 352 411
#     4  11  25  46  71  98 131 185 234 291 355 417
#     4  11  22  41  65  95 137 166 222 286 339 414
#     4  11  21  38  66  98 137 173 216 274 341 421
#     4  11  23  44  67 100 141 186 223 284 359 412
#
# _framework density 21.750935999999999
#
# number of rings (size 3 to 8) (size 9 to 14) (size 15 to 20)
#    0.000    1.500    3.750    0.375    1.750    3.500 
#    4.500    1.875    0.000    0.000    0.000    0.000 
#    0.000    0.000    0.000    0.000    0.000    0.000 
#
# Total GULP energy -178639.957074 kJ/mol
# GULP energy per Si atom -5582.498659 kJ/mol
# Density = 2.170143 g / cm^3
# Si number density = 21.750936 Si / 1000 Ang^3
#
#
#
# Elastic Constant Matrix: (Units=GPa)
#
#
# Indices 1 2 3 4 5 6 
#
# 1 71.8369 21.9752 23.6619 0.0000 0.0000 0.0000
# 2 21.9752 94.1860 27.6872 0.0000 0.0000 0.0000
# 3 23.6619 27.6872 60.9932 0.0000 0.0000 0.0000
# 4 0.0000 0.0000 0.0000 34.6839 0.0000 0.0000
# 5 0.0000 0.0000 0.0000 0.0000 20.0704 0.0000
# 6 0.0000 0.0000 0.0000 0.0000 0.0000 24.2284
#
#
#
# Elastic Compliance Matrix: (Units=1/GPa)
#
#
# Indices 1 2 3 4 5 6 
#
# 1 0.016364 -0.002252 -0.005326 0.000000 0.000000 0.000000
# 2 -0.002252 0.012562 -0.004829 0.000000 0.000000 0.000000
# 3 -0.005326 -0.004829 0.020653 0.000000 0.000000 0.000000
# 4 0.000000 0.000000 0.000000 0.028832 0.000000 0.000000
# 5 0.000000 0.000000 0.000000 0.000000 0.049825 0.000000
# 6 0.000000 0.000000 0.000000 0.000000 0.000000 0.041274
#
#
# Mechanical properties :
#
#
# Convention : Reuss Voigt Hill
#
# Bulk Modulus (GPa) = 40.37859 41.51829 40.94844
# Shear Modulus (GPa) = 24.68182 26.04267 25.36224
#
# Velocity S-wave (km/s) = 3.37226 3.46397 3.41842
# Velocity P-wave (km/s) = 5.81095 5.92691 5.86922
#
# Compressibility (1/GPa) = 0.02476560
#
# Stress axis : x y z
#
# Youngs Moduli (GPa) = 61.11111 79.60351 48.41840
#
# Poissons Ratio (x) = 0.17929 0.25786
# Poissons Ratio (y) = 0.13764 0.23380
# Poissons Ratio (z) = 0.32546 0.38438
#
# Static dielectric constant tensor:
#      x y z
#    x 1.852130 0.000000 0.000000 
#    y 0.000000 1.788700 0.000000 
#    z 0.000000 0.000000 1.780180 
# 
# From -- ./inp_files/29359.got.cif
#   From: 2010.05.17/outbox.cif.g08.bks.cpg/sg20_15_cif.got.tgz:29359.got - 2010.06.03 22:52:26.
