data_PCOD9320437
_publ_section_title
;
Structure prediction by ZEFSAII (Michael W. Deem and Ramdas Pophale) SiO2 
 PCOD9320437
Probable space group: C 2 2 21
;
_chemical_formula_sum "Si O2"
_cell_formula_units_Z 64
_cell_length_a 27.927053
_cell_length_b 21.255080
_cell_length_c 5.511198
_cell_angle_alpha 90.000000
_cell_angle_beta 90.000000
_cell_angle_gamma 90.000000
_cell_volume 3271.401642
_symmetry_space_group_name_H-M "C 2 2 21"
_symmetry_group_IT_number 20
_symmetry_cell_setting 'orthorhombic'
loop_
_space_group_symop_operation_xyz
x,y,z
-x,-y,1/2+z
x,-y,-z
-x,y,1/2-z
1/2+x,1/2+y,z
1/2-x,1/2-y,1/2+z
1/2+x,1/2-y,-z
1/2-x,1/2+y,1/2-z
loop_
_atom_site_type_symbol
_atom_site_label
_atom_site_fract_x
_atom_site_fract_y
_atom_site_fract_z
Si Si1 0.028418 0.396977 0.002061
Si Si2 0.131222 0.222693 0.076009
Si Si3 0.894338 0.558809 0.164504
Si Si4 0.297558 0.930001 0.569218
Si Si5 0.787882 0.837256 0.834046
Si Si6 0.472136 0.253931 0.501001
Si Si7 0.702570 0.760603 0.681704
Si Si8 0.852395 0.655000 0.839645
O O1 0.077775 0.430329 0.917766
O O2 0.000000 0.409377 0.750000
O O3 0.036577 0.321917 0.013998
O O4 0.000000 0.416039 0.250000
O O5 0.164560 0.166037 0.172363
O O6 0.078339 0.209723 0.986785
O O7 0.124989 0.276869 0.277788
O O8 0.163182 0.262626 0.889773
O O9 0.838302 0.556343 0.230791
O O10 0.909466 0.500000 0.000000
O O11 0.894193 0.618147 0.982272
O O12 0.249832 0.892854 0.649679
O O13 0.325926 0.888921 0.361399
O O14 0.282156 0.000000 0.500000
O O15 0.756343 0.775734 0.758710
O O16 0.802630 0.811369 0.096176
O O17 0.500000 0.270400 0.750000
O O18 0.500000 0.264946 0.250000
O O19 0.689346 0.819393 0.513100
#
# Coordination Sequence:
#
# PCOD9320437 Si02
#       8
#     8   8   8   8   8   8   8   8
#     4  10  24  42  65  87 116 154 210 281 339 382
#     4  11  23  36  62  86 122 161 201 264 316 385
#     4  12  25  41  64  84 114 162 225 273 324 382
#     4  12  24  39  57  85 123 169 210 258 314 386
#     4  11  21  34  55  89 120 162 204 249 317 380
#     4  10  23  40  63  92 120 159 205 256 328 391
#     4  11  19  33  56  87 119 155 199 257 307 374
#     4  11  21  35  60  84 118 153 212 257 315 379
#
# _framework density 19.563478
#
# number of rings (size 3 to 8) (size 9 to 14) (size 15 to 20)
#    0.000    1.000    5.000    2.250   10.500    0.000 
#    0.000    1.250    0.000    0.000    0.000    0.000 
#    0.000    0.000    4.250    0.000    0.000    0.000 
#
# Total GULP energy -178299.290161 kJ/mol
# GULP energy per Si atom -5571.852818 kJ/mol
# Density = 1.951895 g / cm^3
# Si number density = 19.563478 Si / 1000 Ang^3
#
#
#
# Elastic Constant Matrix: (Units=GPa)
#
#
# Indices 1 2 3 4 5 6 
#
# 1 127.2679 40.1084 43.9842 0.0000 0.0000 0.0000
# 2 40.1084 56.7459 22.0474 0.0000 0.0000 0.0000
# 3 43.9842 22.0474 82.5270 0.0000 0.0000 0.0000
# 4 0.0000 0.0000 0.0000 8.2016 0.0000 0.0000
# 5 0.0000 0.0000 0.0000 0.0000 22.4416 0.0000
# 6 0.0000 0.0000 0.0000 0.0000 0.0000 17.7468
#
#
#
# Elastic Compliance Matrix: (Units=1/GPa)
#
#
# Indices 1 2 3 4 5 6 
#
# 1 0.011362 -0.006336 -0.004363 0.000000 0.000000 0.000000
# 2 -0.006336 0.023196 -0.002820 0.000000 0.000000 0.000000
# 3 -0.004363 -0.002820 0.015196 0.000000 0.000000 0.000000
# 4 0.000000 0.000000 0.000000 0.121927 0.000000 0.000000
# 5 0.000000 0.000000 0.000000 0.000000 0.044560 0.000000
# 6 0.000000 0.000000 0.000000 0.000000 0.000000 0.056348
#
#
# Mechanical properties :
#
#
# Convention : Reuss Voigt Hill
#
# Bulk Modulus (GPa) = 44.02092 53.20232 48.61162
# Shear Modulus (GPa) = 16.27608 20.37141 18.32374
#
# Velocity S-wave (km/s) = 2.88751 3.23042 3.06376
# Velocity P-wave (km/s) = 5.80236 6.41622 6.11699
#
# Compressibility (1/GPa) = 0.02271647
#
# Stress axis : x y z
#
# Youngs Moduli (GPa) = 88.01312 43.11050 65.80670
#
# Poissons Ratio (x) = 0.27313 0.28711
# Poissons Ratio (y) = 0.55761 0.18560
# Poissons Ratio (z) = 0.38400 0.12159
#
# Static dielectric constant tensor:
#      x y z
#    x 1.826760 0.000000 0.000000 
#    y 0.000000 1.694070 0.000000 
#    z 0.000000 0.000000 1.932290 
# 
# From -- ./inp_files/4380.got.cif
#   From: 2010.05.17/outbox.cif.g08.bks.cpg/sg20_3_cif.got.tgz:4380.got - 2010.06.03 22:52:26.
