data_PCOD9320047
_publ_section_title
;
Structure prediction by ZEFSAII (Michael W. Deem and Ramdas Pophale) SiO2 
 PCOD9320047
Probable space group: C 2 2 21
;
_chemical_formula_sum "Si O2"
_cell_formula_units_Z 56
_cell_length_a 5.825898
_cell_length_b 22.484677
_cell_length_c 18.305303
_cell_angle_alpha 90.000000
_cell_angle_beta 90.000000
_cell_angle_gamma 90.000000
_cell_volume 2397.874514
_symmetry_space_group_name_H-M "C 2 2 21"
_symmetry_group_IT_number 20
_symmetry_cell_setting 'orthorhombic'
loop_
_space_group_symop_operation_xyz
x,y,z
-x,-y,1/2+z
x,-y,-z
-x,y,1/2-z
1/2+x,1/2+y,z
1/2-x,1/2-y,1/2+z
1/2+x,1/2-y,-z
1/2-x,1/2+y,1/2-z
loop_
_atom_site_type_symbol
_atom_site_label
_atom_site_fract_x
_atom_site_fract_y
_atom_site_fract_z
Si Si1 0.436388 0.158678 0.011321
Si Si2 0.505594 0.675881 0.829262
Si Si3 0.794952 0.760242 0.912095
Si Si4 0.823392 0.211146 0.315692
Si Si5 0.328717 0.911317 0.856507
Si Si6 0.310892 0.589349 0.945604
Si Si7 0.666886 0.543229 0.387324
O O1 0.309543 0.215337 0.979084
O O2 0.573012 0.126158 0.946454
O O3 0.613952 0.189967 0.067252
O O4 0.320485 0.107361 0.057709
O O5 0.500000 0.645134 0.750000
O O6 0.724777 0.716841 0.846002
O O7 0.314033 0.727712 0.822849
O O8 0.473686 0.632786 0.898452
O O9 0.026277 0.791993 0.889303
O O10 0.681018 0.150515 0.312523
O O11 0.000000 0.209730 0.250000
O O12 0.586500 0.939444 0.849340
O O13 0.078384 0.943568 0.846810
O O14 0.312487 0.526586 0.905226
O O15 0.342955 0.574914 0.032008
#
# Coordination Sequence:
#
# PCOD9320047 Si02
#       7
#     8   8   8   8   8   8   8
#     4  11  21  37  67  98 132 175 213 283 349 408
#     4  12  24  41  65  97 136 181 228 280 350 423
#     4  12  22  38  61  96 140 168 222 272 347 426
#     4  12  24  42  63  93 138 180 224 283 341 421
#     4  11  23  43  67  98 132 177 231 278 338 410
#     4  10  22  42  66 100 137 175 229 288 349 410
#     4  10  24  44  70 100 134 181 231 292 348 395
#
# _framework density 23.354019000000001
#
# number of rings (size 3 to 8) (size 9 to 14) (size 15 to 20)
#    0.000    0.857    4.286    4.286    0.000    5.714 
#    0.000    0.714    0.000    1.714    0.000    0.000 
#    0.000    0.000    0.000    0.000    0.000    0.000 
#
# Total GULP energy -156183.214268 kJ/mol
# GULP energy per Si atom -5577.971938 kJ/mol
# Density = 2.330086 g / cm^3
# Si number density = 23.354019 Si / 1000 Ang^3
#
#
#
# Elastic Constant Matrix: (Units=GPa)
#
#
# Indices 1 2 3 4 5 6 
#
# 1 114.0410 30.5216 17.7226 0.0000 0.0000 0.0000
# 2 30.5216 106.5562 10.6427 0.0000 0.0000 0.0000
# 3 17.7226 10.6427 53.6551 0.0000 0.0000 0.0000
# 4 0.0000 0.0000 0.0000 8.8254 0.0000 0.0000
# 5 0.0000 0.0000 0.0000 0.0000 38.1614 0.0000
# 6 0.0000 0.0000 0.0000 0.0000 0.0000 4.3670
#
#
#
# Elastic Compliance Matrix: (Units=1/GPa)
#
#
# Indices 1 2 3 4 5 6 
#
# 1 0.009881 -0.002555 -0.002757 0.000000 0.000000 0.000000
# 2 -0.002555 0.010235 -0.001186 0.000000 0.000000 0.000000
# 3 -0.002757 -0.001186 0.019784 0.000000 0.000000 0.000000
# 4 0.000000 0.000000 0.000000 0.113309 0.000000 0.000000
# 5 0.000000 0.000000 0.000000 0.000000 0.026204 0.000000
# 6 0.000000 0.000000 0.000000 0.000000 0.000000 0.228988
#
#
# Mechanical properties :
#
#
# Convention : Reuss Voigt Hill
#
# Bulk Modulus (GPa) = 37.17024 43.55846 40.36435
# Shear Modulus (GPa) = 11.61803 24.62846 18.12325
#
# Velocity S-wave (km/s) = 2.23283 3.25094 2.78874
# Velocity P-wave (km/s) = 4.75373 5.72567 5.26219
#
# Compressibility (1/GPa) = 0.02690324
#
# Stress axis : x y z
#
# Youngs Moduli (GPa) = 101.20419 97.70370 50.54715
#
# Poissons Ratio (x) = 0.24963 0.13936
# Poissons Ratio (y) = 0.25857 0.05996
# Poissons Ratio (z) = 0.27902 0.11590
#
# Static dielectric constant tensor:
#      x y z
#    x 1.997410 0.000000 0.000000 
#    y 0.000000 1.809000 0.000000 
#    z 0.000000 0.000000 1.942790 
# 
# From -- ./inp_files/26190.got.cif
#   From: 2010.05.17/outbox.cif.g08.bks.cpg/sg20_14_cif.got.tgz:26190.got - 2010.06.03 22:52:26.
