data_PCOD9320363
_publ_section_title
;
Structure prediction by ZEFSAII (Michael W. Deem and Ramdas Pophale) SiO2 
 PCOD9320363
Probable space group: C 2 2 21
;
_chemical_formula_sum "Si O2"
_cell_formula_units_Z 32
_cell_length_a 6.808755
_cell_length_b 12.316853
_cell_length_c 14.639581
_cell_angle_alpha 90.000000
_cell_angle_beta 90.000000
_cell_angle_gamma 90.000000
_cell_volume 1227.710902
_symmetry_space_group_name_H-M "C 2 2 21"
_symmetry_group_IT_number 20
_symmetry_cell_setting 'orthorhombic'
loop_
_space_group_symop_operation_xyz
x,y,z
-x,-y,1/2+z
x,-y,-z
-x,y,1/2-z
1/2+x,1/2+y,z
1/2-x,1/2-y,1/2+z
1/2+x,1/2-y,-z
1/2-x,1/2+y,1/2-z
loop_
_atom_site_type_symbol
_atom_site_label
_atom_site_fract_x
_atom_site_fract_y
_atom_site_fract_z
Si Si1 0.173504 0.602005 0.541461
Si Si2 0.815517 0.250028 0.870928
Si Si3 0.054635 0.020765 0.643284
Si Si4 0.719612 0.288515 0.666941
O O1 0.052747 0.500000 0.500000
O O2 0.237727 0.681999 0.459769
O O3 0.355327 0.540334 0.588690
O O4 0.108534 0.687591 0.619329
O O5 0.805257 0.120749 0.882189
O O6 0.713740 0.287302 0.777069
O O7 0.050042 0.272648 0.856859
O O8 0.000000 0.033995 0.750000
O O9 0.147453 0.903528 0.630407
#
# Coordination Sequence:
#
# PCOD9320363 Si02
#       4
#     8   8   8   8
#     4  11  24  43  72 106 148 188 245 309 356 441
#     4  10  22  46  70 107 150 188 250 306 365 445
#     4  11  22  46  77 105 149 197 246 303 372 440
#     4  10  23  44  73 106 144 200 241 304 375 432
#
# _framework density 26.064767
#
# number of rings (size 3 to 8) (size 9 to 14) (size 15 to 20)
#    0.000    1.500    5.000    1.500    7.000    0.000 
#    9.000    0.000    0.000    0.000    0.000    0.000 
#    0.000    0.000    0.000    0.000    0.000    0.000 
#
# Total GULP energy -89695.482755 kJ/mol
# GULP energy per Si atom -5605.967672 kJ/mol
# Density = 2.600544 g / cm^3
# Si number density = 26.064767 Si / 1000 Ang^3
#
#
#
# Elastic Constant Matrix: (Units=GPa)
#
#
# Indices 1 2 3 4 5 6 
#
# 1 87.5696 46.6192 27.6256 0.0000 0.0000 0.0000
# 2 46.6192 247.9355 49.5916 0.0000 0.0000 0.0000
# 3 27.6256 49.5916 170.8121 0.0000 0.0000 0.0000
# 4 0.0000 0.0000 0.0000 59.6820 0.0000 0.0000
# 5 0.0000 0.0000 0.0000 0.0000 28.9455 0.0000
# 6 0.0000 0.0000 0.0000 0.0000 0.0000 24.7303
#
#
#
# Elastic Compliance Matrix: (Units=1/GPa)
#
#
# Indices 1 2 3 4 5 6 
#
# 1 0.013034 -0.002154 -0.001483 0.000000 0.000000 0.000000
# 2 -0.002154 0.004638 -0.000998 0.000000 0.000000 0.000000
# 3 -0.001483 -0.000998 0.006384 0.000000 0.000000 0.000000
# 4 0.000000 0.000000 0.000000 0.016755 0.000000 0.000000
# 5 0.000000 0.000000 0.000000 0.000000 0.034548 0.000000
# 6 0.000000 0.000000 0.000000 0.000000 0.000000 0.040436
#
#
# Mechanical properties :
#
#
# Convention : Reuss Voigt Hill
#
# Bulk Modulus (GPa) = 67.63104 83.77664 75.70384
# Shear Modulus (GPa) = 38.46332 48.17029 43.31680
#
# Velocity S-wave (km/s) = 3.84563 4.30362 4.08105
# Velocity P-wave (km/s) = 6.76181 7.54363 7.16339
#
# Compressibility (1/GPa) = 0.01478611
#
# Stress axis : x y z
#
# Youngs Moduli (GPa) = 76.72217 215.60955 156.64277
#
# Poissons Ratio (x) = 0.46448 0.23223
# Poissons Ratio (y) = 0.16528 0.15635
# Poissons Ratio (z) = 0.11375 0.21521
#
# Static dielectric constant tensor:
#      x y z
#    x 2.124200 0.000000 0.000000 
#    y 0.000000 2.003540 0.000000 
#    z 0.000000 0.000000 2.083470 
# 
# From -- ./inp_files/18208.got.cif
#   From: 2010.05.17/outbox.cif.g08.bks.cpg/sg20_10_cif.got.tgz:18208.got - 2010.06.03 22:52:26.
