data_PCOD9320425
_publ_section_title
;
Structure prediction by ZEFSAII (Michael W. Deem and Ramdas Pophale) SiO2 
 PCOD9320425
Probable space group: C 2 2 21
;
_chemical_formula_sum "Si O2"
_cell_formula_units_Z 64
_cell_length_a 12.679760
_cell_length_b 18.867989
_cell_length_c 11.471082
_cell_angle_alpha 90.000000
_cell_angle_beta 90.000000
_cell_angle_gamma 90.000000
_cell_volume 2744.359693
_symmetry_space_group_name_H-M "C 2 2 21"
_symmetry_group_IT_number 20
_symmetry_cell_setting 'orthorhombic'
loop_
_space_group_symop_operation_xyz
x,y,z
-x,-y,1/2+z
x,-y,-z
-x,y,1/2-z
1/2+x,1/2+y,z
1/2-x,1/2-y,1/2+z
1/2+x,1/2-y,-z
1/2-x,1/2+y,1/2-z
loop_
_atom_site_type_symbol
_atom_site_label
_atom_site_fract_x
_atom_site_fract_y
_atom_site_fract_z
Si Si1 0.165384 0.886149 0.526678
Si Si2 0.608357 0.918672 0.033560
Si Si3 0.845180 0.663163 0.749661
Si Si4 0.879003 0.938918 0.733251
Si Si5 0.754417 0.804788 0.673966
Si Si6 0.384181 0.597210 0.765403
Si Si7 0.918409 0.735089 0.977441
Si Si8 0.925129 0.686113 0.359984
O O1 0.286017 0.874143 0.493615
O O2 0.166740 0.937485 0.635859
O O3 0.118440 0.913391 0.405522
O O4 0.108911 0.814130 0.561975
O O5 0.600277 0.897366 0.169067
O O6 0.539380 0.885624 0.929722
O O7 0.621475 0.000000 0.000000
O O8 0.835035 0.739511 0.686550
O O9 0.721931 0.639692 0.767370
O O10 0.904529 0.681436 0.869704
O O11 0.813302 0.880411 0.662362
O O12 0.000000 0.916946 0.750000
O O13 0.879363 0.021604 0.698902
O O14 0.671523 0.786824 0.571902
O O15 0.687346 0.807767 0.795836
O O16 0.500000 0.631137 0.750000
O O17 0.031598 0.739679 0.042133
O O18 0.000000 0.693193 0.250000
#
# Coordination Sequence:
#
# PCOD9320425 Si02
#       8
#     8   8   8   8   8   8   8   8
#     4  11  20  39  65  92 129 170 222 273 337 411
#     4  11  22  43  71  93 130 183 226 277 337 412
#     4  11  23  40  67 102 133 173 237 288 341 400
#     4  11  23  40  62  99 132 172 221 276 349 409
#     4  11  22  42  67  95 137 181 222 287 346 409
#     4  10  23  39  65  95 132 177 221 270 340 432
#     4  11  23  41  63 105 130 174 231 290 341 398
#     4  10  24  42  67  93 135 182 231 270 346 412
#
# _framework density 23.320558999999999
#
# number of rings (size 3 to 8) (size 9 to 14) (size 15 to 20)
#    0.000    1.250    5.000    1.875    1.750    2.500 
#    2.250    1.875    0.000    0.000    0.000    0.000 
#    0.000    0.000    0.000    0.000    0.000    0.000 
#
# Total GULP energy -178379.298419 kJ/mol
# GULP energy per Si atom -5574.353076 kJ/mol
# Density = 2.326748 g / cm^3
# Si number density = 23.320559 Si / 1000 Ang^3
#
#
#
# Elastic Constant Matrix: (Units=GPa)
#
#
# Indices 1 2 3 4 5 6 
#
# 1 61.2091 14.0702 1.4561 0.0000 0.0000 0.0000
# 2 14.0702 121.6623 23.0554 0.0000 0.0000 0.0000
# 3 1.4561 23.0554 102.1943 0.0000 0.0000 0.0000
# 4 0.0000 0.0000 0.0000 32.9680 0.0000 0.0000
# 5 0.0000 0.0000 0.0000 0.0000 28.0253 0.0000
# 6 0.0000 0.0000 0.0000 0.0000 0.0000 13.4215
#
#
#
# Elastic Compliance Matrix: (Units=1/GPa)
#
#
# Indices 1 2 3 4 5 6 
#
# 1 0.016788 -0.001981 0.000208 0.000000 0.000000 0.000000
# 2 -0.001981 0.008820 -0.001962 0.000000 0.000000 0.000000
# 3 0.000208 -0.001962 0.010225 0.000000 0.000000 0.000000
# 4 0.000000 0.000000 0.000000 0.030332 0.000000 0.000000
# 5 0.000000 0.000000 0.000000 0.000000 0.035682 0.000000
# 6 0.000000 0.000000 0.000000 0.000000 0.000000 0.074507
#
#
# Mechanical properties :
#
#
# Convention : Reuss Voigt Hill
#
# Bulk Modulus (GPa) = 35.25678 40.24768 37.75223
# Shear Modulus (GPa) = 25.86932 31.31523 28.59228
#
# Velocity S-wave (km/s) = 3.33422 3.66842 3.50530
# Velocity P-wave (km/s) = 5.47484 5.93625 5.71020
#
# Compressibility (1/GPa) = 0.02836334
#
# Stress axis : x y z
#
# Youngs Moduli (GPa) = 59.56694 113.37484 97.80064
#
# Poissons Ratio (x) = 0.22458 -0.02031
# Poissons Ratio (y) = 0.11799 0.19185
# Poissons Ratio (z) = -0.01237 0.22240
#
# Static dielectric constant tensor:
#      x y z
#    x 2.052190 0.000000 0.000000 
#    y 0.000000 1.933830 0.000000 
#    z 0.000000 0.000000 2.070200 
# 
# From -- ./inp_files/15320.got.cif
#   From: 2010.05.17/outbox.cif.g08.bks.cpg/sg20_8_cif.got.tgz:15320.got - 2010.06.03 22:52:26.
