data_PCOD9320497
_publ_section_title
;
Structure prediction by ZEFSAII (Michael W. Deem and Ramdas Pophale) SiO2 
 PCOD9320497
Probable space group: C 2 2 21
;
_chemical_formula_sum "Si O2"
_cell_formula_units_Z 32
_cell_length_a 16.931124
_cell_length_b 5.046336
_cell_length_c 16.012049
_cell_angle_alpha 90.000000
_cell_angle_beta 90.000000
_cell_angle_gamma 90.000000
_cell_volume 1368.071717
_symmetry_space_group_name_H-M "C 2 2 21"
_symmetry_group_IT_number 20
_symmetry_cell_setting 'orthorhombic'
loop_
_space_group_symop_operation_xyz
x,y,z
-x,-y,1/2+z
x,-y,-z
-x,y,1/2-z
1/2+x,1/2+y,z
1/2-x,1/2-y,1/2+z
1/2+x,1/2-y,-z
1/2-x,1/2+y,1/2-z
loop_
_atom_site_type_symbol
_atom_site_label
_atom_site_fract_x
_atom_site_fract_y
_atom_site_fract_z
Si Si1 0.682256 0.000000 0.000000
Si Si2 0.065541 0.842647 0.912544
Si Si3 0.204122 0.500000 0.500000
Si Si4 0.595183 0.331498 0.241824
Si Si5 0.105301 0.674934 0.657193
O O1 0.622193 0.904689 0.071265
O O2 0.739444 0.248397 0.006696
O O3 0.984189 0.730531 0.874160
O O4 0.108227 0.044057 0.848911
O O5 0.050867 0.000000 0.000000
O O6 0.149405 0.535990 0.580802
O O7 0.500000 0.346872 0.250000
O O8 0.632350 0.538190 0.308827
O O9 0.613497 0.032534 0.266998
#
# Coordination Sequence:
#
# PCOD9320497 Si02
#       5
#     4   8   4   8   8
#     4  12  27  46  71 106 146 194 244 294 347 450
#     4  11  26  46  80 106 144 189 245 300 373 424
#     4  12  27  46  71 102 148 198 240 290 363 432
#     4  10  23  41  70 109 141 171 235 307 352 422
#     4  11  25  44  73 105 140 183 240 296 358 425
#
# _framework density 23.390588000000001
#
# number of rings (size 3 to 8) (size 9 to 14) (size 15 to 20)
#    0.000    1.000    1.250    4.500   19.250    0.000 
#    0.000    5.000    0.000    0.000    0.000    0.000 
#    0.000    0.000    0.000    0.000    0.000    0.000 
#
# Total GULP energy -89429.035516 kJ/mol
# GULP energy per Si atom -5589.314720 kJ/mol
# Density = 2.333735 g / cm^3
# Si number density = 23.390588 Si / 1000 Ang^3
#
#
#
# Elastic Constant Matrix: (Units=GPa)
#
#
# Indices 1 2 3 4 5 6 
#
# 1 52.1863 40.0853 16.8947 0.0000 0.0000 0.0000
# 2 40.0853 187.5889 41.0317 0.0000 0.0000 0.0000
# 3 16.8947 41.0317 109.6887 0.0000 0.0000 0.0000
# 4 0.0000 0.0000 0.0000 40.2829 0.0000 0.0000
# 5 0.0000 0.0000 0.0000 0.0000 -13.2834 0.0000
# 6 0.0000 0.0000 0.0000 0.0000 0.0000 42.2391
#
#
#
# Elastic Compliance Matrix: (Units=1/GPa)
#
#
# Indices 1 2 3 4 5 6 
#
# 1 0.023275 -0.004563 -0.001878 0.000000 0.000000 0.000000
# 2 -0.004563 0.006700 -0.001804 0.000000 0.000000 0.000000
# 3 -0.001878 -0.001804 0.010081 0.000000 0.000000 0.000000
# 4 0.000000 0.000000 0.000000 0.024824 0.000000 0.000000
# 5 0.000000 0.000000 0.000000 0.000000 -0.075282 0.000000
# 6 0.000000 0.000000 0.000000 0.000000 0.000000 0.023675
#
#
# Mechanical properties :
#
#
# Convention : Reuss Voigt Hill
#
# Bulk Modulus (GPa) = 42.43235 60.60969 51.52102
# Shear Modulus (GPa) = 132.91613 30.61120 81.76366
#
# Velocity S-wave (km/s) = 7.54639 3.62152 5.91876
# Velocity P-wave (km/s) = 9.70107 6.59207 8.29356
#
# Compressibility (1/GPa) = 0.02356693
#
# Stress axis : x y z
#
# Youngs Moduli (GPa) = 42.96478 149.24660 99.19966
#
# Poissons Ratio (x) = 0.68097 0.18631
# Poissons Ratio (y) = 0.19604 0.17892
# Poissons Ratio (z) = 0.08069 0.26919
#
# Static dielectric constant tensor:
#      x y z
#    x 1.890380 0.000000 0.000000 
#    y 0.000000 1.872890 0.000000 
#    z 0.000000 0.000000 1.938480 
# 
# From -- ./inp_files/21032.got.cif
#   From: 2010.05.17/outbox.cif.g08.bks.cpg/sg20_11_cif.got.tgz:21032.got - 2010.06.03 22:52:26.
