data_PCOD9320561
_publ_section_title
;
Structure prediction by ZEFSAII (Michael W. Deem and Ramdas Pophale) SiO2 
 PCOD9320561
Probable space group: C 2 2 21
;
_chemical_formula_sum "Si O2"
_cell_formula_units_Z 32
_cell_length_a 7.351210
_cell_length_b 7.481440
_cell_length_c 21.004393
_cell_angle_alpha 90.000000
_cell_angle_beta 90.000000
_cell_angle_gamma 90.000000
_cell_volume 1155.191972
_symmetry_space_group_name_H-M "C 2 2 21"
_symmetry_group_IT_number 20
_symmetry_cell_setting 'orthorhombic'
loop_
_space_group_symop_operation_xyz
x,y,z
-x,-y,1/2+z
x,-y,-z
-x,y,1/2-z
1/2+x,1/2+y,z
1/2-x,1/2-y,1/2+z
1/2+x,1/2-y,-z
1/2-x,1/2+y,1/2-z
loop_
_atom_site_type_symbol
_atom_site_label
_atom_site_fract_x
_atom_site_fract_y
_atom_site_fract_z
Si Si1 0.156790 0.181022 0.962842
Si Si2 0.460890 0.813372 0.408177
Si Si3 0.868032 0.590412 0.307226
Si Si4 0.020384 0.967291 0.156449
O O1 0.328501 0.235881 0.920815
O O2 0.996273 0.121439 0.914613
O O3 0.114690 0.310325 0.020692
O O4 0.209748 0.000000 0.000000
O O5 0.383525 0.655088 0.362321
O O6 0.445111 0.997267 0.371157
O O7 0.878423 0.805063 0.309339
O O8 0.000000 0.531398 0.250000
O O9 0.661248 0.522114 0.306545
#
# Coordination Sequence:
#
# PCOD9320561 Si02
#       4
#     8   8   8   8
#     4  10  23  42  78 116 155 202 261 333 414 483
#     4  11  25  47  75 114 159 203 261 335 407 480
#     4  12  30  47  78 107 155 215 272 325 394 476
#     4  11  26  49  71 111 150 201 262 325 399 470
#
# _framework density 27.701021000000001
#
# number of rings (size 3 to 8) (size 9 to 14) (size 15 to 20)
#    0.000    1.000    2.500    1.500   14.000    1.000 
#    0.000    0.000    0.000    0.000    0.000    0.000 
#    0.000    0.000    0.000    0.000    0.000    0.000 
#
# Total GULP energy -89599.203369 kJ/mol
# GULP energy per Si atom -5599.950211 kJ/mol
# Density = 2.763797 g / cm^3
# Si number density = 27.701021 Si / 1000 Ang^3
#
#
#
# Elastic Constant Matrix: (Units=GPa)
#
#
# Indices 1 2 3 4 5 6 
#
# 1 91.7024 51.1027 5.3885 0.0000 0.0000 0.0000
# 2 51.1027 201.9364 54.3143 0.0000 0.0000 0.0000
# 3 5.3885 54.3143 74.4851 0.0000 0.0000 0.0000
# 4 0.0000 0.0000 0.0000 54.0622 0.0000 0.0000
# 5 0.0000 0.0000 0.0000 0.0000 47.3265 0.0000
# 6 0.0000 0.0000 0.0000 0.0000 0.0000 43.9936
#
#
#
# Elastic Compliance Matrix: (Units=1/GPa)
#
#
# Indices 1 2 3 4 5 6 
#
# 1 0.012886 -0.003745 0.001798 0.000000 0.000000 0.000000
# 2 -0.003745 0.007248 -0.005015 0.000000 0.000000 0.000000
# 3 0.001798 -0.005015 0.016952 0.000000 0.000000 0.000000
# 4 0.000000 0.000000 0.000000 0.018497 0.000000 0.000000
# 5 0.000000 0.000000 0.000000 0.000000 0.021130 0.000000
# 6 0.000000 0.000000 0.000000 0.000000 0.000000 0.022731
#
#
# Mechanical properties :
#
#
# Convention : Reuss Voigt Hill
#
# Bulk Modulus (GPa) = 43.16931 65.52610 54.34770
# Shear Modulus (GPa) = 41.29245 46.23102 43.76174
#
# Velocity S-wave (km/s) = 3.86508 4.08968 3.97897
# Velocity P-wave (km/s) = 5.96123 6.78283 6.38526
#
# Compressibility (1/GPa) = 0.02316460
#
# Stress axis : x y z
#
# Youngs Moduli (GPa) = 77.60392 137.96020 58.98988
#
# Poissons Ratio (x) = 0.51661 -0.10609
# Poissons Ratio (y) = 0.29060 0.29581
# Poissons Ratio (z) = -0.13956 0.69182
#
# Static dielectric constant tensor:
#      x y z
#    x 2.208570 0.000000 0.000000 
#    y 0.000000 2.133450 0.000000 
#    z 0.000000 0.000000 2.213640 
# 
# From -- ./inp_files/26351.got.cif
#   From: 2010.05.17/outbox.cif.g08.bks.cpg/sg20_14_cif.got.tgz:26351.got - 2010.06.03 22:52:26.
