data_PCOD9320420
_publ_section_title
;
Structure prediction by ZEFSAII (Michael W. Deem and Ramdas Pophale) SiO2 
 PCOD9320420
Probable space group: C 2 2 21
;
_chemical_formula_sum "Si O2"
_cell_formula_units_Z 48
_cell_length_a 8.414238
_cell_length_b 26.531879
_cell_length_c 8.901802
_cell_angle_alpha 90.000000
_cell_angle_beta 90.000000
_cell_angle_gamma 90.000000
_cell_volume 1987.287634
_symmetry_space_group_name_H-M "C 2 2 21"
_symmetry_group_IT_number 20
_symmetry_cell_setting 'orthorhombic'
loop_
_space_group_symop_operation_xyz
x,y,z
-x,-y,1/2+z
x,-y,-z
-x,y,1/2-z
1/2+x,1/2+y,z
1/2-x,1/2-y,1/2+z
1/2+x,1/2-y,-z
1/2-x,1/2+y,1/2-z
loop_
_atom_site_type_symbol
_atom_site_label
_atom_site_fract_x
_atom_site_fract_y
_atom_site_fract_z
Si Si1 0.418753 0.000000 0.000000
Si Si2 0.153299 0.113296 0.847700
Si Si3 0.710796 0.298020 0.320508
Si Si4 0.275109 0.345784 0.889533
Si Si5 0.344182 0.437914 0.672626
Si Si6 0.000000 0.429726 0.250000
Si Si7 0.000000 0.238786 0.250000
Si Si8 0.500000 0.791003 0.750000
O O1 0.524107 0.962186 0.097843
O O2 0.299491 0.025753 0.122397
O O3 0.166543 0.174661 0.836199
O O4 0.331489 0.096751 0.792545
O O5 0.000000 0.096158 0.750000
O O6 0.126353 0.092491 0.016377
O O7 0.690004 0.343658 0.435775
O O8 0.608526 0.247947 0.341511
O O9 0.886558 0.276868 0.336928
O O10 0.301148 0.395980 0.796534
O O11 0.384376 0.299569 0.833810
O O12 0.098896 0.327041 0.856351
O O13 0.500000 0.463146 0.750000
#
# Coordination Sequence:
#
# PCOD9320420 Si02
#       8
#     4   8   8   8   8   4   4   4
#     4  10  26  48  74 104 138 178 234 308 388 452
#     4  11  24  43  70 103 142 190 237 290 355 426
#     4  11  22  40  64  98 142 192 237 281 336 405
#     4  11  23  40  65  96 138 186 234 288 343 416
#     4  11  25  46  72 105 139 178 237 302 372 447
#     4  10  25  47  70 104 138 174 232 299 369 448
#     4  10  23  38  62  98 144 190 236 286 331 402
#     4  10  24  37  60 102 144 188 240 275 334 406
#
# _framework density 24.153524999999998
#
# number of rings (size 3 to 8) (size 9 to 14) (size 15 to 20)
#    0.000    1.333    1.667    2.500    0.000   15.333 
#    0.000    0.833    0.000    0.000    0.000    0.000 
#    0.000    0.000    0.000    0.000    0.000    0.000 
#
# Total GULP energy -133948.616402 kJ/mol
# GULP energy per Si atom -5581.192350 kJ/mol
# Density = 2.409855 g / cm^3
# Si number density = 24.153525 Si / 1000 Ang^3
#
#
#
# Elastic Constant Matrix: (Units=GPa)
#
#
# Indices 1 2 3 4 5 6 
#
# 1 114.9562 14.8624 33.0581 0.0000 0.0000 0.0000
# 2 14.8624 55.8278 15.8797 0.0000 0.0000 0.0000
# 3 33.0581 15.8797 68.3919 0.0000 0.0000 0.0000
# 4 0.0000 0.0000 0.0000 23.8440 0.0000 0.0000
# 5 0.0000 0.0000 0.0000 0.0000 39.4238 0.0000
# 6 0.0000 0.0000 0.0000 0.0000 0.0000 9.5064
#
#
#
# Elastic Compliance Matrix: (Units=1/GPa)
#
#
# Indices 1 2 3 4 5 6 
#
# 1 0.010205 -0.001407 -0.004606 0.000000 0.000000 0.000000
# 2 -0.001407 0.019373 -0.003818 0.000000 0.000000 0.000000
# 3 -0.004606 -0.003818 0.017735 0.000000 0.000000 0.000000
# 4 0.000000 0.000000 0.000000 0.041939 0.000000 0.000000
# 5 0.000000 0.000000 0.000000 0.000000 0.025365 0.000000
# 6 0.000000 0.000000 0.000000 0.000000 0.000000 0.105193
#
#
# Mechanical properties :
#
#
# Convention : Reuss Voigt Hill
#
# Bulk Modulus (GPa) = 36.16562 40.75291 38.45927
# Shear Modulus (GPa) = 20.10540 26.24656 23.17598
#
# Velocity S-wave (km/s) = 2.88826 3.30002 3.10099
# Velocity P-wave (km/s) = 5.11160 5.60618 5.36460
#
# Compressibility (1/GPa) = 0.02765057
#
# Stress axis : x y z
#
# Youngs Moduli (GPa) = 97.98658 51.61895 56.38672
#
# Poissons Ratio (x) = 0.07261 0.25974
# Poissons Ratio (y) = 0.13783 0.21529
# Poissons Ratio (z) = 0.45136 0.19709
#
# Static dielectric constant tensor:
#      x y z
#    x 1.997080 0.000000 0.000000 
#    y 0.000000 1.906670 0.000000 
#    z 0.000000 0.000000 1.990660 
# 
# From -- ./inp_files/6608.got.cif
#   From: 2010.05.17/outbox.cif.g08.bks.cpg/sg20_4_cif.got.tgz:6608.got - 2010.06.03 22:52:26.
