data_PCOD9320217
_publ_section_title
;
Structure prediction by ZEFSAII (Michael W. Deem and Ramdas Pophale) SiO2 
 PCOD9320217
Probable space group: C 2 2 21
;
_chemical_formula_sum "Si O2"
_cell_formula_units_Z 56
_cell_length_a 14.675170
_cell_length_b 4.855210
_cell_length_c 29.500409
_cell_angle_alpha 90.000000
_cell_angle_beta 90.000000
_cell_angle_gamma 90.000000
_cell_volume 2101.934590
_symmetry_space_group_name_H-M "C 2 2 21"
_symmetry_group_IT_number 20
_symmetry_cell_setting 'orthorhombic'
loop_
_space_group_symop_operation_xyz
x,y,z
-x,-y,1/2+z
x,-y,-z
-x,y,1/2-z
1/2+x,1/2+y,z
1/2-x,1/2-y,1/2+z
1/2+x,1/2-y,-z
1/2-x,1/2+y,1/2-z
loop_
_atom_site_type_symbol
_atom_site_label
_atom_site_fract_x
_atom_site_fract_y
_atom_site_fract_z
Si Si1 0.045391 0.297789 0.116923
Si Si2 0.978436 0.196362 0.556287
Si Si3 0.720144 0.563260 0.148670
Si Si4 0.626855 0.000000 0.500000
Si Si5 0.226459 0.848616 0.575991
Si Si6 0.305655 0.439359 0.746730
Si Si7 0.891857 0.061794 0.841441
Si Si8 0.830007 0.500000 0.500000
O O1 0.015105 0.603591 0.101421
O O2 0.149659 0.300783 0.133872
O O3 0.987193 0.111718 0.152007
O O4 0.033504 0.115705 0.071473
O O5 0.893885 0.282566 0.525064
O O6 0.064567 0.279277 0.526522
O O7 0.713698 0.345729 0.108391
O O8 0.679217 0.452639 0.195882
O O9 0.826482 0.652099 0.157126
O O10 0.682674 0.156739 0.538047
O O11 0.153738 0.952800 0.612008
O O12 0.270754 0.082315 0.543978
O O13 0.216202 0.618470 0.759560
O O14 0.370029 0.482381 0.789322
#
# Coordination Sequence:
#
# PCOD9320217 Si02
#       8
#     8   8   8   4   8   8   8   4
#     4  12  26  46  72 102 146 188 246 300 374 428
#     4  11  26  48  62  99 142 195 234 306 360 441
#     4  11  25  46  74 104 147 190 246 304 374 444
#     4  11  26  40  68  97 142 186 250 293 370 430
#     4  12  24  44  66 102 136 188 242 298 356 446
#     4  10  22  43  76 107 142 188 236 300 373 437
#     4  11  25  46  74 104 147 190 246 304 374 444
#     4  11  26  40  68  97 142 186 250 293 370 430
#
# _framework density 26.642120999999999
#
# number of rings (size 3 to 8) (size 9 to 14) (size 15 to 20)
#    0.000    0.857    4.286    1.714    6.000    2.857 
#    0.000    0.000    0.000    3.429    0.000    0.000 
#    0.000    0.000    0.000    0.000    0.000    0.000 
#
# Total GULP energy -156185.522518 kJ/mol
# GULP energy per Si atom -5578.054376 kJ/mol
# Density = 2.658148 g / cm^3
# Si number density = 26.642121 Si / 1000 Ang^3
#
#
#
# Elastic Constant Matrix: (Units=GPa)
#
#
# Indices 1 2 3 4 5 6 
#
# 1 79.3176 6.8846 16.7791 0.0000 0.0000 0.0000
# 2 6.8846 95.3548 18.2149 0.0000 0.0000 0.0000
# 3 16.7791 18.2149 180.3038 0.0000 0.0000 0.0000
# 4 0.0000 0.0000 0.0000 42.4143 0.0000 0.0000
# 5 0.0000 0.0000 0.0000 0.0000 33.5439 0.0000
# 6 0.0000 0.0000 0.0000 0.0000 0.0000 13.0386
#
#
#
# Elastic Compliance Matrix: (Units=1/GPa)
#
#
# Indices 1 2 3 4 5 6 
#
# 1 0.012909 -0.000716 -0.001129 0.000000 0.000000 0.000000
# 2 -0.000716 0.010733 -0.001018 0.000000 0.000000 0.000000
# 3 -0.001129 -0.001018 0.005754 0.000000 0.000000 0.000000
# 4 0.000000 0.000000 0.000000 0.023577 0.000000 0.000000
# 5 0.000000 0.000000 0.000000 0.000000 0.029812 0.000000
# 6 0.000000 0.000000 0.000000 0.000000 0.000000 0.076696
#
#
# Mechanical properties :
#
#
# Convention : Reuss Voigt Hill
#
# Bulk Modulus (GPa) = 42.24747 48.74816 45.49781
# Shear Modulus (GPa) = 28.88572 38.67253 33.77913
#
# Velocity S-wave (km/s) = 3.29631 3.81406 3.56460
# Velocity P-wave (km/s) = 5.51175 6.14274 5.83578
#
# Compressibility (1/GPa) = 0.02367006
#
# Stress axis : x y z
#
# Youngs Moduli (GPa) = 77.46816 93.16828 173.79046
#
# Poissons Ratio (x) = 0.06674 0.19619
# Poissons Ratio (y) = 0.05549 0.17686
# Poissons Ratio (z) = 0.08745 0.09481
#
# Static dielectric constant tensor:
#      x y z
#    x 2.306280 0.000000 0.000000 
#    y 0.000000 2.149380 0.000000 
#    z 0.000000 0.000000 2.050840 
# 
# From -- ./inp_files/31307.got.cif
#   From: 2010.05.17/outbox.cif.g08.bks.cpg/sg20_16_cif.got.tgz:31307.got - 2010.06.03 22:52:26.
