data_PCOD9320285
_publ_section_title
;
Structure prediction by ZEFSAII (Michael W. Deem and Ramdas Pophale) SiO2 
 PCOD9320285
Probable space group: C 2 2 21
;
_chemical_formula_sum "Si O2"
_cell_formula_units_Z 56
_cell_length_a 13.668033
_cell_length_b 6.018708
_cell_length_c 29.311359
_cell_angle_alpha 90.000000
_cell_angle_beta 90.000000
_cell_angle_gamma 90.000000
_cell_volume 2411.266693
_symmetry_space_group_name_H-M "C 2 2 21"
_symmetry_group_IT_number 20
_symmetry_cell_setting 'orthorhombic'
loop_
_space_group_symop_operation_xyz
x,y,z
-x,-y,1/2+z
x,-y,-z
-x,y,1/2-z
1/2+x,1/2+y,z
1/2-x,1/2-y,1/2+z
1/2+x,1/2-y,-z
1/2-x,1/2+y,1/2-z
loop_
_atom_site_type_symbol
_atom_site_label
_atom_site_fract_x
_atom_site_fract_y
_atom_site_fract_z
Si Si1 0.988577 0.616417 0.656687
Si Si2 0.000000 0.883549 0.750000
Si Si3 0.466761 0.540954 0.426700
Si Si4 0.367615 0.500000 0.000000
Si Si5 0.833831 0.350091 0.611206
Si Si6 0.778906 0.256986 0.451029
Si Si7 0.198844 0.510553 0.362238
Si Si8 0.786043 0.974711 0.734695
O O1 0.085280 0.469656 0.648799
O O2 0.999464 0.734007 0.704801
O O3 0.985320 0.792179 0.615171
O O4 0.888205 0.481758 0.651375
O O5 0.899242 0.017164 0.746994
O O6 0.563728 0.510009 0.455903
O O7 0.414379 0.326497 0.405578
O O8 0.382643 0.644220 0.459104
O O9 0.296715 0.710536 0.991719
O O10 0.808092 0.503849 0.568837
O O11 0.733926 0.240233 0.627927
O O12 0.728224 0.138847 0.407870
O O13 0.263604 0.572475 0.318530
O O14 0.762592 0.723000 0.755743
#
# Coordination Sequence:
#
# PCOD9320285 Si02
#       8
#     8   4   8   4   8   8   8   8
#     4  11  24  45  70 107 141 194 248 307 382 448
#     4  12  26  46  76 108 150 200 258 316 390 458
#     4  10  24  45  67 106 143 190 245 307 375 454
#     4  12  24  42  74 102 144 190 244 306 380 460
#     4  10  22  44  72  96 146 187 240 308 368 454
#     4  10  24  43  68 103 138 190 238 305 378 452
#     4  11  24  45  71 101 147 192 244 310 380 448
#     4  12  29  48  74 114 154 201 263 321 377 459
#
# _framework density 23.224308000000001
#
# number of rings (size 3 to 8) (size 9 to 14) (size 15 to 20)
#    0.000    1.143    1.429    4.286    6.000    4.000 
#    0.000    5.714    0.000    0.000    0.000    0.000 
#    0.000    0.000    0.000    0.000    0.000    0.000 
#
# Total GULP energy -156463.278700 kJ/mol
# GULP energy per Si atom -5587.974239 kJ/mol
# Density = 2.317145 g / cm^3
# Si number density = 23.224308 Si / 1000 Ang^3
#
#
#
# Elastic Constant Matrix: (Units=GPa)
#
#
# Indices 1 2 3 4 5 6 
#
# 1 98.9758 16.0582 10.9839 0.0000 0.0000 0.0000
# 2 16.0582 55.8447 7.0879 0.0000 0.0000 0.0000
# 3 10.9839 7.0879 71.8485 0.0000 0.0000 0.0000
# 4 0.0000 0.0000 0.0000 21.5212 0.0000 0.0000
# 5 0.0000 0.0000 0.0000 0.0000 24.9623 0.0000
# 6 0.0000 0.0000 0.0000 0.0000 0.0000 -174.4814
#
#
#
# Elastic Compliance Matrix: (Units=1/GPa)
#
#
# Indices 1 2 3 4 5 6 
#
# 1 0.010726 -0.002913 -0.001352 0.000000 0.000000 0.000000
# 2 -0.002913 0.018925 -0.001422 0.000000 0.000000 0.000000
# 3 -0.001352 -0.001422 0.014265 0.000000 0.000000 0.000000
# 4 0.000000 0.000000 0.000000 0.046466 0.000000 0.000000
# 5 0.000000 0.000000 0.000000 0.000000 0.040060 0.000000
# 6 0.000000 0.000000 0.000000 0.000000 0.000000 -0.005731
#
#
# Mechanical properties :
#
#
# Convention : Reuss Voigt Hill
#
# Bulk Modulus (GPa) = 30.72897 32.76989 31.74943
# Shear Modulus (GPa) = 34.02934 -12.76364 10.63285
#
# Velocity S-wave (km/s) = 3.83201 -2.34686 2.14202
# Velocity P-wave (km/s) = 5.73054 2.60713 4.45176
#
# Compressibility (1/GPa) = 0.03254258
#
# Stress axis : x y z
#
# Youngs Moduli (GPa) = 93.23030 52.84078 70.10073
#
# Poissons Ratio (x) = 0.15391 0.09481
# Poissons Ratio (y) = 0.27155 0.09966
# Poissons Ratio (z) = 0.12609 0.07512
#
# Static dielectric constant tensor:
#      x y z
#    x 1.860250 0.000000 0.000000 
#    y 0.000000 1.930180 0.000000 
#    z 0.000000 0.000000 1.894300 
# 
# From -- ./inp_files/31308.got.cif
#   From: 2010.05.17/outbox.cif.g08.bks.cpg/sg20_16_cif.got.tgz:31308.got - 2010.06.03 22:52:26.
