data_PCOD9320978
_publ_section_title
;
Structure prediction by ZEFSAII (Michael W. Deem and Ramdas Pophale) SiO2 
 PCOD9320978
Probable space group: C 2 2 21
;
_chemical_formula_sum "Si O2"
_cell_formula_units_Z 52
_cell_length_a 20.995804
_cell_length_b 17.775765
_cell_length_c 6.024572
_cell_angle_alpha 90.000000
_cell_angle_beta 90.000000
_cell_angle_gamma 90.000000
_cell_volume 2248.469543
_symmetry_space_group_name_H-M "C 2 2 21"
_symmetry_group_IT_number 20
_symmetry_cell_setting 'orthorhombic'
loop_
_space_group_symop_operation_xyz
x,y,z
-x,-y,1/2+z
x,-y,-z
-x,y,1/2-z
1/2+x,1/2+y,z
1/2-x,1/2-y,1/2+z
1/2+x,1/2-y,-z
1/2-x,1/2+y,1/2-z
loop_
_atom_site_type_symbol
_atom_site_label
_atom_site_fract_x
_atom_site_fract_y
_atom_site_fract_z
Si Si1 0.432754 0.927040 0.256039
Si Si2 0.317597 0.000000 0.500000
Si Si3 0.856634 0.679130 0.020919
Si Si4 0.428413 0.519702 0.242495
Si Si5 0.561675 0.208987 0.097850
Si Si6 0.884561 0.175481 0.278311
Si Si7 0.242263 0.919938 0.872957
O O1 0.500000 0.970379 0.250000
O O2 0.369068 0.970703 0.320471
O O3 0.412243 0.880309 0.041248
O O4 0.444395 0.862476 0.438498
O O5 0.273326 0.941544 0.633298
O O6 0.863980 0.755425 0.880641
O O7 0.872332 0.698649 0.271337
O O8 0.791155 0.634884 0.999065
O O9 0.404804 0.500000 0.500000
O O10 0.500000 0.487305 0.250000
O O11 0.429494 0.608796 0.200486
O O12 0.395999 0.500000 0.000000
O O13 0.500000 0.216161 0.250000
O O14 0.574054 0.284076 0.964312
O O15 0.821790 0.128257 0.346885
O O16 0.235824 0.000000 0.000000
#
# Coordination Sequence:
#
# PCOD9320978 Si02
#       7
#     8   4   8   8   8   8   8
#     4  11  23  42  67 107 141 181 236 291 372 439
#     4  12  26  42  70 102 140 198 242 294 358 444
#     4  11  25  44  70 104 143 183 235 308 368 448
#     4  10  24  46  72 107 151 196 251 315 387 465
#     4  11  24  43  73 103 143 182 235 306 379 447
#     4  11  29  42  73 107 140 189 253 304 385 444
#     4  12  27  49  72  97 148 195 247 299 369 455
#
# _framework density 23.126842
#
# number of rings (size 3 to 8) (size 9 to 14) (size 15 to 20)
#    0.000    0.923    4.615    0.462    7.538    3.692 
#    0.000    0.000    0.000    0.000    0.000    0.000 
#    0.000    0.000    0.000    0.000    0.000    0.000 
#
# Total GULP energy -144944.264212 kJ/mol
# GULP energy per Si atom -5574.779393 kJ/mol
# Density = 2.307420 g / cm^3
# Si number density = 23.126842 Si / 1000 Ang^3
#
#
#
# Elastic Constant Matrix: (Units=GPa)
#
#
# Indices 1 2 3 4 5 6 
#
# 1 97.3437 8.6668 -4.6590 0.0000 0.0000 0.0000
# 2 8.6668 67.9516 17.6380 0.0000 0.0000 0.0000
# 3 -4.6590 17.6380 73.5052 0.0000 0.0000 0.0000
# 4 0.0000 0.0000 0.0000 -1.9292 0.0000 0.0000
# 5 0.0000 0.0000 0.0000 0.0000 -30.4199 0.0000
# 6 0.0000 0.0000 0.0000 0.0000 0.0000 39.2803
#
#
#
# Elastic Compliance Matrix: (Units=1/GPa)
#
#
# Indices 1 2 3 4 5 6 
#
# 1 0.010466 -0.001607 0.001049 0.000000 0.000000 0.000000
# 2 -0.001607 0.015941 -0.003927 0.000000 0.000000 0.000000
# 3 0.001049 -0.003927 0.014613 0.000000 0.000000 0.000000
# 4 0.000000 0.000000 0.000000 -0.518358 0.000000 0.000000
# 5 0.000000 0.000000 0.000000 0.000000 -0.032873 0.000000
# 6 0.000000 0.000000 0.000000 0.000000 0.000000 0.025458
#
#
# Mechanical properties :
#
#
# Convention : Reuss Voigt Hill
#
# Bulk Modulus (GPa) = 31.20132 31.34357 31.27245
# Shear Modulus (GPa) = -10.75039 15.86322 2.55641
#
# Velocity S-wave (km/s) = -2.15837 2.62185 1.05252
# Velocity P-wave (km/s) = 2.70357 4.76947 3.87667
#
# Compressibility (1/GPa) = 0.03204993
#
# Stress axis : x y z
#
# Youngs Moduli (GPa) = 95.54586 62.73272 68.43100
#
# Poissons Ratio (x) = 0.10082 -0.07179
# Poissons Ratio (y) = 0.15356 0.26872
# Poissons Ratio (z) = -0.10023 0.24635
#
# Static dielectric constant tensor:
#      x y z
#    x 1.890350 0.000000 0.000000 
#    y 0.000000 1.919070 0.000000 
#    z 0.000000 0.000000 1.987750 
# 
# From -- ./inp_files/3235.got.cif
#   From: 2010.05.17/outbox.cif.g08.bks.cpg/sg20_2_cif.got.tgz:3235.got - 2010.06.03 22:52:26.
