data_PCOD9320178
_publ_section_title
;
Structure prediction by ZEFSAII (Michael W. Deem and Ramdas Pophale) SiO2 
 PCOD9320178
Probable space group: C 2 2 21
;
_chemical_formula_sum "Si O2"
_cell_formula_units_Z 48
_cell_length_a 14.131637
_cell_length_b 12.577506
_cell_length_c 12.178918
_cell_angle_alpha 90.000000
_cell_angle_beta 90.000000
_cell_angle_gamma 90.000000
_cell_volume 2164.690009
_symmetry_space_group_name_H-M "C 2 2 21"
_symmetry_group_IT_number 20
_symmetry_cell_setting 'orthorhombic'
loop_
_space_group_symop_operation_xyz
x,y,z
-x,-y,1/2+z
x,-y,-z
-x,y,1/2-z
1/2+x,1/2+y,z
1/2-x,1/2-y,1/2+z
1/2+x,1/2-y,-z
1/2-x,1/2+y,1/2-z
loop_
_atom_site_type_symbol
_atom_site_label
_atom_site_fract_x
_atom_site_fract_y
_atom_site_fract_z
Si Si1 0.090908 0.262597 0.966625
Si Si2 0.815669 0.105165 0.202870
Si Si3 0.567697 0.616232 0.508709
Si Si4 0.093977 0.451011 0.818973
Si Si5 0.863487 0.119344 0.744774
Si Si6 0.659784 0.813968 0.179630
O O1 0.077558 0.382832 0.928082
O O2 0.108178 0.189188 0.859743
O O3 0.001188 0.210605 0.026756
O O4 0.172587 0.267426 0.057133
O O5 0.700867 0.090894 0.217015
O O6 0.861901 0.212586 0.246786
O O7 0.866428 0.007761 0.265684
O O8 0.843208 0.101757 0.073455
O O9 0.519434 0.500000 0.500000
O O10 0.589093 0.640441 0.636583
O O11 0.098400 0.578767 0.825959
O O12 0.000000 0.422872 0.750000
O O13 0.755835 0.145496 0.768289
#
# Coordination Sequence:
#
# PCOD9320178 Si02
#       6
#     8   8   8   8   8   8
#     4  12  24  41  70 104 144 185 241 296 361 431
#     4  10  23  45  71 100 141 188 240 300 364 425
#     4  10  23  41  70 102 135 181 243 299 360 421
#     4  11  24  46  71 102 142 189 241 291 359 435
#     4  10  22  43  68  97 136 193 240 293 361 428
#     4  11  25  42  70 100 143 189 234 296 361 430
#
# _framework density 22.174075999999999
#
# number of rings (size 3 to 8) (size 9 to 14) (size 15 to 20)
#    0.000    1.333    1.667    3.000    4.667    2.667 
#    0.000    0.000    3.667    0.000    0.000    0.000 
#    0.000    0.000    0.000    0.000    0.000    0.000 
#
# Total GULP energy -133704.726742 kJ/mol
# GULP energy per Si atom -5571.030281 kJ/mol
# Density = 2.212361 g / cm^3
# Si number density = 22.174076 Si / 1000 Ang^3
#
#
#
# Elastic Constant Matrix: (Units=GPa)
#
#
# Indices 1 2 3 4 5 6 
#
# 1 66.7726 26.7793 34.0739 0.0000 0.0000 0.0000
# 2 26.7793 141.1043 29.6210 0.0000 0.0000 0.0000
# 3 34.0739 29.6210 102.3480 0.0000 0.0000 0.0000
# 4 0.0000 0.0000 0.0000 34.6512 0.0000 0.0000
# 5 0.0000 0.0000 0.0000 0.0000 31.0573 0.0000
# 6 0.0000 0.0000 0.0000 0.0000 0.0000 -10.9078
#
#
#
# Elastic Compliance Matrix: (Units=1/GPa)
#
#
# Indices 1 2 3 4 5 6 
#
# 1 0.018773 -0.002396 -0.005556 0.000000 0.000000 0.000000
# 2 -0.002396 0.007851 -0.001474 0.000000 0.000000 0.000000
# 3 -0.005556 -0.001474 0.012047 0.000000 0.000000 0.000000
# 4 0.000000 0.000000 0.000000 0.028859 0.000000 0.000000
# 5 0.000000 0.000000 0.000000 0.000000 0.032199 0.000000
# 6 0.000000 0.000000 0.000000 0.000000 0.000000 -0.091677
#
#
# Mechanical properties :
#
#
# Convention : Reuss Voigt Hill
#
# Bulk Modulus (GPa) = 50.46219 54.57480 52.51849
# Shear Modulus (GPa) = 149.20442 25.61020 87.40731
#
# Velocity S-wave (km/s) = 8.21181 3.40216 6.28524
# Velocity P-wave (km/s) = 10.61690 6.33232 8.74119
#
# Compressibility (1/GPa) = 0.01981682
#
# Stress axis : x y z
#
# Youngs Moduli (GPa) = 53.26909 127.36799 83.00734
#
# Poissons Ratio (x) = 0.30522 0.46121
# Poissons Ratio (y) = 0.12765 0.12239
# Poissons Ratio (z) = 0.29598 0.18780
#
# Static dielectric constant tensor:
#      x y z
#    x 1.850740 0.000000 0.000000 
#    y 0.000000 1.810200 0.000000 
#    z 0.000000 0.000000 1.845850 
# 
# From -- ./inp_files/15695.got.cif
#   From: 2010.05.17/outbox.cif.g08.bks.cpg/sg20_8_cif.got.tgz:15695.got - 2010.06.03 22:52:26.
