data_PCOD9320340
_publ_section_title
;
Structure prediction by ZEFSAII (Michael W. Deem and Ramdas Pophale) SiO2 
 PCOD9320340
Probable space group: C 2 2 21
;
_chemical_formula_sum "Si O2"
_cell_formula_units_Z 48
_cell_length_a 5.582296
_cell_length_b 13.734984
_cell_length_c 27.454709
_cell_angle_alpha 90.000000
_cell_angle_beta 90.000000
_cell_angle_gamma 90.000000
_cell_volume 2105.027936
_symmetry_space_group_name_H-M "C 2 2 21"
_symmetry_group_IT_number 20
_symmetry_cell_setting 'orthorhombic'
loop_
_space_group_symop_operation_xyz
x,y,z
-x,-y,1/2+z
x,-y,-z
-x,y,1/2-z
1/2+x,1/2+y,z
1/2-x,1/2-y,1/2+z
1/2+x,1/2-y,-z
1/2-x,1/2+y,1/2-z
loop_
_atom_site_type_symbol
_atom_site_label
_atom_site_fract_x
_atom_site_fract_y
_atom_site_fract_z
Si Si1 0.761033 0.582805 0.777147
Si Si2 0.853123 0.137772 0.109180
Si Si3 0.436546 0.097124 0.476925
Si Si4 0.271565 0.229673 0.562820
Si Si5 0.329394 0.371527 0.702997
Si Si6 0.001552 0.774127 0.342339
O O1 0.500000 0.579760 0.750000
O O2 0.816520 0.470868 0.790160
O O3 0.693739 0.652208 0.821944
O O4 0.000000 0.617856 0.750000
O O5 0.746588 0.070384 0.066889
O O6 0.630545 0.178182 0.138987
O O7 0.974387 0.228156 0.080587
O O8 0.035836 0.108682 0.151494
O O9 0.298247 0.153885 0.519638
O O10 0.625149 0.175530 0.456027
O O11 0.546454 0.000000 0.500000
O O12 0.143583 0.186913 0.610828
O O13 0.500000 0.362074 0.750000
O O14 0.182241 0.271606 0.697079
#
# Coordination Sequence:
#
# PCOD9320340 Si02
#       6
#     8   8   8   8   8   8
#     4  11  28  46  71 110 143 191 250 301 363 444
#     4  10  23  44  69 100 137 189 238 294 371 429
#     4  11  23  42  72  98 136 185 232 296 372 427
#     4  10  22  46  64 103 140 175 242 302 349 451
#     4  10  25  46  72 103 149 188 240 308 365 442
#     4  10  25  44  71 100 139 191 236 298 367 433
#
# _framework density 22.802548000000002
#
# number of rings (size 3 to 8) (size 9 to 14) (size 15 to 20)
#    0.000    1.667    1.667    0.000   14.000    0.667 
#    9.000    0.000    0.000    0.000    0.000    0.000 
#    0.000    0.000    0.000    0.000    0.000    0.000 
#
# Total GULP energy -133996.375920 kJ/mol
# GULP energy per Si atom -5583.182330 kJ/mol
# Density = 2.275065 g / cm^3
# Si number density = 22.802548 Si / 1000 Ang^3
#
#
#
# Elastic Constant Matrix: (Units=GPa)
#
#
# Indices 1 2 3 4 5 6 
#
# 1 72.6018 21.4435 34.8748 0.0000 0.0000 0.0000
# 2 21.4435 82.5011 50.4331 0.0000 0.0000 0.0000
# 3 34.8748 50.4331 113.9528 0.0000 0.0000 0.0000
# 4 0.0000 0.0000 0.0000 22.1017 0.0000 0.0000
# 5 0.0000 0.0000 0.0000 0.0000 44.2445 0.0000
# 6 0.0000 0.0000 0.0000 0.0000 0.0000 12.2478
#
#
#
# Elastic Compliance Matrix: (Units=1/GPa)
#
#
# Indices 1 2 3 4 5 6 
#
# 1 0.016306 -0.001628 -0.004270 0.000000 0.000000 0.000000
# 2 -0.001628 0.016779 -0.006928 0.000000 0.000000 0.000000
# 3 -0.004270 -0.006928 0.013148 0.000000 0.000000 0.000000
# 4 0.000000 0.000000 0.000000 0.045245 0.000000 0.000000
# 5 0.000000 0.000000 0.000000 0.000000 0.022602 0.000000
# 6 0.000000 0.000000 0.000000 0.000000 0.000000 0.081647
#
#
# Mechanical properties :
#
#
# Convention : Reuss Voigt Hill
#
# Bulk Modulus (GPa) = 48.58618 53.61761 51.10190
# Shear Modulus (GPa) = 21.90682 26.53908 24.22295
#
# Velocity S-wave (km/s) = 3.10291 3.41525 3.26282
# Velocity P-wave (km/s) = 5.84731 6.25434 6.05425
#
# Compressibility (1/GPa) = 0.02058199
#
# Stress axis : x y z
#
# Youngs Moduli (GPa) = 61.32863 59.59744 76.05469
#
# Poissons Ratio (x) = 0.09703 0.32473
# Poissons Ratio (y) = 0.09984 0.52690
# Poissons Ratio (z) = 0.26186 0.41288
#
# Static dielectric constant tensor:
#      x y z
#    x 1.894470 0.000000 0.000000 
#    y 0.000000 1.823740 0.000000 
#    z 0.000000 0.000000 1.906140 
# 
# From -- ./inp_files/29811.got.cif
#   From: 2010.05.17/outbox.cif.g08.bks.cpg/sg20_15_cif.got.tgz:29811.got - 2010.06.03 22:52:26.
