data_PCOD9320783
_publ_section_title
;
Structure prediction by ZEFSAII (Michael W. Deem and Ramdas Pophale) SiO2 
 PCOD9320783
Probable space group: C 2 2 21
;
_chemical_formula_sum "Si O2"
_cell_formula_units_Z 48
_cell_length_a 6.327391
_cell_length_b 24.194512
_cell_length_c 15.690838
_cell_angle_alpha 90.000000
_cell_angle_beta 90.000000
_cell_angle_gamma 90.000000
_cell_volume 2402.081165
_symmetry_space_group_name_H-M "C 2 2 21"
_symmetry_group_IT_number 20
_symmetry_cell_setting 'orthorhombic'
loop_
_space_group_symop_operation_xyz
x,y,z
-x,-y,1/2+z
x,-y,-z
-x,y,1/2-z
1/2+x,1/2+y,z
1/2-x,1/2-y,1/2+z
1/2+x,1/2-y,-z
1/2-x,1/2+y,1/2-z
loop_
_atom_site_type_symbol
_atom_site_label
_atom_site_fract_x
_atom_site_fract_y
_atom_site_fract_z
Si Si1 0.116542 0.416735 0.159061
Si Si2 0.332864 0.710351 0.114921
Si Si3 0.775613 0.861597 0.607005
Si Si4 0.500000 0.455703 0.250000
Si Si5 0.000000 0.698058 0.250000
Si Si6 0.506464 0.182182 0.965346
Si Si7 0.126991 0.475401 0.665622
O O1 0.362613 0.421204 0.182870
O O2 0.069001 0.369031 0.093203
O O3 0.000000 0.406403 0.250000
O O4 0.025174 0.476466 0.128592
O O5 0.487148 0.657799 0.129469
O O6 0.470552 0.763213 0.089926
O O7 0.182027 0.726658 0.193835
O O8 0.184709 0.694783 0.035372
O O9 0.628345 0.836734 0.680797
O O10 0.703911 0.834044 0.518301
O O11 0.711075 0.925956 0.607432
O O12 0.667485 0.493346 0.200923
O O13 0.000000 0.454469 0.750000
#
# Coordination Sequence:
#
# PCOD9320783 Si02
#       7
#     8   8   8   4   4   8   8
#     4   9  21  41  63  91 127 168 216 262 315 388
#     4  11  24  43  64  95 129 168 219 270 325 387
#     4  11  22  40  65  94 129 165 207 269 325 385
#     4   8  18  36  63  94 122 163 214 264 318 374
#     4  10  24  40  67  96 116 167 216 264 324 380
#     4  11  24  44  61  91 133 171 212 272 326 381
#     4   9  19  37  63  93 125 164 214 266 315 386
#
# _framework density 19.982671
#
# number of rings (size 3 to 8) (size 9 to 14) (size 15 to 20)
#    0.000    2.333    2.500    0.500    2.333    6.000 
#    0.000    1.667    0.000    0.000    0.000    0.000 
#    0.000    0.000    0.000    0.000    0.000    0.000 
#
# Total GULP energy -133843.728761 kJ/mol
# GULP energy per Si atom -5576.822032 kJ/mol
# Density = 1.993719 g / cm^3
# Si number density = 19.982671 Si / 1000 Ang^3
#
#
#
# Elastic Constant Matrix: (Units=GPa)
#
#
# Indices 1 2 3 4 5 6 
#
# 1 108.0450 26.7903 25.3144 0.0000 0.0000 0.0000
# 2 26.7903 100.4622 39.2306 0.0000 0.0000 0.0000
# 3 25.3144 39.2306 60.9724 0.0000 0.0000 0.0000
# 4 0.0000 0.0000 0.0000 30.5606 0.0000 0.0000
# 5 0.0000 0.0000 0.0000 0.0000 28.0024 0.0000
# 6 0.0000 0.0000 0.0000 0.0000 0.0000 12.0441
#
#
#
# Elastic Compliance Matrix: (Units=1/GPa)
#
#
# Indices 1 2 3 4 5 6 
#
# 1 0.010409 -0.001453 -0.003387 0.000000 0.000000 0.000000
# 2 -0.001453 0.013497 -0.008081 0.000000 0.000000 0.000000
# 3 -0.003387 -0.008081 0.023006 0.000000 0.000000 0.000000
# 4 0.000000 0.000000 0.000000 0.032722 0.000000 0.000000
# 5 0.000000 0.000000 0.000000 0.000000 0.035711 0.000000
# 6 0.000000 0.000000 0.000000 0.000000 0.000000 0.083028
#
#
# Mechanical properties :
#
#
# Convention : Reuss Voigt Hill
#
# Bulk Modulus (GPa) = 47.45855 50.23891 48.84873
# Shear Modulus (GPa) = 21.62260 25.99769 23.81014
#
# Velocity S-wave (km/s) = 3.29305 3.61087 3.45561
# Velocity P-wave (km/s) = 6.18549 6.52536 6.35770
#
# Compressibility (1/GPa) = 0.02107102
#
# Stress axis : x y z
#
# Youngs Moduli (GPa) = 96.06855 74.08964 43.46638
#
# Poissons Ratio (x) = 0.10768 0.14720
# Poissons Ratio (y) = 0.13962 0.35125
# Poissons Ratio (z) = 0.32534 0.59871
#
# Static dielectric constant tensor:
#      x y z
#    x 1.741700 0.000000 0.000000 
#    y 0.000000 1.704530 0.000000 
#    z 0.000000 0.000000 1.709770 
# 
# From -- ./inp_files/22831.got.cif
#   From: 2010.05.17/outbox.cif.g08.bks.cpg/sg20_12_cif.got.tgz:22831.got - 2010.06.03 22:52:26.
