data_PCOD9320919
_publ_section_title
;
Structure prediction by ZEFSAII (Michael W. Deem and Ramdas Pophale) SiO2 
 PCOD9320919
Probable space group: C 2 2 21
;
_chemical_formula_sum "Si O2"
_cell_formula_units_Z 44
_cell_length_a 8.447412
_cell_length_b 27.577223
_cell_length_c 8.121345
_cell_angle_alpha 90.000000
_cell_angle_beta 90.000000
_cell_angle_gamma 90.000000
_cell_volume 1891.917382
_symmetry_space_group_name_H-M "C 2 2 21"
_symmetry_group_IT_number 20
_symmetry_cell_setting 'orthorhombic'
loop_
_space_group_symop_operation_xyz
x,y,z
-x,-y,1/2+z
x,-y,-z
-x,y,1/2-z
1/2+x,1/2+y,z
1/2-x,1/2-y,1/2+z
1/2+x,1/2-y,-z
1/2-x,1/2+y,1/2-z
loop_
_atom_site_type_symbol
_atom_site_label
_atom_site_fract_x
_atom_site_fract_y
_atom_site_fract_z
Si Si1 0.000000 0.328694 0.250000
Si Si2 0.000000 0.474216 0.750000
Si Si3 0.014800 0.000000 0.500000
Si Si4 0.712863 0.536565 0.772026
Si Si5 0.324963 0.317742 0.819057
Si Si6 0.324785 0.729049 0.824401
Si Si7 0.859476 0.601674 0.500683
O O1 0.834484 0.298410 0.254917
O O2 0.985571 0.363314 0.409637
O O3 0.128246 0.511093 0.680023
O O4 0.937752 0.440679 0.603465
O O5 0.899970 0.042278 0.570008
O O6 0.130089 0.995750 0.654578
O O7 0.751121 0.580725 0.650494
O O8 0.500000 0.324402 0.750000
O O9 0.216361 0.285585 0.698884
O O10 0.333939 0.286597 0.986906
O O11 0.244057 0.367264 0.874289
O O12 0.500000 0.718578 0.750000
#
# Coordination Sequence:
#
# PCOD9320919 Si02
#       7
#     4   4   4   8   8   8   8
#     4  10  25  48  68 110 150 198 260 308 369 468
#     4  12  25  42  72 104 146 198 242 308 381 454
#     4  10  24  44  76  94 142 190 250 304 372 468
#     4  11  24  47  70 106 139 202 242 311 386 443
#     4  11  25  47  75 110 153 193 253 315 372 458
#     4  11  24  45  77 104 149 209 247 304 386 453
#     4  11  26  44  72 110 149 191 259 309 378 450
#
# _framework density 23.256827000000001
#
# number of rings (size 3 to 8) (size 9 to 14) (size 15 to 20)
#    0.000    1.091    2.727    1.636    8.909    2.909 
#   13.091    0.000    0.000    0.000    0.000    0.000 
#    0.000    0.000    0.000    0.000    0.000    0.000 
#
# Total GULP energy -122842.089145 kJ/mol
# GULP energy per Si atom -5583.731325 kJ/mol
# Density = 2.320389 g / cm^3
# Si number density = 23.256827 Si / 1000 Ang^3
#
#
#
# Elastic Constant Matrix: (Units=GPa)
#
#
# Indices 1 2 3 4 5 6 
#
# 1 154.0092 47.5367 42.2048 0.0000 0.0000 0.0000
# 2 47.5367 91.1843 19.8482 0.0000 0.0000 0.0000
# 3 42.2048 19.8482 50.7975 0.0000 0.0000 0.0000
# 4 0.0000 0.0000 0.0000 45.9768 0.0000 0.0000
# 5 0.0000 0.0000 0.0000 0.0000 56.6570 0.0000
# 6 0.0000 0.0000 0.0000 0.0000 0.0000 0.0460
#
#
#
# Elastic Compliance Matrix: (Units=1/GPa)
#
#
# Indices 1 2 3 4 5 6 
#
# 1 0.009312 -0.003465 -0.006383 0.000000 0.000000 0.000000
# 2 -0.003465 0.013276 -0.002308 0.000000 0.000000 0.000000
# 3 -0.006383 -0.002308 0.025891 0.000000 0.000000 0.000000
# 4 0.000000 0.000000 0.000000 0.021750 0.000000 0.000000
# 5 0.000000 0.000000 0.000000 0.000000 0.017650 0.000000
# 6 0.000000 0.000000 0.000000 0.000000 0.000000 21.728677
#
#
# Mechanical properties :
#
#
# Convention : Reuss Voigt Hill
#
# Bulk Modulus (GPa) = 41.38001 57.24114 49.31057
# Shear Modulus (GPa) = 0.22884 32.96273 16.59578
#
# Velocity S-wave (km/s) = 0.31403 3.76884 2.67420
# Velocity P-wave (km/s) = 4.23825 6.60340 5.54832
#
# Compressibility (1/GPa) = 0.02416626
#
# Stress axis : x y z
#
# Youngs Moduli (GPa) = 107.39072 75.32553 38.62358
#
# Poissons Ratio (x) = 0.26101 0.24652
# Poissons Ratio (y) = 0.37212 0.08915
# Poissons Ratio (z) = 0.68544 0.17387
#
# Static dielectric constant tensor:
#      x y z
#    x 1.978580 0.000000 0.000000 
#    y 0.000000 1.887510 0.000000 
#    z 0.000000 0.000000 1.917020 
# 
# From -- ./inp_files/6399.got.cif
#   From: 2010.05.17/outbox.cif.g08.bks.cpg/sg20_4_cif.got.tgz:6399.got - 2010.06.03 22:52:26.
