data_PCOD9320945
_publ_section_title
;
Structure prediction by ZEFSAII (Michael W. Deem and Ramdas Pophale) SiO2 
 PCOD9320945
Probable space group: C 2 2 21
;
_chemical_formula_sum "Si O2"
_cell_formula_units_Z 40
_cell_length_a 7.927374
_cell_length_b 18.584001
_cell_length_c 11.539302
_cell_angle_alpha 90.000000
_cell_angle_beta 90.000000
_cell_angle_gamma 90.000000
_cell_volume 1699.996815
_symmetry_space_group_name_H-M "C 2 2 21"
_symmetry_group_IT_number 20
_symmetry_cell_setting 'orthorhombic'
loop_
_space_group_symop_operation_xyz
x,y,z
-x,-y,1/2+z
x,-y,-z
-x,y,1/2-z
1/2+x,1/2+y,z
1/2-x,1/2-y,1/2+z
1/2+x,1/2-y,-z
1/2-x,1/2+y,1/2-z
loop_
_atom_site_type_symbol
_atom_site_label
_atom_site_fract_x
_atom_site_fract_y
_atom_site_fract_z
Si Si1 0.045735 0.959782 0.621246
Si Si2 0.480572 0.702020 0.077163
Si Si3 0.592390 0.989499 0.124482
Si Si4 0.884217 0.245185 0.660285
Si Si5 0.168489 0.336608 0.179492
O O1 0.975045 0.878655 0.611737
O O2 0.000000 0.989911 0.750000
O O3 0.997815 0.000000 0.500000
O O4 0.248866 0.957458 0.625308
O O5 0.289480 0.718825 0.117349
O O6 0.614667 0.760327 0.124783
O O7 0.497914 0.716921 0.941653
O O8 0.500000 0.997266 0.250000
O O9 0.680943 0.910217 0.110527
O O10 0.496453 0.000000 0.000000
O O11 0.816555 0.176845 0.731567
O O12 0.000000 0.289500 0.750000
O O13 0.000000 0.352846 0.250000
#
# Coordination Sequence:
#
# PCOD9320945 Si02
#       5
#     8   8   8   8   8
#     4  11  27  45  70 101 149 182 237 295 360 425
#     4  11  25  46  67 109 138 186 244 296 348 437
#     4  10  24  45  72 101 144 191 235 292 359 436
#     4  11  24  39  74  98 140 184 240 293 365 410
#     4   9  21  45  69  97 141 183 239 294 355 422
#
# _framework density 23.529454999999999
#
# number of rings (size 3 to 8) (size 9 to 14) (size 15 to 20)
#    0.000    1.600    0.000    3.000   14.000    1.600 
#    7.200    0.000    0.000    0.000    0.000    0.000 
#    0.000    0.000    0.000    0.000    0.000    0.000 
#
# Total GULP energy -111430.554644 kJ/mol
# GULP energy per Si atom -5571.527732 kJ/mol
# Density = 2.347590 g / cm^3
# Si number density = 23.529455 Si / 1000 Ang^3
#
#
#
# Elastic Constant Matrix: (Units=GPa)
#
#
# Indices 1 2 3 4 5 6 
#
# 1 94.1241 0.7917 54.0538 0.0000 0.0000 0.0000
# 2 0.7917 103.5482 33.1219 0.0000 0.0000 0.0000
# 3 54.0538 33.1219 217.7186 0.0000 0.0000 0.0000
# 4 0.0000 0.0000 0.0000 23.5324 0.0000 0.0000
# 5 0.0000 0.0000 0.0000 0.0000 50.1800 0.0000
# 6 0.0000 0.0000 0.0000 0.0000 0.0000 19.3173
#
#
#
# Elastic Compliance Matrix: (Units=1/GPa)
#
#
# Indices 1 2 3 4 5 6 
#
# 1 0.012478 0.000941 -0.003241 0.000000 0.000000 0.000000
# 2 0.000941 0.010222 -0.001789 0.000000 0.000000 0.000000
# 3 -0.003241 -0.001789 0.005670 0.000000 0.000000 0.000000
# 4 0.000000 0.000000 0.000000 0.042495 0.000000 0.000000
# 5 0.000000 0.000000 0.000000 0.000000 0.019928 0.000000
# 6 0.000000 0.000000 0.000000 0.000000 0.000000 0.051767
#
#
# Mechanical properties :
#
#
# Convention : Reuss Voigt Hill
#
# Bulk Modulus (GPa) = 49.52292 65.70286 57.61289
# Shear Modulus (GPa) = 31.75247 40.43417 36.09332
#
# Velocity S-wave (km/s) = 3.67751 4.14992 3.92083
# Velocity P-wave (km/s) = 6.25500 7.13769 6.71087
#
# Compressibility (1/GPa) = 0.02019267
#
# Stress axis : x y z
#
# Youngs Moduli (GPa) = 80.14335 97.82499 176.36999
#
# Poissons Ratio (x) = -0.09208 0.57163
# Poissons Ratio (y) = -0.07544 0.31550
# Poissons Ratio (z) = 0.25975 0.17499
#
# Static dielectric constant tensor:
#      x y z
#    x 1.867510 0.000000 0.000000 
#    y 0.000000 1.946850 0.000000 
#    z 0.000000 0.000000 2.113460 
# 
# From -- ./inp_files/12722.got.cif
#   From: 2010.05.17/outbox.cif.g08.bks.cpg/sg20_7_cif.got.tgz:12722.got - 2010.06.03 22:52:26.
