data_PCOD9320330
_publ_section_title
;
Structure prediction by ZEFSAII (Michael W. Deem and Ramdas Pophale) SiO2 
 PCOD9320330
Probable space group: C 2 2 21
;
_chemical_formula_sum "Si O2"
_cell_formula_units_Z 56
_cell_length_a 20.658473
_cell_length_b 12.756041
_cell_length_c 7.962258
_cell_angle_alpha 90.000000
_cell_angle_beta 90.000000
_cell_angle_gamma 90.000000
_cell_volume 2098.216844
_symmetry_space_group_name_H-M "C 2 2 21"
_symmetry_group_IT_number 20
_symmetry_cell_setting 'orthorhombic'
loop_
_space_group_symop_operation_xyz
x,y,z
-x,-y,1/2+z
x,-y,-z
-x,y,1/2-z
1/2+x,1/2+y,z
1/2-x,1/2-y,1/2+z
1/2+x,1/2-y,-z
1/2-x,1/2+y,1/2-z
loop_
_atom_site_type_symbol
_atom_site_label
_atom_site_fract_x
_atom_site_fract_y
_atom_site_fract_z
Si Si1 0.639746 0.953874 0.313725
Si Si2 0.906854 0.941078 0.824705
Si Si3 0.500000 0.083808 0.750000
Si Si4 0.825602 0.191911 0.664278
Si Si5 0.953550 0.776295 0.553295
Si Si6 0.500000 0.391524 0.250000
Si Si7 0.796138 0.715445 0.998668
Si Si8 0.232995 0.038593 0.238398
O O1 0.566520 0.977771 0.268543
O O2 0.657234 0.833243 0.356184
O O3 0.697315 0.996904 0.197864
O O4 0.647036 0.000000 0.500000
O O5 0.936492 0.841560 0.724029
O O6 0.830098 0.920676 0.834719
O O7 0.938839 0.033441 0.711133
O O8 0.923316 0.000000 0.000000
O O9 0.481106 0.163130 0.600162
O O10 0.886779 0.220277 0.551985
O O11 0.834254 0.222387 0.859278
O O12 0.766036 0.262451 0.594250
O O13 0.800509 0.070966 0.670797
O O14 0.004353 0.824217 0.419442
O O15 0.757017 0.625197 0.105847
#
# Coordination Sequence:
#
# PCOD9320330 Si02
#       8
#     8   8   4   8   8   4   8   8
#     4   9  23  48  73  96 136 198 240 314 377 434
#     4  12  24  42  69 108 147 190 242 295 369 458
#     4  12  27  48  69 104 146 184 256 310 367 463
#     4  11  23  42  71 102 144 183 241 303 371 443
#     4  12  27  44  69 104 147 196 237 308 371 451
#     4  12  25  42  67  98 150 198 236 276 371 453
#     4  10  23  42  72 102 141 188 241 305 374 442
#     4  10  22  45  72  98 143 188 244 302 369 444
#
# _framework density 26.689328
#
# number of rings (size 3 to 8) (size 9 to 14) (size 15 to 20)
#    0.000    1.143    2.857    3.857    6.000    2.286 
#    5.143    0.000    0.000    0.000    0.000    0.000 
#    0.000    0.000    0.000    0.000    0.000    0.000 
#
# Total GULP energy -156081.631752 kJ/mol
# GULP energy per Si atom -5574.343991 kJ/mol
# Density = 2.662858 g / cm^3
# Si number density = 26.689328 Si / 1000 Ang^3
#
#
#
# Elastic Constant Matrix: (Units=GPa)
#
#
# Indices 1 2 3 4 5 6 
#
# 1 213.0129 2.8832 29.2909 0.0000 0.0000 0.0000
# 2 2.8832 14.4976 5.6280 0.0000 0.0000 0.0000
# 3 29.2909 5.6280 81.7650 0.0000 0.0000 0.0000
# 4 0.0000 0.0000 0.0000 21.2415 0.0000 0.0000
# 5 0.0000 0.0000 0.0000 0.0000 38.9426 0.0000
# 6 0.0000 0.0000 0.0000 0.0000 0.0000 21.7978
#
#
#
# Elastic Compliance Matrix: (Units=1/GPa)
#
#
# Indices 1 2 3 4 5 6 
#
# 1 0.004939 -0.000304 -0.001748 0.000000 0.000000 0.000000
# 2 -0.000304 0.070889 -0.004771 0.000000 0.000000 0.000000
# 3 -0.001748 -0.004771 0.013185 0.000000 0.000000 0.000000
# 4 0.000000 0.000000 0.000000 0.047078 0.000000 0.000000
# 5 0.000000 0.000000 0.000000 0.000000 0.025679 0.000000
# 6 0.000000 0.000000 0.000000 0.000000 0.000000 0.045876
#
#
# Mechanical properties :
#
#
# Convention : Reuss Voigt Hill
#
# Bulk Modulus (GPa) = 13.26821 42.76440 28.01631
# Shear Modulus (GPa) = 20.29107 34.49462 27.39284
#
# Velocity S-wave (km/s) = 2.76029 3.59897 3.20716
# Velocity P-wave (km/s) = 3.89115 5.77303 4.92285
#
# Compressibility (1/GPa) = 0.07536809
#
# Stress axis : x y z
#
# Youngs Moduli (GPa) = 202.46663 14.10649 75.84434
#
# Poissons Ratio (x) = 0.00428 0.13261
# Poissons Ratio (y) = 0.06145 0.36183
# Poissons Ratio (z) = 0.35400 0.06730
#
# Static dielectric constant tensor:
#      x y z
#    x 2.157350 0.000000 0.000000 
#    y 0.000000 2.349170 0.000000 
#    z 0.000000 0.000000 2.156810 
# 
# From -- ./inp_files/10262.got.cif
#   From: 2010.05.17/outbox.cif.g08.bks.cpg/sg20_6_cif.got.tgz:10262.got - 2010.06.03 22:52:26.
