data_PCOD9320854
_publ_section_title
;
Structure prediction by ZEFSAII (Michael W. Deem and Ramdas Pophale) SiO2 
 PCOD9320854
Probable space group: C 2 2 21
;
_chemical_formula_sum "Si O2"
_cell_formula_units_Z 40
_cell_length_a 23.742615
_cell_length_b 9.851402
_cell_length_c 7.262331
_cell_angle_alpha 90.000000
_cell_angle_beta 90.000000
_cell_angle_gamma 90.000000
_cell_volume 1698.645022
_symmetry_space_group_name_H-M "C 2 2 21"
_symmetry_group_IT_number 20
_symmetry_cell_setting 'orthorhombic'
loop_
_space_group_symop_operation_xyz
x,y,z
-x,-y,1/2+z
x,-y,-z
-x,y,1/2-z
1/2+x,1/2+y,z
1/2-x,1/2-y,1/2+z
1/2+x,1/2-y,-z
1/2-x,1/2+y,1/2-z
loop_
_atom_site_type_symbol
_atom_site_label
_atom_site_fract_x
_atom_site_fract_y
_atom_site_fract_z
Si Si1 0.621753 0.000000 0.500000
Si Si2 0.165809 0.635024 0.210354
Si Si3 0.354536 0.437572 0.299637
Si Si4 0.055955 0.000000 0.500000
Si Si5 0.983672 0.706183 0.963011
Si Si6 0.422844 0.000000 0.500000
Si Si7 0.738443 0.500000 0.500000
O O1 0.670635 0.892494 0.576697
O O2 0.573636 0.877963 0.484372
O O3 0.137223 0.777148 0.171725
O O4 0.121491 0.507835 0.170356
O O5 0.219806 0.612425 0.085888
O O6 0.347924 0.500000 0.500000
O O7 0.404277 0.506694 0.180862
O O8 0.300308 0.450287 0.167004
O O9 0.021704 0.861530 0.478756
O O10 0.000000 0.705568 0.750000
O O11 0.035162 0.621510 0.047183
#
# Coordination Sequence:
#
# PCOD9320854 Si02
#       7
#     4   8   8   4   8   4   4
#     4  11  22  43  72 105 141 194 247 302 367 440
#     4  11  24  46  75 103 147 191 243 309 373 436
#     4  11  27  48  72 105 152 189 239 311 374 447
#     4  11  26  47  68 109 147 197 242 293 380 434
#     4  11  23  42  68 100 148 189 242 303 353 441
#     4  10  24  43  68 106 134 189 244 289 359 426
#     4  10  28  45  72 112 132 192 251 292 376 448
#
# _framework density 23.548179999999999
#
# number of rings (size 3 to 8) (size 9 to 14) (size 15 to 20)
#    0.000    1.200    4.000    0.000    7.000    1.600 
#    0.000    0.000    0.000    0.000    0.000    0.000 
#    0.000    0.000    0.000    0.000    0.000    0.000 
#
# Total GULP energy -111390.279482 kJ/mol
# GULP energy per Si atom -5569.513974 kJ/mol
# Density = 2.349458 g / cm^3
# Si number density = 23.548180 Si / 1000 Ang^3
#
#
#
# Elastic Constant Matrix: (Units=GPa)
#
#
# Indices 1 2 3 4 5 6 
#
# 1 87.3248 37.9878 39.3200 0.0000 0.0000 0.0000
# 2 37.9878 145.5228 15.5037 0.0000 0.0000 0.0000
# 3 39.3200 15.5037 31.1127 0.0000 0.0000 0.0000
# 4 0.0000 0.0000 0.0000 33.5691 0.0000 0.0000
# 5 0.0000 0.0000 0.0000 0.0000 11.6979 0.0000
# 6 0.0000 0.0000 0.0000 0.0000 0.0000 12.4586
#
#
#
# Elastic Compliance Matrix: (Units=1/GPa)
#
#
# Indices 1 2 3 4 5 6 
#
# 1 0.028428 -0.003795 -0.034036 0.000000 0.000000 0.000000
# 2 -0.003795 0.007764 0.000927 0.000000 0.000000 0.000000
# 3 -0.034036 0.000927 0.074693 0.000000 0.000000 0.000000
# 4 0.000000 0.000000 0.000000 0.029789 0.000000 0.000000
# 5 0.000000 0.000000 0.000000 0.000000 0.085486 0.000000
# 6 0.000000 0.000000 0.000000 0.000000 0.000000 0.080266
#
#
# Mechanical properties :
#
#
# Convention : Reuss Voigt Hill
#
# Bulk Modulus (GPa) = 26.97029 49.95371 38.46200
# Shear Modulus (GPa) = 12.73590 22.95503 17.84547
#
# Velocity S-wave (km/s) = 2.32813 3.12558 2.75585
# Velocity P-wave (km/s) = 4.32493 5.85535 5.14734
#
# Compressibility (1/GPa) = 0.03707783
#
# Stress axis : x y z
#
# Youngs Moduli (GPa) = 35.17711 128.80622 13.38813
#
# Poissons Ratio (x) = 0.48879 0.45567
# Poissons Ratio (y) = 0.13349 -0.01241
# Poissons Ratio (z) = 1.19727 -0.11942
#
# Static dielectric constant tensor:
#      x y z
#    x 2.022540 0.000000 0.000000 
#    y 0.000000 1.954540 0.000000 
#    z 0.000000 0.000000 1.504940 
# 
# From -- ./inp_files/10546.got.cif
#   From: 2010.05.17/outbox.cif.g08.bks.cpg/sg20_6_cif.got.tgz:10546.got - 2010.06.03 22:52:26.
