data_PCOD9320562
_publ_section_title
;
Structure prediction by ZEFSAII (Michael W. Deem and Ramdas Pophale) SiO2 
 PCOD9320562
Probable space group: C 2 2 21
;
_chemical_formula_sum "Si O2"
_cell_formula_units_Z 32
_cell_length_a 21.840944
_cell_length_b 8.208679
_cell_length_c 7.176068
_cell_angle_alpha 90.000000
_cell_angle_beta 90.000000
_cell_angle_gamma 90.000000
_cell_volume 1286.563492
_symmetry_space_group_name_H-M "C 2 2 21"
_symmetry_group_IT_number 20
_symmetry_cell_setting 'orthorhombic'
loop_
_space_group_symop_operation_xyz
x,y,z
-x,-y,1/2+z
x,-y,-z
-x,y,1/2-z
1/2+x,1/2+y,z
1/2-x,1/2-y,1/2+z
1/2+x,1/2-y,-z
1/2-x,1/2+y,1/2-z
loop_
_atom_site_type_symbol
_atom_site_label
_atom_site_fract_x
_atom_site_fract_y
_atom_site_fract_z
Si Si1 0.000000 0.246772 0.250000
Si Si2 0.602699 0.026944 0.790767
Si Si3 0.655775 0.313529 0.289773
Si Si4 0.287471 0.830415 0.118986
Si Si5 0.073175 0.000000 0.000000
O O1 0.945907 0.364555 0.183756
O O2 0.970576 0.137650 0.412590
O O3 0.666835 0.125023 0.786779
O O4 0.615633 0.850050 0.712361
O O5 0.580927 0.000000 0.000000
O O6 0.680519 0.314288 0.502090
O O7 0.719710 0.288166 0.180794
O O8 0.616091 0.441567 0.172020
O O9 0.284093 0.000000 0.000000
#
# Coordination Sequence:
#
# PCOD9320562 Si02
#       5
#     4   8   8   8   4
#     4  12  30  48  74 106 152 212 264 322 384 456
#     4  11  24  47  73 107 151 206 257 312 386 461
#     4  11  23  46  77 115 155 198 257 324 391 463
#     4  10  23  42  78 117 156 198 253 316 397 462
#     4  12  28  50  74 110 158 204 268 328 380 466
#
# _framework density 24.872461000000001
#
# number of rings (size 3 to 8) (size 9 to 14) (size 15 to 20)
#    0.000    1.000    3.750    1.500    3.500    4.000 
#    0.000    5.000    0.000    0.000    0.000    0.000 
#    0.000    0.000    0.000    0.000    0.000    0.000 
#
# Total GULP energy -89497.713459 kJ/mol
# GULP energy per Si atom -5593.607091 kJ/mol
# Density = 2.481585 g / cm^3
# Si number density = 24.872461 Si / 1000 Ang^3
#
#
#
# Elastic Constant Matrix: (Units=GPa)
#
#
# Indices 1 2 3 4 5 6 
#
# 1 143.8596 60.6590 34.6686 0.0000 0.0000 0.0000
# 2 60.6590 119.2830 28.7054 0.0000 0.0000 0.0000
# 3 34.6686 28.7054 74.2300 0.0000 0.0000 0.0000
# 4 0.0000 0.0000 0.0000 33.3854 0.0000 0.0000
# 5 0.0000 0.0000 0.0000 0.0000 37.3838 0.0000
# 6 0.0000 0.0000 0.0000 0.0000 0.0000 36.6604
#
#
#
# Elastic Compliance Matrix: (Units=1/GPa)
#
#
# Indices 1 2 3 4 5 6 
#
# 1 0.009343 -0.004081 -0.002786 0.000000 0.000000 0.000000
# 2 -0.004081 0.011026 -0.002358 0.000000 0.000000 0.000000
# 3 -0.002786 -0.002358 0.015684 0.000000 0.000000 0.000000
# 4 0.000000 0.000000 0.000000 0.029953 0.000000 0.000000
# 5 0.000000 0.000000 0.000000 0.000000 0.026750 0.000000
# 6 0.000000 0.000000 0.000000 0.000000 0.000000 0.027277
#
#
# Mechanical properties :
#
#
# Convention : Reuss Voigt Hill
#
# Bulk Modulus (GPa) = 56.80220 65.04874 60.92547
# Shear Modulus (GPa) = 34.63773 35.70857 35.17315
#
# Velocity S-wave (km/s) = 3.73582 3.79313 3.76459
# Velocity P-wave (km/s) = 6.44170 6.73747 6.59124
#
# Compressibility (1/GPa) = 0.01760495
#
# Stress axis : x y z
#
# Youngs Moduli (GPa) = 107.02883 90.69333 63.75747
#
# Poissons Ratio (x) = 0.37012 0.17760
# Poissons Ratio (y) = 0.43678 0.15033
# Poissons Ratio (z) = 0.29813 0.21385
#
# Static dielectric constant tensor:
#      x y z
#    x 1.946640 0.000000 0.000000 
#    y 0.000000 1.996210 0.000000 
#    z 0.000000 0.000000 2.068520 
# 
# From -- ./inp_files/9822.got.cif
#   From: 2010.05.17/outbox.cif.g08.bks.cpg/sg20_5_cif.got.tgz:9822.got - 2010.06.03 22:52:26.
