data_PCOD9320511
_publ_section_title
;
Structure prediction by ZEFSAII (Michael W. Deem and Ramdas Pophale) SiO2 
 PCOD9320511
Probable space group: C 2 2 21
;
_chemical_formula_sum "Si O2"
_cell_formula_units_Z 32
_cell_length_a 13.054517
_cell_length_b 13.247885
_cell_length_c 8.661612
_cell_angle_alpha 90.000000
_cell_angle_beta 90.000000
_cell_angle_gamma 90.000000
_cell_volume 1497.980235
_symmetry_space_group_name_H-M "C 2 2 21"
_symmetry_group_IT_number 20
_symmetry_cell_setting 'orthorhombic'
loop_
_space_group_symop_operation_xyz
x,y,z
-x,-y,1/2+z
x,-y,-z
-x,y,1/2-z
1/2+x,1/2+y,z
1/2-x,1/2-y,1/2+z
1/2+x,1/2-y,-z
1/2-x,1/2+y,1/2-z
loop_
_atom_site_type_symbol
_atom_site_label
_atom_site_fract_x
_atom_site_fract_y
_atom_site_fract_z
Si Si1 0.740488 0.375079 0.144701
Si Si2 0.365155 0.777532 0.871646
Si Si3 0.987066 0.100258 0.573058
Si Si4 0.108633 0.520706 0.184627
O O1 0.710492 0.298586 0.282266
O O2 0.634614 0.392774 0.051160
O O3 0.796400 0.468272 0.227555
O O4 0.816542 0.329831 0.019302
O O5 0.456605 0.707428 0.939449
O O6 0.389834 0.862988 0.743362
O O7 0.000000 0.076096 0.750000
O O8 0.033802 0.000000 0.500000
O O9 0.000000 0.479155 0.250000
O O10 0.113578 0.500000 0.000000
#
# Coordination Sequence:
#
# PCOD9320511 Si02
#       4
#     8   8   8   8
#     4  11  24  41  67  96 133 178 224 281 343 410
#     4  11  24  43  66  99 136 176 229 282 339 412
#     4  10  23  42  63  92 130 170 215 273 332 399
#     4  12  25  44  67  95 133 176 225 286 348 411
#
# _framework density 21.362096999999999
#
# number of rings (size 3 to 8) (size 9 to 14) (size 15 to 20)
#    0.000    1.000    0.000    7.500    0.000   12.000 
#    0.000    0.000    0.000    0.000    0.000    0.000 
#    0.000    0.000    0.000    0.000    0.000    0.000 
#
# Total GULP energy -89234.261906 kJ/mol
# GULP energy per Si atom -5577.141369 kJ/mol
# Density = 2.131348 g / cm^3
# Si number density = 21.362097 Si / 1000 Ang^3
#
#
#
# Elastic Constant Matrix: (Units=GPa)
#
#
# Indices 1 2 3 4 5 6 
#
# 1 87.8500 78.6886 56.9140 0.0000 0.0000 0.0000
# 2 78.6886 149.9488 47.2153 0.0000 0.0000 0.0000
# 3 56.9140 47.2153 54.8004 0.0000 0.0000 0.0000
# 4 0.0000 0.0000 0.0000 47.1863 0.0000 0.0000
# 5 0.0000 0.0000 0.0000 0.0000 947.9269 0.0000
# 6 0.0000 0.0000 0.0000 0.0000 0.0000 129.6076
#
#
#
# Elastic Compliance Matrix: (Units=1/GPa)
#
#
# Indices 1 2 3 4 5 6 
#
# 1 0.048323 -0.013113 -0.038889 0.000000 0.000000 0.000000
# 2 -0.013113 0.012710 0.002668 0.000000 0.000000 0.000000
# 3 -0.038889 0.002668 0.056338 0.000000 0.000000 0.000000
# 4 0.000000 0.000000 0.000000 0.021193 0.000000 0.000000
# 5 0.000000 0.000000 0.000000 0.000000 0.001055 0.000000
# 6 0.000000 0.000000 0.000000 0.000000 0.000000 0.007716
#
#
# Mechanical properties :
#
#
# Convention : Reuss Voigt Hill
#
# Bulk Modulus (GPa) = 53.46605 73.13723 63.30164
# Shear Modulus (GPa) = 19.82269 232.26291 126.04280
#
# Velocity S-wave (km/s) = 3.04951 10.43852 7.68967
# Velocity P-wave (km/s) = 6.12227 13.40130 10.41818
#
# Compressibility (1/GPa) = 0.01870346
#
# Stress axis : x y z
#
# Youngs Moduli (GPa) = 20.69408 78.67626 17.75010
#
# Poissons Ratio (x) = 1.03171 0.69028
# Poissons Ratio (y) = 0.27137 -0.04736
# Poissons Ratio (z) = 0.80476 -0.20992
#
# Static dielectric constant tensor:
#      x y z
#    x 1.566780 0.000000 0.000000 
#    y 0.000000 -4.303480 0.000000 
#    z 0.000000 0.000000 1.709540 
# 
# From -- ./inp_files/7893.got.cif
#   From: 2010.05.17/outbox.cif.g08.bks.cpg/sg20_4_cif.got.tgz:7893.got - 2010.06.03 22:52:26.
