data_PCOD9320938
_publ_section_title
;
Structure prediction by ZEFSAII (Michael W. Deem and Ramdas Pophale) SiO2 
 PCOD9320938
Probable space group: C 2 2 21
;
_chemical_formula_sum "Si O2"
_cell_formula_units_Z 52
_cell_length_a 6.393083
_cell_length_b 22.860132
_cell_length_c 15.921042
_cell_angle_alpha 90.000000
_cell_angle_beta 90.000000
_cell_angle_gamma 90.000000
_cell_volume 2326.808087
_symmetry_space_group_name_H-M "C 2 2 21"
_symmetry_group_IT_number 20
_symmetry_cell_setting 'orthorhombic'
loop_
_space_group_symop_operation_xyz
x,y,z
-x,-y,1/2+z
x,-y,-z
-x,y,1/2-z
1/2+x,1/2+y,z
1/2-x,1/2-y,1/2+z
1/2+x,1/2-y,-z
1/2-x,1/2+y,1/2-z
loop_
_atom_site_type_symbol
_atom_site_label
_atom_site_fract_x
_atom_site_fract_y
_atom_site_fract_z
Si Si1 0.500000 0.817111 0.750000
Si Si2 0.398580 0.291843 0.658739
Si Si3 0.809418 0.109579 0.132132
Si Si4 0.819128 0.000000 0.500000
Si Si5 0.525064 0.081911 0.976763
Si Si6 0.340221 0.477734 0.137483
Si Si7 0.616721 0.824973 0.340014
Si Si8 0.000000 0.124515 0.750000
O O1 0.653520 0.785030 0.681993
O O2 0.346485 0.856181 0.693692
O O3 0.500000 0.294732 0.750000
O O4 0.478024 0.352810 0.619945
O O5 0.525258 0.236219 0.623098
O O6 0.837120 0.044335 0.169398
O O7 0.696305 0.104106 0.042299
O O8 0.669966 0.053466 0.475877
O O9 0.961751 0.022042 0.575541
O O10 0.636772 0.033364 0.918632
O O11 0.442491 0.128976 0.910841
O O12 0.358673 0.422559 0.199053
O O13 0.500000 0.832775 0.250000
O O14 0.857439 0.835962 0.311694
#
# Coordination Sequence:
#
# PCOD9320938 Si02
#       8
#     4   8   8   4   8   8   8   4
#     4  10  24  45  70 100 130 191 230 294 356 410
#     4   9  23  46  68  95 133 181 235 287 353 412
#     4  11  24  42  68 102 142 177 230 289 349 433
#     4  12  22  42  66  94 146 188 218 280 366 410
#     4  12  24  43  66 102 143 187 224 290 357 424
#     4  12  25  41  67 104 136 178 230 286 355 416
#     4  11  24  45  69  97 139 182 243 286 350 426
#     4  12  26  41  74 102 134 187 236 292 344 430
#
# _framework density 22.348213000000001
#
# number of rings (size 3 to 8) (size 9 to 14) (size 15 to 20)
#    0.000    0.923    6.154    0.000    5.385    6.769 
#    2.769    0.000    0.000    0.000    0.000    0.000 
#    0.000    0.000    0.000    0.000    0.000    0.000 
#
# Total GULP energy -144975.638424 kJ/mol
# GULP energy per Si atom -5575.986093 kJ/mol
# Density = 2.229735 g / cm^3
# Si number density = 22.348213 Si / 1000 Ang^3
#
#
#
# Elastic Constant Matrix: (Units=GPa)
#
#
# Indices 1 2 3 4 5 6 
#
# 1 105.6215 74.2051 7.3495 0.0000 0.0000 0.0000
# 2 74.2051 135.8557 16.0368 0.0000 0.0000 0.0000
# 3 7.3495 16.0368 32.4327 0.0000 0.0000 0.0000
# 4 0.0000 0.0000 0.0000 25.6535 0.0000 0.0000
# 5 0.0000 0.0000 0.0000 0.0000 37.0546 0.0000
# 6 0.0000 0.0000 0.0000 0.0000 0.0000 35.9512
#
#
#
# Elastic Compliance Matrix: (Units=1/GPa)
#
#
# Indices 1 2 3 4 5 6 
#
# 1 0.015379 -0.008484 0.000710 0.000000 0.000000 0.000000
# 2 -0.008484 0.012497 -0.004257 0.000000 0.000000 0.000000
# 3 0.000710 -0.004257 0.032777 0.000000 0.000000 0.000000
# 4 0.000000 0.000000 0.000000 0.038981 0.000000 0.000000
# 5 0.000000 0.000000 0.000000 0.000000 0.026987 0.000000
# 6 0.000000 0.000000 0.000000 0.000000 0.000000 0.027816
#
#
# Mechanical properties :
#
#
# Convention : Reuss Voigt Hill
#
# Bulk Modulus (GPa) = 27.32870 52.12142 39.72506
# Shear Modulus (GPa) = 26.21986 31.48640 28.85313
#
# Velocity S-wave (km/s) = 3.42898 3.75760 3.59705
# Velocity P-wave (km/s) = 5.28510 6.49609 5.92163
#
# Compressibility (1/GPa) = 0.03659157
#
# Stress axis : x y z
#
# Youngs Moduli (GPa) = 65.02514 80.01857 30.50913
#
# Poissons Ratio (x) = 0.67885 -0.02166
# Poissons Ratio (y) = 0.55165 0.12987
# Poissons Ratio (z) = -0.04617 0.34063
#
# Static dielectric constant tensor:
#      x y z
#    x 1.915330 0.000000 0.000000 
#    y 0.000000 2.054300 0.000000 
#    z 0.000000 0.000000 1.817170 
# 
# From -- ./inp_files/26138.got.cif
#   From: 2010.05.17/outbox.cif.g08.bks.cpg/sg20_14_cif.got.tgz:26138.got - 2010.06.03 22:52:26.
