data_PCOD9320124
_publ_section_title
;
Structure prediction by ZEFSAII (Michael W. Deem and Ramdas Pophale) SiO2 
 PCOD9320124
Probable space group: C 2 2 21
;
_chemical_formula_sum "Si O2"
_cell_formula_units_Z 40
_cell_length_a 22.262497
_cell_length_b 8.689287
_cell_length_c 9.407480
_cell_angle_alpha 90.000000
_cell_angle_beta 90.000000
_cell_angle_gamma 90.000000
_cell_volume 1819.832093
_symmetry_space_group_name_H-M "C 2 2 21"
_symmetry_group_IT_number 20
_symmetry_cell_setting 'orthorhombic'
loop_
_space_group_symop_operation_xyz
x,y,z
-x,-y,1/2+z
x,-y,-z
-x,y,1/2-z
1/2+x,1/2+y,z
1/2-x,1/2-y,1/2+z
1/2+x,1/2-y,-z
1/2-x,1/2+y,1/2-z
loop_
_atom_site_type_symbol
_atom_site_label
_atom_site_fract_x
_atom_site_fract_y
_atom_site_fract_z
Si Si1 0.160189 0.657975 0.053979
Si Si2 0.733396 0.432267 0.159836
Si Si3 0.160747 0.220896 0.253950
Si Si4 0.525023 0.858252 0.907221
Si Si5 0.462231 0.374434 0.889690
O O1 0.194518 0.774938 0.155557
O O2 0.095728 0.615349 0.114999
O O3 0.191093 0.500000 0.000000
O O4 0.147393 0.753908 0.911540
O O5 0.798693 0.366693 0.200613
O O6 0.700166 0.561950 0.255286
O O7 0.737131 0.500000 0.000000
O O8 0.097669 0.211007 0.335029
O O9 0.500000 0.842381 0.750000
O O10 0.508093 0.718482 0.009845
O O11 0.500656 0.000000 0.000000
O O12 0.500000 0.425830 0.750000
O O13 0.438691 0.500000 0.000000
#
# Coordination Sequence:
#
# PCOD9320124 Si02
#       5
#     8   8   8   8   8
#     4  10  22  42  71  96 141 186 233 293 360 427
#     4  10  24  43  69 102 139 189 240 298 360 426
#     4  11  24  45  69 102 141 187 243 302 356 437
#     4  11  25  45  71 105 144 189 233 293 364 435
#     4  12  27  44  71 105 145 188 242 297 359 434
#
# _framework density 21.980048
#
# number of rings (size 3 to 8) (size 9 to 14) (size 15 to 20)
#    0.000    1.200    2.000    2.400    8.400    4.800 
#    0.000    0.000    0.000    0.000    0.000    0.000 
#    0.000    0.000    0.000    0.000    0.000    0.000 
#
# Total GULP energy -111578.710257 kJ/mol
# GULP energy per Si atom -5578.935513 kJ/mol
# Density = 2.193002 g / cm^3
# Si number density = 21.980048 Si / 1000 Ang^3
#
#
#
# Elastic Constant Matrix: (Units=GPa)
#
#
# Indices 1 2 3 4 5 6 
#
# 1 85.9079 6.6725 24.0830 0.0000 0.0000 0.0000
# 2 6.6725 63.5210 6.7692 0.0000 0.0000 0.0000
# 3 24.0830 6.7692 99.9091 0.0000 0.0000 0.0000
# 4 0.0000 0.0000 0.0000 29.6670 0.0000 0.0000
# 5 0.0000 0.0000 0.0000 0.0000 -93.8890 0.0000
# 6 0.0000 0.0000 0.0000 0.0000 0.0000 30.4365
#
#
#
# Elastic Compliance Matrix: (Units=1/GPa)
#
#
# Indices 1 2 3 4 5 6 
#
# 1 0.012547 -0.001003 -0.002957 0.000000 0.000000 0.000000
# 2 -0.001003 0.015937 -0.000838 0.000000 0.000000 0.000000
# 3 -0.002957 -0.000838 0.010779 0.000000 0.000000 0.000000
# 4 0.000000 0.000000 0.000000 0.033707 0.000000 0.000000
# 5 0.000000 0.000000 0.000000 0.000000 -0.010651 0.000000
# 6 0.000000 0.000000 0.000000 0.000000 0.000000 0.032855
#
#
# Mechanical properties :
#
#
# Convention : Reuss Voigt Hill
#
# Bulk Modulus (GPa) = 33.70622 36.04303 34.87462
# Shear Modulus (GPa) = 43.60742 7.36378 25.48560
#
# Velocity S-wave (km/s) = 4.45899 1.83234 3.40882
# Velocity P-wave (km/s) = 6.47135 4.57278 5.60307
#
# Compressibility (1/GPa) = 0.02966812
#
# Stress axis : x y z
#
# Youngs Moduli (GPa) = 79.69979 62.74512 92.77689
#
# Poissons Ratio (x) = 0.06293 0.27430
# Poissons Ratio (y) = 0.07993 0.07775
# Poissons Ratio (z) = 0.23563 0.05258
#
# Static dielectric constant tensor:
#      x y z
#    x 1.795260 0.000000 0.000000 
#    y 0.000000 2.675690 0.000000 
#    z 0.000000 0.000000 1.762370 
# 
# From -- ./inp_files/6120.got.cif
#   From: 2010.05.17/outbox.cif.g08.bks.cpg/sg20_4_cif.got.tgz:6120.got - 2010.06.03 22:52:26.
