data_PCOD9320414
_publ_section_title
;
Structure prediction by ZEFSAII (Michael W. Deem and Ramdas Pophale) SiO2 
 PCOD9320414
Probable space group: C 2 2 21
;
_chemical_formula_sum "Si O2"
_cell_formula_units_Z 52
_cell_length_a 19.096277
_cell_length_b 5.438599
_cell_length_c 25.193840
_cell_angle_alpha 90.000000
_cell_angle_beta 90.000000
_cell_angle_gamma 90.000000
_cell_volume 2616.556464
_symmetry_space_group_name_H-M "C 2 2 21"
_symmetry_group_IT_number 20
_symmetry_cell_setting 'orthorhombic'
loop_
_space_group_symop_operation_xyz
x,y,z
-x,-y,1/2+z
x,-y,-z
-x,y,1/2-z
1/2+x,1/2+y,z
1/2-x,1/2-y,1/2+z
1/2+x,1/2-y,-z
1/2-x,1/2+y,1/2-z
loop_
_atom_site_type_symbol
_atom_site_label
_atom_site_fract_x
_atom_site_fract_y
_atom_site_fract_z
Si Si1 0.279140 0.172976 0.813129
Si Si2 0.450244 0.503631 0.061566
Si Si3 0.345963 0.826669 0.411873
Si Si4 0.292843 0.636159 0.073611
Si Si5 0.789881 0.000000 0.500000
Si Si6 0.309922 0.176458 0.700319
Si Si7 0.010424 0.492124 0.937852
O O1 0.305027 0.203748 0.873102
O O2 0.330799 0.193948 0.762369
O O3 0.225669 0.405526 0.805622
O O4 0.242915 0.906585 0.808367
O O5 0.366611 0.513235 0.061713
O O6 0.481398 0.753234 0.085606
O O7 0.478451 0.253226 0.086505
O O8 0.474272 0.500000 0.000000
O O9 0.338352 0.599792 0.452164
O O10 0.361277 0.786926 0.349621
O O11 0.405964 0.003248 0.433825
O O12 0.268933 0.944797 0.414288
O O13 0.261272 0.798497 0.026143
O O14 0.989349 0.500000 0.000000
#
# Coordination Sequence:
#
# PCOD9320414 Si02
#       7
#     8   8   8   8   4   8   8
#     4   9  18  34  55  83 116 152 194 241 293 350
#     4  10  23  38  55  78 118 158 194 229 284 360
#     4  11  23  36  58  89 122 155 198 249 301 352
#     4  11  23  36  58  89 122 155 198 249 301 352
#     4  12  22  32  60  94 132 148 196 254 318 348
#     4   9  18  34  55  83 116 152 194 241 293 350
#     4  10  23  38  55  78 118 158 194 229 284 360
#
# _framework density 19.873449999999998
#
# number of rings (size 3 to 8) (size 9 to 14) (size 15 to 20)
#    0.000    1.846    1.538    2.308   10.769    0.000 
#    0.000    0.000    0.000    0.923    0.000    2.154 
#    0.000    0.000    0.000    0.000    0.000    0.000 
#
# Total GULP energy -144838.941141 kJ/mol
# GULP energy per Si atom -5570.728505 kJ/mol
# Density = 1.982822 g / cm^3
# Si number density = 19.873450 Si / 1000 Ang^3
#
#
#
# Elastic Constant Matrix: (Units=GPa)
#
#
# Indices 1 2 3 4 5 6 
#
# 1 51.9538 36.0818 -2.4602 0.0000 0.0000 0.0000
# 2 36.0818 113.7703 0.1386 0.0000 0.0000 0.0000
# 3 -2.4602 0.1386 43.1712 0.0000 0.0000 0.0000
# 4 0.0000 0.0000 0.0000 14.3756 0.0000 0.0000
# 5 0.0000 0.0000 0.0000 0.0000 -27.0306 0.0000
# 6 0.0000 0.0000 0.0000 0.0000 0.0000 31.4099
#
#
#
# Elastic Compliance Matrix: (Units=1/GPa)
#
#
# Indices 1 2 3 4 5 6 
#
# 1 0.024774 -0.007859 0.001437 0.000000 0.000000 0.000000
# 2 -0.007859 0.011283 -0.000484 0.000000 0.000000 0.000000
# 3 0.001437 -0.000484 0.023247 0.000000 0.000000 0.000000
# 4 0.000000 0.000000 0.000000 0.069563 0.000000 0.000000
# 5 0.000000 0.000000 0.000000 0.000000 -0.036995 0.000000
# 6 0.000000 0.000000 0.000000 0.000000 0.000000 0.031837
#
#
# Mechanical properties :
#
#
# Convention : Reuss Voigt Hill
#
# Bulk Modulus (GPa) = 21.98194 30.71287 26.34741
# Shear Modulus (GPa) = 32.74756 15.42665 24.08711
#
# Velocity S-wave (km/s) = 4.06372 2.78914 3.48519
# Velocity P-wave (km/s) = 5.75356 5.08529 5.42971
#
# Compressibility (1/GPa) = 0.04549189
#
# Stress axis : x y z
#
# Youngs Moduli (GPa) = 40.36535 88.63240 43.01628
#
# Poissons Ratio (x) = 0.69653 -0.06181
# Poissons Ratio (y) = 0.31722 0.02082
# Poissons Ratio (z) = -0.05800 0.04290
#
# Static dielectric constant tensor:
#      x y z
#    x 1.675170 0.000000 0.000000 
#    y 0.000000 1.801000 0.000000 
#    z 0.000000 0.000000 1.788110 
# 
# From -- ./inp_files/22878.got.cif
#   From: 2010.05.17/outbox.cif.g08.bks.cpg/sg20_12_cif.got.tgz:22878.got - 2010.06.03 22:52:26.
