data_PCOD9320401
_publ_section_title
;
Structure prediction by ZEFSAII (Michael W. Deem and Ramdas Pophale) SiO2 
 PCOD9320401
Probable space group: C 2 2 21
;
_chemical_formula_sum "Si O2"
_cell_formula_units_Z 48
_cell_length_a 4.939510
_cell_length_b 13.507459
_cell_length_c 27.711461
_cell_angle_alpha 90.000000
_cell_angle_beta 90.000000
_cell_angle_gamma 90.000000
_cell_volume 1848.915018
_symmetry_space_group_name_H-M "C 2 2 21"
_symmetry_group_IT_number 20
_symmetry_cell_setting 'orthorhombic'
loop_
_space_group_symop_operation_xyz
x,y,z
-x,-y,1/2+z
x,-y,-z
-x,y,1/2-z
1/2+x,1/2+y,z
1/2-x,1/2-y,1/2+z
1/2+x,1/2-y,-z
1/2-x,1/2+y,1/2-z
loop_
_atom_site_type_symbol
_atom_site_label
_atom_site_fract_x
_atom_site_fract_y
_atom_site_fract_z
Si Si1 0.244305 0.023118 0.397635
Si Si2 0.724851 0.688719 0.985352
Si Si3 0.500000 0.881490 0.250000
Si Si4 0.180412 0.251624 0.678302
Si Si5 0.061784 0.500000 0.000000
Si Si6 0.170113 0.254147 0.383567
Si Si7 0.244208 0.018017 0.168730
O O1 0.259187 0.983274 0.452022
O O2 0.180805 0.140394 0.400513
O O3 0.537458 0.013009 0.373960
O O4 0.035101 0.987370 0.356644
O O5 0.734107 0.679940 0.927728
O O6 0.429837 0.721520 0.001559
O O7 0.862807 0.593048 0.008677
O O8 0.713626 0.813069 0.221981
O O9 0.341741 0.950430 0.212242
O O10 0.367842 0.221753 0.632619
O O11 0.252428 0.367554 0.686161
O O12 0.871398 0.241051 0.661991
#
# Coordination Sequence:
#
# PCOD9320401 Si02
#       7
#     8   8   4   8   4   8   8
#     4  10  24  48  74 112 157 204 247 319 387 455
#     4  12  27  47  76 114 155 204 256 315 369 454
#     4  12  28  52  82 116 142 210 262 320 402 476
#     4  10  25  47  78 107 147 197 252 316 385 465
#     4  12  28  48  82 116 160 206 268 312 386 466
#     4  10  22  49  72 105 155 199 248 315 380 449
#     4  10  26  49  76 110 159 195 253 328 390 455
#
# _framework density 25.961171
#
# number of rings (size 3 to 8) (size 9 to 14) (size 15 to 20)
#    0.000    1.333    1.667    1.000    7.000   10.667 
#    0.000    0.000    0.000    0.000    0.000    0.000 
#    0.000    0.000    0.000    0.000    0.000    0.000 
#
# Total GULP energy -134773.850332 kJ/mol
# GULP energy per Si atom -5615.577097 kJ/mol
# Density = 2.590208 g / cm^3
# Si number density = 25.961171 Si / 1000 Ang^3
#
#
#
# Elastic Constant Matrix: (Units=GPa)
#
#
# Indices 1 2 3 4 5 6 
#
# 1 81.8565 1.6606 13.1264 0.0000 0.0000 0.0000
# 2 1.6606 112.2384 47.9806 0.0000 0.0000 0.0000
# 3 13.1264 47.9806 141.1167 0.0000 0.0000 0.0000
# 4 0.0000 0.0000 0.0000 34.4079 0.0000 0.0000
# 5 0.0000 0.0000 0.0000 0.0000 41.0910 0.0000
# 6 0.0000 0.0000 0.0000 0.0000 0.0000 27.9183
#
#
#
# Elastic Compliance Matrix: (Units=1/GPa)
#
#
# Indices 1 2 3 4 5 6 
#
# 1 0.012414 0.000363 -0.001278 0.000000 0.000000 0.000000
# 2 0.000363 0.010435 -0.003582 0.000000 0.000000 0.000000
# 3 -0.001278 -0.003582 0.008423 0.000000 0.000000 0.000000
# 4 0.000000 0.000000 0.000000 0.029063 0.000000 0.000000
# 5 0.000000 0.000000 0.000000 0.000000 0.024336 0.000000
# 6 0.000000 0.000000 0.000000 0.000000 0.000000 0.035819
#
#
# Mechanical properties :
#
#
# Convention : Reuss Voigt Hill
#
# Bulk Modulus (GPa) = 44.88702 51.19409 48.04055
# Shear Modulus (GPa) = 36.52002 38.84638 37.68320
#
# Velocity S-wave (km/s) = 3.75469 3.87243 3.81402
# Velocity P-wave (km/s) = 6.01037 6.30529 6.15959
#
# Compressibility (1/GPa) = 0.02227816
#
# Stress axis : x y z
#
# Youngs Moduli (GPa) = 80.55365 95.82726 118.72160
#
# Poissons Ratio (x) = -0.03475 0.15173
# Poissons Ratio (y) = -0.02922 0.42524
# Poissons Ratio (z) = 0.10295 0.34324
#
# Static dielectric constant tensor:
#      x y z
#    x 1.983410 0.000000 0.000000 
#    y 0.000000 2.071410 0.000000 
#    z 0.000000 0.000000 1.957200 
# 
# From -- ./inp_files/29840.got.cif
#   From: 2010.05.17/outbox.cif.g08.bks.cpg/sg20_15_cif.got.tgz:29840.got - 2010.06.03 22:52:26.
