data_PCOD9320881
_publ_section_title
;
Structure prediction by ZEFSAII (Michael W. Deem and Ramdas Pophale) SiO2 
 PCOD9320881
Probable space group: C 2 2 21
;
_chemical_formula_sum "Si O2"
_cell_formula_units_Z 48
_cell_length_a 22.244098
_cell_length_b 11.253030
_cell_length_c 9.083707
_cell_angle_alpha 90.000000
_cell_angle_beta 90.000000
_cell_angle_gamma 90.000000
_cell_volume 2273.774511
_symmetry_space_group_name_H-M "C 2 2 21"
_symmetry_group_IT_number 20
_symmetry_cell_setting 'orthorhombic'
loop_
_space_group_symop_operation_xyz
x,y,z
-x,-y,1/2+z
x,-y,-z
-x,y,1/2-z
1/2+x,1/2+y,z
1/2-x,1/2-y,1/2+z
1/2+x,1/2-y,-z
1/2-x,1/2+y,1/2-z
loop_
_atom_site_type_symbol
_atom_site_label
_atom_site_fract_x
_atom_site_fract_y
_atom_site_fract_z
Si Si1 0.000000 0.715453 0.750000
Si Si2 0.929800 0.182813 0.792062
Si Si3 0.216547 0.876491 0.921315
Si Si4 0.106177 0.366495 0.449232
Si Si5 0.129343 0.000000 0.500000
Si Si6 0.918703 0.867701 0.530627
Si Si7 0.285777 0.706573 0.119556
O O1 0.049628 0.641901 0.660731
O O2 0.035071 0.795288 0.870302
O O3 0.902198 0.187620 0.628683
O O4 0.000000 0.188019 0.750000
O O5 0.909965 0.284615 0.907512
O O6 0.911336 0.059549 0.872768
O O7 0.145320 0.880828 0.890466
O O8 0.244455 0.848061 0.763870
O O9 0.235419 0.765811 0.019839
O O10 0.232376 0.000000 0.000000
O O11 0.117003 0.500000 0.500000
O O12 0.164283 0.311608 0.366819
O O13 0.174128 0.103113 0.449688
O O14 0.942880 0.000000 0.500000
#
# Coordination Sequence:
#
# PCOD9320881 Si02
#       7
#     4   8   8   8   4   8   8
#     4  12  24  42  66 102 138 182 232 276 350 410
#     4  11  24  39  67 102 132 178 222 276 349 411
#     4  11  25  45  71 101 139 180 231 282 345 406
#     4  11  26  46  67  96 141 181 229 283 340 404
#     4  10  24  44  68 102 142 172 228 290 350 400
#     4  11  25  40  68 103 139 175 224 289 348 413
#     4  11  25  46  71 102 134 183 227 287 346 408
#
# _framework density 21.110272999999999
#
# number of rings (size 3 to 8) (size 9 to 14) (size 15 to 20)
#    0.000    1.000    3.333    2.500   12.833    0.000 
#    0.000    0.000    1.833    0.000    0.000    0.000 
#    0.000    0.000    0.000    0.000    0.000    0.000 
#
# Total GULP energy -134071.430579 kJ/mol
# GULP energy per Si atom -5586.309607 kJ/mol
# Density = 2.106222 g / cm^3
# Si number density = 21.110273 Si / 1000 Ang^3
#
#
#
# Elastic Constant Matrix: (Units=GPa)
#
#
# Indices 1 2 3 4 5 6 
#
# 1 56.3935 24.2406 6.2937 0.0000 0.0000 0.0000
# 2 24.2406 122.9119 35.8096 0.0000 0.0000 0.0000
# 3 6.2937 35.8096 110.3789 0.0000 0.0000 0.0000
# 4 0.0000 0.0000 0.0000 28.3097 0.0000 0.0000
# 5 0.0000 0.0000 0.0000 0.0000 36.6459 0.0000
# 6 0.0000 0.0000 0.0000 0.0000 0.0000 16.4552
#
#
#
# Elastic Compliance Matrix: (Units=1/GPa)
#
#
# Indices 1 2 3 4 5 6 
#
# 1 0.019377 -0.003865 0.000149 0.000000 0.000000 0.000000
# 2 -0.003865 0.009756 -0.002945 0.000000 0.000000 0.000000
# 3 0.000149 -0.002945 0.010007 0.000000 0.000000 0.000000
# 4 0.000000 0.000000 0.000000 0.035324 0.000000 0.000000
# 5 0.000000 0.000000 0.000000 0.000000 0.027288 0.000000
# 6 0.000000 0.000000 0.000000 0.000000 0.000000 0.060771
#
#
# Mechanical properties :
#
#
# Convention : Reuss Voigt Hill
#
# Bulk Modulus (GPa) = 38.73193 46.93024 42.83108
# Shear Modulus (GPa) = 27.10759 31.17153 29.13956
#
# Velocity S-wave (km/s) = 3.58731 3.84683 3.71934
# Velocity P-wave (km/s) = 5.96202 6.48152 6.22719
#
# Compressibility (1/GPa) = 0.02581849
#
# Stress axis : x y z
#
# Youngs Moduli (GPa) = 51.60690 102.50010 99.93456
#
# Poissons Ratio (x) = 0.39616 -0.01489
# Poissons Ratio (y) = 0.19946 0.29428
# Poissons Ratio (z) = -0.00769 0.30184
#
# Static dielectric constant tensor:
#      x y z
#    x 1.778010 0.000000 0.000000 
#    y 0.000000 1.729050 0.000000 
#    z 0.000000 0.000000 1.913520 
# 
# From -- ./inp_files/10667.got.cif
#   From: 2010.05.17/outbox.cif.g08.bks.cpg/sg20_6_cif.got.tgz:10667.got - 2010.06.03 22:52:26.
