data_PCOD9320197
_publ_section_title
;
Structure prediction by ZEFSAII (Michael W. Deem and Ramdas Pophale) SiO2 
 PCOD9320197
Probable space group: C 2 2 21
;
_chemical_formula_sum "Si O2"
_cell_formula_units_Z 60
_cell_length_a 24.143642
_cell_length_b 13.994474
_cell_length_c 8.651634
_cell_angle_alpha 90.000000
_cell_angle_beta 90.000000
_cell_angle_gamma 90.000000
_cell_volume 2923.193074
_symmetry_space_group_name_H-M "C 2 2 21"
_symmetry_group_IT_number 20
_symmetry_cell_setting 'orthorhombic'
loop_
_space_group_symop_operation_xyz
x,y,z
-x,-y,1/2+z
x,-y,-z
-x,y,1/2-z
1/2+x,1/2+y,z
1/2-x,1/2-y,1/2+z
1/2+x,1/2-y,-z
1/2-x,1/2+y,1/2-z
loop_
_atom_site_type_symbol
_atom_site_label
_atom_site_fract_x
_atom_site_fract_y
_atom_site_fract_z
Si Si1 0.886654 0.404923 0.904323
Si Si2 0.772573 0.315055 0.824328
Si Si3 0.755514 0.358114 0.166339
Si Si4 0.446565 0.034607 0.669168
Si Si5 0.207993 0.033243 0.329071
Si Si6 0.581211 0.419783 0.717786
Si Si7 0.507268 0.500000 0.000000
Si Si8 0.383952 0.200650 0.793575
O O1 0.832188 0.363492 0.826734
O O2 0.927617 0.445577 0.775453
O O3 0.870395 0.500000 0.000000
O O4 0.906650 0.330776 0.035519
O O5 0.780071 0.205087 0.783952
O O6 0.733526 0.362708 0.697198
O O7 0.743998 0.333650 0.988836
O O8 0.740401 0.465987 0.207545
O O9 0.818588 0.323241 0.192326
O O10 0.500000 0.077053 0.750000
O O11 0.403418 0.120682 0.672400
O O12 0.459070 0.000000 0.500000
O O13 0.221645 0.000000 0.500000
O O14 0.141850 0.034300 0.308204
O O15 0.539934 0.425208 0.568345
O O16 0.595856 0.307246 0.747665
O O17 0.550514 0.480293 0.855781
#
# Coordination Sequence:
#
# PCOD9320197 Si02
#       8
#     8   8   8   8   8   8   4   8
#     4   9  20  40  64  93 136 174 216 271 331 398
#     4  11  22  40  61  96 134 174 219 266 335 415
#     4  11  24  38  66 102 134 178 219 271 343 412
#     4  11  23  41  67  99 133 172 219 277 341 402
#     4  12  24  40  66  95 140 183 224 287 341 406
#     4  11  24  47  70  96 131 184 237 298 349 408
#     4  10  26  46  68  92 126 176 244 290 356 388
#     4  10  22  43  70  95 133 182 224 277 341 405
#
# _framework density 20.525500999999998
#
# number of rings (size 3 to 8) (size 9 to 14) (size 15 to 20)
#    0.000    1.333    2.000    4.800    5.600    3.200 
#    0.000    2.667    0.000    0.000    0.000    0.000 
#    0.000    0.000    0.000    0.000    0.000    0.000 
#
# Total GULP energy -167032.780790 kJ/mol
# GULP energy per Si atom -5567.759360 kJ/mol
# Density = 2.047878 g / cm^3
# Si number density = 20.525501 Si / 1000 Ang^3
#
#
#
# Elastic Constant Matrix: (Units=GPa)
#
#
# Indices 1 2 3 4 5 6 
#
# 1 51.3194 7.3020 15.2168 0.0000 0.0000 0.0000
# 2 7.3020 75.2329 25.3793 0.0000 0.0000 0.0000
# 3 15.2168 25.3793 60.3814 0.0000 0.0000 0.0000
# 4 0.0000 0.0000 0.0000 14.8015 0.0000 0.0000
# 5 0.0000 0.0000 0.0000 0.0000 27.6988 0.0000
# 6 0.0000 0.0000 0.0000 0.0000 0.0000 9.3908
#
#
#
# Elastic Compliance Matrix: (Units=1/GPa)
#
#
# Indices 1 2 3 4 5 6 
#
# 1 0.021065 -0.000296 -0.005184 0.000000 0.000000 0.000000
# 2 -0.000296 0.015492 -0.006437 0.000000 0.000000 0.000000
# 3 -0.005184 -0.006437 0.020574 0.000000 0.000000 0.000000
# 4 0.000000 0.000000 0.000000 0.067561 0.000000 0.000000
# 5 0.000000 0.000000 0.000000 0.000000 0.036103 0.000000
# 6 0.000000 0.000000 0.000000 0.000000 0.000000 0.106487
#
#
# Mechanical properties :
#
#
# Convention : Reuss Voigt Hill
#
# Bulk Modulus (GPa) = 30.03310 31.41443 30.72377
# Shear Modulus (GPa) = 16.54452 19.64724 18.09588
#
# Velocity S-wave (km/s) = 2.84218 3.09724 2.97245
# Velocity P-wave (km/s) = 5.04326 5.30366 5.17510
#
# Compressibility (1/GPa) = 0.03329660
#
# Stress axis : x y z
#
# Youngs Moduli (GPa) = 47.47187 64.54824 48.60604
#
# Poissons Ratio (x) = 0.01908 0.25199
# Poissons Ratio (y) = 0.01403 0.31289
# Poissons Ratio (z) = 0.24611 0.41551
#
# Static dielectric constant tensor:
#      x y z
#    x 1.756520 0.000000 0.000000 
#    y 0.000000 1.715520 0.000000 
#    z 0.000000 0.000000 1.755030 
# 
# From -- ./inp_files/10787.got.cif
#   From: 2010.05.17/outbox.cif.g08.bks.cpg/sg20_6_cif.got.tgz:10787.got - 2010.06.03 22:52:26.
