data_PCOD9320247
_publ_section_title
;
Structure prediction by ZEFSAII (Michael W. Deem and Ramdas Pophale) SiO2 
 PCOD9320247
Probable space group: C 2 2 21
;
_chemical_formula_sum "Si O2"
_cell_formula_units_Z 44
_cell_length_a 5.454632
_cell_length_b 22.795682
_cell_length_c 14.580100
_cell_angle_alpha 90.000000
_cell_angle_beta 90.000000
_cell_angle_gamma 90.000000
_cell_volume 1812.919618
_symmetry_space_group_name_H-M "C 2 2 21"
_symmetry_group_IT_number 20
_symmetry_cell_setting 'orthorhombic'
loop_
_space_group_symop_operation_xyz
x,y,z
-x,-y,1/2+z
x,-y,-z
-x,y,1/2-z
1/2+x,1/2+y,z
1/2-x,1/2-y,1/2+z
1/2+x,1/2-y,-z
1/2-x,1/2+y,1/2-z
loop_
_atom_site_type_symbol
_atom_site_label
_atom_site_fract_x
_atom_site_fract_y
_atom_site_fract_z
Si Si1 0.787686 0.825047 0.096959
Si Si2 0.500000 0.569768 0.250000
Si Si3 0.354425 0.771189 0.599161
Si Si4 0.000000 0.263984 0.250000
Si Si5 0.713380 0.448513 0.926508
Si Si6 0.775064 0.429790 0.507915
Si Si7 0.000000 0.647084 0.250000
O O1 0.688225 0.804022 0.194200
O O2 0.057798 0.796326 0.093078
O O3 0.671815 0.796305 0.003223
O O4 0.719182 0.893209 0.084955
O O5 0.394822 0.529122 0.331060
O O6 0.748217 0.609135 0.262249
O O7 0.537077 0.810097 0.661923
O O8 0.121594 0.771806 0.666664
O O9 0.485013 0.407077 0.952608
O O10 0.981777 0.420728 0.931585
O O11 0.733085 0.500000 0.000000
O O12 0.754087 0.500000 0.500000
#
# Coordination Sequence:
#
# PCOD9320247 Si02
#       7
#     8   4   8   4   8   8   4
#     4  12  25  44  73 106 152 195 249 309 379 449
#     4  12  23  40  70 105 136 199 236 315 378 432
#     4  12  25  42  69 107 149 201 242 313 378 450
#     4  12  25  46  66 111 151 202 252 297 392 448
#     4  10  22  44  68 102 140 182 251 306 368 442
#     4  10  24  46  73 100 140 193 244 302 366 441
#     4  12  26  42  68 104 151 183 256 296 370 474
#
# _framework density 24.270240999999999
#
# number of rings (size 3 to 8) (size 9 to 14) (size 15 to 20)
#    0.000    0.727    3.636    3.818    2.545    1.455 
#    0.000    7.273    0.000    0.000    0.000    0.000 
#    0.000    0.000    0.000    0.000    0.000    0.000 
#
# Total GULP energy -122520.284339 kJ/mol
# GULP energy per Si atom -5569.103834 kJ/mol
# Density = 2.421500 g / cm^3
# Si number density = 24.270241 Si / 1000 Ang^3
#
#
#
# Elastic Constant Matrix: (Units=GPa)
#
#
# Indices 1 2 3 4 5 6 
#
# 1 158.5784 19.6072 23.0202 0.0000 0.0000 0.0000
# 2 19.6072 103.6834 29.9936 0.0000 0.0000 0.0000
# 3 23.0202 29.9936 121.4749 0.0000 0.0000 0.0000
# 4 0.0000 0.0000 0.0000 32.2827 0.0000 0.0000
# 5 0.0000 0.0000 0.0000 0.0000 44.2377 0.0000
# 6 0.0000 0.0000 0.0000 0.0000 0.0000 19.1666
#
#
#
# Elastic Compliance Matrix: (Units=1/GPa)
#
#
# Indices 1 2 3 4 5 6 
#
# 1 0.006570 -0.000950 -0.001010 0.000000 0.000000 0.000000
# 2 -0.000950 0.010524 -0.002418 0.000000 0.000000 0.000000
# 3 -0.001010 -0.002418 0.009021 0.000000 0.000000 0.000000
# 4 0.000000 0.000000 0.000000 0.030976 0.000000 0.000000
# 5 0.000000 0.000000 0.000000 0.000000 0.022605 0.000000
# 6 0.000000 0.000000 0.000000 0.000000 0.000000 0.052174
#
#
# Mechanical properties :
#
#
# Convention : Reuss Voigt Hill
#
# Bulk Modulus (GPa) = 57.61417 58.77542 58.19480
# Shear Modulus (GPa) = 34.14966 39.87844 37.01405
#
# Velocity S-wave (km/s) = 3.75515 4.05791 3.90946
# Velocity P-wave (km/s) = 6.52623 6.79891 6.66397
#
# Compressibility (1/GPa) = 0.01735684
#
# Stress axis : x y z
#
# Youngs Moduli (GPa) = 152.20240 95.02054 110.85501
#
# Poissons Ratio (x) = 0.09028 0.11202
# Poissons Ratio (y) = 0.14462 0.26810
# Poissons Ratio (z) = 0.15380 0.22980
#
# Static dielectric constant tensor:
#      x y z
#    x 2.066160 0.000000 0.000000 
#    y 0.000000 2.056420 0.000000 
#    z 0.000000 0.000000 1.808670 
# 
# From -- ./inp_files/17752.got.cif
#   From: 2010.05.17/outbox.cif.g08.bks.cpg/sg20_9_cif.got.tgz:17752.got - 2010.06.03 22:52:26.
