data_PCOD9320765
_publ_section_title
;
Structure prediction by ZEFSAII (Michael W. Deem and Ramdas Pophale) SiO2 
 PCOD9320765
Probable space group: C 2 2 21
;
_chemical_formula_sum "Si O2"
_cell_formula_units_Z 28
_cell_length_a 9.115684
_cell_length_b 4.944850
_cell_length_c 25.836438
_cell_angle_alpha 90.000000
_cell_angle_beta 90.000000
_cell_angle_gamma 90.000000
_cell_volume 1164.595271
_symmetry_space_group_name_H-M "C 2 2 21"
_symmetry_group_IT_number 20
_symmetry_cell_setting 'orthorhombic'
loop_
_space_group_symop_operation_xyz
x,y,z
-x,-y,1/2+z
x,-y,-z
-x,y,1/2-z
1/2+x,1/2+y,z
1/2-x,1/2-y,1/2+z
1/2+x,1/2-y,-z
1/2-x,1/2+y,1/2-z
loop_
_atom_site_type_symbol
_atom_site_label
_atom_site_fract_x
_atom_site_fract_y
_atom_site_fract_z
Si Si1 0.679527 0.835449 0.047915
Si Si2 0.102380 0.500000 0.500000
Si Si3 0.007490 0.168773 0.191238
Si Si4 0.821690 0.333869 0.653378
O O1 0.789726 0.585979 0.046882
O O2 0.675076 0.015375 0.098434
O O3 0.514824 0.794884 0.026859
O O4 0.747355 0.000000 0.000000
O O5 0.844276 0.218600 0.170663
O O6 0.000000 0.065587 0.250000
O O7 0.086906 0.942614 0.156209
O O8 0.100987 0.444093 0.190304
#
# Coordination Sequence:
#
# PCOD9320765 Si02
#       4
#     8   4   8   8
#     4  10  26  40  66  95 135 176 222 275 332 411
#     4  10  24  38  64  86 140 162 226 262 336 382
#     4  12  26  47  71 103 137 179 233 293 343 406
#     4  12  26  43  74  98 139 179 232 276 357 405
#
# _framework density 24.042684999999999
#
# number of rings (size 3 to 8) (size 9 to 14) (size 15 to 20)
#    0.857    0.000    0.000    6.000   10.000    0.000 
#    0.000    0.000    0.000    0.000    0.000    0.000 
#    0.000    0.000    0.000    0.000    0.000    0.000 
#
# Total GULP energy -78261.403954 kJ/mol
# GULP energy per Si atom -5590.100282 kJ/mol
# Density = 2.398796 g / cm^3
# Si number density = 24.042685 Si / 1000 Ang^3
#
#
#
# Elastic Constant Matrix: (Units=GPa)
#
#
# Indices 1 2 3 4 5 6 
#
# 1 180.8644 31.4125 -1.8578 0.0000 0.0000 0.0000
# 2 31.4125 73.0512 -31.5292 0.0000 0.0000 0.0000
# 3 -1.8578 -31.5292 72.2523 0.0000 0.0000 0.0000
# 4 0.0000 0.0000 0.0000 35.6194 0.0000 0.0000
# 5 0.0000 0.0000 0.0000 0.0000 34.0882 0.0000
# 6 0.0000 0.0000 0.0000 0.0000 0.0000 6.9372
#
#
#
# Elastic Compliance Matrix: (Units=1/GPa)
#
#
# Indices 1 2 3 4 5 6 
#
# 1 0.006060 -0.003128 -0.001209 0.000000 0.000000 0.000000
# 2 -0.003128 0.018480 0.007984 0.000000 0.000000 0.000000
# 3 -0.001209 0.007984 0.017293 0.000000 0.000000 0.000000
# 4 0.000000 0.000000 0.000000 0.028075 0.000000 0.000000
# 5 0.000000 0.000000 0.000000 0.000000 0.029336 0.000000
# 6 0.000000 0.000000 0.000000 0.000000 0.000000 0.144150
#
#
# Mechanical properties :
#
#
# Convention : Reuss Voigt Hill
#
# Bulk Modulus (GPa) = 20.35544 35.80210 28.07877
# Shear Modulus (GPa) = 19.80396 37.20511 28.50454
#
# Velocity S-wave (km/s) = 2.87313 3.93805 3.44696
# Velocity P-wave (km/s) = 4.41489 5.96666 5.24844
#
# Compressibility (1/GPa) = 0.04912692
#
# Stress axis : x y z
#
# Youngs Moduli (GPa) = 165.02257 54.11353 57.82630
#
# Poissons Ratio (x) = 0.16924 0.06991
# Poissons Ratio (y) = 0.51611 -0.46167
# Poissons Ratio (z) = 0.19951 -0.43202
#
# Static dielectric constant tensor:
#      x y z
#    x 1.853700 0.000000 0.000000 
#    y 0.000000 0.407270 0.000000 
#    z 0.000000 0.000000 1.922130 
# 
# From -- ./inp_files/28141.got.cif
#   From: 2010.05.17/outbox.cif.g08.bks.cpg/sg20_15_cif.got.tgz:28141.got - 2010.06.03 22:52:26.
