data_PCOD9320675
_publ_section_title
;
Structure prediction by ZEFSAII (Michael W. Deem and Ramdas Pophale) SiO2 
 PCOD9320675
Probable space group: C 2 2 21
;
_chemical_formula_sum "Si O2"
_cell_formula_units_Z 40
_cell_length_a 12.424788
_cell_length_b 17.085740
_cell_length_c 8.080469
_cell_angle_alpha 90.000000
_cell_angle_beta 90.000000
_cell_angle_gamma 90.000000
_cell_volume 1715.376077
_symmetry_space_group_name_H-M "C 2 2 21"
_symmetry_group_IT_number 20
_symmetry_cell_setting 'orthorhombic'
loop_
_space_group_symop_operation_xyz
x,y,z
-x,-y,1/2+z
x,-y,-z
-x,y,1/2-z
1/2+x,1/2+y,z
1/2-x,1/2-y,1/2+z
1/2+x,1/2-y,-z
1/2-x,1/2+y,1/2-z
loop_
_atom_site_type_symbol
_atom_site_label
_atom_site_fract_x
_atom_site_fract_y
_atom_site_fract_z
Si Si1 0.936806 0.781356 0.417895
Si Si2 0.000000 0.615776 0.750000
Si Si3 0.224202 0.375833 0.389465
Si Si4 0.930135 0.405734 0.587154
Si Si5 0.770323 0.046819 0.261930
Si Si6 0.000000 0.127023 0.250000
O O1 0.815278 0.810627 0.390604
O O2 0.938487 0.688429 0.437687
O O3 0.000000 0.802392 0.250000
O O4 0.984548 0.822238 0.582478
O O5 0.112409 0.653878 0.689352
O O6 0.970262 0.565028 0.590158
O O7 0.261468 0.454317 0.293839
O O8 0.219712 0.407620 0.578199
O O9 0.806985 0.427406 0.615683
O O10 0.000000 0.421183 0.750000
O O11 0.892407 0.074503 0.239535
#
# Coordination Sequence:
#
# PCOD9320675 Si02
#       6
#     8   4   8   8   8   4
#     4  10  24  44  67 100 135 176 231 283 337 412
#     4  12  25  42  68 102 131 184 232 278 347 422
#     4  10  24  42  68 102 136 179 234 276 334 426
#     4  11  24  44  68  97 138 178 225 287 344 399
#     4  10  23  45  69  99 140 183 224 288 340 407
#     4  10  23  46  68  98 137 180 226 288 347 406
#
# _framework density 23.318504000000001
#
# number of rings (size 3 to 8) (size 9 to 14) (size 15 to 20)
#    0.000    1.600    2.000    0.600    5.600    5.600 
#    0.000    0.000    0.000    0.000    0.000    0.000 
#    0.000    0.000    0.000    0.000    0.000    0.000 
#
# Total GULP energy -111930.981889 kJ/mol
# GULP energy per Si atom -5596.549094 kJ/mol
# Density = 2.326543 g / cm^3
# Si number density = 23.318504 Si / 1000 Ang^3
#
#
#
# Elastic Constant Matrix: (Units=GPa)
#
#
# Indices 1 2 3 4 5 6 
#
# 1 186.8281 51.8296 92.2634 0.0000 0.0000 0.0000
# 2 51.8296 94.0532 48.9428 0.0000 0.0000 0.0000
# 3 92.2634 48.9428 169.9030 0.0000 0.0000 0.0000
# 4 0.0000 0.0000 0.0000 27.2503 0.0000 0.0000
# 5 0.0000 0.0000 0.0000 0.0000 50.1190 0.0000
# 6 0.0000 0.0000 0.0000 0.0000 0.0000 24.4352
#
#
#
# Elastic Compliance Matrix: (Units=1/GPa)
#
#
# Indices 1 2 3 4 5 6 
#
# 1 0.007767 -0.002453 -0.003511 0.000000 0.000000 0.000000
# 2 -0.002453 0.013282 -0.002494 0.000000 0.000000 0.000000
# 3 -0.003511 -0.002494 0.008511 0.000000 0.000000 0.000000
# 4 0.000000 0.000000 0.000000 0.036697 0.000000 0.000000
# 5 0.000000 0.000000 0.000000 0.000000 0.019953 0.000000
# 6 0.000000 0.000000 0.000000 0.000000 0.000000 0.040924
#
#
# Mechanical properties :
#
#
# Convention : Reuss Voigt Hill
#
# Bulk Modulus (GPa) = 79.09237 92.98399 86.03818
# Shear Modulus (GPa) = 33.72362 37.54414 35.63388
#
# Velocity S-wave (km/s) = 3.80704 4.01691 3.91338
# Velocity P-wave (km/s) = 7.30183 7.84068 7.57604
#
# Compressibility (1/GPa) = 0.01264344
#
# Stress axis : x y z
#
# Youngs Moduli (GPa) = 128.75057 75.29083 117.49812
#
# Poissons Ratio (x) = 0.18469 0.41255
# Poissons Ratio (y) = 0.31583 0.29303
# Poissons Ratio (z) = 0.45206 0.18777
#
# Static dielectric constant tensor:
#      x y z
#    x 1.839940 0.000000 0.000000 
#    y 0.000000 1.860140 0.000000 
#    z 0.000000 0.000000 1.926490 
# 
# From -- ./inp_files/7122.got.cif
#   From: 2010.05.17/outbox.cif.g08.bks.cpg/sg20_4_cif.got.tgz:7122.got - 2010.06.03 22:52:26.
