data_PCOD9320542
_publ_section_title
;
Structure prediction by ZEFSAII (Michael W. Deem and Ramdas Pophale) SiO2 
 PCOD9320542
Probable space group: C 2 2 21
;
_chemical_formula_sum "Si O2"
_cell_formula_units_Z 40
_cell_length_a 8.642095
_cell_length_b 11.716710
_cell_length_c 15.620511
_cell_angle_alpha 90.000000
_cell_angle_beta 90.000000
_cell_angle_gamma 90.000000
_cell_volume 1581.684847
_symmetry_space_group_name_H-M "C 2 2 21"
_symmetry_group_IT_number 20
_symmetry_cell_setting 'orthorhombic'
loop_
_space_group_symop_operation_xyz
x,y,z
-x,-y,1/2+z
x,-y,-z
-x,y,1/2-z
1/2+x,1/2+y,z
1/2-x,1/2-y,1/2+z
1/2+x,1/2-y,-z
1/2-x,1/2+y,1/2-z
loop_
_atom_site_type_symbol
_atom_site_label
_atom_site_fract_x
_atom_site_fract_y
_atom_site_fract_z
Si Si1 0.500000 0.740571 0.750000
Si Si2 0.500000 0.647235 0.250000
Si Si3 0.718766 0.815056 0.479128
Si Si4 0.645953 0.453202 0.166149
Si Si5 0.583304 0.812718 0.116480
Si Si6 0.958846 0.559701 0.127569
O O1 0.368209 0.646306 0.735698
O O2 0.480830 0.826639 0.671751
O O3 0.512045 0.548244 0.175224
O O4 0.610902 0.738614 0.201883
O O5 0.840879 0.890807 0.425580
O O6 0.591664 0.772827 0.411074
O O7 0.801113 0.725636 0.541281
O O8 0.614217 0.895365 0.539622
O O9 0.808226 0.516892 0.179556
O O10 0.569502 0.949788 0.124204
#
# Coordination Sequence:
#
# PCOD9320542 Si02
#       6
#     4   4   8   8   8   8
#     4  11  25  42  68 104 135 181 242 278 356 425
#     4  11  23  42  72 106 141 181 248 278 364 419
#     4  11  24  46  73  99 148 187 239 290 364 411
#     4  10  23  42  69  96 136 186 226 293 343 416
#     4  11  24  43  77 105 137 197 228 299 353 426
#     4  11  24  43  72  98 147 180 231 303 349 414
#
# _framework density 25.289490000000001
#
# number of rings (size 3 to 8) (size 9 to 14) (size 15 to 20)
#    0.000    1.200    2.000    4.200    5.600    1.600 
#    0.000    0.000   30.800    0.000    0.000    0.000 
#    0.000    0.000    0.000    0.000    0.000    0.000 
#
# Total GULP energy -111374.495259 kJ/mol
# GULP energy per Si atom -5568.724763 kJ/mol
# Density = 2.523193 g / cm^3
# Si number density = 25.289490 Si / 1000 Ang^3
#
#
#
# Elastic Constant Matrix: (Units=GPa)
#
#
# Indices 1 2 3 4 5 6 
#
# 1 38.1981 53.8570 21.7905 0.0000 0.0000 0.0000
# 2 53.8570 218.1456 40.7608 0.0000 0.0000 0.0000
# 3 21.7905 40.7608 52.4537 0.0000 0.0000 0.0000
# 4 0.0000 0.0000 0.0000 -23.2791 0.0000 0.0000
# 5 0.0000 0.0000 0.0000 0.0000 22.6923 0.0000
# 6 0.0000 0.0000 0.0000 0.0000 0.0000 12.4208
#
#
#
# Elastic Compliance Matrix: (Units=1/GPa)
#
#
# Indices 1 2 3 4 5 6 
#
# 1 0.045800 -0.009069 -0.011979 0.000000 0.000000 0.000000
# 2 -0.009069 0.007159 -0.001795 0.000000 0.000000 0.000000
# 3 -0.011979 -0.001795 0.025436 0.000000 0.000000 0.000000
# 4 0.000000 0.000000 0.000000 -0.042957 0.000000 0.000000
# 5 0.000000 0.000000 0.000000 0.000000 0.044068 0.000000
# 6 0.000000 0.000000 0.000000 0.000000 0.000000 0.080510
#
#
# Mechanical properties :
#
#
# Convention : Reuss Voigt Hill
#
# Bulk Modulus (GPa) = 30.57396 60.17933 45.37665
# Shear Modulus (GPa) = 23.08364 15.19274 19.13819
#
# Velocity S-wave (km/s) = 3.02450 2.45369 2.75392
# Velocity P-wave (km/s) = 4.93078 5.64582 5.30037
#
# Compressibility (1/GPa) = 0.03270757
#
# Stress axis : x y z
#
# Youngs Moduli (GPa) = 21.83428 139.69312 39.31461
#
# Poissons Ratio (x) = 1.26687 0.47095
# Poissons Ratio (y) = 0.19801 0.07058
# Poissons Ratio (z) = 0.26155 0.25079
#
# Static dielectric constant tensor:
#      x y z
#    x 2.082510 0.000000 0.000000 
#    y 0.000000 1.935970 0.000000 
#    z 0.000000 0.000000 2.237860 
# 
# From -- ./inp_files/23223.got.cif
#   From: 2010.05.17/outbox.cif.g08.bks.cpg/sg20_12_cif.got.tgz:23223.got - 2010.06.03 22:52:26.
