data_PCOD9320060
_publ_section_title
;
Structure prediction by ZEFSAII (Michael W. Deem and Ramdas Pophale) SiO2 
 PCOD9320060
Probable space group: C 2 2 21
;
_chemical_formula_sum "Si O2"
_cell_formula_units_Z 44
_cell_length_a 7.376949
_cell_length_b 13.183252
_cell_length_c 21.721475
_cell_angle_alpha 90.000000
_cell_angle_beta 90.000000
_cell_angle_gamma 90.000000
_cell_volume 2112.460746
_symmetry_space_group_name_H-M "C 2 2 21"
_symmetry_group_IT_number 20
_symmetry_cell_setting 'orthorhombic'
loop_
_space_group_symop_operation_xyz
x,y,z
-x,-y,1/2+z
x,-y,-z
-x,y,1/2-z
1/2+x,1/2+y,z
1/2-x,1/2-y,1/2+z
1/2+x,1/2-y,-z
1/2-x,1/2+y,1/2-z
loop_
_atom_site_type_symbol
_atom_site_label
_atom_site_fract_x
_atom_site_fract_y
_atom_site_fract_z
Si Si1 0.375940 0.552590 0.934936
Si Si2 0.000000 0.198804 0.250000
Si Si3 0.527063 0.916792 0.455806
Si Si4 0.387810 0.605791 0.370525
Si Si5 0.959371 0.289821 0.926680
Si Si6 0.180629 0.733632 0.633804
O O1 0.158242 0.537894 0.927519
O O2 0.509146 0.497996 0.886695
O O3 0.398179 0.673389 0.934232
O O4 0.420404 0.500000 0.000000
O O5 0.887986 0.128958 0.297411
O O6 0.872488 0.265964 0.205620
O O7 0.480345 0.831197 0.506744
O O8 0.650497 0.870279 0.402846
O O9 0.617846 0.000000 0.500000
O O10 0.529583 0.691008 0.394392
O O11 0.197142 0.637680 0.399572
O O12 0.127574 0.282327 0.880478
#
# Coordination Sequence:
#
# PCOD9320060 Si02
#       6
#     8   4   8   8   8   8
#     4  11  23  40  67 101 144 180 229 298 361 429
#     4   8  22  46  68  88 144 186 244 296 356 442
#     4  11  23  40  66 105 144 185 236 296 370 431
#     4  10  23  46  64  99 139 188 233 295 360 426
#     4  12  24  39  71 106 138 185 242 298 369 432
#     4  10  22  42  66  94 141 186 230 299 356 432
#
# _framework density 20.828790000000001
#
# number of rings (size 3 to 8) (size 9 to 14) (size 15 to 20)
#    1.091    0.364    1.818    4.364    5.091    0.727 
#    0.000    3.636    0.000    0.000    0.000    0.000 
#    0.000    0.000    0.000    0.000    0.000    0.000 
#
# Total GULP energy -122640.625119 kJ/mol
# GULP energy per Si atom -5574.573869 kJ/mol
# Density = 2.078138 g / cm^3
# Si number density = 20.828790 Si / 1000 Ang^3
#
#
#
# Elastic Constant Matrix: (Units=GPa)
#
#
# Indices 1 2 3 4 5 6 
#
# 1 138.4723 28.0381 45.9744 0.0000 0.0000 0.0000
# 2 28.0381 89.8045 52.1884 0.0000 0.0000 0.0000
# 3 45.9744 52.1884 114.5175 0.0000 0.0000 0.0000
# 4 0.0000 0.0000 0.0000 31.2606 0.0000 0.0000
# 5 0.0000 0.0000 0.0000 0.0000 16.2725 0.0000
# 6 0.0000 0.0000 0.0000 0.0000 0.0000 4.7453
#
#
#
# Elastic Compliance Matrix: (Units=1/GPa)
#
#
# Indices 1 2 3 4 5 6 
#
# 1 0.008385 -0.000900 -0.002956 0.000000 0.000000 0.000000
# 2 -0.000900 0.015243 -0.006585 0.000000 0.000000 0.000000
# 3 -0.002956 -0.006585 0.012920 0.000000 0.000000 0.000000
# 4 0.000000 0.000000 0.000000 0.031989 0.000000 0.000000
# 5 0.000000 0.000000 0.000000 0.000000 0.061454 0.000000
# 6 0.000000 0.000000 0.000000 0.000000 0.000000 0.210734
#
#
# Mechanical properties :
#
#
# Convention : Reuss Voigt Hill
#
# Bulk Modulus (GPa) = 63.83438 66.13290 64.98364
# Shear Modulus (GPa) = 13.63027 24.89524 19.26275
#
# Velocity S-wave (km/s) = 2.56089 3.46096 3.04437
# Velocity P-wave (km/s) = 6.28155 6.91308 6.60487
#
# Compressibility (1/GPa) = 0.01566554
#
# Stress axis : x y z
#
# Youngs Moduli (GPa) = 119.25464 65.60260 77.39795
#
# Poissons Ratio (x) = 0.05905 0.22881
# Poissons Ratio (y) = 0.10734 0.50970
# Poissons Ratio (z) = 0.35255 0.43202
#
# Static dielectric constant tensor:
#      x y z
#    x 1.772850 0.000000 0.000000 
#    y 0.000000 1.828980 0.000000 
#    z 0.000000 0.000000 1.731060 
# 
# From -- ./inp_files/23348.got.cif
#   From: 2010.05.17/outbox.cif.g08.bks.cpg/sg20_12_cif.got.tgz:23348.got - 2010.06.03 22:52:26.
