data_PCOD9320721
_publ_section_title
;
Structure prediction by ZEFSAII (Michael W. Deem and Ramdas Pophale) SiO2 
 PCOD9320721
Probable space group: C 2 2 21
;
_chemical_formula_sum "Si O2"
_cell_formula_units_Z 36
_cell_length_a 12.439280
_cell_length_b 25.952666
_cell_length_c 5.116302
_cell_angle_alpha 90.000000
_cell_angle_beta 90.000000
_cell_angle_gamma 90.000000
_cell_volume 1651.708459
_symmetry_space_group_name_H-M "C 2 2 21"
_symmetry_group_IT_number 20
_symmetry_cell_setting 'orthorhombic'
loop_
_space_group_symop_operation_xyz
x,y,z
-x,-y,1/2+z
x,-y,-z
-x,y,1/2-z
1/2+x,1/2+y,z
1/2-x,1/2-y,1/2+z
1/2+x,1/2-y,-z
1/2-x,1/2+y,1/2-z
loop_
_atom_site_type_symbol
_atom_site_label
_atom_site_fract_x
_atom_site_fract_y
_atom_site_fract_z
Si Si1 0.276326 0.781220 0.483055
Si Si2 0.500000 0.815279 0.250000
Si Si3 0.000000 0.523602 0.250000
Si Si4 0.148148 0.398298 0.458940
Si Si5 0.220653 0.895985 0.542329
Si Si6 0.423543 0.500000 0.000000
O O1 0.270546 0.758624 0.772781
O O2 0.401360 0.788151 0.398019
O O3 0.207905 0.834886 0.466330
O O4 0.564520 0.851547 0.452520
O O5 0.913692 0.554865 0.084709
O O6 0.939160 0.500000 0.500000
O O7 0.183908 0.407592 0.163563
O O8 0.246956 0.390894 0.654208
O O9 0.142655 0.945510 0.512486
O O10 0.500000 0.502201 0.750000
#
# Coordination Sequence:
#
# PCOD9320721 Si02
#       6
#     8   4   4   8   8   4
#     4  11  24  44  72 108 140 191 243 304 370 440
#     4  10  23  46  70  98 152 188 220 309 372 428
#     4  12  23  32  52  98 136 168 220 259 314 418
#     4  11  23  41  65  98 136 188 215 279 360 429
#     4  11  25  46  74  97 141 183 245 295 368 434
#     4  12  28  52  76 100 142 194 246 318 374 426
#
# _framework density 21.795614
#
# number of rings (size 3 to 8) (size 9 to 14) (size 15 to 20)
#    0.000    0.889    0.000    8.667    4.667    4.444 
#    6.000    0.000    0.000    0.000    0.000    0.000 
#    0.000    0.000    0.000    0.000    0.000    0.000 
#
# Total GULP energy -100281.107879 kJ/mol
# GULP energy per Si atom -5571.172660 kJ/mol
# Density = 2.174601 g / cm^3
# Si number density = 21.795614 Si / 1000 Ang^3
#
#
#
# Elastic Constant Matrix: (Units=GPa)
#
#
# Indices 1 2 3 4 5 6 
#
# 1 75.7515 41.7748 -2.2297 0.0000 0.0000 0.0000
# 2 41.7748 140.4149 18.1475 0.0000 0.0000 0.0000
# 3 -2.2297 18.1475 67.6505 0.0000 0.0000 0.0000
# 4 0.0000 0.0000 0.0000 41.3805 0.0000 0.0000
# 5 0.0000 0.0000 0.0000 0.0000 45.8489 0.0000
# 6 0.0000 0.0000 0.0000 0.0000 0.0000 41.4317
#
#
#
# Elastic Compliance Matrix: (Units=1/GPa)
#
#
# Indices 1 2 3 4 5 6 
#
# 1 0.016017 -0.005007 0.001871 0.000000 0.000000 0.000000
# 2 -0.005007 0.008943 -0.002564 0.000000 0.000000 0.000000
# 3 0.001871 -0.002564 0.015531 0.000000 0.000000 0.000000
# 4 0.000000 0.000000 0.000000 0.024166 0.000000 0.000000
# 5 0.000000 0.000000 0.000000 0.000000 0.021811 0.000000
# 6 0.000000 0.000000 0.000000 0.000000 0.000000 0.024136
#
#
# Mechanical properties :
#
#
# Convention : Reuss Voigt Hill
#
# Bulk Modulus (GPa) = 34.37427 44.35579 39.36503
# Shear Modulus (GPa) = 37.96459 40.80718 39.38589
#
# Velocity S-wave (km/s) = 4.17807 4.33166 4.25556
# Velocity P-wave (km/s) = 6.25144 6.73889 6.49974
#
# Compressibility (1/GPa) = 0.02909153
#
# Stress axis : x y z
#
# Youngs Moduli (GPa) = 62.43186 111.82171 64.38604
#
# Poissons Ratio (x) = 0.55991 -0.12047
# Poissons Ratio (y) = 0.31261 0.16508
# Poissons Ratio (z) = -0.11682 0.28671
#
# Static dielectric constant tensor:
#      x y z
#    x 1.829250 0.000000 0.000000 
#    y 0.000000 1.976520 0.000000 
#    z 0.000000 0.000000 1.953030 
# 
# From -- ./inp_files/1273.got.cif
#   From: 2010.05.17/outbox.cif.g08.bks.cpg/sg20_1_cif.got.tgz:1273.got - 2010.06.03 22:52:26.
