data_PCOD9320226
_publ_section_title
;
Structure prediction by ZEFSAII (Michael W. Deem and Ramdas Pophale) SiO2 
 PCOD9320226
Probable space group: C 2 2 21
;
_chemical_formula_sum "Si O2"
_cell_formula_units_Z 52
_cell_length_a 8.539804
_cell_length_b 18.135071
_cell_length_c 17.825590
_cell_angle_alpha 90.000000
_cell_angle_beta 90.000000
_cell_angle_gamma 90.000000
_cell_volume 2760.648265
_symmetry_space_group_name_H-M "C 2 2 21"
_symmetry_group_IT_number 20
_symmetry_cell_setting 'orthorhombic'
loop_
_space_group_symop_operation_xyz
x,y,z
-x,-y,1/2+z
x,-y,-z
-x,y,1/2-z
1/2+x,1/2+y,z
1/2-x,1/2-y,1/2+z
1/2+x,1/2-y,-z
1/2-x,1/2+y,1/2-z
loop_
_atom_site_type_symbol
_atom_site_label
_atom_site_fract_x
_atom_site_fract_y
_atom_site_fract_z
Si Si1 0.063448 0.649382 0.667758
Si Si2 0.059304 0.154179 0.523963
Si Si3 0.087561 0.798470 0.169306
Si Si4 0.062043 0.653809 0.334567
Si Si5 0.283232 0.500000 0.000000
Si Si6 0.326658 0.740553 0.415865
Si Si7 0.026238 0.500252 0.416364
O O1 0.230868 0.687242 0.675972
O O2 0.080952 0.571804 0.626149
O O3 0.000000 0.634524 0.750000
O O4 0.942991 0.701769 0.623638
O O5 0.202501 0.212238 0.534777
O O6 0.988302 0.147978 0.607890
O O7 0.928806 0.187501 0.468699
O O8 0.119867 0.075028 0.497170
O O9 0.000000 0.803140 0.250000
O O10 0.058823 0.716180 0.136949
O O11 0.227224 0.694553 0.353324
O O12 0.061328 0.576809 0.376594
O O13 0.000000 0.641103 0.250000
O O14 0.161430 0.494944 0.069628
O O15 0.095883 0.500000 0.500000
#
# Coordination Sequence:
#
# PCOD9320226 Si02
#       7
#     8   8   8   8   4   8   8
#     4  12  23  41  68  94 128 168 215 259 326 392
#     4  11  23  41  63  93 133 162 217 266 317 382
#     4  10  24  40  69  94 129 166 214 268 319 378
#     4  10  22  44  64  91 135 169 213 265 326 384
#     4  10  24  40  60  90 130 166 208 266 320 378
#     4  11  24  39  68 101 122 173 217 269 319 380
#     4  10  24  38  64  93 130 168 216 258 331 378
#
# _framework density 18.836155000000002
#
# number of rings (size 3 to 8) (size 9 to 14) (size 15 to 20)
#    0.462    0.923    1.538    4.154   12.923    1.231 
#    0.000    0.000    0.000    0.000    0.000    0.000 
#    0.000    0.000    0.000    0.000    0.000    0.000 
#
# Total GULP energy -145063.034883 kJ/mol
# GULP energy per Si atom -5579.347495 kJ/mol
# Density = 1.879328 g / cm^3
# Si number density = 18.836155 Si / 1000 Ang^3
#
#
#
# Elastic Constant Matrix: (Units=GPa)
#
#
# Indices 1 2 3 4 5 6 
#
# 1 107.0454 52.2232 32.8615 0.0000 0.0000 0.0000
# 2 52.2232 126.8474 39.2802 0.0000 0.0000 0.0000
# 3 32.8615 39.2802 75.1692 0.0000 0.0000 0.0000
# 4 0.0000 0.0000 0.0000 24.1474 0.0000 0.0000
# 5 0.0000 0.0000 0.0000 0.0000 19.4305 0.0000
# 6 0.0000 0.0000 0.0000 0.0000 0.0000 24.5800
#
#
#
# Elastic Compliance Matrix: (Units=1/GPa)
#
#
# Indices 1 2 3 4 5 6 
#
# 1 0.012327 -0.004064 -0.003265 0.000000 0.000000 0.000000
# 2 -0.004064 0.010745 -0.003838 0.000000 0.000000 0.000000
# 3 -0.003265 -0.003838 0.016737 0.000000 0.000000 0.000000
# 4 0.000000 0.000000 0.000000 0.041412 0.000000 0.000000
# 5 0.000000 0.000000 0.000000 0.000000 0.051466 0.000000
# 6 0.000000 0.000000 0.000000 0.000000 0.000000 0.040683
#
#
# Mechanical properties :
#
#
# Convention : Reuss Voigt Hill
#
# Bulk Modulus (GPa) = 57.22937 61.97688 59.60312
# Shear Modulus (GPa) = 24.81027 25.94472 25.37750
#
# Velocity S-wave (km/s) = 3.63321 3.71535 3.67451
# Velocity P-wave (km/s) = 6.93174 7.16796 7.05084
#
# Compressibility (1/GPa) = 0.01747355
#
# Stress axis : x y z
#
# Youngs Moduli (GPa) = 81.12405 93.06491 59.74931
#
# Poissons Ratio (x) = 0.37820 0.19510
# Poissons Ratio (y) = 0.32967 0.22934
# Poissons Ratio (z) = 0.26489 0.35722
#
# Static dielectric constant tensor:
#      x y z
#    x 1.656190 0.000000 0.000000 
#    y 0.000000 1.624890 0.000000 
#    z 0.000000 0.000000 1.674250 
# 
# From -- ./inp_files/26670.got.cif
#   From: 2010.05.17/outbox.cif.g08.bks.cpg/sg20_14_cif.got.tgz:26670.got - 2010.06.03 22:52:26.
