data_PCOD9320469
_publ_section_title
;
Structure prediction by ZEFSAII (Michael W. Deem and Ramdas Pophale) SiO2 
 PCOD9320469
Probable space group: C 2 2 21
;
_chemical_formula_sum "Si O2"
_cell_formula_units_Z 64
_cell_length_a 5.216593
_cell_length_b 28.774559
_cell_length_c 21.129067
_cell_angle_alpha 90.000000
_cell_angle_beta 90.000000
_cell_angle_gamma 90.000000
_cell_volume 3171.582047
_symmetry_space_group_name_H-M "C 2 2 21"
_symmetry_group_IT_number 20
_symmetry_cell_setting 'orthorhombic'
loop_
_space_group_symop_operation_xyz
x,y,z
-x,-y,1/2+z
x,-y,-z
-x,y,1/2-z
1/2+x,1/2+y,z
1/2-x,1/2-y,1/2+z
1/2+x,1/2-y,-z
1/2-x,1/2+y,1/2-z
loop_
_atom_site_type_symbol
_atom_site_label
_atom_site_fract_x
_atom_site_fract_y
_atom_site_fract_z
Si Si1 0.441588 0.614363 0.674637
Si Si2 0.294302 0.680409 0.002240
Si Si3 0.942781 0.660266 0.615672
Si Si4 0.994966 0.252009 0.588454
Si Si5 0.243700 0.586052 0.293800
Si Si6 0.589070 0.748771 0.320103
Si Si7 0.249224 0.518841 0.707048
Si Si8 0.617981 0.335466 0.887934
O O1 0.500000 0.619268 0.750000
O O2 0.705545 0.629705 0.641432
O O3 0.337080 0.561728 0.663736
O O4 0.202180 0.644052 0.649701
O O5 0.066892 0.658153 0.960901
O O6 0.456906 0.703436 0.945907
O O7 0.225756 0.725296 0.044260
O O8 0.444264 0.649482 0.052570
O O9 0.931645 0.714848 0.636102
O O10 0.882813 0.244905 0.658748
O O11 0.188327 0.295567 0.587797
O O12 0.500000 0.588972 0.250000
O O13 0.204538 0.533050 0.318544
O O14 0.260308 0.621906 0.351335
O O15 0.000000 0.596999 0.250000
O O16 0.500000 0.758987 0.250000
O O17 0.536893 0.694985 0.336224
O O18 0.500000 0.512997 0.750000
O O19 0.000000 0.531664 0.750000
#
# Coordination Sequence:
#
# PCOD9320469 Si02
#       8
#     8   8   8   8   8   8   8   8
#     4  11  22  38  62  93 123 159 204 253 322 387
#     4  11  22  39  58  84 117 169 231 253 306 358
#     4  12  24  38  60  90 125 168 208 261 306 382
#     4  11  21  39  59  79 118 175 219 267 295 379
#     4  10  23  41  64  98 127 158 206 262 337 394
#     4  11  24  37  53  87 130 163 199 256 329 376
#     4   9  18  38  65  90 123 159 199 256 316 395
#     4  11  24  37  62  85 122 169 209 271 302 381
#
# _framework density 20.179206000000001
#
# number of rings (size 3 to 8) (size 9 to 14) (size 15 to 20)
#    0.000    1.250    2.500    4.500    7.000    0.000 
#    0.000    0.000    0.000    0.750    0.000    0.000 
#    0.000    0.000    0.000    0.000    0.000    0.000 
#
# Total GULP energy -178348.329926 kJ/mol
# GULP energy per Si atom -5573.385310 kJ/mol
# Density = 2.013328 g / cm^3
# Si number density = 20.179206 Si / 1000 Ang^3
#
#
#
# Elastic Constant Matrix: (Units=GPa)
#
#
# Indices 1 2 3 4 5 6 
#
# 1 95.9507 15.8278 23.4538 0.0000 0.0000 0.0000
# 2 15.8278 101.5336 27.5046 0.0000 0.0000 0.0000
# 3 23.4538 27.5046 97.3749 0.0000 0.0000 0.0000
# 4 0.0000 0.0000 0.0000 17.9439 0.0000 0.0000
# 5 0.0000 0.0000 0.0000 0.0000 36.3379 0.0000
# 6 0.0000 0.0000 0.0000 0.0000 0.0000 23.1870
#
#
#
# Elastic Compliance Matrix: (Units=1/GPa)
#
#
# Indices 1 2 3 4 5 6 
#
# 1 0.011186 -0.001098 -0.002384 0.000000 0.000000 0.000000
# 2 -0.001098 0.010773 -0.002778 0.000000 0.000000 0.000000
# 3 -0.002384 -0.002778 0.011629 0.000000 0.000000 0.000000
# 4 0.000000 0.000000 0.000000 0.055729 0.000000 0.000000
# 5 0.000000 0.000000 0.000000 0.000000 0.027519 0.000000
# 6 0.000000 0.000000 0.000000 0.000000 0.000000 0.043128
#
#
# Mechanical properties :
#
#
# Convention : Reuss Voigt Hill
#
# Bulk Modulus (GPa) = 47.46911 47.60354 47.53632
# Shear Modulus (GPa) = 27.85412 30.69863 29.27638
#
# Velocity S-wave (km/s) = 3.71932 3.90462 3.81309
# Velocity P-wave (km/s) = 6.48223 6.63096 6.55702
#
# Compressibility (1/GPa) = 0.02106633
#
# Stress axis : x y z
#
# Youngs Moduli (GPa) = 89.39833 92.82673 85.99463
#
# Poissons Ratio (x) = 0.10191 0.20502
# Poissons Ratio (y) = 0.09815 0.23893
# Poissons Ratio (z) = 0.21314 0.25791
#
# Static dielectric constant tensor:
#      x y z
#    x 1.915810 0.000000 0.000000 
#    y 0.000000 1.747800 0.000000 
#    z 0.000000 0.000000 1.731790 
# 
# From -- ./inp_files/26293.got.cif
#   From: 2010.05.17/outbox.cif.g08.bks.cpg/sg20_14_cif.got.tgz:26293.got - 2010.06.03 22:52:26.
