data_PCOD9320558
_publ_section_title
;
Structure prediction by ZEFSAII (Michael W. Deem and Ramdas Pophale) SiO2 
 PCOD9320558
Probable space group: C 2 2 21
;
_chemical_formula_sum "Si O2"
_cell_formula_units_Z 40
_cell_length_a 8.446370
_cell_length_b 22.303324
_cell_length_c 8.059541
_cell_angle_alpha 90.000000
_cell_angle_beta 90.000000
_cell_angle_gamma 90.000000
_cell_volume 1518.273474
_symmetry_space_group_name_H-M "C 2 2 21"
_symmetry_group_IT_number 20
_symmetry_cell_setting 'orthorhombic'
loop_
_space_group_symop_operation_xyz
x,y,z
-x,-y,1/2+z
x,-y,-z
-x,y,1/2-z
1/2+x,1/2+y,z
1/2-x,1/2-y,1/2+z
1/2+x,1/2-y,-z
1/2-x,1/2+y,1/2-z
loop_
_atom_site_type_symbol
_atom_site_label
_atom_site_fract_x
_atom_site_fract_y
_atom_site_fract_z
Si Si1 0.830993 0.461470 0.808641
Si Si2 0.671456 0.253884 0.657377
Si Si3 0.584408 0.866968 0.425209
Si Si4 0.880259 0.883064 0.905139
Si Si5 0.500000 0.800925 0.750000
Si Si6 0.949645 0.000000 0.500000
O O1 0.776871 0.412943 0.672599
O O2 0.668853 0.496620 0.841455
O O3 0.000000 0.486522 0.750000
O O4 0.859235 0.426422 0.981731
O O5 0.500000 0.247053 0.750000
O O6 0.711977 0.185499 0.605488
O O7 0.643498 0.313780 0.542972
O O8 0.827393 0.271003 0.759635
O O9 0.500000 0.879402 0.250000
O O10 0.490074 0.833408 0.571758
O O11 0.000000 0.876810 0.750000
O O12 0.953567 0.937716 0.010491
#
# Coordination Sequence:
#
# PCOD9320558 Si02
#       6
#     8   8   8   8   4   4
#     4  11  22  46  75 104 155 203 260 345 403 471
#     4  10  23  42  75 111 157 214 255 322 402 478
#     4  11  25  43  75 116 155 207 270 315 404 501
#     4   9  19  41  68  97 149 204 253 325 397 467
#     4  12  24  46  68 110 158 208 258 326 396 456
#     4  10  24  40  74 108 144 210 276 312 410 490
#
# _framework density 26.345714000000001
#
# number of rings (size 3 to 8) (size 9 to 14) (size 15 to 20)
#    0.000    1.600    3.000    0.000    5.600    1.600 
#    0.000   10.000   13.200    0.000    0.000    0.000 
#    0.000    0.000    0.000    0.000    0.000    0.000 
#
# Total GULP energy -111369.851879 kJ/mol
# GULP energy per Si atom -5568.492594 kJ/mol
# Density = 2.628575 g / cm^3
# Si number density = 26.345714 Si / 1000 Ang^3
#
#
#
# Elastic Constant Matrix: (Units=GPa)
#
#
# Indices 1 2 3 4 5 6 
#
# 1 138.9680 27.7483 48.7601 0.0000 0.0000 0.0000
# 2 27.7483 161.0795 59.6026 0.0000 0.0000 0.0000
# 3 48.7601 59.6026 123.7924 0.0000 0.0000 0.0000
# 4 0.0000 0.0000 0.0000 40.9304 0.0000 0.0000
# 5 0.0000 0.0000 0.0000 0.0000 39.5096 0.0000
# 6 0.0000 0.0000 0.0000 0.0000 0.0000 21.5876
#
#
#
# Elastic Compliance Matrix: (Units=1/GPa)
#
#
# Indices 1 2 3 4 5 6 
#
# 1 0.008360 -0.000270 -0.003163 0.000000 0.000000 0.000000
# 2 -0.000270 0.007563 -0.003535 0.000000 0.000000 0.000000
# 3 -0.003163 -0.003535 0.011026 0.000000 0.000000 0.000000
# 4 0.000000 0.000000 0.000000 0.024432 0.000000 0.000000
# 5 0.000000 0.000000 0.000000 0.000000 0.025310 0.000000
# 6 0.000000 0.000000 0.000000 0.000000 0.000000 0.046323
#
#
# Mechanical properties :
#
#
# Convention : Reuss Voigt Hill
#
# Bulk Modulus (GPa) = 76.84675 77.34022 77.09349
# Shear Modulus (GPa) = 35.38936 39.58746 37.48841
#
# Velocity S-wave (km/s) = 3.66904 3.88056 3.77628
# Velocity P-wave (km/s) = 6.86885 7.03548 6.95266
#
# Compressibility (1/GPa) = 0.01301291
#
# Stress axis : x y z
#
# Youngs Moduli (GPa) = 119.62424 132.23017 90.69636
#
# Poissons Ratio (x) = 0.03567 0.28686
# Poissons Ratio (y) = 0.03227 0.32060
# Poissons Ratio (z) = 0.37835 0.46742
#
# Static dielectric constant tensor:
#      x y z
#    x 2.095490 0.000000 0.000000 
#    y 0.000000 2.188690 0.000000 
#    z 0.000000 0.000000 1.254450 
# 
# From -- ./inp_files/6181.got.cif
#   From: 2010.05.17/outbox.cif.g08.bks.cpg/sg20_4_cif.got.tgz:6181.got - 2010.06.03 22:52:26.
