data_PCOD9320750
_publ_section_title
;
Structure prediction by ZEFSAII (Michael W. Deem and Ramdas Pophale) SiO2 
 PCOD9320750
Probable space group: C 2 2 21
;
_chemical_formula_sum "Si O2"
_cell_formula_units_Z 60
_cell_length_a 17.068376
_cell_length_b 11.092043
_cell_length_c 14.737892
_cell_angle_alpha 90.000000
_cell_angle_beta 90.000000
_cell_angle_gamma 90.000000
_cell_volume 2790.224293
_symmetry_space_group_name_H-M "C 2 2 21"
_symmetry_group_IT_number 20
_symmetry_cell_setting 'orthorhombic'
loop_
_space_group_symop_operation_xyz
x,y,z
-x,-y,1/2+z
x,-y,-z
-x,y,1/2-z
1/2+x,1/2+y,z
1/2-x,1/2-y,1/2+z
1/2+x,1/2-y,-z
1/2-x,1/2+y,1/2-z
loop_
_atom_site_type_symbol
_atom_site_label
_atom_site_fract_x
_atom_site_fract_y
_atom_site_fract_z
Si Si1 0.953160 0.237266 0.987560
Si Si2 0.463078 0.500000 0.500000
Si Si3 0.381808 0.270351 0.815487
Si Si4 0.797083 0.795094 0.338592
Si Si5 0.656023 0.428762 0.848011
Si Si6 0.894442 0.388787 0.563819
Si Si7 0.089912 0.489460 0.251909
Si Si8 0.821306 0.321487 0.855523
O O1 0.935174 0.228111 0.095029
O O2 0.985470 0.106915 0.957554
O O3 0.872771 0.265060 0.934881
O O4 0.018951 0.338573 0.963147
O O5 0.409104 0.563516 0.424975
O O6 0.292322 0.247128 0.845118
O O7 0.380212 0.383100 0.747201
O O8 0.404686 0.153213 0.757085
O O9 0.843549 0.731272 0.420630
O O10 0.827095 0.753152 0.238675
O O11 0.808668 0.937478 0.341139
O O12 0.729454 0.342659 0.872539
O O13 0.872949 0.500000 0.500000
O O14 0.880431 0.454159 0.659773
O O15 0.137518 0.550163 0.333262
O O16 0.000000 0.527521 0.250000
#
# Coordination Sequence:
#
# PCOD9320750 Si02
#       8
#     8   4   8   8   8   8   8   8
#     4  12  27  47  69 110 143 188 248 305 374 434
#     4  12  30  48  70 108 148 190 244 300 372 446
#     4  11  27  44  71 104 146 189 241 303 369 438
#     4  10  23  49  70 102 142 193 245 299 376 445
#     4  11  25  48  73  99 147 199 242 295 373 450
#     4  11  24  43  72 105 140 183 241 307 371 435
#     4  11  21  40  68 102 136 177 233 298 362 423
#     4  10  24  44  75 102 139 194 241 301 360 447
#
# _framework density 21.503647000000001
#
# number of rings (size 3 to 8) (size 9 to 14) (size 15 to 20)
#    0.000    1.067    4.000    0.800    7.467    0.000 
#    3.600    0.000    0.000    0.000    0.000    0.000 
#    0.000    0.000    0.000    0.000    0.000    0.000 
#
# Total GULP energy -167568.847104 kJ/mol
# GULP energy per Si atom -5585.628237 kJ/mol
# Density = 2.145470 g / cm^3
# Si number density = 21.503647 Si / 1000 Ang^3
#
#
#
# Elastic Constant Matrix: (Units=GPa)
#
#
# Indices 1 2 3 4 5 6 
#
# 1 72.9329 26.1295 55.2494 0.0000 0.0000 0.0000
# 2 26.1295 83.3757 46.6747 0.0000 0.0000 0.0000
# 3 55.2494 46.6747 99.0286 0.0000 0.0000 0.0000
# 4 0.0000 0.0000 0.0000 66.3342 0.0000 0.0000
# 5 0.0000 0.0000 0.0000 0.0000 29.0769 0.0000
# 6 0.0000 0.0000 0.0000 0.0000 0.0000 27.1371
#
#
#
# Elastic Compliance Matrix: (Units=1/GPa)
#
#
# Indices 1 2 3 4 5 6 
#
# 1 0.023748 -0.000034 -0.013233 0.000000 0.000000 0.000000
# 2 -0.000034 0.016293 -0.007660 0.000000 0.000000 0.000000
# 3 -0.013233 -0.007660 0.021091 0.000000 0.000000 0.000000
# 4 0.000000 0.000000 0.000000 0.015075 0.000000 0.000000
# 5 0.000000 0.000000 0.000000 0.000000 0.034392 0.000000
# 6 0.000000 0.000000 0.000000 0.000000 0.000000 0.036850
#
#
# Mechanical properties :
#
#
# Convention : Reuss Voigt Hill
#
# Bulk Modulus (GPa) = 51.87487 56.82715 54.35101
# Shear Modulus (GPa) = 25.54535 32.99521 29.27028
#
# Velocity S-wave (km/s) = 3.45041 3.92139 3.69342
# Velocity P-wave (km/s) = 6.32850 6.85472 6.59686
#
# Compressibility (1/GPa) = 0.01927716
#
# Stress axis : x y z
#
# Youngs Moduli (GPa) = 42.10835 61.37651 47.41259
#
# Poissons Ratio (x) = 0.00212 0.62742
# Poissons Ratio (y) = 0.00145 0.36318
# Poissons Ratio (z) = 0.55723 0.47014
#
# Static dielectric constant tensor:
#      x y z
#    x 1.776620 0.000000 0.000000 
#    y 0.000000 1.806350 0.000000 
#    z 0.000000 0.000000 1.760850 
# 
# From -- ./inp_files/21455.got.cif
#   From: 2010.05.17/outbox.cif.g08.bks.cpg/sg20_11_cif.got.tgz:21455.got - 2010.06.03 22:52:26.
