data_PCOD9320841
_publ_section_title
;
Structure prediction by ZEFSAII (Michael W. Deem and Ramdas Pophale) SiO2 
 PCOD9320841
Probable space group: C 2 2 21
;
_chemical_formula_sum "Si O2"
_cell_formula_units_Z 32
_cell_length_a 20.534226
_cell_length_b 6.513435
_cell_length_c 9.855260
_cell_angle_alpha 90.000000
_cell_angle_beta 90.000000
_cell_angle_gamma 90.000000
_cell_volume 1318.124728
_symmetry_space_group_name_H-M "C 2 2 21"
_symmetry_group_IT_number 20
_symmetry_cell_setting 'orthorhombic'
loop_
_space_group_symop_operation_xyz
x,y,z
-x,-y,1/2+z
x,-y,-z
-x,y,1/2-z
1/2+x,1/2+y,z
1/2-x,1/2-y,1/2+z
1/2+x,1/2-y,-z
1/2-x,1/2+y,1/2-z
loop_
_atom_site_type_symbol
_atom_site_label
_atom_site_fract_x
_atom_site_fract_y
_atom_site_fract_z
Si Si1 0.399228 0.592329 0.351156
Si Si2 0.500000 0.078750 0.750000
Si Si3 0.819955 0.000000 0.000000
Si Si4 0.307851 0.059730 0.648207
Si Si5 0.107116 0.291586 0.653498
O O1 0.404534 0.500000 0.500000
O O2 0.451712 0.771304 0.329562
O O3 0.330228 0.707425 0.334880
O O4 0.407389 0.412708 0.241585
O O5 0.543466 0.931526 0.655309
O O6 0.768414 0.024271 0.877419
O O7 0.864855 0.201690 0.987330
O O8 0.337304 0.000000 0.500000
O O9 0.338429 0.921023 0.765058
#
# Coordination Sequence:
#
# PCOD9320841 Si02
#       5
#     8   4   4   8   8
#     4  11  21  45  74  97 135 193 236 293 362 430
#     4  10  26  46  68 106 142 184 246 294 344 442
#     4  10  24  42  74 108 142 182 232 304 352 430
#     4   9  21  41  69 107 135 179 236 292 354 433
#     4  11  23  47  68 106 145 185 236 292 369 419
#
# _framework density 24.276913
#
# number of rings (size 3 to 8) (size 9 to 14) (size 15 to 20)
#    0.750    1.000    2.500    0.750    3.500    0.000 
#   13.500    6.250    0.000    0.000    0.000    0.000 
#    0.000    0.000    0.000    0.000    0.000    0.000 
#
# Total GULP energy -89478.720141 kJ/mol
# GULP energy per Si atom -5592.420009 kJ/mol
# Density = 2.422166 g / cm^3
# Si number density = 24.276913 Si / 1000 Ang^3
#
#
#
# Elastic Constant Matrix: (Units=GPa)
#
#
# Indices 1 2 3 4 5 6 
#
# 1 133.3477 71.3606 43.3745 0.0000 0.0000 0.0000
# 2 71.3606 160.5452 65.5583 0.0000 0.0000 0.0000
# 3 43.3745 65.5583 80.8857 0.0000 0.0000 0.0000
# 4 0.0000 0.0000 0.0000 50.1997 0.0000 0.0000
# 5 0.0000 0.0000 0.0000 0.0000 19.0936 0.0000
# 6 0.0000 0.0000 0.0000 0.0000 0.0000 21.4347
#
#
#
# Elastic Compliance Matrix: (Units=1/GPa)
#
#
# Indices 1 2 3 4 5 6 
#
# 1 0.010216 -0.003444 -0.002687 0.000000 0.000000 0.000000
# 2 -0.003444 0.010471 -0.006640 0.000000 0.000000 0.000000
# 3 -0.002687 -0.006640 0.019186 0.000000 0.000000 0.000000
# 4 0.000000 0.000000 0.000000 0.019920 0.000000 0.000000
# 5 0.000000 0.000000 0.000000 0.000000 0.052374 0.000000
# 6 0.000000 0.000000 0.000000 0.000000 0.000000 0.046653
#
#
# Mechanical properties :
#
#
# Convention : Reuss Voigt Hill
#
# Bulk Modulus (GPa) = 69.77857 81.70728 75.74292
# Shear Modulus (GPa) = 26.43552 31.11127 28.77339
#
# Velocity S-wave (km/s) = 3.30345 3.58371 3.44643
# Velocity P-wave (km/s) = 6.58449 7.13116 6.86327
#
# Compressibility (1/GPa) = 0.01433105
#
# Stress axis : x y z
#
# Youngs Moduli (GPa) = 97.88439 95.50277 52.12134
#
# Poissons Ratio (x) = 0.32888 0.14006
# Poissons Ratio (y) = 0.33708 0.34609
# Poissons Ratio (z) = 0.26304 0.63415
#
# Static dielectric constant tensor:
#      x y z
#    x 1.966570 0.000000 0.000000 
#    y 0.000000 1.911020 0.000000 
#    z 0.000000 0.000000 1.975510 
# 
# From -- ./inp_files/16514.got.cif
#   From: 2010.05.17/outbox.cif.g08.bks.cpg/sg20_9_cif.got.tgz:16514.got - 2010.06.03 22:52:26.
