data_PCOD9320134
_publ_section_title
;
Structure prediction by ZEFSAII (Michael W. Deem and Ramdas Pophale) SiO2 
 PCOD9320134
Probable space group: C 2 2 21
;
_chemical_formula_sum "Si O2"
_cell_formula_units_Z 32
_cell_length_a 12.915668
_cell_length_b 16.179121
_cell_length_c 5.796313
_cell_angle_alpha 90.000000
_cell_angle_beta 90.000000
_cell_angle_gamma 90.000000
_cell_volume 1211.221650
_symmetry_space_group_name_H-M "C 2 2 21"
_symmetry_group_IT_number 20
_symmetry_cell_setting 'orthorhombic'
loop_
_space_group_symop_operation_xyz
x,y,z
-x,-y,1/2+z
x,-y,-z
-x,y,1/2-z
1/2+x,1/2+y,z
1/2-x,1/2-y,1/2+z
1/2+x,1/2-y,-z
1/2-x,1/2+y,1/2-z
loop_
_atom_site_type_symbol
_atom_site_label
_atom_site_fract_x
_atom_site_fract_y
_atom_site_fract_z
Si Si1 0.500000 0.069666 0.750000
Si Si2 0.956170 0.118006 0.994538
Si Si3 0.771468 0.155234 0.260622
Si Si4 0.582058 0.218663 0.017724
Si Si5 0.188179 0.500000 0.500000
O O1 0.527628 0.134124 0.949142
O O2 0.604854 0.020094 0.700997
O O3 0.832833 0.118275 0.037527
O O4 0.000000 0.091227 0.250000
O O5 0.994968 0.211885 0.973030
O O6 0.000000 0.081907 0.750000
O O7 0.838594 0.232716 0.347846
O O8 0.757348 0.079461 0.438218
O O9 0.659411 0.191609 0.216398
#
# Coordination Sequence:
#
# PCOD9320134 Si02
#       5
#     4   8   8   8   4
#     4  12  24  46  64 116 152 222 262 352 416 488
#     4  10  22  42  74 119 146 199 276 341 384 475
#     4  11  23  43  71 118 159 218 272 351 420 507
#     4  11  22  42  76 106 147 204 288 323 393 504
#     4  12  28  42  70 112 182 208 276 350 450 494
#
# _framework density 26.419606000000002
#
# number of rings (size 3 to 8) (size 9 to 14) (size 15 to 20)
#    0.000    1.000    3.750    4.500    3.500    2.000 
#    0.000    0.000    0.000   45.000    0.000    0.000 
#    0.000    0.000    0.000    0.000    0.000    0.000 
#
# Total GULP energy -89299.526530 kJ/mol
# GULP energy per Si atom -5581.220408 kJ/mol
# Density = 2.635947 g / cm^3
# Si number density = 26.419606 Si / 1000 Ang^3
#
#
#
# Elastic Constant Matrix: (Units=GPa)
#
#
# Indices 1 2 3 4 5 6 
#
# 1 116.4865 10.4781 46.3676 0.0000 0.0000 0.0000
# 2 10.4781 92.3339 36.5632 0.0000 0.0000 0.0000
# 3 46.3676 36.5632 138.6875 0.0000 0.0000 0.0000
# 4 0.0000 0.0000 0.0000 50.1464 0.0000 0.0000
# 5 0.0000 0.0000 0.0000 0.0000 48.1495 0.0000
# 6 0.0000 0.0000 0.0000 0.0000 0.0000 173.0725
#
#
#
# Elastic Compliance Matrix: (Units=1/GPa)
#
#
# Indices 1 2 3 4 5 6 
#
# 1 0.009906 0.000209 -0.003367 0.000000 0.000000 0.000000
# 2 0.000209 0.012097 -0.003259 0.000000 0.000000 0.000000
# 3 -0.003367 -0.003259 0.009195 0.000000 0.000000 0.000000
# 4 0.000000 0.000000 0.000000 0.019942 0.000000 0.000000
# 5 0.000000 0.000000 0.000000 0.000000 0.020769 0.000000
# 6 0.000000 0.000000 0.000000 0.000000 0.000000 0.005778
#
#
# Mechanical properties :
#
#
# Convention : Reuss Voigt Hill
#
# Bulk Modulus (GPa) = 54.45290 59.36952 56.91121
# Shear Modulus (GPa) = 51.73706 71.21363 61.47535
#
# Velocity S-wave (km/s) = 4.43005 5.19744 4.82901
# Velocity P-wave (km/s) = 6.84271 7.65104 7.25813
#
# Compressibility (1/GPa) = 0.01836449
#
# Stress axis : x y z
#
# Youngs Moduli (GPa) = 100.94750 82.66433 108.74979
#
# Poissons Ratio (x) = -0.01729 0.36617
# Poissons Ratio (y) = -0.02112 0.35444
# Poissons Ratio (z) = 0.33990 0.26942
#
# Static dielectric constant tensor:
#      x y z
#    x 2.013260 0.000000 0.000000 
#    y 0.000000 2.063430 0.000000 
#    z 0.000000 0.000000 2.268660 
# 
# From -- ./inp_files/1606.got.cif
#   From: 2010.05.17/outbox.cif.g08.bks.cpg/sg20_1_cif.got.tgz:1606.got - 2010.06.03 22:52:26.
