data_PCOD9320537
_publ_section_title
;
Structure prediction by ZEFSAII (Michael W. Deem and Ramdas Pophale) SiO2 
 PCOD9320537
Probable space group: C 2 2 21
;
_chemical_formula_sum "Si O2"
_cell_formula_units_Z 24
_cell_length_a 8.963661
_cell_length_b 11.088885
_cell_length_c 9.354291
_cell_angle_alpha 90.000000
_cell_angle_beta 90.000000
_cell_angle_gamma 90.000000
_cell_volume 929.788519
_symmetry_space_group_name_H-M "C 2 2 21"
_symmetry_group_IT_number 20
_symmetry_cell_setting 'orthorhombic'
loop_
_space_group_symop_operation_xyz
x,y,z
-x,-y,1/2+z
x,-y,-z
-x,y,1/2-z
1/2+x,1/2+y,z
1/2-x,1/2-y,1/2+z
1/2+x,1/2-y,-z
1/2-x,1/2+y,1/2-z
loop_
_atom_site_type_symbol
_atom_site_label
_atom_site_fract_x
_atom_site_fract_y
_atom_site_fract_z
Si Si1 0.500000 0.253476 0.250000
Si Si2 0.500000 0.331534 0.750000
Si Si3 0.492288 0.880073 0.038386
Si Si4 0.200819 0.031700 0.659359
O O1 0.460037 0.174813 0.386687
O O2 0.366892 0.343474 0.212181
O O3 0.549088 0.239901 0.624684
O O4 0.640047 0.424574 0.760795
O O5 0.627203 0.937319 0.131156
O O6 0.395384 0.000000 0.000000
O O7 0.140275 0.000000 0.500000
#
# Coordination Sequence:
#
# PCOD9320537 Si02
#       4
#     4   4   8   8
#     4  11  23  44  70 102 145 179 244 298 344 429
#     4  11  23  48  70  98 145 181 236 296 346 431
#     4  11  25  42  71 103 138 185 234 290 359 418
#     4  10  23  42  69 100 134 189 231 285 353 413
#
# _framework density 25.812322999999999
#
# number of rings (size 3 to 8) (size 9 to 14) (size 15 to 20)
#    0.000    1.333    3.333    1.000    9.333    0.000 
#    0.000    0.000    0.000    0.000    0.000    0.000 
#    0.000    0.000    0.000    0.000    0.000    0.000 
#
# Total GULP energy -66986.658869 kJ/mol
# GULP energy per Si atom -5582.221572 kJ/mol
# Density = 2.575357 g / cm^3
# Si number density = 25.812323 Si / 1000 Ang^3
#
#
#
# Elastic Constant Matrix: (Units=GPa)
#
#
# Indices 1 2 3 4 5 6 
#
# 1 71.4116 49.6836 20.8871 0.0000 0.0000 0.0000
# 2 49.6836 245.2943 53.0764 0.0000 0.0000 0.0000
# 3 20.8871 53.0764 91.0285 0.0000 0.0000 0.0000
# 4 0.0000 0.0000 0.0000 73.9886 0.0000 0.0000
# 5 0.0000 0.0000 0.0000 0.0000 27.2740 0.0000
# 6 0.0000 0.0000 0.0000 0.0000 0.0000 17.2360
#
#
#
# Elastic Compliance Matrix: (Units=1/GPa)
#
#
# Indices 1 2 3 4 5 6 
#
# 1 0.016651 -0.002913 -0.002122 0.000000 0.000000 0.000000
# 2 -0.002913 0.005175 -0.002349 0.000000 0.000000 0.000000
# 3 -0.002122 -0.002349 0.012842 0.000000 0.000000 0.000000
# 4 0.000000 0.000000 0.000000 0.013516 0.000000 0.000000
# 5 0.000000 0.000000 0.000000 0.000000 0.036665 0.000000
# 6 0.000000 0.000000 0.000000 0.000000 0.000000 0.058018
#
#
# Mechanical properties :
#
#
# Convention : Reuss Voigt Hill
#
# Bulk Modulus (GPa) = 50.25254 72.78097 61.51675
# Shear Modulus (GPa) = 30.43795 42.63886 36.53840
#
# Velocity S-wave (km/s) = 3.43768 4.06874 3.76645
# Velocity P-wave (km/s) = 5.93865 7.09439 6.54209
#
# Compressibility (1/GPa) = 0.01989949
#
# Stress axis : x y z
#
# Youngs Moduli (GPa) = 60.05653 193.23239 77.86897
#
# Poissons Ratio (x) = 0.56298 0.16523
# Poissons Ratio (y) = 0.17497 0.18291
# Poissons Ratio (z) = 0.12743 0.45390
#
# Static dielectric constant tensor:
#      x y z
#    x 2.067830 0.000000 0.000000 
#    y 0.000000 1.984560 0.000000 
#    z 0.000000 0.000000 2.132090 
# 
# From -- ./inp_files/5563.got.cif
#   From: 2010.05.17/outbox.cif.g08.bks.cpg/sg20_3_cif.got.tgz:5563.got - 2010.06.03 22:52:26.
