data_PCOD9320126
_publ_section_title
;
Structure prediction by ZEFSAII (Michael W. Deem and Ramdas Pophale) SiO2 
 PCOD9320126
Probable space group: C 2 2 21
;
_chemical_formula_sum "Si O2"
_cell_formula_units_Z 40
_cell_length_a 10.585408
_cell_length_b 12.506606
_cell_length_c 13.984025
_cell_angle_alpha 90.000000
_cell_angle_beta 90.000000
_cell_angle_gamma 90.000000
_cell_volume 1851.310490
_symmetry_space_group_name_H-M "C 2 2 21"
_symmetry_group_IT_number 20
_symmetry_cell_setting 'orthorhombic'
loop_
_space_group_symop_operation_xyz
x,y,z
-x,-y,1/2+z
x,-y,-z
-x,y,1/2-z
1/2+x,1/2+y,z
1/2-x,1/2-y,1/2+z
1/2+x,1/2-y,-z
1/2-x,1/2+y,1/2-z
loop_
_atom_site_type_symbol
_atom_site_label
_atom_site_fract_x
_atom_site_fract_y
_atom_site_fract_z
Si Si1 0.000000 0.062217 0.750000
Si Si2 0.298440 0.689358 0.873904
Si Si3 0.979746 0.889740 0.606728
Si Si4 0.613019 0.808860 0.294678
Si Si5 0.793425 0.000000 0.000000
Si Si6 0.731589 0.878155 0.487879
O O1 0.915759 0.135204 0.819126
O O2 0.925996 0.977679 0.681503
O O3 0.206144 0.726509 0.789815
O O4 0.232122 0.594498 0.937203
O O5 0.330722 0.787947 0.943475
O O6 0.878014 0.873583 0.522947
O O7 0.029373 0.783261 0.656184
O O8 0.110213 0.937947 0.568502
O O9 0.500000 0.881926 0.250000
O O10 0.701446 0.851641 0.378756
O O11 0.687752 0.000000 0.500000
#
# Coordination Sequence:
#
# PCOD9320126 Si02
#       6
#     4   8   8   8   4   8
#     4  10  22  42  78 106 132 182 254 298 342 424
#     4  11  24  42  71 109 137 182 239 301 354 421
#     4  11  20  43  73  99 132 186 245 293 334 418
#     4  12  25  43  68 105 147 180 228 301 366 424
#     4  10  22  42  72 100 132 180 248 286 328 422
#     4  12  25  44  70 100 143 190 235 291 361 429
#
# _framework density 21.606317000000001
#
# number of rings (size 3 to 8) (size 9 to 14) (size 15 to 20)
#    0.000    0.800    6.000    1.200    2.800    1.600 
#    3.600    0.000    0.000    0.000    0.000    0.000 
#    0.000    0.000    0.000    0.000    0.000    0.000 
#
# Total GULP energy -111479.974366 kJ/mol
# GULP energy per Si atom -5573.998718 kJ/mol
# Density = 2.155714 g / cm^3
# Si number density = 21.606317 Si / 1000 Ang^3
#
#
#
# Elastic Constant Matrix: (Units=GPa)
#
#
# Indices 1 2 3 4 5 6 
#
# 1 49.7060 31.2034 34.2931 0.0000 0.0000 0.0000
# 2 31.2034 122.7236 53.1910 0.0000 0.0000 0.0000
# 3 34.2931 53.1910 140.5162 0.0000 0.0000 0.0000
# 4 0.0000 0.0000 0.0000 35.6319 0.0000 0.0000
# 5 0.0000 0.0000 0.0000 0.0000 36.3185 0.0000
# 6 0.0000 0.0000 0.0000 0.0000 0.0000 20.4032
#
#
#
# Elastic Compliance Matrix: (Units=1/GPa)
#
#
# Indices 1 2 3 4 5 6 
#
# 1 0.026247 -0.004662 -0.004641 0.000000 0.000000 0.000000
# 2 -0.004662 0.010576 -0.002866 0.000000 0.000000 0.000000
# 3 -0.004641 -0.002866 0.009334 0.000000 0.000000 0.000000
# 4 0.000000 0.000000 0.000000 0.028065 0.000000 0.000000
# 5 0.000000 0.000000 0.000000 0.000000 0.027534 0.000000
# 6 0.000000 0.000000 0.000000 0.000000 0.000000 0.049012
#
#
# Mechanical properties :
#
#
# Convention : Reuss Voigt Hill
#
# Bulk Modulus (GPa) = 45.83025 61.14676 53.48850
# Shear Modulus (GPa) = 27.41573 31.42127 29.41850
#
# Velocity S-wave (km/s) = 3.56599 3.81762 3.69395
# Velocity P-wave (km/s) = 6.18164 6.91333 6.55770
#
# Compressibility (1/GPa) = 0.02181965
#
# Stress axis : x y z
#
# Youngs Moduli (GPa) = 38.10006 94.55604 107.13588
#
# Poissons Ratio (x) = 0.44082 0.49719
# Poissons Ratio (y) = 0.17762 0.30701
# Poissons Ratio (z) = 0.17681 0.27096
#
# Static dielectric constant tensor:
#      x y z
#    x 1.826090 0.000000 0.000000 
#    y 0.000000 1.906740 0.000000 
#    z 0.000000 0.000000 1.920770 
# 
# From -- ./inp_files/19717.got.cif
#   From: 2010.05.17/outbox.cif.g08.bks.cpg/sg20_10_cif.got.tgz:19717.got - 2010.06.03 22:52:26.
