data_PCOD9320545
_publ_section_title
;
Structure prediction by ZEFSAII (Michael W. Deem and Ramdas Pophale) SiO2 
 PCOD9320545
Probable space group: C 2 2 21
;
_chemical_formula_sum "Si O2"
_cell_formula_units_Z 60
_cell_length_a 7.965897
_cell_length_b 12.412129
_cell_length_c 25.095945
_cell_angle_alpha 90.000000
_cell_angle_beta 90.000000
_cell_angle_gamma 90.000000
_cell_volume 2481.329970
_symmetry_space_group_name_H-M "C 2 2 21"
_symmetry_group_IT_number 20
_symmetry_cell_setting 'orthorhombic'
loop_
_space_group_symop_operation_xyz
x,y,z
-x,-y,1/2+z
x,-y,-z
-x,y,1/2-z
1/2+x,1/2+y,z
1/2-x,1/2-y,1/2+z
1/2+x,1/2-y,-z
1/2-x,1/2+y,1/2-z
loop_
_atom_site_type_symbol
_atom_site_label
_atom_site_fract_x
_atom_site_fract_y
_atom_site_fract_z
Si Si1 0.910306 0.828098 0.644196
Si Si2 0.555409 0.284438 0.085718
Si Si3 0.448411 0.806868 0.807803
Si Si4 0.415914 0.938791 0.555208
Si Si5 0.848316 0.546660 0.780565
Si Si6 0.116059 0.627274 0.607796
Si Si7 0.000000 0.950492 0.750000
Si Si8 0.457901 0.510518 0.063380
O O1 0.736413 0.785540 0.669053
O O2 0.001294 0.879660 0.695994
O O3 0.994137 0.727292 0.615838
O O4 0.909206 0.923635 0.599638
O O5 0.565108 0.230818 0.144299
O O6 0.510115 0.181052 0.050720
O O7 0.733384 0.336244 0.069801
O O8 0.436868 0.387873 0.083860
O O9 0.500000 0.761314 0.750000
O O10 0.437173 0.935033 0.798926
O O11 0.220713 0.930604 0.571970
O O12 0.411997 0.000000 0.500000
O O13 0.521122 0.019359 0.591546
O O14 0.803577 0.605859 0.834485
O O15 0.675078 0.516930 0.751268
O O16 0.000000 0.606086 0.750000
O O17 0.494832 0.500000 0.000000
#
# Coordination Sequence:
#
# PCOD9320545 Si02
#       8
#     8   8   8   8   8   8   4   8
#     4  11  25  46  73 108 153 206 253 324 392 467
#     4  12  25  47  76 107 151 196 252 315 381 471
#     4  10  23  45  71 106 151 195 248 312 388 470
#     4  11  27  48  75 110 147 198 259 325 390 455
#     4  10  23  42  70 101 146 197 245 313 375 461
#     4  12  26  45  72 108 148 196 259 313 386 467
#     4  10  24  44  68 106 150 200 260 302 396 480
#     4  11  27  51  76 111 153 202 266 323 388 465
#
# _framework density 24.180579999999999
#
# number of rings (size 3 to 8) (size 9 to 14) (size 15 to 20)
#    0.000    1.067    2.667    2.400   10.267    0.533 
#    7.200    0.000    0.000    0.000    0.000    0.000 
#    0.000    0.000    0.000    0.000    0.000    0.000 
#
# Total GULP energy -167655.739135 kJ/mol
# GULP energy per Si atom -5588.524638 kJ/mol
# Density = 2.412554 g / cm^3
# Si number density = 24.180580 Si / 1000 Ang^3
#
#
#
# Elastic Constant Matrix: (Units=GPa)
#
#
# Indices 1 2 3 4 5 6 
#
# 1 82.5275 22.4235 35.0621 0.0000 0.0000 0.0000
# 2 22.4235 104.1746 5.0490 0.0000 0.0000 0.0000
# 3 35.0621 5.0490 72.8983 0.0000 0.0000 0.0000
# 4 0.0000 0.0000 0.0000 16.0015 0.0000 0.0000
# 5 0.0000 0.0000 0.0000 0.0000 27.6186 0.0000
# 6 0.0000 0.0000 0.0000 0.0000 0.0000 17.0424
#
#
#
# Elastic Compliance Matrix: (Units=1/GPa)
#
#
# Indices 1 2 3 4 5 6 
#
# 1 0.016178 -0.003116 -0.007565 0.000000 0.000000 0.000000
# 2 -0.003116 0.010232 0.000790 0.000000 0.000000 0.000000
# 3 -0.007565 0.000790 0.017302 0.000000 0.000000 0.000000
# 4 0.000000 0.000000 0.000000 0.062494 0.000000 0.000000
# 5 0.000000 0.000000 0.000000 0.000000 0.036207 0.000000
# 6 0.000000 0.000000 0.000000 0.000000 0.000000 0.058677
#
#
# Mechanical properties :
#
#
# Convention : Reuss Voigt Hill
#
# Bulk Modulus (GPa) = 41.79010 42.74107 42.26558
# Shear Modulus (GPa) = 21.84850 25.27022 23.55936
#
# Velocity S-wave (km/s) = 3.00918 3.23625 3.12478
# Velocity P-wave (km/s) = 5.42159 5.62837 5.52595
#
# Compressibility (1/GPa) = 0.02392912
#
# Stress axis : x y z
#
# Youngs Moduli (GPa) = 61.81286 97.73620 57.79761
#
# Poissons Ratio (x) = 0.30451 0.43726
# Poissons Ratio (y) = 0.19258 -0.04565
# Poissons Ratio (z) = 0.46763 -0.07720
#
# Static dielectric constant tensor:
#      x y z
#    x 2.017460 0.000000 0.000000 
#    y 0.000000 1.915950 0.000000 
#    z 0.000000 0.000000 2.031550 
# 
# From -- ./inp_files/30151.got.cif
#   From: 2010.05.17/outbox.cif.g08.bks.cpg/sg20_16_cif.got.tgz:30151.got - 2010.06.03 22:52:26.
