data_PCOD9320825
_publ_section_title
;
Structure prediction by ZEFSAII (Michael W. Deem and Ramdas Pophale) SiO2 
 PCOD9320825
Probable space group: C 2 2 21
;
_chemical_formula_sum "Si O2"
_cell_formula_units_Z 64
_cell_length_a 5.081175
_cell_length_b 18.989368
_cell_length_c 29.908992
_cell_angle_alpha 90.000000
_cell_angle_beta 90.000000
_cell_angle_gamma 90.000000
_cell_volume 2885.867851
_symmetry_space_group_name_H-M "C 2 2 21"
_symmetry_group_IT_number 20
_symmetry_cell_setting 'orthorhombic'
loop_
_space_group_symop_operation_xyz
x,y,z
-x,-y,1/2+z
x,-y,-z
-x,y,1/2-z
1/2+x,1/2+y,z
1/2-x,1/2-y,1/2+z
1/2+x,1/2-y,-z
1/2-x,1/2+y,1/2-z
loop_
_atom_site_type_symbol
_atom_site_label
_atom_site_fract_x
_atom_site_fract_y
_atom_site_fract_z
Si Si1 0.146123 0.356879 0.585784
Si Si2 0.436909 0.249223 0.529874
Si Si3 0.383037 0.109318 0.920043
Si Si4 0.111184 0.108597 0.636786
Si Si5 0.425314 0.763161 0.834046
Si Si6 0.905412 0.836983 0.799250
Si Si7 0.848143 0.474431 0.545731
Si Si8 0.006367 0.958622 0.635246
O O1 0.385725 0.315065 0.562842
O O2 0.009843 0.298165 0.617138
O O3 0.241679 0.419402 0.618981
O O4 0.984857 0.397698 0.547507
O O5 0.657636 0.265280 0.493380
O O6 0.529870 0.179925 0.555437
O O7 0.080508 0.115717 0.906268
O O8 0.584138 0.104164 0.877823
O O9 0.440890 0.037352 0.946583
O O10 0.070018 0.179602 0.663839
O O11 0.005163 0.035573 0.657026
O O12 0.639103 0.793015 0.800211
O O13 0.136356 0.790627 0.821635
O O14 0.864773 0.904679 0.830463
O O15 0.000000 0.856533 0.750000
O O16 0.712550 0.500000 0.500000
O O17 0.662365 0.470299 0.588951
#
# Coordination Sequence:
#
# PCOD9320825 Si02
#       8
#     8   8   8   8   8   8   8   8
#     4  11  23  42  63  91 128 180 227 281 328 399
#     4  12  27  40  61  88 130 174 233 283 334 381
#     4  11  23  40  58  92 128 176 218 275 326 377
#     4  11  22  42  66  94 130 173 218 266 328 402
#     4  11  23  42  73  98 131 171 216 271 337 404
#     4  11  24  45  73 105 134 167 217 277 336 412
#     4  11  23  39  61  91 136 180 229 281 328 391
#     4  10  24  42  67  96 135 179 227 268 348 401
#
# _framework density 22.177040000000002
#
# number of rings (size 3 to 8) (size 9 to 14) (size 15 to 20)
#    0.000    1.000    3.750    2.625    5.250    0.500 
#    0.000    1.250    0.000    0.000    0.000    0.000 
#    0.000    0.000    0.000    0.000    0.000    0.000 
#
# Total GULP energy -178886.831857 kJ/mol
# GULP energy per Si atom -5590.213496 kJ/mol
# Density = 2.212656 g / cm^3
# Si number density = 22.177040 Si / 1000 Ang^3
#
#
#
# Elastic Constant Matrix: (Units=GPa)
#
#
# Indices 1 2 3 4 5 6 
#
# 1 66.4480 24.4962 8.7881 0.0000 0.0000 0.0000
# 2 24.4962 163.9406 30.9298 0.0000 0.0000 0.0000
# 3 8.7881 30.9298 64.3584 0.0000 0.0000 0.0000
# 4 0.0000 0.0000 0.0000 10.1578 0.0000 0.0000
# 5 0.0000 0.0000 0.0000 0.0000 29.6742 0.0000
# 6 0.0000 0.0000 0.0000 0.0000 0.0000 31.8536
#
#
#
# Elastic Compliance Matrix: (Units=1/GPa)
#
#
# Indices 1 2 3 4 5 6 
#
# 1 0.016002 -0.002176 -0.001139 0.000000 0.000000 0.000000
# 2 -0.002176 0.007004 -0.003069 0.000000 0.000000 0.000000
# 3 -0.001139 -0.003069 0.017168 0.000000 0.000000 0.000000
# 4 0.000000 0.000000 0.000000 0.098447 0.000000 0.000000
# 5 0.000000 0.000000 0.000000 0.000000 0.033699 0.000000
# 6 0.000000 0.000000 0.000000 0.000000 0.000000 0.031394
#
#
# Mechanical properties :
#
#
# Convention : Reuss Voigt Hill
#
# Bulk Modulus (GPa) = 36.48823 47.01945 41.75384
# Shear Modulus (GPa) = 22.16133 29.70596 25.93364
#
# Velocity S-wave (km/s) = 3.16459 3.66388 3.42335
# Velocity P-wave (km/s) = 5.46275 6.25672 5.87317
#
# Compressibility (1/GPa) = 0.02740610
#
# Stress axis : x y z
#
# Youngs Moduli (GPa) = 62.49109 142.77727 58.24649
#
# Poissons Ratio (x) = 0.31070 0.06636
# Poissons Ratio (y) = 0.13599 0.17875
# Poissons Ratio (z) = 0.07119 0.43816
#
# Static dielectric constant tensor:
#      x y z
#    x 1.829850 0.000000 0.000000 
#    y 0.000000 1.840950 0.000000 
#    z 0.000000 0.000000 1.844200 
# 
# From -- ./inp_files/30843.got.cif
#   From: 2010.05.17/outbox.cif.g08.bks.cpg/sg20_16_cif.got.tgz:30843.got - 2010.06.03 22:52:26.
