data_PCOD9320200
_publ_section_title
;
Structure prediction by ZEFSAII (Michael W. Deem and Ramdas Pophale) SiO2 
 PCOD9320200
Probable space group: C 2 2 21
;
_chemical_formula_sum "Si O2"
_cell_formula_units_Z 44
_cell_length_a 9.620918
_cell_length_b 28.634591
_cell_length_c 7.945416
_cell_angle_alpha 90.000000
_cell_angle_beta 90.000000
_cell_angle_gamma 90.000000
_cell_volume 2188.891012
_symmetry_space_group_name_H-M "C 2 2 21"
_symmetry_group_IT_number 20
_symmetry_cell_setting 'orthorhombic'
loop_
_space_group_symop_operation_xyz
x,y,z
-x,-y,1/2+z
x,-y,-z
-x,y,1/2-z
1/2+x,1/2+y,z
1/2-x,1/2-y,1/2+z
1/2+x,1/2-y,-z
1/2-x,1/2+y,1/2-z
loop_
_atom_site_type_symbol
_atom_site_label
_atom_site_fract_x
_atom_site_fract_y
_atom_site_fract_z
Si Si1 0.099738 0.600974 0.091396
Si Si2 0.661555 0.201403 0.229912
Si Si3 0.000000 0.640767 0.750000
Si Si4 0.375595 0.562675 0.955824
Si Si5 0.253129 0.798649 0.110604
Si Si6 0.500000 0.512701 0.250000
Si Si7 0.000000 0.854131 0.250000
O O1 0.161324 0.652290 0.134631
O O2 0.000000 0.588469 0.250000
O O3 0.018027 0.609352 0.916634
O O4 0.229725 0.567446 0.052051
O O5 0.500000 0.215429 0.250000
O O6 0.715026 0.193375 0.416743
O O7 0.745034 0.243454 0.145629
O O8 0.130751 0.674795 0.719891
O O9 0.379381 0.523956 0.806348
O O10 0.416064 0.611610 0.874103
O O11 0.495271 0.546158 0.087431
O O12 0.107469 0.821946 0.153514
#
# Coordination Sequence:
#
# PCOD9320200 Si02
#       7
#     8   8   4   8   8   4   4
#     4  11  23  43  67 102 141 189 239 287 360 438
#     4  11  24  41  60  96 141 196 251 294 351 404
#     4  12  22  42  65  96 143 193 236 305 344 412
#     4  10  22  43  71 102 135 170 230 293 367 440
#     4  12  24  40  63  95 145 193 249 306 342 407
#     4   9  22  44  73  96 134 164 210 305 362 439
#     4  11  24  40  70 104 133 193 246 292 356 431
#
# _framework density 20.101505
#
# number of rings (size 3 to 8) (size 9 to 14) (size 15 to 20)
#    0.000    1.091    6.364    1.091    2.545    0.000 
#    3.273    0.000    8.000    0.000    0.000    0.000 
#    0.000    0.000    0.000    0.000    0.000    0.000 
#
# Total GULP energy -122745.240450 kJ/mol
# GULP energy per Si atom -5579.329111 kJ/mol
# Density = 2.005575 g / cm^3
# Si number density = 20.101505 Si / 1000 Ang^3
#
#
#
# Elastic Constant Matrix: (Units=GPa)
#
#
# Indices 1 2 3 4 5 6 
#
# 1 91.2785 29.4099 54.1109 0.0000 0.0000 0.0000
# 2 29.4099 62.8807 31.3578 0.0000 0.0000 0.0000
# 3 54.1109 31.3578 137.6151 0.0000 0.0000 0.0000
# 4 0.0000 0.0000 0.0000 40.5171 0.0000 0.0000
# 5 0.0000 0.0000 0.0000 0.0000 47.7811 0.0000
# 6 0.0000 0.0000 0.0000 0.0000 0.0000 30.8347
#
#
#
# Elastic Compliance Matrix: (Units=1/GPa)
#
#
# Indices 1 2 3 4 5 6 
#
# 1 0.015440 -0.004731 -0.004993 0.000000 0.000000 0.000000
# 2 -0.004731 0.019392 -0.002558 0.000000 0.000000 0.000000
# 3 -0.004993 -0.002558 0.009813 0.000000 0.000000 0.000000
# 4 0.000000 0.000000 0.000000 0.024681 0.000000 0.000000
# 5 0.000000 0.000000 0.000000 0.000000 0.020929 0.000000
# 6 0.000000 0.000000 0.000000 0.000000 0.000000 0.032431
#
#
# Mechanical properties :
#
#
# Convention : Reuss Voigt Hill
#
# Bulk Modulus (GPa) = 49.80277 57.94794 53.87536
# Shear Modulus (GPa) = 32.47945 35.61962 34.04954
#
# Velocity S-wave (km/s) = 4.02403 4.21407 4.12014
# Velocity P-wave (km/s) = 6.81321 7.25038 7.03519
#
# Compressibility (1/GPa) = 0.02007920
#
# Stress axis : x y z
#
# Youngs Moduli (GPa) = 64.76784 51.56801 101.90766
#
# Poissons Ratio (x) = 0.24399 0.50881
# Poissons Ratio (y) = 0.30645 0.26071
# Poissons Ratio (z) = 0.32338 0.13193
#
# Static dielectric constant tensor:
#      x y z
#    x 1.712410 0.000000 0.000000 
#    y 0.000000 1.713880 0.000000 
#    z 0.000000 0.000000 1.720620 
# 
# From -- ./inp_files/6415.got.cif
#   From: 2010.05.17/outbox.cif.g08.bks.cpg/sg20_4_cif.got.tgz:6415.got - 2010.06.03 22:52:26.
