data_PCOD9320336
_publ_section_title
;
Structure prediction by ZEFSAII (Michael W. Deem and Ramdas Pophale) SiO2 
 PCOD9320336
Probable space group: C 2 2 21
;
_chemical_formula_sum "Si O2"
_cell_formula_units_Z 24
_cell_length_a 9.500955
_cell_length_b 17.555627
_cell_length_c 5.310096
_cell_angle_alpha 90.000000
_cell_angle_beta 90.000000
_cell_angle_gamma 90.000000
_cell_volume 885.698642
_symmetry_space_group_name_H-M "C 2 2 21"
_symmetry_group_IT_number 20
_symmetry_cell_setting 'orthorhombic'
loop_
_space_group_symop_operation_xyz
x,y,z
-x,-y,1/2+z
x,-y,-z
-x,y,1/2-z
1/2+x,1/2+y,z
1/2-x,1/2-y,1/2+z
1/2+x,1/2-y,-z
1/2-x,1/2+y,1/2-z
loop_
_atom_site_type_symbol
_atom_site_label
_atom_site_fract_x
_atom_site_fract_y
_atom_site_fract_z
Si Si1 0.841676 0.065022 0.686412
Si Si2 0.078672 0.605689 0.998905
Si Si3 0.330610 0.733599 0.475704
O O1 0.739591 0.082349 0.926625
O O2 0.859615 0.146371 0.543683
O O3 0.000000 0.040848 0.750000
O O4 0.782762 0.000000 0.500000
O O5 0.000000 0.579911 0.750000
O O6 0.061279 0.697492 0.003681
O O7 0.000000 0.579804 0.250000
O O8 0.278883 0.740227 0.191110
#
# Coordination Sequence:
#
# PCOD9320336 Si02
#       3
#     8   8   8
#     4  11  27  47  75 118 166 208 255 322 404 478
#     4  11  24  48  79 110 148 205 271 326 379 455
#     4  10  22  45  76 110 149 199 260 320 382 459
#
# _framework density 27.097254
#
# number of rings (size 3 to 8) (size 9 to 14) (size 15 to 20)
#    0.000    1.333    0.000    5.000    0.000   14.667 
#    0.000    6.667    0.000    0.000    0.000    0.000 
#    0.000    0.000    0.000    0.000    0.000    0.000 
#
# Total GULP energy -67134.822944 kJ/mol
# GULP energy per Si atom -5594.568579 kJ/mol
# Density = 2.703558 g / cm^3
# Si number density = 27.097254 Si / 1000 Ang^3
#
#
#
# Elastic Constant Matrix: (Units=GPa)
#
#
# Indices 1 2 3 4 5 6 
#
# 1 140.1851 3.2156 125.9734 0.0000 0.0000 0.0000
# 2 3.2156 231.2690 77.9201 0.0000 0.0000 0.0000
# 3 125.9734 77.9201 170.4885 0.0000 0.0000 0.0000
# 4 0.0000 0.0000 0.0000 27.5209 0.0000 0.0000
# 5 0.0000 0.0000 0.0000 0.0000 50.2487 0.0000
# 6 0.0000 0.0000 0.0000 0.0000 0.0000 -0.6907
#
#
#
# Elastic Compliance Matrix: (Units=1/GPa)
#
#
# Indices 1 2 3 4 5 6 
#
# 1 0.031249 0.008682 -0.027058 0.000000 0.000000 0.000000
# 2 0.008682 0.007523 -0.009853 0.000000 0.000000 0.000000
# 3 -0.027058 -0.009853 0.030362 0.000000 0.000000 0.000000
# 4 0.000000 0.000000 0.000000 0.036336 0.000000 0.000000
# 5 0.000000 0.000000 0.000000 0.000000 0.019901 0.000000
# 6 0.000000 0.000000 0.000000 0.000000 0.000000 -1.447881
#
#
# Mechanical properties :
#
#
# Convention : Reuss Voigt Hill
#
# Bulk Modulus (GPa) = 78.89309 106.24008 92.56659
# Shear Modulus (GPa) = -3.96251 37.73801 16.88775
#
# Velocity S-wave (km/s) = -1.21058 3.73592 2.49916
# Velocity P-wave (km/s) = 5.21766 7.60931 6.52401
#
# Compressibility (1/GPa) = 0.01267538
#
# Stress axis : x y z
#
# Youngs Moduli (GPa) = 32.00108 132.92399 32.93616
#
# Poissons Ratio (x) = -1.15403 0.89118
# Poissons Ratio (y) = -0.27783 0.32453
# Poissons Ratio (z) = 0.86588 1.30975
#
# Static dielectric constant tensor:
#      x y z
#    x 2.220520 0.000000 0.000000 
#    y 0.000000 2.102950 0.000000 
#    z 0.000000 0.000000 2.074930 
# 
# From -- ./inp_files/863.got.cif
#   From: 2010.05.17/outbox.cif.g08.bks.cpg/sg20_1_cif.got.tgz:863.got - 2010.06.03 22:52:26.
