data_PCOD9320454
_publ_section_title
;
Structure prediction by ZEFSAII (Michael W. Deem and Ramdas Pophale) SiO2 
 PCOD9320454
Probable space group: C 2 2 21
;
_chemical_formula_sum "Si O2"
_cell_formula_units_Z 40
_cell_length_a 5.101598
_cell_length_b 18.208228
_cell_length_c 17.591068
_cell_angle_alpha 90.000000
_cell_angle_beta 90.000000
_cell_angle_gamma 90.000000
_cell_volume 1634.052945
_symmetry_space_group_name_H-M "C 2 2 21"
_symmetry_group_IT_number 20
_symmetry_cell_setting 'orthorhombic'
loop_
_space_group_symop_operation_xyz
x,y,z
-x,-y,1/2+z
x,-y,-z
-x,y,1/2-z
1/2+x,1/2+y,z
1/2-x,1/2-y,1/2+z
1/2+x,1/2-y,-z
1/2-x,1/2+y,1/2-z
loop_
_atom_site_type_symbol
_atom_site_label
_atom_site_fract_x
_atom_site_fract_y
_atom_site_fract_z
Si Si1 0.124405 0.262231 0.377865
Si Si2 0.010507 0.907021 0.885956
Si Si3 0.707372 0.399007 0.051602
Si Si4 0.386508 0.334469 0.174996
Si Si5 0.516421 0.989360 0.664808
O O1 0.050545 0.179086 0.389758
O O2 0.160959 0.317096 0.450239
O O3 0.404313 0.268438 0.336903
O O4 0.900302 0.302544 0.329228
O O5 0.750826 0.951049 0.862517
O O6 0.250059 0.929126 0.831566
O O7 0.121680 0.925005 0.969740
O O8 0.449992 0.385869 0.103383
O O9 0.889094 0.451155 0.102663
O O10 0.500000 0.372458 0.250000
O O11 0.500000 0.021627 0.750000
#
# Coordination Sequence:
#
# PCOD9320454 Si02
#       5
#     8   8   8   8   8
#     4  10  25  43  77 107 148 192 259 317 391 450
#     4  12  28  50  78 113 155 201 259 327 399 457
#     4  10  29  46  79 106 150 199 258 317 371 467
#     4  10  23  40  72 110 147 193 247 313 373 452
#     4  12  30  51  75 110 160 211 260 315 395 473
#
# _framework density 24.479012000000001
#
# number of rings (size 3 to 8) (size 9 to 14) (size 15 to 20)
#    1.200    0.000    0.000    3.000   11.200    6.400 
#    0.000    0.000    0.000    0.000    0.000    0.000 
#    0.000    0.000    0.000    0.000    0.000    0.000 
#
# Total GULP energy -111817.268393 kJ/mol
# GULP energy per Si atom -5590.863420 kJ/mol
# Density = 2.442330 g / cm^3
# Si number density = 24.479012 Si / 1000 Ang^3
#
#
#
# Elastic Constant Matrix: (Units=GPa)
#
#
# Indices 1 2 3 4 5 6 
#
# 1 147.1351 57.2253 31.5996 0.0000 0.0000 0.0000
# 2 57.2253 135.2966 20.6400 0.0000 0.0000 0.0000
# 3 31.5996 20.6400 112.5860 0.0000 0.0000 0.0000
# 4 0.0000 0.0000 0.0000 11.7900 0.0000 0.0000
# 5 0.0000 0.0000 0.0000 0.0000 30.6410 0.0000
# 6 0.0000 0.0000 0.0000 0.0000 0.0000 165.1460
#
#
#
# Elastic Compliance Matrix: (Units=1/GPa)
#
#
# Indices 1 2 3 4 5 6 
#
# 1 0.008464 -0.003310 -0.001769 0.000000 0.000000 0.000000
# 2 -0.003310 0.008898 -0.000702 0.000000 0.000000 0.000000
# 3 -0.001769 -0.000702 0.009507 0.000000 0.000000 0.000000
# 4 0.000000 0.000000 0.000000 0.084818 0.000000 0.000000
# 5 0.000000 0.000000 0.000000 0.000000 0.032636 0.000000
# 6 0.000000 0.000000 0.000000 0.000000 0.000000 0.006055
#
#
# Mechanical properties :
#
#
# Convention : Reuss Voigt Hill
#
# Bulk Modulus (GPa) = 65.32825 68.21640 66.77232
# Shear Modulus (GPa) = 29.93250 60.55225 45.24237
#
# Velocity S-wave (km/s) = 3.50062 4.97897 4.30375
# Velocity P-wave (km/s) = 6.56388 7.80905 7.21338
#
# Compressibility (1/GPa) = 0.01530731
#
# Stress axis : x y z
#
# Youngs Moduli (GPa) = 118.15180 112.38093 105.18272
#
# Poissons Ratio (x) = 0.37198 0.18604
# Poissons Ratio (y) = 0.39108 0.07387
# Poissons Ratio (z) = 0.20897 0.07892
#
# Static dielectric constant tensor:
#      x y z
#    x 1.918440 0.000000 0.000000 
#    y 0.000000 1.976240 0.000000 
#    z 0.000000 0.000000 1.933630 
# 
# From -- ./inp_files/22602.got.cif
#   From: 2010.05.17/outbox.cif.g08.bks.cpg/sg20_12_cif.got.tgz:22602.got - 2010.06.03 22:52:26.
