data_PCOD9320572
_publ_section_title
;
Structure prediction by ZEFSAII (Michael W. Deem and Ramdas Pophale) SiO2 
 PCOD9320572
Probable space group: C 2 2 21
;
_chemical_formula_sum "Si O2"
_cell_formula_units_Z 28
_cell_length_a 15.333603
_cell_length_b 7.886512
_cell_length_c 11.133384
_cell_angle_alpha 90.000000
_cell_angle_beta 90.000000
_cell_angle_gamma 90.000000
_cell_volume 1346.345031
_symmetry_space_group_name_H-M "C 2 2 21"
_symmetry_group_IT_number 20
_symmetry_cell_setting 'orthorhombic'
loop_
_space_group_symop_operation_xyz
x,y,z
-x,-y,1/2+z
x,-y,-z
-x,y,1/2-z
1/2+x,1/2+y,z
1/2-x,1/2-y,1/2+z
1/2+x,1/2-y,-z
1/2-x,1/2+y,1/2-z
loop_
_atom_site_type_symbol
_atom_site_label
_atom_site_fract_x
_atom_site_fract_y
_atom_site_fract_z
Si Si1 0.605315 0.508367 0.252591
Si Si2 0.694478 0.500000 0.500000
Si Si3 0.148326 0.706696 0.081293
Si Si4 0.913080 0.638031 0.671658
O O1 0.500000 0.506086 0.250000
O O2 0.637757 0.461400 0.383943
O O3 0.639769 0.379668 0.152251
O O4 0.636182 0.700732 0.227166
O O5 0.758530 0.340584 0.524663
O O6 0.130748 0.545804 0.168140
O O7 0.080149 0.691463 0.969581
O O8 0.000000 0.621755 0.750000
#
# Coordination Sequence:
#
# PCOD9320572 Si02
#       4
#     8   4   8   8
#     4  11  24  42  68  94 133 171 217 271 321 391
#     4  10  26  42  64 102 126 168 228 258 334 402
#     4  10  23  43  64  95 135 168 216 270 330 390
#     4   9  20  39  65  94 128 165 217 261 322 387
#
# _framework density 20.797048
#
# number of rings (size 3 to 8) (size 9 to 14) (size 15 to 20)
#    0.000    2.286    0.000    1.714   16.000    0.000 
#    0.000    0.000    0.000    0.000    0.000    0.000 
#    0.000    0.000    0.000    0.000    0.000    0.000 
#
# Total GULP energy -78089.398379 kJ/mol
# GULP energy per Si atom -5577.814170 kJ/mol
# Density = 2.074971 g / cm^3
# Si number density = 20.797048 Si / 1000 Ang^3
#
#
#
# Elastic Constant Matrix: (Units=GPa)
#
#
# Indices 1 2 3 4 5 6 
#
# 1 79.5471 15.4534 55.0037 0.0000 0.0000 0.0000
# 2 15.4534 79.6536 16.7439 0.0000 0.0000 0.0000
# 3 55.0037 16.7439 110.2438 0.0000 0.0000 0.0000
# 4 0.0000 0.0000 0.0000 32.5251 0.0000 0.0000
# 5 0.0000 0.0000 0.0000 0.0000 54.1456 0.0000
# 6 0.0000 0.0000 0.0000 0.0000 0.0000 0.9417
#
#
#
# Elastic Compliance Matrix: (Units=1/GPa)
#
#
# Indices 1 2 3 4 5 6 
#
# 1 0.019436 -0.001789 -0.009425 0.000000 0.000000 0.000000
# 2 -0.001789 0.013133 -0.001102 0.000000 0.000000 0.000000
# 3 -0.009425 -0.001102 0.013941 0.000000 0.000000 0.000000
# 4 0.000000 0.000000 0.000000 0.030745 0.000000 0.000000
# 5 0.000000 0.000000 0.000000 0.000000 0.018469 0.000000
# 6 0.000000 0.000000 0.000000 0.000000 0.000000 1.061894
#
#
# Mechanical properties :
#
#
# Convention : Reuss Voigt Hill
#
# Bulk Modulus (GPa) = 45.71109 49.31629 47.51369
# Shear Modulus (GPa) = 4.20329 29.67206 16.93767
#
# Velocity S-wave (km/s) = 1.42320 3.78132 2.85691
# Velocity P-wave (km/s) = 4.97272 6.54440 5.81193
#
# Compressibility (1/GPa) = 0.02187653
#
# Stress axis : x y z
#
# Youngs Moduli (GPa) = 51.45059 76.14324 71.73201
#
# Poissons Ratio (x) = 0.13625 0.67611
# Poissons Ratio (y) = 0.09207 0.07904
# Poissons Ratio (z) = 0.48494 0.08390
#
# Static dielectric constant tensor:
#      x y z
#    x 1.769870 0.000000 0.000000 
#    y 0.000000 1.757950 0.000000 
#    z 0.000000 0.000000 1.748090 
# 
# From -- ./inp_files/9022.got.cif
#   From: 2010.05.17/outbox.cif.g08.bks.cpg/sg20_5_cif.got.tgz:9022.got - 2010.06.03 22:52:26.
