data_PCOD9320032
_publ_section_title
;
Structure prediction by ZEFSAII (Michael W. Deem and Ramdas Pophale) SiO2 
 PCOD9320032
Probable space group: C 2 2 21
;
_chemical_formula_sum "Si O2"
_cell_formula_units_Z 48
_cell_length_a 14.301763
_cell_length_b 4.925708
_cell_length_c 30.025386
_cell_angle_alpha 90.000000
_cell_angle_beta 90.000000
_cell_angle_gamma 90.000000
_cell_volume 2115.177603
_symmetry_space_group_name_H-M "C 2 2 21"
_symmetry_group_IT_number 20
_symmetry_cell_setting 'orthorhombic'
loop_
_space_group_symop_operation_xyz
x,y,z
-x,-y,1/2+z
x,-y,-z
-x,y,1/2-z
1/2+x,1/2+y,z
1/2-x,1/2-y,1/2+z
1/2+x,1/2-y,-z
1/2-x,1/2+y,1/2-z
loop_
_atom_site_type_symbol
_atom_site_label
_atom_site_fract_x
_atom_site_fract_y
_atom_site_fract_z
Si Si1 0.111866 0.022413 0.597027
Si Si2 0.609769 0.036557 0.654140
Si Si3 0.802927 0.385151 0.752180
Si Si4 0.111441 0.980405 0.899973
Si Si5 0.747481 0.752679 0.971121
Si Si6 0.111109 0.511768 0.158471
O O1 0.140857 0.833047 0.638833
O O2 0.171981 0.907298 0.556550
O O3 0.128923 0.328325 0.613487
O O4 0.000051 0.980994 0.589179
O O5 0.650747 0.944426 0.700677
O O6 0.498892 0.043750 0.660098
O O7 0.791418 0.064302 0.746696
O O8 0.850789 0.504947 0.708043
O O9 0.171077 0.105628 0.939929
O O10 0.124922 0.185807 0.859068
O O11 0.145661 0.692946 0.880286
O O12 0.786330 0.500000 0.000000
O O13 0.703986 0.000000 0.000000
#
# Coordination Sequence:
#
# PCOD9320032 Si02
#       6
#     8   8   8   8   8   8
#     4  10  23  43  69  96 130 177 220 272 336 404
#     4  10  22  42  64  91 132 179 220 265 324 387
#     4  12  25  36  59 102 132 172 222 272 321 378
#     4  10  23  43  69  96 130 177 220 272 336 404
#     4  12  26  44  70 104 132 172 220 288 354 410
#     4  10  22  42  64  91 132 179 220 265 324 387
#
# _framework density 22.693128000000002
#
# number of rings (size 3 to 8) (size 9 to 14) (size 15 to 20)
#    0.000    1.333    0.000    4.500    7.000    0.667 
#    0.000    8.333    0.000    0.000    0.000    0.000 
#    0.000    0.000    0.000    0.000    0.000    0.000 
#
# Total GULP energy -134219.871796 kJ/mol
# GULP energy per Si atom -5592.494658 kJ/mol
# Density = 2.264148 g / cm^3
# Si number density = 22.693128 Si / 1000 Ang^3
#
#
#
# Elastic Constant Matrix: (Units=GPa)
#
#
# Indices 1 2 3 4 5 6 
#
# 1 72.5448 5.9053 38.6700 0.0000 0.0000 0.0000
# 2 5.9053 69.6551 6.9825 0.0000 0.0000 0.0000
# 3 38.6700 6.9825 104.0604 0.0000 0.0000 0.0000
# 4 0.0000 0.0000 0.0000 25.8613 0.0000 0.0000
# 5 0.0000 0.0000 0.0000 0.0000 -19.8473 0.0000
# 6 0.0000 0.0000 0.0000 0.0000 0.0000 13.5985
#
#
#
# Elastic Compliance Matrix: (Units=1/GPa)
#
#
# Indices 1 2 3 4 5 6 
#
# 1 0.017237 -0.000825 -0.006350 0.000000 0.000000 0.000000
# 2 -0.000825 0.014493 -0.000666 0.000000 0.000000 0.000000
# 3 -0.006350 -0.000666 0.012014 0.000000 0.000000 0.000000
# 4 0.000000 0.000000 0.000000 0.038668 0.000000 0.000000
# 5 0.000000 0.000000 0.000000 0.000000 -0.050385 0.000000
# 6 0.000000 0.000000 0.000000 0.000000 0.000000 0.073537
#
#
# Mechanical properties :
#
#
# Convention : Reuss Voigt Hill
#
# Bulk Modulus (GPa) = 35.63478 38.81954 37.22716
# Shear Modulus (GPa) = 38.28486 16.90268 27.59377
#
# Velocity S-wave (km/s) = 4.11185 2.73213 3.49083
# Velocity P-wave (km/s) = 6.18709 5.20540 5.71735
#
# Compressibility (1/GPa) = 0.02806247
#
# Stress axis : x y z
#
# Youngs Moduli (GPa) = 58.01621 68.99816 83.23475
#
# Poissons Ratio (x) = 0.05691 0.52854
# Poissons Ratio (y) = 0.04785 0.05543
# Poissons Ratio (z) = 0.36840 0.04595
#
# Static dielectric constant tensor:
#      x y z
#    x 1.874110 0.000000 0.000000 
#    y 0.000000 1.842910 0.000000 
#    z 0.000000 0.000000 1.842110 
# 
# From -- ./inp_files/30411.got.cif
#   From: 2010.05.17/outbox.cif.g08.bks.cpg/sg20_16_cif.got.tgz:30411.got - 2010.06.03 22:52:26.
