data_PCOD9320644
_publ_section_title
;
Structure prediction by ZEFSAII (Michael W. Deem and Ramdas Pophale) SiO2 
 PCOD9320644
Probable space group: C 2 2 21
;
_chemical_formula_sum "Si O2"
_cell_formula_units_Z 52
_cell_length_a 20.111977
_cell_length_b 8.750801
_cell_length_c 13.891225
_cell_angle_alpha 90.000000
_cell_angle_beta 90.000000
_cell_angle_gamma 90.000000
_cell_volume 2444.798763
_symmetry_space_group_name_H-M "C 2 2 21"
_symmetry_group_IT_number 20
_symmetry_cell_setting 'orthorhombic'
loop_
_space_group_symop_operation_xyz
x,y,z
-x,-y,1/2+z
x,-y,-z
-x,y,1/2-z
1/2+x,1/2+y,z
1/2-x,1/2-y,1/2+z
1/2+x,1/2-y,-z
1/2-x,1/2+y,1/2-z
loop_
_atom_site_type_symbol
_atom_site_label
_atom_site_fract_x
_atom_site_fract_y
_atom_site_fract_z
Si Si1 0.429047 0.444136 0.650084
Si Si2 0.000000 0.208247 0.750000
Si Si3 0.418560 0.932392 0.866661
Si Si4 0.180251 0.071555 0.301554
Si Si5 0.040721 0.264924 0.440198
Si Si6 0.142310 0.000000 0.500000
Si Si7 0.779316 0.415339 0.149917
Si Si8 0.315468 0.500000 0.500000
O O1 0.472483 0.598253 0.665096
O O2 0.393722 0.429445 0.754212
O O3 0.477319 0.322451 0.600870
O O4 0.365700 0.443097 0.580644
O O5 0.060059 0.318743 0.717779
O O6 0.444920 0.105220 0.860944
O O7 0.339865 0.967758 0.874285
O O8 0.455322 0.857430 0.958938
O O9 0.197230 0.249292 0.316593
O O10 0.182343 0.976683 0.401534
O O11 0.232990 0.993918 0.229936
O O12 0.096500 0.139822 0.465830
O O13 0.734251 0.387744 0.055368
#
# Coordination Sequence:
#
# PCOD9320644 Si02
#       8
#     8   4   8   8   8   4   8   4
#     4  11  24  46  71 106 140 192 240 303 368 445
#     4  12  26  40  74 100 144 188 238 304 366 436
#     4  11  25  42  68 104 141 185 239 302 363 435
#     4  11  27  44  75 100 148 190 250 295 363 442
#     4  11  23  42  70 102 143 181 239 296 368 439
#     4  12  23  42  70 104 137 196 234 294 362 444
#     4  11  26  47  69 104 141 196 239 303 362 437
#     4  10  23  44  70  96 141 180 240 292 356 422
#
# _framework density 21.269642999999999
#
# number of rings (size 3 to 8) (size 9 to 14) (size 15 to 20)
#    0.000    0.923    1.538    5.077    8.615    1.231 
#    0.000    0.000    0.000    0.000    0.000    0.000 
#    0.000    0.000    0.000    0.000    0.000    0.000 
#
# Total GULP energy -144912.046290 kJ/mol
# GULP energy per Si atom -5573.540242 kJ/mol
# Density = 2.122123 g / cm^3
# Si number density = 21.269643 Si / 1000 Ang^3
#
#
#
# Elastic Constant Matrix: (Units=GPa)
#
#
# Indices 1 2 3 4 5 6 
#
# 1 124.9260 55.4917 53.2114 0.0000 0.0000 0.0000
# 2 55.4917 117.2773 39.2157 0.0000 0.0000 0.0000
# 3 53.2114 39.2157 113.9720 0.0000 0.0000 0.0000
# 4 0.0000 0.0000 0.0000 36.3817 0.0000 0.0000
# 5 0.0000 0.0000 0.0000 0.0000 40.8957 0.0000
# 6 0.0000 0.0000 0.0000 0.0000 0.0000 13.8650
#
#
#
# Elastic Compliance Matrix: (Units=1/GPa)
#
#
# Indices 1 2 3 4 5 6 
#
# 1 0.011526 -0.004129 -0.003960 0.000000 0.000000 0.000000
# 2 -0.004129 0.011115 -0.001896 0.000000 0.000000 0.000000
# 3 -0.003960 -0.001896 0.011276 0.000000 0.000000 0.000000
# 4 0.000000 0.000000 0.000000 0.027486 0.000000 0.000000
# 5 0.000000 0.000000 0.000000 0.000000 0.024452 0.000000
# 6 0.000000 0.000000 0.000000 0.000000 0.000000 0.072124
#
#
# Mechanical properties :
#
#
# Convention : Reuss Voigt Hill
#
# Bulk Modulus (GPa) = 71.71593 72.44588 72.08090
# Shear Modulus (GPa) = 27.38228 32.11223 29.74725
#
# Velocity S-wave (km/s) = 3.59191 3.88979 3.74381
# Velocity P-wave (km/s) = 7.14095 7.36944 7.25609
#
# Compressibility (1/GPa) = 0.01394390
#
# Stress axis : x y z
#
# Youngs Moduli (GPa) = 86.76110 89.96977 88.68665
#
# Poissons Ratio (x) = 0.37152 0.35123
# Poissons Ratio (y) = 0.35827 0.16819
# Poissons Ratio (z) = 0.34361 0.17063
#
# Static dielectric constant tensor:
#      x y z
#    x 1.782710 0.000000 0.000000 
#    y 0.000000 1.748610 0.000000 
#    z 0.000000 0.000000 1.994820 
# 
# From -- ./inp_files/21738.got.cif
#   From: 2010.05.17/outbox.cif.g08.bks.cpg/sg20_11_cif.got.tgz:21738.got - 2010.06.03 22:52:26.
