data_PCOD9320029
_publ_section_title
;
Structure prediction by ZEFSAII (Michael W. Deem and Ramdas Pophale) SiO2 
 PCOD9320029
Probable space group: C 2 2 21
;
_chemical_formula_sum "Si O2"
_cell_formula_units_Z 48
_cell_length_a 9.886430
_cell_length_b 9.476333
_cell_length_c 26.657514
_cell_angle_alpha 90.000000
_cell_angle_beta 90.000000
_cell_angle_gamma 90.000000
_cell_volume 2497.465256
_symmetry_space_group_name_H-M "C 2 2 21"
_symmetry_group_IT_number 20
_symmetry_cell_setting 'orthorhombic'
loop_
_space_group_symop_operation_xyz
x,y,z
-x,-y,1/2+z
x,-y,-z
-x,y,1/2-z
1/2+x,1/2+y,z
1/2-x,1/2-y,1/2+z
1/2+x,1/2-y,-z
1/2-x,1/2+y,1/2-z
loop_
_atom_site_type_symbol
_atom_site_label
_atom_site_fract_x
_atom_site_fract_y
_atom_site_fract_z
Si Si1 0.209874 0.568850 0.053791
Si Si2 0.979039 0.066843 0.445221
Si Si3 0.366009 0.820186 0.716126
Si Si4 0.643900 0.150560 0.777314
Si Si5 0.522854 0.275131 0.109550
Si Si6 0.793347 0.280354 0.387854
O O1 0.365610 0.621148 0.053908
O O2 0.102002 0.686913 0.067464
O O3 0.200038 0.441581 0.093462
O O4 0.184286 0.500000 0.000000
O O5 0.876767 0.185441 0.426648
O O6 0.950805 0.000000 0.500000
O O7 0.970855 0.938529 0.405625
O O8 0.500000 0.812571 0.750000
O O9 0.252918 0.725458 0.742140
O O10 0.404323 0.762131 0.661499
O O11 0.323832 0.984698 0.714614
O O12 0.500000 0.160335 0.750000
O O13 0.647194 0.224254 0.831788
O O14 0.364327 0.236566 0.112835
#
# Coordination Sequence:
#
# PCOD9320029 Si02
#       6
#     8   8   8   8   8   8
#     4  10  22  42  64  89 125 165 209 259 314 370
#     4  10  24  41  62  94 127 162 209 257 308 372
#     4  11  24  44  62  91 127 157 210 258 311 372
#     4  11  26  40  63  92 121 163 207 257 309 374
#     4  11  23  39  65  91 122 166 201 258 314 366
#     4  11  23  41  62  93 126 158 210 256 308 376
#
# _framework density 19.219486
#
# number of rings (size 3 to 8) (size 9 to 14) (size 15 to 20)
#    0.000    1.333    3.333    1.000    4.667    2.667 
#    0.000    0.000    0.000    0.000    0.000    0.000 
#    0.000    0.000    0.000    0.000    0.000    0.000 
#
# Total GULP energy -134130.459765 kJ/mol
# GULP energy per Si atom -5588.769157 kJ/mol
# Density = 1.917574 g / cm^3
# Si number density = 19.219486 Si / 1000 Ang^3
#
#
#
# Elastic Constant Matrix: (Units=GPa)
#
#
# Indices 1 2 3 4 5 6 
#
# 1 68.6612 38.0083 24.5230 0.0000 0.0000 0.0000
# 2 38.0083 52.5462 3.5254 0.0000 0.0000 0.0000
# 3 24.5230 3.5254 76.7427 0.0000 0.0000 0.0000
# 4 0.0000 0.0000 0.0000 27.7491 0.0000 0.0000
# 5 0.0000 0.0000 0.0000 0.0000 35.0786 0.0000
# 6 0.0000 0.0000 0.0000 0.0000 0.0000 27.9665
#
#
#
# Elastic Compliance Matrix: (Units=1/GPa)
#
#
# Indices 1 2 3 4 5 6 
#
# 1 0.028688 -0.020198 -0.008239 0.000000 0.000000 0.000000
# 2 -0.020198 0.033310 0.004924 0.000000 0.000000 0.000000
# 3 -0.008239 0.004924 0.015437 0.000000 0.000000 0.000000
# 4 0.000000 0.000000 0.000000 0.036037 0.000000 0.000000
# 5 0.000000 0.000000 0.000000 0.000000 0.028507 0.000000
# 6 0.000000 0.000000 0.000000 0.000000 0.000000 0.035757
#
#
# Mechanical properties :
#
#
# Convention : Reuss Voigt Hill
#
# Bulk Modulus (GPa) = 32.88518 36.67374 34.77946
# Shear Modulus (GPa) = 21.28561 26.95172 24.11866
#
# Velocity S-wave (km/s) = 3.33152 3.74881 3.54631
# Velocity P-wave (km/s) = 5.65210 6.15313 5.90793
#
# Compressibility (1/GPa) = 0.03040884
#
# Stress axis : x y z
#
# Youngs Moduli (GPa) = 34.85779 30.02062 64.77843
#
# Poissons Ratio (x) = 0.60636 0.53373
# Poissons Ratio (y) = 0.70406 -0.31897
# Poissons Ratio (z) = 0.28721 -0.14782
#
# Static dielectric constant tensor:
#      x y z
#    x 1.648070 0.000000 0.000000 
#    y 0.000000 1.647430 0.000000 
#    z 0.000000 0.000000 1.672310 
# 
# From -- ./inp_files/30940.got.cif
#   From: 2010.05.17/outbox.cif.g08.bks.cpg/sg20_16_cif.got.tgz:30940.got - 2010.06.03 22:52:26.
