data_PCOD9320887
_publ_section_title
;
Structure prediction by ZEFSAII (Michael W. Deem and Ramdas Pophale) SiO2 
 PCOD9320887
Probable space group: C 2 2 21
;
_chemical_formula_sum "Si O2"
_cell_formula_units_Z 40
_cell_length_a 19.074511
_cell_length_b 4.903422
_cell_length_c 18.185607
_cell_angle_alpha 90.000000
_cell_angle_beta 90.000000
_cell_angle_gamma 90.000000
_cell_volume 1700.906676
_symmetry_space_group_name_H-M "C 2 2 21"
_symmetry_group_IT_number 20
_symmetry_cell_setting 'orthorhombic'
loop_
_space_group_symop_operation_xyz
x,y,z
-x,-y,1/2+z
x,-y,-z
-x,y,1/2-z
1/2+x,1/2+y,z
1/2-x,1/2-y,1/2+z
1/2+x,1/2-y,-z
1/2-x,1/2+y,1/2-z
loop_
_atom_site_type_symbol
_atom_site_label
_atom_site_fract_x
_atom_site_fract_y
_atom_site_fract_z
Si Si1 0.823240 0.657387 0.922875
Si Si2 0.668465 0.675961 0.926332
Si Si3 0.897024 0.664431 0.644119
Si Si4 0.200508 0.438817 0.732488
Si Si5 0.525544 0.736432 0.446932
O O1 0.747096 0.794662 0.917254
O O2 0.823096 0.462710 0.851944
O O3 0.894465 0.828506 0.923447
O O4 0.821670 0.500000 0.000000
O O5 0.645161 0.445089 0.868089
O O6 0.620761 0.938149 0.917655
O O7 0.665562 0.500000 0.000000
O O8 0.866105 0.523221 0.717077
O O9 0.977699 0.728574 0.625295
O O10 0.237695 0.154310 0.749013
O O11 0.497215 0.500000 0.500000
O O12 0.527861 0.000000 0.500000
#
# Coordination Sequence:
#
# PCOD9320887 Si02
#       5
#     8   8   8   8   8
#     4  10  24  44  68  98 136 179 224 276 339 409
#     4  11  22  38  66  99 129 175 227 271 333 398
#     4  12  22  41  67  96 133 176 219 287 332 396
#     4  12  24  44  66 100 134 171 227 287 337 397
#     4  11  25  43  65  98 137 173 219 270 329 400
#
# _framework density 23.516870999999998
#
# number of rings (size 3 to 8) (size 9 to 14) (size 15 to 20)
#    0.000    0.800    4.000    3.600    0.000    8.800 
#    0.000    0.000    0.000    9.600    0.000    0.000 
#    0.000    0.000    0.000    0.000    0.000    0.000 
#
# Total GULP energy -111761.782967 kJ/mol
# GULP energy per Si atom -5588.089148 kJ/mol
# Density = 2.346335 g / cm^3
# Si number density = 23.516871 Si / 1000 Ang^3
#
#
#
# Elastic Constant Matrix: (Units=GPa)
#
#
# Indices 1 2 3 4 5 6 
#
# 1 124.1988 0.0000 -1.8864 0.0000 0.0000 0.0000
# 2 0.0000 91.6901 -4.7898 0.0000 0.0000 0.0000
# 3 -1.8864 -4.7898 114.3987 0.0000 0.0000 0.0000
# 4 0.0000 0.0000 0.0000 28.1555 0.0000 0.0000
# 5 0.0000 0.0000 0.0000 0.0000 418.1006 0.0000
# 6 0.0000 0.0000 0.0000 0.0000 0.0000 11.0955
#
#
#
# Elastic Compliance Matrix: (Units=1/GPa)
#
#
# Indices 1 2 3 4 5 6 
#
# 1 0.008054 0.000007 0.000133 0.000000 0.000000 0.000000
# 2 0.000007 0.010930 0.000458 0.000000 0.000000 0.000000
# 3 0.000133 0.000458 0.008763 0.000000 0.000000 0.000000
# 4 0.000000 0.000000 0.000000 0.035517 0.000000 0.000000
# 5 0.000000 0.000000 0.000000 0.000000 0.002392 0.000000
# 6 0.000000 0.000000 0.000000 0.000000 0.000000 0.090126
#
#
# Mechanical properties :
#
#
# Convention : Reuss Voigt Hill
#
# Bulk Modulus (GPa) = 34.55164 35.21500 34.88332
# Shear Modulus (GPa) = 30.44448 113.93460 72.18954
#
# Velocity S-wave (km/s) = 3.60193 6.96801 5.54649
# Velocity P-wave (km/s) = 5.65886 8.92998 7.47553
#
# Compressibility (1/GPa) = 0.02894219
#
# Stress axis : x y z
#
# Youngs Moduli (GPa) = 124.16762 91.48947 114.11985
#
# Poissons Ratio (x) = -0.00064 -0.01519
# Poissons Ratio (y) = -0.00086 -0.05224
# Poissons Ratio (z) = -0.01653 -0.04188
#
# Static dielectric constant tensor:
#      x y z
#    x 1.929980 0.000000 0.000000 
#    y 0.000000 1.737960 0.000000 
#    z 0.000000 0.000000 1.963270 
# 
# From -- ./inp_files/25094.got.cif
#   From: 2010.05.17/outbox.cif.g08.bks.cpg/sg20_13_cif.got.tgz:25094.got - 2010.06.03 22:52:26.
