data_PCOD9320613
_publ_section_title
;
Structure prediction by ZEFSAII (Michael W. Deem and Ramdas Pophale) SiO2 
 PCOD9320613
Probable space group: C 2 2 21
;
_chemical_formula_sum "Si O2"
_cell_formula_units_Z 56
_cell_length_a 11.086141
_cell_length_b 16.780178
_cell_length_c 13.270334
_cell_angle_alpha 90.000000
_cell_angle_beta 90.000000
_cell_angle_gamma 90.000000
_cell_volume 2468.645987
_symmetry_space_group_name_H-M "C 2 2 21"
_symmetry_group_IT_number 20
_symmetry_cell_setting 'orthorhombic'
loop_
_space_group_symop_operation_xyz
x,y,z
-x,-y,1/2+z
x,-y,-z
-x,y,1/2-z
1/2+x,1/2+y,z
1/2-x,1/2-y,1/2+z
1/2+x,1/2-y,-z
1/2-x,1/2+y,1/2-z
loop_
_atom_site_type_symbol
_atom_site_label
_atom_site_fract_x
_atom_site_fract_y
_atom_site_fract_z
Si Si1 0.047779 0.083876 0.956427
Si Si2 0.246390 0.940747 0.204234
Si Si3 0.838559 0.807661 0.981708
Si Si4 0.124196 0.719643 0.714099
Si Si5 0.563683 0.057905 0.359084
Si Si6 0.797196 0.453321 0.597130
Si Si7 0.780478 0.821889 0.610698
O O1 0.120457 0.062601 0.854881
O O2 0.139742 0.122618 0.038064
O O3 0.938422 0.146251 0.953008
O O4 0.005740 0.000000 0.000000
O O5 0.277365 0.849080 0.224361
O O6 0.350793 0.979929 0.132700
O O7 0.258818 0.996127 0.303726
O O8 0.892860 0.746071 0.901038
O O9 0.767514 0.869036 0.910631
O O10 0.748917 0.759018 0.051752
O O11 0.154003 0.794071 0.787146
O O12 0.000000 0.681650 0.750000
O O13 0.500000 0.058151 0.250000
O O14 0.440584 0.059978 0.420899
O O15 0.655468 0.131389 0.369365
O O16 0.754547 0.500000 0.500000
#
# Coordination Sequence:
#
# PCOD9320613 Si02
#       7
#     8   8   8   8   8   8   8
#     4  12  26  48  75 104 147 201 254 303 388 464
#     4  11  24  46  74 108 142 199 257 307 376 466
#     4  12  28  45  71 110 151 193 248 320 389 461
#     4  12  24  43  71 104 147 189 243 314 391 452
#     4  10  23  43  73 105 140 191 253 315 370 451
#     4  11  25  45  71 105 146 189 248 313 378 446
#     4  12  26  45  73 107 145 199 249 314 388 460
#
# _framework density 22.6845
#
# number of rings (size 3 to 8) (size 9 to 14) (size 15 to 20)
#    0.000    0.571    4.286    4.286    4.000    2.286 
#    0.000    5.000    0.000    0.000    0.000    0.000 
#    0.000    0.000    0.000    0.000    0.000    0.000 
#
# Total GULP energy -156493.409462 kJ/mol
# GULP energy per Si atom -5589.050338 kJ/mol
# Density = 2.263287 g / cm^3
# Si number density = 22.684500 Si / 1000 Ang^3
#
#
#
# Elastic Constant Matrix: (Units=GPa)
#
#
# Indices 1 2 3 4 5 6 
#
# 1 90.2048 15.4091 19.2636 0.0000 0.0000 0.0000
# 2 15.4091 80.0917 6.7240 0.0000 0.0000 0.0000
# 3 19.2636 6.7240 49.5210 0.0000 0.0000 0.0000
# 4 0.0000 0.0000 0.0000 24.3939 0.0000 0.0000
# 5 0.0000 0.0000 0.0000 0.0000 22.1904 0.0000
# 6 0.0000 0.0000 0.0000 0.0000 0.0000 37.4591
#
#
#
# Elastic Compliance Matrix: (Units=1/GPa)
#
#
# Indices 1 2 3 4 5 6 
#
# 1 0.012400 -0.002004 -0.004552 0.000000 0.000000 0.000000
# 2 -0.002004 0.012953 -0.000979 0.000000 0.000000 0.000000
# 3 -0.004552 -0.000979 0.022097 0.000000 0.000000 0.000000
# 4 0.000000 0.000000 0.000000 0.040994 0.000000 0.000000
# 5 0.000000 0.000000 0.000000 0.000000 0.045065 0.000000
# 6 0.000000 0.000000 0.000000 0.000000 0.000000 0.026696
#
#
# Mechanical properties :
#
#
# Convention : Reuss Voigt Hill
#
# Bulk Modulus (GPa) = 30.88200 33.62344 32.25272
# Shear Modulus (GPa) = 26.87193 28.70340 27.78767
#
# Velocity S-wave (km/s) = 3.44553 3.56101 3.50374
# Velocity P-wave (km/s) = 5.42882 5.63579 5.53327
#
# Compressibility (1/GPa) = 0.03238132
#
# Stress axis : x y z
#
# Youngs Moduli (GPa) = 80.64418 77.19984 45.25503
#
# Poissons Ratio (x) = 0.15468 0.20598
# Poissons Ratio (y) = 0.16158 0.04432
# Poissons Ratio (z) = 0.36706 0.07561
#
# Static dielectric constant tensor:
#      x y z
#    x 1.869630 0.000000 0.000000 
#    y 0.000000 1.872080 0.000000 
#    z 0.000000 0.000000 1.947140 
# 
# From -- ./inp_files/20048.got.cif
#   From: 2010.05.17/outbox.cif.g08.bks.cpg/sg20_11_cif.got.tgz:20048.got - 2010.06.03 22:52:26.
