data_PCOD9320100
_publ_section_title
;
Structure prediction by ZEFSAII (Michael W. Deem and Ramdas Pophale) SiO2 
 PCOD9320100
Probable space group: C 2 2 21
;
_chemical_formula_sum "Si O2"
_cell_formula_units_Z 32
_cell_length_a 14.620234
_cell_length_b 5.099805
_cell_length_c 16.940185
_cell_angle_alpha 90.000000
_cell_angle_beta 90.000000
_cell_angle_gamma 90.000000
_cell_volume 1263.065995
_symmetry_space_group_name_H-M "C 2 2 21"
_symmetry_group_IT_number 20
_symmetry_cell_setting 'orthorhombic'
loop_
_space_group_symop_operation_xyz
x,y,z
-x,-y,1/2+z
x,-y,-z
-x,y,1/2-z
1/2+x,1/2+y,z
1/2-x,1/2-y,1/2+z
1/2+x,1/2-y,-z
1/2-x,1/2+y,1/2-z
loop_
_atom_site_type_symbol
_atom_site_label
_atom_site_fract_x
_atom_site_fract_y
_atom_site_fract_z
Si Si1 0.800764 0.931888 0.286393
Si Si2 0.227374 0.550933 0.091930
Si Si3 0.473127 0.083791 0.592764
Si Si4 0.573071 0.415704 0.342754
O O1 0.758864 0.671324 0.244591
O O2 0.786744 0.850972 0.377421
O O3 0.901873 0.959263 0.249833
O O4 0.325386 0.449790 0.119770
O O5 0.132328 0.420897 0.120839
O O6 0.226284 0.500000 0.000000
O O7 0.515143 0.364167 0.612177
O O8 0.477188 0.000000 0.500000
O O9 0.531192 0.866821 0.639777
#
# Coordination Sequence:
#
# PCOD9320100 Si02
#       4
#     8   8   8   8
#     4  10  22  42  68  99 132 178 232 274 334 413
#     4  10  23  44  69  98 136 177 223 284 339 392
#     4  11  24  41  67 101 129 171 230 272 332 413
#     4  11  23  43  67  95 137 176 218 281 340 397
#
# _framework density 25.335177999999999
#
# number of rings (size 3 to 8) (size 9 to 14) (size 15 to 20)
#    0.000    1.500    0.000    5.250    0.000    7.000 
#    0.000   18.750    0.000    0.000    0.000    0.000 
#    0.000    0.000    0.000    0.000    0.000    0.000 
#
# Total GULP energy -89564.763318 kJ/mol
# GULP energy per Si atom -5597.797707 kJ/mol
# Density = 2.527751 g / cm^3
# Si number density = 25.335178 Si / 1000 Ang^3
#
#
#
# Elastic Constant Matrix: (Units=GPa)
#
#
# Indices 1 2 3 4 5 6 
#
# 1 167.1226 19.4447 4.5270 0.0000 0.0000 0.0000
# 2 19.4447 92.2467 -5.0601 0.0000 0.0000 0.0000
# 3 4.5270 -5.0601 99.2627 0.0000 0.0000 0.0000
# 4 0.0000 0.0000 0.0000 41.1354 0.0000 0.0000
# 5 0.0000 0.0000 0.0000 0.0000 39.6076 0.0000
# 6 0.0000 0.0000 0.0000 0.0000 0.0000 36.4264
#
#
#
# Elastic Compliance Matrix: (Units=1/GPa)
#
#
# Indices 1 2 3 4 5 6 
#
# 1 0.006146 -0.001315 -0.000347 0.000000 0.000000 0.000000
# 2 -0.001315 0.011152 0.000628 0.000000 0.000000 0.000000
# 3 -0.000347 0.000628 0.010122 0.000000 0.000000 0.000000
# 4 0.000000 0.000000 0.000000 0.024310 0.000000 0.000000
# 5 0.000000 0.000000 0.000000 0.000000 0.025248 0.000000
# 6 0.000000 0.000000 0.000000 0.000000 0.000000 0.027453
#
#
# Mechanical properties :
#
#
# Convention : Reuss Voigt Hill
#
# Bulk Modulus (GPa) = 39.44251 44.05058 41.74654
# Shear Modulus (GPa) = 43.49778 46.08192 44.78985
#
# Velocity S-wave (km/s) = 4.14804 4.26947 4.20919
# Velocity P-wave (km/s) = 6.20835 6.45983 6.33534
#
# Compressibility (1/GPa) = 0.02535336
#
# Stress axis : x y z
#
# Youngs Moduli (GPa) = 162.70772 89.66950 98.79325
#
# Poissons Ratio (x) = 0.11788 0.03431
# Poissons Ratio (y) = 0.21389 -0.06209
# Poissons Ratio (z) = 0.05651 -0.05635
#
# Static dielectric constant tensor:
#      x y z
#    x 1.982400 0.000000 0.000000 
#    y 0.000000 1.976380 0.000000 
#    z 0.000000 0.000000 2.161210 
# 
# From -- ./inp_files/24629.got.cif
#   From: 2010.05.17/outbox.cif.g08.bks.cpg/sg20_13_cif.got.tgz:24629.got - 2010.06.03 22:52:26.
