data_PCOD9320658
_publ_section_title
;
Structure prediction by ZEFSAII (Michael W. Deem and Ramdas Pophale) SiO2 
 PCOD9320658
Probable space group: C 2 2 21
;
_chemical_formula_sum "Si O2"
_cell_formula_units_Z 48
_cell_length_a 8.389009
_cell_length_b 28.805170
_cell_length_c 8.336754
_cell_angle_alpha 90.000000
_cell_angle_beta 90.000000
_cell_angle_gamma 90.000000
_cell_volume 2014.550180
_symmetry_space_group_name_H-M "C 2 2 21"
_symmetry_group_IT_number 20
_symmetry_cell_setting 'orthorhombic'
loop_
_space_group_symop_operation_xyz
x,y,z
-x,-y,1/2+z
x,-y,-z
-x,y,1/2-z
1/2+x,1/2+y,z
1/2-x,1/2-y,1/2+z
1/2+x,1/2-y,-z
1/2-x,1/2+y,1/2-z
loop_
_atom_site_type_symbol
_atom_site_label
_atom_site_fract_x
_atom_site_fract_y
_atom_site_fract_z
Si Si1 0.109350 0.354275 0.096790
Si Si2 0.124693 0.779499 0.511837
Si Si3 0.822832 0.924078 0.287651
Si Si4 0.330232 0.105402 0.120725
Si Si5 0.330402 0.989807 0.688567
Si Si6 0.203956 0.797862 0.862331
O O1 0.207418 0.398453 0.162253
O O2 0.000000 0.339566 0.250000
O O3 0.239611 0.314734 0.053625
O O4 0.995285 0.373009 0.952736
O O5 0.160313 0.772821 0.698706
O O6 0.146088 0.729645 0.430976
O O7 0.941803 0.796398 0.510710
O O8 0.763466 0.911400 0.463416
O O9 0.000000 0.908455 0.250000
O O10 0.805368 0.979134 0.267331
O O11 0.328792 0.062580 0.244196
O O12 0.237423 0.149668 0.186018
O O13 0.500000 0.009205 0.750000
O O14 0.323562 0.000000 0.500000
#
# Coordination Sequence:
#
# PCOD9320658 Si02
#       6
#     8   8   8   8   8   8
#     4  10  23  44  78 104 146 191 253 310 374 449
#     4  11  26  47  73 111 150 198 246 307 376 448
#     4  11  24  45  71 104 143 194 243 311 376 445
#     4  11  25  46  72 107 146 195 252 307 374 451
#     4  12  26  46  73 104 146 193 252 313 375 450
#     4  11  27  46  73 109 154 196 248 307 371 456
#
# _framework density 23.826657999999998
#
# number of rings (size 3 to 8) (size 9 to 14) (size 15 to 20)
#    0.000    1.000    0.000    6.000   11.667    3.333 
#    3.000    0.000    0.000    0.000    0.000    0.000 
#    0.000    0.000    0.000    0.000    0.000    0.000 
#
# Total GULP energy -134296.439261 kJ/mol
# GULP energy per Si atom -5595.684969 kJ/mol
# Density = 2.377243 g / cm^3
# Si number density = 23.826658 Si / 1000 Ang^3
#
#
#
# Elastic Constant Matrix: (Units=GPa)
#
#
# Indices 1 2 3 4 5 6 
#
# 1 87.5173 28.3283 3.6304 0.0000 0.0000 0.0000
# 2 28.3283 132.4319 41.3963 0.0000 0.0000 0.0000
# 3 3.6304 41.3963 66.6328 0.0000 0.0000 0.0000
# 4 0.0000 0.0000 0.0000 85.9043 0.0000 0.0000
# 5 0.0000 0.0000 0.0000 0.0000 25.7338 0.0000
# 6 0.0000 0.0000 0.0000 0.0000 0.0000 28.2901
#
#
#
# Elastic Compliance Matrix: (Units=1/GPa)
#
#
# Indices 1 2 3 4 5 6 
#
# 1 0.012353 -0.003018 0.001202 0.000000 0.000000 0.000000
# 2 -0.003018 0.010108 -0.006115 0.000000 0.000000 0.000000
# 3 0.001202 -0.006115 0.018741 0.000000 0.000000 0.000000
# 4 0.000000 0.000000 0.000000 0.011641 0.000000 0.000000
# 5 0.000000 0.000000 0.000000 0.000000 0.038859 0.000000
# 6 0.000000 0.000000 0.000000 0.000000 0.000000 0.035348
#
#
# Mechanical properties :
#
#
# Convention : Reuss Voigt Hill
#
# Bulk Modulus (GPa) = 39.46350 48.14355 43.80353
# Shear Modulus (GPa) = 33.03354 42.20076 37.61715
#
# Velocity S-wave (km/s) = 3.72749 4.21308 3.97770
# Velocity P-wave (km/s) = 5.92658 6.62694 6.28652
#
# Compressibility (1/GPa) = 0.02533987
#
# Stress axis : x y z
#
# Youngs Moduli (GPa) = 80.94927 98.92893 53.35776
#
# Poissons Ratio (x) = 0.29859 -0.06414
# Poissons Ratio (y) = 0.24432 0.32631
# Poissons Ratio (z) = -0.09730 0.60499
#
# Static dielectric constant tensor:
#      x y z
#    x 1.956080 0.000000 0.000000 
#    y 0.000000 1.894770 0.000000 
#    z 0.000000 0.000000 1.906140 
# 
# From -- ./inp_files/6528.got.cif
#   From: 2010.05.17/outbox.cif.g08.bks.cpg/sg20_4_cif.got.tgz:6528.got - 2010.06.03 22:52:26.
