data_PCOD9320283
_publ_section_title
;
Structure prediction by ZEFSAII (Michael W. Deem and Ramdas Pophale) SiO2 
 PCOD9320283
Probable space group: C 2 2 21
;
_chemical_formula_sum "Si O2"
_cell_formula_units_Z 44
_cell_length_a 18.920088
_cell_length_b 7.608922
_cell_length_c 11.058124
_cell_angle_alpha 90.000000
_cell_angle_beta 90.000000
_cell_angle_gamma 90.000000
_cell_volume 1591.943829
_symmetry_space_group_name_H-M "C 2 2 21"
_symmetry_group_IT_number 20
_symmetry_cell_setting 'orthorhombic'
loop_
_space_group_symop_operation_xyz
x,y,z
-x,-y,1/2+z
x,-y,-z
-x,y,1/2-z
1/2+x,1/2+y,z
1/2-x,1/2-y,1/2+z
1/2+x,1/2-y,-z
1/2-x,1/2+y,1/2-z
loop_
_atom_site_type_symbol
_atom_site_label
_atom_site_fract_x
_atom_site_fract_y
_atom_site_fract_z
Si Si1 0.754146 0.304955 0.764274
Si Si2 0.396685 0.018438 0.154453
Si Si3 0.546805 0.155350 0.111089
Si Si4 0.678116 0.288284 0.002770
Si Si5 0.500000 0.521261 0.750000
Si Si6 0.128640 0.878331 0.615474
O O1 0.823903 0.378872 0.828234
O O2 0.716953 0.215826 0.881933
O O3 0.781992 0.246772 0.630684
O O4 0.687480 0.422237 0.716764
O O5 0.464007 0.115136 0.092225
O O6 0.426159 0.013705 0.291806
O O7 0.372112 0.167692 0.897872
O O8 0.548716 0.344426 0.176633
O O9 0.602286 0.191446 0.007002
O O10 0.672417 0.500000 0.000000
O O11 0.550072 0.414351 0.663527
O O12 0.140274 0.000000 0.500000
#
# Coordination Sequence:
#
# PCOD9320283 Si02
#       6
#     8   8   8   8   4   8
#     4  11  26  47  79 121 167 219 277 343 420 498
#     4   9  21  48  79 112 158 212 273 345 415 492
#     4   9  21  46  81 113 152 213 280 340 407 488
#     4  11  24  48  81 121 169 222 280 346 417 497
#     4  10  22  44  72 110 160 214 274 336 406 494
#     4  12  27  46  77 119 162 215 277 345 417 494
#
# _framework density 27.639165999999999
#
# number of rings (size 3 to 8) (size 9 to 14) (size 15 to 20)
#    0.000    1.818    0.000    3.273    0.000   12.364 
#    0.000   17.273    0.000    8.727    0.000    0.000 
#    0.000    0.000    0.000    0.000    0.000    0.000 
#
# Total GULP energy -123021.544195 kJ/mol
# GULP energy per Si atom -5591.888372 kJ/mol
# Density = 2.757626 g / cm^3
# Si number density = 27.639166 Si / 1000 Ang^3
#
#
#
# Elastic Constant Matrix: (Units=GPa)
#
#
# Indices 1 2 3 4 5 6 
#
# 1 211.7856 52.3346 101.2247 0.0000 0.0000 0.0000
# 2 52.3346 93.6871 43.7923 0.0000 0.0000 0.0000
# 3 101.2247 43.7923 190.4008 0.0000 0.0000 0.0000
# 4 0.0000 0.0000 0.0000 20.9681 0.0000 0.0000
# 5 0.0000 0.0000 0.0000 0.0000 48.4371 0.0000
# 6 0.0000 0.0000 0.0000 0.0000 0.0000 17.4097
#
#
#
# Elastic Compliance Matrix: (Units=1/GPa)
#
#
# Indices 1 2 3 4 5 6 
#
# 1 0.006762 -0.002350 -0.003055 0.000000 0.000000 0.000000
# 2 -0.002350 0.012776 -0.001689 0.000000 0.000000 0.000000
# 3 -0.003055 -0.001689 0.007265 0.000000 0.000000 0.000000
# 4 0.000000 0.000000 0.000000 0.047691 0.000000 0.000000
# 5 0.000000 0.000000 0.000000 0.000000 0.020645 0.000000
# 6 0.000000 0.000000 0.000000 0.000000 0.000000 0.057439
#
#
# Mechanical properties :
#
#
# Convention : Reuss Voigt Hill
#
# Bulk Modulus (GPa) = 79.26681 98.95295 89.10988
# Shear Modulus (GPa) = 29.24458 37.26444 33.25451
#
# Velocity S-wave (km/s) = 3.25635 3.67583 3.47243
# Velocity P-wave (km/s) = 6.54827 7.34133 6.95611
#
# Compressibility (1/GPa) = 0.01261562
#
# Stress axis : x y z
#
# Youngs Moduli (GPa) = 147.87577 78.27171 137.65291
#
# Poissons Ratio (x) = 0.18391 0.42050
# Poissons Ratio (y) = 0.34746 0.23254
# Poissons Ratio (z) = 0.45172 0.13222
#
# Static dielectric constant tensor:
#      x y z
#    x 2.138220 0.000000 0.000000 
#    y 0.000000 2.228760 0.000000 
#    z 0.000000 0.000000 2.222000 
# 
# From -- ./inp_files/15670.got.cif
#   From: 2010.05.17/outbox.cif.g08.bks.cpg/sg20_8_cif.got.tgz:15670.got - 2010.06.03 22:52:26.
