data_PCOD9320875
_publ_section_title
;
Structure prediction by ZEFSAII (Michael W. Deem and Ramdas Pophale) SiO2 
 PCOD9320875
Probable space group: C 2 2 21
;
_chemical_formula_sum "Si O2"
_cell_formula_units_Z 36
_cell_length_a 7.569287
_cell_length_b 11.757380
_cell_length_c 21.035736
_cell_angle_alpha 90.000000
_cell_angle_beta 90.000000
_cell_angle_gamma 90.000000
_cell_volume 1872.074980
_symmetry_space_group_name_H-M "C 2 2 21"
_symmetry_group_IT_number 20
_symmetry_cell_setting 'orthorhombic'
loop_
_space_group_symop_operation_xyz
x,y,z
-x,-y,1/2+z
x,-y,-z
-x,y,1/2-z
1/2+x,1/2+y,z
1/2-x,1/2-y,1/2+z
1/2+x,1/2-y,-z
1/2-x,1/2+y,1/2-z
loop_
_atom_site_type_symbol
_atom_site_label
_atom_site_fract_x
_atom_site_fract_y
_atom_site_fract_z
Si Si1 0.000000 0.303053 0.250000
Si Si2 0.335284 0.874799 0.528890
Si Si3 0.795533 0.294212 0.919594
Si Si4 0.138104 0.124840 0.696523
Si Si5 0.551526 0.620570 0.359900
O O1 0.166529 0.375342 0.226767
O O2 0.056295 0.220412 0.307733
O O3 0.289929 0.782872 0.474852
O O4 0.534301 0.858055 0.553381
O O5 0.199263 0.860307 0.586760
O O6 0.312263 0.000000 0.500000
O O7 0.856261 0.211023 0.862631
O O8 0.641706 0.374315 0.892111
O O9 0.000000 0.163426 0.750000
O O10 0.084594 0.000320 0.672744
#
# Coordination Sequence:
#
# PCOD9320875 Si02
#       5
#     4   8   8   8   8
#     4  10  24  44  66  98 130 166 218 270 326 390
#     4  12  24  41  64  95 128 172 219 267 325 387
#     4  11  25  42  66  94 132 172 215 273 324 384
#     4  11  23  44  68  95 134 171 214 273 328 389
#     4  11  23  44  67  96 130 171 220 265 329 388
#
# _framework density 19.229998999999999
#
# number of rings (size 3 to 8) (size 9 to 14) (size 15 to 20)
#    0.000    0.889    5.556    1.333    0.000    4.444 
#    2.000    0.000    0.000    0.000    0.000    0.000 
#    0.000    0.000    0.000    0.000    0.000    0.000 
#
# Total GULP energy -100690.471074 kJ/mol
# GULP energy per Si atom -5593.915060 kJ/mol
# Density = 1.918623 g / cm^3
# Si number density = 19.229999 Si / 1000 Ang^3
#
#
#
# Elastic Constant Matrix: (Units=GPa)
#
#
# Indices 1 2 3 4 5 6 
#
# 1 145.1660 68.1718 80.7808 0.0000 0.0000 0.0000
# 2 68.1718 72.8502 41.4156 0.0000 0.0000 0.0000
# 3 80.7808 41.4156 130.0355 0.0000 0.0000 0.0000
# 4 0.0000 0.0000 0.0000 2.2554 0.0000 0.0000
# 5 0.0000 0.0000 0.0000 0.0000 50.8995 0.0000
# 6 0.0000 0.0000 0.0000 0.0000 0.0000 27.2334
#
#
#
# Elastic Compliance Matrix: (Units=1/GPa)
#
#
# Indices 1 2 3 4 5 6 
#
# 1 0.015435 -0.010981 -0.006091 0.000000 0.000000 0.000000
# 2 -0.010981 0.024574 -0.001005 0.000000 0.000000 0.000000
# 3 -0.006091 -0.001005 0.011794 0.000000 0.000000 0.000000
# 4 0.000000 0.000000 0.000000 0.443388 0.000000 0.000000
# 5 0.000000 0.000000 0.000000 0.000000 0.019647 0.000000
# 6 0.000000 0.000000 0.000000 0.000000 0.000000 0.036720
#
#
# Mechanical properties :
#
#
# Convention : Reuss Voigt Hill
#
# Bulk Modulus (GPa) = 63.90249 80.97643 72.43946
# Shear Modulus (GPa) = 8.43272 26.58988 17.51130
#
# Velocity S-wave (km/s) = 2.09636 3.72254 3.02093
# Velocity P-wave (km/s) = 6.25799 7.78956 7.06540
#
# Compressibility (1/GPa) = 0.01564884
#
# Stress axis : x y z
#
# Youngs Moduli (GPa) = 64.78769 40.69359 84.78672
#
# Poissons Ratio (x) = 0.44685 0.51645
# Poissons Ratio (y) = 0.71143 0.08522
# Poissons Ratio (z) = 0.39464 0.04090
#
# Static dielectric constant tensor:
#      x y z
#    x 1.643810 0.000000 0.000000 
#    y 0.000000 1.625470 0.000000 
#    z 0.000000 0.000000 1.664570 
# 
# From -- ./inp_files/26398.got.cif
#   From: 2010.05.17/outbox.cif.g08.bks.cpg/sg20_14_cif.got.tgz:26398.got - 2010.06.03 22:52:26.
