data_PCOD9320435
_publ_section_title
;
Structure prediction by ZEFSAII (Michael W. Deem and Ramdas Pophale) SiO2 
 PCOD9320435
Probable space group: C 2 2 21
;
_chemical_formula_sum "Si O2"
_cell_formula_units_Z 52
_cell_length_a 26.054217
_cell_length_b 12.965417
_cell_length_c 7.491875
_cell_angle_alpha 90.000000
_cell_angle_beta 90.000000
_cell_angle_gamma 90.000000
_cell_volume 2530.783754
_symmetry_space_group_name_H-M "C 2 2 21"
_symmetry_group_IT_number 20
_symmetry_cell_setting 'orthorhombic'
loop_
_space_group_symop_operation_xyz
x,y,z
-x,-y,1/2+z
x,-y,-z
-x,y,1/2-z
1/2+x,1/2+y,z
1/2-x,1/2-y,1/2+z
1/2+x,1/2-y,-z
1/2-x,1/2+y,1/2-z
loop_
_atom_site_type_symbol
_atom_site_label
_atom_site_fract_x
_atom_site_fract_y
_atom_site_fract_z
Si Si1 0.410080 0.778386 0.569994
Si Si2 0.303945 0.491689 0.207441
Si Si3 0.802811 0.427749 0.168030
Si Si4 0.399210 0.356974 0.106503
Si Si5 0.126852 0.500000 0.000000
Si Si6 0.158703 0.206204 0.254542
Si Si7 0.490581 0.609390 0.461572
O O1 0.397869 0.744106 0.770915
O O2 0.368330 0.737423 0.428257
O O3 0.460208 0.711668 0.519708
O O4 0.408169 0.900926 0.546176
O O5 0.258087 0.432697 0.300062
O O6 0.359510 0.436137 0.200691
O O7 0.306187 0.607416 0.281158
O O8 0.289164 0.500000 0.000000
O O9 0.835916 0.471949 0.334447
O O10 0.816197 0.307116 0.159387
O O11 0.815430 0.500000 0.000000
O O12 0.379875 0.334125 0.907234
O O13 0.457099 0.395185 0.077845
O O14 0.462555 0.500000 0.500000
O O15 0.500000 0.616168 0.250000
#
# Coordination Sequence:
#
# PCOD9320435 Si02
#       7
#     8   8   8   8   4   8   8
#     4  11  24  41  71  91 133 175 213 273 334 391
#     4  10  23  40  61  93 135 167 215 274 327 395
#     4  11  23  41  65  93 129 177 224 267 327 397
#     4  11  23  43  65  99 131 169 217 276 334 393
#     4  10  24  48  62  98 132 174 228 274 320 400
#     4  10  23  40  63  93 131 170 215 276 327 390
#     4  12  24  42  68 101 135 168 218 275 341 404
#
# _framework density 20.546994999999999
#
# number of rings (size 3 to 8) (size 9 to 14) (size 15 to 20)
#    0.000    1.231    2.308    3.692    4.308    3.692 
#    0.000    1.538    1.692    0.000    0.000    0.000 
#    0.000    0.000    0.000    0.000    0.000    0.000 
#
# Total GULP energy -145211.783804 kJ/mol
# GULP energy per Si atom -5585.068608 kJ/mol
# Density = 2.050023 g / cm^3
# Si number density = 20.546995 Si / 1000 Ang^3
#
#
#
# Elastic Constant Matrix: (Units=GPa)
#
#
# Indices 1 2 3 4 5 6 
#
# 1 85.0632 52.6322 8.8673 0.0000 0.0000 0.0000
# 2 52.6322 139.0111 2.4259 0.0000 0.0000 0.0000
# 3 8.8673 2.4259 58.5227 0.0000 0.0000 0.0000
# 4 0.0000 0.0000 0.0000 32.4643 0.0000 0.0000
# 5 0.0000 0.0000 0.0000 0.0000 17.1974 0.0000
# 6 0.0000 0.0000 0.0000 0.0000 0.0000 24.7701
#
#
#
# Elastic Compliance Matrix: (Units=1/GPa)
#
#
# Indices 1 2 3 4 5 6 
#
# 1 0.015612 -0.005874 -0.002122 0.000000 0.000000 0.000000
# 2 -0.005874 0.009409 0.000500 0.000000 0.000000 0.000000
# 3 -0.002122 0.000500 0.017388 0.000000 0.000000 0.000000
# 4 0.000000 0.000000 0.000000 0.030803 0.000000 0.000000
# 5 0.000000 0.000000 0.000000 0.000000 0.058148 0.000000
# 6 0.000000 0.000000 0.000000 0.000000 0.000000 0.040371
#
#
# Mechanical properties :
#
#
# Convention : Reuss Voigt Hill
#
# Bulk Modulus (GPa) = 36.47370 45.60533 41.03952
# Shear Modulus (GPa) = 25.52820 29.46445 27.49633
#
# Velocity S-wave (km/s) = 3.52864 3.79093 3.66213
# Velocity P-wave (km/s) = 5.86443 6.43470 6.15617
#
# Compressibility (1/GPa) = 0.02741701
#
# Stress axis : x y z
#
# Youngs Moduli (GPa) = 64.05519 106.28268 57.51034
#
# Poissons Ratio (x) = 0.62428 0.12203
# Poissons Ratio (y) = 0.37625 -0.02875
# Poissons Ratio (z) = 0.13592 -0.05314
#
# Static dielectric constant tensor:
#      x y z
#    x 1.749090 0.000000 0.000000 
#    y 0.000000 1.725330 0.000000 
#    z 0.000000 0.000000 1.741700 
# 
# From -- ./inp_files/11087.got.cif
#   From: 2010.05.17/outbox.cif.g08.bks.cpg/sg20_6_cif.got.tgz:11087.got - 2010.06.03 22:52:26.
