data_PCOD9320313
_publ_section_title
;
Structure prediction by ZEFSAII (Michael W. Deem and Ramdas Pophale) SiO2 
 PCOD9320313
Probable space group: C 2 2 21
;
_chemical_formula_sum "Si O2"
_cell_formula_units_Z 40
_cell_length_a 7.794842
_cell_length_b 21.799403
_cell_length_c 11.812734
_cell_angle_alpha 90.000000
_cell_angle_beta 90.000000
_cell_angle_gamma 90.000000
_cell_volume 2007.254043
_symmetry_space_group_name_H-M "C 2 2 21"
_symmetry_group_IT_number 20
_symmetry_cell_setting 'orthorhombic'
loop_
_space_group_symop_operation_xyz
x,y,z
-x,-y,1/2+z
x,-y,-z
-x,y,1/2-z
1/2+x,1/2+y,z
1/2-x,1/2-y,1/2+z
1/2+x,1/2-y,-z
1/2-x,1/2+y,1/2-z
loop_
_atom_site_type_symbol
_atom_site_label
_atom_site_fract_x
_atom_site_fract_y
_atom_site_fract_z
Si Si1 0.500000 0.625800 0.250000
Si Si2 0.920595 0.762511 0.592255
Si Si3 0.663982 0.055121 0.163918
Si Si4 0.434489 0.307952 0.123868
Si Si5 0.500000 0.833159 0.250000
Si Si6 0.219117 0.416253 0.086176
O O1 0.551874 0.672242 0.150002
O O2 0.331638 0.586965 0.217642
O O3 0.739171 0.732143 0.619669
O O4 0.054054 0.714605 0.650886
O O5 0.942250 0.771853 0.460227
O O6 0.500000 0.056713 0.250000
O O7 0.718524 0.985730 0.129937
O O8 0.632470 0.085369 0.038910
O O9 0.500000 0.312074 0.250000
O O10 0.393977 0.376819 0.078297
O O11 0.624942 0.878618 0.184754
#
# Coordination Sequence:
#
# PCOD9320313 Si02
#       6
#     4   8   8   8   4   8
#     4  11  24  44  62 102 140 175 234 292 332 417
#     4  10  24  42  66 100 136 176 232 284 350 411
#     4  11  24  45  72 103 139 185 231 290 346 411
#     4  11  25  43  69  99 139 186 227 290 353 416
#     4   9  20  40  68  90 134 171 220 278 332 411
#     4  10  22  45  68  99 138 179 234 278 345 418
#
# _framework density 19.927723
#
# number of rings (size 3 to 8) (size 9 to 14) (size 15 to 20)
#    0.000    1.600    3.000    0.000    9.800    4.000 
#    0.000    4.000    0.000    0.000    0.000    0.000 
#    0.000    0.000    0.000    0.000    0.000    0.000 
#
# Total GULP energy -111372.027046 kJ/mol
# GULP energy per Si atom -5568.601352 kJ/mol
# Density = 1.988237 g / cm^3
# Si number density = 19.927723 Si / 1000 Ang^3
#
#
#
# Elastic Constant Matrix: (Units=GPa)
#
#
# Indices 1 2 3 4 5 6 
#
# 1 89.8196 47.7741 37.7525 0.0000 0.0000 0.0000
# 2 47.7741 108.7915 45.0505 0.0000 0.0000 0.0000
# 3 37.7525 45.0505 115.3974 0.0000 0.0000 0.0000
# 4 0.0000 0.0000 0.0000 7.8819 0.0000 0.0000
# 5 0.0000 0.0000 0.0000 0.0000 39.7816 0.0000
# 6 0.0000 0.0000 0.0000 0.0000 0.0000 13.5095
#
#
#
# Elastic Compliance Matrix: (Units=1/GPa)
#
#
# Indices 1 2 3 4 5 6 
#
# 1 0.015267 -0.005530 -0.002836 0.000000 0.000000 0.000000
# 2 -0.005530 0.012967 -0.003253 0.000000 0.000000 0.000000
# 3 -0.002836 -0.003253 0.010863 0.000000 0.000000 0.000000
# 4 0.000000 0.000000 0.000000 0.126874 0.000000 0.000000
# 5 0.000000 0.000000 0.000000 0.000000 0.025137 0.000000
# 6 0.000000 0.000000 0.000000 0.000000 0.000000 0.074022
#
#
# Mechanical properties :
#
#
# Convention : Reuss Voigt Hill
#
# Bulk Modulus (GPa) = 63.05235 63.90696 63.47965
# Shear Modulus (GPa) = 17.02680 24.46336 20.74508
#
# Velocity S-wave (km/s) = 2.92623 3.50752 3.22998
# Velocity P-wave (km/s) = 6.56706 6.96725 6.77011
#
# Compressibility (1/GPa) = 0.01585984
#
# Stress axis : x y z
#
# Youngs Moduli (GPa) = 65.50271 77.11634 92.05155
#
# Poissons Ratio (x) = 0.42644 0.26103
# Poissons Ratio (y) = 0.36222 0.29947
# Poissons Ratio (z) = 0.18574 0.25088
#
# Static dielectric constant tensor:
#      x y z
#    x 1.781890 0.000000 0.000000 
#    y 0.000000 1.713120 0.000000 
#    z 0.000000 0.000000 1.744760 
# 
# From -- ./inp_files/12930.got.cif
#   From: 2010.05.17/outbox.cif.g08.bks.cpg/sg20_7_cif.got.tgz:12930.got - 2010.06.03 22:52:26.
