data_PCOD9320406
_publ_section_title
;
Structure prediction by ZEFSAII (Michael W. Deem and Ramdas Pophale) SiO2 
 PCOD9320406
Probable space group: C 2 2 21
;
_chemical_formula_sum "Si O2"
_cell_formula_units_Z 40
_cell_length_a 18.018443
_cell_length_b 7.966037
_cell_length_c 11.197505
_cell_angle_alpha 90.000000
_cell_angle_beta 90.000000
_cell_angle_gamma 90.000000
_cell_volume 1607.240415
_symmetry_space_group_name_H-M "C 2 2 21"
_symmetry_group_IT_number 20
_symmetry_cell_setting 'orthorhombic'
loop_
_space_group_symop_operation_xyz
x,y,z
-x,-y,1/2+z
x,-y,-z
-x,y,1/2-z
1/2+x,1/2+y,z
1/2-x,1/2-y,1/2+z
1/2+x,1/2-y,-z
1/2-x,1/2+y,1/2-z
loop_
_atom_site_type_symbol
_atom_site_label
_atom_site_fract_x
_atom_site_fract_y
_atom_site_fract_z
Si Si1 0.211503 0.689090 0.849590
Si Si2 0.000000 0.114574 0.250000
Si Si3 0.436473 0.314641 0.128451
Si Si4 0.834657 0.468973 0.858709
Si Si5 0.062309 0.695260 0.976093
Si Si6 0.322233 0.500000 0.000000
O O1 0.174550 0.629697 0.726094
O O2 0.262255 0.852348 0.841607
O O3 0.149539 0.715901 0.951834
O O4 0.265959 0.538431 0.892409
O O5 0.974792 0.230790 0.357483
O O6 0.936494 0.983524 0.206080
O O7 0.404078 0.145405 0.184550
O O8 0.380468 0.348890 0.018143
O O9 0.519576 0.292529 0.080736
O O10 0.842794 0.500000 0.000000
O O11 0.047771 0.500000 0.000000
#
# Coordination Sequence:
#
# PCOD9320406 Si02
#       6
#     8   4   8   8   8   4
#     4  11  28  47  82 111 164 203 272 323 407 474
#     4  12  28  46  82 106 156 218 258 330 406 470
#     4  11  26  50  77 108 161 203 274 311 406 478
#     4  11  29  50  81 115 160 215 261 335 404 488
#     4  12  28  46  74 123 155 202 269 338 386 485
#     4  10  22  52  70 112 150 208 250 326 398 478
#
# _framework density 24.887374999999999
#
# number of rings (size 3 to 8) (size 9 to 14) (size 15 to 20)
#    0.000    0.800    3.000    0.600   19.600    1.600 
#    0.000    0.000    0.000    0.000    0.000    0.000 
#    0.000    0.000    0.000    0.000    0.000    0.000 
#
# Total GULP energy -111780.591391 kJ/mol
# GULP energy per Si atom -5589.029570 kJ/mol
# Density = 2.483073 g / cm^3
# Si number density = 24.887375 Si / 1000 Ang^3
#
#
#
# Elastic Constant Matrix: (Units=GPa)
#
#
# Indices 1 2 3 4 5 6 
#
# 1 133.3086 27.0375 39.0236 0.0000 0.0000 0.0000
# 2 27.0375 92.6716 39.8245 0.0000 0.0000 0.0000
# 3 39.0236 39.8245 69.8272 0.0000 0.0000 0.0000
# 4 0.0000 0.0000 0.0000 48.1296 0.0000 0.0000
# 5 0.0000 0.0000 0.0000 0.0000 32.8829 0.0000
# 6 0.0000 0.0000 0.0000 0.0000 0.0000 47.2213
#
#
#
# Elastic Compliance Matrix: (Units=1/GPa)
#
#
# Indices 1 2 3 4 5 6 
#
# 1 0.008995 -0.000615 -0.004676 0.000000 0.000000 0.000000
# 2 -0.000615 0.014336 -0.007833 0.000000 0.000000 0.000000
# 3 -0.004676 -0.007833 0.021402 0.000000 0.000000 0.000000
# 4 0.000000 0.000000 0.000000 0.020777 0.000000 0.000000
# 5 0.000000 0.000000 0.000000 0.000000 0.030411 0.000000
# 6 0.000000 0.000000 0.000000 0.000000 0.000000 0.021177
#
#
# Mechanical properties :
#
#
# Convention : Reuss Voigt Hill
#
# Bulk Modulus (GPa) = 54.09736 56.39764 55.24750
# Shear Modulus (GPa) = 33.44314 38.30821 35.87568
#
# Velocity S-wave (km/s) = 3.66974 3.92760 3.80086
# Velocity P-wave (km/s) = 6.30397 6.57863 6.44276
#
# Compressibility (1/GPa) = 0.01848519
#
# Stress axis : x y z
#
# Youngs Moduli (GPa) = 111.17310 69.75349 46.72514
#
# Poissons Ratio (x) = 0.04288 0.21850
# Poissons Ratio (y) = 0.06834 0.36599
# Poissons Ratio (z) = 0.51988 0.54637
#
# Static dielectric constant tensor:
#      x y z
#    x 1.995490 0.000000 0.000000 
#    y 0.000000 1.968250 0.000000 
#    z 0.000000 0.000000 1.993980 
# 
# From -- ./inp_files/15588.got.cif
#   From: 2010.05.17/outbox.cif.g08.bks.cpg/sg20_8_cif.got.tgz:15588.got - 2010.06.03 22:52:26.
