data_PCOD9320098
_publ_section_title
;
Structure prediction by ZEFSAII (Michael W. Deem and Ramdas Pophale) SiO2 
 PCOD9320098
Probable space group: C 2 2 21
;
_chemical_formula_sum "Si O2"
_cell_formula_units_Z 56
_cell_length_a 13.077905
_cell_length_b 13.875513
_cell_length_c 14.424775
_cell_angle_alpha 90.000000
_cell_angle_beta 90.000000
_cell_angle_gamma 90.000000
_cell_volume 2617.557765
_symmetry_space_group_name_H-M "C 2 2 21"
_symmetry_group_IT_number 20
_symmetry_cell_setting 'orthorhombic'
loop_
_space_group_symop_operation_xyz
x,y,z
-x,-y,1/2+z
x,-y,-z
-x,y,1/2-z
1/2+x,1/2+y,z
1/2-x,1/2-y,1/2+z
1/2+x,1/2-y,-z
1/2-x,1/2+y,1/2-z
loop_
_atom_site_type_symbol
_atom_site_label
_atom_site_fract_x
_atom_site_fract_y
_atom_site_fract_z
Si Si1 0.000000 0.198450 0.250000
Si Si2 0.956603 0.463490 0.603748
Si Si3 0.383666 0.797938 0.937300
Si Si4 0.394336 0.427344 0.078564
Si Si5 0.690810 0.617254 0.143164
Si Si6 0.585643 0.500000 0.000000
Si Si7 0.224947 0.537712 0.772630
Si Si8 0.900204 0.642642 0.858937
O O1 0.899376 0.143731 0.285428
O O2 0.971226 0.266920 0.163955
O O3 0.930129 0.500000 0.500000
O O4 0.856508 0.475162 0.667415
O O5 0.018889 0.362223 0.597973
O O6 0.035534 0.544109 0.640237
O O7 0.402307 0.684426 0.948257
O O8 0.284608 0.810176 0.872115
O O9 0.357762 0.841828 0.038553
O O10 0.510186 0.466069 0.082747
O O11 0.322978 0.438823 0.166344
O O12 0.349801 0.500000 0.000000
O O13 0.646096 0.588290 0.043212
O O14 0.742753 0.522008 0.183288
O O15 0.173922 0.632568 0.728925
#
# Coordination Sequence:
#
# PCOD9320098 Si02
#       8
#     4   8   8   8   8   4   8   8
#     4  12  24  42  64 102 130 186 228 276 338 406
#     4  10  22  42  68  98 136 172 216 286 343 401
#     4  11  24  44  71 101 132 182 232 270 341 411
#     4  10  25  48  66  96 138 181 228 276 335 407
#     4  12  25  41  72  98 134 183 231 278 334 413
#     4  10  24  50  62  90 142 184 220 278 342 406
#     4  12  22  43  70 103 137 172 226 289 338 391
#     4  11  22  41  70  96 137 175 220 279 336 401
#
# _framework density 21.393989000000001
#
# number of rings (size 3 to 8) (size 9 to 14) (size 15 to 20)
#    0.429    0.571    2.857    3.857    3.000    0.000 
#    2.571    4.286    0.000    0.000    0.000    0.000 
#    0.000    0.000    0.000    0.000    0.000    0.000 
#
# Total GULP energy -156215.175882 kJ/mol
# GULP energy per Si atom -5579.113424 kJ/mol
# Density = 2.134530 g / cm^3
# Si number density = 21.393989 Si / 1000 Ang^3
#
#
#
# Elastic Constant Matrix: (Units=GPa)
#
#
# Indices 1 2 3 4 5 6 
#
# 1 88.4215 21.1934 16.1142 0.0000 0.0000 0.0000
# 2 21.1934 86.2673 -10.9549 0.0000 0.0000 0.0000
# 3 16.1142 -10.9549 50.5866 0.0000 0.0000 0.0000
# 4 0.0000 0.0000 0.0000 26.5080 0.0000 0.0000
# 5 0.0000 0.0000 0.0000 0.0000 39.0963 0.0000
# 6 0.0000 0.0000 0.0000 0.0000 0.0000 23.9439
#
#
#
# Elastic Compliance Matrix: (Units=1/GPa)
#
#
# Indices 1 2 3 4 5 6 
#
# 1 0.013153 -0.003870 -0.005028 0.000000 0.000000 0.000000
# 2 -0.003870 0.013058 0.004061 0.000000 0.000000 0.000000
# 3 -0.005028 0.004061 0.022249 0.000000 0.000000 0.000000
# 4 0.000000 0.000000 0.000000 0.037724 0.000000 0.000000
# 5 0.000000 0.000000 0.000000 0.000000 0.025578 0.000000
# 6 0.000000 0.000000 0.000000 0.000000 0.000000 0.041764
#
#
# Mechanical properties :
#
#
# Convention : Reuss Voigt Hill
#
# Bulk Modulus (GPa) = 25.78243 30.88674 28.33459
# Shear Modulus (GPa) = 28.38803 31.17116 29.77959
#
# Velocity S-wave (km/s) = 3.64664 3.82122 3.73495
# Velocity P-wave (km/s) = 5.45967 5.82558 5.64559
#
# Compressibility (1/GPa) = 0.03878610
#
# Stress axis : x y z
#
# Youngs Moduli (GPa) = 76.02634 76.57999 44.94565
#
# Poissons Ratio (x) = 0.29636 0.22599
# Poissons Ratio (y) = 0.29421 -0.18251
# Poissons Ratio (z) = 0.38226 -0.31096
#
# Static dielectric constant tensor:
#      x y z
#    x 1.790440 0.000000 0.000000 
#    y 0.000000 1.762790 0.000000 
#    z 0.000000 0.000000 1.794440 
# 
# From -- ./inp_files/20779.got.cif
#   From: 2010.05.17/outbox.cif.g08.bks.cpg/sg20_11_cif.got.tgz:20779.got - 2010.06.03 22:52:26.
