data_PCOD9320627
_publ_section_title
;
Structure prediction by ZEFSAII (Michael W. Deem and Ramdas Pophale) SiO2 
 PCOD9320627
Probable space group: C 2 2 21
;
_chemical_formula_sum "Si O2"
_cell_formula_units_Z 48
_cell_length_a 11.222865
_cell_length_b 14.454007
_cell_length_c 15.784325
_cell_angle_alpha 90.000000
_cell_angle_beta 90.000000
_cell_angle_gamma 90.000000
_cell_volume 2560.460109
_symmetry_space_group_name_H-M "C 2 2 21"
_symmetry_group_IT_number 20
_symmetry_cell_setting 'orthorhombic'
loop_
_space_group_symop_operation_xyz
x,y,z
-x,-y,1/2+z
x,-y,-z
-x,y,1/2-z
1/2+x,1/2+y,z
1/2-x,1/2-y,1/2+z
1/2+x,1/2-y,-z
1/2-x,1/2+y,1/2-z
loop_
_atom_site_type_symbol
_atom_site_label
_atom_site_fract_x
_atom_site_fract_y
_atom_site_fract_z
Si Si1 0.325043 0.365854 0.972527
Si Si2 0.254577 0.161652 0.933008
Si Si3 0.876892 0.040275 0.703383
Si Si4 0.012826 0.655560 0.851426
Si Si5 0.093282 0.858742 0.909499
Si Si6 0.234687 0.541585 0.872654
O O1 0.264064 0.272330 0.940589
O O2 0.465603 0.373102 0.954923
O O3 0.262943 0.446992 0.919937
O O4 0.305037 0.382056 0.071912
O O5 0.165702 0.115223 0.865380
O O6 0.388646 0.140414 0.900843
O O7 0.202275 0.131903 0.024396
O O8 0.779117 0.036432 0.777151
O O9 0.000000 0.064564 0.750000
O O10 0.892667 0.939591 0.659786
O O11 0.075851 0.754116 0.874504
O O12 0.099401 0.572635 0.876217
O O13 0.000000 0.656357 0.750000
#
# Coordination Sequence:
#
# PCOD9320627 Si02
#       6
#     8   8   8   8   8   8
#     4  10  23  44  67  91 134 174 220 274 327 392
#     4  11  24  42  67  97 132 171 225 269 331 395
#     4  12  23  39  69 100 131 166 224 281 320 387
#     4  11  23  44  66  93 139 176 212 274 340 394
#     4  11  23  42  67  99 128 175 222 272 327 389
#     4  11  22  42  66  94 129 173 218 263 335 392
#
# _framework density 18.74663
#
# number of rings (size 3 to 8) (size 9 to 14) (size 15 to 20)
#    0.000    1.000    5.000    2.000    4.667    0.000 
#    6.000    0.833    0.000    0.000    0.000    0.000 
#    0.000    0.000    0.000    0.000    0.000    0.000 
#
# Total GULP energy -133886.902627 kJ/mol
# GULP energy per Si atom -5578.620943 kJ/mol
# Density = 1.870396 g / cm^3
# Si number density = 18.746630 Si / 1000 Ang^3
#
#
#
# Elastic Constant Matrix: (Units=GPa)
#
#
# Indices 1 2 3 4 5 6 
#
# 1 92.4562 49.4524 32.4659 0.0000 0.0000 0.0000
# 2 49.4524 63.7271 18.5601 0.0000 0.0000 0.0000
# 3 32.4659 18.5601 74.6724 0.0000 0.0000 0.0000
# 4 0.0000 0.0000 0.0000 27.7823 0.0000 0.0000
# 5 0.0000 0.0000 0.0000 0.0000 35.4266 0.0000
# 6 0.0000 0.0000 0.0000 0.0000 0.0000 15.5910
#
#
#
# Elastic Compliance Matrix: (Units=1/GPa)
#
#
# Indices 1 2 3 4 5 6 
#
# 1 0.020255 -0.014180 -0.005282 0.000000 0.000000 0.000000
# 2 -0.014180 0.026843 -0.000507 0.000000 0.000000 0.000000
# 3 -0.005282 -0.000507 0.015814 0.000000 0.000000 0.000000
# 4 0.000000 0.000000 0.000000 0.035994 0.000000 0.000000
# 5 0.000000 0.000000 0.000000 0.000000 0.028227 0.000000
# 6 0.000000 0.000000 0.000000 0.000000 0.000000 0.064140
#
#
# Mechanical properties :
#
#
# Convention : Reuss Voigt Hill
#
# Bulk Modulus (GPa) = 43.52523 47.97915 45.75219
# Shear Modulus (GPa) = 20.93198 24.45180 22.69189
#
# Velocity S-wave (km/s) = 3.34514 3.61547 3.48293
# Velocity P-wave (km/s) = 6.17964 6.56337 6.37440
#
# Compressibility (1/GPa) = 0.02297518
#
# Stress axis : x y z
#
# Youngs Moduli (GPa) = 49.37051 37.25375 63.23367
#
# Poissons Ratio (x) = 0.52824 0.33400
# Poissons Ratio (y) = 0.70005 0.03206
# Poissons Ratio (z) = 0.26078 0.01889
#
# Static dielectric constant tensor:
#      x y z
#    x 1.650170 0.000000 0.000000 
#    y 0.000000 1.646580 0.000000 
#    z 0.000000 0.000000 1.680340 
# 
# From -- ./inp_files/19916.got.cif
#   From: 2010.05.17/outbox.cif.g08.bks.cpg/sg20_10_cif.got.tgz:19916.got - 2010.06.03 22:52:26.
