data_PCOD9320332
_publ_section_title
;
Structure prediction by ZEFSAII (Michael W. Deem and Ramdas Pophale) SiO2 
 PCOD9320332
Probable space group: C 2 2 21
;
_chemical_formula_sum "Si O2"
_cell_formula_units_Z 40
_cell_length_a 21.097813
_cell_length_b 7.963843
_cell_length_c 9.756292
_cell_angle_alpha 90.000000
_cell_angle_beta 90.000000
_cell_angle_gamma 90.000000
_cell_volume 1639.248966
_symmetry_space_group_name_H-M "C 2 2 21"
_symmetry_group_IT_number 20
_symmetry_cell_setting 'orthorhombic'
loop_
_space_group_symop_operation_xyz
x,y,z
-x,-y,1/2+z
x,-y,-z
-x,y,1/2-z
1/2+x,1/2+y,z
1/2-x,1/2-y,1/2+z
1/2+x,1/2-y,-z
1/2-x,1/2+y,1/2-z
loop_
_atom_site_type_symbol
_atom_site_label
_atom_site_fract_x
_atom_site_fract_y
_atom_site_fract_z
Si Si1 0.963618 0.185973 0.113881
Si Si2 0.616208 0.877776 0.799839
Si Si3 0.792993 0.804051 0.515355
Si Si4 0.173350 0.309931 0.324432
Si Si5 0.000000 0.134849 0.750000
Si Si6 0.021622 0.500000 0.000000
O O1 0.888714 0.201757 0.139568
O O2 0.982008 0.328915 0.003216
O O3 0.000000 0.249473 0.250000
O O4 0.987082 0.994046 0.125858
O O5 0.662062 0.803250 0.915314
O O6 0.566068 0.734328 0.760617
O O7 0.653262 0.992949 0.691144
O O8 0.569035 0.005649 0.873765
O O9 0.799686 0.745171 0.673695
O O10 0.724445 0.786517 0.444043
O O11 0.811305 0.000000 0.500000
#
# Coordination Sequence:
#
# PCOD9320332 Si02
#       6
#     8   8   8   8   4   4
#     4  10  22  45  73 113 153 190 261 322 400 475
#     4  12  22  44  73 109 155 204 254 324 408 476
#     4  12  27  45  78 104 154 208 263 328 397 472
#     4  12  25  51  74 115 153 209 266 327 402 486
#     4  10  24  42  74 114 154 202 260 322 402 486
#     4  12  22  40  82 108 148 202 254 336 412 460
#
# _framework density 24.401419000000001
#
# number of rings (size 3 to 8) (size 9 to 14) (size 15 to 20)
#    0.600    0.000    4.000    3.600    4.200    0.000 
#    3.600    2.000    4.400    0.000    0.000    0.000 
#    0.000    0.000    0.000    0.000    0.000    0.000 
#
# Total GULP energy -111689.097605 kJ/mol
# GULP energy per Si atom -5584.454880 kJ/mol
# Density = 2.434588 g / cm^3
# Si number density = 24.401419 Si / 1000 Ang^3
#
#
#
# Elastic Constant Matrix: (Units=GPa)
#
#
# Indices 1 2 3 4 5 6 
#
# 1 152.7786 55.8144 53.0978 0.0000 0.0000 0.0000
# 2 55.8144 129.5620 -2.3112 0.0000 0.0000 0.0000
# 3 53.0978 -2.3112 57.8648 0.0000 0.0000 0.0000
# 4 0.0000 0.0000 0.0000 0.2164 0.0000 0.0000
# 5 0.0000 0.0000 0.0000 0.0000 -20.4653 0.0000
# 6 0.0000 0.0000 0.0000 0.0000 0.0000 -53.4999
#
#
#
# Elastic Compliance Matrix: (Units=1/GPa)
#
#
# Indices 1 2 3 4 5 6 
#
# 1 0.012799 -0.005727 -0.011973 0.000000 0.000000 0.000000
# 2 -0.005727 0.010287 0.005666 0.000000 0.000000 0.000000
# 3 -0.011973 0.005666 0.028495 0.000000 0.000000 0.000000
# 4 0.000000 0.000000 0.000000 4.621462 0.000000 0.000000
# 5 0.000000 0.000000 0.000000 0.000000 -0.048863 0.000000
# 6 0.000000 0.000000 0.000000 0.000000 0.000000 -0.018692
#
#
# Mechanical properties :
#
#
# Convention : Reuss Voigt Hill
#
# Bulk Modulus (GPa) = 36.34778 61.48975 48.91876
# Shear Modulus (GPa) = 1.07788 0.82385 0.95087
#
# Velocity S-wave (km/s) = 0.66535 0.58169 0.62492
# Velocity P-wave (km/s) = 3.93933 5.07002 4.54001
#
# Compressibility (1/GPa) = 0.02751200
#
# Stress axis : x y z
#
# Youngs Moduli (GPa) = 78.13017 97.21283 35.09379
#
# Poissons Ratio (x) = 0.55677 0.42020
# Poissons Ratio (y) = 0.44748 -0.19886
# Poissons Ratio (z) = 0.93549 -0.55085
#
# Static dielectric constant tensor:
#      x y z
#    x 1.919630 0.000000 0.000000 
#    y 0.000000 2.027070 0.000000 
#    z 0.000000 0.000000 2.899590 
# 
# From -- ./inp_files/15583.got.cif
#   From: 2010.05.17/outbox.cif.g08.bks.cpg/sg20_8_cif.got.tgz:15583.got - 2010.06.03 22:52:26.
