data_PCOD9320749
_publ_section_title
;
Structure prediction by ZEFSAII (Michael W. Deem and Ramdas Pophale) SiO2 
 PCOD9320749
Probable space group: C 2 2 21
;
_chemical_formula_sum "Si O2"
_cell_formula_units_Z 36
_cell_length_a 13.319235
_cell_length_b 5.192751
_cell_length_c 21.749176
_cell_angle_alpha 90.000000
_cell_angle_beta 90.000000
_cell_angle_gamma 90.000000
_cell_volume 1504.248501
_symmetry_space_group_name_H-M "C 2 2 21"
_symmetry_group_IT_number 20
_symmetry_cell_setting 'orthorhombic'
loop_
_space_group_symop_operation_xyz
x,y,z
-x,-y,1/2+z
x,-y,-z
-x,y,1/2-z
1/2+x,1/2+y,z
1/2-x,1/2-y,1/2+z
1/2+x,1/2-y,-z
1/2-x,1/2+y,1/2-z
loop_
_atom_site_type_symbol
_atom_site_label
_atom_site_fract_x
_atom_site_fract_y
_atom_site_fract_z
Si Si1 0.260173 0.500000 0.000000
Si Si2 0.391093 0.202043 0.081791
Si Si3 0.313823 0.064923 0.739310
Si Si4 0.900609 0.493403 0.392083
Si Si5 0.915491 0.785262 0.853285
O O1 0.338485 0.722209 0.980965
O O2 0.186440 0.506890 0.941718
O O3 0.511480 0.171769 0.079923
O O4 0.376708 0.434489 0.130365
O O5 0.354900 0.930578 0.108152
O O6 0.244888 0.320718 0.731731
O O7 0.398918 0.179381 0.784928
O O8 0.356370 0.953147 0.675313
O O9 0.969741 0.241956 0.376820
#
# Coordination Sequence:
#
# PCOD9320749 Si02
#       5
#     4   8   8   8   8
#     4  12  24  52  74 112 146 206 252 298 366 448
#     4  10  26  46  74 103 150 195 241 308 360 441
#     4  12  25  44  75 112 148 190 247 308 376 446
#     4  10  27  46  74 112 147 199 244 308 370 434
#     4  10  23  49  69 106 145 188 238 309 373 422
#
# _framework density 23.932213999999998
#
# number of rings (size 3 to 8) (size 9 to 14) (size 15 to 20)
#    1.333    0.000    0.000    4.667    6.222    0.889 
#   12.000    0.000    0.000    0.000    0.000    0.000 
#    0.000    0.000    0.000    0.000    0.000    0.000 
#
# Total GULP energy -100293.329015 kJ/mol
# GULP energy per Si atom -5571.851612 kJ/mol
# Density = 2.387774 g / cm^3
# Si number density = 23.932214 Si / 1000 Ang^3
#
#
#
# Elastic Constant Matrix: (Units=GPa)
#
#
# Indices 1 2 3 4 5 6 
#
# 1 129.0792 43.7137 71.6229 0.0000 0.0000 0.0000
# 2 43.7137 94.6314 10.8176 0.0000 0.0000 0.0000
# 3 71.6229 10.8176 158.0997 0.0000 0.0000 0.0000
# 4 0.0000 0.0000 0.0000 34.6297 0.0000 0.0000
# 5 0.0000 0.0000 0.0000 0.0000 47.0852 0.0000
# 6 0.0000 0.0000 0.0000 0.0000 0.0000 8.6224
#
#
#
# Elastic Compliance Matrix: (Units=1/GPa)
#
#
# Indices 1 2 3 4 5 6 
#
# 1 0.012409 -0.005130 -0.005271 0.000000 0.000000 0.000000
# 2 -0.005130 0.012771 0.001450 0.000000 0.000000 0.000000
# 3 -0.005271 0.001450 0.008614 0.000000 0.000000 0.000000
# 4 0.000000 0.000000 0.000000 0.028877 0.000000 0.000000
# 5 0.000000 0.000000 0.000000 0.000000 0.021238 0.000000
# 6 0.000000 0.000000 0.000000 0.000000 0.000000 0.115976
#
#
# Mechanical properties :
#
#
# Convention : Reuss Voigt Hill
#
# Bulk Modulus (GPa) = 62.91967 70.45766 66.68867
# Shear Modulus (GPa) = 22.41319 35.11121 28.76220
#
# Velocity S-wave (km/s) = 3.06359 3.83444 3.47049
# Velocity P-wave (km/s) = 6.23394 7.00774 6.63213
#
# Compressibility (1/GPa) = 0.01589328
#
# Stress axis : x y z
#
# Youngs Moduli (GPa) = 80.58766 78.30168 116.09576
#
# Poissons Ratio (x) = 0.40166 0.61188
# Poissons Ratio (y) = 0.41338 -0.16834
# Poissons Ratio (z) = 0.42474 -0.11354
#
# Static dielectric constant tensor:
#      x y z
#    x 1.962650 0.000000 0.000000 
#    y 0.000000 1.912610 0.000000 
#    z 0.000000 0.000000 1.970190 
# 
# From -- ./inp_files/27391.got.cif
#   From: 2010.05.17/outbox.cif.g08.bks.cpg/sg20_14_cif.got.tgz:27391.got - 2010.06.03 22:52:26.
