data_PCOD9320574
_publ_section_title
;
Structure prediction by ZEFSAII (Michael W. Deem and Ramdas Pophale) SiO2 
 PCOD9320574
Probable space group: C 2 2 21
;
_chemical_formula_sum "Si O2"
_cell_formula_units_Z 48
_cell_length_a 12.242614
_cell_length_b 11.862565
_cell_length_c 12.180015
_cell_angle_alpha 90.000000
_cell_angle_beta 90.000000
_cell_angle_gamma 90.000000
_cell_volume 1768.889015
_symmetry_space_group_name_H-M "C 2 2 21"
_symmetry_group_IT_number 20
_symmetry_cell_setting 'orthorhombic'
loop_
_space_group_symop_operation_xyz
x,y,z
-x,-y,1/2+z
x,-y,-z
-x,y,1/2-z
1/2+x,1/2+y,z
1/2-x,1/2-y,1/2+z
1/2+x,1/2-y,-z
1/2-x,1/2+y,1/2-z
loop_
_atom_site_type_symbol
_atom_site_label
_atom_site_fract_x
_atom_site_fract_y
_atom_site_fract_z
Si Si1 0.616950 0.348623 0.879391
Si Si2 0.148651 0.631895 0.018969
Si Si3 0.150000 0.381000 0.605529
Si Si4 0.386659 0.702187 0.711709
Si Si5 0.116633 0.140995 0.363632
Si Si6 0.151901 0.615965 0.640101
O O1 0.497633 0.385996 0.919564
O O2 0.628910 0.406879 0.757992
O O3 0.631615 0.215618 0.915579
O O4 0.724697 0.397891 0.932761
O O5 0.277091 0.631710 0.060652
O O6 0.090968 0.700765 0.119043
O O7 0.122079 0.500000 0.000000
O O8 0.147974 0.272469 0.680615
O O9 0.118447 0.491333 0.674051
O O10 0.102817 0.375253 0.484547
O O11 0.500000 0.645708 0.750000
O O12 0.280719 0.635895 0.668625
O O13 0.102892 0.268827 0.317566
#
# Coordination Sequence:
#
# PCOD9320574 Si02
#       6
#     8   8   8   8   8   8
#     4  11  22  43  67  90 132 171 217 270 334 399
#     4  11  25  44  66 100 135 172 224 281 333 395
#     4  11  22  43  67  90 132 171 217 270 334 399
#     4  11  25  44  66 100 135 172 224 281 333 395
#     4  10  23  43  65  92 128 173 215 271 333 395
#     4  10  23  43  65  92 128 173 215 271 333 395
#
# _framework density 27.135677999999999
#
# number of rings (size 3 to 8) (size 9 to 14) (size 15 to 20)
#    0.000    1.333    6.667    0.000    4.667    1.333 
#    6.000    0.000    0.000    0.000    0.000    0.000 
#    0.000    0.000    0.000    0.000    0.000    0.000 
#
# Total GULP energy -133707.964168 kJ/mol
# GULP energy per Si atom -5571.165174 kJ/mol
# Density = 2.707392 g / cm^3
# Si number density = 27.135678 Si / 1000 Ang^3
#
#
#
# Elastic Constant Matrix: (Units=GPa)
#
#
# Indices 1 2 3 4 5 6 
#
# 1 124.7977 7.3194 34.7813 0.0000 0.0000 0.0000
# 2 7.3194 110.7628 33.8552 0.0000 0.0000 0.0000
# 3 34.7813 33.8552 99.3317 0.0000 0.0000 0.0000
# 4 0.0000 0.0000 0.0000 24.6381 0.0000 0.0000
# 5 0.0000 0.0000 0.0000 0.0000 34.3268 0.0000
# 6 0.0000 0.0000 0.0000 0.0000 0.0000 10.5884
#
#
#
# Elastic Compliance Matrix: (Units=1/GPa)
#
#
# Indices 1 2 3 4 5 6 
#
# 1 0.008896 0.000407 -0.003253 0.000000 0.000000 0.000000
# 2 0.000407 0.010097 -0.003584 0.000000 0.000000 0.000000
# 3 -0.003253 -0.003584 0.012428 0.000000 0.000000 0.000000
# 4 0.000000 0.000000 0.000000 0.040587 0.000000 0.000000
# 5 0.000000 0.000000 0.000000 0.000000 0.029132 0.000000
# 6 0.000000 0.000000 0.000000 0.000000 0.000000 0.094443
#
#
# Mechanical properties :
#
#
# Convention : Reuss Voigt Hill
#
# Bulk Modulus (GPa) = 53.88085 54.08932 53.98508
# Shear Modulus (GPa) = 23.29585 31.17309 27.23447
#
# Velocity S-wave (km/s) = 2.93319 3.39305 3.17147
# Velocity P-wave (km/s) = 5.60095 5.94362 5.77483
#
# Compressibility (1/GPa) = 0.01855947
#
# Stress axis : x y z
#
# Youngs Moduli (GPa) = 112.41166 99.04128 80.46394
#
# Poissons Ratio (x) = -0.04027 0.26179
# Poissons Ratio (y) = -0.04571 0.28836
# Poissons Ratio (z) = 0.36573 0.35493
#
# Static dielectric constant tensor:
#      x y z
#    x 2.230280 0.000000 0.000000 
#    y 0.000000 2.184750 0.000000 
#    z 0.000000 0.000000 2.258450 
# 
# From -- ./inp_files/20824.got.cif
#   From: 2010.05.17/outbox.cif.g08.bks.cpg/sg20_11_cif.got.tgz:20824.got - 2010.06.03 22:52:26.
