data_PCOD9320810
_publ_section_title
;
Structure prediction by ZEFSAII (Michael W. Deem and Ramdas Pophale) SiO2 
 PCOD9320810
Probable space group: C 2 2 21
;
_chemical_formula_sum "Si O2"
_cell_formula_units_Z 52
_cell_length_a 23.835100
_cell_length_b 15.002035
_cell_length_c 8.149263
_cell_angle_alpha 90.000000
_cell_angle_beta 90.000000
_cell_angle_gamma 90.000000
_cell_volume 2913.972753
_symmetry_space_group_name_H-M "C 2 2 21"
_symmetry_group_IT_number 20
_symmetry_cell_setting 'orthorhombic'
loop_
_space_group_symop_operation_xyz
x,y,z
-x,-y,1/2+z
x,-y,-z
-x,y,1/2-z
1/2+x,1/2+y,z
1/2-x,1/2-y,1/2+z
1/2+x,1/2-y,-z
1/2-x,1/2+y,1/2-z
loop_
_atom_site_type_symbol
_atom_site_label
_atom_site_fract_x
_atom_site_fract_y
_atom_site_fract_z
Si Si1 0.229411 0.991344 0.667317
Si Si2 0.587421 0.607935 0.960891
Si Si3 0.135337 0.859412 0.393367
Si Si4 0.702593 0.000000 0.500000
Si Si5 0.971558 0.901907 0.928104
Si Si6 0.188706 0.812521 0.830401
Si Si7 0.697083 0.193829 0.524552
O O1 0.179993 0.060635 0.626271
O O2 0.265497 0.000000 0.500000
O O3 0.206620 0.892801 0.707235
O O4 0.260119 0.014460 0.836431
O O5 0.523704 0.641060 0.978268
O O6 0.631593 0.657374 0.079995
O O7 0.590360 0.500000 0.000000
O O8 0.602636 0.628213 0.775282
O O9 0.089537 0.861394 0.541021
O O10 0.167692 0.767240 0.411185
O O11 0.673101 0.904551 0.513110
O O12 0.000000 0.909221 0.750000
O O13 0.963693 0.000000 0.000000
O O14 0.237587 0.806702 0.967979
O O15 0.188756 0.726297 0.712317
#
# Coordination Sequence:
#
# PCOD9320810 Si02
#       7
#     8   8   8   4   8   8   8
#     4  11  20  33  58  79 113 154 190 235 293 349
#     4  11  21  36  57  85 120 156 183 239 294 367
#     4  12  21  37  55  83 115 157 197 234 294 356
#     4  10  24  42  50  82 118 154 202 258 298 334
#     4  11  23  35  53  83 120 157 192 233 288 368
#     4  11  21  35  55  84 114 153 201 235 296 359
#     4  11  23  35  55  78 114 155 198 248 288 347
#
# _framework density 17.845053
#
# number of rings (size 3 to 8) (size 9 to 14) (size 15 to 20)
#    0.000    0.923    3.077    7.385    1.077    0.000 
#    0.000    0.000    0.000    0.000    0.000    6.462 
#    0.000    0.000    0.000    0.000    0.000    0.000 
#
# Total GULP energy -144937.378497 kJ/mol
# GULP energy per Si atom -5574.514558 kJ/mol
# Density = 1.780444 g / cm^3
# Si number density = 17.845053 Si / 1000 Ang^3
#
#
#
# Elastic Constant Matrix: (Units=GPa)
#
#
# Indices 1 2 3 4 5 6 
#
# 1 67.1842 31.8113 11.3626 0.0000 0.0000 0.0000
# 2 31.8113 107.9610 15.1872 0.0000 0.0000 0.0000
# 3 11.3626 15.1872 96.8619 0.0000 0.0000 0.0000
# 4 0.0000 0.0000 0.0000 27.5786 0.0000 0.0000
# 5 0.0000 0.0000 0.0000 0.0000 28.2568 0.0000
# 6 0.0000 0.0000 0.0000 0.0000 0.0000 27.5501
#
#
#
# Elastic Compliance Matrix: (Units=1/GPa)
#
#
# Indices 1 2 3 4 5 6 
#
# 1 0.017449 -0.004963 -0.001269 0.000000 0.000000 0.000000
# 2 -0.004963 0.010883 -0.001124 0.000000 0.000000 0.000000
# 3 -0.001269 -0.001124 0.010649 0.000000 0.000000 0.000000
# 4 0.000000 0.000000 0.000000 0.036260 0.000000 0.000000
# 5 0.000000 0.000000 0.000000 0.000000 0.035390 0.000000
# 6 0.000000 0.000000 0.000000 0.000000 0.000000 0.036298
#
#
# Mechanical properties :
#
#
# Convention : Reuss Voigt Hill
#
# Bulk Modulus (GPa) = 41.20420 43.19214 42.19817
# Shear Modulus (GPa) = 29.45857 30.92017 30.18937
#
# Velocity S-wave (km/s) = 4.06741 4.16709 4.11755
# Velocity P-wave (km/s) = 6.72299 6.88545 6.80470
#
# Compressibility (1/GPa) = 0.02426937
#
# Stress axis : x y z
#
# Youngs Moduli (GPa) = 57.31001 91.88549 93.90482
#
# Poissons Ratio (x) = 0.45602 0.11914
# Poissons Ratio (y) = 0.28443 0.10557
# Poissons Ratio (z) = 0.07271 0.10330
#
# Static dielectric constant tensor:
#      x y z
#    x 1.643450 0.000000 0.000000 
#    y 0.000000 1.614560 0.000000 
#    z 0.000000 0.000000 1.737940 
# 
# From -- ./inp_files/8642.got.cif
#   From: 2010.05.17/outbox.cif.g08.bks.cpg/sg20_5_cif.got.tgz:8642.got - 2010.06.03 22:52:26.
