data_PCOD9320649
_publ_section_title
;
Structure prediction by ZEFSAII (Michael W. Deem and Ramdas Pophale) SiO2 
 PCOD9320649
Probable space group: C 2 2 21
;
_chemical_formula_sum "Si O2"
_cell_formula_units_Z 44
_cell_length_a 13.037073
_cell_length_b 30.697323
_cell_length_c 6.021058
_cell_angle_alpha 90.000000
_cell_angle_beta 90.000000
_cell_angle_gamma 90.000000
_cell_volume 2409.646925
_symmetry_space_group_name_H-M "C 2 2 21"
_symmetry_group_IT_number 20
_symmetry_cell_setting 'orthorhombic'
loop_
_space_group_symop_operation_xyz
x,y,z
-x,-y,1/2+z
x,-y,-z
-x,y,1/2-z
1/2+x,1/2+y,z
1/2-x,1/2-y,1/2+z
1/2+x,1/2-y,-z
1/2-x,1/2+y,1/2-z
loop_
_atom_site_type_symbol
_atom_site_label
_atom_site_fract_x
_atom_site_fract_y
_atom_site_fract_z
Si Si1 0.113783 0.842077 0.217063
Si Si2 0.114201 0.755157 0.470168
Si Si3 0.181113 0.635765 0.958494
Si Si4 0.945760 0.449515 0.500547
Si Si5 0.220561 0.189026 0.177894
Si Si6 0.000000 0.309220 0.250000
O O1 0.107200 0.789968 0.272492
O O2 0.203936 0.862534 0.363069
O O3 0.000000 0.859751 0.250000
O O4 0.158758 0.844288 0.972326
O O5 0.136056 0.786893 0.675582
O O6 0.216143 0.726274 0.446861
O O7 0.025176 0.721994 0.540420
O O8 0.140038 0.587673 0.997524
O O9 0.099121 0.661331 0.803817
O O10 0.193724 0.663948 0.180746
O O11 0.912505 0.500000 0.500000
O O12 0.000000 0.444017 0.250000
O O13 0.000000 0.443672 0.750000
#
# Coordination Sequence:
#
# PCOD9320649 Si02
#       6
#     8   8   8   8   8   4
#     4  11  24  39  56  77 120 169 222 263 313 364
#     4  11  21  34  51  77 113 162 211 263 310 364
#     4  11  25  37  60  93 122 158 206 264 319 388
#     4  10  23  44  71 104 136 163 195 251 336 412
#     4  11  21  37  53  80 114 161 213 262 312 366
#     4  12  22  36  56  84 120 160 208 262 324 372
#
# _framework density 18.259936
#
# number of rings (size 3 to 8) (size 9 to 14) (size 15 to 20)
#    0.000    1.091    4.545    2.182    7.636    2.182 
#    0.000    0.000    0.000    0.000    4.727    0.000 
#    0.000    0.000    0.000    0.000    0.000    0.000 
#
# Total GULP energy -122520.583605 kJ/mol
# GULP energy per Si atom -5569.117437 kJ/mol
# Density = 1.821838 g / cm^3
# Si number density = 18.259936 Si / 1000 Ang^3
#
#
#
# Elastic Constant Matrix: (Units=GPa)
#
#
# Indices 1 2 3 4 5 6 
#
# 1 108.3068 51.8905 22.2966 0.0000 0.0000 0.0000
# 2 51.8905 98.1155 21.3258 0.0000 0.0000 0.0000
# 3 22.2966 21.3258 67.4775 0.0000 0.0000 0.0000
# 4 0.0000 0.0000 0.0000 11.6148 0.0000 0.0000
# 5 0.0000 0.0000 0.0000 0.0000 16.7019 0.0000
# 6 0.0000 0.0000 0.0000 0.0000 0.0000 7.2044
#
#
#
# Elastic Compliance Matrix: (Units=1/GPa)
#
#
# Indices 1 2 3 4 5 6 
#
# 1 0.012669 -0.006218 -0.002221 0.000000 0.000000 0.000000
# 2 -0.006218 0.013995 -0.002369 0.000000 0.000000 0.000000
# 3 -0.002221 -0.002369 0.016302 0.000000 0.000000 0.000000
# 4 0.000000 0.000000 0.000000 0.086097 0.000000 0.000000
# 5 0.000000 0.000000 0.000000 0.000000 0.059873 0.000000
# 6 0.000000 0.000000 0.000000 0.000000 0.000000 0.138803
#
#
# Mechanical properties :
#
#
# Convention : Reuss Voigt Hill
#
# Bulk Modulus (GPa) = 46.83444 51.65840 49.24642
# Shear Modulus (GPa) = 14.02634 18.99670 16.51152
#
# Velocity S-wave (km/s) = 2.77456 3.22894 3.01033
# Velocity P-wave (km/s) = 5.99739 6.50026 6.25388
#
# Compressibility (1/GPa) = 0.02135181
#
# Stress axis : x y z
#
# Youngs Moduli (GPa) = 78.93164 71.45310 61.34095
#
# Poissons Ratio (x) = 0.44426 0.13626
# Poissons Ratio (y) = 0.49076 0.14529
# Poissons Ratio (z) = 0.17533 0.16924
#
# Static dielectric constant tensor:
#      x y z
#    x 1.641220 0.000000 0.000000 
#    y 0.000000 1.579960 0.000000 
#    z 0.000000 0.000000 1.771070 
# 
# From -- ./inp_files/2155.got.cif
#   From: 2010.05.17/outbox.cif.g08.bks.cpg/sg20_2_cif.got.tgz:2155.got - 2010.06.03 22:52:26.
