data_PCOD9320264
_publ_section_title
;
Structure prediction by ZEFSAII (Michael W. Deem and Ramdas Pophale) SiO2 
 PCOD9320264
Probable space group: C 2 2 21
;
_chemical_formula_sum "Si O2"
_cell_formula_units_Z 40
_cell_length_a 13.546280
_cell_length_b 6.651202
_cell_length_c 18.325800
_cell_angle_alpha 90.000000
_cell_angle_beta 90.000000
_cell_angle_gamma 90.000000
_cell_volume 1651.137072
_symmetry_space_group_name_H-M "C 2 2 21"
_symmetry_group_IT_number 20
_symmetry_cell_setting 'orthorhombic'
loop_
_space_group_symop_operation_xyz
x,y,z
-x,-y,1/2+z
x,-y,-z
-x,y,1/2-z
1/2+x,1/2+y,z
1/2-x,1/2-y,1/2+z
1/2+x,1/2-y,-z
1/2-x,1/2+y,1/2-z
loop_
_atom_site_type_symbol
_atom_site_label
_atom_site_fract_x
_atom_site_fract_y
_atom_site_fract_z
Si Si1 0.826331 0.965642 0.912618
Si Si2 0.623794 0.914294 0.738320
Si Si3 0.506392 0.289252 0.137696
Si Si4 0.316134 0.264209 0.675834
Si Si5 0.317499 0.383644 0.427508
O O1 0.775040 0.748414 0.902048
O O2 0.931607 0.025023 0.876927
O O3 0.747078 0.117903 0.876744
O O4 0.833353 0.000000 0.000000
O O5 0.572232 0.885432 0.660228
O O6 0.579221 0.745226 0.792384
O O7 0.738656 0.871286 0.729408
O O8 0.611835 0.126654 0.777476
O O9 0.581234 0.253743 0.070279
O O10 0.355656 0.440627 0.625970
O O11 0.290389 0.500000 0.500000
#
# Coordination Sequence:
#
# PCOD9320264 Si02
#       5
#     8   8   8   8   8
#     4  11  23  46  73 104 150 188 248 315 368 458
#     4  10  22  44  70 103 143 189 254 303 374 455
#     4  10  23  45  71 106 145 189 253 304 376 453
#     4  11  23  44  76 100 147 199 244 313 382 446
#     4  12  24  45  76 113 149 201 251 312 389 453
#
# _framework density 24.225728
#
# number of rings (size 3 to 8) (size 9 to 14) (size 15 to 20)
#    0.000    1.200    4.000    1.800    0.000    0.000 
#   10.800    0.000    0.000    0.000    0.000    0.000 
#    0.000    0.000    0.000    0.000    0.000    0.000 
#
# Total GULP energy -111489.419584 kJ/mol
# GULP energy per Si atom -5574.470979 kJ/mol
# Density = 2.417059 g / cm^3
# Si number density = 24.225728 Si / 1000 Ang^3
#
#
#
# Elastic Constant Matrix: (Units=GPa)
#
#
# Indices 1 2 3 4 5 6 
#
# 1 115.7635 34.9407 7.6171 0.0000 0.0000 0.0000
# 2 34.9407 95.3363 37.2230 0.0000 0.0000 0.0000
# 3 7.6171 37.2230 52.1039 0.0000 0.0000 0.0000
# 4 0.0000 0.0000 0.0000 47.1585 0.0000 0.0000
# 5 0.0000 0.0000 0.0000 0.0000 33.3348 0.0000
# 6 0.0000 0.0000 0.0000 0.0000 0.0000 21.6278
#
#
#
# Elastic Compliance Matrix: (Units=1/GPa)
#
#
# Indices 1 2 3 4 5 6 
#
# 1 0.009805 -0.004207 0.001572 0.000000 0.000000 0.000000
# 2 -0.004207 0.016352 -0.011067 0.000000 0.000000 0.000000
# 3 0.001572 -0.011067 0.026869 0.000000 0.000000 0.000000
# 4 0.000000 0.000000 0.000000 0.021205 0.000000 0.000000
# 5 0.000000 0.000000 0.000000 0.000000 0.029999 0.000000
# 6 0.000000 0.000000 0.000000 0.000000 0.000000 0.046237
#
#
# Mechanical properties :
#
#
# Convention : Reuss Voigt Hill
#
# Bulk Modulus (GPa) = 39.02918 46.97393 43.00155
# Shear Modulus (GPa) = 26.82256 32.65242 29.73749
#
# Velocity S-wave (km/s) = 3.33106 3.67528 3.50739
# Velocity P-wave (km/s) = 5.56239 6.11902 5.84733
#
# Compressibility (1/GPa) = 0.02562186
#
# Stress axis : x y z
#
# Youngs Moduli (GPa) = 101.99152 61.15429 37.21809
#
# Poissons Ratio (x) = 0.25730 -0.05852
# Poissons Ratio (y) = 0.42911 0.41189
# Poissons Ratio (z) = -0.16037 0.67678
#
# Static dielectric constant tensor:
#      x y z
#    x 2.034390 0.000000 0.000000 
#    y 0.000000 2.047330 0.000000 
#    z 0.000000 0.000000 2.007210 
# 
# From -- ./inp_files/29224.got.cif
#   From: 2010.05.17/outbox.cif.g08.bks.cpg/sg20_15_cif.got.tgz:29224.got - 2010.06.03 22:52:26.
