data_PCOD9320734
_publ_section_title
;
Structure prediction by ZEFSAII (Michael W. Deem and Ramdas Pophale) SiO2 
 PCOD9320734
Probable space group: C 2 2 21
;
_chemical_formula_sum "Si O2"
_cell_formula_units_Z 64
_cell_length_a 22.093186
_cell_length_b 11.585165
_cell_length_c 12.146614
_cell_angle_alpha 90.000000
_cell_angle_beta 90.000000
_cell_angle_gamma 90.000000
_cell_volume 3108.964785
_symmetry_space_group_name_H-M "C 2 2 21"
_symmetry_group_IT_number 20
_symmetry_cell_setting 'orthorhombic'
loop_
_space_group_symop_operation_xyz
x,y,z
-x,-y,1/2+z
x,-y,-z
-x,y,1/2-z
1/2+x,1/2+y,z
1/2-x,1/2-y,1/2+z
1/2+x,1/2-y,-z
1/2-x,1/2+y,1/2-z
loop_
_atom_site_type_symbol
_atom_site_label
_atom_site_fract_x
_atom_site_fract_y
_atom_site_fract_z
Si Si1 0.144624 0.089665 0.098775
Si Si2 0.079338 0.326604 0.053195
Si Si3 0.376424 0.941125 0.242775
Si Si4 0.564859 0.489987 0.697151
Si Si5 0.946130 0.263300 0.096476
Si Si6 0.784672 0.414784 0.894253
Si Si7 0.379421 0.719506 0.879103
Si Si8 0.438403 0.841860 0.702193
O O1 0.110853 0.202968 0.056750
O O2 0.108080 0.042267 0.202013
O O3 0.214639 0.109168 0.128799
O O4 0.143431 0.000000 0.000000
O O5 0.121929 0.404491 0.129975
O O6 0.013109 0.315498 0.108807
O O7 0.067753 0.359406 0.926967
O O8 0.397361 0.833010 0.169457
O O9 0.317445 0.008360 0.200181
O O10 0.428082 0.038299 0.234512
O O11 0.500000 0.527966 0.750000
O O12 0.552638 0.370699 0.631797
O O13 0.601460 0.584959 0.625439
O O14 0.926153 0.270878 0.969203
O O15 0.818591 0.291124 0.910016
O O16 0.790220 0.500000 0.000000
O O17 0.388552 0.756778 0.752071
O O18 0.500000 0.792563 0.750000
#
# Coordination Sequence:
#
# PCOD9320734 Si02
#       8
#     8   8   8   8   8   8   8   8
#     4  11  25  43  69  96 136 190 230 286 353 419
#     4  12  23  41  63 105 141 177 228 288 355 413
#     4  11  23  40  67  98 135 182 229 281 346 414
#     4  12  24  41  64 103 139 175 227 283 351 415
#     4  12  22  41  67  98 144 180 219 285 355 415
#     4  10  23  47  69  95 133 187 238 281 346 424
#     4  11  24  40  67  97 132 182 232 280 331 422
#     4  11  22  38  62  99 139 178 222 285 348 415
#
# _framework density 20.585629999999998
#
# number of rings (size 3 to 8) (size 9 to 14) (size 15 to 20)
#    0.000    0.750    5.000    3.000    1.750    1.000 
#    0.000    3.750    0.000    4.500    0.000    0.000 
#    0.000    0.000    0.000    0.000    0.000    0.000 
#
# Total GULP energy -178463.516471 kJ/mol
# GULP energy per Si atom -5576.984890 kJ/mol
# Density = 2.053878 g / cm^3
# Si number density = 20.585630 Si / 1000 Ang^3
#
#
#
# Elastic Constant Matrix: (Units=GPa)
#
#
# Indices 1 2 3 4 5 6 
#
# 1 101.1675 11.9945 19.7737 0.0000 0.0000 0.0000
# 2 11.9945 82.4780 6.0739 0.0000 0.0000 0.0000
# 3 19.7737 6.0739 102.2478 0.0000 0.0000 0.0000
# 4 0.0000 0.0000 0.0000 31.7233 0.0000 0.0000
# 5 0.0000 0.0000 0.0000 0.0000 24.3373 0.0000
# 6 0.0000 0.0000 0.0000 0.0000 0.0000 -26.7622
#
#
#
# Elastic Compliance Matrix: (Units=1/GPa)
#
#
# Indices 1 2 3 4 5 6 
#
# 1 0.010426 -0.001374 -0.001935 0.000000 0.000000 0.000000
# 2 -0.001374 0.012359 -0.000468 0.000000 0.000000 0.000000
# 3 -0.001935 -0.000468 0.010182 0.000000 0.000000 0.000000
# 4 0.000000 0.000000 0.000000 0.031523 0.000000 0.000000
# 5 0.000000 0.000000 0.000000 0.000000 0.041089 0.000000
# 6 0.000000 0.000000 0.000000 0.000000 0.000000 -0.037366
#
#
# Mechanical properties :
#
#
# Convention : Reuss Voigt Hill
#
# Bulk Modulus (GPa) = 39.35014 40.17526 39.76270
# Shear Modulus (GPa) = 59.35667 22.39643 40.87655
#
# Velocity S-wave (km/s) = 5.37556 3.30201 4.46094
# Velocity P-wave (km/s) = 7.59511 5.83920 6.77429
#
# Compressibility (1/GPa) = 0.02541287
#
# Stress axis : x y z
#
# Youngs Moduli (GPa) = 95.91780 80.91450 98.21132
#
# Poissons Ratio (x) = 0.11115 0.19000
# Poissons Ratio (y) = 0.13176 0.04601
# Poissons Ratio (z) = 0.18556 0.03791
#
# Static dielectric constant tensor:
#      x y z
#    x 1.760840 0.000000 0.000000 
#    y 0.000000 1.799420 0.000000 
#    z 0.000000 0.000000 1.748740 
# 
# From -- ./inp_files/16788.got.cif
#   From: 2010.05.17/outbox.cif.g08.bks.cpg/sg20_9_cif.got.tgz:16788.got - 2010.06.03 22:52:26.
