data_PCOD9320176
_publ_section_title
;
Structure prediction by ZEFSAII (Michael W. Deem and Ramdas Pophale) SiO2 
 PCOD9320176
Probable space group: C 2 2 21
;
_chemical_formula_sum "Si O2"
_cell_formula_units_Z 44
_cell_length_a 11.553168
_cell_length_b 24.154041
_cell_length_c 7.412919
_cell_angle_alpha 90.000000
_cell_angle_beta 90.000000
_cell_angle_gamma 90.000000
_cell_volume 2068.617253
_symmetry_space_group_name_H-M "C 2 2 21"
_symmetry_group_IT_number 20
_symmetry_cell_setting 'orthorhombic'
loop_
_space_group_symop_operation_xyz
x,y,z
-x,-y,1/2+z
x,-y,-z
-x,y,1/2-z
1/2+x,1/2+y,z
1/2-x,1/2-y,1/2+z
1/2+x,1/2-y,-z
1/2-x,1/2+y,1/2-z
loop_
_atom_site_type_symbol
_atom_site_label
_atom_site_fract_x
_atom_site_fract_y
_atom_site_fract_z
Si Si1 0.605783 0.747189 0.620657
Si Si2 0.018107 0.500000 0.000000
Si Si3 0.158616 0.441816 0.318996
Si Si4 0.745915 0.828092 0.376225
Si Si5 0.506146 0.639194 0.039741
Si Si6 0.111277 0.964191 0.335450
O O1 0.500000 0.764384 0.750000
O O2 0.663214 0.797196 0.515505
O O3 0.704117 0.716849 0.738378
O O4 0.553913 0.698687 0.494132
O O5 0.098903 0.521355 0.838130
O O6 0.920986 0.549362 0.995533
O O7 0.173122 0.376880 0.281049
O O8 0.290977 0.460502 0.315520
O O9 0.861085 0.853631 0.472370
O O10 0.500000 0.625291 0.250000
O O11 0.436153 0.593845 0.919856
O O12 0.000000 0.992519 0.250000
O O13 0.156683 0.000000 0.500000
#
# Coordination Sequence:
#
# PCOD9320176 Si02
#       6
#     8   4   8   8   8   8
#     4  10  22  43  68 106 142 182 242 285 357 439
#     4  10  26  48  64  96 132 188 240 290 344 448
#     4  11  23  48  69  92 142 178 235 294 354 420
#     4  11  22  45  70 100 145 188 228 309 356 426
#     4  11  22  41  65 107 141 177 235 293 359 427
#     4  12  23  40  70 106 133 174 228 297 361 417
#
# _framework density 21.270246
#
# number of rings (size 3 to 8) (size 9 to 14) (size 15 to 20)
#    0.000    1.091    4.545    2.182    1.273    1.455 
#   19.636    0.000    0.000    0.000    0.000    0.000 
#    0.000    0.000    0.000    0.000    0.000    0.000 
#
# Total GULP energy -122590.564385 kJ/mol
# GULP energy per Si atom -5572.298381 kJ/mol
# Density = 2.122183 g / cm^3
# Si number density = 21.270246 Si / 1000 Ang^3
#
#
#
# Elastic Constant Matrix: (Units=GPa)
#
#
# Indices 1 2 3 4 5 6 
#
# 1 128.2646 59.7925 37.5662 0.0000 0.0000 0.0000
# 2 59.7925 82.1213 38.4115 0.0000 0.0000 0.0000
# 3 37.5662 38.4115 89.6929 0.0000 0.0000 0.0000
# 4 0.0000 0.0000 0.0000 19.2972 0.0000 0.0000
# 5 0.0000 0.0000 0.0000 0.0000 29.1228 0.0000
# 6 0.0000 0.0000 0.0000 0.0000 0.0000 16.3607
#
#
#
# Elastic Compliance Matrix: (Units=1/GPa)
#
#
# Indices 1 2 3 4 5 6 
#
# 1 0.011984 -0.007975 -0.001604 0.000000 0.000000 0.000000
# 2 -0.007975 0.020535 -0.005454 0.000000 0.000000 0.000000
# 3 -0.001604 -0.005454 0.014157 0.000000 0.000000 0.000000
# 4 0.000000 0.000000 0.000000 0.051821 0.000000 0.000000
# 5 0.000000 0.000000 0.000000 0.000000 0.034337 0.000000
# 6 0.000000 0.000000 0.000000 0.000000 0.000000 0.061122
#
#
# Mechanical properties :
#
#
# Convention : Reuss Voigt Hill
#
# Bulk Modulus (GPa) = 60.20678 63.51323 61.86001
# Shear Modulus (GPa) = 21.78099 23.91007 22.84553
#
# Velocity S-wave (km/s) = 3.20349 3.35641 3.28084
# Velocity P-wave (km/s) = 6.48461 6.70415 6.59529
#
# Compressibility (1/GPa) = 0.01660942
#
# Stress axis : x y z
#
# Youngs Moduli (GPa) = 83.44517 48.69748 70.63888
#
# Poissons Ratio (x) = 0.38838 0.11329
# Poissons Ratio (y) = 0.66550 0.38526
# Poissons Ratio (z) = 0.13383 0.26559
#
# Static dielectric constant tensor:
#      x y z
#    x 1.786540 0.000000 0.000000 
#    y 0.000000 1.779260 0.000000 
#    z 0.000000 0.000000 1.835220 
# 
# From -- ./inp_files/7335.got.cif
#   From: 2010.05.17/outbox.cif.g08.bks.cpg/sg20_4_cif.got.tgz:7335.got - 2010.06.03 22:52:26.
