data_PCOD9320535
_publ_section_title
;
Structure prediction by ZEFSAII (Michael W. Deem and Ramdas Pophale) SiO2 
 PCOD9320535
Probable space group: C 2 2 21
;
_chemical_formula_sum "Si O2"
_cell_formula_units_Z 48
_cell_length_a 23.442358
_cell_length_b 9.089943
_cell_length_c 10.680871
_cell_angle_alpha 90.000000
_cell_angle_beta 90.000000
_cell_angle_gamma 90.000000
_cell_volume 2275.983576
_symmetry_space_group_name_H-M "C 2 2 21"
_symmetry_group_IT_number 20
_symmetry_cell_setting 'orthorhombic'
loop_
_space_group_symop_operation_xyz
x,y,z
-x,-y,1/2+z
x,-y,-z
-x,y,1/2-z
1/2+x,1/2+y,z
1/2-x,1/2-y,1/2+z
1/2+x,1/2-y,-z
1/2-x,1/2+y,1/2-z
loop_
_atom_site_type_symbol
_atom_site_label
_atom_site_fract_x
_atom_site_fract_y
_atom_site_fract_z
Si Si1 0.927340 0.747836 0.321378
Si Si2 0.289645 0.008934 0.148041
Si Si3 0.684743 0.343522 0.271994
Si Si4 0.000000 0.006169 0.750000
Si Si5 0.414809 0.965024 0.148127
Si Si6 0.985991 0.216338 0.052116
Si Si7 0.618790 0.500000 0.500000
O O1 0.862025 0.798927 0.335618
O O2 0.929650 0.600690 0.238642
O O3 0.970416 0.740983 0.440227
O O4 0.949598 0.879739 0.233121
O O5 0.297307 0.181891 0.178609
O O6 0.237481 0.932850 0.217394
O O7 0.349566 0.927203 0.183467
O O8 0.280998 0.000000 0.000000
O O9 0.657736 0.441028 0.385265
O O10 0.017004 0.906488 0.865281
O O11 0.465460 0.848939 0.139154
O O12 0.409720 0.000000 0.000000
O O13 0.924990 0.135227 0.027647
#
# Coordination Sequence:
#
# PCOD9320535 Si02
#       7
#     8   8   8   4   8   8   4
#     4  11  22  45  65 106 144 183 240 305 354 430
#     4  10  24  45  70 104 138 187 242 300 362 419
#     4  11  25  42  75 102 144 188 245 306 358 428
#     4  12  22  38  64 100 132 186 236 288 360 430
#     4  10  23  42  68  96 139 188 235 286 361 430
#     4  12  24  41  74 101 139 191 242 294 365 444
#     4  12  22  42  74  98 136 194 244 296 358 452
#
# _framework density 21.089783000000001
#
# number of rings (size 3 to 8) (size 9 to 14) (size 15 to 20)
#    0.000    1.000    3.333    4.000    4.667    3.333 
#    0.000    0.000    0.000    6.000    0.000    0.000 
#    0.000    0.000    0.000    0.000    0.000    0.000 
#
# Total GULP energy -133701.239365 kJ/mol
# GULP energy per Si atom -5570.884974 kJ/mol
# Density = 2.104178 g / cm^3
# Si number density = 21.089783 Si / 1000 Ang^3
#
#
#
# Elastic Constant Matrix: (Units=GPa)
#
#
# Indices 1 2 3 4 5 6 
#
# 1 159.7577 77.6518 86.2929 0.0000 0.0000 0.0000
# 2 77.6518 109.7773 65.6397 0.0000 0.0000 0.0000
# 3 86.2929 65.6397 110.5459 0.0000 0.0000 0.0000
# 4 0.0000 0.0000 0.0000 33.8762 0.0000 0.0000
# 5 0.0000 0.0000 0.0000 0.0000 41.8564 0.0000
# 6 0.0000 0.0000 0.0000 0.0000 0.0000 28.6178
#
#
#
# Elastic Compliance Matrix: (Units=1/GPa)
#
#
# Indices 1 2 3 4 5 6 
#
# 1 0.012115 -0.004519 -0.006773 0.000000 0.000000 0.000000
# 2 -0.004519 0.015810 -0.005860 0.000000 0.000000 0.000000
# 3 -0.006773 -0.005860 0.017813 0.000000 0.000000 0.000000
# 4 0.000000 0.000000 0.000000 0.029519 0.000000 0.000000
# 5 0.000000 0.000000 0.000000 0.000000 0.023891 0.000000
# 6 0.000000 0.000000 0.000000 0.000000 0.000000 0.034943
#
#
# Mechanical properties :
#
#
# Convention : Reuss Voigt Hill
#
# Bulk Modulus (GPa) = 87.47017 93.24996 90.36007
# Shear Modulus (GPa) = 29.03482 30.90318 29.96900
#
# Velocity S-wave (km/s) = 3.71445 3.83210 3.77373
# Velocity P-wave (km/s) = 7.74347 7.99322 7.86934
#
# Compressibility (1/GPa) = 0.01143247
#
# Stress axis : x y z
#
# Youngs Moduli (GPa) = 82.54336 63.25142 56.13980
#
# Poissons Ratio (x) = 0.28586 0.38026
# Poissons Ratio (y) = 0.37305 0.32896
# Poissons Ratio (z) = 0.55910 0.37063
#
# Static dielectric constant tensor:
#      x y z
#    x 1.842280 0.000000 0.000000 
#    y 0.000000 1.836130 0.000000 
#    z 0.000000 0.000000 1.828670 
# 
# From -- ./inp_files/16665.got.cif
#   From: 2010.05.17/outbox.cif.g08.bks.cpg/sg20_9_cif.got.tgz:16665.got - 2010.06.03 22:52:26.
