data_PCOD9320488
_publ_section_title
;
Structure prediction by ZEFSAII (Michael W. Deem and Ramdas Pophale) SiO2 
 PCOD9320488
Probable space group: C 2 2 21
;
_chemical_formula_sum "Si O2"
_cell_formula_units_Z 56
_cell_length_a 14.582222
_cell_length_b 13.638051
_cell_length_c 12.894711
_cell_angle_alpha 90.000000
_cell_angle_beta 90.000000
_cell_angle_gamma 90.000000
_cell_volume 2564.410987
_symmetry_space_group_name_H-M "C 2 2 21"
_symmetry_group_IT_number 20
_symmetry_cell_setting 'orthorhombic'
loop_
_space_group_symop_operation_xyz
x,y,z
-x,-y,1/2+z
x,-y,-z
-x,y,1/2-z
1/2+x,1/2+y,z
1/2-x,1/2-y,1/2+z
1/2+x,1/2-y,-z
1/2-x,1/2+y,1/2-z
loop_
_atom_site_type_symbol
_atom_site_label
_atom_site_fract_x
_atom_site_fract_y
_atom_site_fract_z
Si Si1 0.816729 0.480971 0.825978
Si Si2 0.558618 0.448461 0.600366
Si Si3 0.613726 0.753090 0.900478
Si Si4 0.000000 0.884282 0.250000
Si Si5 0.213095 0.650413 0.511919
Si Si6 0.270163 0.944346 0.603805
Si Si7 0.500000 0.075294 0.750000
Si Si8 0.479929 0.767352 0.082646
O O1 0.781737 0.559039 0.909532
O O2 0.767449 0.496226 0.715857
O O3 0.921257 0.507678 0.797617
O O4 0.805376 0.381321 0.892730
O O5 0.514780 0.500000 0.500000
O O6 0.554326 0.537787 0.679570
O O7 0.664519 0.421227 0.578531
O O8 0.511225 0.344434 0.623407
O O9 0.572636 0.683823 0.811137
O O10 0.690597 0.703381 0.973411
O O11 0.664803 0.852675 0.868712
O O12 0.528286 0.776289 0.972822
O O13 0.126391 0.708203 0.560044
O O14 0.305461 0.000000 0.500000
O O15 0.475479 0.152004 0.658493
#
# Coordination Sequence:
#
# PCOD9320488 Si02
#       8
#     8   8   8   4   8   8   4   8
#     4  10  23  43  70  98 140 187 244 306 368 452
#     4  11  23  45  66  98 145 186 241 296 368 437
#     4  12  26  45  72 108 143 191 252 309 376 446
#     4  12  27  43  76 108 140 190 252 312 372 446
#     4  10  24  46  68 103 144 189 247 307 386 445
#     4  11  25  44  70 104 146 196 240 302 372 445
#     4  10  23  41  68 104 138 186 242 296 382 432
#     4  11  23  44  69 103 143 190 241 308 366 457
#
# _framework density 21.837372999999999
#
# number of rings (size 3 to 8) (size 9 to 14) (size 15 to 20)
#    0.000    1.143    2.857    2.143    4.000    4.571 
#    2.571    0.000    0.000    0.000    0.000    0.000 
#    0.000    0.000    0.000    0.000    0.000    0.000 
#
# Total GULP energy -156118.865136 kJ/mol
# GULP energy per Si atom -5575.673755 kJ/mol
# Density = 2.178767 g / cm^3
# Si number density = 21.837373 Si / 1000 Ang^3
#
#
#
# Elastic Constant Matrix: (Units=GPa)
#
#
# Indices 1 2 3 4 5 6 
#
# 1 47.9788 34.0417 5.3032 0.0000 0.0000 0.0000
# 2 34.0417 82.3579 39.9609 0.0000 0.0000 0.0000
# 3 5.3032 39.9609 123.9654 0.0000 0.0000 0.0000
# 4 0.0000 0.0000 0.0000 29.0759 0.0000 0.0000
# 5 0.0000 0.0000 0.0000 0.0000 28.5248 0.0000
# 6 0.0000 0.0000 0.0000 0.0000 0.0000 20.1130
#
#
#
# Elastic Compliance Matrix: (Units=1/GPa)
#
#
# Indices 1 2 3 4 5 6 
#
# 1 0.030576 -0.014229 0.003279 0.000000 0.000000 0.000000
# 2 -0.014229 0.021015 -0.006166 0.000000 0.000000 0.000000
# 3 0.003279 -0.006166 0.009914 0.000000 0.000000 0.000000
# 4 0.000000 0.000000 0.000000 0.034393 0.000000 0.000000
# 5 0.000000 0.000000 0.000000 0.000000 0.035057 0.000000
# 6 0.000000 0.000000 0.000000 0.000000 0.000000 0.049719
#
#
# Mechanical properties :
#
#
# Convention : Reuss Voigt Hill
#
# Bulk Modulus (GPa) = 36.66598 45.87930 41.27264
# Shear Modulus (GPa) = 22.32170 27.20915 24.76542
#
# Velocity S-wave (km/s) = 3.20062 3.53369 3.37127
# Velocity P-wave (km/s) = 5.52137 6.14039 5.83909
#
# Compressibility (1/GPa) = 0.02727324
#
# Stress axis : x y z
#
# Youngs Moduli (GPa) = 32.70546 47.58460 100.86719
#
# Poissons Ratio (x) = 0.67709 -0.33072
# Poissons Ratio (y) = 0.46537 0.62191
# Poissons Ratio (z) = -0.10724 0.29339
#
# Static dielectric constant tensor:
#      x y z
#    x 1.777060 0.000000 0.000000 
#    y 0.000000 1.865830 0.000000 
#    z 0.000000 0.000000 1.780180 
# 
# From -- ./inp_files/15192.got.cif
#   From: 2010.05.17/outbox.cif.g08.bks.cpg/sg20_8_cif.got.tgz:15192.got - 2010.06.03 22:52:26.
