data_PCOD9320109
_publ_section_title
;
Structure prediction by ZEFSAII (Michael W. Deem and Ramdas Pophale) SiO2 
 PCOD9320109
Probable space group: C 2 2 21
;
_chemical_formula_sum "Si O2"
_cell_formula_units_Z 60
_cell_length_a 8.653478
_cell_length_b 11.684490
_cell_length_c 24.564626
_cell_angle_alpha 90.000000
_cell_angle_beta 90.000000
_cell_angle_gamma 90.000000
_cell_volume 2483.765621
_symmetry_space_group_name_H-M "C 2 2 21"
_symmetry_group_IT_number 20
_symmetry_cell_setting 'orthorhombic'
loop_
_space_group_symop_operation_xyz
x,y,z
-x,-y,1/2+z
x,-y,-z
-x,y,1/2-z
1/2+x,1/2+y,z
1/2-x,1/2-y,1/2+z
1/2+x,1/2-y,-z
1/2-x,1/2+y,1/2-z
loop_
_atom_site_type_symbol
_atom_site_label
_atom_site_fract_x
_atom_site_fract_y
_atom_site_fract_z
Si Si1 0.905388 0.852960 0.097005
Si Si2 0.115947 0.160523 0.799417
Si Si3 0.884600 0.000000 0.000000
Si Si4 0.582363 0.261811 0.550759
Si Si5 0.159933 0.789412 0.769494
Si Si6 0.931598 0.618909 0.643604
Si Si7 0.193181 0.459973 0.647705
Si Si8 0.260577 0.851537 0.961527
O O1 0.732635 0.892440 0.113635
O O2 0.878887 0.734267 0.067638
O O3 0.011954 0.828870 0.147573
O O4 0.963163 0.942866 0.052271
O O5 0.222058 0.264989 0.779150
O O6 0.000000 0.133922 0.750000
O O7 0.228742 0.059298 0.816708
O O8 0.823940 0.120877 0.030955
O O9 0.542734 0.211393 0.611376
O O10 0.660904 0.153157 0.520630
O O11 0.408742 0.296952 0.533220
O O12 0.105772 0.671165 0.797678
O O13 0.251663 0.850486 0.818290
O O14 0.000000 0.847315 0.750000
O O15 0.016017 0.497804 0.646004
O O16 0.248712 0.446682 0.585441
#
# Coordination Sequence:
#
# PCOD9320109 Si02
#       8
#     8   8   4   8   8   8   8   8
#     4  10  22  44  69 104 150 188 255 318 375 481
#     4  12  24  45  74 107 141 199 263 320 394 473
#     4  10  22  42  74 102 150 204 238 314 408 432
#     4  10  22  42  70 100 148 188 242 313 365 466
#     4  12  25  53  74 106 155 196 258 336 385 471
#     4  11  24  46  71 107 151 189 257 313 385 466
#     4  12  25  45  75 102 146 201 246 323 396 456
#     4  10  22  43  65 104 147 187 248 310 373 464
#
# _framework density 24.156869
#
# number of rings (size 3 to 8) (size 9 to 14) (size 15 to 20)
#    0.000    1.067    5.333    1.200    0.000    6.933 
#    7.200    1.333    0.000    0.000    0.000    0.000 
#    0.000    0.000    0.000    0.000    0.000    0.000 
#
# Total GULP energy -167084.132829 kJ/mol
# GULP energy per Si atom -5569.471094 kJ/mol
# Density = 2.410189 g / cm^3
# Si number density = 24.156869 Si / 1000 Ang^3
#
#
#
# Elastic Constant Matrix: (Units=GPa)
#
#
# Indices 1 2 3 4 5 6 
#
# 1 82.8584 34.0586 49.5208 0.0000 0.0000 0.0000
# 2 34.0586 69.8851 51.1159 0.0000 0.0000 0.0000
# 3 49.5208 51.1159 112.9041 0.0000 0.0000 0.0000
# 4 0.0000 0.0000 0.0000 36.1157 0.0000 0.0000
# 5 0.0000 0.0000 0.0000 0.0000 36.6151 0.0000
# 6 0.0000 0.0000 0.0000 0.0000 0.0000 11.7874
#
#
#
# Elastic Compliance Matrix: (Units=1/GPa)
#
#
# Indices 1 2 3 4 5 6 
#
# 1 0.017170 -0.004275 -0.005595 0.000000 0.000000 0.000000
# 2 -0.004275 0.022458 -0.008292 0.000000 0.000000 0.000000
# 3 -0.005595 -0.008292 0.015066 0.000000 0.000000 0.000000
# 4 0.000000 0.000000 0.000000 0.027689 0.000000 0.000000
# 5 0.000000 0.000000 0.000000 0.000000 0.027311 0.000000
# 6 0.000000 0.000000 0.000000 0.000000 0.000000 0.084837
#
#
# Mechanical properties :
#
#
# Convention : Reuss Voigt Hill
#
# Bulk Modulus (GPa) = 54.44372 59.44869 56.94620
# Shear Modulus (GPa) = 21.09888 25.63379 23.36634
#
# Velocity S-wave (km/s) = 2.95856 3.26105 3.11348
# Velocity P-wave (km/s) = 5.85297 6.23234 6.04563
#
# Compressibility (1/GPa) = 0.01836759
#
# Stress axis : x y z
#
# Youngs Moduli (GPa) = 58.24017 44.52744 66.37637
#
# Poissons Ratio (x) = 0.19037 0.37141
# Poissons Ratio (y) = 0.24899 0.55042
# Poissons Ratio (z) = 0.32588 0.36924
#
# Static dielectric constant tensor:
#      x y z
#    x 1.956070 0.000000 0.000000 
#    y 0.000000 2.031940 0.000000 
#    z 0.000000 0.000000 2.003020 
# 
# From -- ./inp_files/30147.got.cif
#   From: 2010.05.17/outbox.cif.g08.bks.cpg/sg20_16_cif.got.tgz:30147.got - 2010.06.03 22:52:26.
