data_PCOD9320650
_publ_section_title
;
Structure prediction by ZEFSAII (Michael W. Deem and Ramdas Pophale) SiO2 
 PCOD9320650
Probable space group: C 2 2 21
;
_chemical_formula_sum "Si O2"
_cell_formula_units_Z 40
_cell_length_a 17.609941
_cell_length_b 12.515589
_cell_length_c 8.216135
_cell_angle_alpha 90.000000
_cell_angle_beta 90.000000
_cell_angle_gamma 90.000000
_cell_volume 1810.826162
_symmetry_space_group_name_H-M "C 2 2 21"
_symmetry_group_IT_number 20
_symmetry_cell_setting 'orthorhombic'
loop_
_space_group_symop_operation_xyz
x,y,z
-x,-y,1/2+z
x,-y,-z
-x,y,1/2-z
1/2+x,1/2+y,z
1/2-x,1/2-y,1/2+z
1/2+x,1/2-y,-z
1/2-x,1/2+y,1/2-z
loop_
_atom_site_type_symbol
_atom_site_label
_atom_site_fract_x
_atom_site_fract_y
_atom_site_fract_z
Si Si1 0.853590 0.547557 0.179714
Si Si2 0.046332 0.500000 0.000000
Si Si3 0.313902 0.471800 0.311801
Si Si4 0.574725 0.634928 0.327774
Si Si5 0.000000 0.665151 0.750000
Si Si6 0.414415 0.281485 0.184275
O O1 0.906792 0.529936 0.338022
O O2 0.775049 0.487561 0.224924
O O3 0.863629 0.675183 0.158705
O O4 0.869585 0.500000 0.000000
O O5 0.002199 0.599261 0.917390
O O6 0.322716 0.500000 0.500000
O O7 0.354237 0.564249 0.209750
O O8 0.359741 0.362427 0.282935
O O9 0.500000 0.580231 0.250000
O O10 0.571066 0.753245 0.247640
O O11 0.568548 0.657032 0.516739
O O12 0.500000 0.257455 0.250000
#
# Coordination Sequence:
#
# PCOD9320650 Si02
#       6
#     8   4   8   8   4   8
#     4  11  29  49  72 111 154 200 250 313 377 460
#     4  12  26  44  76 104 154 190 254 296 394 438
#     4  11  26  48  72 106 152 195 255 309 379 461
#     4  10  23  44  71 107 143 192 250 314 376 440
#     4  10  26  42  74 106 146 194 244 324 368 458
#     4  12  25  46  79 109 145 201 254 314 380 446
#
# _framework density 22.089366999999999
#
# number of rings (size 3 to 8) (size 9 to 14) (size 15 to 20)
#    0.600    0.400    0.000    4.800   11.200    4.800 
#    0.000    0.000    0.000    0.000    0.000    0.000 
#    0.000    0.000    0.000    0.000    0.000    0.000 
#
# Total GULP energy -111468.990098 kJ/mol
# GULP energy per Si atom -5573.449505 kJ/mol
# Density = 2.203909 g / cm^3
# Si number density = 22.089367 Si / 1000 Ang^3
#
#
#
# Elastic Constant Matrix: (Units=GPa)
#
#
# Indices 1 2 3 4 5 6 
#
# 1 94.6091 49.7736 23.1733 0.0000 0.0000 0.0000
# 2 49.7736 127.8316 28.1810 0.0000 0.0000 0.0000
# 3 23.1733 28.1810 76.6803 0.0000 0.0000 0.0000
# 4 0.0000 0.0000 0.0000 41.9855 0.0000 0.0000
# 5 0.0000 0.0000 0.0000 0.0000 38.8092 0.0000
# 6 0.0000 0.0000 0.0000 0.0000 0.0000 16.5466
#
#
#
# Elastic Compliance Matrix: (Units=1/GPa)
#
#
# Indices 1 2 3 4 5 6 
#
# 1 0.013677 -0.004803 -0.002368 0.000000 0.000000 0.000000
# 2 -0.004803 0.010199 -0.002297 0.000000 0.000000 0.000000
# 3 -0.002368 -0.002297 0.014601 0.000000 0.000000 0.000000
# 4 0.000000 0.000000 0.000000 0.023818 0.000000 0.000000
# 5 0.000000 0.000000 0.000000 0.000000 0.025767 0.000000
# 6 0.000000 0.000000 0.000000 0.000000 0.000000 0.060435
#
#
# Mechanical properties :
#
#
# Convention : Reuss Voigt Hill
#
# Bulk Modulus (GPa) = 51.17462 55.70856 53.44159
# Shear Modulus (GPa) = 28.74439 32.66779 30.70609
#
# Velocity S-wave (km/s) = 3.61124 3.84981 3.73243
# Velocity P-wave (km/s) = 6.37224 6.71087 6.54374
#
# Compressibility (1/GPa) = 0.01954093
#
# Stress axis : x y z
#
# Youngs Moduli (GPa) = 73.11642 98.04503 68.48905
#
# Poissons Ratio (x) = 0.47094 0.16218
# Poissons Ratio (y) = 0.35120 0.15731
# Poissons Ratio (z) = 0.17314 0.22519
#
# Static dielectric constant tensor:
#      x y z
#    x 2.034780 0.000000 0.000000 
#    y 0.000000 1.896900 0.000000 
#    z 0.000000 0.000000 1.714020 
# 
# From -- ./inp_files/9153.got.cif
#   From: 2010.05.17/outbox.cif.g08.bks.cpg/sg20_5_cif.got.tgz:9153.got - 2010.06.03 22:52:26.
