data_PCOD9320256
_publ_section_title
;
Structure prediction by ZEFSAII (Michael W. Deem and Ramdas Pophale) SiO2 
 PCOD9320256
Probable space group: C 2 2 21
;
_chemical_formula_sum "Si O2"
_cell_formula_units_Z 56
_cell_length_a 15.617316
_cell_length_b 30.565021
_cell_length_c 5.570970
_cell_angle_alpha 90.000000
_cell_angle_beta 90.000000
_cell_angle_gamma 90.000000
_cell_volume 2659.266828
_symmetry_space_group_name_H-M "C 2 2 21"
_symmetry_group_IT_number 20
_symmetry_cell_setting 'orthorhombic'
loop_
_space_group_symop_operation_xyz
x,y,z
-x,-y,1/2+z
x,-y,-z
-x,y,1/2-z
1/2+x,1/2+y,z
1/2-x,1/2-y,1/2+z
1/2+x,1/2-y,-z
1/2-x,1/2+y,1/2-z
loop_
_atom_site_type_symbol
_atom_site_label
_atom_site_fract_x
_atom_site_fract_y
_atom_site_fract_z
Si Si1 0.500000 0.650926 0.750000
Si Si2 0.836022 0.947666 0.965138
Si Si3 0.232467 0.455649 0.353061
Si Si4 0.170313 0.600787 0.262105
Si Si5 0.936705 0.545240 0.567189
Si Si6 0.825890 0.205819 0.736231
Si Si7 0.500000 0.595266 0.250000
Si Si8 0.277453 0.195730 0.265471
O O1 0.415631 0.681071 0.753733
O O2 0.493392 0.623468 0.498133
O O3 0.756496 0.921166 0.852811
O O4 0.918509 0.934900 0.816413
O O5 0.820943 0.936440 0.245226
O O6 0.825809 0.000000 0.000000
O O7 0.251610 0.500000 0.500000
O O8 0.186108 0.414304 0.470397
O O9 0.153455 0.469683 0.184328
O O10 0.167090 0.651979 0.231453
O O11 0.091209 0.575646 0.149032
O O12 0.982832 0.500000 0.500000
O O13 0.000000 0.568622 0.750000
O O14 0.779143 0.194221 0.481539
O O15 0.828945 0.258771 0.736872
O O16 0.775623 0.194598 0.984047
#
# Coordination Sequence:
#
# PCOD9320256 Si02
#       8
#     4   8   8   8   8   8   4   8
#     4  12  24  45  68  98 134 176 222 285 348 412
#     4  11  24  42  60  92 136 180 225 280 339 396
#     4  11  20  39  65  87 124 183 230 273 331 408
#     4  11  22  39  66  95 123 176 230 277 332 416
#     4  11  23  37  58  92 132 174 226 279 340 396
#     4  10  22  44  68  98 131 170 214 276 350 405
#     4  12  30  41  68 102 132 182 236 283 336 414
#     4  10  23  41  71  99 129 169 224 276 332 417
#
# _framework density 21.058436
#
# number of rings (size 3 to 8) (size 9 to 14) (size 15 to 20)
#    0.000    1.143    2.857    3.857    8.000    0.571 
#    0.000    1.429    1.571    0.000    0.000    0.000 
#    0.000    0.000    0.000    0.000    0.000    0.000 
#
# Total GULP energy -155963.578086 kJ/mol
# GULP energy per Si atom -5570.127789 kJ/mol
# Density = 2.101051 g / cm^3
# Si number density = 21.058436 Si / 1000 Ang^3
#
#
#
# Elastic Constant Matrix: (Units=GPa)
#
#
# Indices 1 2 3 4 5 6 
#
# 1 84.3963 22.6685 40.0641 0.0000 0.0000 0.0000
# 2 22.6685 103.3395 36.2703 0.0000 0.0000 0.0000
# 3 40.0641 36.2703 116.8447 0.0000 0.0000 0.0000
# 4 0.0000 0.0000 0.0000 22.2938 0.0000 0.0000
# 5 0.0000 0.0000 0.0000 0.0000 43.5477 0.0000
# 6 0.0000 0.0000 0.0000 0.0000 0.0000 -21.7581
#
#
#
# Elastic Compliance Matrix: (Units=1/GPa)
#
#
# Indices 1 2 3 4 5 6 
#
# 1 0.014384 -0.001598 -0.004436 0.000000 0.000000 0.000000
# 2 -0.001598 0.011038 -0.002878 0.000000 0.000000 0.000000
# 3 -0.004436 -0.002878 0.010973 0.000000 0.000000 0.000000
# 4 0.000000 0.000000 0.000000 0.044856 0.000000 0.000000
# 5 0.000000 0.000000 0.000000 0.000000 0.022963 0.000000
# 6 0.000000 0.000000 0.000000 0.000000 0.000000 -0.045960
#
#
# Mechanical properties :
#
#
# Convention : Reuss Voigt Hill
#
# Bulk Modulus (GPa) = 53.85160 55.84294 54.84727
# Shear Modulus (GPa) = 60.77688 22.52183 41.64935
#
# Velocity S-wave (km/s) = 5.37808 3.27386 4.45207
# Velocity P-wave (km/s) = 8.01205 6.39269 7.24774
#
# Compressibility (1/GPa) = 0.01856955
#
# Stress axis : x y z
#
# Youngs Moduli (GPa) = 69.52198 90.59901 91.13448
#
# Poissons Ratio (x) = 0.14481 0.40426
# Poissons Ratio (y) = 0.11112 0.26230
# Poissons Ratio (z) = 0.30839 0.26076
#
# Static dielectric constant tensor:
#      x y z
#    x 1.754680 0.000000 0.000000 
#    y 0.000000 1.762420 0.000000 
#    z 0.000000 0.000000 2.181350 
# 
# From -- ./inp_files/2262.got.cif
#   From: 2010.05.17/outbox.cif.g08.bks.cpg/sg20_2_cif.got.tgz:2262.got - 2010.06.03 22:52:26.
