data_PCOD9320872
_publ_section_title
;
Structure prediction by ZEFSAII (Michael W. Deem and Ramdas Pophale) SiO2 
 PCOD9320872
Probable space group: C 2 2 21
;
_chemical_formula_sum "Si O2"
_cell_formula_units_Z 24
_cell_length_a 8.850454
_cell_length_b 23.700636
_cell_length_c 5.268666
_cell_angle_alpha 90.000000
_cell_angle_beta 90.000000
_cell_angle_gamma 90.000000
_cell_volume 1105.162697
_symmetry_space_group_name_H-M "C 2 2 21"
_symmetry_group_IT_number 20
_symmetry_cell_setting 'orthorhombic'
loop_
_space_group_symop_operation_xyz
x,y,z
-x,-y,1/2+z
x,-y,-z
-x,y,1/2-z
1/2+x,1/2+y,z
1/2-x,1/2-y,1/2+z
1/2+x,1/2-y,-z
1/2-x,1/2+y,1/2-z
loop_
_atom_site_type_symbol
_atom_site_label
_atom_site_fract_x
_atom_site_fract_y
_atom_site_fract_z
Si Si1 0.817766 0.533696 0.746092
Si Si2 0.323535 0.655812 0.766545
Si Si3 0.896537 0.730764 0.000850
O O1 0.765532 0.500000 0.500000
O O2 0.762959 0.597451 0.708688
O O3 0.000000 0.534608 0.750000
O O4 0.768453 0.500000 0.000000
O O5 0.500000 0.641824 0.750000
O O6 0.239887 0.686880 0.532614
O O7 0.326202 0.706668 0.971349
O O8 0.000000 0.725814 0.750000
O O9 0.000000 0.721646 0.250000
#
# Coordination Sequence:
#
# PCOD9320872 Si02
#       3
#     8   8   8
#     4  10  24  44  65  90 126 176 224 269 330 402
#     4  11  24  42  69 101 134 171 224 282 334 392
#     4  11  25  44  67 101 142 181 217 269 346 416
#
# _framework density 21.716259999999998
#
# number of rings (size 3 to 8) (size 9 to 14) (size 15 to 20)
#    0.000    1.333    0.000    5.000    0.000   16.000 
#    0.000    1.667    0.000    0.000    0.000    0.000 
#    0.000    0.000    0.000    0.000    0.000    0.000 
#
# Total GULP energy -67010.308507 kJ/mol
# GULP energy per Si atom -5584.192376 kJ/mol
# Density = 2.166683 g / cm^3
# Si number density = 21.716260 Si / 1000 Ang^3
#
#
#
# Elastic Constant Matrix: (Units=GPa)
#
#
# Indices 1 2 3 4 5 6 
#
# 1 64.0871 16.1624 60.3831 0.0000 0.0000 0.0000
# 2 16.1624 146.7188 54.5265 0.0000 0.0000 0.0000
# 3 60.3831 54.5265 176.5658 0.0000 0.0000 0.0000
# 4 0.0000 0.0000 0.0000 32.3587 0.0000 0.0000
# 5 0.0000 0.0000 0.0000 0.0000 27.7222 0.0000
# 6 0.0000 0.0000 0.0000 0.0000 0.0000 170.8523
#
#
#
# Elastic Compliance Matrix: (Units=1/GPa)
#
#
# Indices 1 2 3 4 5 6 
#
# 1 0.023047 0.000441 -0.008018 0.000000 0.000000 0.000000
# 2 0.000441 0.007708 -0.002531 0.000000 0.000000 0.000000
# 3 -0.008018 -0.002531 0.009187 0.000000 0.000000 0.000000
# 4 0.000000 0.000000 0.000000 0.030904 0.000000 0.000000
# 5 0.000000 0.000000 0.000000 0.000000 0.036072 0.000000
# 6 0.000000 0.000000 0.000000 0.000000 0.000000 0.005853
#
#
# Mechanical properties :
#
#
# Convention : Reuss Voigt Hill
#
# Bulk Modulus (GPa) = 50.69456 72.16842 61.43149
# Shear Modulus (GPa) = 35.82621 63.27328 49.54974
#
# Velocity S-wave (km/s) = 4.06611 5.40367 4.78188
# Velocity P-wave (km/s) = 6.74085 8.49926 7.67061
#
# Compressibility (1/GPa) = 0.01972598
#
# Stress axis : x y z
#
# Youngs Moduli (GPa) = 43.38943 129.73790 108.84602
#
# Poissons Ratio (x) = -0.05721 0.87272
# Poissons Ratio (y) = -0.01913 0.27550
# Poissons Ratio (z) = 0.34789 0.32838
#
# Static dielectric constant tensor:
#      x y z
#    x 1.831350 0.000000 0.000000 
#    y 0.000000 1.757820 0.000000 
#    z 0.000000 0.000000 1.817430 
# 
# From -- ./inp_files/316.got.cif
#   From: 2010.05.17/outbox.cif.g08.bks.cpg/sg20_1_cif.got.tgz:316.got - 2010.06.03 22:52:26.
