data_PCOD9320880
_publ_section_title
;
Structure prediction by ZEFSAII (Michael W. Deem and Ramdas Pophale) SiO2 
 PCOD9320880
Probable space group: C 2 2 21
;
_chemical_formula_sum "Si O2"
_cell_formula_units_Z 40
_cell_length_a 8.508248
_cell_length_b 11.437233
_cell_length_c 17.815122
_cell_angle_alpha 90.000000
_cell_angle_beta 90.000000
_cell_angle_gamma 90.000000
_cell_volume 1733.604038
_symmetry_space_group_name_H-M "C 2 2 21"
_symmetry_group_IT_number 20
_symmetry_cell_setting 'orthorhombic'
loop_
_space_group_symop_operation_xyz
x,y,z
-x,-y,1/2+z
x,-y,-z
-x,y,1/2-z
1/2+x,1/2+y,z
1/2-x,1/2-y,1/2+z
1/2+x,1/2-y,-z
1/2-x,1/2+y,1/2-z
loop_
_atom_site_type_symbol
_atom_site_label
_atom_site_fract_x
_atom_site_fract_y
_atom_site_fract_z
Si Si1 0.430804 0.818792 0.089153
Si Si2 0.727837 0.177990 0.185598
Si Si3 0.628096 0.789282 0.643066
Si Si4 0.764037 0.457423 0.413499
Si Si5 0.656457 0.623574 0.022884
O O1 0.366343 0.768187 0.166615
O O2 0.551750 0.924266 0.096305
O O3 0.528058 0.719227 0.044371
O O4 0.273648 0.841877 0.043234
O O5 0.559576 0.202081 0.145465
O O6 0.690327 0.187979 0.273066
O O7 0.779927 0.056304 0.147044
O O8 0.674716 0.662412 0.608822
O O9 0.723109 0.881563 0.592644
O O10 0.748533 0.500000 0.500000
O O11 0.585785 0.500000 0.000000
#
# Coordination Sequence:
#
# PCOD9320880 Si02
#       5
#     8   8   8   8   8
#     4  11  24  40  65  96 125 168 223 267 323 398
#     4  11  24  44  67  96 138 174 213 280 334 389
#     4  10  24  44  68 101 134 174 227 269 331 409
#     4  11  24  44  69  96 132 177 222 277 333 390
#     4  11  23  40  63  92 127 167 214 268 322 383
#
# _framework density 23.073319999999999
#
# number of rings (size 3 to 8) (size 9 to 14) (size 15 to 20)
#    0.000    1.200    0.000    6.600    0.000   13.600 
#    0.000    7.000    0.000    0.000    0.000    0.000 
#    0.000    0.000    0.000    0.000    0.000    0.000 
#
# Total GULP energy -111899.927015 kJ/mol
# GULP energy per Si atom -5594.996351 kJ/mol
# Density = 2.302080 g / cm^3
# Si number density = 23.073320 Si / 1000 Ang^3
#
#
#
# Elastic Constant Matrix: (Units=GPa)
#
#
# Indices 1 2 3 4 5 6 
#
# 1 44.3975 25.1525 -0.8905 0.0000 0.0000 0.0000
# 2 25.1525 81.7147 43.6581 0.0000 0.0000 0.0000
# 3 -0.8905 43.6581 87.5932 0.0000 0.0000 0.0000
# 4 0.0000 0.0000 0.0000 27.8808 0.0000 0.0000
# 5 0.0000 0.0000 0.0000 0.0000 36.9260 0.0000
# 6 0.0000 0.0000 0.0000 0.0000 0.0000 15.1295
#
#
#
# Elastic Compliance Matrix: (Units=1/GPa)
#
#
# Indices 1 2 3 4 5 6 
#
# 1 0.029886 -0.012759 0.006663 0.000000 0.000000 0.000000
# 2 -0.012759 0.022126 -0.011158 0.000000 0.000000 0.000000
# 3 0.006663 -0.011158 0.017045 0.000000 0.000000 0.000000
# 4 0.000000 0.000000 0.000000 0.035867 0.000000 0.000000
# 5 0.000000 0.000000 0.000000 0.000000 0.027081 0.000000
# 6 0.000000 0.000000 0.000000 0.000000 0.000000 0.066096
#
#
# Mechanical properties :
#
#
# Convention : Reuss Voigt Hill
#
# Bulk Modulus (GPa) = 28.94351 38.83841 33.89096
# Shear Modulus (GPa) = 20.48119 25.70628 23.09374
#
# Velocity S-wave (km/s) = 2.98259 3.34145 3.16711
# Velocity P-wave (km/s) = 4.94292 5.63527 5.30041
#
# Compressibility (1/GPa) = 0.03455005
#
# Stress axis : x y z
#
# Youngs Moduli (GPa) = 33.46071 45.19480 58.66662
#
# Poissons Ratio (x) = 0.57664 -0.39091
# Poissons Ratio (y) = 0.42693 0.65460
# Poissons Ratio (z) = -0.22295 0.50428
#
# Static dielectric constant tensor:
#      x y z
#    x 1.857740 0.000000 0.000000 
#    y 0.000000 1.898890 0.000000 
#    z 0.000000 0.000000 1.835040 
# 
# From -- ./inp_files/26495.got.cif
#   From: 2010.05.17/outbox.cif.g08.bks.cpg/sg20_14_cif.got.tgz:26495.got - 2010.06.03 22:52:26.
