data_PCOD9320370
_publ_section_title
;
Structure prediction by ZEFSAII (Michael W. Deem and Ramdas Pophale) SiO2 
 PCOD9320370
Probable space group: C 2 2 21
;
_chemical_formula_sum "Si O2"
_cell_formula_units_Z 32
_cell_length_a 17.758876
_cell_length_b 14.109237
_cell_length_c 5.037252
_cell_angle_alpha 90.000000
_cell_angle_beta 90.000000
_cell_angle_gamma 90.000000
_cell_volume 1262.154969
_symmetry_space_group_name_H-M "C 2 2 21"
_symmetry_group_IT_number 20
_symmetry_cell_setting 'orthorhombic'
loop_
_space_group_symop_operation_xyz
x,y,z
-x,-y,1/2+z
x,-y,-z
-x,y,1/2-z
1/2+x,1/2+y,z
1/2-x,1/2-y,1/2+z
1/2+x,1/2-y,-z
1/2-x,1/2+y,1/2-z
loop_
_atom_site_type_symbol
_atom_site_label
_atom_site_fract_x
_atom_site_fract_y
_atom_site_fract_z
Si Si1 0.055025 0.000000 0.000000
Si Si2 0.500000 0.843247 0.750000
Si Si3 0.709839 0.000000 0.000000
Si Si4 0.782116 0.796041 0.990626
Si Si5 0.918844 0.200127 0.381405
Si Si6 0.400322 0.000000 0.000000
O O1 0.103021 0.096159 0.010460
O O2 0.000000 0.987115 0.250000
O O3 0.439367 0.779122 0.595965
O O4 0.545164 0.911049 0.549918
O O5 0.760459 0.093848 0.019133
O O6 0.654306 0.989171 0.249695
O O7 0.725016 0.742100 0.789146
O O8 0.860809 0.774678 0.848368
O O9 0.000000 0.182968 0.250000
#
# Coordination Sequence:
#
# PCOD9320370 Si02
#       6
#     4   4   4   8   8   4
#     4  10  22  46  72 112 146 194 252 320 404 464
#     4  12  28  50  82 118 160 210 278 348 396 474
#     4  12  29  55  80 113 171 210 270 332 406 500
#     4  12  30  51  81 118 163 216 269 328 414 488
#     4  11  28  48  81 114 160 203 272 338 402 476
#     4  12  29  49  82 119 157 220 274 332 406 478
#
# _framework density 25.353462
#
# number of rings (size 3 to 8) (size 9 to 14) (size 15 to 20)
#    0.000    0.500    1.250    3.750   15.750    7.000 
#    0.000    0.000    0.000    0.000    0.000    0.000 
#    0.000    0.000    0.000    0.000    0.000    0.000 
#
# Total GULP energy -89826.601131 kJ/mol
# GULP energy per Si atom -5614.162571 kJ/mol
# Density = 2.529576 g / cm^3
# Si number density = 25.353462 Si / 1000 Ang^3
#
#
#
# Elastic Constant Matrix: (Units=GPa)
#
#
# Indices 1 2 3 4 5 6 
#
# 1 109.8358 26.8629 15.5827 0.0000 0.0000 0.0000
# 2 26.8629 192.3405 33.2666 0.0000 0.0000 0.0000
# 3 15.5827 33.2666 136.5882 0.0000 0.0000 0.0000
# 4 0.0000 0.0000 0.0000 43.6957 0.0000 0.0000
# 5 0.0000 0.0000 0.0000 0.0000 40.0703 0.0000
# 6 0.0000 0.0000 0.0000 0.0000 0.0000 14.1877
#
#
#
# Elastic Compliance Matrix: (Units=1/GPa)
#
#
# Indices 1 2 3 4 5 6 
#
# 1 0.009508 -0.001191 -0.000795 0.000000 0.000000 0.000000
# 2 -0.001191 0.005577 -0.001222 0.000000 0.000000 0.000000
# 3 -0.000795 -0.001222 0.007710 0.000000 0.000000 0.000000
# 4 0.000000 0.000000 0.000000 0.022886 0.000000 0.000000
# 5 0.000000 0.000000 0.000000 0.000000 0.024956 0.000000
# 6 0.000000 0.000000 0.000000 0.000000 0.000000 0.070484
#
#
# Mechanical properties :
#
#
# Convention : Reuss Voigt Hill
#
# Bulk Modulus (GPa) = 61.05229 65.57653 63.31441
# Shear Modulus (GPa) = 32.68067 43.79422 38.23745
#
# Velocity S-wave (km/s) = 3.59416 4.16065 3.88774
# Velocity P-wave (km/s) = 6.43092 7.00017 6.72157
#
# Compressibility (1/GPa) = 0.01637940
#
# Stress axis : x y z
#
# Youngs Moduli (GPa) = 105.16989 179.31396 129.70700
#
# Poissons Ratio (x) = 0.21347 0.10309
# Poissons Ratio (y) = 0.12521 0.15856
# Poissons Ratio (z) = 0.08359 0.21920
#
# Static dielectric constant tensor:
#      x y z
#    x 2.002510 0.000000 0.000000 
#    y 0.000000 2.045590 0.000000 
#    z 0.000000 0.000000 1.989260 
# 
# From -- ./inp_files/1632.got.cif
#   From: 2010.05.17/outbox.cif.g08.bks.cpg/sg20_1_cif.got.tgz:1632.got - 2010.06.03 22:52:26.
