data_PCOD9320620
_publ_section_title
;
Structure prediction by ZEFSAII (Michael W. Deem and Ramdas Pophale) SiO2 
 PCOD9320620
Probable space group: C 2 2 21
;
_chemical_formula_sum "Si O2"
_cell_formula_units_Z 48
_cell_length_a 17.840668
_cell_length_b 6.903039
_cell_length_c 20.407967
_cell_angle_alpha 90.000000
_cell_angle_beta 90.000000
_cell_angle_gamma 90.000000
_cell_volume 2513.339645
_symmetry_space_group_name_H-M "C 2 2 21"
_symmetry_group_IT_number 20
_symmetry_cell_setting 'orthorhombic'
loop_
_space_group_symop_operation_xyz
x,y,z
-x,-y,1/2+z
x,-y,-z
-x,y,1/2-z
1/2+x,1/2+y,z
1/2-x,1/2-y,1/2+z
1/2+x,1/2-y,-z
1/2-x,1/2+y,1/2-z
loop_
_atom_site_type_symbol
_atom_site_label
_atom_site_fract_x
_atom_site_fract_y
_atom_site_fract_z
Si Si1 0.392953 0.939404 0.396306
Si Si2 0.337469 0.832416 0.043177
Si Si3 0.019761 0.500000 0.500000
Si Si4 0.347003 0.741084 0.710509
Si Si5 0.231001 0.500000 0.000000
Si Si6 0.579768 0.343634 0.780972
Si Si7 0.182510 0.420716 0.308396
O O1 0.465078 0.006209 0.437928
O O2 0.368421 0.109614 0.346818
O O3 0.324773 0.904172 0.446867
O O4 0.411439 0.752735 0.352336
O O5 0.420772 0.824594 0.011201
O O6 0.285982 0.646548 0.037188
O O7 0.344940 0.903245 0.117362
O O8 0.298811 0.000000 0.000000
O O9 0.407777 0.573045 0.718423
O O10 0.270241 0.629356 0.693850
O O11 0.334591 0.872953 0.774942
O O12 0.500000 0.293098 0.750000
O O13 0.641468 0.241681 0.735111
#
# Coordination Sequence:
#
# PCOD9320620 Si02
#       7
#     8   8   4   8   4   8   8
#     4  10  23  44  64  92 134 169 218 267 326 388
#     4  10  24  39  66  95 128 168 216 268 320 380
#     4   9  22  46  60  91 136 176 200 281 318 376
#     4  11  23  40  70  96 125 172 212 274 324 383
#     4  11  22  40  70  95 126 174 226 263 324 396
#     4  11  25  41  65  96 130 171 215 271 326 393
#     4  11  22  42  66  98 130 160 222 268 325 379
#
# _framework density 19.098096999999999
#
# number of rings (size 3 to 8) (size 9 to 14) (size 15 to 20)
#    0.500    1.000    3.333    1.000    2.333    5.333 
#    6.000    1.667    0.000    0.000    0.000    0.000 
#    0.000    0.000    0.000    0.000    0.000    0.000 
#
# Total GULP energy -133882.114055 kJ/mol
# GULP energy per Si atom -5578.421419 kJ/mol
# Density = 1.905463 g / cm^3
# Si number density = 19.098097 Si / 1000 Ang^3
#
#
#
# Elastic Constant Matrix: (Units=GPa)
#
#
# Indices 1 2 3 4 5 6 
#
# 1 108.2489 18.4390 34.6738 0.0000 0.0000 0.0000
# 2 18.4390 80.2241 42.2754 0.0000 0.0000 0.0000
# 3 34.6738 42.2754 121.1294 0.0000 0.0000 0.0000
# 4 0.0000 0.0000 0.0000 15.9955 0.0000 0.0000
# 5 0.0000 0.0000 0.0000 0.0000 22.4294 0.0000
# 6 0.0000 0.0000 0.0000 0.0000 0.0000 -159.4923
#
#
#
# Elastic Compliance Matrix: (Units=1/GPa)
#
#
# Indices 1 2 3 4 5 6 
#
# 1 0.010234 -0.000991 -0.002584 0.000000 0.000000 0.000000
# 2 -0.000991 0.015370 -0.005081 0.000000 0.000000 0.000000
# 3 -0.002584 -0.005081 0.010769 0.000000 0.000000 0.000000
# 4 0.000000 0.000000 0.000000 0.062518 0.000000 0.000000
# 5 0.000000 0.000000 0.000000 0.000000 0.044584 0.000000
# 6 0.000000 0.000000 0.000000 0.000000 0.000000 -0.006270
#
#
# Mechanical properties :
#
#
# Convention : Reuss Voigt Hill
#
# Bulk Modulus (GPa) = 52.45922 55.59765 54.02843
# Shear Modulus (GPa) = 31.08099 -9.93255 10.57422
#
# Velocity S-wave (km/s) = 4.03853 -2.28300 2.35559
# Velocity P-wave (km/s) = 7.01956 4.71438 5.97911
#
# Compressibility (1/GPa) = 0.01906243
#
# Stress axis : x y z
#
# Youngs Moduli (GPa) = 97.70996 65.06101 92.86330
#
# Poissons Ratio (x) = 0.06445 0.23995
# Poissons Ratio (y) = 0.09680 0.47182
# Poissons Ratio (z) = 0.25247 0.33056
#
# Static dielectric constant tensor:
#      x y z
#    x 1.665570 0.000000 0.000000 
#    y 0.000000 1.659640 0.000000 
#    z 0.000000 0.000000 1.710340 
# 
# From -- ./inp_files/27864.got.cif
#   From: 2010.05.17/outbox.cif.g08.bks.cpg/sg20_14_cif.got.tgz:27864.got - 2010.06.03 22:52:26.
