data_PCOD9320351
_publ_section_title
;
Structure prediction by ZEFSAII (Michael W. Deem and Ramdas Pophale) SiO2 
 PCOD9320351
Probable space group: C 2 2 21
;
_chemical_formula_sum "Si O2"
_cell_formula_units_Z 32
_cell_length_a 6.964383
_cell_length_b 17.579987
_cell_length_c 9.745486
_cell_angle_alpha 90.000000
_cell_angle_beta 90.000000
_cell_angle_gamma 90.000000
_cell_volume 1193.176519
_symmetry_space_group_name_H-M "C 2 2 21"
_symmetry_group_IT_number 20
_symmetry_cell_setting 'orthorhombic'
loop_
_space_group_symop_operation_xyz
x,y,z
-x,-y,1/2+z
x,-y,-z
-x,y,1/2-z
1/2+x,1/2+y,z
1/2-x,1/2-y,1/2+z
1/2+x,1/2-y,-z
1/2-x,1/2+y,1/2-z
loop_
_atom_site_type_symbol
_atom_site_label
_atom_site_fract_x
_atom_site_fract_y
_atom_site_fract_z
Si Si1 0.777812 0.938818 0.288250
Si Si2 0.899499 0.718856 0.122498
Si Si3 0.256680 0.131076 0.501442
Si Si4 0.148046 0.096480 0.087210
O O1 0.316260 0.907662 0.351918
O O2 0.770053 0.893857 0.431975
O O3 0.000000 0.935579 0.250000
O O4 0.750012 0.025623 0.338519
O O5 0.843168 0.786794 0.024058
O O6 0.000000 0.758646 0.250000
O O7 0.706907 0.673765 0.160944
O O8 0.052298 0.654431 0.078309
O O9 0.081753 0.084281 0.430687
#
# Coordination Sequence:
#
# PCOD9320351 Si02
#       4
#     8   8   8   8
#     4   9  21  44  72  98 144 189 237 289 366 431
#     4  12  26  44  71 107 142 186 249 294 363 439
#     4  11  24  47  74 103 145 194 235 305 363 426
#     4  10  22  46  68 104 141 187 237 298 359 428
#
# _framework density 26.819165999999999
#
# number of rings (size 3 to 8) (size 9 to 14) (size 15 to 20)
#    0.000    1.500    2.500    2.250    3.500    1.000 
#    9.000    0.000    0.000    0.000    0.000    0.000 
#    0.000    0.000    0.000    0.000    0.000    0.000 
#
# Total GULP energy -89434.787477 kJ/mol
# GULP energy per Si atom -5589.674217 kJ/mol
# Density = 2.675812 g / cm^3
# Si number density = 26.819166 Si / 1000 Ang^3
#
#
#
# Elastic Constant Matrix: (Units=GPa)
#
#
# Indices 1 2 3 4 5 6 
#
# 1 99.6848 17.5687 39.7421 0.0000 0.0000 0.0000
# 2 17.5687 108.2829 21.7000 0.0000 0.0000 0.0000
# 3 39.7421 21.7000 98.4644 0.0000 0.0000 0.0000
# 4 0.0000 0.0000 0.0000 57.6006 0.0000 0.0000
# 5 0.0000 0.0000 0.0000 0.0000 46.4870 0.0000
# 6 0.0000 0.0000 0.0000 0.0000 0.0000 31.0240
#
#
#
# Elastic Compliance Matrix: (Units=1/GPa)
#
#
# Indices 1 2 3 4 5 6 
#
# 1 0.012064 -0.001027 -0.004643 0.000000 0.000000 0.000000
# 2 -0.001027 0.009749 -0.001734 0.000000 0.000000 0.000000
# 3 -0.004643 -0.001734 0.012412 0.000000 0.000000 0.000000
# 4 0.000000 0.000000 0.000000 0.017361 0.000000 0.000000
# 5 0.000000 0.000000 0.000000 0.000000 0.021511 0.000000
# 6 0.000000 0.000000 0.000000 0.000000 0.000000 0.032233
#
#
# Mechanical properties :
#
#
# Convention : Reuss Voigt Hill
#
# Bulk Modulus (GPa) = 51.50050 51.60597 51.55324
# Shear Modulus (GPa) = 39.49131 42.18376 40.83754
#
# Velocity S-wave (km/s) = 3.84148 3.97028 3.90641
# Velocity P-wave (km/s) = 6.23863 6.34834 6.29373
#
# Compressibility (1/GPa) = 0.01941729
#
# Stress axis : x y z
#
# Youngs Moduli (GPa) = 82.89424 102.57259 80.56692
#
# Poissons Ratio (x) = 0.10533 0.37405
# Poissons Ratio (y) = 0.08512 0.13971
# Poissons Ratio (z) = 0.38486 0.17787
#
# Static dielectric constant tensor:
#      x y z
#    x 2.086060 0.000000 0.000000 
#    y 0.000000 2.076430 0.000000 
#    z 0.000000 0.000000 2.253100 
# 
# From -- ./inp_files/11903.got.cif
#   From: 2010.05.17/outbox.cif.g08.bks.cpg/sg20_6_cif.got.tgz:11903.got - 2010.06.03 22:52:26.
