data_PCOD9320549
_publ_section_title
;
Structure prediction by ZEFSAII (Michael W. Deem and Ramdas Pophale) SiO2 
 PCOD9320549
Probable space group: C 2 2 21
;
_chemical_formula_sum "Si O2"
_cell_formula_units_Z 28
_cell_length_a 32.245362
_cell_length_b 5.036942
_cell_length_c 7.646106
_cell_angle_alpha 90.000000
_cell_angle_beta 90.000000
_cell_angle_gamma 90.000000
_cell_volume 1241.865383
_symmetry_space_group_name_H-M "C 2 2 21"
_symmetry_group_IT_number 20
_symmetry_cell_setting 'orthorhombic'
loop_
_space_group_symop_operation_xyz
x,y,z
-x,-y,1/2+z
x,-y,-z
-x,y,1/2-z
1/2+x,1/2+y,z
1/2-x,1/2-y,1/2+z
1/2+x,1/2-y,-z
1/2-x,1/2+y,1/2-z
loop_
_atom_site_type_symbol
_atom_site_label
_atom_site_fract_x
_atom_site_fract_y
_atom_site_fract_z
Si Si1 0.241616 0.682966 0.353518
Si Si2 0.451698 0.574409 0.796480
Si Si3 0.837865 0.500000 0.000000
Si Si4 0.900530 0.585698 0.691904
O O1 0.264345 0.500000 0.500000
O O2 0.240481 0.465521 0.197549
O O3 0.194774 0.712722 0.423283
O O4 0.500000 0.566560 0.750000
O O5 0.425791 0.358362 0.688110
O O6 0.432500 0.860408 0.757299
O O7 0.446545 0.500000 0.000000
O O8 0.865384 0.398559 0.159792
O O9 0.885195 0.500000 0.500000
#
# Coordination Sequence:
#
# PCOD9320549 Si02
#       4
#     8   8   4   8
#     4  10  23  42  70  97 136 176 229 273 353 411
#     4  12  24  44  69 101 143 183 235 289 340 412
#     4  10  26  46  74 100 150 172 236 292 352 404
#     4  12  25  45  69 101 139 187 233 284 352 403
#
# _framework density 22.546724999999999
#
# number of rings (size 3 to 8) (size 9 to 14) (size 15 to 20)
#    0.857    0.000    2.857    4.286    0.000    6.857 
#    0.000    0.000    0.000    0.000    0.000    0.000 
#    0.000    0.000    0.000    0.000    0.000    0.000 
#
# Total GULP energy -78245.541768 kJ/mol
# GULP energy per Si atom -5588.967269 kJ/mol
# Density = 2.249541 g / cm^3
# Si number density = 22.546725 Si / 1000 Ang^3
#
#
#
# Elastic Constant Matrix: (Units=GPa)
#
#
# Indices 1 2 3 4 5 6 
#
# 1 115.7386 33.3215 40.7739 0.0000 0.0000 0.0000
# 2 33.3215 117.4394 13.6961 0.0000 0.0000 0.0000
# 3 40.7739 13.6961 145.2208 0.0000 0.0000 0.0000
# 4 0.0000 0.0000 0.0000 34.3538 0.0000 0.0000
# 5 0.0000 0.0000 0.0000 0.0000 58.5861 0.0000
# 6 0.0000 0.0000 0.0000 0.0000 0.0000 18.8299
#
#
#
# Elastic Compliance Matrix: (Units=1/GPa)
#
#
# Indices 1 2 3 4 5 6 
#
# 1 0.010330 -0.002621 -0.002653 0.000000 0.000000 0.000000
# 2 -0.002621 0.009275 -0.000139 0.000000 0.000000 0.000000
# 3 -0.002653 -0.000139 0.007644 0.000000 0.000000 0.000000
# 4 0.000000 0.000000 0.000000 0.029109 0.000000 0.000000
# 5 0.000000 0.000000 0.000000 0.000000 0.017069 0.000000
# 6 0.000000 0.000000 0.000000 0.000000 0.000000 0.053107
#
#
# Mechanical properties :
#
#
# Convention : Reuss Voigt Hill
#
# Bulk Modulus (GPa) = 60.89304 61.55353 61.22329
# Shear Modulus (GPa) = 35.00577 41.72779 38.36678
#
# Velocity S-wave (km/s) = 3.94456 4.30667 4.12959
# Velocity P-wave (km/s) = 6.91464 7.21731 7.06760
#
# Compressibility (1/GPa) = 0.01642224
#
# Stress axis : x y z
#
# Youngs Moduli (GPa) = 96.80999 107.81682 130.82096
#
# Poissons Ratio (x) = 0.28263 0.34707
# Poissons Ratio (y) = 0.25378 0.01815
# Poissons Ratio (z) = 0.25684 0.01496
#
# Static dielectric constant tensor:
#      x y z
#    x 1.779660 0.000000 0.000000 
#    y 0.000000 1.753430 0.000000 
#    z 0.000000 0.000000 1.960850 
# 
# From -- ./inp_files/10899.got.cif
#   From: 2010.05.17/outbox.cif.g08.bks.cpg/sg20_6_cif.got.tgz:10899.got - 2010.06.03 22:52:26.
