data_PCOD9320253
_publ_section_title
;
Structure prediction by ZEFSAII (Michael W. Deem and Ramdas Pophale) SiO2 
 PCOD9320253
Probable space group: C 2 2 21
;
_chemical_formula_sum "Si O2"
_cell_formula_units_Z 40
_cell_length_a 18.442087
_cell_length_b 9.609958
_cell_length_c 11.109724
_cell_angle_alpha 90.000000
_cell_angle_beta 90.000000
_cell_angle_gamma 90.000000
_cell_volume 1968.950627
_symmetry_space_group_name_H-M "C 2 2 21"
_symmetry_group_IT_number 20
_symmetry_cell_setting 'orthorhombic'
loop_
_space_group_symop_operation_xyz
x,y,z
-x,-y,1/2+z
x,-y,-z
-x,y,1/2-z
1/2+x,1/2+y,z
1/2-x,1/2-y,1/2+z
1/2+x,1/2-y,-z
1/2-x,1/2+y,1/2-z
loop_
_atom_site_type_symbol
_atom_site_label
_atom_site_fract_x
_atom_site_fract_y
_atom_site_fract_z
Si Si1 0.111912 0.839411 0.532635
Si Si2 0.323829 0.612670 0.269473
Si Si3 0.377952 0.000000 0.500000
Si Si4 0.018509 0.734977 0.108862
Si Si5 0.745925 0.355758 0.367746
Si Si6 0.598998 0.500000 0.000000
O O1 0.116702 0.828095 0.676274
O O2 0.192655 0.819921 0.478397
O O3 0.055651 0.737811 0.468698
O O4 0.092612 0.000000 0.500000
O O5 0.294339 0.473715 0.208024
O O6 0.260280 0.723176 0.285887
O O7 0.354631 0.579388 0.399856
O O8 0.428640 0.109686 0.429811
O O9 0.322546 0.085225 0.585553
O O10 0.000000 0.731379 0.250000
O O11 0.055302 0.881867 0.072468
#
# Coordination Sequence:
#
# PCOD9320253 Si02
#       6
#     8   8   4   8   8   4
#     4  10  22  44  68  96 135 187 231 291 352 424
#     4  11  25  42  73  98 139 179 248 290 362 429
#     4  12  26  49  67 108 148 188 232 308 368 419
#     4  12  27  46  72 102 150 189 244 298 371 436
#     4  11  24  45  70 100 139 184 237 301 352 426
#     4  12  26  43  73 104 130 200 244 292 362 451
#
# _framework density 20.315390000000001
#
# number of rings (size 3 to 8) (size 9 to 14) (size 15 to 20)
#    0.000    0.800    6.000    2.400    8.400    1.600 
#    0.000    0.000    0.000    0.000    0.000    0.000 
#    0.000    0.000    0.000    0.000    0.000    0.000 
#
# Total GULP energy -111771.963213 kJ/mol
# GULP energy per Si atom -5588.598161 kJ/mol
# Density = 2.026915 g / cm^3
# Si number density = 20.315390 Si / 1000 Ang^3
#
#
#
# Elastic Constant Matrix: (Units=GPa)
#
#
# Indices 1 2 3 4 5 6 
#
# 1 104.6922 27.3499 41.9520 0.0000 0.0000 0.0000
# 2 27.3499 42.7665 2.7867 0.0000 0.0000 0.0000
# 3 41.9520 2.7867 112.0330 0.0000 0.0000 0.0000
# 4 0.0000 0.0000 0.0000 22.3196 0.0000 0.0000
# 5 0.0000 0.0000 0.0000 0.0000 24.0122 0.0000
# 6 0.0000 0.0000 0.0000 0.0000 0.0000 44.1036
#
#
#
# Elastic Compliance Matrix: (Units=1/GPa)
#
#
# Indices 1 2 3 4 5 6 
#
# 1 0.013741 -0.008466 -0.004935 0.000000 0.000000 0.000000
# 2 -0.008466 0.028637 0.002458 0.000000 0.000000 0.000000
# 3 -0.004935 0.002458 0.010713 0.000000 0.000000 0.000000
# 4 0.000000 0.000000 0.000000 0.044804 0.000000 0.000000
# 5 0.000000 0.000000 0.000000 0.000000 0.041646 0.000000
# 6 0.000000 0.000000 0.000000 0.000000 0.000000 0.022674
#
#
# Mechanical properties :
#
#
# Convention : Reuss Voigt Hill
#
# Bulk Modulus (GPa) = 32.04669 44.85209 38.44939
# Shear Modulus (GPa) = 25.70678 30.58060 28.14369
#
# Velocity S-wave (km/s) = 3.56108 3.88402 3.72605
# Velocity P-wave (km/s) = 5.71990 6.49923 6.12198
#
# Compressibility (1/GPa) = 0.03120447
#
# Stress axis : x y z
#
# Youngs Moduli (GPa) = 72.77508 34.92010 93.34694
#
# Poissons Ratio (x) = 0.29563 0.46066
# Poissons Ratio (y) = 0.61612 -0.22944
# Poissons Ratio (z) = 0.35914 -0.08583
#
# Static dielectric constant tensor:
#      x y z
#    x 1.749390 0.000000 0.000000 
#    y 0.000000 1.734110 0.000000 
#    z 0.000000 0.000000 1.716140 
# 
# From -- ./inp_files/15579.got.cif
#   From: 2010.05.17/outbox.cif.g08.bks.cpg/sg20_8_cif.got.tgz:15579.got - 2010.06.03 22:52:26.
