data_PCOD9320815
_publ_section_title
;
Structure prediction by ZEFSAII (Michael W. Deem and Ramdas Pophale) SiO2 
 PCOD9320815
Probable space group: C 2 2 21
;
_chemical_formula_sum "Si O2"
_cell_formula_units_Z 32
_cell_length_a 11.815882
_cell_length_b 11.390688
_cell_length_c 10.562919
_cell_angle_alpha 90.000000
_cell_angle_beta 90.000000
_cell_angle_gamma 90.000000
_cell_volume 1421.674098
_symmetry_space_group_name_H-M "C 2 2 21"
_symmetry_group_IT_number 20
_symmetry_cell_setting 'orthorhombic'
loop_
_space_group_symop_operation_xyz
x,y,z
-x,-y,1/2+z
x,-y,-z
-x,y,1/2-z
1/2+x,1/2+y,z
1/2-x,1/2-y,1/2+z
1/2+x,1/2-y,-z
1/2-x,1/2+y,1/2-z
loop_
_atom_site_type_symbol
_atom_site_label
_atom_site_fract_x
_atom_site_fract_y
_atom_site_fract_z
Si Si1 0.618228 0.000000 0.000000
Si Si2 0.574012 0.546561 0.126759
Si Si3 0.776988 0.262889 0.403091
Si Si4 0.223615 0.360760 0.349887
Si Si5 0.500000 0.983835 0.250000
O O1 0.692378 0.891874 0.048450
O O2 0.545831 0.043933 0.121654
O O3 0.500000 0.532314 0.250000
O O4 0.612234 0.680547 0.109277
O O5 0.687656 0.467479 0.138794
O O6 0.514263 0.500000 0.000000
O O7 0.729869 0.274780 0.260851
O O8 0.708411 0.200552 0.514890
O O9 0.104064 0.406810 0.301164
#
# Coordination Sequence:
#
# PCOD9320815 Si02
#       5
#     4   8   8   8   4
#     4  10  24  42  64 106 126 180 222 270 346 396
#     4  10  24  47  68  99 133 178 227 277 337 400
#     4  10  24  43  69  98 135 177 222 276 336 403
#     4  10  24  45  68 103 133 178 223 278 340 401
#     4  10  24  44  68  98 138 170 224 282 334 406
#
# _framework density 22.508673999999999
#
# number of rings (size 3 to 8) (size 9 to 14) (size 15 to 20)
#    0.000    2.000    0.000    0.000   19.250    2.000 
#   20.250    0.000    0.000    0.000    0.000    0.000 
#    0.000    0.000    0.000    0.000    0.000    0.000 
#
# Total GULP energy -89370.704972 kJ/mol
# GULP energy per Si atom -5585.669061 kJ/mol
# Density = 2.245744 g / cm^3
# Si number density = 22.508674 Si / 1000 Ang^3
#
#
#
# Elastic Constant Matrix: (Units=GPa)
#
#
# Indices 1 2 3 4 5 6 
#
# 1 54.6805 5.9565 28.3409 0.0000 0.0000 0.0000
# 2 5.9565 75.4650 5.9511 0.0000 0.0000 0.0000
# 3 28.3409 5.9511 152.8440 0.0000 0.0000 0.0000
# 4 0.0000 0.0000 0.0000 1.2703 0.0000 0.0000
# 5 0.0000 0.0000 0.0000 0.0000 3329.9685 0.0000
# 6 0.0000 0.0000 0.0000 0.0000 0.0000 6.0884
#
#
#
# Elastic Compliance Matrix: (Units=1/GPa)
#
#
# Indices 1 2 3 4 5 6 
#
# 1 0.020361 -0.001313 -0.003724 0.000000 0.000000 0.000000
# 2 -0.001313 0.013377 -0.000277 0.000000 0.000000 0.000000
# 3 -0.003724 -0.000277 0.007244 0.000000 0.000000 0.000000
# 4 0.000000 0.000000 0.000000 0.787234 0.000000 0.000000
# 5 0.000000 0.000000 0.000000 0.000000 0.000300 0.000000
# 6 0.000000 0.000000 0.000000 0.000000 0.000000 0.164248
#
#
# Mechanical properties :
#
#
# Convention : Reuss Voigt Hill
#
# Bulk Modulus (GPa) = 32.94675 40.38737 36.66706
# Shear Modulus (GPa) = 4.93334 683.64817 344.29075
#
# Velocity S-wave (km/s) = 1.48206 17.44666 12.38108
# Velocity P-wave (km/s) = 4.19497 20.58713 14.85644
#
# Compressibility (1/GPa) = 0.03035201
#
# Stress axis : x y z
#
# Youngs Moduli (GPa) = 49.11234 74.75683 138.04526
#
# Poissons Ratio (x) = 0.09819 0.51413
# Poissons Ratio (y) = 0.06451 0.03828
# Poissons Ratio (z) = 0.18291 0.02073
#
# Static dielectric constant tensor:
#      x y z
#    x 1.903550 0.000000 0.000000 
#    y 0.000000 1.570480 0.000000 
#    z 0.000000 0.000000 1.918190 
# 
# From -- ./inp_files/13593.got.cif
#   From: 2010.05.17/outbox.cif.g08.bks.cpg/sg20_7_cif.got.tgz:13593.got - 2010.06.03 22:52:26.
