data_PCOD9320665
_publ_section_title
;
Structure prediction by ZEFSAII (Michael W. Deem and Ramdas Pophale) SiO2 
 PCOD9320665
Probable space group: C 2 2 21
;
_chemical_formula_sum "Si O2"
_cell_formula_units_Z 60
_cell_length_a 8.560763
_cell_length_b 25.195493
_cell_length_c 11.501622
_cell_angle_alpha 90.000000
_cell_angle_beta 90.000000
_cell_angle_gamma 90.000000
_cell_volume 2480.815262
_symmetry_space_group_name_H-M "C 2 2 21"
_symmetry_group_IT_number 20
_symmetry_cell_setting 'orthorhombic'
loop_
_space_group_symop_operation_xyz
x,y,z
-x,-y,1/2+z
x,-y,-z
-x,y,1/2-z
1/2+x,1/2+y,z
1/2-x,1/2-y,1/2+z
1/2+x,1/2-y,-z
1/2-x,1/2+y,1/2-z
loop_
_atom_site_type_symbol
_atom_site_label
_atom_site_fract_x
_atom_site_fract_y
_atom_site_fract_z
Si Si1 0.396648 0.054227 0.042484
Si Si2 0.195702 0.000000 0.500000
Si Si3 0.621690 0.856446 0.842707
Si Si4 0.314185 0.550638 0.242676
Si Si5 0.534006 0.775249 0.129663
Si Si6 0.633667 0.888183 0.317300
Si Si7 0.844617 0.200597 0.971301
Si Si8 0.593479 0.597995 0.640287
O O1 0.516093 0.098613 0.090971
O O2 0.273671 0.035681 0.138871
O O3 0.313739 0.081719 0.932171
O O4 0.479984 0.000000 0.000000
O O5 0.246062 0.017025 0.368038
O O6 0.112993 0.055033 0.539926
O O7 0.500000 0.831204 0.750000
O O8 0.754177 0.889479 0.775819
O O9 0.718655 0.821996 0.934210
O O10 0.500000 0.547188 0.250000
O O11 0.500000 0.745807 0.250000
O O12 0.445912 0.832613 0.141817
O O13 0.454070 0.744651 0.025157
O O14 0.720381 0.777147 0.120223
O O15 0.500000 0.920992 0.250000
O O16 0.754724 0.883370 0.213110
O O17 0.951516 0.153154 0.920942
O O18 0.500000 0.575726 0.750000
#
# Coordination Sequence:
#
# PCOD9320665 Si02
#       8
#     8   4   8   8   8   8   8   8
#     4  11  24  42  72 108 140 193 249 292 378 446
#     4  12  26  48  70 104 160 198 250 304 386 450
#     4  10  23  45  66 101 142 181 238 302 368 439
#     4  11  26  42  67 101 148 191 244 304 360 451
#     4  11  26  48  74 108 146 189 255 316 384 460
#     4  11  23  49  74 105 153 191 245 318 377 454
#     4  12  25  49  73 107 143 196 246 324 382 462
#     4  12  27  47  78 108 149 206 252 312 390 472
#
# _framework density 24.185597000000001
#
# number of rings (size 3 to 8) (size 9 to 14) (size 15 to 20)
#    0.000    0.800    5.333    1.200    5.600    3.200 
#    0.000    0.000    0.000    0.000    0.000    0.000 
#    0.000    0.000    0.000    0.000    0.000    0.000 
#
# Total GULP energy -167384.866904 kJ/mol
# GULP energy per Si atom -5579.495563 kJ/mol
# Density = 2.413055 g / cm^3
# Si number density = 24.185597 Si / 1000 Ang^3
#
#
#
# Elastic Constant Matrix: (Units=GPa)
#
#
# Indices 1 2 3 4 5 6 
#
# 1 42.7281 8.1766 13.2468 0.0000 0.0000 0.0000
# 2 8.1766 75.6272 33.8441 0.0000 0.0000 0.0000
# 3 13.2468 33.8441 126.1102 0.0000 0.0000 0.0000
# 4 0.0000 0.0000 0.0000 39.3113 0.0000 0.0000
# 5 0.0000 0.0000 0.0000 0.0000 39.2050 0.0000
# 6 0.0000 0.0000 0.0000 0.0000 0.0000 10.6868
#
#
#
# Elastic Compliance Matrix: (Units=1/GPa)
#
#
# Indices 1 2 3 4 5 6 
#
# 1 0.024381 -0.001693 -0.002107 0.000000 0.000000 0.000000
# 2 -0.001693 0.015145 -0.003887 0.000000 0.000000 0.000000
# 3 -0.002107 -0.003887 0.009194 0.000000 0.000000 0.000000
# 4 0.000000 0.000000 0.000000 0.025438 0.000000 0.000000
# 5 0.000000 0.000000 0.000000 0.000000 0.025507 0.000000
# 6 0.000000 0.000000 0.000000 0.000000 0.000000 0.093573
#
#
# Mechanical properties :
#
#
# Convention : Reuss Voigt Hill
#
# Bulk Modulus (GPa) = 29.98770 39.44450 34.71610
# Shear Modulus (GPa) = 22.75553 30.45381 26.60467
#
# Velocity S-wave (km/s) = 3.07069 3.55233 3.32026
# Velocity P-wave (km/s) = 4.99981 5.75933 5.39296
#
# Compressibility (1/GPa) = 0.03334701
#
# Stress axis : x y z
#
# Youngs Moduli (GPa) = 41.01564 66.02780 108.76778
#
# Poissons Ratio (x) = 0.11180 0.22913
# Poissons Ratio (y) = 0.06945 0.42274
# Poissons Ratio (z) = 0.08640 0.25662
#
# Static dielectric constant tensor:
#      x y z
#    x 4.404480 0.000000 0.000000 
#    y 0.000000 1.940010 0.000000 
#    z 0.000000 0.000000 1.970600 
# 
# From -- ./inp_files/13289.got.cif
#   From: 2010.05.17/outbox.cif.g08.bks.cpg/sg20_7_cif.got.tgz:13289.got - 2010.06.03 22:52:26.
