data_PCOD9320793
_publ_section_title
;
Structure prediction by ZEFSAII (Michael W. Deem and Ramdas Pophale) SiO2 
 PCOD9320793
Probable space group: C 2 2 21
;
_chemical_formula_sum "Si O2"
_cell_formula_units_Z 48
_cell_length_a 9.247438
_cell_length_b 28.652408
_cell_length_c 7.974872
_cell_angle_alpha 90.000000
_cell_angle_beta 90.000000
_cell_angle_gamma 90.000000
_cell_volume 2113.032983
_symmetry_space_group_name_H-M "C 2 2 21"
_symmetry_group_IT_number 20
_symmetry_cell_setting 'orthorhombic'
loop_
_space_group_symop_operation_xyz
x,y,z
-x,-y,1/2+z
x,-y,-z
-x,y,1/2-z
1/2+x,1/2+y,z
1/2-x,1/2-y,1/2+z
1/2+x,1/2-y,-z
1/2-x,1/2+y,1/2-z
loop_
_atom_site_type_symbol
_atom_site_label
_atom_site_fract_x
_atom_site_fract_y
_atom_site_fract_z
Si Si1 0.663169 0.587191 0.196599
Si Si2 0.500000 0.832098 0.250000
Si Si3 0.000000 0.167930 0.750000
Si Si4 0.335186 0.684019 0.190877
Si Si5 0.764199 0.103999 0.678759
Si Si6 0.768537 0.227169 0.841147
Si Si7 0.667151 0.003530 0.800310
O O1 0.500000 0.576186 0.250000
O O2 0.721618 0.631210 0.304376
O O3 0.758303 0.541365 0.218068
O O4 0.664502 0.603919 0.004288
O O5 0.385796 0.867322 0.163789
O O6 0.388966 0.797089 0.341648
O O7 0.876685 0.129847 0.803380
O O8 0.875204 0.205767 0.697626
O O9 0.500000 0.679886 0.250000
O O10 0.247162 0.718286 0.311963
O O11 0.339011 0.710545 0.013941
O O12 0.735626 0.051812 0.737725
O O13 0.500000 0.003973 0.750000
O O14 0.682246 0.000000 0.000000
#
# Coordination Sequence:
#
# PCOD9320793 Si02
#       7
#     8   4   4   8   8   8   8
#     4  11  27  46  72 103 144 187 242 300 354 422
#     4  10  24  44  76 104 138 186 242 294 364 418
#     4  10  24  40  74 102 142 190 240 288 362 420
#     4  11  26  45  69 103 148 185 244 289 362 418
#     4  11  24  47  75 102 146 184 241 292 366 431
#     4  11  25  44  71 104 146 190 240 299 353 431
#     4  12  28  47  73 104 143 186 240 297 364 432
#
# _framework density 22.716162000000001
#
# number of rings (size 3 to 8) (size 9 to 14) (size 15 to 20)
#    0.000    1.000    1.667    3.500   15.167    0.000 
#    1.500    0.000    0.000    0.000    0.000    0.000 
#    0.000    0.000    0.000    0.000    0.000    0.000 
#
# Total GULP energy -133862.660732 kJ/mol
# GULP energy per Si atom -5577.610864 kJ/mol
# Density = 2.266446 g / cm^3
# Si number density = 22.716162 Si / 1000 Ang^3
#
#
#
# Elastic Constant Matrix: (Units=GPa)
#
#
# Indices 1 2 3 4 5 6 
#
# 1 121.1262 29.6601 -8.5005 0.0000 0.0000 0.0000
# 2 29.6601 133.4368 -34.3351 0.0000 0.0000 0.0000
# 3 -8.5005 -34.3351 59.1343 0.0000 0.0000 0.0000
# 4 0.0000 0.0000 0.0000 31.6209 0.0000 0.0000
# 5 0.0000 0.0000 0.0000 0.0000 32.8560 0.0000
# 6 0.0000 0.0000 0.0000 0.0000 0.0000 32.2551
#
#
#
# Elastic Compliance Matrix: (Units=1/GPa)
#
#
# Indices 1 2 3 4 5 6 
#
# 1 0.008732 -0.001902 0.000151 0.000000 0.000000 0.000000
# 2 -0.001902 0.009225 0.005083 0.000000 0.000000 0.000000
# 3 0.000151 0.005083 0.019884 0.000000 0.000000 0.000000
# 4 0.000000 0.000000 0.000000 0.031625 0.000000 0.000000
# 5 0.000000 0.000000 0.000000 0.000000 0.030436 0.000000
# 6 0.000000 0.000000 0.000000 0.000000 0.000000 0.031003
#
#
# Mechanical properties :
#
#
# Convention : Reuss Voigt Hill
#
# Bulk Modulus (GPa) = 22.47017 31.92737 27.19877
# Shear Modulus (GPa) = 35.95164 41.13791 38.54478
#
# Velocity S-wave (km/s) = 3.98256 4.26015 4.12369
# Velocity P-wave (km/s) = 5.57323 6.18740 5.88833
#
# Compressibility (1/GPa) = 0.04450344
#
# Stress axis : x y z
#
# Youngs Moduli (GPa) = 114.51840 108.40253 50.29279
#
# Poissons Ratio (x) = 0.20620 -0.00758
# Poissons Ratio (y) = 0.21784 -0.25563
# Poissons Ratio (z) = -0.01727 -0.55099
#
# Static dielectric constant tensor:
#      x y z
#    x 1.820140 0.000000 0.000000 
#    y 0.000000 1.844780 0.000000 
#    z 0.000000 0.000000 2.038430 
# 
# From -- ./inp_files/6567.got.cif
#   From: 2010.05.17/outbox.cif.g08.bks.cpg/sg20_4_cif.got.tgz:6567.got - 2010.06.03 22:52:26.
