data_PCOD9320986
_publ_section_title
;
Structure prediction by ZEFSAII (Michael W. Deem and Ramdas Pophale) SiO2 
 PCOD9320986
Probable space group: C 2 2 21
;
_chemical_formula_sum "Si O2"
_cell_formula_units_Z 36
_cell_length_a 22.371009
_cell_length_b 12.545362
_cell_length_c 5.493284
_cell_angle_alpha 90.000000
_cell_angle_beta 90.000000
_cell_angle_gamma 90.000000
_cell_volume 1541.703373
_symmetry_space_group_name_H-M "C 2 2 21"
_symmetry_group_IT_number 20
_symmetry_cell_setting 'orthorhombic'
loop_
_space_group_symop_operation_xyz
x,y,z
-x,-y,1/2+z
x,-y,-z
-x,y,1/2-z
1/2+x,1/2+y,z
1/2-x,1/2-y,1/2+z
1/2+x,1/2-y,-z
1/2-x,1/2+y,1/2-z
loop_
_atom_site_type_symbol
_atom_site_label
_atom_site_fract_x
_atom_site_fract_y
_atom_site_fract_z
Si Si1 0.152544 0.578850 0.306656
Si Si2 0.743069 0.312645 0.569325
Si Si3 0.500000 0.189407 0.750000
Si Si4 0.389149 0.300058 0.949406
Si Si5 0.536018 0.500000 0.500000
Si Si6 0.451547 0.000000 0.500000
O O1 0.182552 0.500000 0.500000
O O2 0.202035 0.607810 0.107479
O O3 0.129163 0.692427 0.407496
O O4 0.095068 0.514512 0.217310
O O5 0.746162 0.272336 0.290347
O O6 0.675096 0.347365 0.627267
O O7 0.439087 0.256202 0.761944
O O8 0.489977 0.105858 0.531650
O O9 0.424305 0.397081 0.071877
O O10 0.500000 0.476332 0.750000
#
# Coordination Sequence:
#
# PCOD9320986 Si02
#       6
#     8   8   4   8   4   4
#     4  11  24  45  73 108 146 188 245 314 384 443
#     4  10  24  46  73 105 144 193 243 300 368 441
#     4  12  22  40  70 104 154 186 242 298 376 456
#     4  11  25  49  70 106 147 199 248 308 365 451
#     4  12  30  51  74 104 143 204 258 300 358 436
#     4  12  24  39  72 114 149 194 232 312 392 448
#
# _framework density 23.350795000000002
#
# number of rings (size 3 to 8) (size 9 to 14) (size 15 to 20)
#    0.000    0.889    3.333    2.667    6.222    4.444 
#   10.000    0.000    0.000    0.000    0.000    0.000 
#    0.000    0.000    0.000    0.000    0.000    0.000 
#
# Total GULP energy -100351.133664 kJ/mol
# GULP energy per Si atom -5575.062981 kJ/mol
# Density = 2.329765 g / cm^3
# Si number density = 23.350795 Si / 1000 Ang^3
#
#
#
# Elastic Constant Matrix: (Units=GPa)
#
#
# Indices 1 2 3 4 5 6 
#
# 1 143.1978 19.9497 4.1769 0.0000 0.0000 0.0000
# 2 19.9497 113.0687 10.2297 0.0000 0.0000 0.0000
# 3 4.1769 10.2297 48.3041 0.0000 0.0000 0.0000
# 4 0.0000 0.0000 0.0000 25.6477 0.0000 0.0000
# 5 0.0000 0.0000 0.0000 0.0000 30.4976 0.0000
# 6 0.0000 0.0000 0.0000 0.0000 0.0000 -47.1783
#
#
#
# Elastic Compliance Matrix: (Units=1/GPa)
#
#
# Indices 1 2 3 4 5 6 
#
# 1 0.007165 -0.001232 -0.000359 0.000000 0.000000 0.000000
# 2 -0.001232 0.009229 -0.001848 0.000000 0.000000 0.000000
# 3 -0.000359 -0.001848 0.021125 0.000000 0.000000 0.000000
# 4 0.000000 0.000000 0.000000 0.038990 0.000000 0.000000
# 5 0.000000 0.000000 0.000000 0.000000 0.032789 0.000000
# 6 0.000000 0.000000 0.000000 0.000000 0.000000 -0.021196
#
#
# Mechanical properties :
#
#
# Convention : Reuss Voigt Hill
#
# Bulk Modulus (GPa) = 32.63518 41.47590 37.05554
# Shear Modulus (GPa) = 47.53187 19.80769 33.66978
#
# Velocity S-wave (km/s) = 4.51661 2.91566 3.80137
# Velocity P-wave (km/s) = 6.41920 5.39772 5.93049
#
# Compressibility (1/GPa) = 0.03064178
#
# Stress axis : x y z
#
# Youngs Moduli (GPa) = 139.55917 108.35759 47.33832
#
# Poissons Ratio (x) = 0.13347 0.01698
# Poissons Ratio (y) = 0.17191 0.08748
# Poissons Ratio (z) = 0.05006 0.20023
#
# Static dielectric constant tensor:
#      x y z
#    x 1.878860 0.000000 0.000000 
#    y 0.000000 1.871680 0.000000 
#    z 0.000000 0.000000 2.019150 
# 
# From -- ./inp_files/1278.got.cif
#   From: 2010.05.17/outbox.cif.g08.bks.cpg/sg20_1_cif.got.tgz:1278.got - 2010.06.03 22:52:26.
