data_PCOD9320758
_publ_section_title
;
Structure prediction by ZEFSAII (Michael W. Deem and Ramdas Pophale) SiO2 
 PCOD9320758
Probable space group: C 2 2 21
;
_chemical_formula_sum "Si O2"
_cell_formula_units_Z 40
_cell_length_a 19.268440
_cell_length_b 6.402214
_cell_length_c 12.991127
_cell_angle_alpha 90.000000
_cell_angle_beta 90.000000
_cell_angle_gamma 90.000000
_cell_volume 1602.594213
_symmetry_space_group_name_H-M "C 2 2 21"
_symmetry_group_IT_number 20
_symmetry_cell_setting 'orthorhombic'
loop_
_space_group_symop_operation_xyz
x,y,z
-x,-y,1/2+z
x,-y,-z
-x,y,1/2-z
1/2+x,1/2+y,z
1/2-x,1/2-y,1/2+z
1/2+x,1/2-y,-z
1/2-x,1/2+y,1/2-z
loop_
_atom_site_type_symbol
_atom_site_label
_atom_site_fract_x
_atom_site_fract_y
_atom_site_fract_z
Si Si1 0.457849 0.479391 0.645299
Si Si2 0.557902 0.847326 0.417144
Si Si3 0.111649 0.636376 0.248447
Si Si4 0.815203 0.224538 0.952121
Si Si5 0.666147 0.837206 0.092552
O O1 0.500000 0.449034 0.750000
O O2 0.426695 0.711400 0.666535
O O3 0.517631 0.368446 0.577358
O O4 0.393416 0.330535 0.617481
O O5 0.636409 0.819024 0.458242
O O6 0.523056 0.000000 0.500000
O O7 0.563585 0.970629 0.310082
O O8 0.143420 0.768602 0.343790
O O9 0.168251 0.494414 0.190411
O O10 0.736708 0.290831 0.928016
O O11 0.803183 0.000000 0.000000
O O12 0.651005 0.000000 0.000000
#
# Coordination Sequence:
#
# PCOD9320758 Si02
#       5
#     8   8   8   8   8
#     4  12  25  46  77 110 157 207 267 320 407 470
#     4  10  23  50  78 113 160 206 268 330 403 489
#     4  11  26  46  80 113 153 208 261 333 396 483
#     4  10  24  49  79 111 152 209 262 323 405 472
#     4  11  27  49  73 115 160 203 266 327 396 480
#
# _framework density 24.959530000000001
#
# number of rings (size 3 to 8) (size 9 to 14) (size 15 to 20)
#    0.000    1.200    2.000    1.800    5.600    2.400 
#   25.200    0.000    0.000    0.000    0.000    0.000 
#    0.000    0.000    0.000    0.000    0.000    0.000 
#
# Total GULP energy -111457.429271 kJ/mol
# GULP energy per Si atom -5572.871464 kJ/mol
# Density = 2.490272 g / cm^3
# Si number density = 24.959530 Si / 1000 Ang^3
#
#
#
# Elastic Constant Matrix: (Units=GPa)
#
#
# Indices 1 2 3 4 5 6 
#
# 1 178.4291 65.1383 40.0160 0.0000 0.0000 0.0000
# 2 65.1383 104.8421 50.0182 0.0000 0.0000 0.0000
# 3 40.0160 50.0182 94.8283 0.0000 0.0000 0.0000
# 4 0.0000 0.0000 0.0000 51.2164 0.0000 0.0000
# 5 0.0000 0.0000 0.0000 0.0000 27.9432 0.0000
# 6 0.0000 0.0000 0.0000 0.0000 0.0000 36.5600
#
#
#
# Elastic Compliance Matrix: (Units=1/GPa)
#
#
# Indices 1 2 3 4 5 6 
#
# 1 0.007308 -0.004101 -0.000921 0.000000 0.000000 0.000000
# 2 -0.004101 0.015047 -0.006206 0.000000 0.000000 0.000000
# 3 -0.000921 -0.006206 0.014207 0.000000 0.000000 0.000000
# 4 0.000000 0.000000 0.000000 0.019525 0.000000 0.000000
# 5 0.000000 0.000000 0.000000 0.000000 0.035787 0.000000
# 6 0.000000 0.000000 0.000000 0.000000 0.000000 0.027352
#
#
# Mechanical properties :
#
#
# Convention : Reuss Voigt Hill
#
# Bulk Modulus (GPa) = 70.88912 76.49383 73.69148
# Shear Modulus (GPa) = 34.15649 38.00572 36.08111
#
# Velocity S-wave (km/s) = 3.70330 3.90640 3.80621
# Velocity P-wave (km/s) = 6.83734 7.14565 6.99320
#
# Compressibility (1/GPa) = 0.01410654
#
# Stress axis : x y z
#
# Youngs Moduli (GPa) = 136.83256 66.45795 70.38630
#
# Poissons Ratio (x) = 0.27257 0.06480
# Poissons Ratio (y) = 0.56120 0.43682
# Poissons Ratio (z) = 0.12597 0.41244
#
# Static dielectric constant tensor:
#      x y z
#    x 1.993170 0.000000 0.000000 
#    y 0.000000 2.063080 0.000000 
#    z 0.000000 0.000000 2.001470 
# 
# From -- ./inp_files/18698.got.cif
#   From: 2010.05.17/outbox.cif.g08.bks.cpg/sg20_10_cif.got.tgz:18698.got - 2010.06.03 22:52:26.
