data_PCOD9320448
_publ_section_title
;
Structure prediction by ZEFSAII (Michael W. Deem and Ramdas Pophale) SiO2 
 PCOD9320448
Probable space group: C 2 2 21
;
_chemical_formula_sum "Si O2"
_cell_formula_units_Z 64
_cell_length_a 15.314874
_cell_length_b 11.658865
_cell_length_c 15.892164
_cell_angle_alpha 90.000000
_cell_angle_beta 90.000000
_cell_angle_gamma 90.000000
_cell_volume 2837.610221
_symmetry_space_group_name_H-M "C 2 2 21"
_symmetry_group_IT_number 20
_symmetry_cell_setting 'orthorhombic'
loop_
_space_group_symop_operation_xyz
x,y,z
-x,-y,1/2+z
x,-y,-z
-x,y,1/2-z
1/2+x,1/2+y,z
1/2-x,1/2-y,1/2+z
1/2+x,1/2-y,-z
1/2-x,1/2+y,1/2-z
loop_
_atom_site_type_symbol
_atom_site_label
_atom_site_fract_x
_atom_site_fract_y
_atom_site_fract_z
Si Si1 0.246565 0.137231 0.683327
Si Si2 0.412994 0.268581 0.868487
Si Si3 0.200409 0.566442 0.632247
Si Si4 0.620947 0.548410 0.914911
Si Si5 0.077456 0.296153 0.864407
Si Si6 0.250025 0.416737 0.920979
Si Si7 0.603570 0.689346 0.167747
Si Si8 0.887284 0.671830 0.166829
O O1 0.260436 0.128591 0.783814
O O2 0.325019 0.214473 0.645935
O O3 0.160934 0.206418 0.655228
O O4 0.248569 0.006660 0.655461
O O5 0.386505 0.137810 0.885719
O O6 0.337678 0.341299 0.914290
O O7 0.406557 0.296368 0.768345
O O8 0.514650 0.289225 0.883934
O O9 0.278508 0.583080 0.566943
O O10 0.174161 0.435112 0.645092
O O11 0.575307 0.659036 0.876844
O O12 0.627485 0.441733 0.851431
O O13 0.579756 0.500000 0.000000
O O14 0.159553 0.346423 0.915563
O O15 0.095711 0.329248 0.767316
O O16 0.979169 0.338367 0.881176
O O17 0.251627 0.500000 0.000000
#
# Coordination Sequence:
#
# PCOD9320448 Si02
#       8
#     8   8   8   8   8   8   8   8
#     4  11  22  40  66  99 128 171 222 275 339 408
#     4  10  23  42  68  98 128 173 228 281 343 410
#     4  11  21  43  70  95 131 171 228 281 337 412
#     4  12  25  42  64  90 135 179 217 275 341 407
#     4  11  25  43  65 103 132 176 226 285 342 419
#     4  12  26  43  65  95 143 183 219 282 353 416
#     4  10  23  40  68  96 129 170 223 282 342 403
#     4  11  23  41  73 100 129 171 231 289 345 402
#
# _framework density 22.554189000000001
#
# number of rings (size 3 to 8) (size 9 to 14) (size 15 to 20)
#    0.000    1.000    5.000    1.500    5.250    2.500 
#    0.000    0.625    0.000    0.000    0.000    0.000 
#    0.000    0.000    0.000    0.000    0.000    0.000 
#
# Total GULP energy -178749.772000 kJ/mol
# GULP energy per Si atom -5585.930375 kJ/mol
# Density = 2.250285 g / cm^3
# Si number density = 22.554189 Si / 1000 Ang^3
#
#
#
# Elastic Constant Matrix: (Units=GPa)
#
#
# Indices 1 2 3 4 5 6 
#
# 1 113.3590 7.6533 -6.6163 0.0000 0.0000 0.0000
# 2 7.6533 91.1401 -12.3201 0.0000 0.0000 0.0000
# 3 -6.6163 -12.3201 22.8337 0.0000 0.0000 0.0000
# 4 0.0000 0.0000 0.0000 22.8014 0.0000 0.0000
# 5 0.0000 0.0000 0.0000 0.0000 2.4546 0.0000
# 6 0.0000 0.0000 0.0000 0.0000 0.0000 42.5485
#
#
#
# Elastic Compliance Matrix: (Units=1/GPa)
#
#
# Indices 1 2 3 4 5 6 
#
# 1 0.008989 -0.000434 0.002370 0.000000 0.000000 0.000000
# 2 -0.000434 0.011856 0.006271 0.000000 0.000000 0.000000
# 3 0.002370 0.006271 0.047866 0.000000 0.000000 0.000000
# 4 0.000000 0.000000 0.000000 0.043857 0.000000 0.000000
# 5 0.000000 0.000000 0.000000 0.000000 0.407399 0.000000
# 6 0.000000 0.000000 0.000000 0.000000 0.000000 0.023503
#
#
# Mechanical properties :
#
#
# Convention : Reuss Voigt Hill
#
# Bulk Modulus (GPa) = 11.74738 22.75186 17.24962
# Shear Modulus (GPa) = 9.00202 29.46862 19.23532
#
# Velocity S-wave (km/s) = 1.99999 3.61857 2.92353
# Velocity P-wave (km/s) = 3.24855 5.25055 4.36585
#
# Compressibility (1/GPa) = 0.08512537
#
# Stress axis : x y z
#
# Youngs Moduli (GPa) = 111.24449 84.34308 20.89186
#
# Poissons Ratio (x) = 0.03664 -0.04952
# Poissons Ratio (y) = 0.04833 -0.13102
# Poissons Ratio (z) = -0.26368 -0.52894
#
# Static dielectric constant tensor:
#      x y z
#    x 1.849340 0.000000 0.000000 
#    y 0.000000 1.804570 0.000000 
#    z 0.000000 0.000000 1.907010 
# 
# From -- ./inp_files/24994.got.cif
#   From: 2010.05.17/outbox.cif.g08.bks.cpg/sg20_13_cif.got.tgz:24994.got - 2010.06.03 22:52:26.
