data_PCOD9320610
_publ_section_title
;
Structure prediction by ZEFSAII (Michael W. Deem and Ramdas Pophale) SiO2 
 PCOD9320610
Probable space group: C 2 2 21
;
_chemical_formula_sum "Si O2"
_cell_formula_units_Z 28
_cell_length_a 17.329963
_cell_length_b 7.971615
_cell_length_c 9.349985
_cell_angle_alpha 90.000000
_cell_angle_beta 90.000000
_cell_angle_gamma 90.000000
_cell_volume 1291.679792
_symmetry_space_group_name_H-M "C 2 2 21"
_symmetry_group_IT_number 20
_symmetry_cell_setting 'orthorhombic'
loop_
_space_group_symop_operation_xyz
x,y,z
-x,-y,1/2+z
x,-y,-z
-x,y,1/2-z
1/2+x,1/2+y,z
1/2-x,1/2-y,1/2+z
1/2+x,1/2-y,-z
1/2-x,1/2+y,1/2-z
loop_
_atom_site_type_symbol
_atom_site_label
_atom_site_fract_x
_atom_site_fract_y
_atom_site_fract_z
Si Si1 0.932068 0.913082 0.651974
Si Si2 0.657446 0.062676 0.341635
Si Si3 0.297238 0.551295 0.835197
Si Si4 0.000000 0.587701 0.750000
O O1 0.000000 0.992758 0.750000
O O2 0.960140 0.720259 0.640043
O O3 0.925441 0.000000 0.500000
O O4 0.854017 0.934461 0.741465
O O5 0.712323 0.968703 0.229225
O O6 0.568499 0.018541 0.316047
O O7 0.679350 0.000000 0.500000
O O8 0.673114 0.259106 0.324162
O O9 0.299590 0.500000 0.000000
#
# Coordination Sequence:
#
# PCOD9320610 Si02
#       4
#     8   8   8   4
#     4  10  23  43  73 100 143 179 233 281 347 403
#     4  12  27  46  71 101 142 184 235 287 346 412
#     4  12  26  47  72 103 138 185 233 287 348 412
#     4  10  26  42  70 108 140 176 236 282 346 412
#
# _framework density 21.677199000000002
#
# number of rings (size 3 to 8) (size 9 to 14) (size 15 to 20)
#    0.857    0.000    0.000    6.857    6.000    3.429 
#    0.000    0.000    0.000    0.000    0.000    0.000 
#    0.000    0.000    0.000    0.000    0.000    0.000 
#
# Total GULP energy -78329.286010 kJ/mol
# GULP energy per Si atom -5594.949001 kJ/mol
# Density = 2.162786 g / cm^3
# Si number density = 21.677199 Si / 1000 Ang^3
#
#
#
# Elastic Constant Matrix: (Units=GPa)
#
#
# Indices 1 2 3 4 5 6 
#
# 1 141.4815 63.2150 60.8914 0.0000 0.0000 0.0000
# 2 63.2150 155.3262 39.3215 0.0000 0.0000 0.0000
# 3 60.8914 39.3215 150.9747 0.0000 0.0000 0.0000
# 4 0.0000 0.0000 0.0000 15.1514 0.0000 0.0000
# 5 0.0000 0.0000 0.0000 0.0000 27.8788 0.0000
# 6 0.0000 0.0000 0.0000 0.0000 0.0000 41.5570
#
#
#
# Elastic Compliance Matrix: (Units=1/GPa)
#
#
# Indices 1 2 3 4 5 6 
#
# 1 0.009856 -0.003217 -0.003137 0.000000 0.000000 0.000000
# 2 -0.003217 0.007942 -0.000771 0.000000 0.000000 0.000000
# 3 -0.003137 -0.000771 0.008090 0.000000 0.000000 0.000000
# 4 0.000000 0.000000 0.000000 0.066000 0.000000 0.000000
# 5 0.000000 0.000000 0.000000 0.000000 0.035870 0.000000
# 6 0.000000 0.000000 0.000000 0.000000 0.000000 0.024063
#
#
# Mechanical properties :
#
#
# Convention : Reuss Voigt Hill
#
# Bulk Modulus (GPa) = 85.92958 86.07092 86.00025
# Shear Modulus (GPa) = 29.42031 35.87441 32.64736
#
# Velocity S-wave (km/s) = 3.68802 4.07251 3.88502
# Velocity P-wave (km/s) = 7.60670 7.86802 7.73846
#
# Compressibility (1/GPa) = 0.01163744
#
# Stress axis : x y z
#
# Youngs Moduli (GPa) = 101.46562 125.90494 123.61301
#
# Poissons Ratio (x) = 0.40502 0.38779
# Poissons Ratio (y) = 0.32640 0.09533
# Poissons Ratio (z) = 0.31831 0.09710
#
# Static dielectric constant tensor:
#      x y z
#    x 1.784110 0.000000 0.000000 
#    y 0.000000 1.794720 0.000000 
#    z 0.000000 0.000000 1.748140 
# 
# From -- ./inp_files/9030.got.cif
#   From: 2010.05.17/outbox.cif.g08.bks.cpg/sg20_5_cif.got.tgz:9030.got - 2010.06.03 22:52:26.
