data_PCOD9320616
_publ_section_title
;
Structure prediction by ZEFSAII (Michael W. Deem and Ramdas Pophale) SiO2 
 PCOD9320616
Probable space group: C 2 2 21
;
_chemical_formula_sum "Si O2"
_cell_formula_units_Z 60
_cell_length_a 21.506986
_cell_length_b 23.200724
_cell_length_c 5.233100
_cell_angle_alpha 90.000000
_cell_angle_beta 90.000000
_cell_angle_gamma 90.000000
_cell_volume 2611.199921
_symmetry_space_group_name_H-M "C 2 2 21"
_symmetry_group_IT_number 20
_symmetry_cell_setting 'orthorhombic'
loop_
_space_group_symop_operation_xyz
x,y,z
-x,-y,1/2+z
x,-y,-z
-x,y,1/2-z
1/2+x,1/2+y,z
1/2-x,1/2-y,1/2+z
1/2+x,1/2-y,-z
1/2-x,1/2+y,1/2-z
loop_
_atom_site_type_symbol
_atom_site_label
_atom_site_fract_x
_atom_site_fract_y
_atom_site_fract_z
Si Si1 0.734569 0.557156 0.644048
Si Si2 0.215519 0.158830 0.245452
Si Si3 0.960014 0.430841 0.996642
Si Si4 0.866595 0.734919 0.685625
Si Si5 0.380715 0.600977 0.650128
Si Si6 0.829852 0.375015 0.070351
Si Si7 0.927898 0.218511 0.826195
Si Si8 0.500000 0.466380 0.250000
O O1 0.752371 0.500000 0.500000
O O2 0.726787 0.615773 0.480107
O O3 0.665579 0.551389 0.753920
O O4 0.787527 0.571472 0.845578
O O5 0.190638 0.223573 0.268286
O O6 0.160296 0.129058 0.076337
O O7 0.282333 0.159546 0.108400
O O8 0.894799 0.398507 0.972317
O O9 0.000000 0.416162 0.250000
O O10 0.949362 0.500000 0.000000
O O11 0.000000 0.416336 0.750000
O O12 0.847057 0.668950 0.704120
O O13 0.892460 0.750619 0.408041
O O14 0.917047 0.749132 0.907152
O O15 0.397422 0.654611 0.836765
O O16 0.446877 0.571695 0.612548
O O17 0.000000 0.213872 0.750000
O O18 0.526689 0.500000 0.500000
#
# Coordination Sequence:
#
# PCOD9320616 Si02
#       8
#     8   8   8   8   8   8   8   4
#     4  11  25  43  71 103 143 183 236 297 354 426
#     4  10  25  43  70 100 145 184 236 295 354 417
#     4  10  25  48  74 104 143 181 231 295 358 431
#     4  11  26  44  71 104 142 184 239 294 352 415
#     4  10  23  44  63 102 140 190 239 293 352 409
#     4  11  28  43  74 104 138 189 235 289 360 442
#     4  11  23  45  70 100 141 189 235 290 349 417
#     4  12  28  40  68 102 140 196 246 296 348 420
#
# _framework density 22.977941000000001
#
# number of rings (size 3 to 8) (size 9 to 14) (size 15 to 20)
#    0.000    1.333    2.000    0.800   11.200    3.200 
#    0.000    0.000    0.000    0.000    0.000    0.000 
#    0.000    0.000    0.000    0.000    0.000    0.000 
#
# Total GULP energy -167621.730332 kJ/mol
# GULP energy per Si atom -5587.391011 kJ/mol
# Density = 2.292564 g / cm^3
# Si number density = 22.977941 Si / 1000 Ang^3
#
#
#
# Elastic Constant Matrix: (Units=GPa)
#
#
# Indices 1 2 3 4 5 6 
#
# 1 167.9365 48.3792 24.9231 0.0000 0.0000 0.0000
# 2 48.3792 47.0569 5.3748 0.0000 0.0000 0.0000
# 3 24.9231 5.3748 64.7092 0.0000 0.0000 0.0000
# 4 0.0000 0.0000 0.0000 15.9460 0.0000 0.0000
# 5 0.0000 0.0000 0.0000 0.0000 23.6050 0.0000
# 6 0.0000 0.0000 0.0000 0.0000 0.0000 12.6700
#
#
#
# Elastic Compliance Matrix: (Units=1/GPa)
#
#
# Indices 1 2 3 4 5 6 
#
# 1 0.008903 -0.008845 -0.002694 0.000000 0.000000 0.000000
# 2 -0.008845 0.030242 0.000895 0.000000 0.000000 0.000000
# 3 -0.002694 0.000895 0.016417 0.000000 0.000000 0.000000
# 4 0.000000 0.000000 0.000000 0.062712 0.000000 0.000000
# 5 0.000000 0.000000 0.000000 0.000000 0.042364 0.000000
# 6 0.000000 0.000000 0.000000 0.000000 0.000000 0.078926
#
#
# Mechanical properties :
#
#
# Convention : Reuss Voigt Hill
#
# Bulk Modulus (GPa) = 29.17748 48.56185 38.86967
# Shear Modulus (GPa) = 18.36365 23.84590 21.10477
#
# Velocity S-wave (km/s) = 2.83005 3.22494 3.03393
# Velocity P-wave (km/s) = 4.83782 5.92005 5.40609
#
# Compressibility (1/GPa) = 0.03427301
#
# Stress axis : x y z
#
# Youngs Moduli (GPa) = 112.32758 33.06636 60.91210
#
# Poissons Ratio (x) = 0.29247 0.16411
# Poissons Ratio (y) = 0.99353 -0.05450
# Poissons Ratio (z) = 0.30263 -0.02959
#
# Static dielectric constant tensor:
#      x y z
#    x 1.855280 0.000000 0.000000 
#    y 0.000000 1.855680 0.000000 
#    z 0.000000 0.000000 1.919470 
# 
# From -- ./inp_files/3343.got.cif
#   From: 2010.05.17/outbox.cif.g08.bks.cpg/sg20_2_cif.got.tgz:3343.got - 2010.06.03 22:52:26.
