data_PCOD9320398
_publ_section_title
;
Structure prediction by ZEFSAII (Michael W. Deem and Ramdas Pophale) SiO2 
 PCOD9320398
Probable space group: C 2 2 21
;
_chemical_formula_sum "Si O2"
_cell_formula_units_Z 48
_cell_length_a 7.289879
_cell_length_b 13.781203
_cell_length_c 20.370891
_cell_angle_alpha 90.000000
_cell_angle_beta 90.000000
_cell_angle_gamma 90.000000
_cell_volume 2046.526982
_symmetry_space_group_name_H-M "C 2 2 21"
_symmetry_group_IT_number 20
_symmetry_cell_setting 'orthorhombic'
loop_
_space_group_symop_operation_xyz
x,y,z
-x,-y,1/2+z
x,-y,-z
-x,y,1/2-z
1/2+x,1/2+y,z
1/2-x,1/2-y,1/2+z
1/2+x,1/2-y,-z
1/2-x,1/2+y,1/2-z
loop_
_atom_site_type_symbol
_atom_site_label
_atom_site_fract_x
_atom_site_fract_y
_atom_site_fract_z
Si Si1 0.603067 0.975350 0.354905
Si Si2 0.695298 0.392848 0.029849
Si Si3 0.641261 0.706716 0.303373
Si Si4 0.494660 0.677369 0.847853
Si Si5 0.232636 0.986074 0.284578
Si Si6 0.802705 0.823427 0.609787
O O1 0.390531 0.985310 0.339884
O O2 0.687833 0.947496 0.284301
O O3 0.710393 0.073846 0.371697
O O4 0.639212 0.907321 0.417672
O O5 0.540644 0.354199 0.078253
O O6 0.655171 0.500000 0.000000
O O7 0.719371 0.321565 0.968762
O O8 0.500000 0.751698 0.250000
O O9 0.830833 0.762863 0.318880
O O10 0.688375 0.599523 0.276475
O O11 0.512543 0.688278 0.367127
O O12 0.430465 0.580007 0.811434
O O13 0.319145 0.746185 0.851435
#
# Coordination Sequence:
#
# PCOD9320398 Si02
#       6
#     8   8   8   8   8   8
#     4  10  22  48  77 108 152 208 256 325 400 465
#     4  10  25  48  74 107 155 201 257 316 387 469
#     4  12  27  50  78 112 157 202 259 333 394 468
#     4  12  29  47  81 115 150 208 260 320 398 469
#     4  11  24  48  77 112 155 202 260 329 404 466
#     4  11  25  49  73 110 157 201 259 321 388 467
#
# _framework density 23.454367999999999
#
# number of rings (size 3 to 8) (size 9 to 14) (size 15 to 20)
#    0.000    1.000    3.333    2.000    4.667    3.333 
#    0.000    0.833    0.000    0.000    0.000    0.000 
#    0.000    0.000    0.000    0.000    0.000    0.000 
#
# Total GULP energy -134226.692129 kJ/mol
# GULP energy per Si atom -5592.778839 kJ/mol
# Density = 2.340099 g / cm^3
# Si number density = 23.454368 Si / 1000 Ang^3
#
#
#
# Elastic Constant Matrix: (Units=GPa)
#
#
# Indices 1 2 3 4 5 6 
#
# 1 139.5944 32.4196 39.1608 0.0000 0.0000 0.0000
# 2 32.4196 102.2303 24.0505 0.0000 0.0000 0.0000
# 3 39.1608 24.0505 146.0639 0.0000 0.0000 0.0000
# 4 0.0000 0.0000 0.0000 0.0694 0.0000 0.0000
# 5 0.0000 0.0000 0.0000 0.0000 36.9925 0.0000
# 6 0.0000 0.0000 0.0000 0.0000 0.0000 37.2648
#
#
#
# Elastic Compliance Matrix: (Units=1/GPa)
#
#
# Indices 1 2 3 4 5 6 
#
# 1 0.008181 -0.002162 -0.001837 0.000000 0.000000 0.000000
# 2 -0.002162 0.010747 -0.001190 0.000000 0.000000 0.000000
# 3 -0.001837 -0.001190 0.007535 0.000000 0.000000 0.000000
# 4 0.000000 0.000000 0.000000 14.402396 0.000000 0.000000
# 5 0.000000 0.000000 0.000000 0.000000 0.027032 0.000000
# 6 0.000000 0.000000 0.000000 0.000000 0.000000 0.026835
#
#
# Mechanical properties :
#
#
# Convention : Reuss Voigt Hill
#
# Bulk Modulus (GPa) = 62.17190 64.35004 63.26097
# Shear Modulus (GPa) = 0.34486 34.34919 17.34702
#
# Velocity S-wave (km/s) = 0.38387 3.83104 2.72252
# Velocity P-wave (km/s) = 5.17316 6.86040 6.07563
#
# Compressibility (1/GPa) = 0.01608444
#
# Stress axis : x y z
#
# Youngs Moduli (GPa) = 122.23113 93.04519 132.71608
#
# Poissons Ratio (x) = 0.20118 0.24386
# Poissons Ratio (y) = 0.26429 0.15793
# Poissons Ratio (z) = 0.22459 0.11072
#
# Static dielectric constant tensor:
#      x y z
#    x 1.881370 0.000000 0.000000 
#    y 0.000000 1.923020 0.000000 
#    z 0.000000 0.000000 1.900710 
# 
# From -- ./inp_files/27295.got.cif
#   From: 2010.05.17/outbox.cif.g08.bks.cpg/sg20_14_cif.got.tgz:27295.got - 2010.06.03 22:52:26.
