data_PCOD9320152
_publ_section_title
;
Structure prediction by ZEFSAII (Michael W. Deem and Ramdas Pophale) SiO2 
 PCOD9320152
Probable space group: C 2 2 21
;
_chemical_formula_sum "Si O2"
_cell_formula_units_Z 52
_cell_length_a 6.205342
_cell_length_b 21.837194
_cell_length_c 18.046446
_cell_angle_alpha 90.000000
_cell_angle_beta 90.000000
_cell_angle_gamma 90.000000
_cell_volume 2445.424398
_symmetry_space_group_name_H-M "C 2 2 21"
_symmetry_group_IT_number 20
_symmetry_cell_setting 'orthorhombic'
loop_
_space_group_symop_operation_xyz
x,y,z
-x,-y,1/2+z
x,-y,-z
-x,y,1/2-z
1/2+x,1/2+y,z
1/2-x,1/2-y,1/2+z
1/2+x,1/2-y,-z
1/2-x,1/2+y,1/2-z
loop_
_atom_site_type_symbol
_atom_site_label
_atom_site_fract_x
_atom_site_fract_y
_atom_site_fract_z
Si Si1 0.500000 0.194524 0.250000
Si Si2 0.621007 0.000606 0.083707
Si Si3 0.823888 0.293775 0.185056
Si Si4 0.660440 0.928844 0.319617
Si Si5 0.085509 0.724164 0.515606
Si Si6 0.479353 0.542866 0.329683
Si Si7 0.659679 0.878090 0.605754
O O1 0.663557 0.240033 0.207985
O O2 0.398783 0.153438 0.184356
O O3 0.478834 0.061049 0.094024
O O4 0.811669 0.010035 0.140571
O O5 0.482913 0.941309 0.106924
O O6 0.700061 0.000000 0.000000
O O7 0.726983 0.362779 0.180587
O O8 0.923839 0.282918 0.104261
O O9 0.000000 0.295525 0.250000
O O10 0.500000 0.931277 0.250000
O O11 0.814498 0.987101 0.317054
O O12 0.334770 0.753720 0.504684
O O13 0.116906 0.666229 0.462069
O O14 0.500000 0.573828 0.250000
O O15 0.399856 0.594496 0.386559
#
# Coordination Sequence:
#
# PCOD9320152 Si02
#       7
#     4   8   8   8   8   8   8
#     4  12  24  46  70 110 144 196 252 300 386 452
#     4  11  24  42  68 103 140 183 241 313 378 444
#     4  11  26  44  73 103 147 198 250 313 374 461
#     4  10  22  43  65  98 137 183 242 300 369 444
#     4  12  27  50  73 106 151 200 253 313 382 454
#     4  11  23  41  72 101 137 191 239 309 377 444
#     4  11  26  44  71 104 150 189 252 309 375 459
#
# _framework density 21.264203999999999
#
# number of rings (size 3 to 8) (size 9 to 14) (size 15 to 20)
#    0.000    0.923    3.077    2.769    5.385    6.769 
#    0.000    0.000    0.000    0.000    0.000    0.000 
#    0.000    0.000    0.000    0.000    0.000    0.000 
#
# Total GULP energy -144921.028700 kJ/mol
# GULP energy per Si atom -5573.885719 kJ/mol
# Density = 2.121581 g / cm^3
# Si number density = 21.264204 Si / 1000 Ang^3
#
#
#
# Elastic Constant Matrix: (Units=GPa)
#
#
# Indices 1 2 3 4 5 6 
#
# 1 60.0322 15.3575 16.6117 0.0000 0.0000 0.0000
# 2 15.3575 72.9959 14.1187 0.0000 0.0000 0.0000
# 3 16.6117 14.1187 138.7353 0.0000 0.0000 0.0000
# 4 0.0000 0.0000 0.0000 70.7065 0.0000 0.0000
# 5 0.0000 0.0000 0.0000 0.0000 31.5130 0.0000
# 6 0.0000 0.0000 0.0000 0.0000 0.0000 19.9570
#
#
#
# Elastic Compliance Matrix: (Units=1/GPa)
#
#
# Indices 1 2 3 4 5 6 
#
# 1 0.018040 -0.003445 -0.001809 0.000000 0.000000 0.000000
# 2 -0.003445 0.014633 -0.001077 0.000000 0.000000 0.000000
# 3 -0.001809 -0.001077 0.007534 0.000000 0.000000 0.000000
# 4 0.000000 0.000000 0.000000 0.014143 0.000000 0.000000
# 5 0.000000 0.000000 0.000000 0.000000 0.031733 0.000000
# 6 0.000000 0.000000 0.000000 0.000000 0.000000 0.050108
#
#
# Mechanical properties :
#
#
# Convention : Reuss Voigt Hill
#
# Bulk Modulus (GPa) = 36.30587 40.43769 38.37178
# Shear Modulus (GPa) = 31.63873 39.48033 35.55953
#
# Velocity S-wave (km/s) = 3.86150 4.31357 4.09378
# Velocity P-wave (km/s) = 6.08213 6.62323 6.35844
#
# Compressibility (1/GPa) = 0.02754376
#
# Stress axis : x y z
#
# Youngs Moduli (GPa) = 55.43290 68.34097 132.72838
#
# Poissons Ratio (x) = 0.23546 0.24016
# Poissons Ratio (y) = 0.19099 0.14289
# Poissons Ratio (z) = 0.10030 0.07357
#
# Static dielectric constant tensor:
#      x y z
#    x 1.753370 0.000000 0.000000 
#    y 0.000000 1.759680 0.000000 
#    z 0.000000 0.000000 1.751220 
# 
# From -- ./inp_files/26105.got.cif
#   From: 2010.05.17/outbox.cif.g08.bks.cpg/sg20_14_cif.got.tgz:26105.got - 2010.06.03 22:52:26.
