data_PCOD9320517
_publ_section_title
;
Structure prediction by ZEFSAII (Michael W. Deem and Ramdas Pophale) SiO2 
 PCOD9320517
Probable space group: C 2 2 21
;
_chemical_formula_sum "Si O2"
_cell_formula_units_Z 48
_cell_length_a 8.731530
_cell_length_b 29.113204
_cell_length_c 8.449524
_cell_angle_alpha 90.000000
_cell_angle_beta 90.000000
_cell_angle_gamma 90.000000
_cell_volume 2147.892779
_symmetry_space_group_name_H-M "C 2 2 21"
_symmetry_group_IT_number 20
_symmetry_cell_setting 'orthorhombic'
loop_
_space_group_symop_operation_xyz
x,y,z
-x,-y,1/2+z
x,-y,-z
-x,y,1/2-z
1/2+x,1/2+y,z
1/2-x,1/2-y,1/2+z
1/2+x,1/2-y,-z
1/2-x,1/2+y,1/2-z
loop_
_atom_site_type_symbol
_atom_site_label
_atom_site_fract_x
_atom_site_fract_y
_atom_site_fract_z
Si Si1 0.603225 0.279229 0.906265
Si Si2 0.826210 0.342492 0.739759
Si Si3 0.666196 0.009370 0.687709
Si Si4 0.830811 0.900509 0.305197
Si Si5 0.660440 0.576322 0.176984
Si Si6 0.684881 0.689412 0.589248
O O1 0.500000 0.279264 0.750000
O O2 0.729946 0.318225 0.878863
O O3 0.699253 0.232211 0.896336
O O4 0.487180 0.290791 0.051021
O O5 0.806754 0.396330 0.759337
O O6 0.744296 0.332327 0.574418
O O7 0.000000 0.326774 0.750000
O O8 0.500000 0.996827 0.750000
O O9 0.807003 0.975668 0.728694
O O10 0.657882 0.000000 0.500000
O O11 0.706735 0.061030 0.742593
O O12 0.840912 0.909669 0.493259
O O13 0.000000 0.913350 0.250000
O O14 0.195916 0.849971 0.274667
O O15 0.500000 0.592557 0.250000
#
# Coordination Sequence:
#
# PCOD9320517 Si02
#       6
#     8   8   8   8   8   8
#     4  10  23  42  64  96 134 173 222 279 350 420
#     4  11  23  40  63  91 126 173 222 275 347 415
#     4  10  24  43  65  97 136 179 228 284 344 411
#     4  11  24  41  67  98 128 172 228 283 341 412
#     4  11  23  43  66  94 135 178 225 282 351 421
#     4  11  24  43  67  96 133 177 227 287 345 419
#
# _framework density 22.347484000000001
#
# number of rings (size 3 to 8) (size 9 to 14) (size 15 to 20)
#    0.000    1.333    0.000    5.500    0.000   13.333 
#    0.000    0.000    0.000    0.000    0.000    0.000 
#    0.000    0.000    0.000    0.000    0.000    0.000 
#
# Total GULP energy -133839.540477 kJ/mol
# GULP energy per Si atom -5576.647520 kJ/mol
# Density = 2.229662 g / cm^3
# Si number density = 22.347484 Si / 1000 Ang^3
#
#
#
# Elastic Constant Matrix: (Units=GPa)
#
#
# Indices 1 2 3 4 5 6 
#
# 1 143.7067 57.4593 33.2324 0.0000 0.0000 0.0000
# 2 57.4593 143.9000 48.6804 0.0000 0.0000 0.0000
# 3 33.2324 48.6804 45.5797 0.0000 0.0000 0.0000
# 4 0.0000 0.0000 0.0000 148.4249 0.0000 0.0000
# 5 0.0000 0.0000 0.0000 0.0000 11.1786 0.0000
# 6 0.0000 0.0000 0.0000 0.0000 0.0000 44.4326
#
#
#
# Elastic Compliance Matrix: (Units=1/GPa)
#
#
# Indices 1 2 3 4 5 6 
#
# 1 0.008755 -0.002092 -0.004148 0.000000 0.000000 0.000000
# 2 -0.002092 0.011381 -0.010629 0.000000 0.000000 0.000000
# 3 -0.004148 -0.010629 0.036316 0.000000 0.000000 0.000000
# 4 0.000000 0.000000 0.000000 0.006737 0.000000 0.000000
# 5 0.000000 0.000000 0.000000 0.000000 0.089456 0.000000
# 6 0.000000 0.000000 0.000000 0.000000 0.000000 0.022506
#
#
# Mechanical properties :
#
#
# Convention : Reuss Voigt Hill
#
# Bulk Modulus (GPa) = 44.02993 67.99230 56.01112
# Shear Modulus (GPa) = 23.09879 53.72817 38.41348
#
# Velocity S-wave (km/s) = 3.21848 4.90860 4.15048
# Velocity P-wave (km/s) = 5.79281 7.91308 6.93446
#
# Compressibility (1/GPa) = 0.02271182
#
# Stress axis : x y z
#
# Youngs Moduli (GPa) = 114.22676 87.86937 27.53574
#
# Poissons Ratio (x) = 0.18385 0.11423
# Poissons Ratio (y) = 0.23900 0.29268
# Poissons Ratio (z) = 0.47385 0.93398
#
# Static dielectric constant tensor:
#      x y z
#    x 1.769290 0.000000 0.000000 
#    y 0.000000 1.932460 0.000000 
#    z 0.000000 0.000000 1.837420 
# 
# From -- ./inp_files/6441.got.cif
#   From: 2010.05.17/outbox.cif.g08.bks.cpg/sg20_4_cif.got.tgz:6441.got - 2010.06.03 22:52:26.
