data_PCOD9320826
_publ_section_title
;
Structure prediction by ZEFSAII (Michael W. Deem and Ramdas Pophale) SiO2 
 PCOD9320826
Probable space group: C 2 2 21
;
_chemical_formula_sum "Si O2"
_cell_formula_units_Z 36
_cell_length_a 5.170867
_cell_length_b 13.665629
_cell_length_c 22.480373
_cell_angle_alpha 90.000000
_cell_angle_beta 90.000000
_cell_angle_gamma 90.000000
_cell_volume 1588.533970
_symmetry_space_group_name_H-M "C 2 2 21"
_symmetry_group_IT_number 20
_symmetry_cell_setting 'orthorhombic'
loop_
_space_group_symop_operation_xyz
x,y,z
-x,-y,1/2+z
x,-y,-z
-x,y,1/2-z
1/2+x,1/2+y,z
1/2-x,1/2-y,1/2+z
1/2+x,1/2-y,-z
1/2-x,1/2+y,1/2-z
loop_
_atom_site_type_symbol
_atom_site_label
_atom_site_fract_x
_atom_site_fract_y
_atom_site_fract_z
Si Si1 0.310313 0.807073 0.517885
Si Si2 0.606311 0.000000 0.500000
Si Si3 0.199009 0.376927 0.846842
Si Si4 0.250079 0.172599 0.788381
Si Si5 0.698128 0.496570 0.868984
O O1 0.532947 0.726564 0.506095
O O2 0.422806 0.906416 0.489472
O O3 0.292061 0.829187 0.587510
O O4 0.772133 0.014042 0.440236
O O5 0.244630 0.287572 0.802760
O O6 0.425128 0.456641 0.846567
O O7 0.923425 0.429267 0.840876
O O8 0.500000 0.148275 0.750000
O O9 0.242648 0.106930 0.847564
O O10 0.000000 0.147770 0.750000
#
# Coordination Sequence:
#
# PCOD9320826 Si02
#       5
#     8   4   8   8   8
#     4  11  23  39  64  96 132 172 211 259 318 388
#     4  10  24  42  68 100 136 174 216 268 332 398
#     4  11  25  43  65  95 130 170 215 267 324 383
#     4  12  27  45  69  96 128 174 224 276 329 389
#     4  11  25  44  68 100 134 172 218 271 331 394
#
# _framework density 22.662406000000001
#
# number of rings (size 3 to 8) (size 9 to 14) (size 15 to 20)
#    0.000    0.889    0.000    6.667    0.000   18.667 
#    0.000    0.000    0.000    0.000    0.000    0.000 
#    0.000    0.000    0.000    0.000    0.000    0.000 
#
# Total GULP energy -100876.195377 kJ/mol
# GULP energy per Si atom -5604.233077 kJ/mol
# Density = 2.261083 g / cm^3
# Si number density = 22.662406 Si / 1000 Ang^3
#
#
#
# Elastic Constant Matrix: (Units=GPa)
#
#
# Indices 1 2 3 4 5 6 
#
# 1 98.6874 -14.6535 22.9460 0.0000 0.0000 0.0000
# 2 -14.6535 74.1176 17.1319 0.0000 0.0000 0.0000
# 3 22.9460 17.1319 37.0130 0.0000 0.0000 0.0000
# 4 0.0000 0.0000 0.0000 48.2335 0.0000 0.0000
# 5 0.0000 0.0000 0.0000 0.0000 18.3083 0.0000
# 6 0.0000 0.0000 0.0000 0.0000 0.0000 52.5643
#
#
#
# Elastic Compliance Matrix: (Units=1/GPa)
#
#
# Indices 1 2 3 4 5 6 
#
# 1 0.013367 0.005104 -0.010649 0.000000 0.000000 0.000000
# 2 0.005104 0.017058 -0.011060 0.000000 0.000000 0.000000
# 3 -0.010649 -0.011060 0.038739 0.000000 0.000000 0.000000
# 4 0.000000 0.000000 0.000000 0.020732 0.000000 0.000000
# 5 0.000000 0.000000 0.000000 0.000000 0.054620 0.000000
# 6 0.000000 0.000000 0.000000 0.000000 0.000000 0.019024
#
#
# Mechanical properties :
#
#
# Convention : Reuss Voigt Hill
#
# Bulk Modulus (GPa) = 27.81354 28.96299 28.38827
# Shear Modulus (GPa) = 23.95390 36.11413 30.03401
#
# Velocity S-wave (km/s) = 3.25466 3.99628 3.64439
# Velocity P-wave (km/s) = 5.14037 5.83966 5.50114
#
# Compressibility (1/GPa) = 0.03595371
#
# Stress axis : x y z
#
# Youngs Moduli (GPa) = 74.81092 58.62483 25.81396
#
# Poissons Ratio (x) = -0.29924 0.27490
# Poissons Ratio (y) = -0.38186 0.28550
# Poissons Ratio (z) = 0.79669 0.64837
#
# Static dielectric constant tensor:
#      x y z
#    x 1.788980 0.000000 0.000000 
#    y 0.000000 1.846390 0.000000 
#    z 0.000000 0.000000 1.823230 
# 
# From -- ./inp_files/28202.got.cif
#   From: 2010.05.17/outbox.cif.g08.bks.cpg/sg20_15_cif.got.tgz:28202.got - 2010.06.03 22:52:26.
