data_PCOD9320219
_publ_section_title
;
Structure prediction by ZEFSAII (Michael W. Deem and Ramdas Pophale) SiO2 
 PCOD9320219
Probable space group: C 2 2 21
;
_chemical_formula_sum "Si O2"
_cell_formula_units_Z 40
_cell_length_a 12.596597
_cell_length_b 6.754333
_cell_length_c 20.548138
_cell_angle_alpha 90.000000
_cell_angle_beta 90.000000
_cell_angle_gamma 90.000000
_cell_volume 1748.268680
_symmetry_space_group_name_H-M "C 2 2 21"
_symmetry_group_IT_number 20
_symmetry_cell_setting 'orthorhombic'
loop_
_space_group_symop_operation_xyz
x,y,z
-x,-y,1/2+z
x,-y,-z
-x,y,1/2-z
1/2+x,1/2+y,z
1/2-x,1/2-y,1/2+z
1/2+x,1/2-y,-z
1/2-x,1/2+y,1/2-z
loop_
_atom_site_type_symbol
_atom_site_label
_atom_site_fract_x
_atom_site_fract_y
_atom_site_fract_z
Si Si1 0.601099 0.396677 0.431460
Si Si2 0.763801 0.385763 0.189980
Si Si3 0.290508 0.938382 0.341560
Si Si4 0.982040 0.430851 0.860052
Si Si5 0.535570 0.499236 0.819587
O O1 0.611437 0.500000 0.500000
O O2 0.713087 0.355301 0.396498
O O3 0.540465 0.184705 0.428008
O O4 0.535007 0.542477 0.382902
O O5 0.740575 0.171862 0.160269
O O6 0.763443 0.370504 0.268357
O O7 0.875824 0.470252 0.166798
O O8 0.661159 0.517106 0.171066
O O9 0.415443 0.930793 0.356538
O O10 0.010901 0.237075 0.816737
O O11 0.500000 0.412188 0.750000
#
# Coordination Sequence:
#
# PCOD9320219 Si02
#       5
#     8   8   8   8   8
#     4  10  22  44  60  82 126 167 201 250 306 365
#     4  11  19  37  64  91 122 153 195 260 306 355
#     4  11  21  38  60  92 122 153 202 252 309 363
#     4   9  21  39  58  87 124 152 193 254 303 352
#     4   9  17  37  61  81 119 153 198 244 299 350
#
# _framework density 22.879778999999999
#
# number of rings (size 3 to 8) (size 9 to 14) (size 15 to 20)
#    1.200    0.800    2.000    4.200    0.000    0.000 
#   14.400    1.000    0.000    0.000    0.000    0.000 
#    0.000    0.000    0.000    0.000    0.000    0.000 
#
# Total GULP energy -111662.252723 kJ/mol
# GULP energy per Si atom -5583.112636 kJ/mol
# Density = 2.282770 g / cm^3
# Si number density = 22.879779 Si / 1000 Ang^3
#
#
#
# Elastic Constant Matrix: (Units=GPa)
#
#
# Indices 1 2 3 4 5 6 
#
# 1 203.2714 18.0378 47.7333 0.0000 0.0000 0.0000
# 2 18.0378 34.2848 13.4943 0.0000 0.0000 0.0000
# 3 47.7333 13.4943 66.7544 0.0000 0.0000 0.0000
# 4 0.0000 0.0000 0.0000 2.3545 0.0000 0.0000
# 5 0.0000 0.0000 0.0000 0.0000 15.5923 0.0000
# 6 0.0000 0.0000 0.0000 0.0000 0.0000 0.4197
#
#
#
# Elastic Compliance Matrix: (Units=1/GPa)
#
#
# Indices 1 2 3 4 5 6 
#
# 1 0.005991 -0.001593 -0.003962 0.000000 0.000000 0.000000
# 2 -0.001593 0.032112 -0.005353 0.000000 0.000000 0.000000
# 3 -0.003962 -0.005353 0.018896 0.000000 0.000000 0.000000
# 4 0.000000 0.000000 0.000000 0.424724 0.000000 0.000000
# 5 0.000000 0.000000 0.000000 0.000000 0.064134 0.000000
# 6 0.000000 0.000000 0.000000 0.000000 0.000000 2.382856
#
#
# Mechanical properties :
#
#
# Convention : Reuss Voigt Hill
#
# Bulk Modulus (GPa) = 28.42194 51.42683 39.92439
# Shear Modulus (GPa) = 1.68790 18.67628 10.18209
#
# Velocity S-wave (km/s) = 0.85984 2.86016 2.11185
# Velocity P-wave (km/s) = 3.66538 5.78214 4.84088
#
# Compressibility (1/GPa) = 0.03518409
#
# Stress axis : x y z
#
# Youngs Moduli (GPa) = 166.90933 31.14090 52.92265
#
# Poissons Ratio (x) = 0.04960 0.20969
# Poissons Ratio (y) = 0.26582 0.28327
# Poissons Ratio (z) = 0.66132 0.16668
#
# Static dielectric constant tensor:
#      x y z
#    x 1.886380 0.000000 0.000000 
#    y 0.000000 2.014160 0.000000 
#    z 0.000000 0.000000 1.792420 
# 
# From -- ./inp_files/27096.got.cif
#   From: 2010.05.17/outbox.cif.g08.bks.cpg/sg20_14_cif.got.tgz:27096.got - 2010.06.03 22:52:26.
