data_PCOD9320850
_publ_section_title
;
Structure prediction by ZEFSAII (Michael W. Deem and Ramdas Pophale) SiO2 
 PCOD9320850
Probable space group: C 2 2 21
;
_chemical_formula_sum "Si O2"
_cell_formula_units_Z 40
_cell_length_a 8.433571
_cell_length_b 22.362603
_cell_length_c 9.683056
_cell_angle_alpha 90.000000
_cell_angle_beta 90.000000
_cell_angle_gamma 90.000000
_cell_volume 1826.191441
_symmetry_space_group_name_H-M "C 2 2 21"
_symmetry_group_IT_number 20
_symmetry_cell_setting 'orthorhombic'
loop_
_space_group_symop_operation_xyz
x,y,z
-x,-y,1/2+z
x,-y,-z
-x,y,1/2-z
1/2+x,1/2+y,z
1/2-x,1/2-y,1/2+z
1/2+x,1/2-y,-z
1/2-x,1/2+y,1/2-z
loop_
_atom_site_type_symbol
_atom_site_label
_atom_site_fract_x
_atom_site_fract_y
_atom_site_fract_z
Si Si1 0.000000 0.434927 0.250000
Si Si2 0.896619 0.500000 0.000000
Si Si3 0.830196 0.385154 0.828382
Si Si4 0.322957 0.293611 0.477620
Si Si5 0.156834 0.829389 0.576650
Si Si6 0.662133 0.620108 0.724757
O O1 0.988518 0.472577 0.387113
O O2 0.166418 0.402877 0.266499
O O3 0.805898 0.553266 0.083602
O O4 0.811319 0.330912 0.938843
O O5 0.705125 0.369293 0.707390
O O6 0.000000 0.387028 0.750000
O O7 0.274324 0.226479 0.444664
O O8 0.480278 0.301315 0.570975
O O9 0.357153 0.324364 0.330198
O O10 0.170109 0.866702 0.436309
O O11 0.500000 0.582900 0.750000
#
# Coordination Sequence:
#
# PCOD9320850 Si02
#       6
#     4   4   8   8   8   8
#     4  12  24  48  74  94 140 186 238 300 366 420
#     4  12  26  44  74 104 134 198 252 294 362 444
#     4  12  24  44  69 103 146 190 247 299 357 444
#     4  11  23  43  69 106 145 185 239 299 362 441
#     4  11  24  41  71 106 142 189 235 299 370 433
#     4  10  24  43  66 102 142 183 239 294 358 436
#
# _framework density 21.903509
#
# number of rings (size 3 to 8) (size 9 to 14) (size 15 to 20)
#    0.000    0.800    3.000    4.200    2.800    1.600 
#    0.000    3.000    0.000    0.000    0.000    0.000 
#    0.000    0.000    0.000    0.000    0.000    0.000 
#
# Total GULP energy -111565.626562 kJ/mol
# GULP energy per Si atom -5578.281328 kJ/mol
# Density = 2.185366 g / cm^3
# Si number density = 21.903509 Si / 1000 Ang^3
#
#
#
# Elastic Constant Matrix: (Units=GPa)
#
#
# Indices 1 2 3 4 5 6 
#
# 1 134.1326 44.5884 38.1078 0.0000 0.0000 0.0000
# 2 44.5884 67.0627 50.1668 0.0000 0.0000 0.0000
# 3 38.1078 50.1668 165.0462 0.0000 0.0000 0.0000
# 4 0.0000 0.0000 0.0000 8.6672 0.0000 0.0000
# 5 0.0000 0.0000 0.0000 0.0000 41.2183 0.0000
# 6 0.0000 0.0000 0.0000 0.0000 0.0000 5.6937
#
#
#
# Elastic Compliance Matrix: (Units=1/GPa)
#
#
# Indices 1 2 3 4 5 6 
#
# 1 0.009587 -0.006107 -0.000357 0.000000 0.000000 0.000000
# 2 -0.006107 0.023190 -0.005639 0.000000 0.000000 0.000000
# 3 -0.000357 -0.005639 0.007855 0.000000 0.000000 0.000000
# 4 0.000000 0.000000 0.000000 0.115378 0.000000 0.000000
# 5 0.000000 0.000000 0.000000 0.000000 0.024261 0.000000
# 6 0.000000 0.000000 0.000000 0.000000 0.000000 0.175634
#
#
# Mechanical properties :
#
#
# Convention : Reuss Voigt Hill
#
# Bulk Modulus (GPa) = 60.87774 70.21862 65.54818
# Shear Modulus (GPa) = 12.96729 26.67439 19.82084
#
# Velocity S-wave (km/s) = 2.43578 3.49350 3.01145
# Velocity P-wave (km/s) = 5.98036 6.95705 6.48711
#
# Compressibility (1/GPa) = 0.01642637
#
# Stress axis : x y z
#
# Youngs Moduli (GPa) = 104.30961 43.12260 127.30231
#
# Poissons Ratio (x) = 0.26334 0.04549
# Poissons Ratio (y) = 0.63699 0.71781
# Poissons Ratio (z) = 0.03727 0.24315
#
# Static dielectric constant tensor:
#      x y z
#    x 1.910200 0.000000 0.000000 
#    y 0.000000 1.834350 0.000000 
#    z 0.000000 0.000000 1.763790 
# 
# From -- ./inp_files/6170.got.cif
#   From: 2010.05.17/outbox.cif.g08.bks.cpg/sg20_4_cif.got.tgz:6170.got - 2010.06.03 22:52:26.
