data_PCOD9320796
_publ_section_title
;
Structure prediction by ZEFSAII (Michael W. Deem and Ramdas Pophale) SiO2 
 PCOD9320796
Probable space group: C 2 2 21
;
_chemical_formula_sum "Si O2"
_cell_formula_units_Z 64
_cell_length_a 9.522811
_cell_length_b 27.851838
_cell_length_c 12.148775
_cell_angle_alpha 90.000000
_cell_angle_beta 90.000000
_cell_angle_gamma 90.000000
_cell_volume 3222.192736
_symmetry_space_group_name_H-M "C 2 2 21"
_symmetry_group_IT_number 20
_symmetry_cell_setting 'orthorhombic'
loop_
_space_group_symop_operation_xyz
x,y,z
-x,-y,1/2+z
x,-y,-z
-x,y,1/2-z
1/2+x,1/2+y,z
1/2-x,1/2-y,1/2+z
1/2+x,1/2-y,-z
1/2-x,1/2+y,1/2-z
loop_
_atom_site_type_symbol
_atom_site_label
_atom_site_fract_x
_atom_site_fract_y
_atom_site_fract_z
Si Si1 0.766948 0.357964 0.515665
Si Si2 0.009172 0.709654 0.120870
Si Si3 0.185035 0.453226 0.446706
Si Si4 0.590573 0.932026 0.140501
Si Si5 0.258095 0.146664 0.046129
Si Si6 0.833132 0.093916 0.240374
Si Si7 0.332226 0.516554 0.752287
Si Si8 0.006280 0.175122 0.880660
O O1 0.852652 0.313237 0.565968
O O2 0.870304 0.387602 0.436127
O O3 0.717826 0.389830 0.620156
O O4 0.632673 0.343154 0.443349
O O5 0.009176 0.766990 0.116410
O O6 0.000000 0.695198 0.250000
O O7 0.874821 0.687532 0.057949
O O8 0.251067 0.500000 0.500000
O O9 0.177454 0.404545 0.512137
O O10 0.283240 0.446904 0.342108
O O11 0.028529 0.465956 0.410125
O O12 0.500000 0.916055 0.250000
O O13 0.735527 0.961744 0.151642
O O14 0.205282 0.133787 0.168819
O O15 0.138533 0.158203 0.955683
O O16 0.000000 0.090667 0.250000
O O17 0.784000 0.038958 0.263859
O O18 0.500000 0.517362 0.750000
O O19 0.000000 0.160803 0.750000
#
# Coordination Sequence:
#
# PCOD9320796 Si02
#       8
#     8   8   8   8   8   8   8   8
#     4  12  24  42  72  98 133 175 226 278 342 403
#     4  11  24  46  70 103 132 170 226 286 346 410
#     4  11  23  40  62  97 134 179 220 270 335 403
#     4  10  25  42  62  93 137 175 225 273 328 400
#     4  12  23  44  72  96 140 177 219 283 341 401
#     4  11  23  42  66 103 134 177 223 279 334 395
#     4  10  24  41  63  93 134 177 232 269 327 392
#     4  11  28  45  70  98 134 176 228 283 347 405
#
# _framework density 19.862251000000001
#
# number of rings (size 3 to 8) (size 9 to 14) (size 15 to 20)
#    0.000    1.000    5.000    0.750    7.000    0.000 
#    2.250    0.000    0.000    0.000    0.000    0.000 
#    0.000    0.000    0.000    0.000    0.000    0.000 
#
# Total GULP energy -178281.944945 kJ/mol
# GULP energy per Si atom -5571.310780 kJ/mol
# Density = 1.981704 g / cm^3
# Si number density = 19.862251 Si / 1000 Ang^3
#
#
#
# Elastic Constant Matrix: (Units=GPa)
#
#
# Indices 1 2 3 4 5 6 
#
# 1 113.5345 24.1356 49.1370 0.0000 0.0000 0.0000
# 2 24.1356 65.2423 36.6865 0.0000 0.0000 0.0000
# 3 49.1370 36.6865 126.4539 0.0000 0.0000 0.0000
# 4 0.0000 0.0000 0.0000 37.3428 0.0000 0.0000
# 5 0.0000 0.0000 0.0000 0.0000 22.8739 0.0000
# 6 0.0000 0.0000 0.0000 0.0000 0.0000 50.3354
#
#
#
# Elastic Compliance Matrix: (Units=1/GPa)
#
#
# Indices 1 2 3 4 5 6 
#
# 1 0.010793 -0.001953 -0.003627 0.000000 0.000000 0.000000
# 2 -0.001953 0.018669 -0.004657 0.000000 0.000000 0.000000
# 3 -0.003627 -0.004657 0.010669 0.000000 0.000000 0.000000
# 4 0.000000 0.000000 0.000000 0.026779 0.000000 0.000000
# 5 0.000000 0.000000 0.000000 0.000000 0.043718 0.000000
# 6 0.000000 0.000000 0.000000 0.000000 0.000000 0.019867
#
#
# Mechanical properties :
#
#
# Convention : Reuss Voigt Hill
#
# Bulk Modulus (GPa) = 50.87697 58.34989 54.61343
# Shear Modulus (GPa) = 31.74181 35.12852 33.43516
#
# Velocity S-wave (km/s) = 4.00196 4.21004 4.10732
# Velocity P-wave (km/s) = 6.85746 7.28517 7.07455
#
# Compressibility (1/GPa) = 0.01965526
#
# Stress axis : x y z
#
# Youngs Moduli (GPa) = 92.65307 53.56521 93.73261
#
# Poissons Ratio (x) = 0.10462 0.33999
# Poissons Ratio (y) = 0.18096 0.43654
# Poissons Ratio (z) = 0.33608 0.24947
#
# Static dielectric constant tensor:
#      x y z
#    x 1.710700 0.000000 0.000000 
#    y 0.000000 1.714620 0.000000 
#    z 0.000000 0.000000 1.299820 
# 
# From -- ./inp_files/13375.got.cif
#   From: 2010.05.17/outbox.cif.g08.bks.cpg/sg20_7_cif.got.tgz:13375.got - 2010.06.03 22:52:26.
