data_PCOD9320455
_publ_section_title
;
Structure prediction by ZEFSAII (Michael W. Deem and Ramdas Pophale) SiO2 
 PCOD9320455
Probable space group: C 2 2 21
;
_chemical_formula_sum "Si O2"
_cell_formula_units_Z 40
_cell_length_a 29.122857
_cell_length_b 5.138672
_cell_length_c 12.168257
_cell_angle_alpha 90.000000
_cell_angle_beta 90.000000
_cell_angle_gamma 90.000000
_cell_volume 1821.013851
_symmetry_space_group_name_H-M "C 2 2 21"
_symmetry_group_IT_number 20
_symmetry_cell_setting 'orthorhombic'
loop_
_space_group_symop_operation_xyz
x,y,z
-x,-y,1/2+z
x,-y,-z
-x,y,1/2-z
1/2+x,1/2+y,z
1/2-x,1/2-y,1/2+z
1/2+x,1/2-y,-z
1/2-x,1/2+y,1/2-z
loop_
_atom_site_type_symbol
_atom_site_label
_atom_site_fract_x
_atom_site_fract_y
_atom_site_fract_z
Si Si1 0.888056 0.890759 0.804509
Si Si2 0.414493 0.000000 0.500000
Si Si3 0.165991 0.823941 0.905848
Si Si4 0.174991 0.000000 0.500000
Si Si5 0.750551 0.446744 0.323529
Si Si6 0.945736 0.383138 0.735388
O O1 0.849613 0.946189 0.709900
O O2 0.917105 0.633059 0.777400
O O3 0.860177 0.853476 0.917892
O O4 0.922835 0.133925 0.794686
O O5 0.381089 0.779224 0.454922
O O6 0.440151 0.880017 0.603381
O O7 0.200226 0.591613 0.879490
O O8 0.187981 0.000000 0.000000
O O9 0.210705 0.877486 0.411452
O O10 0.748435 0.735248 0.274557
O O11 0.000000 0.403486 0.750000
#
# Coordination Sequence:
#
# PCOD9320455 Si02
#       6
#     8   4   8   4   8   8
#     4  11  26  45  71 105 143 186 235 292 371 426
#     4  10  23  40  74 100 132 186 230 290 349 418
#     4  11  23  44  72 102 139 189 244 291 337 418
#     4  12  29  48  72 108 158 192 238 310 367 432
#     4  12  30  46  70 106 148 198 251 296 348 432
#     4  11  25  47  73 107 140 180 240 299 366 444
#
# _framework density 21.965786999999999
#
# number of rings (size 3 to 8) (size 9 to 14) (size 15 to 20)
#    0.000    0.800    4.000    1.200   11.200    4.000 
#    0.000    0.000    0.000    0.000    0.000    0.000 
#    0.000    0.000    0.000    0.000    0.000    0.000 
#
# Total GULP energy -111694.470316 kJ/mol
# GULP energy per Si atom -5584.723516 kJ/mol
# Density = 2.191579 g / cm^3
# Si number density = 21.965787 Si / 1000 Ang^3
#
#
#
# Elastic Constant Matrix: (Units=GPa)
#
#
# Indices 1 2 3 4 5 6 
#
# 1 131.4975 11.2835 55.6493 0.0000 0.0000 0.0000
# 2 11.2835 75.4254 10.7343 0.0000 0.0000 0.0000
# 3 55.6493 10.7343 133.2344 0.0000 0.0000 0.0000
# 4 0.0000 0.0000 0.0000 23.5311 0.0000 0.0000
# 5 0.0000 0.0000 0.0000 0.0000 40.4490 0.0000
# 6 0.0000 0.0000 0.0000 0.0000 0.0000 25.5842
#
#
#
# Elastic Compliance Matrix: (Units=1/GPa)
#
#
# Indices 1 2 3 4 5 6 
#
# 1 0.009291 -0.000847 -0.003812 0.000000 0.000000 0.000000
# 2 -0.000847 0.013489 -0.000733 0.000000 0.000000 0.000000
# 3 -0.003812 -0.000733 0.009157 0.000000 0.000000 0.000000
# 4 0.000000 0.000000 0.000000 0.042497 0.000000 0.000000
# 5 0.000000 0.000000 0.000000 0.000000 0.024723 0.000000
# 6 0.000000 0.000000 0.000000 0.000000 0.000000 0.039087
#
#
# Mechanical properties :
#
#
# Convention : Reuss Voigt Hill
#
# Bulk Modulus (GPa) = 47.27709 55.05461 51.16585
# Shear Modulus (GPa) = 32.03515 35.41221 33.72368
#
# Velocity S-wave (km/s) = 3.82306 4.01952 3.92252
# Velocity P-wave (km/s) = 6.40761 6.83083 6.62260
#
# Compressibility (1/GPa) = 0.02115189
#
# Stress axis : x y z
#
# Youngs Moduli (GPa) = 107.63376 74.13347 109.20690
#
# Poissons Ratio (x) = 0.06282 0.41633
# Poissons Ratio (y) = 0.09120 0.08003
# Poissons Ratio (z) = 0.41033 0.05433
#
# Static dielectric constant tensor:
#      x y z
#    x 1.769580 0.000000 0.000000 
#    y 0.000000 1.803460 0.000000 
#    z 0.000000 0.000000 2.502410 
# 
# From -- ./inp_files/16915.got.cif
#   From: 2010.05.17/outbox.cif.g08.bks.cpg/sg20_9_cif.got.tgz:16915.got - 2010.06.03 22:52:26.
