data_PCOD9320888
_publ_section_title
;
Structure prediction by ZEFSAII (Michael W. Deem and Ramdas Pophale) SiO2 
 PCOD9320888
Probable space group: C 2 2 21
;
_chemical_formula_sum "Si O2"
_cell_formula_units_Z 32
_cell_length_a 16.793593
_cell_length_b 10.754721
_cell_length_c 7.896887
_cell_angle_alpha 90.000000
_cell_angle_beta 90.000000
_cell_angle_gamma 90.000000
_cell_volume 1426.259977
_symmetry_space_group_name_H-M "C 2 2 21"
_symmetry_group_IT_number 20
_symmetry_cell_setting 'orthorhombic'
loop_
_space_group_symop_operation_xyz
x,y,z
-x,-y,1/2+z
x,-y,-z
-x,y,1/2-z
1/2+x,1/2+y,z
1/2-x,1/2-y,1/2+z
1/2+x,1/2-y,-z
1/2-x,1/2+y,1/2-z
loop_
_atom_site_type_symbol
_atom_site_label
_atom_site_fract_x
_atom_site_fract_y
_atom_site_fract_z
Si Si1 0.429214 0.000000 0.500000
Si Si2 0.330172 0.203967 0.326687
Si Si3 0.156022 0.838711 0.812310
Si Si4 0.088671 0.925568 0.322639
Si Si5 0.500000 0.809809 0.250000
O O1 0.373995 0.072981 0.364334
O O2 0.482824 0.102005 0.591384
O O3 0.238422 0.186422 0.281940
O O4 0.338034 0.279351 0.502288
O O5 0.372145 0.289571 0.184878
O O6 0.078230 0.773888 0.730489
O O7 0.138616 0.984363 0.800545
O O8 0.000000 0.914649 0.250000
O O9 0.088760 0.000000 0.500000
#
# Coordination Sequence:
#
# PCOD9320888 Si02
#       5
#     4   8   8   8   4
#     4  10  26  46  68 104 144 190 242 286 364 436
#     4  11  26  45  71 106 146 190 242 299 367 437
#     4  11  24  46  68 104 142 188 244 298 364 434
#     4  12  26  45  74 106 142 189 245 305 366 436
#     4  10  24  44  68  98 144 190 236 296 356 434
#
# _framework density 22.436299999999999
#
# number of rings (size 3 to 8) (size 9 to 14) (size 15 to 20)
#    0.000    1.000    1.250    3.750   14.000    2.000 
#    0.000    0.000    0.000    0.000    0.000    0.000 
#    0.000    0.000    0.000    0.000    0.000    0.000 
#
# Total GULP energy -89556.908149 kJ/mol
# GULP energy per Si atom -5597.306759 kJ/mol
# Density = 2.238523 g / cm^3
# Si number density = 22.436300 Si / 1000 Ang^3
#
#
#
# Elastic Constant Matrix: (Units=GPa)
#
#
# Indices 1 2 3 4 5 6 
#
# 1 176.7503 62.6696 46.3678 0.0000 0.0000 0.0000
# 2 62.6696 123.3755 20.6547 0.0000 0.0000 0.0000
# 3 46.3678 20.6547 64.3163 0.0000 0.0000 0.0000
# 4 0.0000 0.0000 0.0000 35.2579 0.0000 0.0000
# 5 0.0000 0.0000 0.0000 0.0000 16.3977 0.0000
# 6 0.0000 0.0000 0.0000 0.0000 0.0000 -129.3991
#
#
#
# Elastic Compliance Matrix: (Units=1/GPa)
#
#
# Indices 1 2 3 4 5 6 
#
# 1 0.008080 -0.003307 -0.004763 0.000000 0.000000 0.000000
# 2 -0.003307 0.009919 -0.000802 0.000000 0.000000 0.000000
# 3 -0.004763 -0.000802 0.019239 0.000000 0.000000 0.000000
# 4 0.000000 0.000000 0.000000 0.028362 0.000000 0.000000
# 5 0.000000 0.000000 0.000000 0.000000 0.060984 0.000000
# 6 0.000000 0.000000 0.000000 0.000000 0.000000 -0.007728
#
#
# Mechanical properties :
#
#
# Convention : Reuss Voigt Hill
#
# Bulk Modulus (GPa) = 51.29328 69.31404 60.30366
# Shear Modulus (GPa) = 34.94112 0.10128 17.52120
#
# Velocity S-wave (km/s) = 3.95061 0.21270 2.79755
# Velocity P-wave (km/s) = 6.61219 5.56966 6.11319
#
# Compressibility (1/GPa) = 0.01949573
#
# Stress axis : x y z
#
# Youngs Moduli (GPa) = 123.76777 100.81442 51.97682
#
# Poissons Ratio (x) = 0.33337 0.24756
# Poissons Ratio (y) = 0.40927 0.04166
# Poissons Ratio (z) = 0.58950 0.08081
#
# Static dielectric constant tensor:
#      x y z
#    x 1.772220 0.000000 0.000000 
#    y 0.000000 1.823520 0.000000 
#    z 0.000000 0.000000 1.921400 
# 
# From -- ./inp_files/7919.got.cif
#   From: 2010.05.17/outbox.cif.g08.bks.cpg/sg20_4_cif.got.tgz:7919.got - 2010.06.03 22:52:26.
