data_PCOD9320531
_publ_section_title
;
Structure prediction by ZEFSAII (Michael W. Deem and Ramdas Pophale) SiO2 
 PCOD9320531
Probable space group: C 2 2 21
;
_chemical_formula_sum "Si O2"
_cell_formula_units_Z 32
_cell_length_a 5.250628
_cell_length_b 28.888214
_cell_length_c 8.885131
_cell_angle_alpha 90.000000
_cell_angle_beta 90.000000
_cell_angle_gamma 90.000000
_cell_volume 1347.707912
_symmetry_space_group_name_H-M "C 2 2 21"
_symmetry_group_IT_number 20
_symmetry_cell_setting 'orthorhombic'
loop_
_space_group_symop_operation_xyz
x,y,z
-x,-y,1/2+z
x,-y,-z
-x,y,1/2-z
1/2+x,1/2+y,z
1/2-x,1/2-y,1/2+z
1/2+x,1/2-y,-z
1/2-x,1/2+y,1/2-z
loop_
_atom_site_type_symbol
_atom_site_label
_atom_site_fract_x
_atom_site_fract_y
_atom_site_fract_z
Si Si1 0.348791 0.048370 0.013698
Si Si2 0.500000 0.427471 0.750000
Si Si3 0.778760 0.630179 0.498471
Si Si4 0.000000 0.082523 0.750000
Si Si5 0.906664 0.768343 0.925578
O O1 0.469986 0.099492 0.021761
O O2 0.216366 0.043020 0.174237
O O3 0.150870 0.053153 0.875092
O O4 0.505585 0.000000 0.000000
O O5 0.403963 0.395122 0.881462
O O6 0.692564 0.616501 0.664579
O O7 0.741769 0.683447 0.459675
O O8 0.000000 0.763834 0.750000
O O9 0.672864 0.734081 0.977408
#
# Coordination Sequence:
#
# PCOD9320531 Si02
#       5
#     8   4   8   4   8
#     4  11  24  43  71 106 150 202 260 317 384 460
#     4  10  23  42  68 100 146 194 252 312 379 454
#     4  11  25  45  73 103 152 196 252 319 390 465
#     4  10  25  42  68 106 148 198 250 322 385 458
#     4  12  30  52  86 124 161 208 270 337 414 491
#
# _framework density 23.744015999999998
#
# number of rings (size 3 to 8) (size 9 to 14) (size 15 to 20)
#    0.000    1.000    1.250    3.000   10.500   10.000 
#    0.000    0.000    0.000    0.000    0.000    0.000 
#    0.000    0.000    0.000    0.000    0.000    0.000 
#
# Total GULP energy -89144.233855 kJ/mol
# GULP energy per Si atom -5571.514616 kJ/mol
# Density = 2.368997 g / cm^3
# Si number density = 23.744016 Si / 1000 Ang^3
#
#
#
# Elastic Constant Matrix: (Units=GPa)
#
#
# Indices 1 2 3 4 5 6 
#
# 1 118.7248 37.2062 31.5417 0.0000 0.0000 0.0000
# 2 37.2062 125.3047 31.5945 0.0000 0.0000 0.0000
# 3 31.5417 31.5945 79.9170 0.0000 0.0000 0.0000
# 4 0.0000 0.0000 0.0000 16.4234 0.0000 0.0000
# 5 0.0000 0.0000 0.0000 0.0000 23.7889 0.0000
# 6 0.0000 0.0000 0.0000 0.0000 0.0000 9.6643
#
#
#
# Elastic Compliance Matrix: (Units=1/GPa)
#
#
# Indices 1 2 3 4 5 6 
#
# 1 0.009916 -0.002174 -0.003054 0.000000 0.000000 0.000000
# 2 -0.002174 0.009341 -0.002835 0.000000 0.000000 0.000000
# 3 -0.003054 -0.002835 0.014839 0.000000 0.000000 0.000000
# 4 0.000000 0.000000 0.000000 0.060889 0.000000 0.000000
# 5 0.000000 0.000000 0.000000 0.000000 0.042036 0.000000
# 6 0.000000 0.000000 0.000000 0.000000 0.000000 0.103474
#
#
# Mechanical properties :
#
#
# Convention : Reuss Voigt Hill
#
# Bulk Modulus (GPa) = 55.64912 58.29239 56.97075
# Shear Modulus (GPa) = 19.03962 24.88224 21.96093
#
# Velocity S-wave (km/s) = 2.83480 3.24070 3.04452
# Velocity P-wave (km/s) = 5.84832 6.21341 6.03363
#
# Compressibility (1/GPa) = 0.01796974
#
# Stress axis : x y z
#
# Youngs Moduli (GPa) = 100.85198 107.05646 67.39003
#
# Poissons Ratio (x) = 0.23276 0.20580
# Poissons Ratio (y) = 0.21927 0.19103
# Poissons Ratio (z) = 0.30799 0.30348
#
# Static dielectric constant tensor:
#      x y z
#    x 2.072040 0.000000 0.000000 
#    y 0.000000 1.998010 0.000000 
#    z 0.000000 0.000000 1.937930 
# 
# From -- ./inp_files/5148.got.cif
#   From: 2010.05.17/outbox.cif.g08.bks.cpg/sg20_3_cif.got.tgz:5148.got - 2010.06.03 22:52:26.
