data_PCOD9320211
_publ_section_title
;
Structure prediction by ZEFSAII (Michael W. Deem and Ramdas Pophale) SiO2 
 PCOD9320211
Probable space group: C 2 2 21
;
_chemical_formula_sum "Si O2"
_cell_formula_units_Z 60
_cell_length_a 11.641441
_cell_length_b 29.293822
_cell_length_c 8.413192
_cell_angle_alpha 90.000000
_cell_angle_beta 90.000000
_cell_angle_gamma 90.000000
_cell_volume 2869.086090
_symmetry_space_group_name_H-M "C 2 2 21"
_symmetry_group_IT_number 20
_symmetry_cell_setting 'orthorhombic'
loop_
_space_group_symop_operation_xyz
x,y,z
-x,-y,1/2+z
x,-y,-z
-x,y,1/2-z
1/2+x,1/2+y,z
1/2-x,1/2-y,1/2+z
1/2+x,1/2-y,-z
1/2-x,1/2+y,1/2-z
loop_
_atom_site_type_symbol
_atom_site_label
_atom_site_fract_x
_atom_site_fract_y
_atom_site_fract_z
Si Si1 0.000000 0.252770 0.750000
Si Si2 0.700824 0.949296 0.551227
Si Si3 0.885165 0.898355 0.333433
Si Si4 0.442655 0.630351 0.081467
Si Si5 0.945749 0.699992 0.582808
Si Si6 0.972416 0.409143 0.430341
Si Si7 0.238558 0.049434 0.422057
Si Si8 0.811121 0.813605 0.131018
O O1 0.109241 0.220214 0.728122
O O2 0.989803 0.280195 0.584271
O O3 0.798339 0.930598 0.429233
O O4 0.584575 0.920411 0.534373
O O5 0.743122 0.951498 0.732292
O O6 0.669847 0.000000 0.500000
O O7 0.815336 0.862890 0.222536
O O8 0.000000 0.920506 0.250000
O O9 0.951924 0.867528 0.460092
O O10 0.500000 0.629741 0.250000
O O11 0.366286 0.584810 0.056246
O O12 0.364099 0.673318 0.039918
O O13 0.959195 0.645182 0.574172
O O14 0.811187 0.707669 0.603929
O O15 0.000000 0.716070 0.750000
O O16 0.856174 0.431883 0.497330
O O17 0.000000 0.425290 0.250000
O O18 0.214262 0.000000 0.500000
#
# Coordination Sequence:
#
# PCOD9320211 Si02
#       8
#     4   8   8   8   8   8   8   8
#     4  12  28  48  74 116 144 188 244 302 368 446
#     4  12  26  42  67 105 140 195 243 295 358 419
#     4  10  22  43  72  92 141 188 236 285 356 424
#     4  11  22  45  70 101 134 193 239 290 359 429
#     4  11  27  48  78 112 147 190 240 301 370 436
#     4  11  24  47  72  97 141 189 239 296 364 431
#     4  12  26  42  67 103 143 185 244 300 352 425
#     4  11  24  51  72 105 147 189 237 300 367 433
#
# _framework density 20.912583000000001
#
# number of rings (size 3 to 8) (size 9 to 14) (size 15 to 20)
#    0.000    0.800    4.667    3.200    9.333    1.067 
#    2.400    0.000    0.000    0.000    0.000    0.000 
#    0.000    0.000    0.000    0.000    0.000    0.000 
#
# Total GULP energy -167542.911690 kJ/mol
# GULP energy per Si atom -5584.763723 kJ/mol
# Density = 2.086499 g / cm^3
# Si number density = 20.912583 Si / 1000 Ang^3
#
#
#
# Elastic Constant Matrix: (Units=GPa)
#
#
# Indices 1 2 3 4 5 6 
#
# 1 89.8988 11.8311 40.0637 0.0000 0.0000 0.0000
# 2 11.8311 46.2142 34.5045 0.0000 0.0000 0.0000
# 3 40.0637 34.5045 143.5055 0.0000 0.0000 0.0000
# 4 0.0000 0.0000 0.0000 19.3584 0.0000 0.0000
# 5 0.0000 0.0000 0.0000 0.0000 34.1212 0.0000
# 6 0.0000 0.0000 0.0000 0.0000 0.0000 17.4630
#
#
#
# Elastic Compliance Matrix: (Units=1/GPa)
#
#
# Indices 1 2 3 4 5 6 
#
# 1 0.012725 -0.000738 -0.003375 0.000000 0.000000 0.000000
# 2 -0.000738 0.026415 -0.006145 0.000000 0.000000 0.000000
# 3 -0.003375 -0.006145 0.009388 0.000000 0.000000 0.000000
# 4 0.000000 0.000000 0.000000 0.051657 0.000000 0.000000
# 5 0.000000 0.000000 0.000000 0.000000 0.029307 0.000000
# 6 0.000000 0.000000 0.000000 0.000000 0.000000 0.057264
#
#
# Mechanical properties :
#
#
# Convention : Reuss Voigt Hill
#
# Bulk Modulus (GPa) = 35.69883 50.26856 42.98370
# Shear Modulus (GPa) = 23.08287 27.06980 25.07634
#
# Velocity S-wave (km/s) = 3.32592 3.60172 3.46656
# Velocity P-wave (km/s) = 5.64416 6.43321 6.05156
#
# Compressibility (1/GPa) = 0.02801212
#
# Stress axis : x y z
#
# Youngs Moduli (GPa) = 78.58641 37.85659 106.51624
#
# Poissons Ratio (x) = 0.02793 0.35951
# Poissons Ratio (y) = 0.05797 0.65458
# Poissons Ratio (z) = 0.26524 0.23264
#
# Static dielectric constant tensor:
#      x y z
#    x 1.786630 0.000000 0.000000 
#    y 0.000000 1.720830 0.000000 
#    z 0.000000 0.000000 1.758410 
# 
# From -- ./inp_files/7631.got.cif
#   From: 2010.05.17/outbox.cif.g08.bks.cpg/sg20_4_cif.got.tgz:7631.got - 2010.06.03 22:52:26.
