data_PCOD9320089
_publ_section_title
;
Structure prediction by ZEFSAII (Michael W. Deem and Ramdas Pophale) SiO2 
 PCOD9320089
Probable space group: C 2 2 21
;
_chemical_formula_sum "Si O2"
_cell_formula_units_Z 44
_cell_length_a 10.516582
_cell_length_b 19.241233
_cell_length_c 10.913900
_cell_angle_alpha 90.000000
_cell_angle_beta 90.000000
_cell_angle_gamma 90.000000
_cell_volume 2208.449543
_symmetry_space_group_name_H-M "C 2 2 21"
_symmetry_group_IT_number 20
_symmetry_cell_setting 'orthorhombic'
loop_
_space_group_symop_operation_xyz
x,y,z
-x,-y,1/2+z
x,-y,-z
-x,y,1/2-z
1/2+x,1/2+y,z
1/2-x,1/2-y,1/2+z
1/2+x,1/2-y,-z
1/2-x,1/2+y,1/2-z
loop_
_atom_site_type_symbol
_atom_site_label
_atom_site_fract_x
_atom_site_fract_y
_atom_site_fract_z
Si Si1 0.096064 0.000000 0.000000
Si Si2 0.283913 0.200049 0.367944
Si Si3 0.500000 0.875070 0.250000
Si Si4 0.000000 0.378749 0.750000
Si Si5 0.464301 0.380747 0.882090
Si Si6 0.654361 0.002056 0.636279
Si Si7 0.145368 0.746688 0.875093
O O1 0.195359 0.003300 0.887172
O O2 0.011061 0.932429 0.985845
O O3 0.424332 0.170124 0.343808
O O4 0.182756 0.138284 0.387231
O O5 0.234388 0.238466 0.243979
O O6 0.283590 0.242476 0.494818
O O7 0.394690 0.928174 0.198855
O O8 0.433062 0.823562 0.346796
O O9 0.106247 0.431520 0.698184
O O10 0.500000 0.412165 0.750000
O O11 0.545106 0.309541 0.885460
O O12 0.595494 0.000000 0.500000
#
# Coordination Sequence:
#
# PCOD9320089 Si02
#       7
#     4   8   4   4   8   8   8
#     4  10  22  42  68  84 130 174 224 266 338 402
#     4  11  25  41  70  96 139 177 223 281 341 407
#     4  11  20  40  64  96 133 176 226 282 329 400
#     4  11  22  42  66  98 131 176 228 278 333 402
#     4  10  22  45  63  92 130 178 215 279 344 392
#     4   9  21  37  66  96 125 176 224 274 333 397
#     4  11  24  42  67  97 137 176 226 279 339 403
#
# _framework density 19.923480000000001
#
# number of rings (size 3 to 8) (size 9 to 14) (size 15 to 20)
#    0.545    1.091    2.727    3.273    5.091    0.000 
#   11.455    0.000    0.000    0.000    0.000    0.000 
#    0.000    0.000    0.000    0.000    0.000    0.000 
#
# Total GULP energy -122659.003391 kJ/mol
# GULP energy per Si atom -5575.409245 kJ/mol
# Density = 1.987813 g / cm^3
# Si number density = 19.923480 Si / 1000 Ang^3
#
#
#
# Elastic Constant Matrix: (Units=GPa)
#
#
# Indices 1 2 3 4 5 6 
#
# 1 93.6912 33.0996 35.6019 0.0000 0.0000 0.0000
# 2 33.0996 74.7100 30.5599 0.0000 0.0000 0.0000
# 3 35.6019 30.5599 93.4992 0.0000 0.0000 0.0000
# 4 0.0000 0.0000 0.0000 14.9891 0.0000 0.0000
# 5 0.0000 0.0000 0.0000 0.0000 22.8577 0.0000
# 6 0.0000 0.0000 0.0000 0.0000 0.0000 -52.2416
#
#
#
# Elastic Compliance Matrix: (Units=1/GPa)
#
#
# Indices 1 2 3 4 5 6 
#
# 1 0.013695 -0.004542 -0.003730 0.000000 0.000000 0.000000
# 2 -0.004542 0.016957 -0.003813 0.000000 0.000000 0.000000
# 3 -0.003730 -0.003813 0.013362 0.000000 0.000000 0.000000
# 4 0.000000 0.000000 0.000000 0.066715 0.000000 0.000000
# 5 0.000000 0.000000 0.000000 0.000000 0.043749 0.000000
# 6 0.000000 0.000000 0.000000 0.000000 0.000000 -0.019142
#
#
# Mechanical properties :
#
#
# Convention : Reuss Voigt Hill
#
# Bulk Modulus (GPa) = 50.39261 51.15811 50.77536
# Shear Modulus (GPa) = 30.09848 7.96364 19.03106
#
# Velocity S-wave (km/s) = 3.89099 2.00145 3.09400
# Velocity P-wave (km/s) = 6.74792 5.57441 6.18904
#
# Compressibility (1/GPa) = 0.01984418
#
# Stress axis : x y z
#
# Youngs Moduli (GPa) = 73.01730 58.97289 74.83932
#
# Poissons Ratio (x) = 0.26784 0.27918
# Poissons Ratio (y) = 0.33162 0.28536
# Poissons Ratio (z) = 0.27238 0.22486
#
# Static dielectric constant tensor:
#      x y z
#    x 1.699970 0.000000 0.000000 
#    y 0.000000 1.692680 0.000000 
#    z 0.000000 0.000000 1.765660 
# 
# From -- ./inp_files/14089.got.cif
#   From: 2010.05.17/outbox.cif.g08.bks.cpg/sg20_8_cif.got.tgz:14089.got - 2010.06.03 22:52:26.
