data_PCOD9320293
_publ_section_title
;
Structure prediction by ZEFSAII (Michael W. Deem and Ramdas Pophale) SiO2 
 PCOD9320293
Probable space group: C 2 2 21
;
_chemical_formula_sum "Si O2"
_cell_formula_units_Z 56
_cell_length_a 6.069046
_cell_length_b 29.619609
_cell_length_c 14.034568
_cell_angle_alpha 90.000000
_cell_angle_beta 90.000000
_cell_angle_gamma 90.000000
_cell_volume 2522.892813
_symmetry_space_group_name_H-M "C 2 2 21"
_symmetry_group_IT_number 20
_symmetry_cell_setting 'orthorhombic'
loop_
_space_group_symop_operation_xyz
x,y,z
-x,-y,1/2+z
x,-y,-z
-x,y,1/2-z
1/2+x,1/2+y,z
1/2-x,1/2-y,1/2+z
1/2+x,1/2-y,-z
1/2-x,1/2+y,1/2-z
loop_
_atom_site_type_symbol
_atom_site_label
_atom_site_fract_x
_atom_site_fract_y
_atom_site_fract_z
Si Si1 0.492270 0.056848 0.363296
Si Si2 0.395223 0.651976 0.984827
Si Si3 0.445376 0.162700 0.361348
Si Si4 0.374479 0.489499 0.154539
Si Si5 0.907728 0.751150 0.040781
Si Si6 0.688523 0.565455 0.982054
Si Si7 0.080821 0.595734 0.846623
O O1 0.500000 0.050132 0.250000
O O2 0.484776 0.110064 0.384060
O O3 0.703625 0.042829 0.424513
O O4 0.274135 0.029237 0.390263
O O5 0.462325 0.697234 0.928092
O O6 0.574586 0.613559 0.004681
O O7 0.218861 0.627664 0.916244
O O8 0.293964 0.667906 0.087049
O O9 0.500000 0.165414 0.250000
O O10 0.585484 0.203925 0.403040
O O11 0.500000 0.505374 0.250000
O O12 0.520529 0.465013 0.075912
O O13 0.218723 0.447913 0.186996
O O14 0.642117 0.755505 0.018441
O O15 0.884576 0.576463 0.909694
O O16 0.000000 0.619370 0.750000
#
# Coordination Sequence:
#
# PCOD9320293 Si02
#       7
#     8   8   8   8   8   8   8
#     4  11  25  47  70 101 143 193 249 298 361 449
#     4  10  23  43  76 108 141 192 242 304 389 448
#     4  10  22  47  71 103 149 191 244 303 368 453
#     4  11  25  47  69 102 140 194 247 306 374 443
#     4  10  22  44  75 103 144 193 249 309 380 453
#     4  11  24  48  75  99 150 188 244 312 380 441
#     4  11  22  45  71 106 144 182 244 313 372 446
#
# _framework density 22.196740999999999
#
# number of rings (size 3 to 8) (size 9 to 14) (size 15 to 20)
#    0.000    1.429    2.857    1.286    2.000    1.714 
#    7.714   12.143    0.000    0.000    0.000    0.000 
#    0.000    0.000    0.000    0.000    0.000    0.000 
#
# Total GULP energy -155988.725451 kJ/mol
# GULP energy per Si atom -5571.025909 kJ/mol
# Density = 2.214622 g / cm^3
# Si number density = 22.196741 Si / 1000 Ang^3
#
#
#
# Elastic Constant Matrix: (Units=GPa)
#
#
# Indices 1 2 3 4 5 6 
#
# 1 84.1611 35.1148 42.3520 0.0000 0.0000 0.0000
# 2 35.1148 141.2186 29.4226 0.0000 0.0000 0.0000
# 3 42.3520 29.4226 109.9692 0.0000 0.0000 0.0000
# 4 0.0000 0.0000 0.0000 20.6055 0.0000 0.0000
# 5 0.0000 0.0000 0.0000 0.0000 34.0639 0.0000
# 6 0.0000 0.0000 0.0000 0.0000 0.0000 39.3969
#
#
#
# Elastic Compliance Matrix: (Units=1/GPa)
#
#
# Indices 1 2 3 4 5 6 
#
# 1 0.015721 -0.002804 -0.005304 0.000000 0.000000 0.000000
# 2 -0.002804 0.007999 -0.001060 0.000000 0.000000 0.000000
# 3 -0.005304 -0.001060 0.011420 0.000000 0.000000 0.000000
# 4 0.000000 0.000000 0.000000 0.048531 0.000000 0.000000
# 5 0.000000 0.000000 0.000000 0.000000 0.029357 0.000000
# 6 0.000000 0.000000 0.000000 0.000000 0.000000 0.025383
#
#
# Mechanical properties :
#
#
# Convention : Reuss Voigt Hill
#
# Bulk Modulus (GPa) = 59.51305 61.01419 60.26362
# Shear Modulus (GPa) = 30.79780 34.04389 32.42085
#
# Velocity S-wave (km/s) = 3.72895 3.92054 3.82594
# Velocity P-wave (km/s) = 6.73869 6.93122 6.83563
#
# Compressibility (1/GPa) = 0.01680304
#
# Stress axis : x y z
#
# Youngs Moduli (GPa) = 63.60835 125.00979 87.56543
#
# Poissons Ratio (x) = 0.35053 0.46448
# Poissons Ratio (y) = 0.17836 0.09285
# Poissons Ratio (z) = 0.33741 0.13256
#
# Static dielectric constant tensor:
#      x y z
#    x 1.905210 0.000000 0.000000 
#    y 0.000000 1.847390 0.000000 
#    z 0.000000 0.000000 1.844600 
# 
# From -- ./inp_files/17982.got.cif
#   From: 2010.05.17/outbox.cif.g08.bks.cpg/sg20_9_cif.got.tgz:17982.got - 2010.06.03 22:52:26.
