data_PCOD9320791
_publ_section_title
;
Structure prediction by ZEFSAII (Michael W. Deem and Ramdas Pophale) SiO2 
 PCOD9320791
Probable space group: C 2 2 21
;
_chemical_formula_sum "Si O2"
_cell_formula_units_Z 48
_cell_length_a 12.610277
_cell_length_b 12.438733
_cell_length_c 15.595500
_cell_angle_alpha 90.000000
_cell_angle_beta 90.000000
_cell_angle_gamma 90.000000
_cell_volume 2446.245700
_symmetry_space_group_name_H-M "C 2 2 21"
_symmetry_group_IT_number 20
_symmetry_cell_setting 'orthorhombic'
loop_
_space_group_symop_operation_xyz
x,y,z
-x,-y,1/2+z
x,-y,-z
-x,y,1/2-z
1/2+x,1/2+y,z
1/2-x,1/2-y,1/2+z
1/2+x,1/2-y,-z
1/2-x,1/2+y,1/2-z
loop_
_atom_site_type_symbol
_atom_site_label
_atom_site_fract_x
_atom_site_fract_y
_atom_site_fract_z
Si Si1 0.500000 0.039000 0.250000
Si Si2 0.804502 0.576262 0.832113
Si Si3 0.117628 0.995053 0.285113
Si Si4 0.443337 0.166597 0.422763
Si Si5 0.959501 0.109216 0.956617
Si Si6 0.903931 0.500000 0.000000
Si Si7 0.201221 0.180223 0.396108
O O1 0.600942 0.962787 0.269149
O O2 0.477089 0.115507 0.331334
O O3 0.693126 0.555630 0.786217
O O4 0.829402 0.508206 0.917506
O O5 0.692302 0.198849 0.637331
O O6 0.896759 0.923611 0.129364
O O7 0.000000 0.014080 0.250000
O O8 0.171977 0.103856 0.316959
O O9 0.463821 0.293502 0.431831
O O10 0.516450 0.101405 0.490127
O O11 0.317983 0.151268 0.430066
O O12 0.880161 0.155333 0.027942
O O13 0.006133 0.000000 0.000000
#
# Coordination Sequence:
#
# PCOD9320791 Si02
#       7
#     4   8   8   8   8   4   8
#     4  10  24  40  72  98 132 178 234 278 336 400
#     4  11  23  45  66 104 137 178 229 285 337 407
#     4  11  25  45  68  98 138 178 229 280 342 408
#     4  11  22  44  68  96 135 180 226 282 335 407
#     4  10  24  44  65  99 135 180 228 275 345 405
#     4  10  24  42  70 100 138 178 230 282 342 404
#     4  11  24  44  69 100 133 182 224 279 349 395
#
# _framework density 19.621904000000001
#
# number of rings (size 3 to 8) (size 9 to 14) (size 15 to 20)
#    0.000    1.333    3.333    1.000    8.167    0.000 
#   12.000    0.000    0.000    0.000    0.000    0.000 
#    0.000    0.000    0.000    0.000    0.000    0.000 
#
# Total GULP energy -134028.517767 kJ/mol
# GULP energy per Si atom -5584.521574 kJ/mol
# Density = 1.957724 g / cm^3
# Si number density = 19.621904 Si / 1000 Ang^3
#
#
#
# Elastic Constant Matrix: (Units=GPa)
#
#
# Indices 1 2 3 4 5 6 
#
# 1 57.1378 19.7933 15.7491 0.0000 0.0000 0.0000
# 2 19.7933 84.2133 13.3613 0.0000 0.0000 0.0000
# 3 15.7491 13.3613 67.7349 0.0000 0.0000 0.0000
# 4 0.0000 0.0000 0.0000 30.6373 0.0000 0.0000
# 5 0.0000 0.0000 0.0000 0.0000 22.2880 0.0000
# 6 0.0000 0.0000 0.0000 0.0000 0.0000 25.5587
#
#
#
# Elastic Compliance Matrix: (Units=1/GPa)
#
#
# Indices 1 2 3 4 5 6 
#
# 1 0.019975 -0.004086 -0.003838 0.000000 0.000000 0.000000
# 2 -0.004086 0.013094 -0.001633 0.000000 0.000000 0.000000
# 3 -0.003838 -0.001633 0.015978 0.000000 0.000000 0.000000
# 4 0.000000 0.000000 0.000000 0.032640 0.000000 0.000000
# 5 0.000000 0.000000 0.000000 0.000000 0.044867 0.000000
# 6 0.000000 0.000000 0.000000 0.000000 0.000000 0.039126
#
#
# Mechanical properties :
#
#
# Convention : Reuss Voigt Hill
#
# Bulk Modulus (GPa) = 33.40835 34.09925 33.75380
# Shear Modulus (GPa) = 25.67110 26.37563 26.02337
#
# Velocity S-wave (km/s) = 3.62095 3.67030 3.64571
# Velocity P-wave (km/s) = 5.87748 5.94789 5.91279
#
# Compressibility (1/GPa) = 0.02993263
#
# Stress axis : x y z
#
# Youngs Moduli (GPa) = 50.06270 76.37074 62.58599
#
# Poissons Ratio (x) = 0.31204 0.24023
# Poissons Ratio (y) = 0.20455 0.10220
# Poissons Ratio (z) = 0.19216 0.12471
#
# Static dielectric constant tensor:
#      x y z
#    x 1.672460 0.000000 0.000000 
#    y 0.000000 1.693050 0.000000 
#    z 0.000000 0.000000 1.695610 
# 
# From -- ./inp_files/19974.got.cif
#   From: 2010.05.17/outbox.cif.g08.bks.cpg/sg20_10_cif.got.tgz:19974.got - 2010.06.03 22:52:26.
