data_PCOD9320125
_publ_section_title
;
Structure prediction by ZEFSAII (Michael W. Deem and Ramdas Pophale) SiO2 
 PCOD9320125
Probable space group: C 2 2 21
;
_chemical_formula_sum "Si O2"
_cell_formula_units_Z 40
_cell_length_a 24.358932
_cell_length_b 7.637294
_cell_length_c 8.496250
_cell_angle_alpha 90.000000
_cell_angle_beta 90.000000
_cell_angle_gamma 90.000000
_cell_volume 1580.611128
_symmetry_space_group_name_H-M "C 2 2 21"
_symmetry_group_IT_number 20
_symmetry_cell_setting 'orthorhombic'
loop_
_space_group_symop_operation_xyz
x,y,z
-x,-y,1/2+z
x,-y,-z
-x,y,1/2-z
1/2+x,1/2+y,z
1/2-x,1/2-y,1/2+z
1/2+x,1/2-y,-z
1/2-x,1/2+y,1/2-z
loop_
_atom_site_type_symbol
_atom_site_label
_atom_site_fract_x
_atom_site_fract_y
_atom_site_fract_z
Si Si1 0.003595 0.500000 0.500000
Si Si2 0.000000 0.237005 0.750000
Si Si3 0.908447 0.024067 0.277449
Si Si4 0.267884 0.834302 0.114427
Si Si5 0.000000 0.742398 0.750000
Si Si6 0.165970 0.000000 0.500000
Si Si7 0.830870 0.309036 0.442671
O O1 0.029935 0.636929 0.377388
O O2 0.972502 0.375829 0.381458
O O3 0.046854 0.119536 0.834786
O O4 0.950919 0.147350 0.180191
O O5 0.873116 0.157291 0.384919
O O6 0.869356 0.941813 0.149258
O O7 0.289878 0.852305 0.293465
O O8 0.299817 0.664912 0.054606
O O9 0.204685 0.781652 0.081800
O O10 0.278963 0.000000 0.000000
O O11 0.851694 0.500000 0.500000
#
# Coordination Sequence:
#
# PCOD9320125 Si02
#       7
#     4   4   8   8   4   4   8
#     4  10  22  42  71  98 146 196 237 306 374 448
#     4  10  22  48  74 110 154 198 250 316 390 456
#     4  10  23  43  74 107 149 197 253 313 386 464
#     4  11  24  45  73 105 147 201 255 330 392 464
#     4  10  22  44  66 102 146 186 238 310 374 450
#     4  10  22  46  71 104 144 204 257 304 400 478
#     4  11  24  48  74 107 149 201 264 320 395 470
#
# _framework density 25.306671000000001
#
# number of rings (size 3 to 8) (size 9 to 14) (size 15 to 20)
#    0.000    1.600    1.000    2.400    4.200    2.400 
#   27.000    0.000    0.000    0.000    0.000    0.000 
#    0.000    0.000    0.000    0.000    0.000    0.000 
#
# Total GULP energy -111521.254207 kJ/mol
# GULP energy per Si atom -5576.062710 kJ/mol
# Density = 2.524907 g / cm^3
# Si number density = 25.306671 Si / 1000 Ang^3
#
#
#
# Elastic Constant Matrix: (Units=GPa)
#
#
# Indices 1 2 3 4 5 6 
#
# 1 104.1845 42.6152 44.1852 0.0000 0.0000 0.0000
# 2 42.6152 138.7245 59.1370 0.0000 0.0000 0.0000
# 3 44.1852 59.1370 113.3094 0.0000 0.0000 0.0000
# 4 0.0000 0.0000 0.0000 57.7022 0.0000 0.0000
# 5 0.0000 0.0000 0.0000 0.0000 29.6657 0.0000
# 6 0.0000 0.0000 0.0000 0.0000 0.0000 -12.8306
#
#
#
# Elastic Compliance Matrix: (Units=1/GPa)
#
#
# Indices 1 2 3 4 5 6 
#
# 1 0.011989 -0.002174 -0.003541 0.000000 0.000000 0.000000
# 2 -0.002174 0.009665 -0.004197 0.000000 0.000000 0.000000
# 3 -0.003541 -0.004197 0.012396 0.000000 0.000000 0.000000
# 4 0.000000 0.000000 0.000000 0.017330 0.000000 0.000000
# 5 0.000000 0.000000 0.000000 0.000000 0.033709 0.000000
# 6 0.000000 0.000000 0.000000 0.000000 0.000000 -0.077939
#
#
# Mechanical properties :
#
#
# Convention : Reuss Voigt Hill
#
# Bulk Modulus (GPa) = 70.28112 72.01038 71.14575
# Shear Modulus (GPa) = 157.64767 28.92620 93.28693
#
# Velocity S-wave (km/s) = 7.90127 3.38454 6.07804
# Velocity P-wave (km/s) = 10.53908 6.61742 8.79950
#
# Compressibility (1/GPa) = 0.01422857
#
# Stress axis : x y z
#
# Youngs Moduli (GPa) = 83.40923 103.46294 80.66822
#
# Poissons Ratio (x) = 0.22488 0.28563
# Poissons Ratio (y) = 0.18130 0.33855
# Poissons Ratio (z) = 0.29533 0.43421
#
# Static dielectric constant tensor:
#      x y z
#    x 1.953640 0.000000 0.000000 
#    y 0.000000 2.019520 0.000000 
#    z 0.000000 0.000000 2.050610 
# 
# From -- ./inp_files/10545.got.cif
#   From: 2010.05.17/outbox.cif.g08.bks.cpg/sg20_6_cif.got.tgz:10545.got - 2010.06.03 22:52:26.
