data_PCOD9320005
_publ_section_title
;
Structure prediction by ZEFSAII (Michael W. Deem and Ramdas Pophale) SiO2 
 PCOD9320005
Probable space group: C 2 2 21
;
_chemical_formula_sum "Si O2"
_cell_formula_units_Z 40
_cell_length_a 5.372655
_cell_length_b 13.243164
_cell_length_c 21.388732
_cell_angle_alpha 90.000000
_cell_angle_beta 90.000000
_cell_angle_gamma 90.000000
_cell_volume 1521.828628
_symmetry_space_group_name_H-M "C 2 2 21"
_symmetry_group_IT_number 20
_symmetry_cell_setting 'orthorhombic'
loop_
_space_group_symop_operation_xyz
x,y,z
-x,-y,1/2+z
x,-y,-z
-x,y,1/2-z
1/2+x,1/2+y,z
1/2-x,1/2-y,1/2+z
1/2+x,1/2-y,-z
1/2-x,1/2+y,1/2-z
loop_
_atom_site_type_symbol
_atom_site_label
_atom_site_fract_x
_atom_site_fract_y
_atom_site_fract_z
Si Si1 0.129288 0.581472 0.920967
Si Si2 0.296742 0.500000 0.500000
Si Si3 0.248628 0.150098 0.717011
Si Si4 0.803910 0.625979 0.382653
Si Si5 0.500000 0.850362 0.750000
Si Si6 0.174642 0.204483 0.064285
O O1 0.215334 0.623515 0.854565
O O2 0.271666 0.475072 0.921802
O O3 0.159403 0.681776 0.962162
O O4 0.863550 0.532487 0.937551
O O5 0.374527 0.385337 0.515676
O O6 0.500000 0.117760 0.750000
O O7 0.206918 0.270146 0.726161
O O8 0.000000 0.105701 0.750000
O O9 0.881552 0.597169 0.311099
O O10 0.561159 0.695540 0.388133
O O11 0.051480 0.681958 0.407734
#
# Coordination Sequence:
#
# PCOD9320005 Si02
#       6
#     8   4   8   8   4   8
#     4  11  25  49  75 107 150 195 248 307 377 439
#     4  10  28  46  78 110 142 200 262 304 370 436
#     4  10  22  41  73 104 144 193 236 298 380 442
#     4  11  26  43  74 107 147 186 244 294 371 445
#     4  10  22  44  70 112 146 188 242 298 368 460
#     4  11  25  50  71 105 146 191 244 311 360 433
#
# _framework density 26.284168999999999
#
# number of rings (size 3 to 8) (size 9 to 14) (size 15 to 20)
#    0.600    0.800    2.000    1.200    1.400   14.400 
#    0.000    0.000    0.000    0.000    0.000    0.000 
#    0.000    0.000    0.000    0.000    0.000    0.000 
#
# Total GULP energy -111399.590435 kJ/mol
# GULP energy per Si atom -5569.979522 kJ/mol
# Density = 2.622435 g / cm^3
# Si number density = 26.284169 Si / 1000 Ang^3
#
#
#
# Elastic Constant Matrix: (Units=GPa)
#
#
# Indices 1 2 3 4 5 6 
#
# 1 151.4451 47.8845 34.0389 0.0000 0.0000 0.0000
# 2 47.8845 180.3218 11.8373 0.0000 0.0000 0.0000
# 3 34.0389 11.8373 78.6480 0.0000 0.0000 0.0000
# 4 0.0000 0.0000 0.0000 39.1698 0.0000 0.0000
# 5 0.0000 0.0000 0.0000 0.0000 43.3291 0.0000
# 6 0.0000 0.0000 0.0000 0.0000 0.0000 -23.1821
#
#
#
# Elastic Compliance Matrix: (Units=1/GPa)
#
#
# Indices 1 2 3 4 5 6 
#
# 1 0.007907 -0.001894 -0.003137 0.000000 0.000000 0.000000
# 2 -0.001894 0.006055 -0.000092 0.000000 0.000000 0.000000
# 3 -0.003137 -0.000092 0.014086 0.000000 0.000000 0.000000
# 4 0.000000 0.000000 0.000000 0.025530 0.000000 0.000000
# 5 0.000000 0.000000 0.000000 0.000000 0.023079 0.000000
# 6 0.000000 0.000000 0.000000 0.000000 0.000000 -0.043137
#
#
# Mechanical properties :
#
#
# Convention : Reuss Voigt Hill
#
# Bulk Modulus (GPa) = 56.17067 66.43736 61.30402
# Shear Modulus (GPa) = 100.60466 32.97364 66.78915
#
# Velocity S-wave (km/s) = 6.19345 3.54574 5.04634
# Velocity P-wave (km/s) = 8.51834 6.48803 7.57154
#
# Compressibility (1/GPa) = 0.01780289
#
# Stress axis : x y z
#
# Youngs Moduli (GPa) = 126.47150 165.16527 70.99041
#
# Poissons Ratio (x) = 0.31278 0.22270
# Poissons Ratio (y) = 0.23951 0.00651
# Poissons Ratio (z) = 0.39675 0.01514
#
# Static dielectric constant tensor:
#      x y z
#    x 2.175150 0.000000 0.000000 
#    y 0.000000 2.039360 0.000000 
#    z 0.000000 0.000000 2.293950 
# 
# From -- ./inp_files/28307.got.cif
#   From: 2010.05.17/outbox.cif.g08.bks.cpg/sg20_15_cif.got.tgz:28307.got - 2010.06.03 22:52:26.
