data_PCOD9320369
_publ_section_title
;
Structure prediction by ZEFSAII (Michael W. Deem and Ramdas Pophale) SiO2 
 PCOD9320369
Probable space group: C 2 2 21
;
_chemical_formula_sum "Si O2"
_cell_formula_units_Z 40
_cell_length_a 17.321600
_cell_length_b 6.192242
_cell_length_c 16.299799
_cell_angle_alpha 90.000000
_cell_angle_beta 90.000000
_cell_angle_gamma 90.000000
_cell_volume 1748.308927
_symmetry_space_group_name_H-M "C 2 2 21"
_symmetry_group_IT_number 20
_symmetry_cell_setting 'orthorhombic'
loop_
_space_group_symop_operation_xyz
x,y,z
-x,-y,1/2+z
x,-y,-z
-x,y,1/2-z
1/2+x,1/2+y,z
1/2-x,1/2-y,1/2+z
1/2+x,1/2-y,-z
1/2-x,1/2+y,1/2-z
loop_
_atom_site_type_symbol
_atom_site_label
_atom_site_fract_x
_atom_site_fract_y
_atom_site_fract_z
Si Si1 0.062105 0.609003 0.580665
Si Si2 0.500000 0.187390 0.750000
Si Si3 0.135231 0.676144 0.071441
Si Si4 0.490195 0.500000 0.500000
Si Si5 0.267349 0.034592 0.872456
Si Si6 0.163132 0.320051 0.201301
O O1 0.028179 0.500000 0.500000
O O2 0.148618 0.523715 0.588380
O O3 0.023736 0.560569 0.667833
O O4 0.044324 0.859790 0.560786
O O5 0.417783 0.298028 0.726316
O O6 0.136960 0.539046 0.155900
O O7 0.067050 0.847149 0.053132
O O8 0.214582 0.807905 0.074829
O O9 0.136440 0.500000 0.000000
O O10 0.216982 0.821056 0.857572
O O11 0.287290 0.130088 0.782172
#
# Coordination Sequence:
#
# PCOD9320369 Si02
#       6
#     8   4   8   4   8   8
#     4  11  26  46  74 112 154 199 261 330 385 478
#     4  10  22  46  72 104 154 194 252 314 382 458
#     4  12  25  43  75 102 148 202 249 318 383 466
#     4  12  26  48  72 106 148 202 264 314 394 458
#     4  11  25  44  73 111 151 191 258 315 397 455
#     4  11  23  46  71 107 148 198 247 321 380 466
#
# _framework density 22.879252000000001
#
# number of rings (size 3 to 8) (size 9 to 14) (size 15 to 20)
#    0.000    0.800    2.000    5.400    5.600    0.000 
#    0.000    9.000    0.000    0.000    0.000    0.000 
#    0.000    0.000    0.000    0.000    0.000    0.000 
#
# Total GULP energy -111648.243814 kJ/mol
# GULP energy per Si atom -5582.412191 kJ/mol
# Density = 2.282718 g / cm^3
# Si number density = 22.879252 Si / 1000 Ang^3
#
#
#
# Elastic Constant Matrix: (Units=GPa)
#
#
# Indices 1 2 3 4 5 6 
#
# 1 168.8015 43.6771 31.0624 0.0000 0.0000 0.0000
# 2 43.6771 74.3325 34.9797 0.0000 0.0000 0.0000
# 3 31.0624 34.9797 139.4090 0.0000 0.0000 0.0000
# 4 0.0000 0.0000 0.0000 35.7201 0.0000 0.0000
# 5 0.0000 0.0000 0.0000 0.0000 10.2500 0.0000
# 6 0.0000 0.0000 0.0000 0.0000 0.0000 -176.6246
#
#
#
# Elastic Compliance Matrix: (Units=1/GPa)
#
#
# Indices 1 2 3 4 5 6 
#
# 1 0.007030 -0.003848 -0.000601 0.000000 0.000000 0.000000
# 2 -0.003848 0.017361 -0.003499 0.000000 0.000000 0.000000
# 3 -0.000601 -0.003499 0.008185 0.000000 0.000000 0.000000
# 4 0.000000 0.000000 0.000000 0.027995 0.000000 0.000000
# 5 0.000000 0.000000 0.000000 0.000000 0.097561 0.000000
# 6 0.000000 0.000000 0.000000 0.000000 0.000000 -0.005662
#
#
# Mechanical properties :
#
#
# Convention : Reuss Voigt Hill
#
# Bulk Modulus (GPa) = 59.95034 66.88683 63.41858
# Shear Modulus (GPa) = 28.74785 -7.94265 10.40260
#
# Velocity S-wave (km/s) = 3.54856 -1.86523 2.13462
# Velocity P-wave (km/s) = 6.56122 4.96582 5.81846
#
# Compressibility (1/GPa) = 0.01668047
#
# Stress axis : x y z
#
# Youngs Moduli (GPa) = 142.23901 57.60155 122.17654
#
# Poissons Ratio (x) = 0.22166 0.07342
# Poissons Ratio (y) = 0.54737 0.42745
# Poissons Ratio (z) = 0.08547 0.20152
#
# Static dielectric constant tensor:
#      x y z
#    x 1.865000 0.000000 0.000000 
#    y 0.000000 1.903490 0.000000 
#    z 0.000000 0.000000 2.046790 
# 
# From -- ./inp_files/25101.got.cif
#   From: 2010.05.17/outbox.cif.g08.bks.cpg/sg20_13_cif.got.tgz:25101.got - 2010.06.03 22:52:26.
