data_PCOD9320559
_publ_section_title
;
Structure prediction by ZEFSAII (Michael W. Deem and Ramdas Pophale) SiO2 
 PCOD9320559
Probable space group: C 2 2 21
;
_chemical_formula_sum "Si O2"
_cell_formula_units_Z 60
_cell_length_a 5.205966
_cell_length_b 28.232427
_cell_length_c 17.805411
_cell_angle_alpha 90.000000
_cell_angle_beta 90.000000
_cell_angle_gamma 90.000000
_cell_volume 2616.986873
_symmetry_space_group_name_H-M "C 2 2 21"
_symmetry_group_IT_number 20
_symmetry_cell_setting 'orthorhombic'
loop_
_space_group_symop_operation_xyz
x,y,z
-x,-y,1/2+z
x,-y,-z
-x,y,1/2-z
1/2+x,1/2+y,z
1/2-x,1/2-y,1/2+z
1/2+x,1/2-y,-z
1/2-x,1/2+y,1/2-z
loop_
_atom_site_type_symbol
_atom_site_label
_atom_site_fract_x
_atom_site_fract_y
_atom_site_fract_z
Si Si1 0.000000 0.824522 0.750000
Si Si2 0.890701 0.855410 0.334045
Si Si3 0.928057 0.275479 0.973802
Si Si4 0.746589 0.139976 0.965453
Si Si5 0.149417 0.545872 0.405045
Si Si6 0.628745 0.399175 0.620825
Si Si7 0.674213 0.744715 0.822867
Si Si8 0.099699 0.560937 0.581386
O O1 0.042476 0.864206 0.685149
O O2 0.123081 0.783817 0.696499
O O3 0.713826 0.808086 0.335029
O O4 0.763931 0.902657 0.368167
O O5 0.000000 0.863613 0.250000
O O6 0.100921 0.838562 0.395674
O O7 0.000665 0.268388 0.887487
O O8 0.135098 0.239301 0.012106
O O9 0.013692 0.326514 0.006208
O O10 0.661349 0.089569 0.931765
O O11 0.900764 0.128079 0.041044
O O12 0.428127 0.557984 0.373874
O O13 0.185074 0.553321 0.494923
O O14 0.075480 0.491827 0.387515
O O15 0.921360 0.581101 0.378352
O O16 0.500000 0.739007 0.750000
#
# Coordination Sequence:
#
# PCOD9320559 Si02
#       8
#     4   8   8   8   8   8   8   8
#     4  12  28  46  74 102 150 200 238 314 370 444
#     4  11  24  45  67 108 146 197 245 307 373 451
#     4  12  26  44  71 106 143 195 254 299 358 446
#     4  11  23  43  72 102 146 190 245 306 369 438
#     4  10  24  45  77 111 141 189 247 307 367 446
#     4  11  25  45  73 107 143 186 248 298 370 437
#     4  11  27  44  71 104 153 197 246 304 377 437
#     4  10  23  42  76 103 146 189 245 303 377 440
#
# _framework density 22.927129000000001
#
# number of rings (size 3 to 8) (size 9 to 14) (size 15 to 20)
#    0.000    1.067    4.000    0.800    5.600    3.733 
#    1.200    1.333    0.000    0.000    0.000    0.000 
#    0.000    0.000    0.000    0.000    0.000    0.000 
#
# Total GULP energy -167134.013532 kJ/mol
# GULP energy per Si atom -5571.133784 kJ/mol
# Density = 2.287495 g / cm^3
# Si number density = 22.927129 Si / 1000 Ang^3
#
#
#
# Elastic Constant Matrix: (Units=GPa)
#
#
# Indices 1 2 3 4 5 6 
#
# 1 41.2980 10.4660 31.3720 0.0000 0.0000 0.0000
# 2 10.4660 137.0976 45.6874 0.0000 0.0000 0.0000
# 3 31.3720 45.6874 128.3227 0.0000 0.0000 0.0000
# 4 0.0000 0.0000 0.0000 28.2549 0.0000 0.0000
# 5 0.0000 0.0000 0.0000 0.0000 25.0992 0.0000
# 6 0.0000 0.0000 0.0000 0.0000 0.0000 29.3709
#
#
#
# Elastic Compliance Matrix: (Units=1/GPa)
#
#
# Indices 1 2 3 4 5 6 
#
# 1 0.029740 0.000173 -0.007333 0.000000 0.000000 0.000000
# 2 0.000173 0.008277 -0.002989 0.000000 0.000000 0.000000
# 3 -0.007333 -0.002989 0.010650 0.000000 0.000000 0.000000
# 4 0.000000 0.000000 0.000000 0.035392 0.000000 0.000000
# 5 0.000000 0.000000 0.000000 0.000000 0.039842 0.000000
# 6 0.000000 0.000000 0.000000 0.000000 0.000000 0.034047
#
#
# Mechanical properties :
#
#
# Convention : Reuss Voigt Hill
#
# Bulk Modulus (GPa) = 35.24844 53.52989 44.38917
# Shear Modulus (GPa) = 26.63790 31.15785 28.89787
#
# Velocity S-wave (km/s) = 3.41229 3.69045 3.55409
# Velocity P-wave (km/s) = 5.56170 6.44653 6.02039
#
# Compressibility (1/GPa) = 0.02837005
#
# Stress axis : x y z
#
# Youngs Moduli (GPa) = 33.62418 120.81655 93.89874
#
# Poissons Ratio (x) = -0.02092 0.68852
# Poissons Ratio (y) = -0.00582 0.28069
# Poissons Ratio (z) = 0.24655 0.36115
#
# Static dielectric constant tensor:
#      x y z
#    x 1.848120 0.000000 0.000000 
#    y 0.000000 1.886070 0.000000 
#    z 0.000000 0.000000 2.029460 
# 
# From -- ./inp_files/22924.got.cif
#   From: 2010.05.17/outbox.cif.g08.bks.cpg/sg20_12_cif.got.tgz:22924.got - 2010.06.03 22:52:26.
