data_PCOD9320804
_publ_section_title
;
Structure prediction by ZEFSAII (Michael W. Deem and Ramdas Pophale) SiO2 
 PCOD9320804
Probable space group: C 2 2 21
;
_chemical_formula_sum "Si O2"
_cell_formula_units_Z 48
_cell_length_a 13.417531
_cell_length_b 18.879187
_cell_length_c 8.540472
_cell_angle_alpha 90.000000
_cell_angle_beta 90.000000
_cell_angle_gamma 90.000000
_cell_volume 2163.404699
_symmetry_space_group_name_H-M "C 2 2 21"
_symmetry_group_IT_number 20
_symmetry_cell_setting 'orthorhombic'
loop_
_space_group_symop_operation_xyz
x,y,z
-x,-y,1/2+z
x,-y,-z
-x,y,1/2-z
1/2+x,1/2+y,z
1/2-x,1/2-y,1/2+z
1/2+x,1/2-y,-z
1/2-x,1/2+y,1/2-z
loop_
_atom_site_type_symbol
_atom_site_label
_atom_site_fract_x
_atom_site_fract_y
_atom_site_fract_z
Si Si1 0.731493 0.690694 0.219654
Si Si2 0.005791 0.371499 0.937088
Si Si3 0.155826 0.812636 0.424745
Si Si4 0.317067 0.957806 0.870577
Si Si5 0.301155 0.938611 0.401290
Si Si6 0.530404 0.717155 0.072154
O O1 0.693646 0.702277 0.396466
O O2 0.761515 0.609156 0.202507
O O3 0.648367 0.707404 0.086902
O O4 0.821122 0.744239 0.180785
O O5 0.912315 0.423420 0.957323
O O6 0.000000 0.358770 0.750000
O O7 0.107264 0.407500 0.997947
O O8 0.002503 0.298223 0.031591
O O9 0.224140 0.876477 0.362693
O O10 0.038232 0.825886 0.450696
O O11 0.343890 0.017070 0.743534
O O12 0.254405 0.000000 0.000000
O O13 0.246835 0.000000 0.500000
O O14 0.500000 0.699451 0.250000
#
# Coordination Sequence:
#
# PCOD9320804 Si02
#       6
#     8   8   8   8   8   8
#     4  11  23  44  66  96 134 174 227 281 339 420
#     4  12  23  39  62 102 137 165 215 276 336 412
#     4  11  23  42  69  95 134 175 228 280 341 414
#     4  12  28  42  66  98 139 180 228 283 352 415
#     4  12  24  44  65  97 138 184 221 280 355 417
#     4  10  24  41  68  98 126 174 228 278 330 402
#
# _framework density 22.187249999999999
#
# number of rings (size 3 to 8) (size 9 to 14) (size 15 to 20)
#    0.000    0.667    6.667    0.500    4.667    0.000 
#    0.000    0.833    0.000    0.000    0.000    0.000 
#    0.000    0.000    0.000    0.000    0.000    0.000 
#
# Total GULP energy -134012.463534 kJ/mol
# GULP energy per Si atom -5583.852647 kJ/mol
# Density = 2.213675 g / cm^3
# Si number density = 22.187250 Si / 1000 Ang^3
#
#
#
# Elastic Constant Matrix: (Units=GPa)
#
#
# Indices 1 2 3 4 5 6 
#
# 1 63.1120 20.0240 -6.2804 0.0000 0.0000 0.0000
# 2 20.0240 92.4549 15.5207 0.0000 0.0000 0.0000
# 3 -6.2804 15.5207 37.5084 0.0000 0.0000 0.0000
# 4 0.0000 0.0000 0.0000 40.7047 0.0000 0.0000
# 5 0.0000 0.0000 0.0000 0.0000 20.3453 0.0000
# 6 0.0000 0.0000 0.0000 0.0000 0.0000 26.8566
#
#
#
# Elastic Compliance Matrix: (Units=1/GPa)
#
#
# Indices 1 2 3 4 5 6 
#
# 1 0.017822 -0.004686 0.004923 0.000000 0.000000 0.000000
# 2 -0.004686 0.012856 -0.006104 0.000000 0.000000 0.000000
# 3 0.004923 -0.006104 0.030011 0.000000 0.000000 0.000000
# 4 0.000000 0.000000 0.000000 0.024567 0.000000 0.000000
# 5 0.000000 0.000000 0.000000 0.000000 0.049151 0.000000
# 6 0.000000 0.000000 0.000000 0.000000 0.000000 0.037235
#
#
# Mechanical properties :
#
#
# Convention : Reuss Voigt Hill
#
# Bulk Modulus (GPa) = 20.42751 27.95599 24.19175
# Shear Modulus (GPa) = 25.03825 28.50205 26.77015
#
# Velocity S-wave (km/s) = 3.36296 3.58804 3.47732
# Velocity P-wave (km/s) = 4.93013 5.45827 5.20091
#
# Compressibility (1/GPa) = 0.04895358
#
# Stress axis : x y z
#
# Youngs Moduli (GPa) = 56.11161 77.78582 33.32111
#
# Poissons Ratio (x) = 0.36453 -0.16405
# Poissons Ratio (y) = 0.26296 0.20340
# Poissons Ratio (z) = -0.27625 0.47483
#
# Static dielectric constant tensor:
#      x y z
#    x 1.879700 0.000000 0.000000 
#    y 0.000000 1.795750 0.000000 
#    z 0.000000 0.000000 1.863400 
# 
# From -- ./inp_files/8399.got.cif
#   From: 2010.05.17/outbox.cif.g08.bks.cpg/sg20_5_cif.got.tgz:8399.got - 2010.06.03 22:52:26.
