data_PCOD9320355
_publ_section_title
;
Structure prediction by ZEFSAII (Michael W. Deem and Ramdas Pophale) SiO2 
 PCOD9320355
Probable space group: C 2 2 21
;
_chemical_formula_sum "Si O2"
_cell_formula_units_Z 60
_cell_length_a 9.151717
_cell_length_b 22.085079
_cell_length_c 12.075639
_cell_angle_alpha 90.000000
_cell_angle_beta 90.000000
_cell_angle_gamma 90.000000
_cell_volume 2440.684597
_symmetry_space_group_name_H-M "C 2 2 21"
_symmetry_group_IT_number 20
_symmetry_cell_setting 'orthorhombic'
loop_
_space_group_symop_operation_xyz
x,y,z
-x,-y,1/2+z
x,-y,-z
-x,y,1/2-z
1/2+x,1/2+y,z
1/2-x,1/2-y,1/2+z
1/2+x,1/2-y,-z
1/2-x,1/2+y,1/2-z
loop_
_atom_site_type_symbol
_atom_site_label
_atom_site_fract_x
_atom_site_fract_y
_atom_site_fract_z
Si Si1 0.234813 0.429871 0.432526
Si Si2 0.931434 0.730666 0.056173
Si Si3 0.000000 0.591283 0.750000
Si Si4 0.762978 0.789310 0.387887
Si Si5 0.253976 0.670647 0.844571
Si Si6 0.129145 0.060630 0.337525
Si Si7 0.867325 0.601896 0.173257
Si Si8 0.561801 0.565445 0.588644
O O1 0.111106 0.440173 0.338410
O O2 0.282147 0.359304 0.423356
O O3 0.176251 0.435416 0.560080
O O4 0.394450 0.457780 0.406268
O O5 0.803425 0.781652 0.064030
O O6 0.901850 0.669506 0.126333
O O7 0.089110 0.755536 0.080456
O O8 0.903625 0.719123 0.927693
O O9 0.890749 0.630584 0.671131
O O10 0.759174 0.785254 0.258286
O O11 0.385890 0.622220 0.841225
O O12 0.243687 0.099193 0.267409
O O13 0.091862 0.084368 0.460654
O O14 0.000000 0.058207 0.250000
O O15 0.161942 0.990530 0.369820
O O16 0.000000 0.578779 0.250000
#
# Coordination Sequence:
#
# PCOD9320355 Si02
#       8
#     8   8   4   8   8   8   8   8
#     4  10  22  46  68 109 147 196 249 321 361 459
#     4  11  24  41  69 103 149 199 241 308 368 455
#     4  10  26  38  66 112 146 182 246 300 390 442
#     4  10  23  40  64 105 144 194 253 293 379 433
#     4  11  24  44  70 105 143 192 249 305 368 454
#     4  11  26  48  75 111 136 198 255 315 379 447
#     4  11  25  47  72 105 161 192 245 309 396 449
#     4  11  25  47  81 101 145 195 262 315 370 455
#
# _framework density 24.583266999999999
#
# number of rings (size 3 to 8) (size 9 to 14) (size 15 to 20)
#    0.000    1.333    2.667    1.200   13.067    1.067 
#    2.400    0.000    0.000    0.000    0.000    0.000 
#    0.000    0.000    0.000    0.000    0.000    0.000 
#
# Total GULP energy -167123.772592 kJ/mol
# GULP energy per Si atom -5570.792420 kJ/mol
# Density = 2.452731 g / cm^3
# Si number density = 24.583267 Si / 1000 Ang^3
#
#
#
# Elastic Constant Matrix: (Units=GPa)
#
#
# Indices 1 2 3 4 5 6 
#
# 1 53.5356 7.7647 38.9027 0.0000 0.0000 0.0000
# 2 7.7647 4.9710 6.8323 0.0000 0.0000 0.0000
# 3 38.9027 6.8323 99.9388 0.0000 0.0000 0.0000
# 4 0.0000 0.0000 0.0000 263.1175 0.0000 0.0000
# 5 0.0000 0.0000 0.0000 0.0000 43.2567 0.0000
# 6 0.0000 0.0000 0.0000 0.0000 0.0000 0.9309
#
#
#
# Elastic Compliance Matrix: (Units=1/GPa)
#
#
# Indices 1 2 3 4 5 6 
#
# 1 0.030670 -0.034764 -0.009562 0.000000 0.000000 0.000000
# 2 -0.034764 0.261435 -0.004340 0.000000 0.000000 0.000000
# 3 -0.009562 -0.004340 0.014025 0.000000 0.000000 0.000000
# 4 0.000000 0.000000 0.000000 0.003801 0.000000 0.000000
# 5 0.000000 0.000000 0.000000 0.000000 0.023118 0.000000
# 6 0.000000 0.000000 0.000000 0.000000 0.000000 1.074259
#
#
# Mechanical properties :
#
#
# Convention : Reuss Voigt Hill
#
# Bulk Modulus (GPa) = 4.78935 29.49388 17.14161
# Shear Modulus (GPa) = 3.17614 68.45739 35.81676
#
# Velocity S-wave (km/s) = 1.13789 5.28276 3.82115
# Velocity P-wave (km/s) = 1.91803 7.01667 5.14357
#
# Compressibility (1/GPa) = 0.20879648
#
# Stress axis : x y z
#
# Youngs Moduli (GPa) = 32.60543 3.82504 71.30113
#
# Poissons Ratio (x) = 0.13297 0.68178
# Poissons Ratio (y) = 1.13350 0.30948
# Poissons Ratio (z) = 0.31177 0.01660
#
# Static dielectric constant tensor:
#      x y z
#    x 1.780370 0.000000 0.000000 
#    y 0.000000 2.131190 0.000000 
#    z 0.000000 0.000000 2.051170 
# 
# From -- ./inp_files/13304.got.cif
#   From: 2010.05.17/outbox.cif.g08.bks.cpg/sg20_7_cif.got.tgz:13304.got - 2010.06.03 22:52:26.
