data_PCOD9320910
_publ_section_title
;
Structure prediction by ZEFSAII (Michael W. Deem and Ramdas Pophale) SiO2 
 PCOD9320910
Probable space group: C 2 2 21
;
_chemical_formula_sum "Si O2"
_cell_formula_units_Z 48
_cell_length_a 9.361027
_cell_length_b 26.223948
_cell_length_c 7.707428
_cell_angle_alpha 90.000000
_cell_angle_beta 90.000000
_cell_angle_gamma 90.000000
_cell_volume 1892.043205
_symmetry_space_group_name_H-M "C 2 2 21"
_symmetry_group_IT_number 20
_symmetry_cell_setting 'orthorhombic'
loop_
_space_group_symop_operation_xyz
x,y,z
-x,-y,1/2+z
x,-y,-z
-x,y,1/2-z
1/2+x,1/2+y,z
1/2-x,1/2-y,1/2+z
1/2+x,1/2-y,-z
1/2-x,1/2+y,1/2-z
loop_
_atom_site_type_symbol
_atom_site_label
_atom_site_fract_x
_atom_site_fract_y
_atom_site_fract_z
Si Si1 0.806675 0.326289 0.014839
Si Si2 0.831728 0.769495 0.789908
Si Si3 0.345269 0.967994 0.322948
Si Si4 0.500000 0.875248 0.750000
Si Si5 0.464862 0.393096 0.551644
Si Si6 0.771820 0.368500 0.502068
Si Si7 0.150230 0.000000 0.000000
O O1 0.757124 0.283865 0.877765
O O2 0.951116 0.347846 0.929318
O O3 0.677222 0.365737 0.016263
O O4 0.822863 0.291386 0.181180
O O5 0.757420 0.809812 0.927103
O O6 0.000000 0.778082 0.750000
O O7 0.500000 0.982957 0.250000
O O8 0.345559 0.906667 0.360709
O O9 0.241152 0.983204 0.167197
O O10 0.316823 0.000000 0.500000
O O11 0.346051 0.894112 0.678575
O O12 0.500000 0.378932 0.750000
O O13 0.607998 0.380126 0.452068
O O14 0.444194 0.452534 0.548263
#
# Coordination Sequence:
#
# PCOD9320910 Si02
#       7
#     8   8   8   4   8   8   4
#     4  11  25  45  78 109 155 210 266 330 414 491
#     4  11  24  48  76 115 161 212 264 345 411 502
#     4  12  29  51  82 120 165 216 275 356 423 512
#     4  10  24  44  74 112 154 212 260 330 408 498
#     4  12  24  52  78 110 160 213 275 348 419 486
#     4  11  25  46  78 111 159 214 268 339 422 487
#     4  12  32  50  84 124 156 230 292 340 430 516
#
# _framework density 25.369399000000001
#
# number of rings (size 3 to 8) (size 9 to 14) (size 15 to 20)
#    0.000    0.667    5.833    1.000   11.667    1.333 
#    0.000    0.000    0.000    0.000    0.000    0.000 
#    0.000    0.000    0.000    0.000    0.000    0.000 
#
# Total GULP energy -133726.005229 kJ/mol
# GULP energy per Si atom -5571.916885 kJ/mol
# Density = 2.531166 g / cm^3
# Si number density = 25.369399 Si / 1000 Ang^3
#
#
#
# Elastic Constant Matrix: (Units=GPa)
#
#
# Indices 1 2 3 4 5 6 
#
# 1 58.2241 -0.5360 -6.3248 0.0000 0.0000 0.0000
# 2 -0.5360 119.3691 -4.9113 0.0000 0.0000 0.0000
# 3 -6.3248 -4.9113 69.1917 0.0000 0.0000 0.0000
# 4 0.0000 0.0000 0.0000 -24.0383 0.0000 0.0000
# 5 0.0000 0.0000 0.0000 0.0000 14.5468 0.0000
# 6 0.0000 0.0000 0.0000 0.0000 0.0000 45.6666
#
#
#
# Elastic Compliance Matrix: (Units=1/GPa)
#
#
# Indices 1 2 3 4 5 6 
#
# 1 0.017350 0.000144 0.001596 0.000000 0.000000 0.000000
# 2 0.000144 0.008403 0.000610 0.000000 0.000000 0.000000
# 3 0.001596 0.000610 0.014642 0.000000 0.000000 0.000000
# 4 0.000000 0.000000 0.000000 -0.041600 0.000000 0.000000
# 5 0.000000 0.000000 0.000000 0.000000 0.068744 0.000000
# 6 0.000000 0.000000 0.000000 0.000000 0.000000 0.021898
#
#
# Mechanical properties :
#
#
# Convention : Reuss Voigt Hill
#
# Bulk Modulus (GPa) = 22.17630 24.80452 23.49041
# Shear Modulus (GPa) = 50.11611 24.47215 37.29413
#
# Velocity S-wave (km/s) = 4.44943 3.10922 3.83827
# Velocity P-wave (km/s) = 5.92933 4.76322 5.37797
#
# Compressibility (1/GPa) = 0.04509318
#
# Stress axis : x y z
#
# Youngs Moduli (GPa) = 57.63781 119.00367 68.29772
#
# Poissons Ratio (x) = -0.01709 -0.10901
# Poissons Ratio (y) = -0.00828 -0.04163
# Poissons Ratio (z) = -0.09200 -0.07254
#
# Static dielectric constant tensor:
#      x y z
#    x 2.053530 0.000000 0.000000 
#    y 0.000000 2.081650 0.000000 
#    z 0.000000 0.000000 2.192610 
# 
# From -- ./inp_files/6575.got.cif
#   From: 2010.05.17/outbox.cif.g08.bks.cpg/sg20_4_cif.got.tgz:6575.got - 2010.06.03 22:52:26.
