data_PCOD9320341
_publ_section_title
;
Structure prediction by ZEFSAII (Michael W. Deem and Ramdas Pophale) SiO2 
 PCOD9320341
Probable space group: C 2 2 21
;
_chemical_formula_sum "Si O2"
_cell_formula_units_Z 56
_cell_length_a 17.350809
_cell_length_b 7.835233
_cell_length_c 14.479076
_cell_angle_alpha 90.000000
_cell_angle_beta 90.000000
_cell_angle_gamma 90.000000
_cell_volume 1968.396085
_symmetry_space_group_name_H-M "C 2 2 21"
_symmetry_group_IT_number 20
_symmetry_cell_setting 'orthorhombic'
loop_
_space_group_symop_operation_xyz
x,y,z
-x,-y,1/2+z
x,-y,-z
-x,y,1/2-z
1/2+x,1/2+y,z
1/2-x,1/2-y,1/2+z
1/2+x,1/2-y,-z
1/2-x,1/2+y,1/2-z
loop_
_atom_site_type_symbol
_atom_site_label
_atom_site_fract_x
_atom_site_fract_y
_atom_site_fract_z
Si Si1 0.903608 0.143991 0.868519
Si Si2 0.543136 0.720159 0.431831
Si Si3 0.339328 0.144375 0.802041
Si Si4 0.812126 0.031357 0.294431
Si Si5 0.000000 0.593880 0.250000
Si Si6 0.258957 0.148440 0.448951
Si Si7 0.590004 0.077808 0.907587
Si Si8 0.322178 0.500000 0.500000
O O1 0.838510 0.086767 0.792485
O O2 0.953592 0.279883 0.814642
O O3 0.944152 0.962584 0.885374
O O4 0.909502 0.224330 0.972478
O O5 0.583596 0.857421 0.363394
O O6 0.450512 0.740521 0.430244
O O7 0.281553 0.984756 0.797520
O O8 0.340884 0.272133 0.714538
O O9 0.286461 0.269952 0.866341
O O10 0.845915 0.964142 0.392705
O O11 0.059951 0.485003 0.190679
O O12 0.329858 0.029150 0.414618
O O13 0.280883 0.311393 0.512578
O O14 0.210946 0.000000 0.500000
O O15 0.548565 0.000000 0.000000
#
# Coordination Sequence:
#
# PCOD9320341 Si02
#       8
#     8   8   8   8   4   8   8   4
#     4  10  23  44  70  99 141 194 246 312 378 462
#     4  10  23  47  71 104 146 192 256 311 388 449
#     4  10  23  41  70 106 140 196 248 311 381 450
#     4  10  23  41  65 105 141 191 247 311 383 449
#     4  12  22  42  72  96 142 190 246 294 380 450
#     4  10  24  44  71 105 145 193 246 309 380 449
#     4  11  24  48  65 106 143 190 243 312 369 450
#     4  10  22  46  64 104 148 194 248 310 384 452
#
# _framework density 28.449556999999999
#
# number of rings (size 3 to 8) (size 9 to 14) (size 15 to 20)
#    0.000    1.714    1.429    1.714    6.000    4.000 
#   23.143    0.000    0.000    0.000    0.000    0.000 
#    0.000    0.000    0.000    0.000    0.000    0.000 
#
# Total GULP energy -156077.321640 kJ/mol
# GULP energy per Si atom -5574.190059 kJ/mol
# Density = 2.838480 g / cm^3
# Si number density = 28.449557 Si / 1000 Ang^3
#
#
#
# Elastic Constant Matrix: (Units=GPa)
#
#
# Indices 1 2 3 4 5 6 
#
# 1 66.4204 9.8298 1.5230 0.0000 0.0000 0.0000
# 2 9.8298 117.8164 -6.3364 0.0000 0.0000 0.0000
# 3 1.5230 -6.3364 145.9541 0.0000 0.0000 0.0000
# 4 0.0000 0.0000 0.0000 37.2150 0.0000 0.0000
# 5 0.0000 0.0000 0.0000 0.0000 14.1002 0.0000
# 6 0.0000 0.0000 0.0000 0.0000 0.0000 61.5738
#
#
#
# Elastic Compliance Matrix: (Units=1/GPa)
#
#
# Indices 1 2 3 4 5 6 
#
# 1 0.015251 -0.001284 -0.000215 0.000000 0.000000 0.000000
# 2 -0.001284 0.008616 0.000387 0.000000 0.000000 0.000000
# 3 -0.000215 0.000387 0.006871 0.000000 0.000000 0.000000
# 4 0.000000 0.000000 0.000000 0.026871 0.000000 0.000000
# 5 0.000000 0.000000 0.000000 0.000000 0.070921 0.000000
# 6 0.000000 0.000000 0.000000 0.000000 0.000000 0.016241
#
#
# Mechanical properties :
#
#
# Convention : Reuss Voigt Hill
#
# Bulk Modulus (GPa) = 35.07046 37.80265 36.43655
# Shear Modulus (GPa) = 31.94947 44.25609 38.10278
#
# Velocity S-wave (km/s) = 3.35479 3.94839 3.66363
# Velocity P-wave (km/s) = 5.23069 5.83976 5.54360
#
# Compressibility (1/GPa) = 0.02851403
#
# Stress axis : x y z
#
# Youngs Moduli (GPa) = 65.57138 116.06656 145.54919
#
# Poissons Ratio (x) = 0.14903 0.03127
# Poissons Ratio (y) = 0.08419 -0.05639
# Poissons Ratio (z) = 0.01409 -0.04497
#
# Static dielectric constant tensor:
#      x y z
#    x 2.497710 0.000000 0.000000 
#    y 0.000000 2.236460 0.000000 
#    z 0.000000 0.000000 1.901850 
# 
# From -- ./inp_files/21823.got.cif
#   From: 2010.05.17/outbox.cif.g08.bks.cpg/sg20_11_cif.got.tgz:21823.got - 2010.06.03 22:52:26.
