data_PCOD9320748
_publ_section_title
;
Structure prediction by ZEFSAII (Michael W. Deem and Ramdas Pophale) SiO2 
 PCOD9320748
Probable space group: C 2 2 21
;
_chemical_formula_sum "Si O2"
_cell_formula_units_Z 48
_cell_length_a 13.074924
_cell_length_b 8.096778
_cell_length_c 16.871164
_cell_angle_alpha 90.000000
_cell_angle_beta 90.000000
_cell_angle_gamma 90.000000
_cell_volume 1786.061677
_symmetry_space_group_name_H-M "C 2 2 21"
_symmetry_group_IT_number 20
_symmetry_cell_setting 'orthorhombic'
loop_
_space_group_symop_operation_xyz
x,y,z
-x,-y,1/2+z
x,-y,-z
-x,y,1/2-z
1/2+x,1/2+y,z
1/2-x,1/2-y,1/2+z
1/2+x,1/2-y,-z
1/2-x,1/2+y,1/2-z
loop_
_atom_site_type_symbol
_atom_site_label
_atom_site_fract_x
_atom_site_fract_y
_atom_site_fract_z
Si Si1 0.705678 0.228707 0.496896
Si Si2 0.539623 0.373431 0.619759
Si Si3 0.322485 0.923208 0.834864
Si Si4 0.000000 0.630840 0.750000
Si Si5 0.643101 0.000000 0.000000
Si Si6 0.858420 0.900065 0.250999
Si Si7 0.909817 0.185777 0.588160
O O1 0.616739 0.292192 0.556294
O O2 0.663520 0.887643 0.572013
O O3 0.772491 0.380438 0.457301
O O4 0.797242 0.158579 0.551177
O O5 0.472815 0.243495 0.671619
O O6 0.599494 0.464332 0.691000
O O7 0.475724 0.519149 0.578385
O O8 0.410184 0.022934 0.788519
O O9 0.220332 0.012778 0.808539
O O10 0.311607 0.741930 0.800148
O O11 0.575125 0.869509 0.950073
O O12 0.924496 0.801499 0.317070
#
# Coordination Sequence:
#
# PCOD9320748 Si02
#       7
#     8   8   8   4   4   8   8
#     4  10  24  52  91 128 184 235 301 384 471 547
#     4  12  25  54  92 129 178 233 311 384 460 558
#     4  12  29  51  85 126 179 236 303 387 467 541
#     4  12  28  50  80 132 176 232 320 376 438 572
#     4   8  22  50  86 128 172 218 302 368 470 554
#     4  12  26  50  89 120 169 231 302 377 458 554
#     4  10  23  48  92 126 171 234 295 376 458 557
#
# _framework density 26.874772
#
# number of rings (size 3 to 8) (size 9 to 14) (size 15 to 20)
#    1.000    0.000    1.667    4.000    4.667    2.667 
#    3.000    1.667   14.667    2.000    0.000    0.000 
#    0.000    0.000    0.000    0.000    0.000    0.000 
#
# Total GULP energy -133994.274294 kJ/mol
# GULP energy per Si atom -5583.094762 kJ/mol
# Density = 2.681360 g / cm^3
# Si number density = 26.874772 Si / 1000 Ang^3
#
#
#
# Elastic Constant Matrix: (Units=GPa)
#
#
# Indices 1 2 3 4 5 6 
#
# 1 123.9200 86.3361 90.0500 0.0000 0.0000 0.0000
# 2 86.3361 158.6274 111.4560 0.0000 0.0000 0.0000
# 3 90.0500 111.4560 243.7160 0.0000 0.0000 0.0000
# 4 0.0000 0.0000 0.0000 68.7080 0.0000 0.0000
# 5 0.0000 0.0000 0.0000 0.0000 32.5792 0.0000
# 6 0.0000 0.0000 0.0000 0.0000 0.0000 -14.9283
#
#
#
# Elastic Compliance Matrix: (Units=1/GPa)
#
#
# Indices 1 2 3 4 5 6 
#
# 1 0.013945 -0.005849 -0.002478 0.000000 0.000000 0.000000
# 2 -0.005849 0.011742 -0.003209 0.000000 0.000000 0.000000
# 3 -0.002478 -0.003209 0.006486 0.000000 0.000000 0.000000
# 4 0.000000 0.000000 0.000000 0.014554 0.000000 0.000000
# 5 0.000000 0.000000 0.000000 0.000000 0.030694 0.000000
# 6 0.000000 0.000000 0.000000 0.000000 0.000000 -0.066987
#
#
# Mechanical properties :
#
#
# Convention : Reuss Voigt Hill
#
# Bulk Modulus (GPa) = 109.86128 122.43862 116.14995
# Shear Modulus (GPa) = 136.83385 33.16652 85.00018
#
# Velocity S-wave (km/s) = 7.14324 3.51681 5.63000
# Velocity P-wave (km/s) = 10.44041 7.88343 9.25069
#
# Compressibility (1/GPa) = 0.00910239
#
# Stress axis : x y z
#
# Youngs Moduli (GPa) = 71.70846 85.16352 154.17745
#
# Poissons Ratio (x) = 0.49813 0.38201
# Poissons Ratio (y) = 0.41943 0.49471
# Poissons Ratio (z) = 0.17767 0.27327
#
# Static dielectric constant tensor:
#      x y z
#    x 2.148860 0.000000 0.000000 
#    y 0.000000 2.213760 0.000000 
#    z 0.000000 0.000000 2.756190 
# 
# From -- ./inp_files/27476.got.cif
#   From: 2010.05.17/outbox.cif.g08.bks.cpg/sg20_14_cif.got.tgz:27476.got - 2010.06.03 22:52:26.
