data_PCOD9320493
_publ_section_title
;
Structure prediction by ZEFSAII (Michael W. Deem and Ramdas Pophale) SiO2 
 PCOD9320493
Probable space group: C 2 2 21
;
_chemical_formula_sum "Si O2"
_cell_formula_units_Z 64
_cell_length_a 14.056111
_cell_length_b 8.837559
_cell_length_c 22.447256
_cell_angle_alpha 90.000000
_cell_angle_beta 90.000000
_cell_angle_gamma 90.000000
_cell_volume 2788.436531
_symmetry_space_group_name_H-M "C 2 2 21"
_symmetry_group_IT_number 20
_symmetry_cell_setting 'orthorhombic'
loop_
_space_group_symop_operation_xyz
x,y,z
-x,-y,1/2+z
x,-y,-z
-x,y,1/2-z
1/2+x,1/2+y,z
1/2-x,1/2-y,1/2+z
1/2+x,1/2-y,-z
1/2-x,1/2+y,1/2-z
loop_
_atom_site_type_symbol
_atom_site_label
_atom_site_fract_x
_atom_site_fract_y
_atom_site_fract_z
Si Si1 0.123684 0.927677 0.091730
Si Si2 0.383308 0.750091 0.468547
Si Si3 0.286738 0.851571 0.253629
Si Si4 0.405676 0.166002 0.980218
Si Si5 0.725155 0.936605 0.120258
Si Si6 0.217841 0.251750 0.366845
Si Si7 0.892138 0.662957 0.224504
Si Si8 0.920309 0.813226 0.108001
O O1 0.216157 0.901355 0.130974
O O2 0.024444 0.876560 0.119292
O O3 0.113800 0.098818 0.070784
O O4 0.136138 0.818327 0.033650
O O5 0.482855 0.837654 0.464648
O O6 0.307254 0.863162 0.440936
O O7 0.313044 0.838807 0.323956
O O8 0.327422 0.751092 0.199081
O O9 0.174210 0.804922 0.254868
O O10 0.328295 0.017810 0.240253
O O11 0.350169 0.233053 0.923834
O O12 0.405572 0.267767 0.039538
O O13 0.369691 0.000000 0.000000
O O14 0.839310 0.933497 0.122559
O O15 0.707231 0.113572 0.127168
O O16 0.902816 0.675448 0.152979
O O17 0.000000 0.659161 0.250000
#
# Coordination Sequence:
#
# PCOD9320493 Si02
#       8
#     8   8   8   8   8   8   8   8
#     4  10  23  41  69  97 136 180 231 278 353 422
#     4  10  24  42  64 100 139 180 226 286 343 430
#     4  11  25  45  69 102 141 180 245 294 353 439
#     4  11  25  41  66 100 138 177 232 285 352 423
#     4  11  25  43  70  99 136 183 228 289 359 409
#     4  12  25  42  70  99 136 179 232 289 356 424
#     4  11  24  47  74 101 144 193 238 299 364 418
#     4  10  23  43  67  97 138 183 226 291 352 419
#
# _framework density 22.951927999999999
#
# number of rings (size 3 to 8) (size 9 to 14) (size 15 to 20)
#    0.000    1.250    1.250    3.000   10.500    3.500 
#    0.000    0.625    0.000    0.000    0.000    0.000 
#    0.000    0.000    0.000    0.000    0.000    0.000 
#
# Total GULP energy -178581.908308 kJ/mol
# GULP energy per Si atom -5580.684635 kJ/mol
# Density = 2.289969 g / cm^3
# Si number density = 22.951928 Si / 1000 Ang^3
#
#
#
# Elastic Constant Matrix: (Units=GPa)
#
#
# Indices 1 2 3 4 5 6 
#
# 1 97.4135 22.0923 33.6598 0.0000 0.0000 0.0000
# 2 22.0923 67.8003 22.3226 0.0000 0.0000 0.0000
# 3 33.6598 22.3226 85.2298 0.0000 0.0000 0.0000
# 4 0.0000 0.0000 0.0000 33.0768 0.0000 0.0000
# 5 0.0000 0.0000 0.0000 0.0000 25.9026 0.0000
# 6 0.0000 0.0000 0.0000 0.0000 0.0000 29.6967
#
#
#
# Elastic Compliance Matrix: (Units=1/GPa)
#
#
# Indices 1 2 3 4 5 6 
#
# 1 0.012304 -0.002637 -0.004169 0.000000 0.000000 0.000000
# 2 -0.002637 0.016706 -0.003334 0.000000 0.000000 0.000000
# 3 -0.004169 -0.003334 0.014253 0.000000 0.000000 0.000000
# 4 0.000000 0.000000 0.000000 0.030233 0.000000 0.000000
# 5 0.000000 0.000000 0.000000 0.000000 0.038606 0.000000
# 6 0.000000 0.000000 0.000000 0.000000 0.000000 0.033674
#
#
# Mechanical properties :
#
#
# Convention : Reuss Voigt Hill
#
# Bulk Modulus (GPa) = 43.50932 45.17699 44.34315
# Shear Modulus (GPa) = 28.78272 29.22647 29.00460
#
# Velocity S-wave (km/s) = 3.54509 3.57231 3.55873
# Velocity P-wave (km/s) = 5.97953 6.06146 6.02063
#
# Compressibility (1/GPa) = 0.02298358
#
# Stress axis : x y z
#
# Youngs Moduli (GPa) = 81.27512 59.85838 70.16280
#
# Poissons Ratio (x) = 0.15783 0.29248
# Poissons Ratio (y) = 0.21430 0.23394
# Poissons Ratio (z) = 0.33880 0.19958
#
# Static dielectric constant tensor:
#      x y z
#    x 1.852280 0.000000 0.000000 
#    y 0.000000 1.853330 0.000000 
#    z 0.000000 0.000000 1.901450 
# 
# From -- ./inp_files/29358.got.cif
#   From: 2010.05.17/outbox.cif.g08.bks.cpg/sg20_15_cif.got.tgz:29358.got - 2010.06.03 22:52:26.
