data_PCOD9320010
_publ_section_title
;
Structure prediction by ZEFSAII (Michael W. Deem and Ramdas Pophale) SiO2 
 PCOD9320010
Probable space group: C 2 2 21
;
_chemical_formula_sum "Si O2"
_cell_formula_units_Z 48
_cell_length_a 22.036058
_cell_length_b 17.593973
_cell_length_c 6.028234
_cell_angle_alpha 90.000000
_cell_angle_beta 90.000000
_cell_angle_gamma 90.000000
_cell_volume 2337.157230
_symmetry_space_group_name_H-M "C 2 2 21"
_symmetry_group_IT_number 20
_symmetry_cell_setting 'orthorhombic'
loop_
_space_group_symop_operation_xyz
x,y,z
-x,-y,1/2+z
x,-y,-z
-x,y,1/2-z
1/2+x,1/2+y,z
1/2-x,1/2-y,1/2+z
1/2+x,1/2-y,-z
1/2-x,1/2+y,1/2-z
loop_
_atom_site_type_symbol
_atom_site_label
_atom_site_fract_x
_atom_site_fract_y
_atom_site_fract_z
Si Si1 0.688416 0.652889 0.966134
Si Si2 0.000000 0.280395 0.250000
Si Si3 0.758076 0.553396 0.321553
Si Si4 0.600350 0.158748 0.463268
Si Si5 0.934570 0.794037 0.362802
Si Si6 0.147699 0.500000 0.500000
Si Si7 0.797617 0.677238 0.652081
O O1 0.714532 0.591599 0.139795
O O2 0.695958 0.735732 0.078723
O O3 0.618894 0.644763 0.887655
O O4 0.732299 0.659150 0.756392
O O5 0.963859 0.330754 0.079630
O O6 0.952726 0.231156 0.389802
O O7 0.725233 0.500000 0.500000
O O8 0.805020 0.495104 0.203999
O O9 0.797201 0.621073 0.438553
O O10 0.595982 0.222853 0.271910
O O11 0.608211 0.070277 0.418247
O O12 0.653629 0.169752 0.647349
O O13 0.000000 0.813153 0.250000
#
# Coordination Sequence:
#
# PCOD9320010 Si02
#       7
#     8   4   8   8   8   4   8
#     4  12  22  37  63  97 127 168 218 267 333 394
#     4  10  22  42  58  88 128 172 216 274 314 372
#     4  12  24  39  59  94 138 172 207 270 339 393
#     4  11  22  40  59  88 126 175 218 267 319 383
#     4  10  23  40  64  89 130 164 219 276 328 384
#     4  12  24  40  56  86 134 174 218 256 318 394
#     4  12  22  37  66  94 130 168 214 273 331 387
#
# _framework density 20.537772
#
# number of rings (size 3 to 8) (size 9 to 14) (size 15 to 20)
#    0.000    0.667    6.667    2.000    0.000    0.000 
#    4.500    0.000    0.000    0.000    0.000    0.000 
#   70.000    0.000    0.000    0.000    0.000    0.000 
#
# Total GULP energy -133780.552653 kJ/mol
# GULP energy per Si atom -5574.189694 kJ/mol
# Density = 2.049103 g / cm^3
# Si number density = 20.537772 Si / 1000 Ang^3
#
#
#
# Elastic Constant Matrix: (Units=GPa)
#
#
# Indices 1 2 3 4 5 6 
#
# 1 86.9367 -5.3619 -0.3268 0.0000 0.0000 0.0000
# 2 -5.3619 33.9215 -0.9175 0.0000 0.0000 0.0000
# 3 -0.3268 -0.9175 46.5751 0.0000 0.0000 0.0000
# 4 0.0000 0.0000 0.0000 36.7559 0.0000 0.0000
# 5 0.0000 0.0000 0.0000 0.0000 36.4433 0.0000
# 6 0.0000 0.0000 0.0000 0.0000 0.0000 27.4508
#
#
#
# Elastic Compliance Matrix: (Units=1/GPa)
#
#
# Indices 1 2 3 4 5 6 
#
# 1 0.011617 0.001839 0.000118 0.000000 0.000000 0.000000
# 2 0.001839 0.029787 0.000600 0.000000 0.000000 0.000000
# 3 0.000118 0.000600 0.021483 0.000000 0.000000 0.000000
# 4 0.000000 0.000000 0.000000 0.027207 0.000000 0.000000
# 5 0.000000 0.000000 0.000000 0.000000 0.027440 0.000000
# 6 0.000000 0.000000 0.000000 0.000000 0.000000 0.036429
#
#
# Mechanical properties :
#
#
# Convention : Reuss Voigt Hill
#
# Bulk Modulus (GPa) = 14.70585 17.13568 15.92076
# Shear Modulus (GPa) = 29.15197 31.73263 30.44230
#
# Velocity S-wave (km/s) = 3.77162 3.93502 3.85419
# Velocity P-wave (km/s) = 5.11300 5.38586 5.25120
#
# Compressibility (1/GPa) = 0.06800016
#
# Stress axis : x y z
#
# Youngs Moduli (GPa) = 86.08441 33.57196 46.54774
#
# Poissons Ratio (x) = -0.06175 -0.00548
# Poissons Ratio (y) = -0.15834 -0.02791
# Poissons Ratio (z) = -0.01014 -0.02013
#
# Static dielectric constant tensor:
#      x y z
#    x 1.753110 0.000000 0.000000 
#    y 0.000000 1.780120 0.000000 
#    z 0.000000 0.000000 1.811190 
# 
# From -- ./inp_files/2748.got.cif
#   From: 2010.05.17/outbox.cif.g08.bks.cpg/sg20_2_cif.got.tgz:2748.got - 2010.06.03 22:52:26.
