data_PCOD9320499
_publ_section_title
;
Structure prediction by ZEFSAII (Michael W. Deem and Ramdas Pophale) SiO2 
 PCOD9320499
Probable space group: C 2 2 21
;
_chemical_formula_sum "Si O2"
_cell_formula_units_Z 44
_cell_length_a 11.833444
_cell_length_b 17.254038
_cell_length_c 9.094373
_cell_angle_alpha 90.000000
_cell_angle_beta 90.000000
_cell_angle_gamma 90.000000
_cell_volume 1856.840810
_symmetry_space_group_name_H-M "C 2 2 21"
_symmetry_group_IT_number 20
_symmetry_cell_setting 'orthorhombic'
loop_
_space_group_symop_operation_xyz
x,y,z
-x,-y,1/2+z
x,-y,-z
-x,y,1/2-z
1/2+x,1/2+y,z
1/2-x,1/2-y,1/2+z
1/2+x,1/2-y,-z
1/2-x,1/2+y,1/2-z
loop_
_atom_site_type_symbol
_atom_site_label
_atom_site_fract_x
_atom_site_fract_y
_atom_site_fract_z
Si Si1 0.500000 0.111153 0.750000
Si Si2 0.716384 0.208026 0.745800
Si Si3 0.201628 0.445913 0.819325
Si Si4 0.225378 0.859134 0.927283
Si Si5 0.497432 0.000000 0.000000
Si Si6 0.946126 0.000000 0.500000
Si Si7 0.842278 0.911189 0.101412
O O1 0.603873 0.163703 0.799357
O O2 0.550849 0.057576 0.621034
O O3 0.739013 0.186097 0.574901
O O4 0.696619 0.294211 0.804993
O O5 0.826202 0.171936 0.827058
O O6 0.181525 0.407849 0.662269
O O7 0.259047 0.530877 0.808897
O O8 0.085186 0.448977 0.904124
O O9 0.290938 0.408541 0.936139
O O10 0.131822 0.927729 0.947357
O O11 0.036882 0.952322 0.401036
#
# Coordination Sequence:
#
# PCOD9320499 Si02
#       7
#     4   8   8   8   4   4   8
#     4  12  26  44  74 108 142 208 242 298 370 482
#     4  12  27  45  66 105 154 189 241 313 397 423
#     4   9  18  41  69  94 141 186 225 298 359 415
#     4  12  27  44  73 107 149 196 247 311 372 453
#     4  10  23  41  72 102 142 184 259 289 346 442
#     4  10  25  45  86 110 134 200 273 287 370 468
#     4   9  20  43  72 108 145 181 239 327 361 424
#
# _framework density 23.696161
#
# number of rings (size 3 to 8) (size 9 to 14) (size 15 to 20)
#    0.000    1.818    3.636    2.182    2.545   10.909 
#    0.000    0.000    0.000    0.000    0.000    0.000 
#    0.000    0.000    0.000    0.000    0.000    0.000 
#
# Total GULP energy -122598.983012 kJ/mol
# GULP energy per Si atom -5572.681046 kJ/mol
# Density = 2.364223 g / cm^3
# Si number density = 23.696161 Si / 1000 Ang^3
#
#
#
# Elastic Constant Matrix: (Units=GPa)
#
#
# Indices 1 2 3 4 5 6 
#
# 1 81.9939 46.9098 42.9911 0.0000 0.0000 0.0000
# 2 46.9098 153.7478 61.2210 0.0000 0.0000 0.0000
# 3 42.9911 61.2210 115.9277 0.0000 0.0000 0.0000
# 4 0.0000 0.0000 0.0000 44.9571 0.0000 0.0000
# 5 0.0000 0.0000 0.0000 0.0000 12.5605 0.0000
# 6 0.0000 0.0000 0.0000 0.0000 0.0000 9.3552
#
#
#
# Elastic Compliance Matrix: (Units=1/GPa)
#
#
# Indices 1 2 3 4 5 6 
#
# 1 0.016333 -0.003256 -0.004337 0.000000 0.000000 0.000000
# 2 -0.003256 0.008885 -0.003485 0.000000 0.000000 0.000000
# 3 -0.004337 -0.003485 0.012075 0.000000 0.000000 0.000000
# 4 0.000000 0.000000 0.000000 0.022243 0.000000 0.000000
# 5 0.000000 0.000000 0.000000 0.000000 0.079615 0.000000
# 6 0.000000 0.000000 0.000000 0.000000 0.000000 0.106893
#
#
# Mechanical properties :
#
#
# Convention : Reuss Voigt Hill
#
# Bulk Modulus (GPa) = 66.06566 72.65701 69.36134
# Shear Modulus (GPa) = 18.29849 26.74440 22.52144
#
# Velocity S-wave (km/s) = 2.78189 3.36317 3.08624
# Velocity P-wave (km/s) = 6.18542 6.76828 6.48340
#
# Compressibility (1/GPa) = 0.01513646
#
# Stress axis : x y z
#
# Youngs Moduli (GPa) = 61.22505 112.54617 82.81686
#
# Poissons Ratio (x) = 0.36648 0.35921
# Poissons Ratio (y) = 0.19936 0.28859
# Poissons Ratio (z) = 0.26556 0.39219
#
# Static dielectric constant tensor:
#      x y z
#    x 1.917800 0.000000 0.000000 
#    y 0.000000 2.066850 0.000000 
#    z 0.000000 0.000000 2.007710 
# 
# From -- ./inp_files/9303.got.cif
#   From: 2010.05.17/outbox.cif.g08.bks.cpg/sg20_5_cif.got.tgz:9303.got - 2010.06.03 22:52:26.
