data_PCOD9320931
_publ_section_title
;
Structure prediction by ZEFSAII (Michael W. Deem and Ramdas Pophale) SiO2 
 PCOD9320931
Probable space group: C 2 2 21
;
_chemical_formula_sum "Si O2"
_cell_formula_units_Z 60
_cell_length_a 18.448369
_cell_length_b 16.231285
_cell_length_c 9.438989
_cell_angle_alpha 90.000000
_cell_angle_beta 90.000000
_cell_angle_gamma 90.000000
_cell_volume 2826.417804
_symmetry_space_group_name_H-M "C 2 2 21"
_symmetry_group_IT_number 20
_symmetry_cell_setting 'orthorhombic'
loop_
_space_group_symop_operation_xyz
x,y,z
-x,-y,1/2+z
x,-y,-z
-x,y,1/2-z
1/2+x,1/2+y,z
1/2-x,1/2-y,1/2+z
1/2+x,1/2-y,-z
1/2-x,1/2+y,1/2-z
loop_
_atom_site_type_symbol
_atom_site_label
_atom_site_fract_x
_atom_site_fract_y
_atom_site_fract_z
Si Si1 0.621817 0.693165 0.897564
Si Si2 0.716148 0.626275 0.143477
Si Si3 0.918888 0.508254 0.720912
Si Si4 0.227379 0.190928 0.642416
Si Si5 0.149388 0.086271 0.438816
Si Si6 0.327473 0.000000 0.000000
Si Si7 0.494810 0.567286 0.591777
Si Si8 0.130098 0.622866 0.998517
O O1 0.676199 0.666184 0.772370
O O2 0.544549 0.652614 0.880757
O O3 0.654493 0.651815 0.035407
O O4 0.617150 0.790114 0.925857
O O5 0.753488 0.714742 0.173967
O O6 0.675817 0.587569 0.278009
O O7 0.774928 0.569027 0.066759
O O8 0.878312 0.526740 0.868035
O O9 0.871089 0.443891 0.626318
O O10 0.926163 0.587005 0.616463
O O11 0.000000 0.475340 0.750000
O O12 0.180199 0.170966 0.503991
O O13 0.298897 0.138760 0.600352
O O14 0.066967 0.083072 0.497797
O O15 0.180970 0.000000 0.500000
O O16 0.451719 0.500000 0.500000
O O17 0.500000 0.530617 0.750000
#
# Coordination Sequence:
#
# PCOD9320931 Si02
#       8
#     8   8   8   8   8   4   8   8
#     4  11  24  43  70  98 137 174 231 290 341 419
#     4  11  26  41  67 107 134 176 231 291 344 410
#     4  11  24  46  70 101 144 188 236 289 348 423
#     4  11  22  46  68 100 137 178 232 289 347 413
#     4  11  26  44  70  98 140 186 219 282 359 413
#     4  12  24  42  72 106 134 186 242 286 346 424
#     4  11  26  46  69  98 134 179 229 277 342 420
#     4  10  24  45  69 101 140 186 230 292 358 408
#
# _framework density 21.228283999999999
#
# number of rings (size 3 to 8) (size 9 to 14) (size 15 to 20)
#    0.000    1.067    1.333    4.800   10.267    1.600 
#    9.600    0.000    0.000    0.000    0.000    0.000 
#    0.000    0.000    0.000    0.000    0.000    0.000 
#
# Total GULP energy -167193.726214 kJ/mol
# GULP energy per Si atom -5573.124207 kJ/mol
# Density = 2.117997 g / cm^3
# Si number density = 21.228284 Si / 1000 Ang^3
#
#
#
# Elastic Constant Matrix: (Units=GPa)
#
#
# Indices 1 2 3 4 5 6 
#
# 1 74.9045 47.8542 36.7712 0.0000 0.0000 0.0000
# 2 47.8542 53.9679 44.5608 0.0000 0.0000 0.0000
# 3 36.7712 44.5608 162.1132 0.0000 0.0000 0.0000
# 4 0.0000 0.0000 0.0000 32.4864 0.0000 0.0000
# 5 0.0000 0.0000 0.0000 0.0000 88.3769 0.0000
# 6 0.0000 0.0000 0.0000 0.0000 0.0000 18.1395
#
#
#
# Elastic Compliance Matrix: (Units=1/GPa)
#
#
# Indices 1 2 3 4 5 6 
#
# 1 0.030853 -0.027915 0.000675 0.000000 0.000000 0.000000
# 2 -0.027915 0.049227 -0.007199 0.000000 0.000000 0.000000
# 3 0.000675 -0.007199 0.007994 0.000000 0.000000 0.000000
# 4 0.000000 0.000000 0.000000 0.030782 0.000000 0.000000
# 5 0.000000 0.000000 0.000000 0.000000 0.011315 0.000000
# 6 0.000000 0.000000 0.000000 0.000000 0.000000 0.055128
#
#
# Mechanical properties :
#
#
# Convention : Reuss Voigt Hill
#
# Bulk Modulus (GPa) = 52.09683 61.03980 56.56831
# Shear Modulus (GPa) = 19.18810 38.58720 28.88765
#
# Velocity S-wave (km/s) = 3.00974 4.26811 3.69292
# Velocity P-wave (km/s) = 6.05579 7.28734 6.69992
#
# Compressibility (1/GPa) = 0.01919503
#
# Stress axis : x y z
#
# Youngs Moduli (GPa) = 32.41144 20.31404 125.08838
#
# Poissons Ratio (x) = 0.56708 -0.08443
# Poissons Ratio (y) = 0.90478 0.90056
# Poissons Ratio (z) = -0.02188 0.14625
#
# Static dielectric constant tensor:
#      x y z
#    x 1.866000 0.000000 0.000000 
#    y 0.000000 1.785300 0.000000 
#    z 0.000000 0.000000 1.811160 
# 
# From -- ./inp_files/9608.got.cif
#   From: 2010.05.17/outbox.cif.g08.bks.cpg/sg20_5_cif.got.tgz:9608.got - 2010.06.03 22:52:26.
