data_PCOD9320243
_publ_section_title
;
Structure prediction by ZEFSAII (Michael W. Deem and Ramdas Pophale) SiO2 
 PCOD9320243
Probable space group: C 2 2 21
;
_chemical_formula_sum "Si O2"
_cell_formula_units_Z 56
_cell_length_a 9.600690
_cell_length_b 13.914493
_cell_length_c 19.161371
_cell_angle_alpha 90.000000
_cell_angle_beta 90.000000
_cell_angle_gamma 90.000000
_cell_volume 2559.743290
_symmetry_space_group_name_H-M "C 2 2 21"
_symmetry_group_IT_number 20
_symmetry_cell_setting 'orthorhombic'
loop_
_space_group_symop_operation_xyz
x,y,z
-x,-y,1/2+z
x,-y,-z
-x,y,1/2-z
1/2+x,1/2+y,z
1/2-x,1/2-y,1/2+z
1/2+x,1/2-y,-z
1/2-x,1/2+y,1/2-z
loop_
_atom_site_type_symbol
_atom_site_label
_atom_site_fract_x
_atom_site_fract_y
_atom_site_fract_z
Si Si1 0.420402 0.395681 0.521464
Si Si2 0.748851 0.241224 0.697506
Si Si3 0.001191 0.825304 0.377791
Si Si4 0.887000 0.625276 0.067960
Si Si5 0.216842 0.366381 0.165325
Si Si6 0.909276 0.567241 0.316964
Si Si7 0.470997 0.206361 0.920007
O O1 0.476310 0.500000 0.500000
O O2 0.407543 0.346040 0.445479
O O3 0.274321 0.405740 0.562883
O O4 0.517440 0.319539 0.560671
O O5 0.711552 0.217533 0.776694
O O6 0.790632 0.350659 0.678090
O O7 0.632055 0.200928 0.645466
O O8 0.893194 0.185580 0.683914
O O9 0.084984 0.727029 0.393960
O O10 0.128212 0.893792 0.359755
O O11 0.992605 0.561244 0.113831
O O12 0.926793 0.645593 0.987664
O O13 0.151315 0.462574 0.196520
O O14 0.122817 0.330234 0.101767
O O15 0.000000 0.596802 0.250000
#
# Coordination Sequence:
#
# PCOD9320243 Si02
#       7
#     8   8   8   8   8   8   8
#     4  11  24  39  67  99 137 174 229 285 342 408
#     4  11  23  46  70  96 143 183 230 288 352 419
#     4  10  22  44  67  95 135 181 222 281 353 406
#     4  10  22  45  67  98 135 181 226 285 342 422
#     4  12  25  45  69 102 140 182 235 290 345 422
#     4  11  26  43  71 102 137 186 237 285 356 427
#     4  11  24  43  68 100 136 183 226 284 352 409
#
# _framework density 21.877192999999998
#
# number of rings (size 3 to 8) (size 9 to 14) (size 15 to 20)
#    0.000    1.143    2.857    3.429    4.000    1.143 
#    0.000    1.429    0.000    0.000    0.000    0.000 
#    0.000    0.000    0.000    0.000    0.000    0.000 
#
# Total GULP energy -156287.440144 kJ/mol
# GULP energy per Si atom -5581.694291 kJ/mol
# Density = 2.182740 g / cm^3
# Si number density = 21.877193 Si / 1000 Ang^3
#
#
#
# Elastic Constant Matrix: (Units=GPa)
#
#
# Indices 1 2 3 4 5 6 
#
# 1 62.2909 5.7932 20.7001 0.0000 0.0000 0.0000
# 2 5.7932 40.5587 -5.9067 0.0000 0.0000 0.0000
# 3 20.7001 -5.9067 79.3202 0.0000 0.0000 0.0000
# 4 0.0000 0.0000 0.0000 23.2709 0.0000 0.0000
# 5 0.0000 0.0000 0.0000 0.0000 39.2250 0.0000
# 6 0.0000 0.0000 0.0000 0.0000 0.0000 16.2796
#
#
#
# Elastic Compliance Matrix: (Units=1/GPa)
#
#
# Indices 1 2 3 4 5 6 
#
# 1 0.018002 -0.003291 -0.004943 0.000000 0.000000 0.000000
# 2 -0.003291 0.025528 0.002760 0.000000 0.000000 0.000000
# 3 -0.004943 0.002760 0.014103 0.000000 0.000000 0.000000
# 4 0.000000 0.000000 0.000000 0.042972 0.000000 0.000000
# 5 0.000000 0.000000 0.000000 0.000000 0.025494 0.000000
# 6 0.000000 0.000000 0.000000 0.000000 0.000000 0.061427
#
#
# Mechanical properties :
#
#
# Convention : Reuss Voigt Hill
#
# Bulk Modulus (GPa) = 21.42077 24.81590 23.11833
# Shear Modulus (GPa) = 23.36056 26.52731 24.94394
#
# Velocity S-wave (km/s) = 3.27127 3.48595 3.38032
# Velocity P-wave (km/s) = 4.90723 5.25075 5.08190
#
# Compressibility (1/GPa) = 0.04668367
#
# Stress axis : x y z
#
# Youngs Moduli (GPa) = 55.54788 39.17313 70.90858
#
# Poissons Ratio (x) = 0.12893 0.35051
# Poissons Ratio (y) = 0.18282 -0.19570
# Poissons Ratio (z) = 0.27458 -0.10811
#
# Static dielectric constant tensor:
#      x y z
#    x 1.808420 0.000000 0.000000 
#    y 0.000000 1.820600 0.000000 
#    z 0.000000 0.000000 1.773780 
# 
# From -- ./inp_files/26719.got.cif
#   From: 2010.05.17/outbox.cif.g08.bks.cpg/sg20_14_cif.got.tgz:26719.got - 2010.06.03 22:52:26.
