data_PCOD9320652
_publ_section_title
;
Structure prediction by ZEFSAII (Michael W. Deem and Ramdas Pophale) SiO2 
 PCOD9320652
Probable space group: C 2 2 21
;
_chemical_formula_sum "Si O2"
_cell_formula_units_Z 40
_cell_length_a 23.786064
_cell_length_b 8.772527
_cell_length_c 8.963631
_cell_angle_alpha 90.000000
_cell_angle_beta 90.000000
_cell_angle_gamma 90.000000
_cell_volume 1870.386101
_symmetry_space_group_name_H-M "C 2 2 21"
_symmetry_group_IT_number 20
_symmetry_cell_setting 'orthorhombic'
loop_
_space_group_symop_operation_xyz
x,y,z
-x,-y,1/2+z
x,-y,-z
-x,y,1/2-z
1/2+x,1/2+y,z
1/2-x,1/2-y,1/2+z
1/2+x,1/2-y,-z
1/2-x,1/2+y,1/2-z
loop_
_atom_site_type_symbol
_atom_site_label
_atom_site_fract_x
_atom_site_fract_y
_atom_site_fract_z
Si Si1 0.560485 0.189109 0.681543
Si Si2 0.148473 0.894041 0.861873
Si Si3 0.440274 0.172047 0.173556
Si Si4 0.235429 0.675896 0.031226
Si Si5 0.821517 0.185779 0.802159
O O1 0.500000 0.223812 0.750000
O O2 0.604080 0.296001 0.768025
O O3 0.557381 0.206283 0.503000
O O4 0.570583 0.007648 0.703601
O O5 0.192069 0.779894 0.938630
O O6 0.179033 0.011346 0.750135
O O7 0.125830 0.000000 0.000000
O O8 0.500000 0.211588 0.250000
O O9 0.384652 0.258587 0.226299
O O10 0.298080 0.706757 0.968782
O O11 0.223024 0.500000 0.000000
O O12 0.221488 0.722681 0.198280
#
# Coordination Sequence:
#
# PCOD9320652 Si02
#       5
#     8   8   8   8   8
#     4  10  23  44  71  97 138 183 230 280 337 419
#     4  10  24  43  66 103 137 176 230 285 349 402
#     4  10  24  44  71 104 135 180 232 277 350 410
#     4  11  24  43  68  94 133 182 224 276 340 402
#     4  11  25  43  68 101 136 175 223 286 337 410
#
# _framework density 21.385959
#
# number of rings (size 3 to 8) (size 9 to 14) (size 15 to 20)
#    0.000    1.600    0.000    2.400   11.200    0.800 
#    7.200    0.000    0.000    0.000    0.000    0.000 
#    0.000    0.000    0.000    0.000    0.000    0.000 
#
# Total GULP energy -111766.366180 kJ/mol
# GULP energy per Si atom -5588.318309 kJ/mol
# Density = 2.133728 g / cm^3
# Si number density = 21.385959 Si / 1000 Ang^3
#
#
#
# Elastic Constant Matrix: (Units=GPa)
#
#
# Indices 1 2 3 4 5 6 
#
# 1 109.2012 67.3835 61.4686 0.0000 0.0000 0.0000
# 2 67.3835 88.3483 45.5054 0.0000 0.0000 0.0000
# 3 61.4686 45.5054 102.3697 0.0000 0.0000 0.0000
# 4 0.0000 0.0000 0.0000 38.1115 0.0000 0.0000
# 5 0.0000 0.0000 0.0000 0.0000 44.0255 0.0000
# 6 0.0000 0.0000 0.0000 0.0000 0.0000 16.4595
#
#
#
# Elastic Compliance Matrix: (Units=1/GPa)
#
#
# Indices 1 2 3 4 5 6 
#
# 1 0.020519 -0.012067 -0.006957 0.000000 0.000000 0.000000
# 2 -0.012067 0.021776 -0.002434 0.000000 0.000000 0.000000
# 3 -0.006957 -0.002434 0.015028 0.000000 0.000000 0.000000
# 4 0.000000 0.000000 0.000000 0.026239 0.000000 0.000000
# 5 0.000000 0.000000 0.000000 0.000000 0.022714 0.000000
# 6 0.000000 0.000000 0.000000 0.000000 0.000000 0.060755
#
#
# Mechanical properties :
#
#
# Convention : Reuss Voigt Hill
#
# Bulk Modulus (GPa) = 69.41014 72.07048 70.74031
# Shear Modulus (GPa) = 23.28283 28.09008 25.68646
#
# Velocity S-wave (km/s) = 3.30312 3.62813 3.46943
# Velocity P-wave (km/s) = 6.86104 7.16409 7.01420
#
# Compressibility (1/GPa) = 0.01440712
#
# Stress axis : x y z
#
# Youngs Moduli (GPa) = 48.73416 45.92186 66.54237
#
# Poissons Ratio (x) = 0.55413 0.46294
# Poissons Ratio (y) = 0.58807 0.16198
# Poissons Ratio (z) = 0.33905 0.11179
#
# Static dielectric constant tensor:
#      x y z
#    x 1.738350 0.000000 0.000000 
#    y 0.000000 1.768190 0.000000 
#    z 0.000000 0.000000 1.831720 
# 
# From -- ./inp_files/6040.got.cif
#   From: 2010.05.17/outbox.cif.g08.bks.cpg/sg20_4_cif.got.tgz:6040.got - 2010.06.03 22:52:26.
