data_PCOD9320996
_publ_section_title
;
Structure prediction by ZEFSAII (Michael W. Deem and Ramdas Pophale) SiO2 
 PCOD9320996
Probable space group: C 2 2 21
;
_chemical_formula_sum "Si O2"
_cell_formula_units_Z 32
_cell_length_a 14.207941
_cell_length_b 5.752464
_cell_length_c 16.720085
_cell_angle_alpha 90.000000
_cell_angle_beta 90.000000
_cell_angle_gamma 90.000000
_cell_volume 1366.543735
_symmetry_space_group_name_H-M "C 2 2 21"
_symmetry_group_IT_number 20
_symmetry_cell_setting 'orthorhombic'
loop_
_space_group_symop_operation_xyz
x,y,z
-x,-y,1/2+z
x,-y,-z
-x,y,1/2-z
1/2+x,1/2+y,z
1/2-x,1/2-y,1/2+z
1/2+x,1/2-y,-z
1/2-x,1/2+y,1/2-z
loop_
_atom_site_type_symbol
_atom_site_label
_atom_site_fract_x
_atom_site_fract_y
_atom_site_fract_z
Si Si1 0.500000 0.269709 0.750000
Si Si2 0.375614 0.257847 0.474508
Si Si3 0.942585 0.000000 0.000000
Si Si4 0.639162 0.925121 0.807562
Si Si5 0.349949 0.402431 0.164983
O O1 0.578791 0.420313 0.707152
O O2 0.557585 0.113166 0.812026
O O3 0.324211 0.500000 0.500000
O O4 0.480014 0.294491 0.511457
O O5 0.379506 0.259837 0.377856
O O6 0.341401 0.000000 0.500000
O O7 0.879324 0.083376 0.926771
O O8 0.636504 0.829226 0.717213
O O9 0.742282 0.025147 0.823022
#
# Coordination Sequence:
#
# PCOD9320996 Si02
#       5
#     4   8   4   8   8
#     4  12  24  48  80 100 160 192 256 324 384 466
#     4  10  24  46  76 112 152 201 256 320 395 452
#     4  10  24  46  74 110 152 204 264 320 396 460
#     4  12  26  47  76 112 155 202 263 320 393 477
#     4  12  26  48  74 115 150 209 261 323 396 472
#
# _framework density 23.416743
#
# number of rings (size 3 to 8) (size 9 to 14) (size 15 to 20)
#    0.750    0.000    2.500    5.250    5.250    0.000 
#    0.000    0.000    0.000    0.000    0.000    0.000 
#    0.000    0.000    0.000    0.000    0.000    0.000 
#
# Total GULP energy -89374.315091 kJ/mol
# GULP energy per Si atom -5585.894693 kJ/mol
# Density = 2.336345 g / cm^3
# Si number density = 23.416743 Si / 1000 Ang^3
#
#
#
# Elastic Constant Matrix: (Units=GPa)
#
#
# Indices 1 2 3 4 5 6 
#
# 1 125.9805 24.4425 7.6268 0.0000 0.0000 0.0000
# 2 24.4425 87.7475 11.8279 0.0000 0.0000 0.0000
# 3 7.6268 11.8279 116.3460 0.0000 0.0000 0.0000
# 4 0.0000 0.0000 0.0000 73.5141 0.0000 0.0000
# 5 0.0000 0.0000 0.0000 0.0000 42.0673 0.0000
# 6 0.0000 0.0000 0.0000 0.0000 0.0000 22.2755
#
#
#
# Elastic Compliance Matrix: (Units=1/GPa)
#
#
# Indices 1 2 3 4 5 6 
#
# 1 0.008403 -0.002298 -0.000317 0.000000 0.000000 0.000000
# 2 -0.002298 0.012183 -0.001088 0.000000 0.000000 0.000000
# 3 -0.000317 -0.001088 0.008726 0.000000 0.000000 0.000000
# 4 0.000000 0.000000 0.000000 0.013603 0.000000 0.000000
# 5 0.000000 0.000000 0.000000 0.000000 0.023771 0.000000
# 6 0.000000 0.000000 0.000000 0.000000 0.000000 0.044892
#
#
# Mechanical properties :
#
#
# Convention : Reuss Voigt Hill
#
# Bulk Modulus (GPa) = 45.64907 46.42985 46.03946
# Shear Modulus (GPa) = 39.59231 46.64981 43.12106
#
# Velocity S-wave (km/s) = 4.11636 4.46820 4.29588
# Velocity P-wave (km/s) = 6.49069 6.81839 6.65656
#
# Compressibility (1/GPa) = 0.02190625
#
# Stress axis : x y z
#
# Youngs Moduli (GPa) = 119.00834 82.08116 114.59420
#
# Poissons Ratio (x) = 0.18861 0.03635
# Poissons Ratio (y) = 0.27347 0.12467
# Poissons Ratio (z) = 0.03775 0.08930
#
# Static dielectric constant tensor:
#      x y z
#    x 1.792990 0.000000 0.000000 
#    y 0.000000 1.895510 0.000000 
#    z 0.000000 0.000000 1.943260 
# 
# From -- ./inp_files/24617.got.cif
#   From: 2010.05.17/outbox.cif.g08.bks.cpg/sg20_13_cif.got.tgz:24617.got - 2010.06.03 22:52:26.
