data_PCOD9320718
_publ_section_title
;
Structure prediction by ZEFSAII (Michael W. Deem and Ramdas Pophale) SiO2 
 PCOD9320718
Probable space group: C 2 2 21
;
_chemical_formula_sum "Si O2"
_cell_formula_units_Z 40
_cell_length_a 30.091418
_cell_length_b 11.128921
_cell_length_c 5.160262
_cell_angle_alpha 90.000000
_cell_angle_beta 90.000000
_cell_angle_gamma 90.000000
_cell_volume 1728.094411
_symmetry_space_group_name_H-M "C 2 2 21"
_symmetry_group_IT_number 20
_symmetry_cell_setting 'orthorhombic'
loop_
_space_group_symop_operation_xyz
x,y,z
-x,-y,1/2+z
x,-y,-z
-x,y,1/2-z
1/2+x,1/2+y,z
1/2-x,1/2-y,1/2+z
1/2+x,1/2-y,-z
1/2-x,1/2+y,1/2-z
loop_
_atom_site_type_symbol
_atom_site_label
_atom_site_fract_x
_atom_site_fract_y
_atom_site_fract_z
Si Si1 0.647286 0.803293 0.698580
Si Si2 0.795238 0.500000 0.500000
Si Si3 0.763604 0.807692 0.215799
Si Si4 0.080420 0.500000 0.500000
Si Si5 0.090296 0.079111 0.746204
Si Si6 0.500000 0.119489 0.750000
Si Si7 0.000000 0.787538 0.250000
O O1 0.688222 0.722053 0.591125
O O2 0.617815 0.698631 0.817863
O O3 0.672868 0.902791 0.868423
O O4 0.612933 0.885683 0.537385
O O5 0.761144 0.565836 0.693145
O O6 0.765287 0.774371 0.517735
O O7 0.044575 0.540142 0.716060
O O8 0.041573 0.128789 0.686750
O O9 0.106380 0.000000 0.500000
O O10 0.089356 0.000000 0.000000
O O11 0.493737 0.203100 0.499475
#
# Coordination Sequence:
#
# PCOD9320718 Si02
#       7
#     8   4   8   4   8   4   4
#     4  11  26  45  78 115 148 199 253 312 376 454
#     4  10  24  47  78 110 152 194 244 323 384 444
#     4  10  23  46  69 105 145 192 240 298 378 444
#     4  12  26  45  76 116 156 198 250 317 380 442
#     4  12  28  49  74 107 150 200 254 308 365 451
#     4  12  27  45  74 112 158 193 247 314 382 442
#     4  12  25  53  72 106 148 203 257 302 378 440
#
# _framework density 23.146882999999999
#
# number of rings (size 3 to 8) (size 9 to 14) (size 15 to 20)
#    0.000    0.800    2.000    3.600    4.200    5.600 
#    7.200    0.000    0.000    0.000    0.000    0.000 
#    0.000    0.000    0.000    0.000    0.000    0.000 
#
# Total GULP energy -111553.766774 kJ/mol
# GULP energy per Si atom -5577.688339 kJ/mol
# Density = 2.309420 g / cm^3
# Si number density = 23.146883 Si / 1000 Ang^3
#
#
#
# Elastic Constant Matrix: (Units=GPa)
#
#
# Indices 1 2 3 4 5 6 
#
# 1 150.4928 62.8295 9.2311 0.0000 0.0000 0.0000
# 2 62.8295 138.4553 46.4164 0.0000 0.0000 0.0000
# 3 9.2311 46.4164 106.9962 0.0000 0.0000 0.0000
# 4 0.0000 0.0000 0.0000 39.1818 0.0000 0.0000
# 5 0.0000 0.0000 0.0000 0.0000 35.8827 0.0000
# 6 0.0000 0.0000 0.0000 0.0000 0.0000 163.1130
#
#
#
# Elastic Compliance Matrix: (Units=1/GPa)
#
#
# Indices 1 2 3 4 5 6 
#
# 1 0.008302 -0.004128 0.001074 0.000000 0.000000 0.000000
# 2 -0.004128 0.010504 -0.004201 0.000000 0.000000 0.000000
# 3 0.001074 -0.004201 0.011076 0.000000 0.000000 0.000000
# 4 0.000000 0.000000 0.000000 0.025522 0.000000 0.000000
# 5 0.000000 0.000000 0.000000 0.000000 0.027869 0.000000
# 6 0.000000 0.000000 0.000000 0.000000 0.000000 0.006131
#
#
# Mechanical properties :
#
#
# Convention : Reuss Voigt Hill
#
# Bulk Modulus (GPa) = 65.04486 70.32203 67.68344
# Shear Modulus (GPa) = 45.85665 66.13333 55.99499
#
# Velocity S-wave (km/s) = 4.45580 5.35100 4.92379
# Velocity P-wave (km/s) = 7.39149 8.28398 7.85043
#
# Compressibility (1/GPa) = 0.01537401
#
# Stress axis : x y z
#
# Youngs Moduli (GPa) = 120.45032 95.20331 90.28766
#
# Poissons Ratio (x) = 0.39296 -0.09700
# Poissons Ratio (y) = 0.49717 0.37926
# Poissons Ratio (z) = -0.12940 0.39991
#
# Static dielectric constant tensor:
#      x y z
#    x 1.962820 0.000000 0.000000 
#    y 0.000000 1.893120 0.000000 
#    z 0.000000 0.000000 1.787870 
# 
# From -- ./inp_files/4141.got.cif
#   From: 2010.05.17/outbox.cif.g08.bks.cpg/sg20_3_cif.got.tgz:4141.got - 2010.06.03 22:52:26.
