data_PCOD9320360
_publ_section_title
;
Structure prediction by ZEFSAII (Michael W. Deem and Ramdas Pophale) SiO2 
 PCOD9320360
Probable space group: C 2 2 21
;
_chemical_formula_sum "Si O2"
_cell_formula_units_Z 64
_cell_length_a 19.522976
_cell_length_b 9.362925
_cell_length_c 14.113515
_cell_angle_alpha 90.000000
_cell_angle_beta 90.000000
_cell_angle_gamma 90.000000
_cell_volume 2579.839893
_symmetry_space_group_name_H-M "C 2 2 21"
_symmetry_group_IT_number 20
_symmetry_cell_setting 'orthorhombic'
loop_
_space_group_symop_operation_xyz
x,y,z
-x,-y,1/2+z
x,-y,-z
-x,y,1/2-z
1/2+x,1/2+y,z
1/2-x,1/2-y,1/2+z
1/2+x,1/2-y,-z
1/2-x,1/2+y,1/2-z
loop_
_atom_site_type_symbol
_atom_site_label
_atom_site_fract_x
_atom_site_fract_y
_atom_site_fract_z
Si Si1 0.751198 0.345865 0.039525
Si Si2 0.787256 0.368694 0.263563
Si Si3 0.511481 0.865057 0.450277
Si Si4 0.875714 0.841183 0.966592
Si Si5 0.573545 0.329847 0.212156
Si Si6 0.907393 0.831125 0.498096
Si Si7 0.578826 0.030960 0.286181
Si Si8 0.171558 0.073578 0.268156
O O1 0.760230 0.356518 0.153776
O O2 0.804217 0.228120 0.004502
O O3 0.674113 0.314073 0.007342
O O4 0.770806 0.500000 0.000000
O O5 0.860897 0.445398 0.265732
O O6 0.795730 0.203013 0.291568
O O7 0.732083 0.474273 0.310415
O O8 0.562706 0.756485 0.502055
O O9 0.449304 0.758426 0.423528
O O10 0.477161 0.000000 0.500000
O O11 0.566152 0.946904 0.383350
O O12 0.872318 0.854356 0.851967
O O13 0.885327 0.000000 0.000000
O O14 0.500000 0.374890 0.250000
O O15 0.568127 0.274664 0.104911
O O16 0.598648 0.197604 0.276921
O O17 0.623226 0.465085 0.212784
O O18 0.923207 0.000000 0.500000
O O19 0.500000 0.026589 0.250000
#
# Coordination Sequence:
#
# PCOD9320360 Si02
#       8
#     8   8   8   8   8   8   8   8
#     4  10  22  46  68  98 136 187 239 293 364 428
#     4  11  23  43  71 100 142 179 239 299 355 432
#     4  12  25  46  73 101 143 189 235 298 363 431
#     4  11  26  43  68 105 140 182 242 295 362 434
#     4  11  25  44  72 102 143 187 237 296 365 433
#     4  11  26  47  72 103 145 190 240 297 361 437
#     4  11  25  45  70 105 137 184 237 293 359 433
#     4  11  24  44  69 103 137 187 237 298 362 426
#
# _framework density 24.807741
#
# number of rings (size 3 to 8) (size 9 to 14) (size 15 to 20)
#    0.000    1.000    3.750    3.000    7.000    3.000 
#    2.250    0.000    0.000    0.000    0.000    0.000 
#    0.000    0.000    0.000    0.000    0.000    0.000 
#
# Total GULP energy -178873.766635 kJ/mol
# GULP energy per Si atom -5589.805207 kJ/mol
# Density = 2.475128 g / cm^3
# Si number density = 24.807741 Si / 1000 Ang^3
#
#
#
# Elastic Constant Matrix: (Units=GPa)
#
#
# Indices 1 2 3 4 5 6 
#
# 1 93.1998 72.7035 3.2947 0.0000 0.0000 0.0000
# 2 72.7035 190.0830 10.4034 0.0000 0.0000 0.0000
# 3 3.2947 10.4034 55.2208 0.0000 0.0000 0.0000
# 4 0.0000 0.0000 0.0000 27.8902 0.0000 0.0000
# 5 0.0000 0.0000 0.0000 0.0000 24.5592 0.0000
# 6 0.0000 0.0000 0.0000 0.0000 0.0000 41.3587
#
#
#
# Elastic Compliance Matrix: (Units=1/GPa)
#
#
# Indices 1 2 3 4 5 6 
#
# 1 0.015294 -0.005860 0.000192 0.000000 0.000000 0.000000
# 2 -0.005860 0.007561 -0.001075 0.000000 0.000000 0.000000
# 3 0.000192 -0.001075 0.018300 0.000000 0.000000 0.000000
# 4 0.000000 0.000000 0.000000 0.035855 0.000000 0.000000
# 5 0.000000 0.000000 0.000000 0.000000 0.040718 0.000000
# 6 0.000000 0.000000 0.000000 0.000000 0.000000 0.024179
#
#
# Mechanical properties :
#
#
# Convention : Reuss Voigt Hill
#
# Bulk Modulus (GPa) = 36.14221 56.81185 46.47703
# Shear Modulus (GPa) = 30.37347 35.56842 32.97095
#
# Velocity S-wave (km/s) = 3.50287 3.79061 3.64958
# Velocity P-wave (km/s) = 5.56424 6.48914 6.04440
#
# Compressibility (1/GPa) = 0.02766848
#
# Stress axis : x y z
#
# Youngs Moduli (GPa) = 65.38338 132.25478 54.64429
#
# Poissons Ratio (x) = 0.77506 -0.01047
# Poissons Ratio (y) = 0.38317 0.05873
# Poissons Ratio (z) = -0.01252 0.14215
#
# Static dielectric constant tensor:
#      x y z
#    x 1.922260 0.000000 0.000000 
#    y 0.000000 1.948940 0.000000 
#    z 0.000000 0.000000 2.138280 
# 
# From -- ./inp_files/25520.got.cif
#   From: 2010.05.17/outbox.cif.g08.bks.cpg/sg20_13_cif.got.tgz:25520.got - 2010.06.03 22:52:26.
