data_PCOD9320670
_publ_section_title
;
Structure prediction by ZEFSAII (Michael W. Deem and Ramdas Pophale) SiO2 
 PCOD9320670
Probable space group: C 2 2 21
;
_chemical_formula_sum "Si O2"
_cell_formula_units_Z 52
_cell_length_a 8.347186
_cell_length_b 11.299007
_cell_length_c 23.548681
_cell_angle_alpha 90.000000
_cell_angle_beta 90.000000
_cell_angle_gamma 90.000000
_cell_volume 2220.991801
_symmetry_space_group_name_H-M "C 2 2 21"
_symmetry_group_IT_number 20
_symmetry_cell_setting 'orthorhombic'
loop_
_space_group_symop_operation_xyz
x,y,z
-x,-y,1/2+z
x,-y,-z
-x,y,1/2-z
1/2+x,1/2+y,z
1/2-x,1/2-y,1/2+z
1/2+x,1/2-y,-z
1/2-x,1/2+y,1/2-z
loop_
_atom_site_type_symbol
_atom_site_label
_atom_site_fract_x
_atom_site_fract_y
_atom_site_fract_z
Si Si1 0.672798 0.080861 0.799358
Si Si2 0.501278 0.615636 0.850953
Si Si3 0.000000 0.225468 0.250000
Si Si4 0.537105 0.131939 0.497603
Si Si5 0.306855 0.625580 0.968635
Si Si6 0.451140 0.863429 0.632502
Si Si7 0.258903 0.435582 0.698139
O O1 0.552239 0.191366 0.802690
O O2 0.664413 0.030146 0.735754
O O3 0.856505 0.119999 0.806360
O O4 0.639460 0.975818 0.842908
O O5 0.411611 0.619167 0.911507
O O6 0.607104 0.734580 0.847700
O O7 0.607220 0.501159 0.838982
O O8 0.153591 0.141255 0.246884
O O9 0.640883 0.251962 0.500504
O O10 0.385267 0.135695 0.539946
O O11 0.458144 0.133792 0.434969
O O12 0.616701 0.000000 0.500000
O O13 0.333944 0.500000 0.000000
O O14 0.631812 0.873117 0.657568
#
# Coordination Sequence:
#
# PCOD9320670 Si02
#       7
#     8   8   4   8   8   8   8
#     4  12  23  41  64  92 132 173 211 260 316 374
#     4  11  25  42  66  94 130 169 215 265 318 386
#     4  12  24  40  62  94 130 172 216 260 310 372
#     4  10  23  45  68  97 129 167 217 275 332 392
#     4  10  23  45  67  96 127 167 215 274 332 386
#     4  11  25  42  66  95 129 169 215 265 322 385
#     4  12  25  41  62  97 130 173 215 260 316 382
#
# _framework density 23.412963000000001
#
# number of rings (size 3 to 8) (size 9 to 14) (size 15 to 20)
#    0.000    0.923    4.615    1.846    2.154    6.769 
#    2.769    0.000    0.000    0.000    0.000    0.000 
#    0.000    0.000    0.000    0.000    0.000    0.000 
#
# Total GULP energy -145116.696203 kJ/mol
# GULP energy per Si atom -5581.411392 kJ/mol
# Density = 2.335967 g / cm^3
# Si number density = 23.412963 Si / 1000 Ang^3
#
#
#
# Elastic Constant Matrix: (Units=GPa)
#
#
# Indices 1 2 3 4 5 6 
#
# 1 51.4788 19.5784 -1.7265 0.0000 0.0000 0.0000
# 2 19.5784 141.7823 0.7717 0.0000 0.0000 0.0000
# 3 -1.7265 0.7717 42.4350 0.0000 0.0000 0.0000
# 4 0.0000 0.0000 0.0000 29.3118 0.0000 0.0000
# 5 0.0000 0.0000 0.0000 0.0000 32.9553 0.0000
# 6 0.0000 0.0000 0.0000 0.0000 0.0000 28.9293
#
#
#
# Elastic Compliance Matrix: (Units=1/GPa)
#
#
# Indices 1 2 3 4 5 6 
#
# 1 0.020536 -0.002841 0.000887 0.000000 0.000000 0.000000
# 2 -0.002841 0.007447 -0.000251 0.000000 0.000000 0.000000
# 3 0.000887 -0.000251 0.023606 0.000000 0.000000 0.000000
# 4 0.000000 0.000000 0.000000 0.034116 0.000000 0.000000
# 5 0.000000 0.000000 0.000000 0.000000 0.030344 0.000000
# 6 0.000000 0.000000 0.000000 0.000000 0.000000 0.034567
#
#
# Mechanical properties :
#
#
# Convention : Reuss Voigt Hill
#
# Bulk Modulus (GPa) = 21.19561 30.32704 25.76132
# Shear Modulus (GPa) = 29.28246 32.71078 30.99662
#
# Velocity S-wave (km/s) = 3.54035 3.74187 3.64250
# Velocity P-wave (km/s) = 5.07787 5.62583 5.35886
#
# Compressibility (1/GPa) = 0.04717958
#
# Stress axis : x y z
#
# Youngs Moduli (GPa) = 48.69608 134.28815 42.36195
#
# Poissons Ratio (x) = 0.38145 -0.03758
# Poissons Ratio (y) = 0.13832 0.01063
# Poissons Ratio (z) = -0.04320 0.03371
#
# Static dielectric constant tensor:
#      x y z
#    x 1.865340 0.000000 0.000000 
#    y 0.000000 1.937400 0.000000 
#    z 0.000000 0.000000 1.881650 
# 
# From -- ./inp_files/30111.got.cif
#   From: 2010.05.17/outbox.cif.g08.bks.cpg/sg20_16_cif.got.tgz:30111.got - 2010.06.03 22:52:26.
