data_PCOD9320082
_publ_section_title
;
Structure prediction by ZEFSAII (Michael W. Deem and Ramdas Pophale) SiO2 
 PCOD9320082
Probable space group: C 2 2 21
;
_chemical_formula_sum "Si O2"
_cell_formula_units_Z 60
_cell_length_a 12.395102
_cell_length_b 13.913888
_cell_length_c 14.882986
_cell_angle_alpha 90.000000
_cell_angle_beta 90.000000
_cell_angle_gamma 90.000000
_cell_volume 2566.780205
_symmetry_space_group_name_H-M "C 2 2 21"
_symmetry_group_IT_number 20
_symmetry_cell_setting 'orthorhombic'
loop_
_space_group_symop_operation_xyz
x,y,z
-x,-y,1/2+z
x,-y,-z
-x,y,1/2-z
1/2+x,1/2+y,z
1/2-x,1/2-y,1/2+z
1/2+x,1/2-y,-z
1/2-x,1/2+y,1/2-z
loop_
_atom_site_type_symbol
_atom_site_label
_atom_site_fract_x
_atom_site_fract_y
_atom_site_fract_z
Si Si1 0.201561 0.299539 0.029555
Si Si2 0.233622 0.829758 0.815129
Si Si3 0.305748 0.268171 0.339454
Si Si4 0.000000 0.564965 0.750000
Si Si5 0.991112 0.601762 0.957493
Si Si6 0.748451 0.472713 0.249296
Si Si7 0.463411 0.757887 0.884230
Si Si8 0.392556 0.434329 0.081661
O O1 0.168867 0.235464 0.115513
O O2 0.117970 0.386379 0.023261
O O3 0.312018 0.354370 0.042181
O O4 0.211150 0.229417 0.945586
O O5 0.220300 0.799107 0.712076
O O6 0.356592 0.796395 0.836126
O O7 0.220827 0.942645 0.820066
O O8 0.286529 0.369814 0.291057
O O9 0.423000 0.215045 0.338859
O O10 0.975555 0.608692 0.850075
O O11 0.121571 0.520929 0.767265
O O12 0.952462 0.500000 0.000000
O O13 0.953855 0.691707 0.018216
O O14 0.676173 0.483682 0.339312
O O15 0.478216 0.641753 0.880318
O O16 0.429599 0.500000 0.000000
#
# Coordination Sequence:
#
# PCOD9320082 Si02
#       8
#     8   8   8   4   8   8   8   8
#     4  10  22  42  67  97 138 178 227 278 344 411
#     4  11  23  42  68 105 134 178 231 286 339 412
#     4  11  23  44  72  97 143 184 226 287 347 419
#     4  12  26  40  66 104 142 168 230 290 342 420
#     4  11  23  43  68 103 138 179 226 292 352 403
#     4  12  26  41  71 101 139 183 226 289 355 412
#     4  10  24  44  72 100 138 184 237 285 344 420
#     4  11  22  45  68  98 135 185 237 277 340 428
#
# _framework density 23.375589000000002
#
# number of rings (size 3 to 8) (size 9 to 14) (size 15 to 20)
#    0.000    1.067    4.000    2.400    9.333    0.533 
#    7.200    0.000    0.000    0.000    0.000    0.000 
#    0.000    0.000    0.000    0.000    0.000    0.000 
#
# Total GULP energy -167040.469193 kJ/mol
# GULP energy per Si atom -5568.015640 kJ/mol
# Density = 2.332239 g / cm^3
# Si number density = 23.375589 Si / 1000 Ang^3
#
#
#
# Elastic Constant Matrix: (Units=GPa)
#
#
# Indices 1 2 3 4 5 6 
#
# 1 25.0015 -5.8773 4.3020 0.0000 0.0000 0.0000
# 2 -5.8773 110.9721 34.6711 0.0000 0.0000 0.0000
# 3 4.3020 34.6711 131.7002 0.0000 0.0000 0.0000
# 4 0.0000 0.0000 0.0000 28.8659 0.0000 0.0000
# 5 0.0000 0.0000 0.0000 0.0000 22.7997 0.0000
# 6 0.0000 0.0000 0.0000 0.0000 0.0000 -0.3493
#
#
#
# Elastic Compliance Matrix: (Units=1/GPa)
#
#
# Indices 1 2 3 4 5 6 
#
# 1 0.041020 0.002823 -0.002083 0.000000 0.000000 0.000000
# 2 0.002823 0.010013 -0.002728 0.000000 0.000000 0.000000
# 3 -0.002083 -0.002728 0.008379 0.000000 0.000000 0.000000
# 4 0.000000 0.000000 0.000000 0.034643 0.000000 0.000000
# 5 0.000000 0.000000 0.000000 0.000000 0.043860 0.000000
# 6 0.000000 0.000000 0.000000 0.000000 0.000000 -2.862464
#
#
# Mechanical properties :
#
#
# Convention : Reuss Voigt Hill
#
# Bulk Modulus (GPa) = 18.03883 37.09616 27.56749
# Shear Modulus (GPa) = -1.85042 25.90178 12.02568
#
# Velocity S-wave (km/s) = -0.89069 3.33238 2.27062
# Velocity P-wave (km/s) = 2.58378 5.54170 4.32356
#
# Compressibility (1/GPa) = 0.05543598
#
# Stress axis : x y z
#
# Youngs Moduli (GPa) = 24.37852 99.86817 119.34182
#
# Poissons Ratio (x) = -0.28196 0.24861
# Poissons Ratio (y) = -0.06883 0.32560
# Poissons Ratio (z) = 0.05078 0.27247
#
# Static dielectric constant tensor:
#      x y z
#    x 2.032540 0.000000 0.000000 
#    y 0.000000 1.924120 0.000000 
#    z 0.000000 0.000000 2.150250 
# 
# From -- ./inp_files/20917.got.cif
#   From: 2010.05.17/outbox.cif.g08.bks.cpg/sg20_11_cif.got.tgz:20917.got - 2010.06.03 22:52:26.
