data_PCOD9320138
_publ_section_title
;
Structure prediction by ZEFSAII (Michael W. Deem and Ramdas Pophale) SiO2 
 PCOD9320138
Probable space group: C 2 2 21
;
_chemical_formula_sum "Si O2"
_cell_formula_units_Z 52
_cell_length_a 13.599159
_cell_length_b 6.607184
_cell_length_c 30.493018
_cell_angle_alpha 90.000000
_cell_angle_beta 90.000000
_cell_angle_gamma 90.000000
_cell_volume 2739.863098
_symmetry_space_group_name_H-M "C 2 2 21"
_symmetry_group_IT_number 20
_symmetry_cell_setting 'orthorhombic'
loop_
_space_group_symop_operation_xyz
x,y,z
-x,-y,1/2+z
x,-y,-z
-x,y,1/2-z
1/2+x,1/2+y,z
1/2-x,1/2-y,1/2+z
1/2+x,1/2-y,-z
1/2-x,1/2+y,1/2-z
loop_
_atom_site_type_symbol
_atom_site_label
_atom_site_fract_x
_atom_site_fract_y
_atom_site_fract_z
Si Si1 0.058863 0.500000 0.500000
Si Si2 0.894079 0.336689 0.770759
Si Si3 0.751884 0.501618 0.695531
Si Si4 0.699586 0.724215 0.116235
Si Si5 0.346264 0.115751 0.850325
Si Si6 0.010135 0.791736 0.575778
Si Si7 0.838464 0.120429 0.957820
O O1 0.125498 0.660179 0.473626
O O2 0.000502 0.635256 0.535197
O O3 0.823799 0.439928 0.734681
O O4 0.899730 0.484649 0.812662
O O5 0.000000 0.297378 0.750000
O O6 0.838666 0.134096 0.786181
O O7 0.807674 0.640400 0.659950
O O8 0.708029 0.304541 0.672089
O O9 0.764916 0.530132 0.128253
O O10 0.595084 0.664175 0.096560
O O11 0.760247 0.853261 0.080534
O O12 0.421243 0.190933 0.887211
O O13 0.068340 0.989313 0.558822
O O14 0.798241 0.000000 0.000000
#
# Coordination Sequence:
#
# PCOD9320138 Si02
#       7
#     4   8   8   8   8   8   8
#     4  10  22  44  64  88 132 158 208 268 306 378
#     4  11  24  42  66  94 127 170 212 263 316 371
#     4  11  23  43  64  96 128 166 217 260 312 385
#     4  11  24  41  67  93 125 167 207 259 321 370
#     4  11  23  43  64  93 133 162 211 265 310 380
#     4  11  23  42  65  94 122 166 210 257 319 380
#     4  10  22  43  62  91 126 158 209 261 306 377
#
# _framework density 18.979049
#
# number of rings (size 3 to 8) (size 9 to 14) (size 15 to 20)
#    0.000    1.231    4.615    0.923    1.077    3.077 
#    4.154    0.000    0.000    0.000    0.000    0.000 
#    0.000    0.000    0.000    0.000    0.000    0.000 
#
# Total GULP energy -145327.711198 kJ/mol
# GULP energy per Si atom -5589.527354 kJ/mol
# Density = 1.893585 g / cm^3
# Si number density = 18.979049 Si / 1000 Ang^3
#
#
#
# Elastic Constant Matrix: (Units=GPa)
#
#
# Indices 1 2 3 4 5 6 
#
# 1 63.8947 34.1004 41.9906 0.0000 0.0000 0.0000
# 2 34.1004 96.9266 45.3900 0.0000 0.0000 0.0000
# 3 41.9906 45.3900 112.7359 0.0000 0.0000 0.0000
# 4 0.0000 0.0000 0.0000 35.8497 0.0000 0.0000
# 5 0.0000 0.0000 0.0000 0.0000 17.2673 0.0000
# 6 0.0000 0.0000 0.0000 0.0000 0.0000 11.1594
#
#
#
# Elastic Compliance Matrix: (Units=1/GPa)
#
#
# Indices 1 2 3 4 5 6 
#
# 1 0.022474 -0.004913 -0.006393 0.000000 0.000000 0.000000
# 2 -0.004913 0.013788 -0.003722 0.000000 0.000000 0.000000
# 3 -0.006393 -0.003722 0.012750 0.000000 0.000000 0.000000
# 4 0.000000 0.000000 0.000000 0.027894 0.000000 0.000000
# 5 0.000000 0.000000 0.000000 0.000000 0.057913 0.000000
# 6 0.000000 0.000000 0.000000 0.000000 0.000000 0.089610
#
#
# Mechanical properties :
#
#
# Convention : Reuss Voigt Hill
#
# Bulk Modulus (GPa) = 52.74973 57.39102 55.07038
# Shear Modulus (GPa) = 19.17152 22.99370 21.08261
#
# Velocity S-wave (km/s) = 3.18172 3.48448 3.33654
# Velocity P-wave (km/s) = 6.43054 6.81862 6.62742
#
# Compressibility (1/GPa) = 0.01895744
#
# Stress axis : x y z
#
# Youngs Moduli (GPa) = 44.49566 72.52506 78.43275
#
# Poissons Ratio (x) = 0.35632 0.50140
# Poissons Ratio (y) = 0.21861 0.29189
# Poissons Ratio (z) = 0.28445 0.26990
#
# Static dielectric constant tensor:
#      x y z
#    x 1.604660 0.000000 0.000000 
#    y 0.000000 1.641460 0.000000 
#    z 0.000000 0.000000 1.667620 
# 
# From -- ./inp_files/31293.got.cif
#   From: 2010.05.17/outbox.cif.g08.bks.cpg/sg20_16_cif.got.tgz:31293.got - 2010.06.03 22:52:26.
