data_PCOD9320397
_publ_section_title
;
Structure prediction by ZEFSAII (Michael W. Deem and Ramdas Pophale) SiO2 
 PCOD9320397
Probable space group: C 2 2 21
;
_chemical_formula_sum "Si O2"
_cell_formula_units_Z 40
_cell_length_a 9.736875
_cell_length_b 10.989312
_cell_length_c 14.198191
_cell_angle_alpha 90.000000
_cell_angle_beta 90.000000
_cell_angle_gamma 90.000000
_cell_volume 1519.228548
_symmetry_space_group_name_H-M "C 2 2 21"
_symmetry_group_IT_number 20
_symmetry_cell_setting 'orthorhombic'
loop_
_space_group_symop_operation_xyz
x,y,z
-x,-y,1/2+z
x,-y,-z
-x,y,1/2-z
1/2+x,1/2+y,z
1/2-x,1/2-y,1/2+z
1/2+x,1/2-y,-z
1/2-x,1/2+y,1/2-z
loop_
_atom_site_type_symbol
_atom_site_label
_atom_site_fract_x
_atom_site_fract_y
_atom_site_fract_z
Si Si1 0.754584 0.430032 0.377606
Si Si2 0.236908 0.813977 0.970407
Si Si3 0.012762 0.408613 0.646464
Si Si4 0.514861 0.592340 0.356202
Si Si5 0.316052 0.156306 0.828397
O O1 0.791675 0.326435 0.450733
O O2 0.610316 0.490159 0.399655
O O3 0.756620 0.359695 0.276258
O O4 0.862246 0.540946 0.376411
O O5 0.391770 0.841386 0.930617
O O6 0.127688 0.886251 0.907844
O O7 0.219732 0.842268 0.080180
O O8 0.092316 0.536147 0.661409
O O9 0.000000 0.346501 0.750000
O O10 0.500000 0.548309 0.250000
O O11 0.592966 0.722348 0.343194
#
# Coordination Sequence:
#
# PCOD9320397 Si02
#       5
#     8   8   8   8   8
#     4  11  26  51  78 108 150 210 246 309 391 452
#     4  12  26  50  77 115 154 197 257 320 373 454
#     4  10  22  48  77 101 148 197 241 306 383 443
#     4  12  24  51  79 106 158 201 252 323 377 446
#     4  11  24  48  78 107 156 201 247 311 383 449
#
# _framework density 26.329153999999999
#
# number of rings (size 3 to 8) (size 9 to 14) (size 15 to 20)
#    0.000    0.800    4.000    3.600    0.000    3.200 
#   21.600    0.000    0.000    0.000    0.000    0.000 
#    0.000    0.000    0.000    0.000    0.000    0.000 
#
# Total GULP energy -112142.718617 kJ/mol
# GULP energy per Si atom -5607.135931 kJ/mol
# Density = 2.626923 g / cm^3
# Si number density = 26.329154 Si / 1000 Ang^3
#
#
#
# Elastic Constant Matrix: (Units=GPa)
#
#
# Indices 1 2 3 4 5 6 
#
# 1 122.2755 20.6623 56.3269 0.0000 0.0000 0.0000
# 2 20.6623 42.5909 40.6004 0.0000 0.0000 0.0000
# 3 56.3269 40.6004 224.6320 0.0000 0.0000 0.0000
# 4 0.0000 0.0000 0.0000 29.5371 0.0000 0.0000
# 5 0.0000 0.0000 0.0000 0.0000 30.8244 0.0000
# 6 0.0000 0.0000 0.0000 0.0000 0.0000 6.0833
#
#
#
# Elastic Compliance Matrix: (Units=1/GPa)
#
#
# Indices 1 2 3 4 5 6 
#
# 1 0.009521 -0.002831 -0.001876 0.000000 0.000000 0.000000
# 2 -0.002831 0.029208 -0.004569 0.000000 0.000000 0.000000
# 3 -0.001876 -0.004569 0.005748 0.000000 0.000000 0.000000
# 4 0.000000 0.000000 0.000000 0.033856 0.000000 0.000000
# 5 0.000000 0.000000 0.000000 0.000000 0.032442 0.000000
# 6 0.000000 0.000000 0.000000 0.000000 0.000000 0.164384
#
#
# Mechanical properties :
#
#
# Convention : Reuss Voigt Hill
#
# Bulk Modulus (GPa) = 38.57236 69.40862 53.99049
# Shear Modulus (GPa) = 16.53701 31.41620 23.97660
#
# Velocity S-wave (km/s) = 2.50889 3.45803 3.02097
# Velocity P-wave (km/s) = 4.80360 6.50870 5.72004
#
# Compressibility (1/GPa) = 0.02592530
#
# Stress axis : x y z
#
# Youngs Moduli (GPa) = 105.03491 34.23681 173.97573
#
# Poissons Ratio (x) = 0.09692 0.32632
# Poissons Ratio (y) = 0.29733 0.79495
# Poissons Ratio (z) = 0.19701 0.15644
#
# Static dielectric constant tensor:
#      x y z
#    x 2.131380 0.000000 0.000000 
#    y 0.000000 1.981360 0.000000 
#    z 0.000000 0.000000 2.146490 
# 
# From -- ./inp_files/19665.got.cif
#   From: 2010.05.17/outbox.cif.g08.bks.cpg/sg20_10_cif.got.tgz:19665.got - 2010.06.03 22:52:26.
