data_PCOD9320462
_publ_section_title
;
Structure prediction by ZEFSAII (Michael W. Deem and Ramdas Pophale) SiO2 
 PCOD9320462
Probable space group: C 2 2 21
;
_chemical_formula_sum "Si O2"
_cell_formula_units_Z 60
_cell_length_a 24.286503
_cell_length_b 8.581626
_cell_length_c 12.070142
_cell_angle_alpha 90.000000
_cell_angle_beta 90.000000
_cell_angle_gamma 90.000000
_cell_volume 2515.631060
_symmetry_space_group_name_H-M "C 2 2 21"
_symmetry_group_IT_number 20
_symmetry_cell_setting 'orthorhombic'
loop_
_space_group_symop_operation_xyz
x,y,z
-x,-y,1/2+z
x,-y,-z
-x,y,1/2-z
1/2+x,1/2+y,z
1/2-x,1/2-y,1/2+z
1/2+x,1/2-y,-z
1/2-x,1/2+y,1/2-z
loop_
_atom_site_type_symbol
_atom_site_label
_atom_site_fract_x
_atom_site_fract_y
_atom_site_fract_z
Si Si1 0.732990 0.473910 0.213339
Si Si2 0.964801 0.908178 0.354692
Si Si3 0.021682 0.251754 0.079741
Si Si4 0.807715 0.222420 0.130583
Si Si5 0.413728 0.061218 0.873445
Si Si6 0.219506 0.774547 0.384455
Si Si7 0.611288 0.000000 0.000000
Si Si8 0.626999 0.811701 0.793049
O O1 0.750215 0.318104 0.145075
O O2 0.689085 0.584135 0.279677
O O3 0.754594 0.603918 0.126692
O O4 0.758858 0.405116 0.330256
O O5 0.992673 0.823374 0.459577
O O6 0.905132 0.834271 0.342911
O O7 0.000000 0.863981 0.250000
O O8 0.960715 0.094197 0.359323
O O9 0.070295 0.374778 0.058890
O O10 0.969195 0.337485 0.131596
O O11 0.859231 0.336654 0.147487
O O12 0.805649 0.180631 0.001095
O O13 0.410756 0.921907 0.784809
O O14 0.410500 0.000000 0.000000
O O15 0.171925 0.757536 0.290422
O O16 0.642518 0.088676 0.098407
#
# Coordination Sequence:
#
# PCOD9320462 Si02
#       8
#     8   8   8   8   8   8   4   8
#     4  10  23  42  67  99 139 177 222 288 379 425
#     4  10  23  41  62  98 139 184 226 295 357 417
#     4  10  23  42  66  96 139 187 240 285 360 415
#     4  11  22  43  71 102 141 176 230 294 358 434
#     4  12  21  39  72 107 132 180 242 300 344 424
#     4  11  22  45  69 103 133 180 229 296 350 435
#     4  10  24  44  64  98 140 196 242 278 360 436
#     4  11  24  42  68  94 142 182 243 292 351 422
#
# _framework density 23.850874000000001
#
# number of rings (size 3 to 8) (size 9 to 14) (size 15 to 20)
#    0.000    1.333    3.333    1.600    3.733    1.067 
#    7.200    1.333   14.667    0.000    0.000    0.000 
#    0.000    0.000    0.000    0.000    0.000    0.000 
#
# Total GULP energy -167077.205682 kJ/mol
# GULP energy per Si atom -5569.240189 kJ/mol
# Density = 2.379659 g / cm^3
# Si number density = 23.850874 Si / 1000 Ang^3
#
#
#
# Elastic Constant Matrix: (Units=GPa)
#
#
# Indices 1 2 3 4 5 6 
#
# 1 64.6647 49.7569 48.5235 0.0000 0.0000 0.0000
# 2 49.7569 136.7935 40.0917 0.0000 0.0000 0.0000
# 3 48.5235 40.0917 99.0996 0.0000 0.0000 0.0000
# 4 0.0000 0.0000 0.0000 30.9086 0.0000 0.0000
# 5 0.0000 0.0000 0.0000 0.0000 32.4894 0.0000
# 6 0.0000 0.0000 0.0000 0.0000 0.0000 48.2325
#
#
#
# Elastic Compliance Matrix: (Units=1/GPa)
#
#
# Indices 1 2 3 4 5 6 
#
# 1 0.029960 -0.007486 -0.011641 0.000000 0.000000 0.000000
# 2 -0.007486 0.010164 -0.000447 0.000000 0.000000 0.000000
# 3 -0.011641 -0.000447 0.015972 0.000000 0.000000 0.000000
# 4 0.000000 0.000000 0.000000 0.032353 0.000000 0.000000
# 5 0.000000 0.000000 0.000000 0.000000 0.030779 0.000000
# 6 0.000000 0.000000 0.000000 0.000000 0.000000 0.020733
#
#
# Mechanical properties :
#
#
# Convention : Reuss Voigt Hill
#
# Bulk Modulus (GPa) = 59.00284 64.14465 61.57375
# Shear Modulus (GPa) = 27.06253 33.13847 30.10050
#
# Velocity S-wave (km/s) = 3.37212 3.73151 3.55636
# Velocity P-wave (km/s) = 6.32088 6.74670 6.53726
#
# Compressibility (1/GPa) = 0.01694834
#
# Stress axis : x y z
#
# Youngs Moduli (GPa) = 33.37820 98.38647 62.61117
#
# Poissons Ratio (x) = 0.73648 0.72887
# Poissons Ratio (y) = 0.24986 0.02797
# Poissons Ratio (z) = 0.38856 0.04395
#
# Static dielectric constant tensor:
#      x y z
#    x 2.029430 0.000000 0.000000 
#    y 0.000000 2.074510 0.000000 
#    z 0.000000 0.000000 1.860480 
# 
# From -- ./inp_files/17074.got.cif
#   From: 2010.05.17/outbox.cif.g08.bks.cpg/sg20_9_cif.got.tgz:17074.got - 2010.06.03 22:52:26.
