data_PCOD9320193
_publ_section_title
;
Structure prediction by ZEFSAII (Michael W. Deem and Ramdas Pophale) SiO2 
 PCOD9320193
Probable space group: C 2 2 21
;
_chemical_formula_sum "Si O2"
_cell_formula_units_Z 24
_cell_length_a 8.185139
_cell_length_b 6.952656
_cell_length_c 16.276390
_cell_angle_alpha 90.000000
_cell_angle_beta 90.000000
_cell_angle_gamma 90.000000
_cell_volume 926.264221
_symmetry_space_group_name_H-M "C 2 2 21"
_symmetry_group_IT_number 20
_symmetry_cell_setting 'orthorhombic'
loop_
_space_group_symop_operation_xyz
x,y,z
-x,-y,1/2+z
x,-y,-z
-x,y,1/2-z
1/2+x,1/2+y,z
1/2-x,1/2-y,1/2+z
1/2+x,1/2-y,-z
1/2-x,1/2+y,1/2-z
loop_
_atom_site_type_symbol
_atom_site_label
_atom_site_fract_x
_atom_site_fract_y
_atom_site_fract_z
Si Si1 0.926241 0.049884 0.873695
Si Si2 0.906520 0.306099 0.029958
Si Si3 0.882369 0.717920 0.676335
O O1 0.803947 0.161321 0.814585
O O2 0.833646 0.858083 0.910333
O O3 0.959731 0.189635 0.949494
O O4 0.083622 0.945794 0.835821
O O5 0.057286 0.366513 0.088553
O O6 0.819263 0.500000 0.000000
O O7 0.000000 0.654243 0.750000
#
# Coordination Sequence:
#
# PCOD9320193 Si02
#       3
#     8   8   8
#     4   9  22  42  67 104 138 194 240 296 354 445
#     4   9  21  40  72 101 139 191 243 290 354 435
#     4  10  22  43  70 103 150 184 245 300 375 416
#
# _framework density 25.910530999999999
#
# number of rings (size 3 to 8) (size 9 to 14) (size 15 to 20)
#    2.000    0.667    0.000    0.000    4.667    5.333 
#    0.000    1.667    0.000    0.000    0.000    0.000 
#    0.000    0.000    0.000    0.000    0.000    0.000 
#
# Total GULP energy -66857.790293 kJ/mol
# GULP energy per Si atom -5571.482524 kJ/mol
# Density = 2.585156 g / cm^3
# Si number density = 25.910531 Si / 1000 Ang^3
#
#
#
# Elastic Constant Matrix: (Units=GPa)
#
#
# Indices 1 2 3 4 5 6 
#
# 1 71.0689 53.7678 28.1848 0.0000 0.0000 0.0000
# 2 53.7678 155.1030 37.9115 0.0000 0.0000 0.0000
# 3 28.1848 37.9115 95.3742 0.0000 0.0000 0.0000
# 4 0.0000 0.0000 0.0000 17.7453 0.0000 0.0000
# 5 0.0000 0.0000 0.0000 0.0000 29.5879 0.0000
# 6 0.0000 0.0000 0.0000 0.0000 0.0000 44.3191
#
#
#
# Elastic Compliance Matrix: (Units=1/GPa)
#
#
# Indices 1 2 3 4 5 6 
#
# 1 0.020080 -0.006103 -0.003508 0.000000 0.000000 0.000000
# 2 -0.006103 0.008996 -0.001772 0.000000 0.000000 0.000000
# 3 -0.003508 -0.001772 0.012226 0.000000 0.000000 0.000000
# 4 0.000000 0.000000 0.000000 0.056353 0.000000 0.000000
# 5 0.000000 0.000000 0.000000 0.000000 0.033798 0.000000
# 6 0.000000 0.000000 0.000000 0.000000 0.000000 0.022564
#
#
# Mechanical properties :
#
#
# Convention : Reuss Voigt Hill
#
# Bulk Modulus (GPa) = 53.95207 62.36379 58.15793
# Shear Modulus (GPa) = 27.32814 31.77593 29.55204
#
# Velocity S-wave (km/s) = 3.25116 3.50576 3.38085
# Velocity P-wave (km/s) = 5.91278 6.36461 6.14285
#
# Compressibility (1/GPa) = 0.01853497
#
# Stress axis : x y z
#
# Youngs Moduli (GPa) = 49.80197 111.15639 81.79174
#
# Poissons Ratio (x) = 0.67843 0.28691
# Poissons Ratio (y) = 0.30396 0.14497
# Poissons Ratio (z) = 0.17469 0.19702
#
# Static dielectric constant tensor:
#      x y z
#    x 2.099020 0.000000 0.000000 
#    y 0.000000 2.003440 0.000000 
#    z 0.000000 0.000000 2.050570 
# 
# From -- ./inp_files/23038.got.cif
#   From: 2010.05.17/outbox.cif.g08.bks.cpg/sg20_12_cif.got.tgz:23038.got - 2010.06.03 22:52:26.
