data_PCOD9320170
_publ_section_title
;
Structure prediction by ZEFSAII (Michael W. Deem and Ramdas Pophale) SiO2 
 PCOD9320170
Probable space group: C 2 2 21
;
_chemical_formula_sum "Si O2"
_cell_formula_units_Z 24
_cell_length_a 16.642993
_cell_length_b 7.443943
_cell_length_c 8.112379
_cell_angle_alpha 90.000000
_cell_angle_beta 90.000000
_cell_angle_gamma 90.000000
_cell_volume 1005.038507
_symmetry_space_group_name_H-M "C 2 2 21"
_symmetry_group_IT_number 20
_symmetry_cell_setting 'orthorhombic'
loop_
_space_group_symop_operation_xyz
x,y,z
-x,-y,1/2+z
x,-y,-z
-x,y,1/2-z
1/2+x,1/2+y,z
1/2-x,1/2-y,1/2+z
1/2+x,1/2-y,-z
1/2-x,1/2+y,1/2-z
loop_
_atom_site_type_symbol
_atom_site_label
_atom_site_fract_x
_atom_site_fract_y
_atom_site_fract_z
Si Si1 0.523808 0.797679 0.438582
Si Si2 0.358329 0.209914 0.438148
Si Si3 0.194390 0.799217 0.434164
O O1 0.500000 0.787204 0.250000
O O2 0.448071 0.712270 0.535711
O O3 0.615041 0.738212 0.459570
O O4 0.528439 0.000000 0.500000
O O5 0.282333 0.288709 0.538880
O O6 0.333153 0.244911 0.249362
O O7 0.367378 0.000000 0.500000
O O8 0.211050 0.000000 0.500000
#
# Coordination Sequence:
#
# PCOD9320170 Si02
#       3
#     8   8   8
#     4  11  22  40  65  94 130 180 225 267 328 408
#     4  10  22  43  67  96 134 181 222 267 333 409
#     4  11  24  43  67 100 133 171 223 284 332 383
#
# _framework density 23.879681000000001
#
# number of rings (size 3 to 8) (size 9 to 14) (size 15 to 20)
#    0.000    1.333    0.000    7.000    0.000    5.333 
#    0.000    8.333    0.000    0.000    0.000    0.000 
#    0.000    0.000    0.000    0.000    0.000    0.000 
#
# Total GULP energy -66851.355640 kJ/mol
# GULP energy per Si atom -5570.946303 kJ/mol
# Density = 2.382533 g / cm^3
# Si number density = 23.879681 Si / 1000 Ang^3
#
#
#
# Elastic Constant Matrix: (Units=GPa)
#
#
# Indices 1 2 3 4 5 6 
#
# 1 171.7587 3.9275 -43.0184 0.0000 0.0000 0.0000
# 2 3.9275 68.1406 -6.4576 0.0000 0.0000 0.0000
# 3 -43.0184 -6.4576 71.4282 0.0000 0.0000 0.0000
# 4 0.0000 0.0000 0.0000 29.3841 0.0000 0.0000
# 5 0.0000 0.0000 0.0000 0.0000 44.3466 0.0000
# 6 0.0000 0.0000 0.0000 0.0000 0.0000 7.0839
#
#
#
# Elastic Compliance Matrix: (Units=1/GPa)
#
#
# Indices 1 2 3 4 5 6 
#
# 1 0.006856 -0.000004 0.004129 0.000000 0.000000 0.000000
# 2 -0.000004 0.014802 0.001336 0.000000 0.000000 0.000000
# 3 0.004129 0.001336 0.016608 0.000000 0.000000 0.000000
# 4 0.000000 0.000000 0.000000 0.034032 0.000000 0.000000
# 5 0.000000 0.000000 0.000000 0.000000 0.022550 0.000000
# 6 0.000000 0.000000 0.000000 0.000000 0.000000 0.141165
#
#
# Mechanical properties :
#
#
# Convention : Reuss Voigt Hill
#
# Bulk Modulus (GPa) = 20.33008 24.47004 22.40006
# Shear Modulus (GPa) = 20.70505 39.95467 30.32986
#
# Velocity S-wave (km/s) = 2.94778 4.09487 3.56773
# Velocity P-wave (km/s) = 4.48530 5.71199 5.13540
#
# Compressibility (1/GPa) = 0.04918819
#
# Stress axis : x y z
#
# Youngs Moduli (GPa) = 145.85035 67.55675 60.21354
#
# Poissons Ratio (x) = 0.00026 -0.24862
# Poissons Ratio (y) = 0.00057 -0.08044
# Poissons Ratio (z) = -0.60221 -0.09025
#
# Static dielectric constant tensor:
#      x y z
#    x 2.132690 0.000000 0.000000 
#    y 0.000000 2.693420 0.000000 
#    z 0.000000 0.000000 1.948050 
# 
# From -- ./inp_files/5527.got.cif
#   From: 2010.05.17/outbox.cif.g08.bks.cpg/sg20_3_cif.got.tgz:5527.got - 2010.06.03 22:52:26.
