data_PCOD9320177
_publ_section_title
;
Structure prediction by ZEFSAII (Michael W. Deem and Ramdas Pophale) SiO2 
 PCOD9320177
Probable space group: C 2 2 21
;
_chemical_formula_sum "Si O2"
_cell_formula_units_Z 40
_cell_length_a 8.092318
_cell_length_b 27.328430
_cell_length_c 8.248343
_cell_angle_alpha 90.000000
_cell_angle_beta 90.000000
_cell_angle_gamma 90.000000
_cell_volume 1824.123908
_symmetry_space_group_name_H-M "C 2 2 21"
_symmetry_group_IT_number 20
_symmetry_cell_setting 'orthorhombic'
loop_
_space_group_symop_operation_xyz
x,y,z
-x,-y,1/2+z
x,-y,-z
-x,y,1/2-z
1/2+x,1/2+y,z
1/2-x,1/2-y,1/2+z
1/2+x,1/2-y,-z
1/2-x,1/2+y,1/2-z
loop_
_atom_site_type_symbol
_atom_site_label
_atom_site_fract_x
_atom_site_fract_y
_atom_site_fract_z
Si Si1 0.493791 0.945197 0.055542
Si Si2 0.869155 0.698729 0.366208
Si Si3 0.314848 0.386778 0.045121
Si Si4 0.865727 0.223047 0.380755
Si Si5 0.312074 0.623096 0.565990
O O1 0.500000 0.944676 0.250000
O O2 0.675555 0.926814 0.002249
O O3 0.344993 0.908458 0.007852
O O4 0.459823 0.000000 0.000000
O O5 0.743373 0.660427 0.444242
O O6 0.929438 0.731880 0.514097
O O7 0.786747 0.735771 0.236400
O O8 0.000000 0.672431 0.250000
O O9 0.507695 0.398883 0.018282
O O10 0.302068 0.375305 0.238006
O O11 0.814669 0.177261 0.490754
O O12 0.000000 0.207847 0.250000
#
# Coordination Sequence:
#
# PCOD9320177 Si02
#       5
#     8   8   8   8   8
#     4  10  23  43  67  98 129 167 215 273 337 397
#     4  12  25  39  62  95 135 176 225 275 327 390
#     4  10  22  43  68  93 130 179 222 273 329 390
#     4  12  24  40  61  95 131 175 226 269 329 391
#     4  10  22  43  68  91 132 175 222 273 330 391
#
# _framework density 21.928334
#
# number of rings (size 3 to 8) (size 9 to 14) (size 15 to 20)
#    0.000    1.200    2.000    3.600    2.800    5.600 
#    0.000    0.000    0.000    0.000    0.000    0.000 
#    0.000    0.000    0.000    0.000    0.000    0.000 
#
# Total GULP energy -111645.785542 kJ/mol
# GULP energy per Si atom -5582.289277 kJ/mol
# Density = 2.187842 g / cm^3
# Si number density = 21.928334 Si / 1000 Ang^3
#
#
#
# Elastic Constant Matrix: (Units=GPa)
#
#
# Indices 1 2 3 4 5 6 
#
# 1 139.0647 44.3050 46.7395 0.0000 0.0000 0.0000
# 2 44.3050 61.6104 29.4006 0.0000 0.0000 0.0000
# 3 46.7395 29.4006 49.7460 0.0000 0.0000 0.0000
# 4 0.0000 0.0000 0.0000 34.0937 0.0000 0.0000
# 5 0.0000 0.0000 0.0000 0.0000 39.9908 0.0000
# 6 0.0000 0.0000 0.0000 0.0000 0.0000 24.4325
#
#
#
# Elastic Compliance Matrix: (Units=1/GPa)
#
#
# Indices 1 2 3 4 5 6 
#
# 1 0.011254 -0.004244 -0.008065 0.000000 0.000000 0.000000
# 2 -0.004244 0.024207 -0.010319 0.000000 0.000000 0.000000
# 3 -0.008065 -0.010319 0.033779 0.000000 0.000000 0.000000
# 4 0.000000 0.000000 0.000000 0.029331 0.000000 0.000000
# 5 0.000000 0.000000 0.000000 0.000000 0.025006 0.000000
# 6 0.000000 0.000000 0.000000 0.000000 0.000000 0.040929
#
#
# Mechanical properties :
#
#
# Convention : Reuss Voigt Hill
#
# Bulk Modulus (GPa) = 41.69691 54.59012 48.14352
# Shear Modulus (GPa) = 22.96131 28.36846 25.66488
#
# Velocity S-wave (km/s) = 3.23941 3.60069 3.42482
# Velocity P-wave (km/s) = 5.74875 6.49888 6.13529
#
# Compressibility (1/GPa) = 0.02398259
#
# Stress axis : x y z
#
# Youngs Moduli (GPa) = 88.85923 41.30976 29.60418
#
# Poissons Ratio (x) = 0.17532 0.23877
# Poissons Ratio (y) = 0.37711 0.30550
# Poissons Ratio (z) = 0.71669 0.42629
#
# Static dielectric constant tensor:
#      x y z
#    x 1.979410 0.000000 0.000000 
#    y 0.000000 1.737800 0.000000 
#    z 0.000000 0.000000 1.782850 
# 
# From -- ./inp_files/6267.got.cif
#   From: 2010.05.17/outbox.cif.g08.bks.cpg/sg20_4_cif.got.tgz:6267.got - 2010.06.03 22:52:26.
