data_PCOD9320244
_publ_section_title
;
Structure prediction by ZEFSAII (Michael W. Deem and Ramdas Pophale) SiO2 
 PCOD9320244
Probable space group: C 2 2 21
;
_chemical_formula_sum "Si O2"
_cell_formula_units_Z 40
_cell_length_a 7.150779
_cell_length_b 22.311203
_cell_length_c 9.655561
_cell_angle_alpha 90.000000
_cell_angle_beta 90.000000
_cell_angle_gamma 90.000000
_cell_volume 1540.472166
_symmetry_space_group_name_H-M "C 2 2 21"
_symmetry_group_IT_number 20
_symmetry_cell_setting 'orthorhombic'
loop_
_space_group_symop_operation_xyz
x,y,z
-x,-y,1/2+z
x,-y,-z
-x,y,1/2-z
1/2+x,1/2+y,z
1/2-x,1/2-y,1/2+z
1/2+x,1/2-y,-z
1/2-x,1/2+y,1/2-z
loop_
_atom_site_type_symbol
_atom_site_label
_atom_site_fract_x
_atom_site_fract_y
_atom_site_fract_z
Si Si1 0.285614 0.029734 0.793158
Si Si2 0.757387 0.500000 0.500000
Si Si3 0.789022 0.903624 0.567216
Si Si4 0.500000 0.683085 0.750000
Si Si5 0.222845 0.208317 0.261295
Si Si6 0.802313 0.879688 0.992335
O O1 0.500000 0.040244 0.750000
O O2 0.171224 0.021128 0.648007
O O3 0.278288 0.964369 0.861089
O O4 0.241257 0.081797 0.903751
O O5 0.843918 0.565500 0.474001
O O6 0.728791 0.840304 0.637909
O O7 0.013552 0.903812 0.585637
O O8 0.666624 0.730292 0.778630
O O9 0.606529 0.644473 0.633139
O O10 0.268640 0.174984 0.404170
O O11 0.000000 0.219260 0.250000
#
# Coordination Sequence:
#
# PCOD9320244 Si02
#       6
#     8   4   8   4   8   8
#     4  11  23  38  66 109 150 197 251 312 394 466
#     4  12  22  42  70 104 150 180 254 324 368 478
#     4  10  22  44  67  96 150 200 248 316 384 467
#     4  12  28  48  78 112 154 200 268 332 398 476
#     4  10  25  48  75 107 150 206 268 321 392 471
#     4  11  25  45  73 108 139 205 260 319 406 460
#
# _framework density 25.966063999999999
#
# number of rings (size 3 to 8) (size 9 to 14) (size 15 to 20)
#    0.000    1.200    2.000    3.600    7.000    3.200 
#    0.000    6.000    0.000    0.000    0.000    0.000 
#    0.000    0.000    0.000    0.000    0.000    0.000 
#
# Total GULP energy -111424.734068 kJ/mol
# GULP energy per Si atom -5571.236703 kJ/mol
# Density = 2.590696 g / cm^3
# Si number density = 25.966064 Si / 1000 Ang^3
#
#
#
# Elastic Constant Matrix: (Units=GPa)
#
#
# Indices 1 2 3 4 5 6 
#
# 1 75.7494 34.7959 11.6364 0.0000 0.0000 0.0000
# 2 34.7959 192.9545 70.0535 0.0000 0.0000 0.0000
# 3 11.6364 70.0535 188.6728 0.0000 0.0000 0.0000
# 4 0.0000 0.0000 0.0000 33.6294 0.0000 0.0000
# 5 0.0000 0.0000 0.0000 0.0000 31.9064 0.0000
# 6 0.0000 0.0000 0.0000 0.0000 0.0000 36.1480
#
#
#
# Elastic Compliance Matrix: (Units=1/GPa)
#
#
# Indices 1 2 3 4 5 6 
#
# 1 0.014395 -0.002628 0.000088 0.000000 0.000000 0.000000
# 2 -0.002628 0.006470 -0.002240 0.000000 0.000000 0.000000
# 3 0.000088 -0.002240 0.006127 0.000000 0.000000 0.000000
# 4 0.000000 0.000000 0.000000 0.029736 0.000000 0.000000
# 5 0.000000 0.000000 0.000000 0.000000 0.031342 0.000000
# 6 0.000000 0.000000 0.000000 0.000000 0.000000 0.027664
#
#
# Mechanical properties :
#
#
# Convention : Reuss Voigt Hill
#
# Bulk Modulus (GPa) = 57.36843 76.70539 67.03691
# Shear Modulus (GPa) = 38.13785 43.06281 40.60033
#
# Velocity S-wave (km/s) = 3.83659 4.07680 3.95852
# Velocity P-wave (km/s) = 6.46278 7.19480 6.83859
#
# Compressibility (1/GPa) = 0.01743119
#
# Stress axis : x y z
#
# Youngs Moduli (GPa) = 69.46849 154.56582 163.22509
#
# Poissons Ratio (x) = 0.40617 -0.01434
# Poissons Ratio (y) = 0.18255 0.36564
# Poissons Ratio (z) = -0.00610 0.34625
#
# Static dielectric constant tensor:
#      x y z
#    x 2.097640 0.000000 0.000000 
#    y 0.000000 2.038030 0.000000 
#    z 0.000000 0.000000 2.212260 
# 
# From -- ./inp_files/6159.got.cif
#   From: 2010.05.17/outbox.cif.g08.bks.cpg/sg20_4_cif.got.tgz:6159.got - 2010.06.03 22:52:26.
