data_PCOD9320533
_publ_section_title
;
Structure prediction by ZEFSAII (Michael W. Deem and Ramdas Pophale) SiO2 
 PCOD9320533
Probable space group: C 2 2 21
;
_chemical_formula_sum "Si O2"
_cell_formula_units_Z 24
_cell_length_a 5.111925
_cell_length_b 12.808984
_cell_length_c 16.800529
_cell_angle_alpha 90.000000
_cell_angle_beta 90.000000
_cell_angle_gamma 90.000000
_cell_volume 1100.074539
_symmetry_space_group_name_H-M "C 2 2 21"
_symmetry_group_IT_number 20
_symmetry_cell_setting 'orthorhombic'
loop_
_space_group_symop_operation_xyz
x,y,z
-x,-y,1/2+z
x,-y,-z
-x,y,1/2-z
1/2+x,1/2+y,z
1/2-x,1/2-y,1/2+z
1/2+x,1/2-y,-z
1/2-x,1/2+y,1/2-z
loop_
_atom_site_type_symbol
_atom_site_label
_atom_site_fract_x
_atom_site_fract_y
_atom_site_fract_z
Si Si1 0.462081 0.830262 0.065470
Si Si2 0.455647 0.415950 0.157345
Si Si3 0.815701 0.092745 0.057750
O O1 0.215467 0.878975 0.110697
O O2 0.438389 0.706568 0.053922
O O3 0.714361 0.852009 0.120244
O O4 0.528790 0.883888 0.980071
O O5 0.500000 0.397901 0.250000
O O6 0.366125 0.536313 0.141153
O O7 0.916996 0.000000 0.000000
#
# Coordination Sequence:
#
# PCOD9320533 Si02
#       3
#     8   8   8
#     4  11  24  43  68  98 133 174 224 276 327 390
#     4  11  26  45  67 100 138 176 219 272 337 398
#     4  10  23  42  68  96 129 172 222 272 323 388
#
# _framework density 21.816704000000001
#
# number of rings (size 3 to 8) (size 9 to 14) (size 15 to 20)
#    0.000    1.333    0.000    5.000    0.000   28.000 
#    0.000    0.000    0.000    0.000    0.000    0.000 
#    0.000    0.000    0.000    0.000    0.000    0.000 
#
# Total GULP energy -66926.424961 kJ/mol
# GULP energy per Si atom -5577.202080 kJ/mol
# Density = 2.176705 g / cm^3
# Si number density = 21.816704 Si / 1000 Ang^3
#
#
#
# Elastic Constant Matrix: (Units=GPa)
#
#
# Indices 1 2 3 4 5 6 
#
# 1 181.5695 62.1804 66.7250 0.0000 0.0000 0.0000
# 2 62.1804 181.1496 36.1287 0.0000 0.0000 0.0000
# 3 66.7250 36.1287 84.0690 0.0000 0.0000 0.0000
# 4 0.0000 0.0000 0.0000 18.7178 0.0000 0.0000
# 5 0.0000 0.0000 0.0000 0.0000 31.2140 0.0000
# 6 0.0000 0.0000 0.0000 0.0000 0.0000 42.0838
#
#
#
# Elastic Compliance Matrix: (Units=1/GPa)
#
#
# Indices 1 2 3 4 5 6 
#
# 1 0.008208 -0.001660 -0.005801 0.000000 0.000000 0.000000
# 2 -0.001660 0.006374 -0.001421 0.000000 0.000000 0.000000
# 3 -0.005801 -0.001421 0.017110 0.000000 0.000000 0.000000
# 4 0.000000 0.000000 0.000000 0.053425 0.000000 0.000000
# 5 0.000000 0.000000 0.000000 0.000000 0.032037 0.000000
# 6 0.000000 0.000000 0.000000 0.000000 0.000000 0.023762
#
#
# Mechanical properties :
#
#
# Convention : Reuss Voigt Hill
#
# Bulk Modulus (GPa) = 71.80668 86.31737 79.06202
# Shear Modulus (GPa) = 30.61410 37.18672 33.90041
#
# Velocity S-wave (km/s) = 3.75005 4.13305 3.94620
# Velocity P-wave (km/s) = 7.19275 7.90106 7.55521
#
# Compressibility (1/GPa) = 0.01392628
#
# Stress axis : x y z
#
# Youngs Moduli (GPa) = 121.83224 156.89451 58.44527
#
# Poissons Ratio (x) = 0.26052 0.33904
# Poissons Ratio (y) = 0.20230 0.08306
# Poissons Ratio (z) = 0.70676 0.22298
#
# Static dielectric constant tensor:
#      x y z
#    x 1.849880 0.000000 0.000000 
#    y 0.000000 1.824040 0.000000 
#    z 0.000000 0.000000 1.897220 
# 
# From -- ./inp_files/22399.got.cif
#   From: 2010.05.17/outbox.cif.g08.bks.cpg/sg20_12_cif.got.tgz:22399.got - 2010.06.03 22:52:26.
