data_PCOD9320337
_publ_section_title
;
Structure prediction by ZEFSAII (Michael W. Deem and Ramdas Pophale) SiO2 
 PCOD9320337
Probable space group: C 2 2 21
;
_chemical_formula_sum "Si O2"
_cell_formula_units_Z 44
_cell_length_a 8.980047
_cell_length_b 10.933981
_cell_length_c 22.532472
_cell_angle_alpha 90.000000
_cell_angle_beta 90.000000
_cell_angle_gamma 90.000000
_cell_volume 2212.410774
_symmetry_space_group_name_H-M "C 2 2 21"
_symmetry_group_IT_number 20
_symmetry_cell_setting 'orthorhombic'
loop_
_space_group_symop_operation_xyz
x,y,z
-x,-y,1/2+z
x,-y,-z
-x,y,1/2-z
1/2+x,1/2+y,z
1/2-x,1/2-y,1/2+z
1/2+x,1/2-y,-z
1/2-x,1/2+y,1/2-z
loop_
_atom_site_type_symbol
_atom_site_label
_atom_site_fract_x
_atom_site_fract_y
_atom_site_fract_z
Si Si1 0.000000 0.741891 0.250000
Si Si2 0.742115 0.876031 0.831544
Si Si3 0.298416 0.700111 0.558442
Si Si4 0.254835 0.843218 0.330711
Si Si5 0.000000 0.776877 0.750000
Si Si6 0.121538 0.500000 0.500000
Si Si7 0.377463 0.755195 0.946181
O O1 0.905876 0.658195 0.294752
O O2 0.881817 0.823779 0.214661
O O3 0.747383 0.778500 0.884821
O O4 0.882259 0.854823 0.788064
O O5 0.737108 0.016577 0.851163
O O6 0.218133 0.570212 0.549795
O O7 0.474437 0.675626 0.558109
O O8 0.235405 0.769530 0.500037
O O9 0.402778 0.803462 0.295818
O O10 0.215675 0.756334 0.386240
O O11 0.051833 0.611691 0.463458
#
# Coordination Sequence:
#
# PCOD9320337 Si02
#       7
#     4   8   8   8   4   4   8
#     4  10  22  46  58  96 132 168 208 256 330 346
#     4  11  23  42  67  95 128 165 215 260 309 383
#     4  10  23  43  66  95 123 173 205 260 324 366
#     4  11  23  42  67  95 128 165 215 260 309 383
#     4  10  26  42  62 100 124 176 204 260 318 366
#     4   8  24  44  60  96 140 156 206 274 306 376
#     4  10  23  43  66  95 123 173 205 260 324 366
#
# _framework density 19.887809000000001
#
# number of rings (size 3 to 8) (size 9 to 14) (size 15 to 20)
#    1.091    0.727    1.818    1.091    2.545    6.545 
#   13.091    0.000    0.000    0.000    0.000    0.000 
#    0.000    0.000    0.000    0.000    0.000    0.000 
#
# Total GULP energy -122536.691791 kJ/mol
# GULP energy per Si atom -5569.849627 kJ/mol
# Density = 1.984254 g / cm^3
# Si number density = 19.887809 Si / 1000 Ang^3
#
#
#
# Elastic Constant Matrix: (Units=GPa)
#
#
# Indices 1 2 3 4 5 6 
#
# 1 70.1910 -5.4016 5.2411 0.0000 0.0000 0.0000
# 2 -5.4016 61.8106 3.4102 0.0000 0.0000 0.0000
# 3 5.2411 3.4102 83.6526 0.0000 0.0000 0.0000
# 4 0.0000 0.0000 0.0000 2.3659 0.0000 0.0000
# 5 0.0000 0.0000 0.0000 0.0000 20.3754 0.0000
# 6 0.0000 0.0000 0.0000 0.0000 0.0000 2.2698
#
#
#
# Elastic Compliance Matrix: (Units=1/GPa)
#
#
# Indices 1 2 3 4 5 6 
#
# 1 0.014419 0.001313 -0.000957 0.000000 0.000000 0.000000
# 2 0.001313 0.016334 -0.000748 0.000000 0.000000 0.000000
# 3 -0.000957 -0.000748 0.012045 0.000000 0.000000 0.000000
# 4 0.000000 0.000000 0.000000 0.422666 0.000000 0.000000
# 5 0.000000 0.000000 0.000000 0.000000 0.049079 0.000000
# 6 0.000000 0.000000 0.000000 0.000000 0.000000 0.440567
#
#
# Mechanical properties :
#
#
# Convention : Reuss Voigt Hill
#
# Bulk Modulus (GPa) = 23.80156 24.68373 24.24265
# Shear Modulus (GPa) = 5.15518 19.16254 12.15886
#
# Velocity S-wave (km/s) = 1.61176 3.10745 2.47528
# Velocity P-wave (km/s) = 3.93161 5.03124 4.51503
#
# Compressibility (1/GPa) = 0.04201405
#
# Stress axis : x y z
#
# Youngs Moduli (GPa) = 69.35141 61.22029 83.02436
#
# Poissons Ratio (x) = -0.08038 0.07945
# Poissons Ratio (y) = -0.09105 0.06211
# Poissons Ratio (z) = 0.06636 0.04580
#
# Static dielectric constant tensor:
#      x y z
#    x 1.677470 0.000000 0.000000 
#    y 0.000000 1.688680 0.000000 
#    z 0.000000 0.000000 1.700340 
# 
# From -- ./inp_files/28677.got.cif
#   From: 2010.05.17/outbox.cif.g08.bks.cpg/sg20_15_cif.got.tgz:28677.got - 2010.06.03 22:52:26.
