data_PCOD9320349
_publ_section_title
;
Structure prediction by ZEFSAII (Michael W. Deem and Ramdas Pophale) SiO2 
 PCOD9320349
Probable space group: C 2 2 21
;
_chemical_formula_sum "Si O2"
_cell_formula_units_Z 44
_cell_length_a 12.850157
_cell_length_b 6.691830
_cell_length_c 18.958669
_cell_angle_alpha 90.000000
_cell_angle_beta 90.000000
_cell_angle_gamma 90.000000
_cell_volume 1630.276159
_symmetry_space_group_name_H-M "C 2 2 21"
_symmetry_group_IT_number 20
_symmetry_cell_setting 'orthorhombic'
loop_
_space_group_symop_operation_xyz
x,y,z
-x,-y,1/2+z
x,-y,-z
-x,y,1/2-z
1/2+x,1/2+y,z
1/2-x,1/2-y,1/2+z
1/2+x,1/2-y,-z
1/2-x,1/2+y,1/2-z
loop_
_atom_site_type_symbol
_atom_site_label
_atom_site_fract_x
_atom_site_fract_y
_atom_site_fract_z
Si Si1 0.075868 0.285491 0.562212
Si Si2 0.881763 0.158110 0.640813
Si Si3 0.929084 0.675865 0.860221
Si Si4 0.855770 0.760226 0.708272
Si Si5 0.220311 0.980076 0.383158
Si Si6 0.078104 0.000000 0.000000
O O1 0.096826 0.514599 0.580205
O O2 0.994953 0.197906 0.504630
O O3 0.000858 0.232848 0.631315
O O4 0.184803 0.168439 0.553996
O O5 0.808005 0.349593 0.628089
O O6 0.860637 0.018680 0.572050
O O7 0.866075 0.001829 0.704572
O O8 0.874646 0.654523 0.783227
O O9 0.883666 0.890317 0.879497
O O10 0.050113 0.688274 0.841906
O O11 0.749436 0.682229 0.675809
#
# Coordination Sequence:
#
# PCOD9320349 Si02
#       6
#     8   8   8   8   8   4
#     4  10  22  46  67 102 139 178 237 287 349 407
#     4  10  22  46  67 102 139 178 237 287 349 407
#     4  11  24  43  68 100 145 185 229 291 347 421
#     4  11  24  43  68 100 145 185 229 291 347 421
#     4  12  24  42  70  98 138 188 232 286 348 420
#     4   8  20  48  74  98 142 182 232 306 330 416
#
# _framework density 26.98929
#
# number of rings (size 3 to 8) (size 9 to 14) (size 15 to 20)
#    1.091    0.364    3.636    1.091    5.091    0.000 
#    6.545    6.364    0.000    0.000    0.000    0.000 
#    0.000    0.000    0.000    0.000    0.000    0.000 
#
# Total GULP energy -122603.847414 kJ/mol
# GULP energy per Si atom -5572.902155 kJ/mol
# Density = 2.692786 g / cm^3
# Si number density = 26.989290 Si / 1000 Ang^3
#
#
#
# Elastic Constant Matrix: (Units=GPa)
#
#
# Indices 1 2 3 4 5 6 
#
# 1 81.0414 42.9723 0.0897 0.0000 0.0000 0.0000
# 2 42.9723 137.0354 4.4089 0.0000 0.0000 0.0000
# 3 0.0897 4.4089 39.6750 0.0000 0.0000 0.0000
# 4 0.0000 0.0000 0.0000 30.1088 0.0000 0.0000
# 5 0.0000 0.0000 0.0000 0.0000 24.8850 0.0000
# 6 0.0000 0.0000 0.0000 0.0000 0.0000 51.4152
#
#
#
# Elastic Compliance Matrix: (Units=1/GPa)
#
#
# Indices 1 2 3 4 5 6 
#
# 1 0.014810 -0.004660 0.000484 0.000000 0.000000 0.000000
# 2 -0.004660 0.008790 -0.000966 0.000000 0.000000 0.000000
# 3 0.000484 -0.000966 0.025311 0.000000 0.000000 0.000000
# 4 0.000000 0.000000 0.000000 0.033213 0.000000 0.000000
# 5 0.000000 0.000000 0.000000 0.000000 0.040185 0.000000
# 6 0.000000 0.000000 0.000000 0.000000 0.000000 0.019449
#
#
# Mechanical properties :
#
#
# Convention : Reuss Voigt Hill
#
# Bulk Modulus (GPa) = 25.88846 39.18817 32.53831
# Shear Modulus (GPa) = 30.31840 35.30055 32.80948
#
# Velocity S-wave (km/s) = 3.35528 3.62048 3.49040
# Velocity P-wave (km/s) = 4.96220 5.65938 5.32222
#
# Compressibility (1/GPa) = 0.03862725
#
# Stress axis : x y z
#
# Youngs Moduli (GPa) = 67.52366 113.76990 39.50844
#
# Poissons Ratio (x) = 0.53013 -0.01914
# Poissons Ratio (y) = 0.31464 0.03817
# Poissons Ratio (z) = -0.03270 0.10993
#
# Static dielectric constant tensor:
#      x y z
#    x 2.080880 0.000000 0.000000 
#    y 0.000000 2.169880 0.000000 
#    z 0.000000 0.000000 2.299550 
# 
# From -- ./inp_files/30391.got.cif
#   From: 2010.05.17/outbox.cif.g08.bks.cpg/sg20_16_cif.got.tgz:30391.got - 2010.06.03 22:52:26.
