data_PCOD9320265
_publ_section_title
;
Structure prediction by ZEFSAII (Michael W. Deem and Ramdas Pophale) SiO2 
 PCOD9320265
Probable space group: C 2 2 21
;
_chemical_formula_sum "Si O2"
_cell_formula_units_Z 56
_cell_length_a 18.866253
_cell_length_b 15.038813
_cell_length_c 8.533893
_cell_angle_alpha 90.000000
_cell_angle_beta 90.000000
_cell_angle_gamma 90.000000
_cell_volume 2421.287760
_symmetry_space_group_name_H-M "C 2 2 21"
_symmetry_group_IT_number 20
_symmetry_cell_setting 'orthorhombic'
loop_
_space_group_symop_operation_xyz
x,y,z
-x,-y,1/2+z
x,-y,-z
-x,y,1/2-z
1/2+x,1/2+y,z
1/2-x,1/2-y,1/2+z
1/2+x,1/2-y,-z
1/2-x,1/2+y,1/2-z
loop_
_atom_site_type_symbol
_atom_site_label
_atom_site_fract_x
_atom_site_fract_y
_atom_site_fract_z
Si Si1 0.743469 0.038647 0.740076
Si Si2 0.981117 0.637660 0.574259
Si Si3 0.869334 0.500000 0.500000
Si Si4 0.105728 0.804298 0.807446
Si Si5 0.000000 0.856548 0.250000
Si Si6 0.602384 0.235660 0.454783
Si Si7 0.889813 0.005412 0.671412
Si Si8 0.742766 0.850459 0.566455
O O1 0.734307 0.116872 0.613162
O O2 0.683885 0.040278 0.871141
O O3 0.827090 0.037338 0.786689
O O4 0.734260 0.940379 0.666360
O O5 0.924614 0.580880 0.477510
O O6 0.947182 0.735830 0.607070
O O7 0.000000 0.602142 0.750000
O O8 0.054288 0.648113 0.481596
O O9 0.113762 0.772698 0.629463
O O10 0.082983 0.907253 0.793819
O O11 0.181129 0.807926 0.896367
O O12 0.945797 0.798800 0.150244
O O13 0.951018 0.923297 0.347930
O O14 0.679056 0.214364 0.387897
O O15 0.853997 0.000000 0.500000
#
# Coordination Sequence:
#
# PCOD9320265 Si02
#       8
#     8   8   4   8   4   8   8   8
#     4  10  22  44  70 105 134 194 247 298 371 436
#     4  10  24  45  69 103 144 191 244 300 378 448
#     4  12  26  42  76 108 144 190 250 318 368 442
#     4  10  22  44  75  97 139 197 245 296 365 449
#     4  12  30  38  70 104 146 180 236 312 374 452
#     4  11  26  43  64 109 141 184 248 301 373 449
#     4  11  23  45  67  97 139 184 231 296 367 433
#     4  10  22  45  72  98 147 193 244 307 369 446
#
# _framework density 23.128188000000002
#
# number of rings (size 3 to 8) (size 9 to 14) (size 15 to 20)
#    0.000    1.429    2.857    2.571    7.000    9.143 
#    0.000    0.000    0.000    0.000    0.000    0.000 
#    0.000    0.000    0.000    0.000    0.000    0.000 
#
# Total GULP energy -156455.047918 kJ/mol
# GULP energy per Si atom -5587.680283 kJ/mol
# Density = 2.307555 g / cm^3
# Si number density = 23.128188 Si / 1000 Ang^3
#
#
#
# Elastic Constant Matrix: (Units=GPa)
#
#
# Indices 1 2 3 4 5 6 
#
# 1 139.7128 32.4662 33.6396 0.0000 0.0000 0.0000
# 2 32.4662 64.4777 3.3433 0.0000 0.0000 0.0000
# 3 33.6396 3.3433 39.4720 0.0000 0.0000 0.0000
# 4 0.0000 0.0000 0.0000 15.8585 0.0000 0.0000
# 5 0.0000 0.0000 0.0000 0.0000 27.4363 0.0000
# 6 0.0000 0.0000 0.0000 0.0000 0.0000 42.4302
#
#
#
# Elastic Compliance Matrix: (Units=1/GPa)
#
#
# Indices 1 2 3 4 5 6 
#
# 1 0.010269 -0.004738 -0.008350 0.000000 0.000000 0.000000
# 2 -0.004738 0.017763 0.002533 0.000000 0.000000 0.000000
# 3 -0.008350 0.002533 0.032236 0.000000 0.000000 0.000000
# 4 0.000000 0.000000 0.000000 0.063058 0.000000 0.000000
# 5 0.000000 0.000000 0.000000 0.000000 0.036448 0.000000
# 6 0.000000 0.000000 0.000000 0.000000 0.000000 0.023568
#
#
# Mechanical properties :
#
#
# Convention : Reuss Voigt Hill
#
# Bulk Modulus (GPa) = 25.53700 42.50674 34.02187
# Shear Modulus (GPa) = 22.98787 28.75921 25.87354
#
# Velocity S-wave (km/s) = 3.15609 3.53011 3.34833
# Velocity P-wave (km/s) = 4.93424 5.91897 5.44890
#
# Compressibility (1/GPa) = 0.03915887
#
# Stress axis : x y z
#
# Youngs Moduli (GPa) = 97.37967 56.29525 31.02082
#
# Poissons Ratio (x) = 0.26671 0.25904
# Poissons Ratio (y) = 0.46136 -0.07858
# Poissons Ratio (z) = 0.81316 -0.14260
#
# Static dielectric constant tensor:
#      x y z
#    x 1.923110 0.000000 0.000000 
#    y 0.000000 1.885480 0.000000 
#    z 0.000000 0.000000 1.944640 
# 
# From -- ./inp_files/10266.got.cif
#   From: 2010.05.17/outbox.cif.g08.bks.cpg/sg20_6_cif.got.tgz:10266.got - 2010.06.03 22:52:26.
