data_PCOD9320716
_publ_section_title
;
Structure prediction by ZEFSAII (Michael W. Deem and Ramdas Pophale) SiO2 
 PCOD9320716
Probable space group: C 2 2 21
;
_chemical_formula_sum "Si O2"
_cell_formula_units_Z 40
_cell_length_a 10.396546
_cell_length_b 23.611544
_cell_length_c 7.305768
_cell_angle_alpha 90.000000
_cell_angle_beta 90.000000
_cell_angle_gamma 90.000000
_cell_volume 1793.408994
_symmetry_space_group_name_H-M "C 2 2 21"
_symmetry_group_IT_number 20
_symmetry_cell_setting 'orthorhombic'
loop_
_space_group_symop_operation_xyz
x,y,z
-x,-y,1/2+z
x,-y,-z
-x,y,1/2-z
1/2+x,1/2+y,z
1/2-x,1/2-y,1/2+z
1/2+x,1/2-y,-z
1/2-x,1/2+y,1/2-z
loop_
_atom_site_type_symbol
_atom_site_label
_atom_site_fract_x
_atom_site_fract_y
_atom_site_fract_z
Si Si1 0.640178 0.192214 0.267681
Si Si2 0.600457 0.553573 0.394760
Si Si3 0.856898 0.501420 0.781607
Si Si4 0.303846 0.884563 0.444003
Si Si5 0.641831 0.218875 0.683385
O O1 0.500000 0.220410 0.250000
O O2 0.756211 0.230649 0.195067
O O3 0.641043 0.135692 0.142306
O O4 0.348630 0.188625 0.014054
O O5 0.540778 0.500000 0.500000
O O6 0.500000 0.575652 0.250000
O O7 0.732654 0.529834 0.304122
O O8 0.653905 0.600762 0.529115
O O9 0.859343 0.561568 0.669198
O O10 0.000000 0.477303 0.750000
O O11 0.837459 0.500000 0.000000
O O12 0.322419 0.829703 0.324432
O O13 0.500000 0.238121 0.750000
#
# Coordination Sequence:
#
# PCOD9320716 Si02
#       5
#     8   8   8   8   8
#     4  12  25  46  71 105 144 185 236 295 350 420
#     4  10  23  46  68  98 140 179 233 291 355 420
#     4  11  24  43  70 103 139 181 235 291 350 423
#     4  11  25  42  70 105 138 183 236 284 360 409
#     4  12  24  47  73 102 146 190 234 293 353 421
#
# _framework density 22.303889999999999
#
# number of rings (size 3 to 8) (size 9 to 14) (size 15 to 20)
#    0.000    0.800    4.000    3.000    2.800    1.600 
#    3.600    1.000    0.000    0.000    0.000    0.000 
#    0.000    0.000    0.000    0.000    0.000    0.000 
#
# Total GULP energy -111638.945056 kJ/mol
# GULP energy per Si atom -5581.947253 kJ/mol
# Density = 2.225313 g / cm^3
# Si number density = 22.303890 Si / 1000 Ang^3
#
#
#
# Elastic Constant Matrix: (Units=GPa)
#
#
# Indices 1 2 3 4 5 6 
#
# 1 113.4137 59.7470 29.7642 0.0000 0.0000 0.0000
# 2 59.7470 82.9288 30.5898 0.0000 0.0000 0.0000
# 3 29.7642 30.5898 149.3116 0.0000 0.0000 0.0000
# 4 0.0000 0.0000 0.0000 27.2245 0.0000 0.0000
# 5 0.0000 0.0000 0.0000 0.0000 45.4780 0.0000
# 6 0.0000 0.0000 0.0000 0.0000 0.0000 25.6952
#
#
#
# Elastic Compliance Matrix: (Units=1/GPa)
#
#
# Indices 1 2 3 4 5 6 
#
# 1 0.014299 -0.010007 -0.000800 0.000000 0.000000 0.000000
# 2 -0.010007 0.020047 -0.002112 0.000000 0.000000 0.000000
# 3 -0.000800 -0.002112 0.007290 0.000000 0.000000 0.000000
# 4 0.000000 0.000000 0.000000 0.036732 0.000000 0.000000
# 5 0.000000 0.000000 0.000000 0.000000 0.021989 0.000000
# 6 0.000000 0.000000 0.000000 0.000000 0.000000 0.038918
#
#
# Mechanical properties :
#
#
# Convention : Reuss Voigt Hill
#
# Bulk Modulus (GPa) = 63.30248 65.09513 64.19880
# Shear Modulus (GPa) = 29.34654 34.71639 32.03147
#
# Velocity S-wave (km/s) = 3.63127 3.94955 3.79375
# Velocity P-wave (km/s) = 6.78417 7.07443 6.93082
#
# Compressibility (1/GPa) = 0.01579717
#
# Stress axis : x y z
#
# Youngs Moduli (GPa) = 69.93596 49.88267 137.17986
#
# Poissons Ratio (x) = 0.49915 0.10979
# Poissons Ratio (y) = 0.69982 0.28977
# Poissons Ratio (z) = 0.05597 0.10537
#
# Static dielectric constant tensor:
#      x y z
#    x 1.852220 0.000000 0.000000 
#    y 0.000000 1.847630 0.000000 
#    z 0.000000 0.000000 1.933840 
# 
# From -- ./inp_files/6271.got.cif
#   From: 2010.05.17/outbox.cif.g08.bks.cpg/sg20_4_cif.got.tgz:6271.got - 2010.06.03 22:52:26.
