data_PCOD9320059
_publ_section_title
;
Structure prediction by ZEFSAII (Michael W. Deem and Ramdas Pophale) SiO2 
 PCOD9320059
Probable space group: C 2 2 21
;
_chemical_formula_sum "Si O2"
_cell_formula_units_Z 44
_cell_length_a 17.416241
_cell_length_b 8.691524
_cell_length_c 13.649328
_cell_angle_alpha 90.000000
_cell_angle_beta 90.000000
_cell_angle_gamma 90.000000
_cell_volume 2066.148963
_symmetry_space_group_name_H-M "C 2 2 21"
_symmetry_group_IT_number 20
_symmetry_cell_setting 'orthorhombic'
loop_
_space_group_symop_operation_xyz
x,y,z
-x,-y,1/2+z
x,-y,-z
-x,y,1/2-z
1/2+x,1/2+y,z
1/2-x,1/2-y,1/2+z
1/2+x,1/2-y,-z
1/2-x,1/2+y,1/2-z
loop_
_atom_site_type_symbol
_atom_site_label
_atom_site_fract_x
_atom_site_fract_y
_atom_site_fract_z
Si Si1 0.114805 0.500000 0.500000
Si Si2 0.764000 0.736543 0.951370
Si Si3 0.702671 0.469279 0.220898
Si Si4 0.394973 0.550683 0.113757
Si Si5 0.498910 0.834513 0.359026
Si Si6 0.820443 0.315814 0.362006
O O1 0.174899 0.362988 0.515268
O O2 0.057541 0.439711 0.418094
O O3 0.712402 0.636604 0.876820
O O4 0.819137 0.843327 0.888429
O O5 0.718656 0.827770 0.032678
O O6 0.630769 0.438718 0.296611
O O7 0.779783 0.429569 0.283877
O O8 0.692767 0.642425 0.179745
O O9 0.466321 0.661311 0.137930
O O10 0.404560 0.500000 0.000000
O O11 0.500000 0.893139 0.250000
O O12 0.409951 0.837235 0.384244
#
# Coordination Sequence:
#
# PCOD9320059 Si02
#       6
#     4   8   8   8   8   8
#     4  10  22  42  66  92 130 174 216 270 340 394
#     4  11  22  39  67  97 128 172 229 275 331 406
#     4  12  22  41  69  99 129 176 226 280 331 407
#     4  11  23  42  67  98 136 176 221 281 349 397
#     4  11  24  44  66  96 135 180 216 282 341 406
#     4  12  24  41  70  97 131 173 229 277 332 400
#
# _framework density 21.295656999999999
#
# number of rings (size 3 to 8) (size 9 to 14) (size 15 to 20)
#    0.000    0.727    7.273    1.091    0.000    2.909 
#    0.000    0.000    0.000    0.000    0.000    0.000 
#    0.000    0.000    0.000    0.000    0.000    0.000 
#
# Total GULP energy -122640.770978 kJ/mol
# GULP energy per Si atom -5574.580499 kJ/mol
# Density = 2.124719 g / cm^3
# Si number density = 21.295657 Si / 1000 Ang^3
#
#
#
# Elastic Constant Matrix: (Units=GPa)
#
#
# Indices 1 2 3 4 5 6 
#
# 1 126.4266 21.3157 50.9084 0.0000 0.0000 0.0000
# 2 21.3157 47.9089 27.5162 0.0000 0.0000 0.0000
# 3 50.9084 27.5162 91.5412 0.0000 0.0000 0.0000
# 4 0.0000 0.0000 0.0000 32.4939 0.0000 0.0000
# 5 0.0000 0.0000 0.0000 0.0000 28.1108 0.0000
# 6 0.0000 0.0000 0.0000 0.0000 0.0000 19.9533
#
#
#
# Elastic Compliance Matrix: (Units=1/GPa)
#
#
# Indices 1 2 3 4 5 6 
#
# 1 0.010288 -0.001561 -0.005252 0.000000 0.000000 0.000000
# 2 -0.001561 0.025465 -0.006787 0.000000 0.000000 0.000000
# 3 -0.005252 -0.006787 0.015885 0.000000 0.000000 0.000000
# 4 0.000000 0.000000 0.000000 0.030775 0.000000 0.000000
# 5 0.000000 0.000000 0.000000 0.000000 0.035573 0.000000
# 6 0.000000 0.000000 0.000000 0.000000 0.000000 0.050117
#
#
# Mechanical properties :
#
#
# Convention : Reuss Voigt Hill
#
# Bulk Modulus (GPa) = 40.91832 51.70636 46.31234
# Shear Modulus (GPa) = 24.57624 27.18737 25.88181
#
# Velocity S-wave (km/s) = 3.40082 3.57692 3.48998
# Velocity P-wave (km/s) = 5.88870 6.43367 6.16721
#
# Compressibility (1/GPa) = 0.02443893
#
# Stress axis : x y z
#
# Youngs Moduli (GPa) = 97.20293 39.26930 62.95299
#
# Poissons Ratio (x) = 0.06129 0.33064
# Poissons Ratio (y) = 0.15171 0.42724
# Poissons Ratio (z) = 0.51052 0.26650
#
# Static dielectric constant tensor:
#      x y z
#    x 1.850850 0.000000 0.000000 
#    y 0.000000 1.871260 0.000000 
#    z 0.000000 0.000000 1.874180 
# 
# From -- ./inp_files/21208.got.cif
#   From: 2010.05.17/outbox.cif.g08.bks.cpg/sg20_11_cif.got.tgz:21208.got - 2010.06.03 22:52:26.
