data_PCOD9320333
_publ_section_title
;
Structure prediction by ZEFSAII (Michael W. Deem and Ramdas Pophale) SiO2 
 PCOD9320333
Probable space group: C 2 2 21
;
_chemical_formula_sum "Si O2"
_cell_formula_units_Z 48
_cell_length_a 28.026506
_cell_length_b 9.062291
_cell_length_c 7.058246
_cell_angle_alpha 90.000000
_cell_angle_beta 90.000000
_cell_angle_gamma 90.000000
_cell_volume 1792.684044
_symmetry_space_group_name_H-M "C 2 2 21"
_symmetry_group_IT_number 20
_symmetry_cell_setting 'orthorhombic'
loop_
_space_group_symop_operation_xyz
x,y,z
-x,-y,1/2+z
x,-y,-z
-x,y,1/2-z
1/2+x,1/2+y,z
1/2-x,1/2-y,1/2+z
1/2+x,1/2-y,-z
1/2-x,1/2+y,1/2-z
loop_
_atom_site_type_symbol
_atom_site_label
_atom_site_fract_x
_atom_site_fract_y
_atom_site_fract_z
Si Si1 0.026450 0.332058 0.907843
Si Si2 0.027510 0.000000 0.000000
Si Si3 0.948540 0.500000 0.000000
Si Si4 0.113493 0.656598 0.821135
Si Si5 0.793687 0.619824 0.851597
Si Si6 0.388537 0.490474 0.775584
Si Si7 0.199918 0.138850 0.637886
O O1 0.081014 0.344688 0.991965
O O2 0.964268 0.356568 0.823564
O O3 0.010093 0.172092 0.006709
O O4 0.008890 0.500000 0.000000
O O5 0.060830 0.978583 0.183610
O O6 0.920015 0.401659 0.149490
O O7 0.164145 0.575053 0.791889
O O8 0.124259 0.828377 0.792715
O O9 0.748069 0.681877 0.743514
O O10 0.775215 0.500000 0.000000
O O11 0.816439 0.734525 0.997704
O O12 0.343967 0.595111 0.728698
O O13 0.393757 0.500000 0.000000
O O14 0.210849 0.000000 0.500000
#
# Coordination Sequence:
#
# PCOD9320333 Si02
#       7
#     8   4   4   8   8   8   8
#     4  11  26  47  72 105 145 188 249 322 393 470
#     4  10  26  44  77 116 136 196 251 312 388 462
#     4  12  26  50  73 104 144 192 239 322 398 468
#     4  11  24  47  72 104 147 197 257 311 389 462
#     4  12  25  44  75 113 157 202 259 312 379 456
#     4  10  22  45  74 106 149 197 251 308 363 458
#     4  11  24  46  71 110 156 205 250 315 372 445
#
# _framework density 26.775493999999998
#
# number of rings (size 3 to 8) (size 9 to 14) (size 15 to 20)
#    0.000    1.000    4.167    2.500    3.500    4.000 
#    7.500    0.000    0.000    0.000    0.000    0.000 
#    0.000    0.000    0.000    0.000    0.000    0.000 
#
# Total GULP energy -133979.694565 kJ/mol
# GULP energy per Si atom -5582.487274 kJ/mol
# Density = 2.671455 g / cm^3
# Si number density = 26.775494 Si / 1000 Ang^3
#
#
#
# Elastic Constant Matrix: (Units=GPa)
#
#
# Indices 1 2 3 4 5 6 
#
# 1 126.5194 26.2205 73.2236 0.0000 0.0000 0.0000
# 2 26.2205 111.2158 29.1578 0.0000 0.0000 0.0000
# 3 73.2236 29.1578 155.8270 0.0000 0.0000 0.0000
# 4 0.0000 0.0000 0.0000 43.5445 0.0000 0.0000
# 5 0.0000 0.0000 0.0000 0.0000 72.2292 0.0000
# 6 0.0000 0.0000 0.0000 0.0000 0.0000 34.6889
#
#
#
# Elastic Compliance Matrix: (Units=1/GPa)
#
#
# Indices 1 2 3 4 5 6 
#
# 1 0.011034 -0.001306 -0.004940 0.000000 0.000000 0.000000
# 2 -0.001306 0.009610 -0.001184 0.000000 0.000000 0.000000
# 3 -0.004940 -0.001184 0.008961 0.000000 0.000000 0.000000
# 4 0.000000 0.000000 0.000000 0.022965 0.000000 0.000000
# 5 0.000000 0.000000 0.000000 0.000000 0.013845 0.000000
# 6 0.000000 0.000000 0.000000 0.000000 0.000000 0.028828
#
#
# Mechanical properties :
#
#
# Convention : Reuss Voigt Hill
#
# Bulk Modulus (GPa) = 67.83163 72.30735 70.06949
# Shear Modulus (GPa) = 43.47136 47.75653 45.61394
#
# Velocity S-wave (km/s) = 4.03370 4.22784 4.13191
# Velocity P-wave (km/s) = 6.86169 7.13418 6.99926
#
# Compressibility (1/GPa) = 0.01474239
#
# Stress axis : x y z
#
# Youngs Moduli (GPa) = 90.62940 104.05837 111.60029
#
# Poissons Ratio (x) = 0.13591 0.55136
# Poissons Ratio (y) = 0.11837 0.13218
# Poissons Ratio (z) = 0.44775 0.12325
#
# Static dielectric constant tensor:
#      x y z
#    x 2.084870 0.000000 0.000000 
#    y 0.000000 2.328950 0.000000 
#    z 0.000000 0.000000 2.219630 
# 
# From -- ./inp_files/11502.got.cif
#   From: 2010.05.17/outbox.cif.g08.bks.cpg/sg20_6_cif.got.tgz:11502.got - 2010.06.03 22:52:26.
