data_PCOD9320021
_publ_section_title
;
Structure prediction by ZEFSAII (Michael W. Deem and Ramdas Pophale) SiO2 
 PCOD9320021
Probable space group: C 2 2 21
;
_chemical_formula_sum "Si O2"
_cell_formula_units_Z 48
_cell_length_a 10.867033
_cell_length_b 13.630719
_cell_length_c 15.697248
_cell_angle_alpha 90.000000
_cell_angle_beta 90.000000
_cell_angle_gamma 90.000000
_cell_volume 2325.162288
_symmetry_space_group_name_H-M "C 2 2 21"
_symmetry_group_IT_number 20
_symmetry_cell_setting 'orthorhombic'
loop_
_space_group_symop_operation_xyz
x,y,z
-x,-y,1/2+z
x,-y,-z
-x,y,1/2-z
1/2+x,1/2+y,z
1/2-x,1/2-y,1/2+z
1/2+x,1/2-y,-z
1/2-x,1/2+y,1/2-z
loop_
_atom_site_type_symbol
_atom_site_label
_atom_site_fract_x
_atom_site_fract_y
_atom_site_fract_z
Si Si1 0.162226 0.097595 0.634101
Si Si2 0.603116 0.645086 0.937093
Si Si3 0.500000 0.009041 0.250000
Si Si4 0.252108 0.684186 0.393520
Si Si5 0.236016 0.982538 0.194822
Si Si6 0.677773 0.000000 0.000000
Si Si7 0.972287 0.352327 0.589455
O O1 0.233785 0.202826 0.635631
O O2 0.150041 0.057520 0.729626
O O3 0.240525 0.018496 0.582159
O O4 0.034964 0.107730 0.581876
O O5 0.695816 0.570936 0.891625
O O6 0.597801 0.751517 0.892600
O O7 0.645783 0.665657 0.033734
O O8 0.533811 0.078104 0.170841
O O9 0.375677 0.955067 0.221738
O O10 0.269733 0.599893 0.321758
O O11 0.115416 0.663417 0.430987
O O12 0.593274 0.906180 0.987546
#
# Coordination Sequence:
#
# PCOD9320021 Si02
#       7
#     8   8   4   8   8   4   8
#     4  11  25  43  67  98 136 176 223 277 337 405
#     4  11  24  43  67  99 132 179 215 274 340 401
#     4  10  22  42  62  98 126 170 230 280 312 394
#     4  10  24  44  66  99 132 175 225 275 330 400
#     4  11  24  40  70  92 132 172 225 270 331 399
#     4  12  22  42  66  98 132 170 228 274 332 384
#     4  10  23  40  70  91 130 174 223 268 327 392
#
# _framework density 20.643722
#
# number of rings (size 3 to 8) (size 9 to 14) (size 15 to 20)
#    0.000    1.333    3.333    1.000   14.000    0.000 
#    0.000    0.000    3.667    0.000    0.000    0.000 
#    0.000    0.000    0.000    0.000    0.000    0.000 
#
# Total GULP energy -133893.841732 kJ/mol
# GULP energy per Si atom -5578.910072 kJ/mol
# Density = 2.059674 g / cm^3
# Si number density = 20.643722 Si / 1000 Ang^3
#
#
#
# Elastic Constant Matrix: (Units=GPa)
#
#
# Indices 1 2 3 4 5 6 
#
# 1 77.8027 39.2078 23.7039 0.0000 0.0000 0.0000
# 2 39.2078 75.0558 8.4916 0.0000 0.0000 0.0000
# 3 23.7039 8.4916 62.6293 0.0000 0.0000 0.0000
# 4 0.0000 0.0000 0.0000 24.9102 0.0000 0.0000
# 5 0.0000 0.0000 0.0000 0.0000 31.5868 0.0000
# 6 0.0000 0.0000 0.0000 0.0000 0.0000 19.7982
#
#
#
# Elastic Compliance Matrix: (Units=1/GPa)
#
#
# Indices 1 2 3 4 5 6 
#
# 1 0.019493 -0.009494 -0.006090 0.000000 0.000000 0.000000
# 2 -0.009494 0.018155 0.001132 0.000000 0.000000 0.000000
# 3 -0.006090 0.001132 0.018119 0.000000 0.000000 0.000000
# 4 0.000000 0.000000 0.000000 0.040144 0.000000 0.000000
# 5 0.000000 0.000000 0.000000 0.000000 0.031659 0.000000
# 6 0.000000 0.000000 0.000000 0.000000 0.000000 0.050510
#
#
# Mechanical properties :
#
#
# Convention : Reuss Voigt Hill
#
# Bulk Modulus (GPa) = 37.22831 39.81049 38.51940
# Shear Modulus (GPa) = 23.15486 24.86466 24.00976
#
# Velocity S-wave (km/s) = 3.35273 3.47431 3.41406
# Velocity P-wave (km/s) = 5.74983 5.95154 5.85155
#
# Compressibility (1/GPa) = 0.02686128
#
# Stress axis : x y z
#
# Youngs Moduli (GPa) = 51.30100 55.08215 55.19185
#
# Poissons Ratio (x) = 0.52293 0.33614
# Poissons Ratio (y) = 0.48703 -0.06246
# Poissons Ratio (z) = 0.31244 -0.06233
#
# Static dielectric constant tensor:
#      x y z
#    x 1.760380 0.000000 0.000000 
#    y 0.000000 1.780960 0.000000 
#    z 0.000000 0.000000 1.770800 
# 
# From -- ./inp_files/19999.got.cif
#   From: 2010.05.17/outbox.cif.g08.bks.cpg/sg20_10_cif.got.tgz:19999.got - 2010.06.03 22:52:26.
