data_PCOD9320167
_publ_section_title
;
Structure prediction by ZEFSAII (Michael W. Deem and Ramdas Pophale) SiO2 
 PCOD9320167
Probable space group: C 2 2 21
;
_chemical_formula_sum "Si O2"
_cell_formula_units_Z 40
_cell_length_a 13.558701
_cell_length_b 12.868174
_cell_length_c 9.383978
_cell_angle_alpha 90.000000
_cell_angle_beta 90.000000
_cell_angle_gamma 90.000000
_cell_volume 1637.276353
_symmetry_space_group_name_H-M "C 2 2 21"
_symmetry_group_IT_number 20
_symmetry_cell_setting 'orthorhombic'
loop_
_space_group_symop_operation_xyz
x,y,z
-x,-y,1/2+z
x,-y,-z
-x,y,1/2-z
1/2+x,1/2+y,z
1/2-x,1/2-y,1/2+z
1/2+x,1/2-y,-z
1/2-x,1/2+y,1/2-z
loop_
_atom_site_type_symbol
_atom_site_label
_atom_site_fract_x
_atom_site_fract_y
_atom_site_fract_z
Si Si1 0.998364 0.321738 0.582967
Si Si2 0.093746 0.105307 0.584071
Si Si3 0.806547 0.294477 0.450174
Si Si4 0.893043 0.607253 0.814899
Si Si5 0.814927 0.077974 0.617367
O O1 0.017381 0.198586 0.556515
O O2 0.078399 0.371626 0.478873
O O3 0.000000 0.338915 0.750000
O O4 0.891002 0.356729 0.532942
O O5 0.201299 0.151953 0.543681
O O6 0.111109 0.085558 0.751414
O O7 0.075566 0.000000 0.500000
O O8 0.852430 0.298070 0.288388
O O9 0.799131 0.186113 0.533559
O O10 0.792463 0.541017 0.821857
O O11 0.000000 0.575218 0.750000
O O12 0.851578 0.000000 0.500000
#
# Coordination Sequence:
#
# PCOD9320167 Si02
#       5
#     8   8   8   8   8
#     4  11  21  40  67  97 128 171 220 267 331 403
#     4  11  25  42  67 100 138 174 221 275 339 399
#     4  10  22  43  67  93 132 175 220 273 336 396
#     4   9  21  41  64  91 129 172 222 274 333 395
#     4  11  23  39  66  97 132 174 224 270 338 405
#
# _framework density 24.430817999999999
#
# number of rings (size 3 to 8) (size 9 to 14) (size 15 to 20)
#    0.000    1.600    4.000    0.000    2.800    2.400 
#    0.000   10.000    0.000    0.000    0.000    0.000 
#    0.000    0.000    0.000    0.000    0.000    0.000 
#
# Total GULP energy -111703.450426 kJ/mol
# GULP energy per Si atom -5585.172521 kJ/mol
# Density = 2.437521 g / cm^3
# Si number density = 24.430818 Si / 1000 Ang^3
#
#
#
# Elastic Constant Matrix: (Units=GPa)
#
#
# Indices 1 2 3 4 5 6 
#
# 1 172.4957 9.3186 25.4327 0.0000 0.0000 0.0000
# 2 9.3186 76.8792 31.7370 0.0000 0.0000 0.0000
# 3 25.4327 31.7370 134.2993 0.0000 0.0000 0.0000
# 4 0.0000 0.0000 0.0000 30.9133 0.0000 0.0000
# 5 0.0000 0.0000 0.0000 0.0000 23.6863 0.0000
# 6 0.0000 0.0000 0.0000 0.0000 0.0000 -2.9154
#
#
#
# Elastic Compliance Matrix: (Units=1/GPa)
#
#
# Indices 1 2 3 4 5 6 
#
# 1 0.005969 -0.000285 -0.001063 0.000000 0.000000 0.000000
# 2 -0.000285 0.014427 -0.003355 0.000000 0.000000 0.000000
# 3 -0.001063 -0.003355 0.008440 0.000000 0.000000 0.000000
# 4 0.000000 0.000000 0.000000 0.032349 0.000000 0.000000
# 5 0.000000 0.000000 0.000000 0.000000 0.042218 0.000000
# 6 0.000000 0.000000 0.000000 0.000000 0.000000 -0.343003
#
#
# Mechanical properties :
#
#
# Convention : Reuss Voigt Hill
#
# Bulk Modulus (GPa) = 51.46608 57.40565 54.43587
# Shear Modulus (GPa) = -22.34973 31.48256 4.56641
#
# Velocity S-wave (km/s) = -3.02788 3.59366 1.36864
# Velocity P-wave (km/s) = 2.98123 6.38494 4.98273
#
# Compressibility (1/GPa) = 0.01943027
#
# Stress axis : x y z
#
# Youngs Moduli (GPa) = 167.52164 69.31394 118.47870
#
# Poissons Ratio (x) = 0.01973 0.12596
# Poissons Ratio (y) = 0.04769 0.39755
# Poissons Ratio (z) = 0.17810 0.23258
#
# Static dielectric constant tensor:
#      x y z
#    x 1.960760 0.000000 0.000000 
#    y 0.000000 1.950200 0.000000 
#    z 0.000000 0.000000 1.972340 
# 
# From -- ./inp_files/8081.got.cif
#   From: 2010.05.17/outbox.cif.g08.bks.cpg/sg20_5_cif.got.tgz:8081.got - 2010.06.03 22:52:26.
