data_PCOD9320139
_publ_section_title
;
Structure prediction by ZEFSAII (Michael W. Deem and Ramdas Pophale) SiO2 
 PCOD9320139
Probable space group: C 2 2 21
;
_chemical_formula_sum "Si O2"
_cell_formula_units_Z 40
_cell_length_a 12.083960
_cell_length_b 15.403862
_cell_length_c 9.630928
_cell_angle_alpha 90.000000
_cell_angle_beta 90.000000
_cell_angle_gamma 90.000000
_cell_volume 1792.697589
_symmetry_space_group_name_H-M "C 2 2 21"
_symmetry_group_IT_number 20
_symmetry_cell_setting 'orthorhombic'
loop_
_space_group_symop_operation_xyz
x,y,z
-x,-y,1/2+z
x,-y,-z
-x,y,1/2-z
1/2+x,1/2+y,z
1/2-x,1/2-y,1/2+z
1/2+x,1/2-y,-z
1/2-x,1/2+y,1/2-z
loop_
_atom_site_type_symbol
_atom_site_label
_atom_site_fract_x
_atom_site_fract_y
_atom_site_fract_z
Si Si1 0.807522 0.236751 0.579000
Si Si2 0.401651 0.855414 0.014053
Si Si3 0.000000 0.257301 0.750000
Si Si4 0.677686 0.578541 0.094103
Si Si5 0.000000 0.528233 0.750000
Si Si6 0.718358 0.062345 0.126017
O O1 0.679506 0.210226 0.595846
O O2 0.804197 0.340281 0.572134
O O3 0.855137 0.176448 0.453662
O O4 0.886632 0.210406 0.706968
O O5 0.471180 0.910520 0.120428
O O6 0.466007 0.809597 0.888884
O O7 0.307627 0.915345 0.946201
O O8 0.684594 0.563465 0.257764
O O9 0.630021 0.500000 0.000000
O O10 0.104797 0.473442 0.804474
O O11 0.747433 0.000000 0.000000
#
# Coordination Sequence:
#
# PCOD9320139 Si02
#       6
#     8   8   4   8   4   8
#     4  10  23  40  65 101 144 186 236 294 354 432
#     4  10  25  41  68 107 148 186 239 300 365 435
#     4  12  21  44  78  98 147 206 239 290 378 442
#     4  10  22  43  62  96 143 185 232 294 358 427
#     4  12  25  38  70 114 145 184 239 310 378 434
#     4  12  24  36  66 101 141 182 233 287 367 430
#
# _framework density 22.312743000000001
#
# number of rings (size 3 to 8) (size 9 to 14) (size 15 to 20)
#    1.200    0.000    4.000    1.800    2.800    9.600 
#    0.000    0.000    0.000    6.000    0.000    1.400 
#    0.000    0.000    0.000    0.000    0.000    0.000 
#
# Total GULP energy -111420.721703 kJ/mol
# GULP energy per Si atom -5571.036085 kJ/mol
# Density = 2.226196 g / cm^3
# Si number density = 22.312743 Si / 1000 Ang^3
#
#
#
# Elastic Constant Matrix: (Units=GPa)
#
#
# Indices 1 2 3 4 5 6 
#
# 1 44.4203 30.3890 20.3743 0.0000 0.0000 0.0000
# 2 30.3890 125.3797 77.0695 0.0000 0.0000 0.0000
# 3 20.3743 77.0695 141.2337 0.0000 0.0000 0.0000
# 4 0.0000 0.0000 0.0000 38.8424 0.0000 0.0000
# 5 0.0000 0.0000 0.0000 0.0000 25.4478 0.0000
# 6 0.0000 0.0000 0.0000 0.0000 0.0000 31.1288
#
#
#
# Elastic Compliance Matrix: (Units=1/GPa)
#
#
# Indices 1 2 3 4 5 6 
#
# 1 0.027009 -0.006247 -0.000488 0.000000 0.000000 0.000000
# 2 -0.006247 0.013446 -0.006436 0.000000 0.000000 0.000000
# 3 -0.000488 -0.006436 0.010663 0.000000 0.000000 0.000000
# 4 0.000000 0.000000 0.000000 0.025745 0.000000 0.000000
# 5 0.000000 0.000000 0.000000 0.000000 0.039296 0.000000
# 6 0.000000 0.000000 0.000000 0.000000 0.000000 0.032125
#
#
# Mechanical properties :
#
#
# Convention : Reuss Voigt Hill
#
# Bulk Modulus (GPa) = 40.35935 62.96658 51.66297
# Shear Modulus (GPa) = 27.33966 31.29719 29.31843
#
# Velocity S-wave (km/s) = 3.50422 3.74927 3.62881
# Velocity P-wave (km/s) = 5.87367 6.85741 6.38451
#
# Compressibility (1/GPa) = 0.02477741
#
# Stress axis : x y z
#
# Youngs Moduli (GPa) = 37.02415 74.37110 93.78253
#
# Poissons Ratio (x) = 0.46457 0.04573
# Poissons Ratio (y) = 0.23128 0.60360
# Poissons Ratio (z) = 0.01805 0.47867
#
# Static dielectric constant tensor:
#      x y z
#    x 1.875660 0.000000 0.000000 
#    y 0.000000 1.884480 0.000000 
#    z 0.000000 0.000000 1.921780 
# 
# From -- ./inp_files/8159.got.cif
#   From: 2010.05.17/outbox.cif.g08.bks.cpg/sg20_5_cif.got.tgz:8159.got - 2010.06.03 22:52:26.
