data_PCOD9320860
_publ_section_title
;
Structure prediction by ZEFSAII (Michael W. Deem and Ramdas Pophale) SiO2 
 PCOD9320860
Probable space group: C 2 2 21
;
_chemical_formula_sum "Si O2"
_cell_formula_units_Z 36
_cell_length_a 7.145476
_cell_length_b 17.591126
_cell_length_c 14.228093
_cell_angle_alpha 90.000000
_cell_angle_beta 90.000000
_cell_angle_gamma 90.000000
_cell_volume 1788.428160
_symmetry_space_group_name_H-M "C 2 2 21"
_symmetry_group_IT_number 20
_symmetry_cell_setting 'orthorhombic'
loop_
_space_group_symop_operation_xyz
x,y,z
-x,-y,1/2+z
x,-y,-z
-x,y,1/2-z
1/2+x,1/2+y,z
1/2-x,1/2-y,1/2+z
1/2+x,1/2-y,-z
1/2-x,1/2+y,1/2-z
loop_
_atom_site_type_symbol
_atom_site_label
_atom_site_fract_x
_atom_site_fract_y
_atom_site_fract_z
Si Si1 0.279150 0.939696 0.760933
Si Si2 0.000000 0.077525 0.750000
Si Si3 0.279954 0.157244 0.419918
Si Si4 0.655464 0.086130 0.469052
Si Si5 0.956239 0.818670 0.427189
O O1 0.500000 0.953115 0.750000
O O2 0.217095 0.884859 0.675738
O O3 0.263040 0.903615 0.864022
O O4 0.172620 0.019364 0.758649
O O5 0.023127 0.131299 0.660275
O O6 0.434192 0.102406 0.467940
O O7 0.399608 0.233357 0.399179
O O8 0.111632 0.176725 0.490565
O O9 0.766817 0.142375 0.535723
O O10 0.691141 0.000000 0.500000
#
# Coordination Sequence:
#
# PCOD9320860 Si02
#       5
#     8   4   8   8   8
#     4  10  24  43  69  97 132 172 222 277 334 393
#     4  12  26  42  68 102 128 174 230 282 324 404
#     4  11  26  44  68  97 137 180 219 278 340 398
#     4  11  23  45  70  97 134 177 225 276 332 405
#     4  12  26  43  67  98 136 178 225 274 337 402
#
# _framework density 20.129408000000002
#
# number of rings (size 3 to 8) (size 9 to 14) (size 15 to 20)
#    0.000    0.889    4.444    1.333   10.889    0.000 
#    0.000    0.000    0.000    0.000    0.000    0.000 
#    0.000    0.000    0.000    0.000    0.000    0.000 
#
# Total GULP energy -100603.367558 kJ/mol
# GULP energy per Si atom -5589.075975 kJ/mol
# Density = 2.008359 g / cm^3
# Si number density = 20.129408 Si / 1000 Ang^3
#
#
#
# Elastic Constant Matrix: (Units=GPa)
#
#
# Indices 1 2 3 4 5 6 
#
# 1 29.2338 8.4862 2.3980 0.0000 0.0000 0.0000
# 2 8.4862 98.0559 27.5590 0.0000 0.0000 0.0000
# 3 2.3980 27.5590 58.5672 0.0000 0.0000 0.0000
# 4 0.0000 0.0000 0.0000 21.3831 0.0000 0.0000
# 5 0.0000 0.0000 0.0000 0.0000 25.9235 0.0000
# 6 0.0000 0.0000 0.0000 0.0000 0.0000 -32.3293
#
#
#
# Elastic Compliance Matrix: (Units=1/GPa)
#
#
# Indices 1 2 3 4 5 6 
#
# 1 0.035089 -0.003034 -0.000009 0.000000 0.000000 0.000000
# 2 -0.003034 0.012015 -0.005529 0.000000 0.000000 0.000000
# 3 -0.000009 -0.005529 0.019677 0.000000 0.000000 0.000000
# 4 0.000000 0.000000 0.000000 0.046766 0.000000 0.000000
# 5 0.000000 0.000000 0.000000 0.000000 0.038575 0.000000
# 6 0.000000 0.000000 0.000000 0.000000 0.000000 -0.030932
#
#
# Mechanical properties :
#
#
# Convention : Reuss Voigt Hill
#
# Bulk Modulus (GPa) = 20.14707 29.19369 24.67038
# Shear Modulus (GPa) = 32.28317 12.82304 22.55311
#
# Velocity S-wave (km/s) = 4.00907 2.52668 3.35088
# Velocity P-wave (km/s) = 5.60898 4.80069 5.22050
#
# Compressibility (1/GPa) = 0.04963500
#
# Stress axis : x y z
#
# Youngs Moduli (GPa) = 28.49936 83.22979 50.82159
#
# Poissons Ratio (x) = 0.25254 0.00045
# Poissons Ratio (y) = 0.08647 0.28101
# Poissons Ratio (z) = 0.00025 0.46021
#
# Static dielectric constant tensor:
#      x y z
#    x 1.722590 0.000000 0.000000 
#    y 0.000000 1.678850 0.000000 
#    z 0.000000 0.000000 1.824890 
# 
# From -- ./inp_files/18436.got.cif
#   From: 2010.05.17/outbox.cif.g08.bks.cpg/sg20_10_cif.got.tgz:18436.got - 2010.06.03 22:52:26.
