data_PCOD9320879
_publ_section_title
;
Structure prediction by ZEFSAII (Michael W. Deem and Ramdas Pophale) SiO2 
 PCOD9320879
Probable space group: C 2 2 21
;
_chemical_formula_sum "Si O2"
_cell_formula_units_Z 20
_cell_length_a 8.145567
_cell_length_b 19.344884
_cell_length_c 5.113413
_cell_angle_alpha 90.000000
_cell_angle_beta 90.000000
_cell_angle_gamma 90.000000
_cell_volume 805.746303
_symmetry_space_group_name_H-M "C 2 2 21"
_symmetry_group_IT_number 20
_symmetry_cell_setting 'orthorhombic'
loop_
_space_group_symop_operation_xyz
x,y,z
-x,-y,1/2+z
x,-y,-z
-x,y,1/2-z
1/2+x,1/2+y,z
1/2-x,1/2-y,1/2+z
1/2+x,1/2-y,-z
1/2-x,1/2+y,1/2-z
loop_
_atom_site_type_symbol
_atom_site_label
_atom_site_fract_x
_atom_site_fract_y
_atom_site_fract_z
Si Si1 0.838541 0.578085 0.592426
Si Si2 0.203764 0.204972 0.383893
Si Si3 0.500000 0.372747 0.250000
O O1 0.856500 0.500000 0.500000
O O2 0.808280 0.634075 0.363158
O O3 0.668373 0.584297 0.758758
O O4 0.000000 0.598100 0.750000
O O5 0.228889 0.255683 0.144385
O O6 0.031614 0.175803 0.500667
#
# Coordination Sequence:
#
# PCOD9320879 Si02
#       3
#     8   8   4
#     4  10  24  44  67 106 141 192 236 298 354 427
#     4  10  24  45  72 107 138 182 239 294 355 425
#     4   8  24  44  72 100 146 190 232 302 356 436
#
# _framework density 24.821708000000001
#
# number of rings (size 3 to 8) (size 9 to 14) (size 15 to 20)
#    2.400    0.000    0.000    0.000    5.600    4.800 
#    7.200    0.000    0.000    0.000    0.000    0.000 
#    0.000    0.000    0.000    0.000    0.000    0.000 
#
# Total GULP energy -55779.840507 kJ/mol
# GULP energy per Si atom -5577.984051 kJ/mol
# Density = 2.476521 g / cm^3
# Si number density = 24.821708 Si / 1000 Ang^3
#
#
#
# Elastic Constant Matrix: (Units=GPa)
#
#
# Indices 1 2 3 4 5 6 
#
# 1 133.9354 -27.7891 -16.4429 0.0000 0.0000 0.0000
# 2 -27.7891 98.8559 -1.4306 0.0000 0.0000 0.0000
# 3 -16.4429 -1.4306 92.7886 0.0000 0.0000 0.0000
# 4 0.0000 0.0000 0.0000 33.0106 0.0000 0.0000
# 5 0.0000 0.0000 0.0000 0.0000 18.0826 0.0000
# 6 0.0000 0.0000 0.0000 0.0000 0.0000 148.2189
#
#
#
# Elastic Compliance Matrix: (Units=1/GPa)
#
#
# Indices 1 2 3 4 5 6 
#
# 1 0.008126 0.002306 0.001476 0.000000 0.000000 0.000000
# 2 0.002306 0.010772 0.000575 0.000000 0.000000 0.000000
# 3 0.001476 0.000575 0.011048 0.000000 0.000000 0.000000
# 4 0.000000 0.000000 0.000000 0.030293 0.000000 0.000000
# 5 0.000000 0.000000 0.000000 0.000000 0.055302 0.000000
# 6 0.000000 0.000000 0.000000 0.000000 0.000000 0.006747
#
#
# Mechanical properties :
#
#
# Convention : Reuss Voigt Hill
#
# Bulk Modulus (GPa) = 25.86859 26.02831 25.94845
# Shear Modulus (GPa) = 39.53769 64.61190 52.07480
#
# Velocity S-wave (km/s) = 3.99540 5.10753 4.58531
# Velocity P-wave (km/s) = 5.63283 6.72989 6.20565
#
# Compressibility (1/GPa) = 0.03865691
#
# Stress axis : x y z
#
# Youngs Moduli (GPa) = 123.06495 92.83183 90.51810
#
# Poissons Ratio (x) = -0.21403 -0.13356
# Poissons Ratio (y) = -0.28373 -0.05202
# Poissons Ratio (z) = -0.18158 -0.05335
#
# Static dielectric constant tensor:
#      x y z
#    x 2.128610 0.000000 0.000000 
#    y 0.000000 1.902510 0.000000 
#    z 0.000000 0.000000 1.969140 
# 
# From -- ./inp_files/265.got.cif
#   From: 2010.05.17/outbox.cif.g08.bks.cpg/sg20_1_cif.got.tgz:265.got - 2010.06.03 22:52:26.
