data_PCOD9320040
_publ_section_title
;
Structure prediction by ZEFSAII (Michael W. Deem and Ramdas Pophale) SiO2 
 PCOD9320040
Probable space group: C 2 2 21
;
_chemical_formula_sum "Si O2"
_cell_formula_units_Z 64
_cell_length_a 8.622926
_cell_length_b 12.016368
_cell_length_c 29.006808
_cell_angle_alpha 90.000000
_cell_angle_beta 90.000000
_cell_angle_gamma 90.000000
_cell_volume 3005.576729
_symmetry_space_group_name_H-M "C 2 2 21"
_symmetry_group_IT_number 20
_symmetry_cell_setting 'orthorhombic'
loop_
_space_group_symop_operation_xyz
x,y,z
-x,-y,1/2+z
x,-y,-z
-x,y,1/2-z
1/2+x,1/2+y,z
1/2-x,1/2-y,1/2+z
1/2+x,1/2-y,-z
1/2-x,1/2+y,1/2-z
loop_
_atom_site_type_symbol
_atom_site_label
_atom_site_fract_x
_atom_site_fract_y
_atom_site_fract_z
Si Si1 0.275307 0.761246 0.852002
Si Si2 0.042531 0.894711 0.031497
Si Si3 0.517450 0.812879 0.081605
Si Si4 0.378238 0.829875 0.989843
Si Si5 0.270847 0.324147 0.872823
Si Si6 0.470339 0.947484 0.897620
Si Si7 0.440779 0.610615 0.640041
Si Si8 0.530837 0.396115 0.803464
O O1 0.175237 0.731841 0.897388
O O2 0.378275 0.869931 0.862219
O O3 0.392360 0.659928 0.844511
O O4 0.150027 0.795083 0.813721
O O5 0.210252 0.850775 0.012741
O O6 0.054802 0.923088 0.085853
O O7 0.919647 0.794617 0.026792
O O8 0.001830 0.000000 0.000000
O O9 0.508367 0.849397 0.029061
O O10 0.392627 0.715659 0.088736
O O11 0.462894 0.921489 0.109718
O O12 0.402421 0.912277 0.947160
O O13 0.175045 0.215056 0.857761
O O14 0.372426 0.370129 0.831007
O O15 0.148983 0.410450 0.893553
O O16 0.402988 0.506555 0.671929
O O17 0.500000 0.411467 0.750000
#
# Coordination Sequence:
#
# PCOD9320040 Si02
#       8
#     8   8   8   8   8   8   8   8
#     4  10  23  41  65  91 129 165 214 265 329 389
#     4  12  27  41  63  98 139 184 225 264 310 379
#     4  11  21  35  60  90 127 178 209 266 302 366
#     4  12  23  39  61  96 137 178 231 257 304 380
#     4  10  22  42  65  92 131 164 217 265 331 389
#     4  11  21  40  60  92 130 175 216 257 314 375
#     4  11  23  45  67  97 132 179 215 269 334 388
#     4  11  26  45  72  99 122 164 219 283 350 403
#
# _framework density 21.293751
#
# number of rings (size 3 to 8) (size 9 to 14) (size 15 to 20)
#    0.000    1.000    3.750    3.375    5.250    1.000 
#    2.250    2.500    0.000    0.000    0.000    0.000 
#    0.000    0.000    0.000    0.000    0.000    0.000 
#
# Total GULP energy -178976.194212 kJ/mol
# GULP energy per Si atom -5593.006069 kJ/mol
# Density = 2.124529 g / cm^3
# Si number density = 21.293751 Si / 1000 Ang^3
#
#
#
# Elastic Constant Matrix: (Units=GPa)
#
#
# Indices 1 2 3 4 5 6 
#
# 1 58.8760 4.6519 -12.2327 0.0000 0.0000 0.0000
# 2 4.6519 50.4189 9.7680 0.0000 0.0000 0.0000
# 3 -12.2327 9.7680 69.2811 0.0000 0.0000 0.0000
# 4 0.0000 0.0000 0.0000 21.7886 0.0000 0.0000
# 5 0.0000 0.0000 0.0000 0.0000 15.0038 0.0000
# 6 0.0000 0.0000 0.0000 0.0000 0.0000 23.8843
#
#
#
# Elastic Compliance Matrix: (Units=1/GPa)
#
#
# Indices 1 2 3 4 5 6 
#
# 1 0.017893 -0.002327 0.003487 0.000000 0.000000 0.000000
# 2 -0.002327 0.020693 -0.003328 0.000000 0.000000 0.000000
# 3 0.003487 -0.003328 0.015519 0.000000 0.000000 0.000000
# 4 0.000000 0.000000 0.000000 0.045895 0.000000 0.000000
# 5 0.000000 0.000000 0.000000 0.000000 0.066650 0.000000
# 6 0.000000 0.000000 0.000000 0.000000 0.000000 0.041868
#
#
# Mechanical properties :
#
#
# Convention : Reuss Voigt Hill
#
# Bulk Modulus (GPa) = 20.09226 20.32783 20.21005
# Shear Modulus (GPa) = 21.79175 23.89460 22.84318
#
# Velocity S-wave (km/s) = 3.20251 3.35347 3.27886
# Velocity P-wave (km/s) = 4.80947 4.95595 4.88326
#
# Compressibility (1/GPa) = 0.04977042
#
# Stress axis : x y z
#
# Youngs Moduli (GPa) = 55.88703 48.32480 64.43722
#
# Poissons Ratio (x) = 0.11243 -0.22472
# Poissons Ratio (y) = 0.13002 0.21447
# Poissons Ratio (z) = -0.19490 0.16084
#
# Static dielectric constant tensor:
#      x y z
#    x 1.808620 0.000000 0.000000 
#    y 0.000000 1.777220 0.000000 
#    z 0.000000 0.000000 1.746610 
# 
# From -- ./inp_files/31087.got.cif
#   From: 2010.05.17/outbox.cif.g08.bks.cpg/sg20_16_cif.got.tgz:31087.got - 2010.06.03 22:52:26.
