data_PCOD9320423
_publ_section_title
;
Structure prediction by ZEFSAII (Michael W. Deem and Ramdas Pophale) SiO2 
 PCOD9320423
Probable space group: C 2 2 21
;
_chemical_formula_sum "Si O2"
_cell_formula_units_Z 56
_cell_length_a 12.713386
_cell_length_b 13.517653
_cell_length_c 16.338252
_cell_angle_alpha 90.000000
_cell_angle_beta 90.000000
_cell_angle_gamma 90.000000
_cell_volume 2807.812591
_symmetry_space_group_name_H-M "C 2 2 21"
_symmetry_group_IT_number 20
_symmetry_cell_setting 'orthorhombic'
loop_
_space_group_symop_operation_xyz
x,y,z
-x,-y,1/2+z
x,-y,-z
-x,y,1/2-z
1/2+x,1/2+y,z
1/2-x,1/2-y,1/2+z
1/2+x,1/2-y,-z
1/2-x,1/2+y,1/2-z
loop_
_atom_site_type_symbol
_atom_site_label
_atom_site_fract_x
_atom_site_fract_y
_atom_site_fract_z
Si Si1 0.318400 0.775304 0.122415
Si Si2 0.063367 0.274121 0.085966
Si Si3 0.744231 0.344451 0.298050
Si Si4 0.702125 0.389088 0.973150
Si Si5 0.266780 0.940818 0.661511
Si Si6 0.361182 0.855715 0.827356
Si Si7 0.039441 0.420684 0.941003
O O1 0.444529 0.785711 0.117235
O O2 0.276179 0.830089 0.203534
O O3 0.259228 0.823759 0.044345
O O4 0.293821 0.657835 0.132517
O O5 0.151726 0.314813 0.148733
O O6 0.098366 0.164129 0.061604
O O7 0.066961 0.331741 0.000432
O O8 0.709931 0.455924 0.318897
O O9 0.656702 0.261704 0.317462
O O10 0.681342 0.500000 0.000000
O O11 0.781849 0.390427 0.897570
O O12 0.327378 0.907983 0.743963
O O13 0.353798 0.965787 0.593546
O O14 0.472880 0.885118 0.863824
O O15 0.982632 0.500000 0.000000
#
# Coordination Sequence:
#
# PCOD9320423 Si02
#       7
#     8   8   8   8   8   8   8
#     4  11  23  41  64  88 127 164 205 258 310 373
#     4  11  23  40  59  92 124 157 206 255 306 377
#     4  10  23  41  63  91 124 160 207 259 312 372
#     4  11  22  40  61  89 123 165 209 254 309 373
#     4  11  23  41  63  92 122 162 208 257 311 368
#     4  10  23  39  62  91 124 160 207 256 311 375
#     4  12  22  37  64  95 123 159 204 258 311 362
#
# _framework density 19.94435
#
# number of rings (size 3 to 8) (size 9 to 14) (size 15 to 20)
#    0.000    1.143    4.286    2.143    2.000    1.143 
#    2.571    0.000    0.000    3.429    0.000    0.000 
#    0.000    0.000    0.000    0.000    0.000    0.000 
#
# Total GULP energy -156334.204337 kJ/mol
# GULP energy per Si atom -5583.364441 kJ/mol
# Density = 1.989896 g / cm^3
# Si number density = 19.944350 Si / 1000 Ang^3
#
#
#
# Elastic Constant Matrix: (Units=GPa)
#
#
# Indices 1 2 3 4 5 6 
#
# 1 15.4642 8.1971 -7.7188 0.0000 0.0000 0.0000
# 2 8.1971 113.4233 18.1832 0.0000 0.0000 0.0000
# 3 -7.7188 18.1832 73.5127 0.0000 0.0000 0.0000
# 4 0.0000 0.0000 0.0000 26.0382 0.0000 0.0000
# 5 0.0000 0.0000 0.0000 0.0000 22.6347 0.0000
# 6 0.0000 0.0000 0.0000 0.0000 0.0000 14.0181
#
#
#
# Elastic Compliance Matrix: (Units=1/GPa)
#
#
# Indices 1 2 3 4 5 6 
#
# 1 0.072907 -0.006764 0.009328 0.000000 0.000000 0.000000
# 2 -0.006764 0.009808 -0.003136 0.000000 0.000000 0.000000
# 3 0.009328 -0.003136 0.015358 0.000000 0.000000 0.000000
# 4 0.000000 0.000000 0.000000 0.038405 0.000000 0.000000
# 5 0.000000 0.000000 0.000000 0.000000 0.044180 0.000000
# 6 0.000000 0.000000 0.000000 0.000000 0.000000 0.071336
#
#
# Mechanical properties :
#
#
# Convention : Reuss Voigt Hill
#
# Bulk Modulus (GPa) = 10.31682 26.63590 18.47636
# Shear Modulus (GPa) = 17.51623 24.78745 21.15184
#
# Velocity S-wave (km/s) = 2.96675 3.52920 3.26013
# Velocity P-wave (km/s) = 4.11333 5.47642 4.84307
#
# Compressibility (1/GPa) = 0.09692908
#
# Stress axis : x y z
#
# Youngs Moduli (GPa) = 13.71605 101.95559 65.11129
#
# Poissons Ratio (x) = 0.68968 -0.60739
# Poissons Ratio (y) = 0.09278 0.20421
# Poissons Ratio (z) = -0.12795 0.31976
#
# Static dielectric constant tensor:
#      x y z
#    x 1.691170 0.000000 0.000000 
#    y 0.000000 1.749660 0.000000 
#    z 0.000000 0.000000 1.683690 
# 
# From -- ./inp_files/20063.got.cif
#   From: 2010.05.17/outbox.cif.g08.bks.cpg/sg20_11_cif.got.tgz:20063.got - 2010.06.03 22:52:26.
