data_PCOD9320751
_publ_section_title
;
Structure prediction by ZEFSAII (Michael W. Deem and Ramdas Pophale) SiO2 
 PCOD9320751
Probable space group: C 2 2 21
;
_chemical_formula_sum "Si O2"
_cell_formula_units_Z 32
_cell_length_a 13.334811
_cell_length_b 7.180510
_cell_length_c 11.792287
_cell_angle_alpha 90.000000
_cell_angle_beta 90.000000
_cell_angle_gamma 90.000000
_cell_volume 1129.120251
_symmetry_space_group_name_H-M "C 2 2 21"
_symmetry_group_IT_number 20
_symmetry_cell_setting 'orthorhombic'
loop_
_space_group_symop_operation_xyz
x,y,z
-x,-y,1/2+z
x,-y,-z
-x,y,1/2-z
1/2+x,1/2+y,z
1/2-x,1/2-y,1/2+z
1/2+x,1/2-y,-z
1/2-x,1/2+y,1/2-z
loop_
_atom_site_type_symbol
_atom_site_label
_atom_site_fract_x
_atom_site_fract_y
_atom_site_fract_z
Si Si1 0.120604 0.671092 0.873194
Si Si2 0.935611 0.000000 0.500000
Si Si3 0.605585 0.147028 0.623176
Si Si4 0.829733 0.244514 0.883767
Si Si5 0.000000 0.089772 0.750000
O O1 0.124005 0.809960 0.980758
O O2 0.117412 0.749050 0.743272
O O3 0.235236 0.606826 0.877073
O O4 0.011403 0.574924 0.881549
O O5 0.985512 0.003671 0.624423
O O6 0.622153 0.264014 0.509483
O O7 0.680550 0.970660 0.625220
O O8 0.900759 0.206238 0.777191
#
# Coordination Sequence:
#
# PCOD9320751 Si02
#       5
#     8   4   8   8   4
#     4  11  24  45  73 100 146 192 238 311 372 428
#     4  12  26  46  72 102 152 186 250 306 370 442
#     4  10  23  49  70 106 146 187 245 317 356 452
#     4  11  25  44  77 102 145 195 249 299 384 439
#     4  12  26  46  70 112 140 200 244 310 368 458
#
# _framework density 28.340647000000001
#
# number of rings (size 3 to 8) (size 9 to 14) (size 15 to 20)
#    0.000    1.000    2.500    4.500    7.000    0.000 
#    0.000    2.500    0.000    0.000    0.000    0.000 
#    0.000    0.000    0.000    0.000    0.000    0.000 
#
# Total GULP energy -89176.579541 kJ/mol
# GULP energy per Si atom -5573.536221 kJ/mol
# Density = 2.827614 g / cm^3
# Si number density = 28.340647 Si / 1000 Ang^3
#
#
#
# Elastic Constant Matrix: (Units=GPa)
#
#
# Indices 1 2 3 4 5 6 
#
# 1 135.6653 -1.3268 38.1044 0.0000 0.0000 0.0000
# 2 -1.3268 39.0309 42.3580 0.0000 0.0000 0.0000
# 3 38.1044 42.3580 270.6533 0.0000 0.0000 0.0000
# 4 0.0000 0.0000 0.0000 68.0131 0.0000 0.0000
# 5 0.0000 0.0000 0.0000 0.0000 43.3974 0.0000
# 6 0.0000 0.0000 0.0000 0.0000 0.0000 22.5807
#
#
#
# Elastic Compliance Matrix: (Units=1/GPa)
#
#
# Indices 1 2 3 4 5 6 
#
# 1 0.007772 0.001749 -0.001368 0.000000 0.000000 0.000000
# 2 0.001749 0.031256 -0.005138 0.000000 0.000000 0.000000
# 3 -0.001368 -0.005138 0.004691 0.000000 0.000000 0.000000
# 4 0.000000 0.000000 0.000000 0.014703 0.000000 0.000000
# 5 0.000000 0.000000 0.000000 0.000000 0.023043 0.000000
# 6 0.000000 0.000000 0.000000 0.000000 0.000000 0.044286
#
#
# Mechanical properties :
#
#
# Convention : Reuss Voigt Hill
#
# Bulk Modulus (GPa) = 29.23486 67.06900 48.15193
# Shear Modulus (GPa) = 34.09076 51.21250 42.65163
#
# Velocity S-wave (km/s) = 3.47204 4.25553 3.88359
# Velocity P-wave (km/s) = 5.13919 6.91829 6.09402
#
# Compressibility (1/GPa) = 0.03420574
#
# Stress axis : x y z
#
# Youngs Moduli (GPa) = 128.66048 31.99387 213.15425
#
# Poissons Ratio (x) = -0.05595 0.29158
# Poissons Ratio (y) = -0.22499 1.09515
# Poissons Ratio (z) = 0.17600 0.16438
#
# Static dielectric constant tensor:
#      x y z
#    x 2.390210 0.000000 0.000000 
#    y 0.000000 2.463560 0.000000 
#    z 0.000000 0.000000 2.073990 
# 
# From -- ./inp_files/14694.got.cif
#   From: 2010.05.17/outbox.cif.g08.bks.cpg/sg20_8_cif.got.tgz:14694.got - 2010.06.03 22:52:26.
