data_PCOD9320990
_publ_section_title
;
Structure prediction by ZEFSAII (Michael W. Deem and Ramdas Pophale) SiO2 
 PCOD9320990
Probable space group: C 2 2 21
;
_chemical_formula_sum "Si O2"
_cell_formula_units_Z 16
_cell_length_a 10.007414
_cell_length_b 4.922194
_cell_length_c 10.790256
_cell_angle_alpha 90.000000
_cell_angle_beta 90.000000
_cell_angle_gamma 90.000000
_cell_volume 531.511104
_symmetry_space_group_name_H-M "C 2 2 21"
_symmetry_group_IT_number 20
_symmetry_cell_setting 'orthorhombic'
loop_
_space_group_symop_operation_xyz
x,y,z
-x,-y,1/2+z
x,-y,-z
-x,y,1/2-z
1/2+x,1/2+y,z
1/2-x,1/2-y,1/2+z
1/2+x,1/2-y,-z
1/2-x,1/2+y,1/2-z
loop_
_atom_site_type_symbol
_atom_site_label
_atom_site_fract_x
_atom_site_fract_y
_atom_site_fract_z
Si Si1 0.775383 0.068703 0.329773
Si Si2 0.004872 0.703799 0.394577
O O1 0.718740 0.777341 0.284208
O O2 0.664619 0.214780 0.415238
O O3 0.919468 0.978903 0.380005
O O4 0.951206 0.500000 0.500000
O O5 0.000000 0.604277 0.250000
#
# Coordination Sequence:
#
# PCOD9320990 Si02
#       2
#     8   8
#     4  10  24  48  74 108 146 192 242 300 362 432
#     4  10  24  46  74 106 146 190 242 298 362 430
#
# _framework density 30.102855000000002
#
# number of rings (size 3 to 8) (size 9 to 14) (size 15 to 20)
#    0.000    2.000    0.000    0.000    0.000   34.000 
#    0.000   20.000    0.000    0.000    0.000    0.000 
#    0.000    0.000    0.000    0.000    0.000    0.000 
#
# Total GULP energy -44678.201385 kJ/mol
# GULP energy per Si atom -5584.775173 kJ/mol
# Density = 3.003434 g / cm^3
# Si number density = 30.102855 Si / 1000 Ang^3
#
#
#
# Elastic Constant Matrix: (Units=GPa)
#
#
# Indices 1 2 3 4 5 6 
#
# 1 241.3535 86.2453 -1.7018 0.0000 0.0000 0.0000
# 2 86.2453 216.6338 58.1556 0.0000 0.0000 0.0000
# 3 -1.7018 58.1556 167.7479 0.0000 0.0000 0.0000
# 4 0.0000 0.0000 0.0000 66.1611 0.0000 0.0000
# 5 0.0000 0.0000 0.0000 0.0000 -2.9292 0.0000
# 6 0.0000 0.0000 0.0000 0.0000 0.0000 96.8876
#
#
#
# Elastic Compliance Matrix: (Units=1/GPa)
#
#
# Indices 1 2 3 4 5 6 
#
# 1 0.004927 -0.002178 0.000805 0.000000 0.000000 0.000000
# 2 -0.002178 0.006052 -0.002120 0.000000 0.000000 0.000000
# 3 0.000805 -0.002120 0.006705 0.000000 0.000000 0.000000
# 4 0.000000 0.000000 0.000000 0.015115 0.000000 0.000000
# 5 0.000000 0.000000 0.000000 0.000000 -0.341393 0.000000
# 6 0.000000 0.000000 0.000000 0.000000 0.000000 0.010321
#
#
# Mechanical properties :
#
#
# Convention : Reuss Voigt Hill
#
# Bulk Modulus (GPa) = 93.47622 101.23705 97.35663
# Shear Modulus (GPa) = -17.37795 64.22632 23.42418
#
# Velocity S-wave (km/s) = -2.40528 4.62406 2.79254
# Velocity P-wave (km/s) = 4.83796 7.88750 6.54288
#
# Compressibility (1/GPa) = 0.01069791
#
# Stress axis : x y z
#
# Youngs Moduli (GPa) = 202.95752 165.22797 149.15189
#
# Poissons Ratio (x) = 0.35981 -0.12006
# Poissons Ratio (y) = 0.44197 0.31625
# Poissons Ratio (z) = -0.16337 0.35034
#
# Static dielectric constant tensor:
#      x y z
#    x 2.504410 0.000000 0.000000 
#    y 0.000000 2.228970 0.000000 
#    z 0.000000 0.000000 2.389320 
# 
# From -- ./inp_files/11658.got.cif
#   From: 2010.05.17/outbox.cif.g08.bks.cpg/sg20_6_cif.got.tgz:11658.got - 2010.06.03 22:52:26.
