data_PCOD9320225
_publ_section_title
;
Structure prediction by ZEFSAII (Michael W. Deem and Ramdas Pophale) SiO2 
 PCOD9320225
Probable space group: C 2 2 21
;
_chemical_formula_sum "Si O2"
_cell_formula_units_Z 52
_cell_length_a 11.828421
_cell_length_b 8.269004
_cell_length_c 26.300069
_cell_angle_alpha 90.000000
_cell_angle_beta 90.000000
_cell_angle_gamma 90.000000
_cell_volume 2572.390302
_symmetry_space_group_name_H-M "C 2 2 21"
_symmetry_group_IT_number 20
_symmetry_cell_setting 'orthorhombic'
loop_
_space_group_symop_operation_xyz
x,y,z
-x,-y,1/2+z
x,-y,-z
-x,y,1/2-z
1/2+x,1/2+y,z
1/2-x,1/2-y,1/2+z
1/2+x,1/2-y,-z
1/2-x,1/2+y,1/2-z
loop_
_atom_site_type_symbol
_atom_site_label
_atom_site_fract_x
_atom_site_fract_y
_atom_site_fract_z
Si Si1 0.657381 0.246563 0.315905
Si Si2 0.008220 0.715000 0.585379
Si Si3 0.781516 0.443975 0.244521
Si Si4 0.566461 0.949095 0.833128
Si Si5 0.226894 0.269714 0.359999
Si Si6 0.729378 0.617926 0.088257
Si Si7 0.383505 0.000000 0.000000
O O1 0.676315 0.402119 0.281115
O O2 0.531359 0.178108 0.318985
O O3 0.711924 0.241427 0.371712
O O4 0.728943 0.113664 0.284226
O O5 0.981625 0.576752 0.627134
O O6 0.898872 0.826722 0.579731
O O7 0.119732 0.797920 0.609181
O O8 0.042261 0.621034 0.534155
O O9 0.885571 0.461817 0.283378
O O10 0.799789 0.319934 0.198205
O O11 0.669884 0.852704 0.857826
O O12 0.262343 0.438385 0.387185
O O13 0.803308 0.603079 0.037492
#
# Coordination Sequence:
#
# PCOD9320225 Si02
#       7
#     8   8   8   8   8   8   4
#     4  11  22  39  63  94 127 174 208 254 311 380
#     4  11  23  43  69  89 121 167 206 269 323 375
#     4  11  21  35  61  94 128 170 209 243 309 374
#     4  12  22  39  65  88 132 167 210 259 307 377
#     4  10  24  39  59  99 129 167 212 250 314 381
#     4  10  22  44  64  90 128 160 211 266 317 376
#     4  10  22  44  64  94 120 160 214 270 330 374
#
# _framework density 20.214663000000002
#
# number of rings (size 3 to 8) (size 9 to 14) (size 15 to 20)
#    0.000    1.231    7.692    0.462    0.000    3.692 
#    0.000    1.538    0.000    0.000    0.000    0.000 
#    0.000    0.000    0.000    0.000    0.000    0.000 
#
# Total GULP energy -145191.160625 kJ/mol
# GULP energy per Si atom -5584.275409 kJ/mol
# Density = 2.016865 g / cm^3
# Si number density = 20.214663 Si / 1000 Ang^3
#
#
#
# Elastic Constant Matrix: (Units=GPa)
#
#
# Indices 1 2 3 4 5 6 
#
# 1 133.2435 33.1726 48.5451 0.0000 0.0000 0.0000
# 2 33.1726 20.6516 12.9676 0.0000 0.0000 0.0000
# 3 48.5451 12.9676 120.8886 0.0000 0.0000 0.0000
# 4 0.0000 0.0000 0.0000 13.3564 0.0000 0.0000
# 5 0.0000 0.0000 0.0000 0.0000 32.4661 0.0000
# 6 0.0000 0.0000 0.0000 0.0000 0.0000 44.8612
#
#
#
# Elastic Compliance Matrix: (Units=1/GPa)
#
#
# Indices 1 2 3 4 5 6 
#
# 1 0.013671 -0.019850 -0.003361 0.000000 0.000000 0.000000
# 2 -0.019850 0.080741 -0.000690 0.000000 0.000000 0.000000
# 3 -0.003361 -0.000690 0.009696 0.000000 0.000000 0.000000
# 4 0.000000 0.000000 0.000000 0.074870 0.000000 0.000000
# 5 0.000000 0.000000 0.000000 0.000000 0.030801 0.000000
# 6 0.000000 0.000000 0.000000 0.000000 0.000000 0.022291
#
#
# Mechanical properties :
#
#
# Convention : Reuss Voigt Hill
#
# Bulk Modulus (GPa) = 17.75992 51.57270 34.66631
# Shear Modulus (GPa) = 16.74255 30.14330 23.44292
#
# Velocity S-wave (km/s) = 2.88103 3.86574 3.40913
# Velocity P-wave (km/s) = 4.45779 6.74486 5.71686
#
# Compressibility (1/GPa) = 0.05630656
#
# Stress axis : x y z
#
# Youngs Moduli (GPa) = 73.14542 12.38533 103.13925
#
# Poissons Ratio (x) = 0.24585 0.34662
# Poissons Ratio (y) = 1.45194 0.07114
# Poissons Ratio (z) = 0.24582 0.00854
#
# Static dielectric constant tensor:
#      x y z
#    x 1.721750 0.000000 0.000000 
#    y 0.000000 1.770610 0.000000 
#    z 0.000000 0.000000 1.721790 
# 
# From -- ./inp_files/30276.got.cif
#   From: 2010.05.17/outbox.cif.g08.bks.cpg/sg20_16_cif.got.tgz:30276.got - 2010.06.03 22:52:26.
