data_PCOD9320641
_publ_section_title
;
Structure prediction by ZEFSAII (Michael W. Deem and Ramdas Pophale) SiO2 
 PCOD9320641
Probable space group: C 2 2 21
;
_chemical_formula_sum "Si O2"
_cell_formula_units_Z 32
_cell_length_a 18.600751
_cell_length_b 13.602782
_cell_length_c 5.126343
_cell_angle_alpha 90.000000
_cell_angle_beta 90.000000
_cell_angle_gamma 90.000000
_cell_volume 1297.077358
_symmetry_space_group_name_H-M "C 2 2 21"
_symmetry_group_IT_number 20
_symmetry_cell_setting 'orthorhombic'
loop_
_space_group_symop_operation_xyz
x,y,z
-x,-y,1/2+z
x,-y,-z
-x,y,1/2-z
1/2+x,1/2+y,z
1/2-x,1/2-y,1/2+z
1/2+x,1/2-y,-z
1/2-x,1/2+y,1/2-z
loop_
_atom_site_type_symbol
_atom_site_label
_atom_site_fract_x
_atom_site_fract_y
_atom_site_fract_z
Si Si1 0.770847 0.684597 0.287596
Si Si2 0.699046 0.500000 0.000000
Si Si3 0.048778 0.500000 0.500000
Si Si4 0.579611 0.802803 0.627443
Si Si5 0.917181 0.905230 0.163068
O O1 0.740326 0.739837 0.543105
O O2 0.856944 0.681068 0.332934
O O3 0.744086 0.573729 0.196993
O O4 0.643884 0.581413 0.880154
O O5 0.088435 0.398071 0.449962
O O6 0.000000 0.514428 0.250000
O O7 0.500000 0.797185 0.750000
O O8 0.589362 0.695749 0.505316
O O9 0.000000 0.912198 0.250000
O O10 0.902604 0.000000 0.000000
#
# Coordination Sequence:
#
# PCOD9320641 Si02
#       5
#     8   4   4   8   8
#     4  12  27  47  71 107 147 191 241 295 369 435
#     4  12  25  44  74 102 153 188 240 306 363 438
#     4  10  23  44  70 104 141 188 246 298 357 414
#     4  10  23  46  72 105 145 189 246 300 355 436
#     4  11  22  41  69 108 145 190 242 298 369 433
#
# _framework density 24.670850000000002
#
# number of rings (size 3 to 8) (size 9 to 14) (size 15 to 20)
#    0.000    1.000    3.750    2.250    0.000    5.000 
#    4.500    0.000    0.000    0.000    0.000    0.000 
#    0.000    0.000    0.000    0.000    0.000    0.000 
#
# Total GULP energy -89121.243136 kJ/mol
# GULP energy per Si atom -5570.077696 kJ/mol
# Density = 2.461470 g / cm^3
# Si number density = 24.670850 Si / 1000 Ang^3
#
#
#
# Elastic Constant Matrix: (Units=GPa)
#
#
# Indices 1 2 3 4 5 6 
#
# 1 150.8893 6.4539 12.3019 0.0000 0.0000 0.0000
# 2 6.4539 217.4859 24.7264 0.0000 0.0000 0.0000
# 3 12.3019 24.7264 80.5299 0.0000 0.0000 0.0000
# 4 0.0000 0.0000 0.0000 28.8534 0.0000 0.0000
# 5 0.0000 0.0000 0.0000 0.0000 18.4827 0.0000
# 6 0.0000 0.0000 0.0000 0.0000 0.0000 -18.1073
#
#
#
# Elastic Compliance Matrix: (Units=1/GPa)
#
#
# Indices 1 2 3 4 5 6 
#
# 1 0.006712 -0.000086 -0.000999 0.000000 0.000000 0.000000
# 2 -0.000086 0.004765 -0.001450 0.000000 0.000000 0.000000
# 3 -0.000999 -0.001450 0.013016 0.000000 0.000000 0.000000
# 4 0.000000 0.000000 0.000000 0.034658 0.000000 0.000000
# 5 0.000000 0.000000 0.000000 0.000000 0.054105 0.000000
# 6 0.000000 0.000000 0.000000 0.000000 0.000000 -0.055226
#
#
# Mechanical properties :
#
#
# Convention : Reuss Voigt Hill
#
# Bulk Modulus (GPa) = 51.48316 59.54106 55.51211
# Shear Modulus (GPa) = 71.86576 32.87395 52.36985
#
# Velocity S-wave (km/s) = 5.40306 3.65430 4.61232
# Velocity P-wave (km/s) = 7.73546 6.48011 7.13545
#
# Compressibility (1/GPa) = 0.01942383
#
# Stress axis : x y z
#
# Youngs Moduli (GPa) = 148.97592 209.84575 76.83068
#
# Poissons Ratio (x) = 0.01796 0.07676
# Poissons Ratio (y) = 0.01275 0.11141
# Poissons Ratio (z) = 0.14885 0.30430
#
# Static dielectric constant tensor:
#      x y z
#    x 2.511050 0.000000 0.000000 
#    y 0.000000 2.134170 0.000000 
#    z 0.000000 0.000000 2.259400 
# 
# From -- ./inp_files/1614.got.cif
#   From: 2010.05.17/outbox.cif.g08.bks.cpg/sg20_1_cif.got.tgz:1614.got - 2010.06.03 22:52:26.
