data_PCOD9320704
_publ_section_title
;
Structure prediction by ZEFSAII (Michael W. Deem and Ramdas Pophale) SiO2 
 PCOD9320704
Probable space group: C 2 2 21
;
_chemical_formula_sum "Si O2"
_cell_formula_units_Z 32
_cell_length_a 18.070496
_cell_length_b 12.826533
_cell_length_c 5.083232
_cell_angle_alpha 90.000000
_cell_angle_beta 90.000000
_cell_angle_gamma 90.000000
_cell_volume 1178.200730
_symmetry_space_group_name_H-M "C 2 2 21"
_symmetry_group_IT_number 20
_symmetry_cell_setting 'orthorhombic'
loop_
_space_group_symop_operation_xyz
x,y,z
-x,-y,1/2+z
x,-y,-z
-x,y,1/2-z
1/2+x,1/2+y,z
1/2-x,1/2-y,1/2+z
1/2+x,1/2-y,-z
1/2-x,1/2+y,1/2-z
loop_
_atom_site_type_symbol
_atom_site_label
_atom_site_fract_x
_atom_site_fract_y
_atom_site_fract_z
Si Si1 0.500000 0.664938 0.250000
Si Si2 0.920249 0.000000 0.500000
Si Si3 0.308804 0.398530 0.915466
Si Si4 0.332154 0.811290 0.821677
Si Si5 0.582782 0.135606 0.790178
O O1 0.477153 0.595753 0.493640
O O2 0.434883 0.745343 0.203687
O O3 0.869778 0.039260 0.259141
O O4 0.334359 0.315550 0.137515
O O5 0.384778 0.147048 0.417287
O O6 0.261753 0.500000 0.000000
O O7 0.253695 0.668718 0.261038
O O8 0.355609 0.882493 0.071348
O O9 0.500000 0.085316 0.750000
#
# Coordination Sequence:
#
# PCOD9320704 Si02
#       5
#     4   4   8   8   8
#     4  10  24  42  70 108 156 192 254 318 404 480
#     4  12  26  46  68 118 162 206 250 332 406 490
#     4  12  29  46  77 113 163 213 272 323 398 481
#     4  12  25  49  76 110 159 209 262 324 396 475
#     4  10  23  45  75 107 144 202 257 322 395 471
#
# _framework density 27.160055
#
# number of rings (size 3 to 8) (size 9 to 14) (size 15 to 20)
#    0.750    0.000    2.500    3.750    8.750    2.000 
#    0.000    0.000    0.000    3.000    0.000    0.000 
#    0.000    0.000    0.000    0.000    0.000    0.000 
#
# Total GULP energy -89143.115671 kJ/mol
# GULP energy per Si atom -5571.444729 kJ/mol
# Density = 2.709824 g / cm^3
# Si number density = 27.160055 Si / 1000 Ang^3
#
#
#
# Elastic Constant Matrix: (Units=GPa)
#
#
# Indices 1 2 3 4 5 6 
#
# 1 94.0182 -1.7785 69.1166 0.0000 0.0000 0.0000
# 2 -1.7785 87.6868 48.8584 0.0000 0.0000 0.0000
# 3 69.1166 48.8584 124.4482 0.0000 0.0000 0.0000
# 4 0.0000 0.0000 0.0000 33.0544 0.0000 0.0000
# 5 0.0000 0.0000 0.0000 0.0000 38.4092 0.0000
# 6 0.0000 0.0000 0.0000 0.0000 0.0000 25.1975
#
#
#
# Elastic Compliance Matrix: (Units=1/GPa)
#
#
# Indices 1 2 3 4 5 6 
#
# 1 0.023026 0.009719 -0.016604 0.000000 0.000000 0.000000
# 2 0.009719 0.018699 -0.012739 0.000000 0.000000 0.000000
# 3 -0.016604 -0.012739 0.022258 0.000000 0.000000 0.000000
# 4 0.000000 0.000000 0.000000 0.030253 0.000000 0.000000
# 5 0.000000 0.000000 0.000000 0.000000 0.026035 0.000000
# 6 0.000000 0.000000 0.000000 0.000000 0.000000 0.039686
#
#
# Mechanical properties :
#
#
# Convention : Reuss Voigt Hill
#
# Bulk Modulus (GPa) = 40.42771 59.83845 50.13308
# Shear Modulus (GPa) = 24.10181 31.99601 28.04891
#
# Velocity S-wave (km/s) = 2.98216 3.43600 3.21709
# Velocity P-wave (km/s) = 5.17445 6.14989 5.68314
#
# Compressibility (1/GPa) = 0.02473551
#
# Stress axis : x y z
#
# Youngs Moduli (GPa) = 43.42836 53.47760 44.92671
#
# Poissons Ratio (x) = -0.51973 0.74597
# Poissons Ratio (y) = -0.42207 0.57232
# Poissons Ratio (z) = 0.72109 0.68125
#
# Static dielectric constant tensor:
#      x y z
#    x 2.293840 0.000000 0.000000 
#    y 0.000000 2.208870 0.000000 
#    z 0.000000 0.000000 2.303950 
# 
# From -- ./inp_files/3129.got.cif
#   From: 2010.05.17/outbox.cif.g08.bks.cpg/sg20_2_cif.got.tgz:3129.got - 2010.06.03 22:52:26.
