data_PCOD9320298
_publ_section_title
;
Structure prediction by ZEFSAII (Michael W. Deem and Ramdas Pophale) SiO2 
 PCOD9320298
Probable space group: C 2 2 21
;
_chemical_formula_sum "Si O2"
_cell_formula_units_Z 40
_cell_length_a 5.454150
_cell_length_b 11.842757
_cell_length_c 23.273849
_cell_angle_alpha 90.000000
_cell_angle_beta 90.000000
_cell_angle_gamma 90.000000
_cell_volume 1503.308483
_symmetry_space_group_name_H-M "C 2 2 21"
_symmetry_group_IT_number 20
_symmetry_cell_setting 'orthorhombic'
loop_
_space_group_symop_operation_xyz
x,y,z
-x,-y,1/2+z
x,-y,-z
-x,y,1/2-z
1/2+x,1/2+y,z
1/2-x,1/2-y,1/2+z
1/2+x,1/2-y,-z
1/2-x,1/2+y,1/2-z
loop_
_atom_site_type_symbol
_atom_site_label
_atom_site_fract_x
_atom_site_fract_y
_atom_site_fract_z
Si Si1 0.000000 0.585805 0.250000
Si Si2 0.796554 0.000000 0.500000
Si Si3 0.052766 0.250715 0.641203
Si Si4 0.880809 0.111768 0.092814
Si Si5 0.861498 0.025149 0.686082
Si Si6 0.963338 0.604752 0.595913
O O1 0.025266 0.659105 0.307342
O O2 0.751436 0.512797 0.246750
O O3 0.951247 0.910156 0.537379
O O4 0.639842 0.919481 0.457979
O O5 0.819442 0.287909 0.601205
O O6 0.023492 0.134774 0.676330
O O7 0.300190 0.218780 0.604631
O O8 0.035838 0.080987 0.150127
O O9 0.720600 0.998123 0.088109
O O10 0.619189 0.073319 0.652241
#
# Coordination Sequence:
#
# PCOD9320298 Si02
#       6
#     4   4   8   8   8   8
#     4  12  26  44  74 110 154 214 244 326 398 456
#     4  10  22  44  90 104 160 210 248 334 414 436
#     4  11  26  43  77 111 161 201 269 312 393 476
#     4  10  22  46  76 108 154 203 256 327 380 469
#     4  10  25  43  71 107 155 199 260 313 379 474
#     4  10  22  47  76 110 154 200 260 324 384 478
#
# _framework density 26.607979
#
# number of rings (size 3 to 8) (size 9 to 14) (size 15 to 20)
#    0.000    1.600    2.000    0.600    5.600    0.800 
#    0.000    0.000   74.800    0.000    0.000    0.000 
#    0.000    0.000    0.000    0.000    0.000    0.000 
#
# Total GULP energy -111672.637947 kJ/mol
# GULP energy per Si atom -5583.631897 kJ/mol
# Density = 2.654742 g / cm^3
# Si number density = 26.607979 Si / 1000 Ang^3
#
#
#
# Elastic Constant Matrix: (Units=GPa)
#
#
# Indices 1 2 3 4 5 6 
#
# 1 98.7037 17.4988 51.0585 0.0000 0.0000 0.0000
# 2 17.4988 168.5803 51.4905 0.0000 0.0000 0.0000
# 3 51.0585 51.4905 133.9306 0.0000 0.0000 0.0000
# 4 0.0000 0.0000 0.0000 39.4890 0.0000 0.0000
# 5 0.0000 0.0000 0.0000 0.0000 57.3619 0.0000
# 6 0.0000 0.0000 0.0000 0.0000 0.0000 57.8749
#
#
#
# Elastic Compliance Matrix: (Units=1/GPa)
#
#
# Indices 1 2 3 4 5 6 
#
# 1 0.012625 0.000181 -0.004883 0.000000 0.000000 0.000000
# 2 0.000181 0.006724 -0.002654 0.000000 0.000000 0.000000
# 3 -0.004883 -0.002654 0.010348 0.000000 0.000000 0.000000
# 4 0.000000 0.000000 0.000000 0.025324 0.000000 0.000000
# 5 0.000000 0.000000 0.000000 0.000000 0.017433 0.000000
# 6 0.000000 0.000000 0.000000 0.000000 0.000000 0.017279
#
#
# Mechanical properties :
#
#
# Convention : Reuss Voigt Hill
#
# Bulk Modulus (GPa) = 66.73045 71.25668 68.99357
# Shear Modulus (GPa) = 45.68764 49.68962 47.68863
#
# Velocity S-wave (km/s) = 4.14824 4.32611 4.23811
# Velocity P-wave (km/s) = 6.93379 7.19667 7.06645
#
# Compressibility (1/GPa) = 0.01498566
#
# Stress axis : x y z
#
# Youngs Moduli (GPa) = 79.20804 148.72714 96.63471
#
# Poissons Ratio (x) = -0.02689 0.47182
# Poissons Ratio (y) = -0.01432 0.25646
# Poissons Ratio (z) = 0.38674 0.39471
#
# Static dielectric constant tensor:
#      x y z
#    x 2.317540 0.000000 0.000000 
#    y 0.000000 2.131400 0.000000 
#    z 0.000000 0.000000 2.093690 
# 
# From -- ./inp_files/29721.got.cif
#   From: 2010.05.17/outbox.cif.g08.bks.cpg/sg20_15_cif.got.tgz:29721.got - 2010.06.03 22:52:26.
