data_PCOD9320946
_publ_section_title
;
Structure prediction by ZEFSAII (Michael W. Deem and Ramdas Pophale) SiO2 
 PCOD9320946
Probable space group: C 2 2 21
;
_chemical_formula_sum "Si O2"
_cell_formula_units_Z 32
_cell_length_a 5.023438
_cell_length_b 33.122115
_cell_length_c 7.935127
_cell_angle_alpha 90.000000
_cell_angle_beta 90.000000
_cell_angle_gamma 90.000000
_cell_volume 1320.301112
_symmetry_space_group_name_H-M "C 2 2 21"
_symmetry_group_IT_number 20
_symmetry_cell_setting 'orthorhombic'
loop_
_space_group_symop_operation_xyz
x,y,z
-x,-y,1/2+z
x,-y,-z
-x,y,1/2-z
1/2+x,1/2+y,z
1/2-x,1/2-y,1/2+z
1/2+x,1/2-y,-z
1/2-x,1/2+y,1/2-z
loop_
_atom_site_type_symbol
_atom_site_label
_atom_site_fract_x
_atom_site_fract_y
_atom_site_fract_z
Si Si1 0.677278 0.194545 0.403810
Si Si2 0.399275 0.612784 0.437751
Si Si3 0.000000 0.732751 0.750000
Si Si4 0.000000 0.500632 0.750000
Si Si5 0.374521 0.936248 0.517960
O O1 0.500000 0.176645 0.250000
O O2 0.897353 0.161131 0.454035
O O3 0.556563 0.206422 0.584298
O O4 0.780951 0.235660 0.318305
O O5 0.500000 0.605490 0.250000
O O6 0.097303 0.597499 0.450094
O O7 0.611178 0.586688 0.544976
O O8 0.965740 0.533077 0.897202
O O9 0.799542 0.467641 0.669132
#
# Coordination Sequence:
#
# PCOD9320946 Si02
#       5
#     8   8   4   4   8
#     4  12  26  47  78 110 155 203 257 330 388 471
#     4  12  24  45  72 104 146 196 239 303 385 458
#     4  12  26  47  76 116 148 200 272 320 398 463
#     4  10  24  45  72 104 142 188 244 314 366 449
#     4  11  25  44  71 104 141 189 245 301 378 452
#
# _framework density 24.236892999999998
#
# number of rings (size 3 to 8) (size 9 to 14) (size 15 to 20)
#    0.000    0.500    6.250    1.500    0.000    8.000 
#    0.000    5.000    0.000    0.000    0.000    0.000 
#    0.000    0.000    0.000    0.000    0.000    0.000 
#
# Total GULP energy -89070.596023 kJ/mol
# GULP energy per Si atom -5566.912251 kJ/mol
# Density = 2.418173 g / cm^3
# Si number density = 24.236893 Si / 1000 Ang^3
#
#
#
# Elastic Constant Matrix: (Units=GPa)
#
#
# Indices 1 2 3 4 5 6 
#
# 1 102.2439 40.4882 31.5230 0.0000 0.0000 0.0000
# 2 40.4882 127.4251 40.2458 0.0000 0.0000 0.0000
# 3 31.5230 40.2458 116.7478 0.0000 0.0000 0.0000
# 4 0.0000 0.0000 0.0000 29.6958 0.0000 0.0000
# 5 0.0000 0.0000 0.0000 0.0000 12.9185 0.0000
# 6 0.0000 0.0000 0.0000 0.0000 0.0000 19.1088
#
#
#
# Elastic Compliance Matrix: (Units=1/GPa)
#
#
# Indices 1 2 3 4 5 6 
#
# 1 0.011627 -0.003033 -0.002094 0.000000 0.000000 0.000000
# 2 -0.003033 0.009598 -0.002490 0.000000 0.000000 0.000000
# 3 -0.002094 -0.002490 0.009989 0.000000 0.000000 0.000000
# 4 0.000000 0.000000 0.000000 0.033675 0.000000 0.000000
# 5 0.000000 0.000000 0.000000 0.000000 0.077408 0.000000
# 6 0.000000 0.000000 0.000000 0.000000 0.000000 0.052332
#
#
# Mechanical properties :
#
#
# Convention : Reuss Voigt Hill
#
# Bulk Modulus (GPa) = 62.57481 63.43673 63.00577
# Shear Modulus (GPa) = 23.23537 27.95529 25.59533
#
# Velocity S-wave (km/s) = 3.09961 3.39989 3.25321
# Velocity P-wave (km/s) = 6.21966 6.45312 6.33746
#
# Compressibility (1/GPa) = 0.01598087
#
# Stress axis : x y z
#
# Youngs Moduli (GPa) = 86.00530 104.19046 100.10940
#
# Poissons Ratio (x) = 0.31602 0.20962
# Poissons Ratio (y) = 0.26086 0.24924
# Poissons Ratio (z) = 0.18008 0.25940
#
# Static dielectric constant tensor:
#      x y z
#    x 2.000310 0.000000 0.000000 
#    y 0.000000 1.950130 0.000000 
#    z 0.000000 0.000000 1.900800 
# 
# From -- ./inp_files/5265.got.cif
#   From: 2010.05.17/outbox.cif.g08.bks.cpg/sg20_3_cif.got.tgz:5265.got - 2010.06.03 22:52:26.
