data_PCOD9320590
_publ_section_title
;
Structure prediction by ZEFSAII (Michael W. Deem and Ramdas Pophale) SiO2 
 PCOD9320590
Probable space group: C 2 2 21
;
_chemical_formula_sum "Si O2"
_cell_formula_units_Z 36
_cell_length_a 5.010395
_cell_length_b 22.291509
_cell_length_c 12.498673
_cell_angle_alpha 90.000000
_cell_angle_beta 90.000000
_cell_angle_gamma 90.000000
_cell_volume 1395.967604
_symmetry_space_group_name_H-M "C 2 2 21"
_symmetry_group_IT_number 20
_symmetry_cell_setting 'orthorhombic'
loop_
_space_group_symop_operation_xyz
x,y,z
-x,-y,1/2+z
x,-y,-z
-x,y,1/2-z
1/2+x,1/2+y,z
1/2-x,1/2-y,1/2+z
1/2+x,1/2-y,-z
1/2-x,1/2+y,1/2-z
loop_
_atom_site_type_symbol
_atom_site_label
_atom_site_fract_x
_atom_site_fract_y
_atom_site_fract_z
Si Si1 0.709736 0.938762 0.969049
Si Si2 0.009204 0.250154 0.067413
Si Si3 0.238952 0.631408 0.821509
Si Si4 0.500000 0.553591 0.250000
Si Si5 0.143827 0.650409 0.342496
O O1 0.901938 0.963396 0.872403
O O2 0.530811 0.882023 0.931813
O O3 0.827284 0.909461 0.077681
O O4 0.554565 0.000000 0.000000
O O5 0.107289 0.306700 0.135638
O O6 0.106562 0.188267 0.117628
O O7 0.198105 0.250802 0.961013
O O8 0.500000 0.641777 0.750000
O O9 0.000000 0.602084 0.750000
O O10 0.254676 0.594332 0.279407
O O11 0.000000 0.688436 0.250000
#
# Coordination Sequence:
#
# PCOD9320590 Si02
#       5
#     8   8   8   4   8
#     4  11  26  48  74 107 151 198 259 317 375 459
#     4  12  24  43  74 103 150 194 245 309 375 454
#     4  12  28  47  73 115 156 202 248 318 393 452
#     4  10  24  44  78 106 138 200 260 308 380 448
#     4  10  23  43  68 103 138 191 247 304 369 448
#
# _framework density 25.788561000000001
#
# number of rings (size 3 to 8) (size 9 to 14) (size 15 to 20)
#    0.000    0.889    2.222    3.333    9.333    3.556 
#    0.000    0.000    0.000    0.000    0.000    0.000 
#    0.000    0.000    0.000    0.000    0.000    0.000 
#
# Total GULP energy -100352.496294 kJ/mol
# GULP energy per Si atom -5575.138683 kJ/mol
# Density = 2.572987 g / cm^3
# Si number density = 25.788561 Si / 1000 Ang^3
#
#
#
# Elastic Constant Matrix: (Units=GPa)
#
#
# Indices 1 2 3 4 5 6 
#
# 1 59.0970 -3.2456 29.2580 0.0000 0.0000 0.0000
# 2 -3.2456 97.0270 41.8325 0.0000 0.0000 0.0000
# 3 29.2580 41.8325 143.3442 0.0000 0.0000 0.0000
# 4 0.0000 0.0000 0.0000 -16.1143 0.0000 0.0000
# 5 0.0000 0.0000 0.0000 0.0000 54.4910 0.0000
# 6 0.0000 0.0000 0.0000 0.0000 0.0000 14.2070
#
#
#
# Elastic Compliance Matrix: (Units=1/GPa)
#
#
# Indices 1 2 3 4 5 6 
#
# 1 0.019422 0.002698 -0.004752 0.000000 0.000000 0.000000
# 2 0.002698 0.012165 -0.004101 0.000000 0.000000 0.000000
# 3 -0.004752 -0.004101 0.009143 0.000000 0.000000 0.000000
# 4 0.000000 0.000000 0.000000 -0.062057 0.000000 0.000000
# 5 0.000000 0.000000 0.000000 0.000000 0.018352 0.000000
# 6 0.000000 0.000000 0.000000 0.000000 0.000000 0.070388
#
#
# Mechanical properties :
#
#
# Convention : Reuss Voigt Hill
#
# Bulk Modulus (GPa) = 35.18499 48.35088 41.76793
# Shear Modulus (GPa) = 56.05717 25.95829 41.00773
#
# Velocity S-wave (km/s) = 4.66738 3.17611 3.99200
# Velocity P-wave (km/s) = 6.53599 5.67802 6.12205
#
# Compressibility (1/GPa) = 0.02842121
#
# Stress axis : x y z
#
# Youngs Moduli (GPa) = 51.48800 82.20510 109.37539
#
# Poissons Ratio (x) = -0.22182 0.51972
# Poissons Ratio (y) = -0.13893 0.44853
# Poissons Ratio (z) = 0.24465 0.33711
#
# Static dielectric constant tensor:
#      x y z
#    x 2.006210 0.000000 0.000000 
#    y 0.000000 2.029570 0.000000 
#    z 0.000000 0.000000 1.821590 
# 
# From -- ./inp_files/12031.got.cif
#   From: 2010.05.17/outbox.cif.g08.bks.cpg/sg20_7_cif.got.tgz:12031.got - 2010.06.03 22:52:26.
