data_PCOD9320709
_publ_section_title
;
Structure prediction by ZEFSAII (Michael W. Deem and Ramdas Pophale) SiO2 
 PCOD9320709
Probable space group: C 2 2 21
;
_chemical_formula_sum "Si O2"
_cell_formula_units_Z 28
_cell_length_a 12.293073
_cell_length_b 7.467911
_cell_length_c 15.691780
_cell_angle_alpha 90.000000
_cell_angle_beta 90.000000
_cell_angle_gamma 90.000000
_cell_volume 1440.561503
_symmetry_space_group_name_H-M "C 2 2 21"
_symmetry_group_IT_number 20
_symmetry_cell_setting 'orthorhombic'
loop_
_space_group_symop_operation_xyz
x,y,z
-x,-y,1/2+z
x,-y,-z
-x,y,1/2-z
1/2+x,1/2+y,z
1/2-x,1/2-y,1/2+z
1/2+x,1/2-y,-z
1/2-x,1/2+y,1/2-z
loop_
_atom_site_type_symbol
_atom_site_label
_atom_site_fract_x
_atom_site_fract_y
_atom_site_fract_z
Si Si1 0.068809 0.461375 0.406385
Si Si2 0.358460 0.000000 0.500000
Si Si3 0.725550 0.345269 0.642825
Si Si4 0.613663 0.698735 0.712234
O O1 0.118148 0.500000 0.500000
O O2 0.128899 0.297356 0.363115
O O3 0.082099 0.639042 0.350654
O O4 0.942526 0.421823 0.429521
O O5 0.284863 0.862187 0.551547
O O6 0.678300 0.539464 0.666563
O O7 0.811218 0.278923 0.713081
O O8 0.500000 0.628024 0.750000
#
# Coordination Sequence:
#
# PCOD9320709 Si02
#       4
#     8   4   8   8
#     4  10  23  46  64  95 137 170 220 276 323 391
#     4  10  24  44  68  92 138 170 224 272 318 400
#     4  12  24  43  70  97 131 181 216 272 335 387
#     4  12  24  42  67 101 132 173 224 268 333 395
#
# _framework density 19.436865999999998
#
# number of rings (size 3 to 8) (size 9 to 14) (size 15 to 20)
#    0.857    0.000    5.714    1.714    0.000    3.429 
#    5.143    0.000    0.000    0.000    0.000    0.000 
#    0.000    0.000    0.000    0.000    0.000    0.000 
#
# Total GULP energy -78130.257730 kJ/mol
# GULP energy per Si atom -5580.732695 kJ/mol
# Density = 1.939263 g / cm^3
# Si number density = 19.436866 Si / 1000 Ang^3
#
#
#
# Elastic Constant Matrix: (Units=GPa)
#
#
# Indices 1 2 3 4 5 6 
#
# 1 97.4063 40.6789 7.0721 0.0000 0.0000 0.0000
# 2 40.6789 89.4124 19.8931 0.0000 0.0000 0.0000
# 3 7.0721 19.8931 39.0881 0.0000 0.0000 0.0000
# 4 0.0000 0.0000 0.0000 28.1659 0.0000 0.0000
# 5 0.0000 0.0000 0.0000 0.0000 35.8406 0.0000
# 6 0.0000 0.0000 0.0000 0.0000 0.0000 19.1459
#
#
#
# Elastic Compliance Matrix: (Units=1/GPa)
#
#
# Indices 1 2 3 4 5 6 
#
# 1 0.012693 -0.005936 0.000724 0.000000 0.000000 0.000000
# 2 -0.005936 0.015388 -0.006758 0.000000 0.000000 0.000000
# 3 0.000724 -0.006758 0.028891 0.000000 0.000000 0.000000
# 4 0.000000 0.000000 0.000000 0.035504 0.000000 0.000000
# 5 0.000000 0.000000 0.000000 0.000000 0.027901 0.000000
# 6 0.000000 0.000000 0.000000 0.000000 0.000000 0.052231
#
#
# Mechanical properties :
#
#
# Convention : Reuss Voigt Hill
#
# Bulk Modulus (GPa) = 30.27162 40.13279 35.20220
# Shear Modulus (GPa) = 24.08979 27.18132 25.63555
#
# Velocity S-wave (km/s) = 3.52431 3.74363 3.63563
# Velocity P-wave (km/s) = 5.67179 6.27527 5.98114
#
# Compressibility (1/GPa) = 0.03303424
#
# Stress axis : x y z
#
# Youngs Moduli (GPa) = 78.78620 64.98525 34.61256
#
# Poissons Ratio (x) = 0.38574 -0.02507
# Poissons Ratio (y) = 0.46766 0.23390
# Poissons Ratio (z) = -0.05708 0.43914
#
# Static dielectric constant tensor:
#      x y z
#    x 1.681960 0.000000 0.000000 
#    y 0.000000 1.624560 0.000000 
#    z 0.000000 0.000000 1.682630 
# 
# From -- ./inp_files/18140.got.cif
#   From: 2010.05.17/outbox.cif.g08.bks.cpg/sg20_10_cif.got.tgz:18140.got - 2010.06.03 22:52:26.
