data_PCOD9320335
_publ_section_title
;
Structure prediction by ZEFSAII (Michael W. Deem and Ramdas Pophale) SiO2 
 PCOD9320335
Probable space group: C 2 2 21
;
_chemical_formula_sum "Si O2"
_cell_formula_units_Z 32
_cell_length_a 9.651095
_cell_length_b 13.140684
_cell_length_c 11.023974
_cell_angle_alpha 90.000000
_cell_angle_beta 90.000000
_cell_angle_gamma 90.000000
_cell_volume 1398.082317
_symmetry_space_group_name_H-M "C 2 2 21"
_symmetry_group_IT_number 20
_symmetry_cell_setting 'orthorhombic'
loop_
_space_group_symop_operation_xyz
x,y,z
-x,-y,1/2+z
x,-y,-z
-x,y,1/2-z
1/2+x,1/2+y,z
1/2-x,1/2-y,1/2+z
1/2+x,1/2-y,-z
1/2-x,1/2+y,1/2-z
loop_
_atom_site_type_symbol
_atom_site_label
_atom_site_fract_x
_atom_site_fract_y
_atom_site_fract_z
Si Si1 0.761317 0.323668 0.867500
Si Si2 0.134089 0.142730 0.494304
Si Si3 0.593732 0.500000 0.000000
Si Si4 0.000000 0.567797 0.250000
Si Si5 0.000000 0.198553 0.250000
Si Si6 0.607461 0.000000 0.000000
O O1 0.633840 0.255293 0.816594
O O2 0.866535 0.361040 0.765997
O O3 0.849430 0.258031 0.962400
O O4 0.691560 0.424703 0.923748
O O5 0.015446 0.078158 0.564663
O O6 0.077444 0.138456 0.357252
O O7 0.283411 0.092453 0.505042
O O8 0.980245 0.507072 0.375968
#
# Coordination Sequence:
#
# PCOD9320335 Si02
#       6
#     8   8   4   4   4   4
#     4  11  24  46  72 109 151 199 259 322 388 472
#     4  10  23  47  74 106 152 205 256 324 392 464
#     4   9  23  46  72 104 154 198 254 314 400 458
#     4  12  26  47  73 116 156 194 274 323 397 478
#     4  10  22  45  75 102 156 196 262 317 379 484
#     4  11  25  48  70 116 154 202 258 334 388 474
#
# _framework density 22.888497000000001
#
# number of rings (size 3 to 8) (size 9 to 14) (size 15 to 20)
#    0.000    1.500    2.500    0.750    7.000    1.000 
#    9.000    0.000    0.000    0.000    0.000    0.000 
#    0.000    0.000    0.000    0.000    0.000    0.000 
#
# Total GULP energy -89120.041871 kJ/mol
# GULP energy per Si atom -5570.002617 kJ/mol
# Density = 2.283640 g / cm^3
# Si number density = 22.888497 Si / 1000 Ang^3
#
#
#
# Elastic Constant Matrix: (Units=GPa)
#
#
# Indices 1 2 3 4 5 6 
#
# 1 151.8487 37.2619 49.7759 0.0000 0.0000 0.0000
# 2 37.2619 74.2525 53.0678 0.0000 0.0000 0.0000
# 3 49.7759 53.0678 117.7030 0.0000 0.0000 0.0000
# 4 0.0000 0.0000 0.0000 1.7932 0.0000 0.0000
# 5 0.0000 0.0000 0.0000 0.0000 37.7473 0.0000
# 6 0.0000 0.0000 0.0000 0.0000 0.0000 -106.9668
#
#
#
# Elastic Compliance Matrix: (Units=1/GPa)
#
#
# Indices 1 2 3 4 5 6 
#
# 1 0.007909 -0.002329 -0.002295 0.000000 0.000000 0.000000
# 2 -0.002329 0.020556 -0.008283 0.000000 0.000000 0.000000
# 3 -0.002295 -0.008283 0.013201 0.000000 0.000000 0.000000
# 4 0.000000 0.000000 0.000000 0.557649 0.000000 0.000000
# 5 0.000000 0.000000 0.000000 0.000000 0.026492 0.000000
# 6 0.000000 0.000000 0.000000 0.000000 0.000000 -0.009349
#
#
# Mechanical properties :
#
#
# Convention : Reuss Voigt Hill
#
# Bulk Modulus (GPa) = 63.08073 69.33505 66.20789
# Shear Modulus (GPa) = 7.72134 0.09465 3.90800
#
# Velocity S-wave (km/s) = 1.83869 0.20358 1.30810
# Velocity P-wave (km/s) = 5.66812 5.51485 5.59201
#
# Compressibility (1/GPa) = 0.01585270
#
# Stress axis : x y z
#
# Youngs Moduli (GPa) = 126.43469 48.64712 75.75253
#
# Poissons Ratio (x) = 0.11330 0.17383
# Poissons Ratio (y) = 0.29447 0.62746
# Poissons Ratio (z) = 0.29013 0.40295
#
# Static dielectric constant tensor:
#      x y z
#    x 1.867880 0.000000 0.000000 
#    y 0.000000 1.935230 0.000000 
#    z 0.000000 0.000000 1.905640 
# 
# From -- ./inp_files/12540.got.cif
#   From: 2010.05.17/outbox.cif.g08.bks.cpg/sg20_7_cif.got.tgz:12540.got - 2010.06.03 22:52:26.
