data_PCOD9320092
_publ_section_title
;
Structure prediction by ZEFSAII (Michael W. Deem and Ramdas Pophale) SiO2 
 PCOD9320092
Probable space group: C 2 2 21
;
_chemical_formula_sum "Si O2"
_cell_formula_units_Z 48
_cell_length_a 30.328063
_cell_length_b 6.151358
_cell_length_c 12.927179
_cell_angle_alpha 90.000000
_cell_angle_beta 90.000000
_cell_angle_gamma 90.000000
_cell_volume 2411.678652
_symmetry_space_group_name_H-M "C 2 2 21"
_symmetry_group_IT_number 20
_symmetry_cell_setting 'orthorhombic'
loop_
_space_group_symop_operation_xyz
x,y,z
-x,-y,1/2+z
x,-y,-z
-x,y,1/2-z
1/2+x,1/2+y,z
1/2-x,1/2-y,1/2+z
1/2+x,1/2-y,-z
1/2-x,1/2+y,1/2-z
loop_
_atom_site_type_symbol
_atom_site_label
_atom_site_fract_x
_atom_site_fract_y
_atom_site_fract_z
Si Si1 0.660554 0.000000 0.500000
Si Si2 0.956593 0.792152 0.316038
Si Si3 0.613183 0.332946 0.849796
Si Si4 0.932038 0.500000 0.500000
Si Si5 0.121323 0.447964 0.708144
Si Si6 0.273449 0.649525 0.097578
Si Si7 0.691603 0.379560 0.202923
O O1 0.630292 0.093514 0.410622
O O2 0.690297 0.183409 0.553800
O O3 0.960465 0.643296 0.419241
O O4 0.924111 0.655673 0.243131
O O5 0.000000 0.839501 0.250000
O O6 0.928119 0.004426 0.343893
O O7 0.658626 0.464306 0.861067
O O8 0.619215 0.197064 0.743940
O O9 0.600178 0.160580 0.936969
O O10 0.161355 0.326190 0.766149
O O11 0.291703 0.503407 0.193072
O O12 0.233168 0.792469 0.140279
O O13 0.260318 0.500000 0.000000
#
# Coordination Sequence:
#
# PCOD9320092 Si02
#       7
#     4   8   8   4   8   8   8
#     4  12  22  43  66  94 130 180 222 274 341 398
#     4  10  23  44  70 102 136 171 212 277 335 401
#     4  10  22  44  68  92 136 174 222 276 333 406
#     4  10  22  45  70 100 128 178 222 268 327 412
#     4  10  22  42  68  93 131 172 222 273 333 404
#     4  12  26  43  66  96 139 179 233 290 338 408
#     4  11  24  45  63  96 133 179 229 285 340 398
#
# _framework density 19.90315
#
# number of rings (size 3 to 8) (size 9 to 14) (size 15 to 20)
#    0.000    1.333    3.333    1.500    0.000    3.333 
#   25.500    1.667    0.000    0.000    0.000    0.000 
#    0.000    0.000    0.000    0.000    0.000    0.000 
#
# Total GULP energy -134077.105820 kJ/mol
# GULP energy per Si atom -5586.546076 kJ/mol
# Density = 1.985785 g / cm^3
# Si number density = 19.903150 Si / 1000 Ang^3
#
#
#
# Elastic Constant Matrix: (Units=GPa)
#
#
# Indices 1 2 3 4 5 6 
#
# 1 95.9232 46.3915 55.3773 0.0000 0.0000 0.0000
# 2 46.3915 104.0113 41.0882 0.0000 0.0000 0.0000
# 3 55.3773 41.0882 93.4058 0.0000 0.0000 0.0000
# 4 0.0000 0.0000 0.0000 37.8653 0.0000 0.0000
# 5 0.0000 0.0000 0.0000 0.0000 26.3796 0.0000
# 6 0.0000 0.0000 0.0000 0.0000 0.0000 -3.3891
#
#
#
# Elastic Compliance Matrix: (Units=1/GPa)
#
#
# Indices 1 2 3 4 5 6 
#
# 1 0.017408 -0.004463 -0.008358 0.000000 0.000000 0.000000
# 2 -0.004463 0.012781 -0.002976 0.000000 0.000000 0.000000
# 3 -0.008358 -0.002976 0.016970 0.000000 0.000000 0.000000
# 4 0.000000 0.000000 0.000000 0.026409 0.000000 0.000000
# 5 0.000000 0.000000 0.000000 0.000000 0.037908 0.000000
# 6 0.000000 0.000000 0.000000 0.000000 0.000000 -0.295061
#
#
# Mechanical properties :
#
#
# Convention : Reuss Voigt Hill
#
# Bulk Modulus (GPa) = 64.24406 64.33937 64.29171
# Shear Modulus (GPa) = -34.05945 22.20339 -5.92803
#
# Velocity S-wave (km/s) = -4.14122 3.34364 -1.72769
# Velocity P-wave (km/s) = 3.07930 6.87772 5.32846
#
# Compressibility (1/GPa) = 0.01556564
#
# Stress axis : x y z
#
# Youngs Moduli (GPa) = 57.44358 78.24359 58.92712
#
# Poissons Ratio (x) = 0.34920 0.49249
# Poissons Ratio (y) = 0.25637 0.17537
# Poissons Ratio (z) = 0.48009 0.23286
#
# Static dielectric constant tensor:
#      x y z
#    x 1.658260 0.000000 0.000000 
#    y 0.000000 1.758180 0.000000 
#    z 0.000000 0.000000 1.719430 
# 
# From -- ./inp_files/22194.got.cif
#   From: 2010.05.17/outbox.cif.g08.bks.cpg/sg20_12_cif.got.tgz:22194.got - 2010.06.03 22:52:26.
