data_PCOD9320051
_publ_section_title
;
Structure prediction by ZEFSAII (Michael W. Deem and Ramdas Pophale) SiO2 
 PCOD9320051
Probable space group: C 2 2 21
;
_chemical_formula_sum "Si O2"
_cell_formula_units_Z 40
_cell_length_a 22.534857
_cell_length_b 8.500775
_cell_length_c 9.736937
_cell_angle_alpha 90.000000
_cell_angle_beta 90.000000
_cell_angle_gamma 90.000000
_cell_volume 1865.244156
_symmetry_space_group_name_H-M "C 2 2 21"
_symmetry_group_IT_number 20
_symmetry_cell_setting 'orthorhombic'
loop_
_space_group_symop_operation_xyz
x,y,z
-x,-y,1/2+z
x,-y,-z
-x,y,1/2-z
1/2+x,1/2+y,z
1/2-x,1/2-y,1/2+z
1/2+x,1/2-y,-z
1/2-x,1/2+y,1/2-z
loop_
_atom_site_type_symbol
_atom_site_label
_atom_site_fract_x
_atom_site_fract_y
_atom_site_fract_z
Si Si1 0.624736 0.286547 0.353794
Si Si2 0.500000 0.299464 0.250000
Si Si3 0.214858 0.000000 0.500000
Si Si4 0.564184 0.318451 0.980989
Si Si5 0.830510 0.657803 0.426951
Si Si6 0.500000 0.132842 0.750000
Si Si7 0.074599 0.500000 0.500000
O O1 0.561677 0.366844 0.312965
O O2 0.672237 0.417346 0.391729
O O3 0.650773 0.183447 0.228971
O O4 0.611055 0.159997 0.472432
O O5 0.469249 0.233225 0.390693
O O6 0.260391 0.867860 0.557356
O O7 0.541491 0.243416 0.842040
O O8 0.548496 0.500000 0.000000
O O9 0.634679 0.295833 0.995776
O O10 0.855780 0.500000 0.500000
O O11 0.461745 0.032712 0.859110
#
# Coordination Sequence:
#
# PCOD9320051 Si02
#       7
#     8   4   4   8   8   4   4
#     4  11  23  45  72 101 141 186 240 301 362 430
#     4  10  22  42  66 102 140 178 226 300 370 422
#     4  10  26  47  68 100 147 188 240 300 346 438
#     4  11  23  42  71 106 143 189 239 303 369 436
#     4   9  23  48  68  96 140 192 237 301 348 425
#     4  12  26  42  72 112 152 188 236 298 380 440
#     4  12  26  39  72 106 141 194 234 296 360 448
#
# _framework density 21.444914000000001
#
# number of rings (size 3 to 8) (size 9 to 14) (size 15 to 20)
#    0.600    0.800    2.000    2.400    5.600    4.800 
#    9.000    0.000    0.000    0.000    0.000    0.000 
#    0.000    0.000    0.000    0.000    0.000    0.000 
#
# Total GULP energy -111356.409058 kJ/mol
# GULP energy per Si atom -5567.820453 kJ/mol
# Density = 2.139610 g / cm^3
# Si number density = 21.444914 Si / 1000 Ang^3
#
#
#
# Elastic Constant Matrix: (Units=GPa)
#
#
# Indices 1 2 3 4 5 6 
#
# 1 173.7543 37.1942 52.2571 0.0000 0.0000 0.0000
# 2 37.1942 72.8795 30.0023 0.0000 0.0000 0.0000
# 3 52.2571 30.0023 118.6006 0.0000 0.0000 0.0000
# 4 0.0000 0.0000 0.0000 24.0329 0.0000 0.0000
# 5 0.0000 0.0000 0.0000 0.0000 22.1064 0.0000
# 6 0.0000 0.0000 0.0000 0.0000 0.0000 59.9992
#
#
#
# Elastic Compliance Matrix: (Units=1/GPa)
#
#
# Indices 1 2 3 4 5 6 
#
# 1 0.007046 -0.002587 -0.002450 0.000000 0.000000 0.000000
# 2 -0.002587 0.016266 -0.002975 0.000000 0.000000 0.000000
# 3 -0.002450 -0.002975 0.010264 0.000000 0.000000 0.000000
# 4 0.000000 0.000000 0.000000 0.041610 0.000000 0.000000
# 5 0.000000 0.000000 0.000000 0.000000 0.045236 0.000000
# 6 0.000000 0.000000 0.000000 0.000000 0.000000 0.016667
#
#
# Mechanical properties :
#
#
# Convention : Reuss Voigt Hill
#
# Bulk Modulus (GPa) = 56.97482 67.12684 62.05083
# Shear Modulus (GPa) = 31.45379 37.61309 34.53344
#
# Velocity S-wave (km/s) = 3.83394 4.19255 4.01725
# Velocity P-wave (km/s) = 6.79886 7.40315 7.10743
#
# Compressibility (1/GPa) = 0.01755161
#
# Stress axis : x y z
#
# Youngs Moduli (GPa) = 141.92536 61.47641 97.43034
#
# Poissons Ratio (x) = 0.15906 0.23871
# Poissons Ratio (y) = 0.36721 0.28984
# Poissons Ratio (z) = 0.34772 0.18289
#
# Static dielectric constant tensor:
#      x y z
#    x 1.783930 0.000000 0.000000 
#    y 0.000000 1.923150 0.000000 
#    z 0.000000 0.000000 1.786950 
# 
# From -- ./inp_files/10547.got.cif
#   From: 2010.05.17/outbox.cif.g08.bks.cpg/sg20_6_cif.got.tgz:10547.got - 2010.06.03 22:52:26.
