data_PCOD9320299
_publ_section_title
;
Structure prediction by ZEFSAII (Michael W. Deem and Ramdas Pophale) SiO2 
 PCOD9320299
Probable space group: C 2 2 21
;
_chemical_formula_sum "Si O2"
_cell_formula_units_Z 56
_cell_length_a 6.158165
_cell_length_b 28.632327
_cell_length_c 14.796780
_cell_angle_alpha 90.000000
_cell_angle_beta 90.000000
_cell_angle_gamma 90.000000
_cell_volume 2609.006632
_symmetry_space_group_name_H-M "C 2 2 21"
_symmetry_group_IT_number 20
_symmetry_cell_setting 'orthorhombic'
loop_
_space_group_symop_operation_xyz
x,y,z
-x,-y,1/2+z
x,-y,-z
-x,y,1/2-z
1/2+x,1/2+y,z
1/2-x,1/2-y,1/2+z
1/2+x,1/2-y,-z
1/2-x,1/2+y,1/2-z
loop_
_atom_site_type_symbol
_atom_site_label
_atom_site_fract_x
_atom_site_fract_y
_atom_site_fract_z
Si Si1 0.395644 0.152339 0.986369
Si Si2 0.500000 0.749708 0.250000
Si Si3 0.500000 0.054420 0.750000
Si Si4 0.129200 0.702549 0.341360
Si Si5 0.864834 0.004336 0.343124
Si Si6 0.276813 0.375112 0.123086
Si Si7 0.575963 0.429042 0.004020
Si Si8 0.383546 0.296170 0.363790
O O1 0.432039 0.162006 0.090034
O O2 0.285297 0.102235 0.972753
O O3 0.586293 0.157054 0.914757
O O4 0.224329 0.191516 0.958210
O O5 0.378765 0.715004 0.319945
O O6 0.692968 0.781156 0.293565
O O7 0.364323 0.019238 0.814473
O O8 0.330739 0.088260 0.694515
O O9 0.000000 0.692305 0.250000
O O10 0.031712 0.751463 0.374809
O O11 0.948062 0.968154 0.418746
O O12 0.000000 0.007064 0.250000
O O13 0.885423 0.051375 0.403301
O O14 0.472513 0.342308 0.157509
O O15 0.365718 0.398658 0.029852
#
# Coordination Sequence:
#
# PCOD9320299 Si02
#       8
#     8   4   4   8   8   8   8   8
#     4  11  24  43  66  99 135 179 226 280 339 403
#     4  10  22  45  62  96 132 184 226 278 328 397
#     4  12  24  43  76 102 136 176 222 286 352 417
#     4  10  24  43  65  94 135 182 233 280 331 399
#     4  11  23  47  71 101 134 174 222 278 349 419
#     4  11  24  43  69 103 139 175 224 286 342 405
#     4  10  24  46  67 100 141 171 224 280 344 417
#     4  10  24  39  67  99 134 180 220 282 333 393
#
# _framework density 21.464109000000001
#
# number of rings (size 3 to 8) (size 9 to 14) (size 15 to 20)
#    0.000    1.429    2.857    0.857    4.000    9.143 
#    7.714    0.000    0.000    0.000    0.000    0.000 
#    0.000    0.000    0.000    0.000    0.000    0.000 
#
# Total GULP energy -155993.271876 kJ/mol
# GULP energy per Si atom -5571.188281 kJ/mol
# Density = 2.141526 g / cm^3
# Si number density = 21.464109 Si / 1000 Ang^3
#
#
#
# Elastic Constant Matrix: (Units=GPa)
#
#
# Indices 1 2 3 4 5 6 
#
# 1 73.3406 18.6143 17.4964 0.0000 0.0000 0.0000
# 2 18.6143 33.5712 21.1717 0.0000 0.0000 0.0000
# 3 17.4964 21.1717 94.9892 0.0000 0.0000 0.0000
# 4 0.0000 0.0000 0.0000 26.7168 0.0000 0.0000
# 5 0.0000 0.0000 0.0000 0.0000 26.0311 0.0000
# 6 0.0000 0.0000 0.0000 0.0000 0.0000 10.1147
#
#
#
# Elastic Compliance Matrix: (Units=1/GPa)
#
#
# Indices 1 2 3 4 5 6 
#
# 1 0.015971 -0.008145 -0.001126 0.000000 0.000000 0.000000
# 2 -0.008145 0.038813 -0.007151 0.000000 0.000000 0.000000
# 3 -0.001126 -0.007151 0.012329 0.000000 0.000000 0.000000
# 4 0.000000 0.000000 0.000000 0.037430 0.000000 0.000000
# 5 0.000000 0.000000 0.000000 0.000000 0.038416 0.000000
# 6 0.000000 0.000000 0.000000 0.000000 0.000000 0.098866
#
#
# Mechanical properties :
#
#
# Convention : Reuss Voigt Hill
#
# Bulk Modulus (GPa) = 29.18110 35.16289 32.17200
# Shear Modulus (GPa) = 17.47695 22.21377 19.84536
#
# Velocity S-wave (km/s) = 2.85659 3.22052 3.04400
# Velocity P-wave (km/s) = 4.95025 5.49970 5.23219
#
# Compressibility (1/GPa) = 0.03426875
#
# Stress axis : x y z
#
# Youngs Moduli (GPa) = 62.61350 25.76442 81.11132
#
# Poissons Ratio (x) = 0.20986 0.09136
# Poissons Ratio (y) = 0.51000 0.58000
# Poissons Ratio (z) = 0.07052 0.18423
#
# Static dielectric constant tensor:
#      x y z
#    x 1.835400 0.000000 0.000000 
#    y 0.000000 1.808440 0.000000 
#    z 0.000000 0.000000 1.842350 
# 
# From -- ./inp_files/18020.got.cif
#   From: 2010.05.17/outbox.cif.g08.bks.cpg/sg20_10_cif.got.tgz:18020.got - 2010.06.03 22:52:26.
