data_PCOD9320654
_publ_section_title
;
Structure prediction by ZEFSAII (Michael W. Deem and Ramdas Pophale) SiO2 
 PCOD9320654
Probable space group: C 2 2 21
;
_chemical_formula_sum "Si O2"
_cell_formula_units_Z 48
_cell_length_a 16.621168
_cell_length_b 10.730924
_cell_length_c 12.824081
_cell_angle_alpha 90.000000
_cell_angle_beta 90.000000
_cell_angle_gamma 90.000000
_cell_volume 2287.309379
_symmetry_space_group_name_H-M "C 2 2 21"
_symmetry_group_IT_number 20
_symmetry_cell_setting 'orthorhombic'
loop_
_space_group_symop_operation_xyz
x,y,z
-x,-y,1/2+z
x,-y,-z
-x,y,1/2-z
1/2+x,1/2+y,z
1/2-x,1/2-y,1/2+z
1/2+x,1/2-y,-z
1/2-x,1/2+y,1/2-z
loop_
_atom_site_type_symbol
_atom_site_label
_atom_site_fract_x
_atom_site_fract_y
_atom_site_fract_z
Si Si1 0.500000 0.612334 0.250000
Si Si2 0.396531 0.205415 0.627121
Si Si3 0.322466 0.633573 0.548257
Si Si4 0.696140 0.929089 0.295601
Si Si5 0.869347 0.093858 0.771659
Si Si6 0.927546 0.650853 0.165075
Si Si7 0.981327 0.500000 0.500000
O O1 0.532991 0.699126 0.157292
O O2 0.571194 0.520428 0.284851
O O3 0.339831 0.265483 0.539205
O O4 0.648309 0.176905 0.765178
O O5 0.429286 0.075339 0.583636
O O6 0.342970 0.500000 0.500000
O O7 0.232472 0.619975 0.594884
O O8 0.376056 0.648643 0.652438
O O9 0.777303 0.952359 0.228219
O O10 0.641836 0.051102 0.306027
O O11 0.890681 0.211441 0.841858
O O12 0.000000 0.649665 0.250000
O O13 0.965427 0.601649 0.058533
#
# Coordination Sequence:
#
# PCOD9320654 Si02
#       7
#     4   8   8   8   8   8   4
#     4  12  24  46  70 104 136 186 234 304 356 428
#     4  12  24  46  73 104 147 186 247 295 365 429
#     4  10  23  44  72  99 141 192 232 292 364 436
#     4  10  26  43  72 105 141 189 234 303 356 426
#     4  10  25  43  74 100 144 190 231 294 370 422
#     4  12  23  47  70 104 143 189 240 299 362 436
#     4  12  28  42  76 106 144 200 244 300 362 440
#
# _framework density 20.985354999999998
#
# number of rings (size 3 to 8) (size 9 to 14) (size 15 to 20)
#    1.000    0.000    4.167    2.000    5.833    0.000 
#    0.000    0.000    0.000    0.000    0.000    0.000 
#    0.000    0.000    0.000    0.000    0.000    0.000 
#
# Total GULP energy -134005.584060 kJ/mol
# GULP energy per Si atom -5583.566002 kJ/mol
# Density = 2.093759 g / cm^3
# Si number density = 20.985355 Si / 1000 Ang^3
#
#
#
# Elastic Constant Matrix: (Units=GPa)
#
#
# Indices 1 2 3 4 5 6 
#
# 1 90.9045 25.3385 7.8573 0.0000 0.0000 0.0000
# 2 25.3385 82.2342 21.4146 0.0000 0.0000 0.0000
# 3 7.8573 21.4146 42.2961 0.0000 0.0000 0.0000
# 4 0.0000 0.0000 0.0000 37.6441 0.0000 0.0000
# 5 0.0000 0.0000 0.0000 0.0000 40.8408 0.0000
# 6 0.0000 0.0000 0.0000 0.0000 0.0000 -1.9752
#
#
#
# Elastic Compliance Matrix: (Units=1/GPa)
#
#
# Indices 1 2 3 4 5 6 
#
# 1 0.012040 -0.003602 -0.000413 0.000000 0.000000 0.000000
# 2 -0.003602 0.015085 -0.006968 0.000000 0.000000 0.000000
# 3 -0.000413 -0.006968 0.027248 0.000000 0.000000 0.000000
# 4 0.000000 0.000000 0.000000 0.026565 0.000000 0.000000
# 5 0.000000 0.000000 0.000000 0.000000 0.024485 0.000000
# 6 0.000000 0.000000 0.000000 0.000000 0.000000 -0.506283
#
#
# Mechanical properties :
#
#
# Convention : Reuss Voigt Hill
#
# Bulk Modulus (GPa) = 30.85867 36.07284 33.46576
# Shear Modulus (GPa) = -13.58359 26.02358 6.21999
#
# Velocity S-wave (km/s) = -2.54695 3.52530 1.72349
# Velocity P-wave (km/s) = 2.46729 5.81353 4.46569
#
# Compressibility (1/GPa) = 0.03240580
#
# Stress axis : x y z
#
# Youngs Moduli (GPa) = 83.05392 66.29091 36.70052
#
# Poissons Ratio (x) = 0.23881 0.01515
# Poissons Ratio (y) = 0.29920 0.25574
# Poissons Ratio (z) = 0.03428 0.46194
#
# Static dielectric constant tensor:
#      x y z
#    x 1.828320 0.000000 0.000000 
#    y 0.000000 1.713610 0.000000 
#    z 0.000000 0.000000 1.486980 
# 
# From -- ./inp_files/21327.got.cif
#   From: 2010.05.17/outbox.cif.g08.bks.cpg/sg20_11_cif.got.tgz:21327.got - 2010.06.03 22:52:26.
