data_PCOD9320078
_publ_section_title
;
Structure prediction by ZEFSAII (Michael W. Deem and Ramdas Pophale) SiO2 
 PCOD9320078
Probable space group: C 2 2 21
;
_chemical_formula_sum "Si O2"
_cell_formula_units_Z 60
_cell_length_a 9.434965
_cell_length_b 10.352238
_cell_length_c 29.692229
_cell_angle_alpha 90.000000
_cell_angle_beta 90.000000
_cell_angle_gamma 90.000000
_cell_volume 2900.129178
_symmetry_space_group_name_H-M "C 2 2 21"
_symmetry_group_IT_number 20
_symmetry_cell_setting 'orthorhombic'
loop_
_space_group_symop_operation_xyz
x,y,z
-x,-y,1/2+z
x,-y,-z
-x,y,1/2-z
1/2+x,1/2+y,z
1/2-x,1/2-y,1/2+z
1/2+x,1/2-y,-z
1/2-x,1/2+y,1/2-z
loop_
_atom_site_type_symbol
_atom_site_label
_atom_site_fract_x
_atom_site_fract_y
_atom_site_fract_z
Si Si1 0.472910 0.462598 0.081435
Si Si2 0.554054 0.371858 0.316073
Si Si3 0.500000 0.890466 0.250000
Si Si4 0.337074 0.278835 0.677205
Si Si5 0.233758 0.644627 0.982156
Si Si6 0.001129 0.741262 0.584657
Si Si7 0.308310 0.462593 0.271311
Si Si8 0.277229 0.899458 0.039830
O O1 0.466238 0.421492 0.133380
O O2 0.364031 0.378936 0.051987
O O3 0.437450 0.614538 0.079063
O O4 0.627444 0.444713 0.059618
O O5 0.672062 0.260403 0.319691
O O6 0.399922 0.344607 0.293427
O O7 0.630825 0.468404 0.279736
O O8 0.570346 0.805921 0.211134
O O9 0.639151 0.959739 0.269533
O O10 0.403201 0.252113 0.628648
O O11 0.350707 0.422259 0.695852
O O12 0.100785 0.702508 0.955986
O O13 0.202132 0.500000 0.000000
O O14 0.267955 0.757748 0.017331
O O15 0.117711 0.627654 0.581865
O O16 0.319904 0.000000 0.000000
#
# Coordination Sequence:
#
# PCOD9320078 Si02
#       8
#     8   8   4   8   8   8   8   8
#     4  12  24  45  69 100 142 178 234 289 355 419
#     4  10  22  42  67  98 136 182 224 278 349 412
#     4  10  24  40  66  98 132 176 228 274 336 410
#     4  11  23  42  66 100 134 177 228 278 343 413
#     4  12  24  47  71  97 138 185 232 289 355 419
#     4  12  25  42  70 101 137 181 230 296 342 424
#     4  10  22  42  67  94 139 176 217 281 337 408
#     4  12  26  45  71 102 139 187 235 294 358 411
#
# _framework density 20.688732999999999
#
# number of rings (size 3 to 8) (size 9 to 14) (size 15 to 20)
#    0.000    0.800    5.333    2.400    1.867    2.133 
#    0.000    4.000    0.000    0.000    0.000    0.000 
#    0.000    0.000    0.000    0.000    0.000    0.000 
#
# Total GULP energy -167313.361874 kJ/mol
# GULP energy per Si atom -5577.112062 kJ/mol
# Density = 2.064164 g / cm^3
# Si number density = 20.688733 Si / 1000 Ang^3
#
#
#
# Elastic Constant Matrix: (Units=GPa)
#
#
# Indices 1 2 3 4 5 6 
#
# 1 77.3904 -4.7214 -1.6808 0.0000 0.0000 0.0000
# 2 -4.7214 55.7535 20.1330 0.0000 0.0000 0.0000
# 3 -1.6808 20.1330 80.1795 0.0000 0.0000 0.0000
# 4 0.0000 0.0000 0.0000 25.3291 0.0000 0.0000
# 5 0.0000 0.0000 0.0000 0.0000 37.2862 0.0000
# 6 0.0000 0.0000 0.0000 0.0000 0.0000 29.3228
#
#
#
# Elastic Compliance Matrix: (Units=1/GPa)
#
#
# Indices 1 2 3 4 5 6 
#
# 1 0.012989 0.001101 -0.000004 0.000000 0.000000 0.000000
# 2 0.001101 0.019818 -0.004953 0.000000 0.000000 0.000000
# 3 -0.000004 -0.004953 0.013716 0.000000 0.000000 0.000000
# 4 0.000000 0.000000 0.000000 0.039480 0.000000 0.000000
# 5 0.000000 0.000000 0.000000 0.000000 0.026820 0.000000
# 6 0.000000 0.000000 0.000000 0.000000 0.000000 0.034103
#
#
# Mechanical properties :
#
#
# Convention : Reuss Voigt Hill
#
# Bulk Modulus (GPa) = 25.76642 26.75391 26.26016
# Shear Modulus (GPa) = 29.83757 31.69381 30.76569
#
# Velocity S-wave (km/s) = 3.80177 3.91824 3.86044
# Velocity P-wave (km/s) = 5.63495 5.78186 5.70887
#
# Compressibility (1/GPa) = 0.03881021
#
# Stress axis : x y z
#
# Youngs Moduli (GPa) = 76.99055 50.45919 72.90932
#
# Poissons Ratio (x) = -0.05558 0.00031
# Poissons Ratio (y) = -0.08480 0.36113
# Poissons Ratio (z) = 0.00033 0.24993
#
# Static dielectric constant tensor:
#      x y z
#    x 1.797160 0.000000 0.000000 
#    y 0.000000 1.731310 0.000000 
#    z 0.000000 0.000000 1.736830 
# 
# From -- ./inp_files/31028.got.cif
#   From: 2010.05.17/outbox.cif.g08.bks.cpg/sg20_16_cif.got.tgz:31028.got - 2010.06.03 22:52:26.
