data_PCOD9320762
_publ_section_title
;
Structure prediction by ZEFSAII (Michael W. Deem and Ramdas Pophale) SiO2 
 PCOD9320762
Probable space group: C 2 2 21
;
_chemical_formula_sum "Si O2"
_cell_formula_units_Z 36
_cell_length_a 24.070341
_cell_length_b 7.688263
_cell_length_c 9.183949
_cell_angle_alpha 90.000000
_cell_angle_beta 90.000000
_cell_angle_gamma 90.000000
_cell_volume 1699.573448
_symmetry_space_group_name_H-M "C 2 2 21"
_symmetry_group_IT_number 20
_symmetry_cell_setting 'orthorhombic'
loop_
_space_group_symop_operation_xyz
x,y,z
-x,-y,1/2+z
x,-y,-z
-x,y,1/2-z
1/2+x,1/2+y,z
1/2-x,1/2-y,1/2+z
1/2+x,1/2-y,-z
1/2-x,1/2+y,1/2-z
loop_
_atom_site_type_symbol
_atom_site_label
_atom_site_fract_x
_atom_site_fract_y
_atom_site_fract_z
Si Si1 0.583208 0.099818 0.854837
Si Si2 0.727461 0.000000 0.500000
Si Si3 0.500000 0.382337 0.750000
Si Si4 0.871630 0.673534 0.159306
Si Si5 0.078310 0.000000 0.500000
Si Si6 0.663630 0.690375 0.969743
O O1 0.542192 0.257963 0.834128
O O2 0.586144 0.981051 0.709299
O O3 0.643305 0.178725 0.904493
O O4 0.564488 0.000000 0.000000
O O5 0.685201 0.077889 0.383918
O O6 0.770441 0.154413 0.540775
O O7 0.538302 0.484905 0.638676
O O8 0.860309 0.758466 0.315062
O O9 0.887888 0.821094 0.039641
O O10 0.639493 0.500000 0.000000
#
# Coordination Sequence:
#
# PCOD9320762 Si02
#       6
#     8   4   4   8   4   8
#     4  10  24  43  71  98 139 177 238 295 351 418
#     4  10  24  37  72  96 138 183 226 272 358 414
#     4  12  28  44  74  96 138 188 238 290 362 410
#     4  11  24  45  65 102 140 177 235 290 349 430
#     4  12  30  43  72 100 146 181 242 296 352 426
#     4   9  22  41  67  99 137 179 227 289 348 418
#
# _framework density 21.181785999999999
#
# number of rings (size 3 to 8) (size 9 to 14) (size 15 to 20)
#    0.667    0.889    0.000    2.667   14.000    1.778 
#    2.000    0.000    0.000    0.000    0.000    0.000 
#    0.000    0.000    0.000    0.000    0.000    0.000 
#
# Total GULP energy -100257.678853 kJ/mol
# GULP energy per Si atom -5569.871047 kJ/mol
# Density = 2.113358 g / cm^3
# Si number density = 21.181786 Si / 1000 Ang^3
#
#
#
# Elastic Constant Matrix: (Units=GPa)
#
#
# Indices 1 2 3 4 5 6 
#
# 1 70.7747 13.4295 16.2358 0.0000 0.0000 0.0000
# 2 13.4295 61.9116 27.3755 0.0000 0.0000 0.0000
# 3 16.2358 27.3755 55.4668 0.0000 0.0000 0.0000
# 4 0.0000 0.0000 0.0000 53.3700 0.0000 0.0000
# 5 0.0000 0.0000 0.0000 0.0000 21.7675 0.0000
# 6 0.0000 0.0000 0.0000 0.0000 0.0000 6.9855
#
#
#
# Elastic Compliance Matrix: (Units=1/GPa)
#
#
# Indices 1 2 3 4 5 6 
#
# 1 0.015287 -0.001711 -0.003630 0.000000 0.000000 0.000000
# 2 -0.001711 0.020852 -0.009791 0.000000 0.000000 0.000000
# 3 -0.003630 -0.009791 0.023924 0.000000 0.000000 0.000000
# 4 0.000000 0.000000 0.000000 0.018737 0.000000 0.000000
# 5 0.000000 0.000000 0.000000 0.000000 0.045940 0.000000
# 6 0.000000 0.000000 0.000000 0.000000 0.000000 0.143154
#
#
# Mechanical properties :
#
#
# Convention : Reuss Voigt Hill
#
# Bulk Modulus (GPa) = 33.55813 33.58163 33.56988
# Shear Modulus (GPa) = 16.22896 25.16542 20.69719
#
# Velocity S-wave (km/s) = 2.77099 3.45058 3.12929
# Velocity P-wave (km/s) = 5.11030 5.63593 5.37954
#
# Compressibility (1/GPa) = 0.02979904
#
# Stress axis : x y z
#
# Youngs Moduli (GPa) = 65.41618 47.95608 41.79954
#
# Poissons Ratio (x) = 0.08204 0.15174
# Poissons Ratio (y) = 0.11191 0.40926
# Poissons Ratio (z) = 0.23748 0.46953
#
# Static dielectric constant tensor:
#      x y z
#    x 1.782810 0.000000 0.000000 
#    y 0.000000 1.835880 0.000000 
#    z 0.000000 0.000000 1.753850 
# 
# From -- ./inp_files/9907.got.cif
#   From: 2010.05.17/outbox.cif.g08.bks.cpg/sg20_5_cif.got.tgz:9907.got - 2010.06.03 22:52:26.
