data_PCOD9320640
_publ_section_title
;
Structure prediction by ZEFSAII (Michael W. Deem and Ramdas Pophale) SiO2 
 PCOD9320640
Probable space group: C 2 2 21
;
_chemical_formula_sum "Si O2"
_cell_formula_units_Z 24
_cell_length_a 5.292363
_cell_length_b 13.487389
_cell_length_c 13.469025
_cell_angle_alpha 90.000000
_cell_angle_beta 90.000000
_cell_angle_gamma 90.000000
_cell_volume 961.421139
_symmetry_space_group_name_H-M "C 2 2 21"
_symmetry_group_IT_number 20
_symmetry_cell_setting 'orthorhombic'
loop_
_space_group_symop_operation_xyz
x,y,z
-x,-y,1/2+z
x,-y,-z
-x,y,1/2-z
1/2+x,1/2+y,z
1/2-x,1/2-y,1/2+z
1/2+x,1/2-y,-z
1/2-x,1/2+y,1/2-z
loop_
_atom_site_type_symbol
_atom_site_label
_atom_site_fract_x
_atom_site_fract_y
_atom_site_fract_z
Si Si1 0.500000 0.195001 0.250000
Si Si2 0.567137 0.500000 0.500000
Si Si3 0.662009 0.708673 0.954161
Si Si4 0.754732 0.505094 0.286253
O O1 0.418760 0.256129 0.344851
O O2 0.282466 0.111623 0.230255
O O3 0.395892 0.406021 0.473990
O O4 0.738304 0.520636 0.403384
O O5 0.952507 0.735238 0.976864
O O6 0.500000 0.457734 0.250000
O O7 0.000000 0.446778 0.250000
#
# Coordination Sequence:
#
# PCOD9320640 Si02
#       4
#     4   4   8   8
#     4  10  24  48  70 102 146 188 230 298 356 416
#     4  12  26  48  76 108 140 192 242 292 356 428
#     4  12  27  48  74 104 147 188 237 297 357 422
#     4  10  23  44  70 101 144 181 238 289 346 428
#
# _framework density 24.963045000000001
#
# number of rings (size 3 to 8) (size 9 to 14) (size 15 to 20)
#    1.000    0.000    3.333    2.000    2.333    5.333 
#    0.000    0.000    0.000    0.000    0.000    0.000 
#    0.000    0.000    0.000    0.000    0.000    0.000 
#
# Total GULP energy -67133.380246 kJ/mol
# GULP energy per Si atom -5594.448354 kJ/mol
# Density = 2.490623 g / cm^3
# Si number density = 24.963045 Si / 1000 Ang^3
#
#
#
# Elastic Constant Matrix: (Units=GPa)
#
#
# Indices 1 2 3 4 5 6 
#
# 1 117.0456 -15.0850 1.2779 0.0000 0.0000 0.0000
# 2 -15.0850 113.4738 -25.2748 0.0000 0.0000 0.0000
# 3 1.2779 -25.2748 105.3444 0.0000 0.0000 0.0000
# 4 0.0000 0.0000 0.0000 35.4861 0.0000 0.0000
# 5 0.0000 0.0000 0.0000 0.0000 24.9843 0.0000
# 6 0.0000 0.0000 0.0000 0.0000 0.0000 -4.9211
#
#
#
# Elastic Compliance Matrix: (Units=1/GPa)
#
#
# Indices 1 2 3 4 5 6 
#
# 1 0.008696 0.001196 0.000182 0.000000 0.000000 0.000000
# 2 0.001196 0.009475 0.002259 0.000000 0.000000 0.000000
# 3 0.000182 0.002259 0.010032 0.000000 0.000000 0.000000
# 4 0.000000 0.000000 0.000000 0.028180 0.000000 0.000000
# 5 0.000000 0.000000 0.000000 0.000000 0.040025 0.000000
# 6 0.000000 0.000000 0.000000 0.000000 0.000000 -0.203207
#
#
# Mechanical properties :
#
#
# Convention : Reuss Voigt Hill
#
# Bulk Modulus (GPa) = 28.18762 28.63334 28.41048
# Shear Modulus (GPa) = -48.90109 36.10624 -6.39743
#
# Velocity S-wave (km/s) = -4.43079 3.80727 -1.60260
# Velocity P-wave (km/s) = 3.85482 5.55178 2.82512
#
# Compressibility (1/GPa) = 0.03547657
#
# Stress axis : x y z
#
# Youngs Moduli (GPa) = 114.99676 105.54352 99.67706
#
# Poissons Ratio (x) = -0.12628 -0.01810
# Poissons Ratio (y) = -0.13759 -0.22514
# Poissons Ratio (z) = -0.02088 -0.23839
#
# Static dielectric constant tensor:
#      x y z
#    x 2.107690 0.000000 0.000000 
#    y 0.000000 1.945540 0.000000 
#    z 0.000000 0.000000 1.982340 
# 
# From -- ./inp_files/11796.got.cif
#   From: 2010.05.17/outbox.cif.g08.bks.cpg/sg20_6_cif.got.tgz:11796.got - 2010.06.03 22:52:26.
