data_PCOD9320251
_publ_section_title
;
Structure prediction by ZEFSAII (Michael W. Deem and Ramdas Pophale) SiO2 
 PCOD9320251
Probable space group: C 2 2 21
;
_chemical_formula_sum "Si O2"
_cell_formula_units_Z 48
_cell_length_a 9.700061
_cell_length_b 16.285558
_cell_length_c 13.982761
_cell_angle_alpha 90.000000
_cell_angle_beta 90.000000
_cell_angle_gamma 90.000000
_cell_volume 2208.869424
_symmetry_space_group_name_H-M "C 2 2 21"
_symmetry_group_IT_number 20
_symmetry_cell_setting 'orthorhombic'
loop_
_space_group_symop_operation_xyz
x,y,z
-x,-y,1/2+z
x,-y,-z
-x,y,1/2-z
1/2+x,1/2+y,z
1/2-x,1/2-y,1/2+z
1/2+x,1/2-y,-z
1/2-x,1/2+y,1/2-z
loop_
_atom_site_type_symbol
_atom_site_label
_atom_site_fract_x
_atom_site_fract_y
_atom_site_fract_z
Si Si1 0.865112 0.887795 0.688559
Si Si2 0.504897 0.556766 0.641712
Si Si3 0.383909 0.696605 0.510449
Si Si4 0.199230 0.513881 0.172559
Si Si5 0.589088 0.824742 0.445329
Si Si6 0.511891 0.000000 0.500000
Si Si7 0.500000 0.884585 0.250000
O O1 0.846129 0.828984 0.598678
O O2 0.000000 0.863132 0.750000
O O3 0.905323 0.977753 0.646423
O O4 0.741556 0.908023 0.762547
O O5 0.500000 0.592736 0.750000
O O6 0.457958 0.621125 0.563492
O O7 0.658917 0.521506 0.628637
O O8 0.487918 0.772240 0.510624
O O9 0.238881 0.714505 0.560152
O O10 0.087225 0.522978 0.089042
O O11 0.131756 0.444001 0.239443
O O12 0.599800 0.919274 0.478344
O O13 0.517800 0.830787 0.342978
#
# Coordination Sequence:
#
# PCOD9320251 Si02
#       7
#     8   8   8   8   8   4   4
#     4   9  21  38  66 103 131 180 225 276 345 410
#     4   9  20  38  66  99 131 179 225 273 341 415
#     4  12  26  43  69 100 145 177 236 289 348 403
#     4   9  20  37  70  98 128 176 234 276 335 410
#     4  11  28  45  69  99 138 182 230 285 352 409
#     4  10  24  44  68  96 136 180 232 280 340 418
#     4  10  22  44  68  90 140 180 222 284 354 402
#
# _framework density 21.730573
#
# number of rings (size 3 to 8) (size 9 to 14) (size 15 to 20)
#    0.000    2.333    0.000    2.500   17.500    0.000 
#    0.000    0.000    0.000    0.000    0.000    0.000 
#    0.000    0.000    0.000    0.000    0.000    0.000 
#
# Total GULP energy -134105.260945 kJ/mol
# GULP energy per Si atom -5587.719206 kJ/mol
# Density = 2.168111 g / cm^3
# Si number density = 21.730573 Si / 1000 Ang^3
#
#
#
# Elastic Constant Matrix: (Units=GPa)
#
#
# Indices 1 2 3 4 5 6 
#
# 1 58.9756 8.6600 -17.7215 0.0000 0.0000 0.0000
# 2 8.6600 56.6602 7.7290 0.0000 0.0000 0.0000
# 3 -17.7215 7.7290 48.5821 0.0000 0.0000 0.0000
# 4 0.0000 0.0000 0.0000 28.2859 0.0000 0.0000
# 5 0.0000 0.0000 0.0000 0.0000 21.6286 0.0000
# 6 0.0000 0.0000 0.0000 0.0000 0.0000 -2.1181
#
#
#
# Elastic Compliance Matrix: (Units=1/GPa)
#
#
# Indices 1 2 3 4 5 6 
#
# 1 0.019947 -0.004131 0.007933 0.000000 0.000000 0.000000
# 2 -0.004131 0.018896 -0.004513 0.000000 0.000000 0.000000
# 3 0.007933 -0.004513 0.024195 0.000000 0.000000 0.000000
# 4 0.000000 0.000000 0.000000 0.035353 0.000000 0.000000
# 5 0.000000 0.000000 0.000000 0.000000 0.046235 0.000000
# 6 0.000000 0.000000 0.000000 0.000000 0.000000 -0.472119
#
#
# Mechanical properties :
#
#
# Convention : Reuss Voigt Hill
#
# Bulk Modulus (GPa) = 16.22936 17.95033 17.08985
# Shear Modulus (GPa) = -16.36489 20.59598 2.11554
#
# Velocity S-wave (km/s) = -2.74721 3.08196 0.98775
# Velocity P-wave (km/s) = 1.60569 4.57635 3.03024
#
# Compressibility (1/GPa) = 0.06161672
#
# Stress axis : x y z
#
# Youngs Moduli (GPa) = 50.13402 52.92108 41.33002
#
# Poissons Ratio (x) = 0.21861 -0.32788
# Poissons Ratio (y) = 0.20709 0.18652
# Poissons Ratio (z) = -0.39772 0.23883
#
# Static dielectric constant tensor:
#      x y z
#    x 1.781280 0.000000 0.000000 
#    y 0.000000 1.763100 0.000000 
#    z 0.000000 0.000000 1.847640 
# 
# From -- ./inp_files/18930.got.cif
#   From: 2010.05.17/outbox.cif.g08.bks.cpg/sg20_10_cif.got.tgz:18930.got - 2010.06.03 22:52:26.
