data_PCOD9320904
_publ_section_title
;
Structure prediction by ZEFSAII (Michael W. Deem and Ramdas Pophale) SiO2 
 PCOD9320904
Probable space group: C 2 2 21
;
_chemical_formula_sum "Si O2"
_cell_formula_units_Z 24
_cell_length_a 23.822405
_cell_length_b 8.342385
_cell_length_c 5.050023
_cell_angle_alpha 90.000000
_cell_angle_beta 90.000000
_cell_angle_gamma 90.000000
_cell_volume 1003.619725
_symmetry_space_group_name_H-M "C 2 2 21"
_symmetry_group_IT_number 20
_symmetry_cell_setting 'orthorhombic'
loop_
_space_group_symop_operation_xyz
x,y,z
-x,-y,1/2+z
x,-y,-z
-x,y,1/2-z
1/2+x,1/2+y,z
1/2-x,1/2-y,1/2+z
1/2+x,1/2-y,-z
1/2-x,1/2+y,1/2-z
loop_
_atom_site_type_symbol
_atom_site_label
_atom_site_fract_x
_atom_site_fract_y
_atom_site_fract_z
Si Si1 0.757774 0.147382 0.138188
Si Si2 0.852210 0.000000 0.500000
Si Si3 0.041141 0.500000 0.500000
Si Si4 0.434971 0.664606 0.837871
O O1 0.730530 0.233211 0.393081
O O2 0.812516 0.067684 0.269793
O O3 0.724964 0.000000 0.000000
O O4 0.892526 0.141433 0.597075
O O5 0.074991 0.665500 0.476269
O O6 0.000000 0.482964 0.250000
O O7 0.500000 0.666725 0.750000
O O8 0.428123 0.500000 0.000000
#
# Coordination Sequence:
#
# PCOD9320904 Si02
#       4
#     8   4   4   8
#     4  12  25  51  82 112 152 204 263 340 404 472
#     4  12  26  46  81 122 156 208 277 316 408 480
#     4  10  24  44  71 108 156 214 267 310 374 452
#     4  11  23  44  77 114 165 216 259 319 385 473
#
# _framework density 23.913437999999999
#
# number of rings (size 3 to 8) (size 9 to 14) (size 15 to 20)
#    0.000    0.667    5.000    2.000    4.667    0.000 
#    0.000    8.333    0.000    0.000    0.000    0.000 
#    0.000    0.000    0.000    0.000    0.000    0.000 
#
# Total GULP energy -67103.713041 kJ/mol
# GULP energy per Si atom -5591.976087 kJ/mol
# Density = 2.385901 g / cm^3
# Si number density = 23.913438 Si / 1000 Ang^3
#
#
#
# Elastic Constant Matrix: (Units=GPa)
#
#
# Indices 1 2 3 4 5 6 
#
# 1 74.3553 40.1916 37.0806 0.0000 0.0000 0.0000
# 2 40.1916 209.4413 81.1889 0.0000 0.0000 0.0000
# 3 37.0806 81.1889 181.9588 0.0000 0.0000 0.0000
# 4 0.0000 0.0000 0.0000 63.5837 0.0000 0.0000
# 5 0.0000 0.0000 0.0000 0.0000 123.4514 0.0000
# 6 0.0000 0.0000 0.0000 0.0000 0.0000 -7.2114
#
#
#
# Elastic Compliance Matrix: (Units=1/GPa)
#
#
# Indices 1 2 3 4 5 6 
#
# 1 0.015731 -0.002147 -0.002247 0.000000 0.000000 0.000000
# 2 -0.002147 0.006066 -0.002269 0.000000 0.000000 0.000000
# 3 -0.002247 -0.002269 0.006966 0.000000 0.000000 0.000000
# 4 0.000000 0.000000 0.000000 0.015727 0.000000 0.000000
# 5 0.000000 0.000000 0.000000 0.000000 0.008100 0.000000
# 6 0.000000 0.000000 0.000000 0.000000 0.000000 -0.138670
#
#
# Mechanical properties :
#
#
# Convention : Reuss Voigt Hill
#
# Bulk Modulus (GPa) = 64.78808 86.96418 75.87613
# Shear Modulus (GPa) = -73.95770 56.45105 -8.75333
#
# Velocity S-wave (km/s) = -5.56726 4.86391 -1.91530
# Velocity P-wave (km/s) = 3.76488 8.24553 5.18722
#
# Compressibility (1/GPa) = 0.01543494
#
# Stress axis : x y z
#
# Youngs Moduli (GPa) = 63.57077 164.84461 143.54976
#
# Poissons Ratio (x) = 0.35400 0.32262
# Poissons Ratio (y) = 0.13651 0.32573
# Poissons Ratio (z) = 0.14287 0.37405
#
# Static dielectric constant tensor:
#      x y z
#    x 1.881330 0.000000 0.000000 
#    y 0.000000 1.972310 0.000000 
#    z 0.000000 0.000000 1.967160 
# 
# From -- ./inp_files/3466.got.cif
#   From: 2010.05.17/outbox.cif.g08.bks.cpg/sg20_2_cif.got.tgz:3466.got - 2010.06.03 22:52:26.
