data_PCOD9320141
_publ_section_title
;
Structure prediction by ZEFSAII (Michael W. Deem and Ramdas Pophale) SiO2 
 PCOD9320141
Probable space group: C 2 2 21
;
_chemical_formula_sum "Si O2"
_cell_formula_units_Z 32
_cell_length_a 30.235928
_cell_length_b 7.490799
_cell_length_c 7.174860
_cell_angle_alpha 90.000000
_cell_angle_beta 90.000000
_cell_angle_gamma 90.000000
_cell_volume 1625.043076
_symmetry_space_group_name_H-M "C 2 2 21"
_symmetry_group_IT_number 20
_symmetry_cell_setting 'orthorhombic'
loop_
_space_group_symop_operation_xyz
x,y,z
-x,-y,1/2+z
x,-y,-z
-x,y,1/2-z
1/2+x,1/2+y,z
1/2-x,1/2-y,1/2+z
1/2+x,1/2-y,-z
1/2-x,1/2+y,1/2-z
loop_
_atom_site_type_symbol
_atom_site_label
_atom_site_fract_x
_atom_site_fract_y
_atom_site_fract_z
Si Si1 0.247633 0.500000 0.000000
Si Si2 0.517011 0.796072 0.457340
Si Si3 0.804678 0.156247 0.344358
Si Si4 0.894094 0.861620 0.844142
Si Si5 0.548105 0.500000 0.000000
O O1 0.219293 0.671422 0.932208
O O2 0.276281 0.430579 0.823884
O O3 0.500000 0.765017 0.250000
O O4 0.569132 0.755319 0.452833
O O5 0.484673 0.659714 0.560863
O O6 0.508565 0.000000 0.500000
O O7 0.851194 0.219512 0.254048
O O8 0.811448 0.000000 0.500000
O O9 0.921208 0.952124 0.675063
O O10 0.878086 0.000000 0.000000
#
# Coordination Sequence:
#
# PCOD9320141 Si02
#       5
#     4   8   8   8   4
#     4  12  26  47  78 102 134 186 222 285 360 426
#     4  10  23  40  62  92 129 178 224 274 332 389
#     4  12  25  48  72 103 138 176 231 285 353 423
#     4  11  23  42  69  94 133 181 219 281 340 395
#     4  10  22  43  64  92 132 182 224 273 326 398
#
# _framework density 19.691786
#
# number of rings (size 3 to 8) (size 9 to 14) (size 15 to 20)
#    0.000    1.000    6.250    0.000    3.500    0.000 
#   18.000    0.000    0.000    0.000    0.000    0.000 
#    0.000    0.000    0.000    0.000    0.000    0.000 
#
# Total GULP energy -89232.890731 kJ/mol
# GULP energy per Si atom -5577.055671 kJ/mol
# Density = 1.964697 g / cm^3
# Si number density = 19.691786 Si / 1000 Ang^3
#
#
#
# Elastic Constant Matrix: (Units=GPa)
#
#
# Indices 1 2 3 4 5 6 
#
# 1 120.2674 30.5967 19.7673 0.0000 0.0000 0.0000
# 2 30.5967 77.8628 0.0742 0.0000 0.0000 0.0000
# 3 19.7673 0.0742 80.9212 0.0000 0.0000 0.0000
# 4 0.0000 0.0000 0.0000 32.6582 0.0000 0.0000
# 5 0.0000 0.0000 0.0000 0.0000 31.9064 0.0000
# 6 0.0000 0.0000 0.0000 0.0000 0.0000 8.8894
#
#
#
# Elastic Compliance Matrix: (Units=1/GPa)
#
#
# Indices 1 2 3 4 5 6 
#
# 1 0.009668 -0.003797 -0.002358 0.000000 0.000000 0.000000
# 2 -0.003797 0.014334 0.000914 0.000000 0.000000 0.000000
# 3 -0.002358 0.000914 0.012933 0.000000 0.000000 0.000000
# 4 0.000000 0.000000 0.000000 0.030620 0.000000 0.000000
# 5 0.000000 0.000000 0.000000 0.000000 0.031342 0.000000
# 6 0.000000 0.000000 0.000000 0.000000 0.000000 0.112494
#
#
# Mechanical properties :
#
#
# Convention : Reuss Voigt Hill
#
# Bulk Modulus (GPa) = 37.80180 42.21421 40.00800
# Shear Modulus (GPa) = 21.67397 29.93166 25.80282
#
# Velocity S-wave (km/s) = 3.32122 3.90296 3.62378
# Velocity P-wave (km/s) = 5.82630 6.46489 6.15388
#
# Compressibility (1/GPa) = 0.02645377
#
# Stress axis : x y z
#
# Youngs Moduli (GPa) = 103.42971 69.76279 77.32188
#
# Poissons Ratio (x) = 0.26489 0.18235
# Poissons Ratio (y) = 0.39272 -0.07070
# Poissons Ratio (z) = 0.24392 -0.06379
#
# Static dielectric constant tensor:
#      x y z
#    x 1.714920 0.000000 0.000000 
#    y 0.000000 1.636090 0.000000 
#    z 0.000000 0.000000 1.723510 
# 
# From -- ./inp_files/5269.got.cif
#   From: 2010.05.17/outbox.cif.g08.bks.cpg/sg20_3_cif.got.tgz:5269.got - 2010.06.03 22:52:26.
