data_PCOD9320375
_publ_section_title
;
Structure prediction by ZEFSAII (Michael W. Deem and Ramdas Pophale) SiO2 
 PCOD9320375
Probable space group: C 2 2 21
;
_chemical_formula_sum "Si O2"
_cell_formula_units_Z 24
_cell_length_a 15.539732
_cell_length_b 10.684892
_cell_length_c 7.353672
_cell_angle_alpha 90.000000
_cell_angle_beta 90.000000
_cell_angle_gamma 90.000000
_cell_volume 1221.006332
_symmetry_space_group_name_H-M "C 2 2 21"
_symmetry_group_IT_number 20
_symmetry_cell_setting 'orthorhombic'
loop_
_space_group_symop_operation_xyz
x,y,z
-x,-y,1/2+z
x,-y,-z
-x,y,1/2-z
1/2+x,1/2+y,z
1/2-x,1/2-y,1/2+z
1/2+x,1/2-y,-z
1/2-x,1/2+y,1/2-z
loop_
_atom_site_type_symbol
_atom_site_label
_atom_site_fract_x
_atom_site_fract_y
_atom_site_fract_z
Si Si1 0.651131 0.465983 0.709154
Si Si2 0.797322 0.500000 0.000000
Si Si3 0.000000 0.840021 0.250000
Si Si4 0.566373 0.791729 0.392256
O O1 0.671575 0.500000 0.500000
O O2 0.582063 0.568958 0.776907
O O3 0.605924 0.331151 0.704206
O O4 0.734769 0.467276 0.832987
O O5 0.858145 0.384751 0.052222
O O6 0.018554 0.757225 0.426921
O O7 0.500000 0.851608 0.250000
#
# Coordination Sequence:
#
# PCOD9320375 Si02
#       4
#     8   4   4   8
#     4  10  23  44  69  96 125 174 222 266 319 393
#     4  12  28  40  66 104 136 164 216 282 328 378
#     4  10  22  46  74  92 124 176 224 264 320 402
#     4  11  25  43  68  95 133 174 215 271 328 391
#
# _framework density 19.655918
#
# number of rings (size 3 to 8) (size 9 to 14) (size 15 to 20)
#    0.000    1.333    1.667    2.000   14.000    2.667 
#    0.000    0.000    0.000    0.000    0.000    0.000 
#    0.000    0.000    0.000    0.000    0.000    0.000 
#
# Total GULP energy -67136.642774 kJ/mol
# GULP energy per Si atom -5594.720231 kJ/mol
# Density = 1.961118 g / cm^3
# Si number density = 19.655918 Si / 1000 Ang^3
#
#
#
# Elastic Constant Matrix: (Units=GPa)
#
#
# Indices 1 2 3 4 5 6 
#
# 1 153.8073 45.1834 98.1940 0.0000 0.0000 0.0000
# 2 45.1834 35.7991 34.6322 0.0000 0.0000 0.0000
# 3 98.1940 34.6322 104.0110 0.0000 0.0000 0.0000
# 4 0.0000 0.0000 0.0000 4.8017 0.0000 0.0000
# 5 0.0000 0.0000 0.0000 0.0000 59.8248 0.0000
# 6 0.0000 0.0000 0.0000 0.0000 0.0000 20.6077
#
#
#
# Elastic Compliance Matrix: (Units=1/GPa)
#
#
# Indices 1 2 3 4 5 6 
#
# 1 0.018289 -0.009411 -0.014132 0.000000 0.000000 0.000000
# 2 -0.009411 0.046050 -0.006448 0.000000 0.000000 0.000000
# 3 -0.014132 -0.006448 0.025103 0.000000 0.000000 0.000000
# 4 0.000000 0.000000 0.000000 0.208261 0.000000 0.000000
# 5 0.000000 0.000000 0.000000 0.000000 0.016715 0.000000
# 6 0.000000 0.000000 0.000000 0.000000 0.000000 0.048525
#
#
# Mechanical properties :
#
#
# Convention : Reuss Voigt Hill
#
# Bulk Modulus (GPa) = 33.94594 72.18185 53.06390
# Shear Modulus (GPa) = 11.55409 24.75402 18.15406
#
# Velocity S-wave (km/s) = 2.42712 3.55261 3.04236
# Velocity P-wave (km/s) = 5.01619 7.32328 6.27665
#
# Compressibility (1/GPa) = 0.02945860
#
# Stress axis : x y z
#
# Youngs Moduli (GPa) = 54.67858 21.71549 39.83540
#
# Poissons Ratio (x) = 0.20437 0.56296
# Poissons Ratio (y) = 0.51459 0.25687
# Poissons Ratio (z) = 0.77273 0.14003
#
# Static dielectric constant tensor:
#      x y z
#    x 1.656540 0.000000 0.000000 
#    y 0.000000 1.665460 0.000000 
#    z 0.000000 0.000000 1.687970 
# 
# From -- ./inp_files/5569.got.cif
#   From: 2010.05.17/outbox.cif.g08.bks.cpg/sg20_3_cif.got.tgz:5569.got - 2010.06.03 22:52:26.
