data_PCOD9320719
_publ_section_title
;
Structure prediction by ZEFSAII (Michael W. Deem and Ramdas Pophale) SiO2 
 PCOD9320719
Probable space group: C 2 2 21
;
_chemical_formula_sum "Si O2"
_cell_formula_units_Z 56
_cell_length_a 12.610187
_cell_length_b 12.522968
_cell_length_c 14.667027
_cell_angle_alpha 90.000000
_cell_angle_beta 90.000000
_cell_angle_gamma 90.000000
_cell_volume 2316.172437
_symmetry_space_group_name_H-M "C 2 2 21"
_symmetry_group_IT_number 20
_symmetry_cell_setting 'orthorhombic'
loop_
_space_group_symop_operation_xyz
x,y,z
-x,-y,1/2+z
x,-y,-z
-x,y,1/2-z
1/2+x,1/2+y,z
1/2-x,1/2-y,1/2+z
1/2+x,1/2-y,-z
1/2-x,1/2+y,1/2-z
loop_
_atom_site_type_symbol
_atom_site_label
_atom_site_fract_x
_atom_site_fract_y
_atom_site_fract_z
Si Si1 0.302311 0.035843 0.759919
Si Si2 0.695136 0.630896 0.910690
Si Si3 0.655541 0.905044 0.070346
Si Si4 0.124769 0.303673 0.759965
Si Si5 0.042370 0.715159 0.657243
Si Si6 0.530745 0.379314 0.502723
Si Si7 0.307189 0.772133 0.936657
O O1 0.212524 0.033404 0.838033
O O2 0.270635 0.069569 0.658155
O O3 0.372423 0.130092 0.805329
O O4 0.370318 0.932172 0.732830
O O5 0.672880 0.731638 0.841356
O O6 0.591521 0.615790 0.973322
O O7 0.792783 0.639075 0.984577
O O8 0.545295 0.857448 0.106327
O O9 0.717388 0.807372 0.026610
O O10 0.641556 0.000000 0.000000
O O11 0.200339 0.297048 0.669702
O O12 0.000000 0.275163 0.750000
O O13 0.061805 0.818277 0.595416
O O14 0.000000 0.763909 0.750000
O O15 0.573220 0.500000 0.500000
O O16 0.584360 0.293716 0.436240
#
# Coordination Sequence:
#
# PCOD9320719 Si02
#       7
#     8   8   8   8   8   8   8
#     4  11  25  44  75 106 143 194 248 312 383 448
#     4  12  26  49  73 110 149 191 257 313 374 470
#     4  11  22  42  72 107 141 192 248 305 378 449
#     4  12  26  49  75 108 152 198 252 322 388 445
#     4  10  23  46  69 105 146 188 252 314 370 453
#     4  12  27  47  70 104 147 198 248 308 388 447
#     4  12  25  45  73 102 147 196 246 310 371 457
#
# _framework density 24.177819
#
# number of rings (size 3 to 8) (size 9 to 14) (size 15 to 20)
#    0.000    0.571    5.714    2.571    2.000    1.143 
#    2.571    0.000    0.000    0.000    0.000    0.000 
#    0.000    0.000    0.000    0.000    0.000    0.000 
#
# Total GULP energy -156006.340851 kJ/mol
# GULP energy per Si atom -5571.655030 kJ/mol
# Density = 2.412279 g / cm^3
# Si number density = 24.177819 Si / 1000 Ang^3
#
#
#
# Elastic Constant Matrix: (Units=GPa)
#
#
# Indices 1 2 3 4 5 6 
#
# 1 64.1574 7.7280 5.2111 0.0000 0.0000 0.0000
# 2 7.7280 85.2508 47.4268 0.0000 0.0000 0.0000
# 3 5.2111 47.4268 141.9905 0.0000 0.0000 0.0000
# 4 0.0000 0.0000 0.0000 28.7806 0.0000 0.0000
# 5 0.0000 0.0000 0.0000 0.0000 25.3831 0.0000
# 6 0.0000 0.0000 0.0000 0.0000 0.0000 24.4293
#
#
#
# Elastic Compliance Matrix: (Units=1/GPa)
#
#
# Indices 1 2 3 4 5 6 
#
# 1 0.015761 -0.001360 -0.000124 0.000000 0.000000 0.000000
# 2 -0.001360 0.014525 -0.004801 0.000000 0.000000 0.000000
# 3 -0.000124 -0.004801 0.008651 0.000000 0.000000 0.000000
# 4 0.000000 0.000000 0.000000 0.034746 0.000000 0.000000
# 5 0.000000 0.000000 0.000000 0.000000 0.039396 0.000000
# 6 0.000000 0.000000 0.000000 0.000000 0.000000 0.040934
#
#
# Mechanical properties :
#
#
# Convention : Reuss Voigt Hill
#
# Bulk Modulus (GPa) = 37.92850 45.79227 41.86039
# Shear Modulus (GPa) = 28.51089 31.12079 29.81584
#
# Velocity S-wave (km/s) = 3.43770 3.59160 3.51549
# Velocity P-wave (km/s) = 5.61056 6.01501 5.81630
#
# Compressibility (1/GPa) = 0.02636540
#
# Stress axis : x y z
#
# Youngs Moduli (GPa) = 63.44970 68.84917 115.59290
#
# Poissons Ratio (x) = 0.09360 0.01437
# Poissons Ratio (y) = 0.08626 0.55502
# Poissons Ratio (z) = 0.00789 0.33058
#
# Static dielectric constant tensor:
#      x y z
#    x 2.039890 0.000000 0.000000 
#    y 0.000000 2.198670 0.000000 
#    z 0.000000 0.000000 1.990280 
# 
# From -- ./inp_files/20731.got.cif
#   From: 2010.05.17/outbox.cif.g08.bks.cpg/sg20_11_cif.got.tgz:20731.got - 2010.06.03 22:52:26.
