data_PCOD9320916
_publ_section_title
;
Structure prediction by ZEFSAII (Michael W. Deem and Ramdas Pophale) SiO2 
 PCOD9320916
Probable space group: C 2 2 21
;
_chemical_formula_sum "Si O2"
_cell_formula_units_Z 60
_cell_length_a 25.892226
_cell_length_b 17.519787
_cell_length_c 6.450049
_cell_angle_alpha 90.000000
_cell_angle_beta 90.000000
_cell_angle_gamma 90.000000
_cell_volume 2925.911763
_symmetry_space_group_name_H-M "C 2 2 21"
_symmetry_group_IT_number 20
_symmetry_cell_setting 'orthorhombic'
loop_
_space_group_symop_operation_xyz
x,y,z
-x,-y,1/2+z
x,-y,-z
-x,y,1/2-z
1/2+x,1/2+y,z
1/2-x,1/2-y,1/2+z
1/2+x,1/2-y,-z
1/2-x,1/2+y,1/2-z
loop_
_atom_site_type_symbol
_atom_site_label
_atom_site_fract_x
_atom_site_fract_y
_atom_site_fract_z
Si Si1 0.021094 0.000000 0.500000
Si Si2 0.701205 0.927935 0.860894
Si Si3 0.732142 0.406961 0.999737
Si Si4 0.061055 0.729647 0.284266
Si Si5 0.365163 0.686571 0.451932
Si Si6 0.054181 0.844848 0.637197
Si Si7 0.605563 0.078170 0.433190
Si Si8 0.673524 0.165175 0.756906
O O1 0.048510 0.081415 0.506305
O O2 0.000000 0.004572 0.250000
O O3 0.748264 0.892363 0.734478
O O4 0.656040 0.948415 0.698255
O O5 0.676547 0.867963 0.013945
O O6 0.716698 0.000000 0.000000
O O7 0.677527 0.368994 0.047918
O O8 0.774525 0.364818 0.143562
O O9 0.732487 0.500000 0.000000
O O10 0.098718 0.766963 0.112721
O O11 0.071354 0.773896 0.498510
O O12 0.073157 0.640000 0.306227
O O13 0.000000 0.741807 0.250000
O O14 0.404470 0.638307 0.313797
O O15 0.335945 0.745960 0.298368
O O16 0.000000 0.826537 0.750000
O O17 0.627951 0.125160 0.628202
O O18 0.578273 0.000000 0.500000
#
# Coordination Sequence:
#
# PCOD9320916 Si02
#       8
#     4   8   8   8   8   8   8   8
#     4  10  24  44  76 108 140 196 254 310 380 450
#     4  11  19  40  69  89 130 180 215 267 348 411
#     4  11  26  43  63 100 139 171 222 289 346 421
#     4  12  25  44  68  96 137 184 232 296 360 424
#     4  12  27  42  70 102 134 185 239 285 362 440
#     4  11  24  47  73  99 136 185 239 304 366 432
#     4  11  22  39  66 102 131 176 233 281 338 431
#     4  11  22  41  65  97 133 175 222 275 341 427
#
# _framework density 20.506428
#
# number of rings (size 3 to 8) (size 9 to 14) (size 15 to 20)
#    0.000    0.800    6.667    1.200    3.733    2.133 
#    2.400    2.667    0.000    0.000    0.000    0.000 
#    0.000    0.000    0.000    0.000    0.000    0.000 
#
# Total GULP energy -167164.792171 kJ/mol
# GULP energy per Si atom -5572.159739 kJ/mol
# Density = 2.045975 g / cm^3
# Si number density = 20.506428 Si / 1000 Ang^3
#
#
#
# Elastic Constant Matrix: (Units=GPa)
#
#
# Indices 1 2 3 4 5 6 
#
# 1 86.8709 37.1546 27.7948 0.0000 0.0000 0.0000
# 2 37.1546 96.9476 24.1258 0.0000 0.0000 0.0000
# 3 27.7948 24.1258 80.0009 0.0000 0.0000 0.0000
# 4 0.0000 0.0000 0.0000 31.3519 0.0000 0.0000
# 5 0.0000 0.0000 0.0000 0.0000 16.0162 0.0000
# 6 0.0000 0.0000 0.0000 0.0000 0.0000 22.2791
#
#
#
# Elastic Compliance Matrix: (Units=1/GPa)
#
#
# Indices 1 2 3 4 5 6 
#
# 1 0.014710 -0.004720 -0.003687 0.000000 0.000000 0.000000
# 2 -0.004720 0.012666 -0.002180 0.000000 0.000000 0.000000
# 3 -0.003687 -0.002180 0.014438 0.000000 0.000000 0.000000
# 4 0.000000 0.000000 0.000000 0.031896 0.000000 0.000000
# 5 0.000000 0.000000 0.000000 0.000000 0.062437 0.000000
# 6 0.000000 0.000000 0.000000 0.000000 0.000000 0.044885
#
#
# Mechanical properties :
#
#
# Convention : Reuss Voigt Hill
#
# Bulk Modulus (GPa) = 48.44908 49.10776 48.77842
# Shear Modulus (GPa) = 23.91357 25.57906 24.74631
#
# Velocity S-wave (km/s) = 3.41860 3.53564 3.47761
# Velocity P-wave (km/s) = 6.26578 6.37708 6.32168
#
# Compressibility (1/GPa) = 0.02064023
#
# Stress axis : x y z
#
# Youngs Moduli (GPa) = 67.98204 78.95043 69.26013
#
# Poissons Ratio (x) = 0.37263 0.25538
# Poissons Ratio (y) = 0.32086 0.15098
# Poissons Ratio (z) = 0.25067 0.17211
#
# Static dielectric constant tensor:
#      x y z
#    x 1.732370 0.000000 0.000000 
#    y 0.000000 1.767360 0.000000 
#    z 0.000000 0.000000 1.769650 
# 
# From -- ./inp_files/4324.got.cif
#   From: 2010.05.17/outbox.cif.g08.bks.cpg/sg20_3_cif.got.tgz:4324.got - 2010.06.03 22:52:26.
