data_PCOD9320242
_publ_section_title
;
Structure prediction by ZEFSAII (Michael W. Deem and Ramdas Pophale) SiO2 
 PCOD9320242
Probable space group: C 2 2 21
;
_chemical_formula_sum "Si O2"
_cell_formula_units_Z 40
_cell_length_a 11.534733
_cell_length_b 20.349482
_cell_length_c 8.283305
_cell_angle_alpha 90.000000
_cell_angle_beta 90.000000
_cell_angle_gamma 90.000000
_cell_volume 1944.305737
_symmetry_space_group_name_H-M "C 2 2 21"
_symmetry_group_IT_number 20
_symmetry_cell_setting 'orthorhombic'
loop_
_space_group_symop_operation_xyz
x,y,z
-x,-y,1/2+z
x,-y,-z
-x,y,1/2-z
1/2+x,1/2+y,z
1/2-x,1/2-y,1/2+z
1/2+x,1/2-y,-z
1/2-x,1/2+y,1/2-z
loop_
_atom_site_type_symbol
_atom_site_label
_atom_site_fract_x
_atom_site_fract_y
_atom_site_fract_z
Si Si1 0.497573 0.365176 0.061420
Si Si2 0.629429 0.500000 0.000000
Si Si3 0.249251 0.835633 0.588302
Si Si4 0.886141 0.752531 0.655012
Si Si5 0.476174 0.000000 0.500000
Si Si6 0.836142 0.459966 0.777660
O O1 0.500000 0.347826 0.250000
O O2 0.552661 0.436695 0.036434
O O3 0.367278 0.363158 0.994235
O O4 0.570776 0.313001 0.956764
O O5 0.716323 0.484310 0.852513
O O6 0.205605 0.781510 0.717299
O O7 0.329300 0.802228 0.455479
O O8 0.314078 0.893742 0.680724
O O9 0.000000 0.728723 0.750000
O O10 0.391569 0.012142 0.651461
O O11 0.569047 0.050256 0.420383
#
# Coordination Sequence:
#
# PCOD9320242 Si02
#       6
#     8   4   8   8   4   8
#     4  11  25  41  68 106 136 180 236 284 356 416
#     4  11  24  41  72 100 140 183 225 294 346 412
#     4  11  23  45  70  99 139 184 224 296 339 420
#     4  10  23  47  68 103 140 178 237 280 352 417
#     4   9  22  45  60  98 128 173 223 284 324 422
#     4  10  22  44  67  94 138 176 228 278 349 403
#
# _framework density 20.572896
#
# number of rings (size 3 to 8) (size 9 to 14) (size 15 to 20)
#    0.000    1.600    2.000    1.200    5.600    0.000 
#   21.600    0.000    0.000    0.000    0.000    0.000 
#    0.000    0.000    0.000    0.000    0.000    0.000 
#
# Total GULP energy -111737.266052 kJ/mol
# GULP energy per Si atom -5586.863303 kJ/mol
# Density = 2.052607 g / cm^3
# Si number density = 20.572896 Si / 1000 Ang^3
#
#
#
# Elastic Constant Matrix: (Units=GPa)
#
#
# Indices 1 2 3 4 5 6 
#
# 1 114.8085 86.1228 77.5630 0.0000 0.0000 0.0000
# 2 86.1228 94.7311 65.3971 0.0000 0.0000 0.0000
# 3 77.5630 65.3971 145.1294 0.0000 0.0000 0.0000
# 4 0.0000 0.0000 0.0000 39.8888 0.0000 0.0000
# 5 0.0000 0.0000 0.0000 0.0000 25.7146 0.0000
# 6 0.0000 0.0000 0.0000 0.0000 0.0000 11.9720
#
#
#
# Elastic Compliance Matrix: (Units=1/GPa)
#
#
# Indices 1 2 3 4 5 6 
#
# 1 0.030092 -0.023595 -0.005450 0.000000 0.000000 0.000000
# 2 -0.023595 0.033823 -0.002631 0.000000 0.000000 0.000000
# 3 -0.005450 -0.002631 0.010989 0.000000 0.000000 0.000000
# 4 0.000000 0.000000 0.000000 0.025070 0.000000 0.000000
# 5 0.000000 0.000000 0.000000 0.000000 0.038888 0.000000
# 6 0.000000 0.000000 0.000000 0.000000 0.000000 0.083528
#
#
# Mechanical properties :
#
#
# Convention : Reuss Voigt Hill
#
# Bulk Modulus (GPa) = 86.56779 90.31498 88.44139
# Shear Modulus (GPa) = 17.26564 23.88747 20.57656
#
# Velocity S-wave (km/s) = 2.90011 3.41121 3.16599
# Velocity P-wave (km/s) = 7.30644 7.71430 7.51314
#
# Compressibility (1/GPa) = 0.01155164
#
# Stress axis : x y z
#
# Youngs Moduli (GPa) = 33.23196 29.56547 91.00158
#
# Poissons Ratio (x) = 0.69759 0.49597
# Poissons Ratio (y) = 0.78410 0.23945
# Poissons Ratio (z) = 0.18112 0.07779
#
# Static dielectric constant tensor:
#      x y z
#    x 1.724800 0.000000 0.000000 
#    y 0.000000 1.698880 0.000000 
#    z 0.000000 0.000000 1.753780 
# 
# From -- ./inp_files/7100.got.cif
#   From: 2010.05.17/outbox.cif.g08.bks.cpg/sg20_4_cif.got.tgz:7100.got - 2010.06.03 22:52:26.
