data_PCOD9320061
_publ_section_title
;
Structure prediction by ZEFSAII (Michael W. Deem and Ramdas Pophale) SiO2 
 PCOD9320061
Probable space group: C 2 2 21
;
_chemical_formula_sum "Si O2"
_cell_formula_units_Z 56
_cell_length_a 5.305790
_cell_length_b 23.545606
_cell_length_c 18.418216
_cell_angle_alpha 90.000000
_cell_angle_beta 90.000000
_cell_angle_gamma 90.000000
_cell_volume 2300.951641
_symmetry_space_group_name_H-M "C 2 2 21"
_symmetry_group_IT_number 20
_symmetry_cell_setting 'orthorhombic'
loop_
_space_group_symop_operation_xyz
x,y,z
-x,-y,1/2+z
x,-y,-z
-x,y,1/2-z
1/2+x,1/2+y,z
1/2-x,1/2-y,1/2+z
1/2+x,1/2-y,-z
1/2-x,1/2+y,1/2-z
loop_
_atom_site_type_symbol
_atom_site_label
_atom_site_fract_x
_atom_site_fract_y
_atom_site_fract_z
Si Si1 0.244281 0.685641 0.298481
Si Si2 0.820240 0.853130 0.392997
Si Si3 0.748947 0.060876 0.299872
Si Si4 0.435999 0.946458 0.453719
Si Si5 0.490751 0.242901 0.897727
Si Si6 0.724768 0.666901 0.490252
Si Si7 0.015686 0.042643 0.663178
O O1 0.500000 0.689252 0.250000
O O2 0.220674 0.623047 0.335078
O O3 0.266356 0.735176 0.356717
O O4 0.000000 0.691509 0.250000
O O5 0.644714 0.905991 0.417558
O O6 0.672425 0.802984 0.354666
O O7 0.971059 0.829588 0.461618
O O8 0.009087 0.889055 0.345150
O O9 0.500000 0.050188 0.250000
O O10 0.000000 0.069277 0.250000
O O11 0.812486 0.008220 0.352222
O O12 0.297227 0.899411 0.506132
O O13 0.247830 0.969337 0.390872
O O14 0.522999 0.000000 0.500000
O O15 0.337224 0.299725 0.917207
O O16 0.570266 0.205319 0.967376
O O17 0.000000 0.037695 0.750000
#
# Coordination Sequence:
#
# PCOD9320061 Si02
#       7
#     8   8   8   8   8   8   8
#     4  10  24  44  64 102 136 175 230 286 347 414
#     4  10  23  43  63  99 132 172 235 279 346 428
#     4   9  20  40  65  95 134 172 226 277 340 419
#     4  10  24  44  65 104 137 171 232 291 355 422
#     4  11  22  42  69  92 131 177 227 282 342 420
#     4  10  22  42  66  95 126 175 227 280 346 411
#     4  10  23  42  69  97 138 182 224 285 359 431
#
# _framework density 24.337757
#
# number of rings (size 3 to 8) (size 9 to 14) (size 15 to 20)
#    0.000    2.000    1.429    0.000    8.000    2.286 
#    7.714    0.000    0.000    0.000    0.000    0.000 
#    0.000    0.000    0.000    0.000    0.000    0.000 
#
# Total GULP energy -156099.386315 kJ/mol
# GULP energy per Si atom -5574.978083 kJ/mol
# Density = 2.428236 g / cm^3
# Si number density = 24.337757 Si / 1000 Ang^3
#
#
#
# Elastic Constant Matrix: (Units=GPa)
#
#
# Indices 1 2 3 4 5 6 
#
# 1 51.6099 -16.0041 -17.6527 0.0000 0.0000 0.0000
# 2 -16.0041 106.0530 13.9685 0.0000 0.0000 0.0000
# 3 -17.6527 13.9685 37.2173 0.0000 0.0000 0.0000
# 4 0.0000 0.0000 0.0000 4.8042 0.0000 0.0000
# 5 0.0000 0.0000 0.0000 0.0000 19.8244 0.0000
# 6 0.0000 0.0000 0.0000 0.0000 0.0000 32.8410
#
#
#
# Elastic Compliance Matrix: (Units=1/GPa)
#
#
# Indices 1 2 3 4 5 6 
#
# 1 0.023605 0.002196 0.010372 0.000000 0.000000 0.000000
# 2 0.002196 0.010124 -0.002758 0.000000 0.000000 0.000000
# 3 0.010372 -0.002758 0.032824 0.000000 0.000000 0.000000
# 4 0.000000 0.000000 0.000000 0.208151 0.000000 0.000000
# 5 0.000000 0.000000 0.000000 0.000000 0.050443 0.000000
# 6 0.000000 0.000000 0.000000 0.000000 0.000000 0.030450
#
#
# Mechanical properties :
#
#
# Convention : Reuss Voigt Hill
#
# Bulk Modulus (GPa) = 11.60469 17.27817 14.44143
# Shear Modulus (GPa) = 13.70989 25.79850 19.75419
#
# Velocity S-wave (km/s) = 2.37601 3.25933 2.85207
# Velocity P-wave (km/s) = 3.50795 4.61292 4.09785
#
# Compressibility (1/GPa) = 0.08617204
#
# Stress axis : x y z
#
# Youngs Moduli (GPa) = 42.36442 98.77591 30.46555
#
# Poissons Ratio (x) = -0.21691 -0.31598
# Poissons Ratio (y) = -0.09303 0.08403
# Poissons Ratio (z) = -0.43940 0.27244
#
# Static dielectric constant tensor:
#      x y z
#    x 2.187030 0.000000 0.000000 
#    y 0.000000 2.047470 0.000000 
#    z 0.000000 0.000000 1.977620 
# 
# From -- ./inp_files/26182.got.cif
#   From: 2010.05.17/outbox.cif.g08.bks.cpg/sg20_14_cif.got.tgz:26182.got - 2010.06.03 22:52:26.
