data_PCOD9320969
_publ_section_title
;
Structure prediction by ZEFSAII (Michael W. Deem and Ramdas Pophale) SiO2 
 PCOD9320969
Probable space group: C 2 2 21
;
_chemical_formula_sum "Si O2"
_cell_formula_units_Z 20
_cell_length_a 11.531944
_cell_length_b 13.737841
_cell_length_c 5.096571
_cell_angle_alpha 90.000000
_cell_angle_beta 90.000000
_cell_angle_gamma 90.000000
_cell_volume 807.419231
_symmetry_space_group_name_H-M "C 2 2 21"
_symmetry_group_IT_number 20
_symmetry_cell_setting 'orthorhombic'
loop_
_space_group_symop_operation_xyz
x,y,z
-x,-y,1/2+z
x,-y,-z
-x,y,1/2-z
1/2+x,1/2+y,z
1/2-x,1/2-y,1/2+z
1/2+x,1/2-y,-z
1/2-x,1/2+y,1/2-z
loop_
_atom_site_type_symbol
_atom_site_label
_atom_site_fract_x
_atom_site_fract_y
_atom_site_fract_z
Si Si1 0.000000 0.177732 0.750000
Si Si2 0.567420 0.500000 0.000000
Si Si3 0.685095 0.210066 0.555581
Si Si4 0.082516 0.500000 0.500000
O O1 0.062417 0.243299 0.536536
O O2 0.901251 0.101227 0.645984
O O3 0.500000 0.455162 0.750000
O O4 0.774619 0.250529 0.336525
O O5 0.661287 0.094973 0.537594
O O6 0.000000 0.487573 0.750000
#
# Coordination Sequence:
#
# PCOD9320969 Si02
#       4
#     4   4   8   4
#     4  10  24  46  70 100 154 188 246 320 374 448
#     4   8  20  35  71  94 130 182 220 293 387 416
#     4  12  29  45  78 112 148 203 265 314 382 466
#     4  12  26  53  83 108 160 216 254 317 399 470
#
# _framework density 24.77028
#
# number of rings (size 3 to 8) (size 9 to 14) (size 15 to 20)
#    1.200    0.000    2.000    2.400    5.600    4.800 
#    0.000    0.000    0.000    0.000    0.000    0.000 
#    0.000    0.000    0.000    0.000    0.000    0.000 
#
# Total GULP energy -55722.778754 kJ/mol
# GULP energy per Si atom -5572.277875 kJ/mol
# Density = 2.471390 g / cm^3
# Si number density = 24.770280 Si / 1000 Ang^3
#
#
#
# Elastic Constant Matrix: (Units=GPa)
#
#
# Indices 1 2 3 4 5 6 
#
# 1 112.6360 43.2368 16.0671 0.0000 0.0000 0.0000
# 2 43.2368 236.5774 14.4549 0.0000 0.0000 0.0000
# 3 16.0671 14.4549 114.4311 0.0000 0.0000 0.0000
# 4 0.0000 0.0000 0.0000 44.4066 0.0000 0.0000
# 5 0.0000 0.0000 0.0000 0.0000 58.4631 0.0000
# 6 0.0000 0.0000 0.0000 0.0000 0.0000 43.7430
#
#
#
# Elastic Compliance Matrix: (Units=1/GPa)
#
#
# Indices 1 2 3 4 5 6 
#
# 1 0.009695 -0.001702 -0.001146 0.000000 0.000000 0.000000
# 2 -0.001702 0.004559 -0.000337 0.000000 0.000000 0.000000
# 3 -0.001146 -0.000337 0.008942 0.000000 0.000000 0.000000
# 4 0.000000 0.000000 0.000000 0.022519 0.000000 0.000000
# 5 0.000000 0.000000 0.000000 0.000000 0.017105 0.000000
# 6 0.000000 0.000000 0.000000 0.000000 0.000000 0.022861
#
#
# Mechanical properties :
#
#
# Convention : Reuss Voigt Hill
#
# Bulk Modulus (GPa) = 59.43211 67.90691 63.66951
# Shear Modulus (GPa) = 51.19845 55.31493 53.25669
#
# Velocity S-wave (km/s) = 4.55128 4.73071 4.64187
# Velocity P-wave (km/s) = 7.18779 7.57058 7.38167
#
# Compressibility (1/GPa) = 0.01682592
#
# Stress axis : x y z
#
# Youngs Moduli (GPa) = 103.14674 219.36794 111.82698
#
# Poissons Ratio (x) = 0.37332 0.12819
# Poissons Ratio (y) = 0.17554 0.03767
# Poissons Ratio (z) = 0.11824 0.07390
#
# Static dielectric constant tensor:
#      x y z
#    x 2.172190 0.000000 0.000000 
#    y 0.000000 1.944260 0.000000 
#    z 0.000000 0.000000 1.603170 
# 
# From -- ./inp_files/835.got.cif
#   From: 2010.05.17/outbox.cif.g08.bks.cpg/sg20_1_cif.got.tgz:835.got - 2010.06.03 22:52:26.
