data_PCOD9320470
_publ_section_title
;
Structure prediction by ZEFSAII (Michael W. Deem and Ramdas Pophale) SiO2 
 PCOD9320470
Probable space group: C 2 2 21
;
_chemical_formula_sum "Si O2"
_cell_formula_units_Z 60
_cell_length_a 26.519252
_cell_length_b 8.906187
_cell_length_c 12.362133
_cell_angle_alpha 90.000000
_cell_angle_beta 90.000000
_cell_angle_gamma 90.000000
_cell_volume 2919.755543
_symmetry_space_group_name_H-M "C 2 2 21"
_symmetry_group_IT_number 20
_symmetry_cell_setting 'orthorhombic'
loop_
_space_group_symop_operation_xyz
x,y,z
-x,-y,1/2+z
x,-y,-z
-x,y,1/2-z
1/2+x,1/2+y,z
1/2-x,1/2-y,1/2+z
1/2+x,1/2-y,-z
1/2-x,1/2+y,1/2-z
loop_
_atom_site_type_symbol
_atom_site_label
_atom_site_fract_x
_atom_site_fract_y
_atom_site_fract_z
Si Si1 0.710683 0.306145 0.700828
Si Si2 0.906709 0.189743 0.262591
Si Si3 0.052056 0.821216 0.990631
Si Si4 0.364762 0.756777 0.908562
Si Si5 0.448214 0.157318 0.934612
Si Si6 0.940873 0.844229 0.269055
Si Si7 0.226608 0.525997 0.379248
Si Si8 0.702644 0.500000 0.500000
O O1 0.651034 0.321025 0.724632
O O2 0.740122 0.367536 0.804314
O O3 0.727632 0.395564 0.591745
O O4 0.721831 0.133051 0.678557
O O5 0.911709 0.218233 0.391013
O O6 0.937084 0.315241 0.192797
O O7 0.931580 0.023184 0.250388
O O8 0.998926 0.744212 0.965160
O O9 0.071578 0.787584 0.110406
O O10 0.043245 0.000000 0.000000
O O11 0.404038 0.739224 0.812361
O O12 0.328106 0.897419 0.893895
O O13 0.398954 0.767035 0.014173
O O14 0.330252 0.612467 0.926838
O O15 0.450904 0.000000 0.000000
O O16 0.000000 0.814803 0.250000
O O17 0.247486 0.500000 0.500000
#
# Coordination Sequence:
#
# PCOD9320470 Si02
#       8
#     8   8   8   8   8   8   8   4
#     4  12  26  46  73 107 136 191 235 306 360 431
#     4  11  22  41  69  97 142 179 234 287 359 419
#     4  10  23  41  64  98 136 182 232 286 347 420
#     4  12  22  42  69 101 136 184 237 294 341 422
#     4  12  23  40  66  97 134 184 231 288 343 415
#     4  11  21  39  68 103 137 183 239 286 345 421
#     4  12  27  49  74 103 145 180 246 296 368 429
#     4  12  22  42  76 102 136 182 244 292 352 418
#
# _framework density 20.549665999999998
#
# number of rings (size 3 to 8) (size 9 to 14) (size 15 to 20)
#    0.000    0.533    5.333    4.000    0.933    1.600 
#    7.200    0.000    0.000    0.000    0.000    0.000 
#    0.000    0.000    0.000    0.000    0.000    0.000 
#
# Total GULP energy -167573.275022 kJ/mol
# GULP energy per Si atom -5585.775834 kJ/mol
# Density = 2.050289 g / cm^3
# Si number density = 20.549666 Si / 1000 Ang^3
#
#
#
# Elastic Constant Matrix: (Units=GPa)
#
#
# Indices 1 2 3 4 5 6 
#
# 1 43.9847 3.6851 36.6193 0.0000 0.0000 0.0000
# 2 3.6851 64.0743 37.9399 0.0000 0.0000 0.0000
# 3 36.6193 37.9399 150.6061 0.0000 0.0000 0.0000
# 4 0.0000 0.0000 0.0000 24.6125 0.0000 0.0000
# 5 0.0000 0.0000 0.0000 0.0000 226.8508 0.0000
# 6 0.0000 0.0000 0.0000 0.0000 0.0000 30.0824
#
#
#
# Elastic Compliance Matrix: (Units=1/GPa)
#
#
# Indices 1 2 3 4 5 6 
#
# 1 0.028970 0.002944 -0.007786 0.000000 0.000000 0.000000
# 2 0.002944 0.018642 -0.005412 0.000000 0.000000 0.000000
# 3 -0.007786 -0.005412 0.009896 0.000000 0.000000 0.000000
# 4 0.000000 0.000000 0.000000 0.040630 0.000000 0.000000
# 5 0.000000 0.000000 0.000000 0.000000 0.004408 0.000000
# 6 0.000000 0.000000 0.000000 0.000000 0.000000 0.033242
#
#
# Mechanical properties :
#
#
# Convention : Reuss Voigt Hill
#
# Bulk Modulus (GPa) = 27.02609 46.12821 36.57715
# Shear Modulus (GPa) = 29.65065 68.33718 48.99391
#
# Velocity S-wave (km/s) = 3.80264 5.77294 4.88809
# Velocity P-wave (km/s) = 5.69739 8.18118 7.04954
#
# Compressibility (1/GPa) = 0.03700129
#
# Stress axis : x y z
#
# Youngs Moduli (GPa) = 34.51787 53.64181 101.04816
#
# Poissons Ratio (x) = -0.15792 0.78673
# Poissons Ratio (y) = -0.10162 0.54688
# Poissons Ratio (z) = 0.26875 0.29031
#
# Static dielectric constant tensor:
#      x y z
#    x 1.693430 0.000000 0.000000 
#    y 0.000000 1.754560 0.000000 
#    z 0.000000 0.000000 1.750940 
# 
# From -- ./inp_files/17065.got.cif
#   From: 2010.05.17/outbox.cif.g08.bks.cpg/sg20_9_cif.got.tgz:17065.got - 2010.06.03 22:52:26.
