data_PCOD9320007
_publ_section_title
;
Structure prediction by ZEFSAII (Michael W. Deem and Ramdas Pophale) SiO2 
 PCOD9320007
Probable space group: C 2 2 21
;
_chemical_formula_sum "Si O2"
_cell_formula_units_Z 40
_cell_length_a 5.493058
_cell_length_b 21.767090
_cell_length_c 14.981113
_cell_angle_alpha 90.000000
_cell_angle_beta 90.000000
_cell_angle_gamma 90.000000
_cell_volume 1791.260039
_symmetry_space_group_name_H-M "C 2 2 21"
_symmetry_group_IT_number 20
_symmetry_cell_setting 'orthorhombic'
loop_
_space_group_symop_operation_xyz
x,y,z
-x,-y,1/2+z
x,-y,-z
-x,y,1/2-z
1/2+x,1/2+y,z
1/2-x,1/2-y,1/2+z
1/2+x,1/2-y,-z
1/2-x,1/2+y,1/2-z
loop_
_atom_site_type_symbol
_atom_site_label
_atom_site_fract_x
_atom_site_fract_y
_atom_site_fract_z
Si Si1 0.112195 0.755085 0.849975
Si Si2 0.168702 0.364048 0.361672
Si Si3 0.085654 0.450751 0.918843
Si Si4 0.000000 0.478044 0.250000
Si Si5 0.416854 0.378574 0.545229
Si Si6 0.000000 0.785259 0.250000
O O1 0.054091 0.811513 0.912241
O O2 0.401753 0.753434 0.831880
O O3 0.000000 0.767679 0.750000
O O4 0.028537 0.688478 0.888065
O O5 0.108060 0.430424 0.322732
O O6 0.355109 0.371961 0.441294
O O7 0.289392 0.330189 0.278558
O O8 0.327725 0.412740 0.942171
O O9 0.138379 0.478560 0.820186
O O10 0.826587 0.413752 0.916793
O O11 0.059187 0.500000 0.000000
#
# Coordination Sequence:
#
# PCOD9320007 Si02
#       6
#     8   8   8   4   8   4
#     4  10  25  46  73 115 149 195 246 311 399 451
#     4  11  25  47  75 110 144 201 245 318 374 468
#     4  12  30  52  75 112 149 208 260 316 374 454
#     4  12  26  53  76 106 153 204 268 304 384 458
#     4  12  30  48  79 111 156 192 256 323 379 454
#     4  10  22  41  74 108 147 192 246 294 394 460
#
# _framework density 22.330649000000001
#
# number of rings (size 3 to 8) (size 9 to 14) (size 15 to 20)
#    0.000    0.800    5.000    0.600   16.800    0.000 
#    0.000    0.000    0.000    0.000    0.000    0.000 
#    0.000    0.000    0.000    0.000    0.000    0.000 
#
# Total GULP energy -111453.703912 kJ/mol
# GULP energy per Si atom -5572.685196 kJ/mol
# Density = 2.227982 g / cm^3
# Si number density = 22.330649 Si / 1000 Ang^3
#
#
#
# Elastic Constant Matrix: (Units=GPa)
#
#
# Indices 1 2 3 4 5 6 
#
# 1 85.3095 31.7585 8.2112 0.0000 0.0000 0.0000
# 2 31.7585 72.1522 49.2652 0.0000 0.0000 0.0000
# 3 8.2112 49.2652 108.3485 0.0000 0.0000 0.0000
# 4 0.0000 0.0000 0.0000 43.1023 0.0000 0.0000
# 5 0.0000 0.0000 0.0000 0.0000 24.0829 0.0000
# 6 0.0000 0.0000 0.0000 0.0000 0.0000 351.4466
#
#
#
# Elastic Compliance Matrix: (Units=1/GPa)
#
#
# Indices 1 2 3 4 5 6 
#
# 1 0.014514 -0.008175 0.002617 0.000000 0.000000 0.000000
# 2 -0.008175 0.024705 -0.010614 0.000000 0.000000 0.000000
# 3 0.002617 -0.010614 0.013857 0.000000 0.000000 0.000000
# 4 0.000000 0.000000 0.000000 0.023201 0.000000 0.000000
# 5 0.000000 0.000000 0.000000 0.000000 0.041523 0.000000
# 6 0.000000 0.000000 0.000000 0.000000 0.000000 0.002845
#
#
# Mechanical properties :
#
#
# Convention : Reuss Voigt Hill
#
# Bulk Modulus (GPa) = 48.23379 49.36444 48.79912
# Shear Modulus (GPa) = 31.26976 95.49806 63.38391
#
# Velocity S-wave (km/s) = 3.74613 6.54663 5.33347
# Velocity P-wave (km/s) = 6.35279 8.90497 7.73487
#
# Compressibility (1/GPa) = 0.02073235
#
# Stress axis : x y z
#
# Youngs Moduli (GPa) = 68.90086 40.47760 72.16553
#
# Poissons Ratio (x) = 0.33092 -0.18889
# Poissons Ratio (y) = 0.56330 0.76594
# Poissons Ratio (z) = -0.18034 0.42961
#
# Static dielectric constant tensor:
#      x y z
#    x 1.995010 0.000000 0.000000 
#    y 0.000000 1.896820 0.000000 
#    z 0.000000 0.000000 1.820410 
# 
# From -- ./inp_files/22672.got.cif
#   From: 2010.05.17/outbox.cif.g08.bks.cpg/sg20_12_cif.got.tgz:22672.got - 2010.06.03 22:52:26.
