data_PCOD9320028
_publ_section_title
;
Structure prediction by ZEFSAII (Michael W. Deem and Ramdas Pophale) SiO2 
 PCOD9320028
Probable space group: C 2 2 21
;
_chemical_formula_sum "Si O2"
_cell_formula_units_Z 56
_cell_length_a 14.821402
_cell_length_b 31.699792
_cell_length_c 6.251156
_cell_angle_alpha 90.000000
_cell_angle_beta 90.000000
_cell_angle_gamma 90.000000
_cell_volume 2937.014133
_symmetry_space_group_name_H-M "C 2 2 21"
_symmetry_group_IT_number 20
_symmetry_cell_setting 'orthorhombic'
loop_
_space_group_symop_operation_xyz
x,y,z
-x,-y,1/2+z
x,-y,-z
-x,y,1/2-z
1/2+x,1/2+y,z
1/2-x,1/2-y,1/2+z
1/2+x,1/2-y,-z
1/2-x,1/2+y,1/2-z
loop_
_atom_site_type_symbol
_atom_site_label
_atom_site_fract_x
_atom_site_fract_y
_atom_site_fract_z
Si Si1 0.587628 0.046829 0.084164
Si Si2 0.407066 0.655044 0.133479
Si Si3 0.304976 0.807731 0.269364
Si Si4 0.000000 0.801844 0.250000
Si Si5 0.074265 0.670124 0.421246
Si Si6 0.000000 0.397366 0.250000
Si Si7 0.653118 0.722780 0.032218
Si Si8 0.212496 0.376873 0.876064
O O1 0.500000 0.046563 0.250000
O O2 0.668723 0.077042 0.166076
O O3 0.567670 0.071462 0.864768
O O4 0.608426 0.000000 0.000000
O O5 0.500000 0.641121 0.250000
O O6 0.370321 0.696706 0.255752
O O7 0.320888 0.624334 0.141103
O O8 0.437377 0.668828 0.898040
O O9 0.304020 0.768146 0.427520
O O10 0.308705 0.851580 0.399805
O O11 0.389935 0.800497 0.110891
O O12 0.219070 0.804159 0.117517
O O13 0.939487 0.773823 0.403971
O O14 0.033054 0.631413 0.555433
O O15 0.160831 0.653061 0.293227
O O16 0.000000 0.683869 0.250000
#
# Coordination Sequence:
#
# PCOD9320028 Si02
#       8
#     8   8   8   4   8   4   8   8
#     4  12  24  39  66 101 140 175 212 260 317 397
#     4  10  22  42  64  89 114 159 220 277 331 379
#     4  12  25  40  61  87 126 168 220 274 329 394
#     4  10  22  44  60  83 120 158 218 283 326 378
#     4  12  23  41  60  90 125 168 218 264 321 394
#     4  12  20  42  60  91 132 172 212 257 312 378
#     4  11  24  42  59  87 119 167 216 277 333 384
#     4  12  22  42  66  91 123 171 221 267 322 399
#
# _framework density 19.066984000000001
#
# number of rings (size 3 to 8) (size 9 to 14) (size 15 to 20)
#    0.000    0.571    7.857    0.857    0.000    0.000 
#   18.000    0.000    0.000    0.000    1.857    0.000 
#    0.000    0.000    0.000    0.000    0.000    0.000 
#
# Total GULP energy -156184.297984 kJ/mol
# GULP energy per Si atom -5578.010642 kJ/mol
# Density = 1.902359 g / cm^3
# Si number density = 19.066984 Si / 1000 Ang^3
#
#
#
# Elastic Constant Matrix: (Units=GPa)
#
#
# Indices 1 2 3 4 5 6 
#
# 1 121.1244 44.0018 35.3974 0.0000 0.0000 0.0000
# 2 44.0018 90.2092 40.0939 0.0000 0.0000 0.0000
# 3 35.3974 40.0939 72.6671 0.0000 0.0000 0.0000
# 4 0.0000 0.0000 0.0000 7.0914 0.0000 0.0000
# 5 0.0000 0.0000 0.0000 0.0000 44.8703 0.0000
# 6 0.0000 0.0000 0.0000 0.0000 0.0000 16.8876
#
#
#
# Elastic Compliance Matrix: (Units=1/GPa)
#
#
# Indices 1 2 3 4 5 6 
#
# 1 0.010517 -0.003780 -0.003037 0.000000 0.000000 0.000000
# 2 -0.003780 0.016045 -0.007012 0.000000 0.000000 0.000000
# 3 -0.003037 -0.007012 0.019110 0.000000 0.000000 0.000000
# 4 0.000000 0.000000 0.000000 0.141016 0.000000 0.000000
# 5 0.000000 0.000000 0.000000 0.000000 0.022286 0.000000
# 6 0.000000 0.000000 0.000000 0.000000 0.000000 0.059215
#
#
# Mechanical properties :
#
#
# Convention : Reuss Voigt Hill
#
# Bulk Modulus (GPa) = 55.51284 58.10967 56.81125
# Shear Modulus (GPa) = 16.56439 24.73703 20.65071
#
# Velocity S-wave (km/s) = 2.95065 3.60582 3.29456
# Velocity P-wave (km/s) = 6.38641 6.91944 6.65826
#
# Compressibility (1/GPa) = 0.01801385
#
# Stress axis : x y z
#
# Youngs Moduli (GPa) = 95.08645 62.32279 52.32938
#
# Poissons Ratio (x) = 0.23557 0.15894
# Poissons Ratio (y) = 0.35941 0.36693
# Poissons Ratio (z) = 0.28881 0.43700
#
# Static dielectric constant tensor:
#      x y z
#    x 1.751280 0.000000 0.000000 
#    y 0.000000 1.659790 0.000000 
#    z 0.000000 0.000000 1.746960 
# 
# From -- ./inp_files/2277.got.cif
#   From: 2010.05.17/outbox.cif.g08.bks.cpg/sg20_2_cif.got.tgz:2277.got - 2010.06.03 22:52:26.
