data_PCOD9320254
_publ_section_title
;
Structure prediction by ZEFSAII (Michael W. Deem and Ramdas Pophale) SiO2 
 PCOD9320254
Probable space group: C 2 2 21
;
_chemical_formula_sum "Si O2"
_cell_formula_units_Z 60
_cell_length_a 22.284641
_cell_length_b 5.252605
_cell_length_c 22.654896
_cell_angle_alpha 90.000000
_cell_angle_beta 90.000000
_cell_angle_gamma 90.000000
_cell_volume 2651.810328
_symmetry_space_group_name_H-M "C 2 2 21"
_symmetry_group_IT_number 20
_symmetry_cell_setting 'orthorhombic'
loop_
_space_group_symop_operation_xyz
x,y,z
-x,-y,1/2+z
x,-y,-z
-x,y,1/2-z
1/2+x,1/2+y,z
1/2-x,1/2-y,1/2+z
1/2+x,1/2-y,-z
1/2-x,1/2+y,1/2-z
loop_
_atom_site_type_symbol
_atom_site_label
_atom_site_fract_x
_atom_site_fract_y
_atom_site_fract_z
Si Si1 0.628350 0.803837 0.359813
Si Si2 0.251486 0.080997 0.789650
Si Si3 0.103152 0.373844 0.059661
Si Si4 0.045619 0.992571 0.129945
Si Si5 0.934850 0.643132 0.742822
Si Si6 0.081684 0.832540 0.418198
Si Si7 0.483590 0.000000 0.000000
Si Si8 0.858281 0.640427 0.333328
O O1 0.693994 0.861920 0.333839
O O2 0.585205 0.729687 0.304138
O O3 0.627337 0.563326 0.404590
O O4 0.602997 0.068089 0.387212
O O5 0.251672 0.299348 0.738220
O O6 0.190144 0.144715 0.824602
O O7 0.148921 0.457851 0.111040
O O8 0.088404 0.081869 0.075385
O O9 0.127085 0.500000 0.000000
O O10 0.031471 0.456925 0.053221
O O11 0.075498 0.738747 0.152345
O O12 0.979396 0.943552 0.109384
O O13 0.054245 0.178951 0.185792
O O14 0.873642 0.492429 0.728047
O O15 0.000000 0.510847 0.750000
O O16 0.059240 0.731828 0.482173
#
# Coordination Sequence:
#
# PCOD9320254 Si02
#       8
#     8   8   8   8   8   8   4   8
#     4  12  26  44  64 103 136 191 235 286 349 440
#     4  12  26  48  71  96 141 196 243 290 349 424
#     4   9  21  39  64 104 135 172 232 288 359 425
#     4  11  21  37  64 103 135 181 217 289 361 430
#     4  11  22  36  60  98 145 172 220 288 364 429
#     4  12  25  43  69  99 140 177 235 288 362 434
#     4  10  22  44  68  96 144 180 222 296 366 434
#     4  11  23  39  65  96 134 182 238 286 357 422
#
# _framework density 22.626052999999999
#
# number of rings (size 3 to 8) (size 9 to 14) (size 15 to 20)
#    0.400    0.533    4.000    3.200    3.733    4.267 
#    0.000    0.000    2.933    0.000    0.000    0.000 
#    0.000    0.000    0.000    0.000    0.000    0.000 
#
# Total GULP energy -167028.377429 kJ/mol
# GULP energy per Si atom -5567.612581 kJ/mol
# Density = 2.257455 g / cm^3
# Si number density = 22.626053 Si / 1000 Ang^3
#
#
#
# Elastic Constant Matrix: (Units=GPa)
#
#
# Indices 1 2 3 4 5 6 
#
# 1 48.3579 -15.1055 13.4614 0.0000 0.0000 0.0000
# 2 -15.1055 71.8026 19.9669 0.0000 0.0000 0.0000
# 3 13.4614 19.9669 77.5412 0.0000 0.0000 0.0000
# 4 0.0000 0.0000 0.0000 40.7913 0.0000 0.0000
# 5 0.0000 0.0000 0.0000 0.0000 28.9025 0.0000
# 6 0.0000 0.0000 0.0000 0.0000 0.0000 30.0668
#
#
#
# Elastic Compliance Matrix: (Units=1/GPa)
#
#
# Indices 1 2 3 4 5 6 
#
# 1 0.024482 0.006821 -0.006006 0.000000 0.000000 0.000000
# 2 0.006821 0.016901 -0.005536 0.000000 0.000000 0.000000
# 3 -0.006006 -0.005536 0.015365 0.000000 0.000000 0.000000
# 4 0.000000 0.000000 0.000000 0.024515 0.000000 0.000000
# 5 0.000000 0.000000 0.000000 0.000000 0.034599 0.000000
# 6 0.000000 0.000000 0.000000 0.000000 0.000000 0.033259
#
#
# Mechanical properties :
#
#
# Convention : Reuss Voigt Hill
#
# Bulk Modulus (GPa) = 21.13995 26.03859 23.58927
# Shear Modulus (GPa) = 28.68070 31.91071 30.29570
#
# Velocity S-wave (km/s) = 3.56419 3.75954 3.66317
# Velocity P-wave (km/s) = 5.12849 5.51169 5.32354
#
# Compressibility (1/GPa) = 0.04730380
#
# Stress axis : x y z
#
# Youngs Moduli (GPa) = 40.84684 59.16647 65.08429
#
# Poissons Ratio (x) = -0.40355 0.39092
# Poissons Ratio (y) = -0.27860 0.36032
# Poissons Ratio (z) = 0.24534 0.32756
#
# Static dielectric constant tensor:
#      x y z
#    x 1.820710 0.000000 0.000000 
#    y 0.000000 1.967730 0.000000 
#    z 0.000000 0.000000 2.346860 
# 
# From -- ./inp_files/29547.got.cif
#   From: 2010.05.17/outbox.cif.g08.bks.cpg/sg20_15_cif.got.tgz:29547.got - 2010.06.03 22:52:26.
