data_PCOD9320520
_publ_section_title
;
Structure prediction by ZEFSAII (Michael W. Deem and Ramdas Pophale) SiO2 
 PCOD9320520
Probable space group: C 2 2 21
;
_chemical_formula_sum "Si O2"
_cell_formula_units_Z 40
_cell_length_a 19.280533
_cell_length_b 12.668655
_cell_length_c 7.873882
_cell_angle_alpha 90.000000
_cell_angle_beta 90.000000
_cell_angle_gamma 90.000000
_cell_volume 1923.261983
_symmetry_space_group_name_H-M "C 2 2 21"
_symmetry_group_IT_number 20
_symmetry_cell_setting 'orthorhombic'
loop_
_space_group_symop_operation_xyz
x,y,z
-x,-y,1/2+z
x,-y,-z
-x,y,1/2-z
1/2+x,1/2+y,z
1/2-x,1/2-y,1/2+z
1/2+x,1/2-y,-z
1/2-x,1/2+y,1/2-z
loop_
_atom_site_type_symbol
_atom_site_label
_atom_site_fract_x
_atom_site_fract_y
_atom_site_fract_z
Si Si1 0.725873 0.625116 0.534173
Si Si2 0.423542 0.687194 0.101769
Si Si3 0.940612 0.881769 0.511204
Si Si4 0.336368 0.240232 0.313679
Si Si5 0.060049 0.391378 0.603100
O O1 0.731669 0.500000 0.500000
O O2 0.655337 0.663528 0.443308
O O3 0.712387 0.673327 0.720848
O O4 0.792258 0.683202 0.457470
O O5 0.476325 0.616173 0.990560
O O6 0.430434 0.662777 0.299559
O O7 0.448911 0.802128 0.041931
O O8 0.901529 0.805396 0.383931
O O9 0.912708 0.000000 0.500000
O O10 0.369224 0.149187 0.194192
O O11 0.064545 0.500000 0.500000
O O12 0.000000 0.394342 0.750000
#
# Coordination Sequence:
#
# PCOD9320520 Si02
#       5
#     8   8   8   8   8
#     4  11  24  42  66  93 136 182 222 285 349 417
#     4  10  23  42  66 100 134 171 229 281 347 413
#     4  11  22  40  70  99 133 174 224 290 348 410
#     4  11  25  43  65 101 137 178 238 290 345 426
#     4  11  25  43  69  97 139 184 236 292 355 412
#
# _framework density 20.797996999999999
#
# number of rings (size 3 to 8) (size 9 to 14) (size 15 to 20)
#    0.000    1.200    2.000    3.000    2.800   10.400 
#    0.000    2.000    0.000    0.000    0.000    0.000 
#    0.000    0.000    0.000    0.000    0.000    0.000 
#
# Total GULP energy -111597.440391 kJ/mol
# GULP energy per Si atom -5579.872020 kJ/mol
# Density = 2.075066 g / cm^3
# Si number density = 20.797997 Si / 1000 Ang^3
#
#
#
# Elastic Constant Matrix: (Units=GPa)
#
#
# Indices 1 2 3 4 5 6 
#
# 1 52.4380 12.5795 12.1629 0.0000 0.0000 0.0000
# 2 12.5795 166.9230 46.0821 0.0000 0.0000 0.0000
# 3 12.1629 46.0821 83.7097 0.0000 0.0000 0.0000
# 4 0.0000 0.0000 0.0000 30.2552 0.0000 0.0000
# 5 0.0000 0.0000 0.0000 0.0000 35.0201 0.0000
# 6 0.0000 0.0000 0.0000 0.0000 0.0000 35.5600
#
#
#
# Elastic Compliance Matrix: (Units=1/GPa)
#
#
# Indices 1 2 3 4 5 6 
#
# 1 0.019831 -0.000824 -0.002428 0.000000 0.000000 0.000000
# 2 -0.000824 0.007099 -0.003788 0.000000 0.000000 0.000000
# 3 -0.002428 -0.003788 0.014384 0.000000 0.000000 0.000000
# 4 0.000000 0.000000 0.000000 0.033052 0.000000 0.000000
# 5 0.000000 0.000000 0.000000 0.000000 0.028555 0.000000
# 6 0.000000 0.000000 0.000000 0.000000 0.000000 0.028122
#
#
# Mechanical properties :
#
#
# Convention : Reuss Voigt Hill
#
# Bulk Modulus (GPa) = 36.71909 49.41330 43.06619
# Shear Modulus (GPa) = 32.42535 35.65012 34.03773
#
# Velocity S-wave (km/s) = 3.95278 4.14468 4.04986
# Velocity P-wave (km/s) = 6.20693 6.83482 6.52843
#
# Compressibility (1/GPa) = 0.02723379
#
# Stress axis : x y z
#
# Youngs Moduli (GPa) = 50.42613 140.87157 69.52123
#
# Poissons Ratio (x) = 0.11612 0.16877
# Poissons Ratio (y) = 0.04157 0.26335
# Poissons Ratio (z) = 0.12242 0.53363
#
# Static dielectric constant tensor:
#      x y z
#    x 1.761910 0.000000 0.000000 
#    y 0.000000 1.756810 0.000000 
#    z 0.000000 0.000000 1.783060 
# 
# From -- ./inp_files/7035.got.cif
#   From: 2010.05.17/outbox.cif.g08.bks.cpg/sg20_4_cif.got.tgz:7035.got - 2010.06.03 22:52:26.
