data_PCOD9320383
_publ_section_title
;
Structure prediction by ZEFSAII (Michael W. Deem and Ramdas Pophale) SiO2 
 PCOD9320383
Probable space group: C 2 2 21
;
_chemical_formula_sum "Si O2"
_cell_formula_units_Z 32
_cell_length_a 5.518662
_cell_length_b 29.837075
_cell_length_c 7.836818
_cell_angle_alpha 90.000000
_cell_angle_beta 90.000000
_cell_angle_gamma 90.000000
_cell_volume 1290.416188
_symmetry_space_group_name_H-M "C 2 2 21"
_symmetry_group_IT_number 20
_symmetry_cell_setting 'orthorhombic'
loop_
_space_group_symop_operation_xyz
x,y,z
-x,-y,1/2+z
x,-y,-z
-x,y,1/2-z
1/2+x,1/2+y,z
1/2-x,1/2-y,1/2+z
1/2+x,1/2-y,-z
1/2-x,1/2+y,1/2-z
loop_
_atom_site_type_symbol
_atom_site_label
_atom_site_fract_x
_atom_site_fract_y
_atom_site_fract_z
Si Si1 0.550846 0.825276 0.563758
Si Si2 0.234144 0.051659 0.542757
Si Si3 0.745244 0.270715 0.349311
Si Si4 0.735916 0.913615 0.435573
O O1 0.500000 0.845050 0.750000
O O2 0.707481 0.780078 0.587263
O O3 0.294613 0.806848 0.495280
O O4 0.671033 0.861207 0.439820
O O5 0.248451 0.065345 0.744663
O O6 0.501436 0.064002 0.476959
O O7 0.995683 0.077710 0.479672
O O8 0.190406 0.000000 0.500000
O O9 0.500000 0.281032 0.250000
O O10 0.000000 0.272326 0.250000
#
# Coordination Sequence:
#
# PCOD9320383 Si02
#       4
#     8   8   8   8
#     4  11  25  49  72 116 157 205 268 317 393 452
#     4  10  22  47  73 103 144 185 248 314 397 455
#     4  11  26  47  77 106 157 219 263 326 383 467
#     4  10  24  44  74 108 143 192 248 315 372 476
#
# _framework density 24.798203999999998
#
# number of rings (size 3 to 8) (size 9 to 14) (size 15 to 20)
#    0.000    1.500    0.000    3.750    3.500    8.000 
#   22.500    0.000    0.000    0.000    0.000    0.000 
#    0.000    0.000    0.000    0.000    0.000    0.000 
#
# Total GULP energy -89464.362874 kJ/mol
# GULP energy per Si atom -5591.522680 kJ/mol
# Density = 2.474176 g / cm^3
# Si number density = 24.798204 Si / 1000 Ang^3
#
#
#
# Elastic Constant Matrix: (Units=GPa)
#
#
# Indices 1 2 3 4 5 6 
#
# 1 224.2390 54.6896 32.0419 0.0000 0.0000 0.0000
# 2 54.6896 161.0655 43.9757 0.0000 0.0000 0.0000
# 3 32.0419 43.9757 100.6701 0.0000 0.0000 0.0000
# 4 0.0000 0.0000 0.0000 40.9240 0.0000 0.0000
# 5 0.0000 0.0000 0.0000 0.0000 21.7036 0.0000
# 6 0.0000 0.0000 0.0000 0.0000 0.0000 44.1604
#
#
#
# Elastic Compliance Matrix: (Units=1/GPa)
#
#
# Indices 1 2 3 4 5 6 
#
# 1 0.004942 -0.001418 -0.000954 0.000000 0.000000 0.000000
# 2 -0.001418 0.007456 -0.002806 0.000000 0.000000 0.000000
# 3 -0.000954 -0.002806 0.011463 0.000000 0.000000 0.000000
# 4 0.000000 0.000000 0.000000 0.024436 0.000000 0.000000
# 5 0.000000 0.000000 0.000000 0.000000 0.046075 0.000000
# 6 0.000000 0.000000 0.000000 0.000000 0.000000 0.022645
#
#
# Mechanical properties :
#
#
# Convention : Reuss Voigt Hill
#
# Bulk Modulus (GPa) = 74.03976 83.04321 78.54148
# Shear Modulus (GPa) = 37.91560 45.04209 41.47884
#
# Velocity S-wave (km/s) = 3.91444 4.26648 4.09425
# Velocity P-wave (km/s) = 7.09593 7.60466 7.35469
#
# Compressibility (1/GPa) = 0.01350626
#
# Stress axis : x y z
#
# Youngs Moduli (GPa) = 202.36736 134.11929 87.24003
#
# Poissons Ratio (x) = 0.19012 0.08319
# Poissons Ratio (y) = 0.28686 0.24478
# Poissons Ratio (z) = 0.19298 0.37632
#
# Static dielectric constant tensor:
#      x y z
#    x 1.965330 0.000000 0.000000 
#    y 0.000000 1.939530 0.000000 
#    z 0.000000 0.000000 2.148040 
# 
# From -- ./inp_files/5131.got.cif
#   From: 2010.05.17/outbox.cif.g08.bks.cpg/sg20_3_cif.got.tgz:5131.got - 2010.06.03 22:52:26.
