data_PCOD9320934
_publ_section_title
;
Structure prediction by ZEFSAII (Michael W. Deem and Ramdas Pophale) SiO2 
 PCOD9320934
Probable space group: C 2 2 21
;
_chemical_formula_sum "Si O2"
_cell_formula_units_Z 36
_cell_length_a 20.102844
_cell_length_b 8.858650
_cell_length_c 8.658438
_cell_angle_alpha 90.000000
_cell_angle_beta 90.000000
_cell_angle_gamma 90.000000
_cell_volume 1541.929784
_symmetry_space_group_name_H-M "C 2 2 21"
_symmetry_group_IT_number 20
_symmetry_cell_setting 'orthorhombic'
loop_
_space_group_symop_operation_xyz
x,y,z
-x,-y,1/2+z
x,-y,-z
-x,y,1/2-z
1/2+x,1/2+y,z
1/2-x,1/2-y,1/2+z
1/2+x,1/2-y,-z
1/2-x,1/2+y,1/2-z
loop_
_atom_site_type_symbol
_atom_site_label
_atom_site_fract_x
_atom_site_fract_y
_atom_site_fract_z
Si Si1 0.375595 0.886871 0.632204
Si Si2 0.000000 0.561400 0.750000
Si Si3 0.132890 0.093668 0.726492
Si Si4 0.606152 0.720068 0.388765
Si Si5 0.775964 0.549744 0.831998
O O1 0.381349 0.706400 0.630168
O O2 0.349320 0.000000 0.500000
O O3 0.447188 0.955067 0.667663
O O4 0.323699 0.918884 0.768974
O O5 0.045146 0.667694 0.642099
O O6 0.108532 0.168493 0.566315
O O7 0.212664 0.074452 0.725023
O O8 0.102334 0.926468 0.721261
O O9 0.674677 0.807768 0.348180
O O10 0.751092 0.500000 0.000000
#
# Coordination Sequence:
#
# PCOD9320934 Si02
#       5
#     8   4   8   8   8
#     4  11  26  42  72 103 139 195 247 299 375 444
#     4  10  26  48  66  96 144 192 254 306 368 454
#     4  11  24  42  74 105 143 188 245 312 375 442
#     4  10  24  45  69 106 142 193 247 311 370 442
#     4  11  23  42  70 103 152 186 235 300 378 452
#
# _framework density 23.347366999999998
#
# number of rings (size 3 to 8) (size 9 to 14) (size 15 to 20)
#    0.000    1.333    2.222    1.333    9.333    2.667 
#    4.000    0.000    0.000    0.000    0.000    0.000 
#    0.000    0.000    0.000    0.000    0.000    0.000 
#
# Total GULP energy -100603.409706 kJ/mol
# GULP energy per Si atom -5589.078317 kJ/mol
# Density = 2.329423 g / cm^3
# Si number density = 23.347367 Si / 1000 Ang^3
#
#
#
# Elastic Constant Matrix: (Units=GPa)
#
#
# Indices 1 2 3 4 5 6 
#
# 1 115.0204 25.2302 7.2152 0.0000 0.0000 0.0000
# 2 25.2302 137.2875 9.5856 0.0000 0.0000 0.0000
# 3 7.2152 9.5856 44.3843 0.0000 0.0000 0.0000
# 4 0.0000 0.0000 0.0000 29.0126 0.0000 0.0000
# 5 0.0000 0.0000 0.0000 0.0000 33.0672 0.0000
# 6 0.0000 0.0000 0.0000 0.0000 0.0000 -9.7983
#
#
#
# Elastic Compliance Matrix: (Units=1/GPa)
#
#
# Indices 1 2 3 4 5 6 
#
# 1 0.009115 -0.001596 -0.001137 0.000000 0.000000 0.000000
# 2 -0.001596 0.007675 -0.001398 0.000000 0.000000 0.000000
# 3 -0.001137 -0.001398 0.023017 0.000000 0.000000 0.000000
# 4 0.000000 0.000000 0.000000 0.034468 0.000000 0.000000
# 5 0.000000 0.000000 0.000000 0.000000 0.030241 0.000000
# 6 0.000000 0.000000 0.000000 0.000000 0.000000 -0.102058
#
#
# Mechanical properties :
#
#
# Convention : Reuss Voigt Hill
#
# Bulk Modulus (GPa) = 31.70030 42.30602 37.00316
# Shear Modulus (GPa) = 235.45223 27.43372 131.44298
#
# Velocity S-wave (km/s) = 10.05318 3.43158 7.51140
# Velocity P-wave (km/s) = 12.18041 5.81899 9.54523
#
# Compressibility (1/GPa) = 0.03154544
#
# Stress axis : x y z
#
# Youngs Moduli (GPa) = 109.70334 130.29529 43.44562
#
# Poissons Ratio (x) = 0.20793 0.04941
# Poissons Ratio (y) = 0.17507 0.06074
# Poissons Ratio (z) = 0.12475 0.18217
#
# Static dielectric constant tensor:
#      x y z
#    x 1.784530 0.000000 0.000000 
#    y 0.000000 1.919470 0.000000 
#    z 0.000000 0.000000 2.197720 
# 
# From -- ./inp_files/5923.got.cif
#   From: 2010.05.17/outbox.cif.g08.bks.cpg/sg20_3_cif.got.tgz:5923.got - 2010.06.03 22:52:26.
