data_PCOD9320207
_publ_section_title
;
Structure prediction by ZEFSAII (Michael W. Deem and Ramdas Pophale) SiO2 
 PCOD9320207
Probable space group: C 2 2 21
;
_chemical_formula_sum "Si O2"
_cell_formula_units_Z 32
_cell_length_a 7.248412
_cell_length_b 23.921563
_cell_length_c 8.731598
_cell_angle_alpha 90.000000
_cell_angle_beta 90.000000
_cell_angle_gamma 90.000000
_cell_volume 1514.000978
_symmetry_space_group_name_H-M "C 2 2 21"
_symmetry_group_IT_number 20
_symmetry_cell_setting 'orthorhombic'
loop_
_space_group_symop_operation_xyz
x,y,z
-x,-y,1/2+z
x,-y,-z
-x,y,1/2-z
1/2+x,1/2+y,z
1/2-x,1/2-y,1/2+z
1/2+x,1/2-y,-z
1/2-x,1/2+y,1/2-z
loop_
_atom_site_type_symbol
_atom_site_label
_atom_site_fract_x
_atom_site_fract_y
_atom_site_fract_z
Si Si1 0.125783 0.078668 0.967132
Si Si2 0.336860 0.236373 0.639590
Si Si3 0.079206 0.661559 0.420696
Si Si4 0.000000 0.010732 0.250000
Si Si5 0.500000 0.330938 0.250000
O O1 0.012958 0.129511 0.895917
O O2 0.320498 0.104716 0.022184
O O3 0.001880 0.052125 0.103496
O O4 0.145346 0.033662 0.827079
O O5 0.500000 0.254765 0.750000
O O6 0.238081 0.291057 0.576353
O O7 0.420478 0.190273 0.523974
O O8 0.179179 0.206189 0.736124
O O9 0.000000 0.654101 0.250000
#
# Coordination Sequence:
#
# PCOD9320207 Si02
#       5
#     8   8   8   4   4
#     4  10  22  43  72 101 129 186 236 296 373 412
#     4  12  24  45  64 109 155 190 235 289 348 453
#     4  12  25  40  70 108 149 194 239 283 357 448
#     4   9  22  44  74  92 134 174 242 317 366 402
#     4  11  22  44  72 102 144 190 232 291 370 428
#
# _framework density 21.136049
#
# number of rings (size 3 to 8) (size 9 to 14) (size 15 to 20)
#    0.000    1.000    3.750    3.000    5.250    0.000 
#    0.000    0.000   33.000    0.000    0.000    0.000 
#    0.000    0.000    0.000    0.000    0.000    0.000 
#
# Total GULP energy -89118.428132 kJ/mol
# GULP energy per Si atom -5569.901758 kJ/mol
# Density = 2.108794 g / cm^3
# Si number density = 21.136049 Si / 1000 Ang^3
#
#
#
# Elastic Constant Matrix: (Units=GPa)
#
#
# Indices 1 2 3 4 5 6 
#
# 1 114.2938 47.8971 59.9764 0.0000 0.0000 0.0000
# 2 47.8971 116.0104 59.4520 0.0000 0.0000 0.0000
# 3 59.9764 59.4520 121.2685 0.0000 0.0000 0.0000
# 4 0.0000 0.0000 0.0000 -192.4679 0.0000 0.0000
# 5 0.0000 0.0000 0.0000 0.0000 37.6818 0.0000
# 6 0.0000 0.0000 0.0000 0.0000 0.0000 22.9188
#
#
#
# Elastic Compliance Matrix: (Units=1/GPa)
#
#
# Indices 1 2 3 4 5 6 
#
# 1 0.012393 -0.002638 -0.004836 0.000000 0.000000 0.000000
# 2 -0.002638 0.012074 -0.004614 0.000000 0.000000 0.000000
# 3 -0.004836 -0.004614 0.012900 0.000000 0.000000 0.000000
# 4 0.000000 0.000000 0.000000 -0.005196 0.000000 0.000000
# 5 0.000000 0.000000 0.000000 0.000000 0.026538 0.000000
# 6 0.000000 0.000000 0.000000 0.000000 0.000000 0.043632
#
#
# Mechanical properties :
#
#
# Convention : Reuss Voigt Hill
#
# Bulk Modulus (GPa) = 75.81658 76.24707 76.03183
# Shear Modulus (GPa) = 38.19293 -14.09030 12.05131
#
# Velocity S-wave (km/s) = 4.25550 -2.58475 2.39043
# Velocity P-wave (km/s) = 7.75205 5.21966 6.60829
#
# Compressibility (1/GPa) = 0.01318973
#
# Stress axis : x y z
#
# Youngs Moduli (GPa) = 80.69368 82.82274 77.51989
#
# Poissons Ratio (x) = 0.21852 0.37485
# Poissons Ratio (y) = 0.21290 0.35771
# Poissons Ratio (z) = 0.39020 0.38218
#
# Static dielectric constant tensor:
#      x y z
#    x 1.744440 0.000000 0.000000 
#    y 0.000000 1.804830 0.000000 
#    z 0.000000 0.000000 1.817310 
# 
# From -- ./inp_files/5180.got.cif
#   From: 2010.05.17/outbox.cif.g08.bks.cpg/sg20_3_cif.got.tgz:5180.got - 2010.06.03 22:52:26.
