data_PCOD9320258
_publ_section_title
;
Structure prediction by ZEFSAII (Michael W. Deem and Ramdas Pophale) SiO2 
 PCOD9320258
Probable space group: C 2 2 21
;
_chemical_formula_sum "Si O2"
_cell_formula_units_Z 60
_cell_length_a 5.508392
_cell_length_b 21.183994
_cell_length_c 22.726545
_cell_angle_alpha 90.000000
_cell_angle_beta 90.000000
_cell_angle_gamma 90.000000
_cell_volume 2651.954697
_symmetry_space_group_name_H-M "C 2 2 21"
_symmetry_group_IT_number 20
_symmetry_cell_setting 'orthorhombic'
loop_
_space_group_symop_operation_xyz
x,y,z
-x,-y,1/2+z
x,-y,-z
-x,y,1/2-z
1/2+x,1/2+y,z
1/2-x,1/2-y,1/2+z
1/2+x,1/2-y,-z
1/2-x,1/2+y,1/2-z
loop_
_atom_site_type_symbol
_atom_site_label
_atom_site_fract_x
_atom_site_fract_y
_atom_site_fract_z
Si Si1 0.869170 0.137272 0.194785
Si Si2 0.318778 0.847309 0.112488
Si Si3 0.505050 0.452787 0.906124
Si Si4 0.551266 0.746690 0.819199
Si Si5 0.489981 0.354257 0.497232
Si Si6 0.695939 0.754804 0.070161
Si Si7 0.997304 0.479937 0.126029
Si Si8 0.500000 0.961891 0.750000
O O1 0.704346 0.190410 0.165617
O O2 0.711352 0.083957 0.227417
O O3 0.000000 0.169930 0.250000
O O4 0.022367 0.100501 0.145772
O O5 0.189845 0.819363 0.169666
O O6 0.438107 0.785116 0.084838
O O7 0.501275 0.904443 0.121220
O O8 0.133417 0.872214 0.063872
O O9 0.444159 0.415628 0.966017
O O10 0.764908 0.488694 0.907767
O O11 0.262115 0.492874 0.890886
O O12 0.500000 0.752220 0.750000
O O13 0.336991 0.746244 0.867590
O O14 0.317139 0.313026 0.540001
O O15 0.690267 0.304039 0.476344
O O16 0.937250 0.496717 0.193698
#
# Coordination Sequence:
#
# PCOD9320258 Si02
#       8
#     8   8   8   8   8   8   8   4
#     4  11  22  41  69 103 142 181 242 306 365 428
#     4  11  27  49  71 102 149 197 245 301 370 458
#     4  11  27  45  76 105 142 192 249 303 363 433
#     4  11  27  42  73 111 146 187 244 313 373 446
#     4  11  25  45  73 104 141 191 244 309 375 441
#     4  11  25  46  71 105 143 191 241 307 385 439
#     4  11  27  48  71 109 143 200 246 299 368 440
#     4  10  22  44  68  98 146 192 240 298 362 434
#
# _framework density 22.624822999999999
#
# number of rings (size 3 to 8) (size 9 to 14) (size 15 to 20)
#    0.000    1.067    3.333    0.800   14.933    1.600 
#    2.400    0.000    0.000    0.000    0.000    0.000 
#    0.000    0.000    0.000    0.000    0.000    0.000 
#
# Total GULP energy -167584.832735 kJ/mol
# GULP energy per Si atom -5586.161091 kJ/mol
# Density = 2.257333 g / cm^3
# Si number density = 22.624823 Si / 1000 Ang^3
#
#
#
# Elastic Constant Matrix: (Units=GPa)
#
#
# Indices 1 2 3 4 5 6 
#
# 1 47.2209 1.7358 3.8216 0.0000 0.0000 0.0000
# 2 1.7358 74.6955 24.2998 0.0000 0.0000 0.0000
# 3 3.8216 24.2998 41.3890 0.0000 0.0000 0.0000
# 4 0.0000 0.0000 0.0000 -1.1338 0.0000 0.0000
# 5 0.0000 0.0000 0.0000 0.0000 15.8400 0.0000
# 6 0.0000 0.0000 0.0000 0.0000 0.0000 34.5126
#
#
#
# Elastic Compliance Matrix: (Units=1/GPa)
#
#
# Indices 1 2 3 4 5 6 
#
# 1 0.021338 0.000179 -0.002076 0.000000 0.000000 0.000000
# 2 0.000179 0.016550 -0.009733 0.000000 0.000000 0.000000
# 3 -0.002076 -0.009733 0.030067 0.000000 0.000000 0.000000
# 4 0.000000 0.000000 0.000000 -0.881989 0.000000 0.000000
# 5 0.000000 0.000000 0.000000 0.000000 0.063131 0.000000
# 6 0.000000 0.000000 0.000000 0.000000 0.000000 0.028975
#
#
# Mechanical properties :
#
#
# Convention : Reuss Voigt Hill
#
# Bulk Modulus (GPa) = 22.37300 24.77998 23.57649
# Shear Modulus (GPa) = -7.31240 18.74031 5.71396
#
# Velocity S-wave (km/s) = -1.79973 2.88116 1.59091
# Velocity P-wave (km/s) = 2.36462 4.69515 3.71725
#
# Compressibility (1/GPa) = 0.04469673
#
# Stress axis : x y z
#
# Youngs Moduli (GPa) = 46.86377 60.42337 33.25900
#
# Poissons Ratio (x) = -0.01084 0.06903
# Poissons Ratio (y) = -0.00840 0.32371
# Poissons Ratio (z) = 0.09727 0.58811
#
# Static dielectric constant tensor:
#      x y z
#    x 1.922680 0.000000 0.000000 
#    y 0.000000 1.816850 0.000000 
#    z 0.000000 0.000000 1.849920 
# 
# From -- ./inp_files/26217.got.cif
#   From: 2010.05.17/outbox.cif.g08.bks.cpg/sg20_14_cif.got.tgz:26217.got - 2010.06.03 22:52:26.
