data_PCOD9320103
_publ_section_title
;
Structure prediction by ZEFSAII (Michael W. Deem and Ramdas Pophale) SiO2 
 PCOD9320103
Probable space group: C 2 2 21
;
_chemical_formula_sum "Si O2"
_cell_formula_units_Z 40
_cell_length_a 11.414937
_cell_length_b 18.110682
_cell_length_c 9.141743
_cell_angle_alpha 90.000000
_cell_angle_beta 90.000000
_cell_angle_gamma 90.000000
_cell_volume 1889.893502
_symmetry_space_group_name_H-M "C 2 2 21"
_symmetry_group_IT_number 20
_symmetry_cell_setting 'orthorhombic'
loop_
_space_group_symop_operation_xyz
x,y,z
-x,-y,1/2+z
x,-y,-z
-x,y,1/2-z
1/2+x,1/2+y,z
1/2-x,1/2-y,1/2+z
1/2+x,1/2-y,-z
1/2-x,1/2+y,1/2-z
loop_
_atom_site_type_symbol
_atom_site_label
_atom_site_fract_x
_atom_site_fract_y
_atom_site_fract_z
Si Si1 0.829295 0.582561 0.342839
Si Si2 0.113504 0.284272 0.339124
Si Si3 0.887713 0.026023 0.840942
Si Si4 0.295176 0.319841 0.089316
Si Si5 0.911421 0.420930 0.960992
O O1 0.736901 0.515825 0.320746
O O2 0.782344 0.637813 0.466140
O O3 0.847080 0.614025 0.179869
O O4 0.957463 0.562335 0.402912
O O5 0.218233 0.285517 0.220231
O O6 0.135198 0.236583 0.485485
O O7 0.091656 0.366767 0.401559
O O8 0.000000 0.258335 0.250000
O O9 0.869138 0.113869 0.838404
O O10 0.000000 0.003000 0.750000
O O11 0.922375 0.000000 0.000000
O O12 0.857064 0.500000 0.000000
#
# Coordination Sequence:
#
# PCOD9320103 Si02
#       5
#     8   8   8   8   8
#     4  10  22  42  69  99 132 174 226 284 345 406
#     4  12  26  43  67  98 138 185 228 284 351 407
#     4  10  23  42  67  96 133 175 220 278 340 414
#     4  11  24  44  64  96 140 177 230 282 336 419
#     4  11  22  39  72 101 132 170 227 290 348 405
#
# _framework density 21.165215
#
# number of rings (size 3 to 8) (size 9 to 14) (size 15 to 20)
#    0.000    1.200    2.000    4.200    2.800    7.200 
#    3.600    0.000    0.000    0.000    0.000    0.000 
#    0.000    0.000    0.000    0.000    0.000    0.000 
#
# Total GULP energy -111547.570495 kJ/mol
# GULP energy per Si atom -5577.378525 kJ/mol
# Density = 2.111704 g / cm^3
# Si number density = 21.165215 Si / 1000 Ang^3
#
#
#
# Elastic Constant Matrix: (Units=GPa)
#
#
# Indices 1 2 3 4 5 6 
#
# 1 79.3333 30.3424 52.6200 0.0000 0.0000 0.0000
# 2 30.3424 66.9623 12.0960 0.0000 0.0000 0.0000
# 3 52.6200 12.0960 99.0330 0.0000 0.0000 0.0000
# 4 0.0000 0.0000 0.0000 25.6801 0.0000 0.0000
# 5 0.0000 0.0000 0.0000 0.0000 30.6700 0.0000
# 6 0.0000 0.0000 0.0000 0.0000 0.0000 29.0333
#
#
#
# Elastic Compliance Matrix: (Units=1/GPa)
#
#
# Indices 1 2 3 4 5 6 
#
# 1 0.023452 -0.008565 -0.011415 0.000000 0.000000 0.000000
# 2 -0.008565 0.018399 0.002304 0.000000 0.000000 0.000000
# 3 -0.011415 0.002304 0.015881 0.000000 0.000000 0.000000
# 4 0.000000 0.000000 0.000000 0.038941 0.000000 0.000000
# 5 0.000000 0.000000 0.000000 0.000000 0.032605 0.000000
# 6 0.000000 0.000000 0.000000 0.000000 0.000000 0.034443
#
#
# Mechanical properties :
#
#
# Convention : Reuss Voigt Hill
#
# Bulk Modulus (GPa) = 44.68285 48.38281 46.53283
# Shear Modulus (GPa) = 24.20920 27.09469 25.65195
#
# Velocity S-wave (km/s) = 3.38571 3.58180 3.48514
# Velocity P-wave (km/s) = 6.03667 6.32574 6.18289
#
# Compressibility (1/GPa) = 0.02237995
#
# Stress axis : x y z
#
# Youngs Moduli (GPa) = 42.64034 54.35202 62.96666
#
# Poissons Ratio (x) = 0.46551 0.71875
# Poissons Ratio (y) = 0.36520 -0.14505
# Poissons Ratio (z) = 0.48673 -0.12520
#
# Static dielectric constant tensor:
#      x y z
#    x 1.807050 0.000000 0.000000 
#    y 0.000000 1.819860 0.000000 
#    z 0.000000 0.000000 1.724440 
# 
# From -- ./inp_files/7041.got.cif
#   From: 2010.05.17/outbox.cif.g08.bks.cpg/sg20_4_cif.got.tgz:7041.got - 2010.06.03 22:52:26.
