data_PCOD9320216
_publ_section_title
;
Structure prediction by ZEFSAII (Michael W. Deem and Ramdas Pophale) SiO2 
 PCOD9320216
Probable space group: C 2 2 21
;
_chemical_formula_sum "Si O2"
_cell_formula_units_Z 56
_cell_length_a 27.040697
_cell_length_b 5.497973
_cell_length_c 17.162680
_cell_angle_alpha 90.000000
_cell_angle_beta 90.000000
_cell_angle_gamma 90.000000
_cell_volume 2551.558851
_symmetry_space_group_name_H-M "C 2 2 21"
_symmetry_group_IT_number 20
_symmetry_cell_setting 'orthorhombic'
loop_
_space_group_symop_operation_xyz
x,y,z
-x,-y,1/2+z
x,-y,-z
-x,y,1/2-z
1/2+x,1/2+y,z
1/2-x,1/2-y,1/2+z
1/2+x,1/2-y,-z
1/2-x,1/2+y,1/2-z
loop_
_atom_site_type_symbol
_atom_site_label
_atom_site_fract_x
_atom_site_fract_y
_atom_site_fract_z
Si Si1 0.407784 0.757231 0.042516
Si Si2 0.516497 0.179577 0.902159
Si Si3 0.000000 0.993172 0.250000
Si Si4 0.411364 0.500000 0.500000
Si Si5 0.922694 0.618073 0.288303
Si Si6 0.157843 0.075996 0.849790
Si Si7 0.241324 0.493907 0.295581
Si Si8 0.137366 0.730266 0.701014
O O1 0.461629 0.853354 0.068183
O O2 0.375482 0.672252 0.116605
O O3 0.416045 0.500000 0.000000
O O4 0.385588 0.000000 0.000000
O O5 0.511039 0.363784 0.829113
O O6 0.543062 0.952542 0.860847
O O7 0.551537 0.288856 0.969699
O O8 0.048771 0.826574 0.257607
O O9 0.374745 0.479285 0.425633
O O10 0.868098 0.676862 0.320893
O O11 0.912239 0.404331 0.228897
O O12 0.216631 0.059919 0.860629
O O13 0.149349 0.903912 0.774106
O O14 0.246286 0.772400 0.265744
O O15 0.184535 0.442439 0.313997
#
# Coordination Sequence:
#
# PCOD9320216 Si02
#       8
#     8   8   4   4   8   8   8   8
#     4  12  30  46  69 102 142 189 240 296 354 420
#     4  12  26  43  62  99 143 189 232 294 353 427
#     4  12  24  42  66 100 136 180 250 280 354 426
#     4  12  24  44  64 100 150 178 232 298 368 418
#     4  12  22  40  73  98 130 188 241 292 344 430
#     4  11  24  44  71 103 138 182 238 295 365 435
#     4  10  22  43  76 106 134 179 240 294 358 430
#     4  11  24  47  73 100 139 185 239 296 362 430
#
# _framework density 21.947365999999999
#
# number of rings (size 3 to 8) (size 9 to 14) (size 15 to 20)
#    0.000    0.571    5.000    3.000    8.000    0.000 
#    1.286    0.000    3.143    0.000    0.000    0.000 
#    0.000    0.000    0.000    0.000    0.000    0.000 
#
# Total GULP energy -156144.885812 kJ/mol
# GULP energy per Si atom -5576.603065 kJ/mol
# Density = 2.189741 g / cm^3
# Si number density = 21.947366 Si / 1000 Ang^3
#
#
#
# Elastic Constant Matrix: (Units=GPa)
#
#
# Indices 1 2 3 4 5 6 
#
# 1 79.0568 -1.8517 40.2784 0.0000 0.0000 0.0000
# 2 -1.8517 63.4437 22.2287 0.0000 0.0000 0.0000
# 3 40.2784 22.2287 96.7653 0.0000 0.0000 0.0000
# 4 0.0000 0.0000 0.0000 26.4529 0.0000 0.0000
# 5 0.0000 0.0000 0.0000 0.0000 27.9360 0.0000
# 6 0.0000 0.0000 0.0000 0.0000 0.0000 22.0329
#
#
#
# Elastic Compliance Matrix: (Units=1/GPa)
#
#
# Indices 1 2 3 4 5 6 
#
# 1 0.016618 0.003163 -0.007644 0.000000 0.000000 0.000000
# 2 0.003163 0.017744 -0.005393 0.000000 0.000000 0.000000
# 3 -0.007644 -0.005393 0.014755 0.000000 0.000000 0.000000
# 4 0.000000 0.000000 0.000000 0.037803 0.000000 0.000000
# 5 0.000000 0.000000 0.000000 0.000000 0.035796 0.000000
# 6 0.000000 0.000000 0.000000 0.000000 0.000000 0.045387
#
#
# Mechanical properties :
#
#
# Convention : Reuss Voigt Hill
#
# Bulk Modulus (GPa) = 34.04883 40.06407 37.05645
# Shear Modulus (GPa) = 25.29874 27.19172 26.24523
#
# Velocity S-wave (km/s) = 3.39883 3.52369 3.46182
# Velocity P-wave (km/s) = 5.56329 5.90334 5.73584
#
# Compressibility (1/GPa) = 0.02936958
#
# Stress axis : x y z
#
# Youngs Moduli (GPa) = 60.17725 56.35783 67.77477
#
# Poissons Ratio (x) = -0.17827 0.51805
# Poissons Ratio (y) = -0.19035 0.36549
# Poissons Ratio (z) = 0.45998 0.30392
#
# Static dielectric constant tensor:
#      x y z
#    x 1.826970 0.000000 0.000000 
#    y 0.000000 1.901500 0.000000 
#    z 0.000000 0.000000 1.843680 
# 
# From -- ./inp_files/22327.got.cif
#   From: 2010.05.17/outbox.cif.g08.bks.cpg/sg20_12_cif.got.tgz:22327.got - 2010.06.03 22:52:26.
