data_PCOD9320932
_publ_section_title
;
Structure prediction by ZEFSAII (Michael W. Deem and Ramdas Pophale) SiO2 
 PCOD9320932
Probable space group: C 2 2 21
;
_chemical_formula_sum "Si O2"
_cell_formula_units_Z 48
_cell_length_a 9.339647
_cell_length_b 12.043038
_cell_length_c 16.171042
_cell_angle_alpha 90.000000
_cell_angle_beta 90.000000
_cell_angle_gamma 90.000000
_cell_volume 1818.881994
_symmetry_space_group_name_H-M "C 2 2 21"
_symmetry_group_IT_number 20
_symmetry_cell_setting 'orthorhombic'
loop_
_space_group_symop_operation_xyz
x,y,z
-x,-y,1/2+z
x,-y,-z
-x,y,1/2-z
1/2+x,1/2+y,z
1/2-x,1/2-y,1/2+z
1/2+x,1/2-y,-z
1/2-x,1/2+y,1/2-z
loop_
_atom_site_type_symbol
_atom_site_label
_atom_site_fract_x
_atom_site_fract_y
_atom_site_fract_z
Si Si1 0.165159 0.861734 0.164381
Si Si2 0.718464 0.406266 0.813818
Si Si3 0.425497 0.211129 0.938074
Si Si4 0.997582 0.348681 0.622940
Si Si5 0.296314 0.844596 0.347052
Si Si6 0.821639 0.065731 0.122195
O O1 0.270338 0.827084 0.091757
O O2 0.042010 0.769677 0.165611
O O3 0.256713 0.860847 0.250073
O O4 0.129241 0.990624 0.150926
O O5 0.715127 0.287675 0.857422
O O6 0.665191 0.400803 0.719521
O O7 0.890160 0.421600 0.824242
O O8 0.542625 0.147175 0.881697
O O9 0.418202 0.345176 0.925655
O O10 0.448724 0.177309 0.031467
O O11 0.845765 0.406298 0.609219
O O12 0.188259 0.932568 0.389870
#
# Coordination Sequence:
#
# PCOD9320932 Si02
#       6
#     8   8   8   8   8   8
#     4  10  24  45  69 105 135 183 250 284 350 429
#     4  11  23  43  73  99 139 185 234 294 349 418
#     4  11  24  44  69 104 145 179 233 295 357 424
#     4  11  24  44  69 104 145 179 233 295 357 424
#     4  11  23  43  73  99 139 185 234 294 349 418
#     4  10  24  45  69 105 135 183 250 284 350 429
#
# _framework density 26.389835999999999
#
# number of rings (size 3 to 8) (size 9 to 14) (size 15 to 20)
#    0.000    1.333    3.333    2.000    4.667    6.667 
#    0.000    5.000    0.000    0.000    0.000    0.000 
#    0.000    0.000    0.000    0.000    0.000    0.000 
#
# Total GULP energy -134135.509281 kJ/mol
# GULP energy per Si atom -5588.979553 kJ/mol
# Density = 2.632977 g / cm^3
# Si number density = 26.389836 Si / 1000 Ang^3
#
#
#
# Elastic Constant Matrix: (Units=GPa)
#
#
# Indices 1 2 3 4 5 6 
#
# 1 67.7941 3.4665 32.7118 0.0000 0.0000 0.0000
# 2 3.4665 159.1002 0.0001 0.0000 0.0000 0.0000
# 3 32.7118 0.0001 84.7429 0.0000 0.0000 0.0000
# 4 0.0000 0.0000 0.0000 11.0858 0.0000 0.0000
# 5 0.0000 0.0000 0.0000 0.0000 21.9014 0.0000
# 6 0.0000 0.0000 0.0000 0.0000 0.0000 60.1802
#
#
#
# Elastic Compliance Matrix: (Units=1/GPa)
#
#
# Indices 1 2 3 4 5 6 
#
# 1 0.018152 -0.000395 -0.007007 0.000000 0.000000 0.000000
# 2 -0.000395 0.006294 0.000153 0.000000 0.000000 0.000000
# 3 -0.007007 0.000153 0.014505 0.000000 0.000000 0.000000
# 4 0.000000 0.000000 0.000000 0.090205 0.000000 0.000000
# 5 0.000000 0.000000 0.000000 0.000000 0.045659 0.000000
# 6 0.000000 0.000000 0.000000 0.000000 0.000000 0.016617
#
#
# Mechanical properties :
#
#
# Convention : Reuss Voigt Hill
#
# Bulk Modulus (GPa) = 40.89724 42.66599 41.78162
# Shear Modulus (GPa) = 23.35557 36.99740 30.17649
#
# Velocity S-wave (km/s) = 2.97816 3.74833 3.38522
# Velocity P-wave (km/s) = 5.23038 5.91067 5.58090
#
# Compressibility (1/GPa) = 0.02445153
#
# Stress axis : x y z
#
# Youngs Moduli (GPa) = 55.09148 158.88236 68.94136
#
# Poissons Ratio (x) = 0.06284 0.48305
# Poissons Ratio (y) = 0.02179 -0.01052
# Poissons Ratio (z) = 0.38601 -0.02426
#
# Static dielectric constant tensor:
#      x y z
#    x 2.201360 0.000000 0.000000 
#    y 0.000000 2.244830 0.000000 
#    z 0.000000 0.000000 1.992270 
# 
# From -- ./inp_files/19903.got.cif
#   From: 2010.05.17/outbox.cif.g08.bks.cpg/sg20_10_cif.got.tgz:19903.got - 2010.06.03 22:52:26.
