data_PCOD9320033
_publ_section_title
;
Structure prediction by ZEFSAII (Michael W. Deem and Ramdas Pophale) SiO2 
 PCOD9320033
Probable space group: C 2 2 21
;
_chemical_formula_sum "Si O2"
_cell_formula_units_Z 64
_cell_length_a 11.987564
_cell_length_b 15.372154
_cell_length_c 16.901940
_cell_angle_alpha 90.000000
_cell_angle_beta 90.000000
_cell_angle_gamma 90.000000
_cell_volume 3114.599583
_symmetry_space_group_name_H-M "C 2 2 21"
_symmetry_group_IT_number 20
_symmetry_cell_setting 'orthorhombic'
loop_
_space_group_symop_operation_xyz
x,y,z
-x,-y,1/2+z
x,-y,-z
-x,y,1/2-z
1/2+x,1/2+y,z
1/2-x,1/2-y,1/2+z
1/2+x,1/2-y,-z
1/2-x,1/2+y,1/2-z
loop_
_atom_site_type_symbol
_atom_site_label
_atom_site_fract_x
_atom_site_fract_y
_atom_site_fract_z
Si Si1 0.535455 0.756666 0.338285
Si Si2 0.545054 0.022296 0.413433
Si Si3 0.389300 0.209331 0.155064
Si Si4 0.794907 0.417490 0.168576
Si Si5 0.725673 0.652085 0.419992
Si Si6 0.698088 0.817624 0.094440
Si Si7 0.883140 0.779580 0.330979
Si Si8 0.679647 0.991087 0.174392
O O1 0.500000 0.724380 0.250000
O O2 0.618502 0.837522 0.318915
O O3 0.606127 0.688161 0.390685
O O4 0.430035 0.790272 0.389746
O O5 0.569688 0.120658 0.386159
O O6 0.448810 0.993253 0.352495
O O7 0.496968 0.000000 0.500000
O O8 0.656611 0.963638 0.408992
O O9 0.274721 0.236255 0.115378
O O10 0.374363 0.220847 0.250326
O O11 0.489108 0.278747 0.142584
O O12 0.674284 0.373508 0.173717
O O13 0.808849 0.494669 0.232035
O O14 0.757553 0.644534 0.511643
O O15 0.811124 0.726836 0.393188
O O16 0.756361 0.564800 0.373208
O O17 0.722831 0.894876 0.155496
#
# Coordination Sequence:
#
# PCOD9320033 Si02
#       8
#     8   8   8   8   8   8   8   8
#     4  11  22  44  68  97 130 181 222 273 335 408
#     4  12  25  38  65 101 133 166 223 285 339 384
#     4  11  24  42  65  96 131 173 222 273 330 408
#     4  11  22  41  68  95 130 172 221 276 335 396
#     4  11  25  37  68  97 133 164 220 281 338 388
#     4  12  24  41  68  97 135 170 221 275 336 404
#     4  10  22  42  64  93 127 176 217 264 331 403
#     4  12  22  42  63  98 130 172 221 276 327 397
#
# _framework density 20.548387000000002
#
# number of rings (size 3 to 8) (size 9 to 14) (size 15 to 20)
#    0.000    0.750    5.000    3.000    7.000    0.000 
#    0.000    2.500    0.000    0.000    0.000    0.000 
#    0.000    0.000    0.000    0.000    0.000    0.000 
#
# Total GULP energy -178434.165800 kJ/mol
# GULP energy per Si atom -5576.067681 kJ/mol
# Density = 2.050162 g / cm^3
# Si number density = 20.548387 Si / 1000 Ang^3
#
#
#
# Elastic Constant Matrix: (Units=GPa)
#
#
# Indices 1 2 3 4 5 6 
#
# 1 94.2702 25.8820 14.1683 0.0000 0.0000 0.0000
# 2 25.8820 56.1575 7.0340 0.0000 0.0000 0.0000
# 3 14.1683 7.0340 39.5149 0.0000 0.0000 0.0000
# 4 0.0000 0.0000 0.0000 17.4343 0.0000 0.0000
# 5 0.0000 0.0000 0.0000 0.0000 16.7078 0.0000
# 6 0.0000 0.0000 0.0000 0.0000 0.0000 33.4604
#
#
#
# Elastic Compliance Matrix: (Units=1/GPa)
#
#
# Indices 1 2 3 4 5 6 
#
# 1 0.012618 -0.005368 -0.003569 0.000000 0.000000 0.000000
# 2 -0.005368 0.020497 -0.001724 0.000000 0.000000 0.000000
# 3 -0.003569 -0.001724 0.026893 0.000000 0.000000 0.000000
# 4 0.000000 0.000000 0.000000 0.057358 0.000000 0.000000
# 5 0.000000 0.000000 0.000000 0.000000 0.059852 0.000000
# 6 0.000000 0.000000 0.000000 0.000000 0.000000 0.029886
#
#
# Mechanical properties :
#
#
# Convention : Reuss Voigt Hill
#
# Bulk Modulus (GPa) = 25.84864 31.56792 28.70828
# Shear Modulus (GPa) = 20.71916 23.04438 21.88177
#
# Velocity S-wave (km/s) = 3.17884 3.35247 3.26681
# Velocity P-wave (km/s) = 5.10686 5.51194 5.31326
#
# Compressibility (1/GPa) = 0.03868676
#
# Stress axis : x y z
#
# Youngs Moduli (GPa) = 79.25145 48.78713 37.18399
#
# Poissons Ratio (x) = 0.26191 0.13270
# Poissons Ratio (y) = 0.42546 0.06410
# Poissons Ratio (z) = 0.28282 0.08410
#
# Static dielectric constant tensor:
#      x y z
#    x 1.748640 0.000000 0.000000 
#    y 0.000000 1.737030 0.000000 
#    z 0.000000 0.000000 1.830850 
# 
# From -- ./inp_files/24467.got.cif
#   From: 2010.05.17/outbox.cif.g08.bks.cpg/sg20_13_cif.got.tgz:24467.got - 2010.06.03 22:52:26.
