data_PCOD9320228
_publ_section_title
;
Structure prediction by ZEFSAII (Michael W. Deem and Ramdas Pophale) SiO2 
 PCOD9320228
Probable space group: C 2 2 21
;
_chemical_formula_sum "Si O2"
_cell_formula_units_Z 44
_cell_length_a 25.752811
_cell_length_b 13.310587
_cell_length_c 6.064955
_cell_angle_alpha 90.000000
_cell_angle_beta 90.000000
_cell_angle_gamma 90.000000
_cell_volume 2078.975790
_symmetry_space_group_name_H-M "C 2 2 21"
_symmetry_group_IT_number 20
_symmetry_cell_setting 'orthorhombic'
loop_
_space_group_symop_operation_xyz
x,y,z
-x,-y,1/2+z
x,-y,-z
-x,y,1/2-z
1/2+x,1/2+y,z
1/2-x,1/2-y,1/2+z
1/2+x,1/2-y,-z
1/2-x,1/2+y,1/2-z
loop_
_atom_site_type_symbol
_atom_site_label
_atom_site_fract_x
_atom_site_fract_y
_atom_site_fract_z
Si Si1 0.806869 0.735110 0.968323
Si Si2 0.224746 0.601614 0.892690
Si Si3 0.626879 0.843476 0.861675
Si Si4 0.540005 0.107098 0.424242
Si Si5 0.000000 0.054664 0.250000
Si Si6 0.584935 0.272813 0.757681
O O1 0.781942 0.634006 0.862317
O O2 0.854926 0.779220 0.823768
O O3 0.760447 0.811910 0.004055
O O4 0.835026 0.712939 0.196184
O O5 0.245911 0.500000 0.000000
O O6 0.165091 0.605920 0.968302
O O7 0.592002 0.915858 0.714761
O O8 0.590299 0.767421 0.994147
O O9 0.500000 0.152642 0.250000
O O10 0.556593 0.185818 0.611894
O O11 0.518214 0.000000 0.500000
O O12 0.949160 0.127086 0.242432
O O13 0.998783 0.000000 0.500000
#
# Coordination Sequence:
#
# PCOD9320228 Si02
#       6
#     8   8   8   8   4   8
#     4  10  22  44  65 101 141 185 237 297 354 436
#     4  11  23  39  67  97 137 185 232 289 362 426
#     4  10  23  42  69  93 146 179 233 288 362 422
#     4  11  26  39  68 103 142 182 232 279 360 439
#     4  12  30  50  82 108 142 194 260 308 370 430
#     4  10  25  47  70  99 144 188 231 308 356 426
#
# _framework density 21.164269000000001
#
# number of rings (size 3 to 8) (size 9 to 14) (size 15 to 20)
#    0.000    1.455    1.818    1.091   17.818    0.727 
#    0.000    0.000    0.000    0.000    0.000    0.000 
#    0.000    0.000    0.000    0.000    0.000    0.000 
#
# Total GULP energy -122561.801222 kJ/mol
# GULP energy per Si atom -5570.990965 kJ/mol
# Density = 2.111610 g / cm^3
# Si number density = 21.164269 Si / 1000 Ang^3
#
#
#
# Elastic Constant Matrix: (Units=GPa)
#
#
# Indices 1 2 3 4 5 6 
#
# 1 84.6073 22.4583 30.7466 0.0000 0.0000 0.0000
# 2 22.4583 83.7452 54.1918 0.0000 0.0000 0.0000
# 3 30.7466 54.1918 118.6357 0.0000 0.0000 0.0000
# 4 0.0000 0.0000 0.0000 16.8787 0.0000 0.0000
# 5 0.0000 0.0000 0.0000 0.0000 50.0919 0.0000
# 6 0.0000 0.0000 0.0000 0.0000 0.0000 30.8108
#
#
#
# Elastic Compliance Matrix: (Units=1/GPa)
#
#
# Indices 1 2 3 4 5 6 
#
# 1 0.013256 -0.001891 -0.002572 0.000000 0.000000 0.000000
# 2 -0.001891 0.017221 -0.007377 0.000000 0.000000 0.000000
# 3 -0.002572 -0.007377 0.012465 0.000000 0.000000 0.000000
# 4 0.000000 0.000000 0.000000 0.059246 0.000000 0.000000
# 5 0.000000 0.000000 0.000000 0.000000 0.019963 0.000000
# 6 0.000000 0.000000 0.000000 0.000000 0.000000 0.032456
#
#
# Mechanical properties :
#
#
# Convention : Reuss Voigt Hill
#
# Bulk Modulus (GPa) = 51.90940 55.75349 53.83144
# Shear Modulus (GPa) = 27.06979 31.52905 29.29942
#
# Velocity S-wave (km/s) = 3.58024 3.86389 3.72476
# Velocity P-wave (km/s) = 6.45530 6.80489 6.63240
#
# Compressibility (1/GPa) = 0.01926433
#
# Stress axis : x y z
#
# Youngs Moduli (GPa) = 75.43879 58.06722 80.22275
#
# Poissons Ratio (x) = 0.10978 0.20632
# Poissons Ratio (y) = 0.14262 0.59177
# Poissons Ratio (z) = 0.19402 0.42834
#
# Static dielectric constant tensor:
#      x y z
#    x 1.818200 0.000000 0.000000 
#    y 0.000000 1.775270 0.000000 
#    z 0.000000 0.000000 1.918510 
# 
# From -- ./inp_files/4216.got.cif
#   From: 2010.05.17/outbox.cif.g08.bks.cpg/sg20_3_cif.got.tgz:4216.got - 2010.06.03 22:52:26.
