data_PCOD9320307
_publ_section_title
;
Structure prediction by ZEFSAII (Michael W. Deem and Ramdas Pophale) SiO2 
 PCOD9320307
Probable space group: C 2 2 21
;
_chemical_formula_sum "Si O2"
_cell_formula_units_Z 60
_cell_length_a 23.646563
_cell_length_b 11.905506
_cell_length_c 9.340310
_cell_angle_alpha 90.000000
_cell_angle_beta 90.000000
_cell_angle_gamma 90.000000
_cell_volume 2629.524213
_symmetry_space_group_name_H-M "C 2 2 21"
_symmetry_group_IT_number 20
_symmetry_cell_setting 'orthorhombic'
loop_
_space_group_symop_operation_xyz
x,y,z
-x,-y,1/2+z
x,-y,-z
-x,y,1/2-z
1/2+x,1/2+y,z
1/2-x,1/2-y,1/2+z
1/2+x,1/2-y,-z
1/2-x,1/2+y,1/2-z
loop_
_atom_site_type_symbol
_atom_site_label
_atom_site_fract_x
_atom_site_fract_y
_atom_site_fract_z
Si Si1 0.805903 0.214681 0.848581
Si Si2 0.863267 0.500000 0.000000
Si Si3 0.028131 0.096474 0.890435
Si Si4 0.115441 0.714552 0.118911
Si Si5 0.725150 0.173566 0.625669
Si Si6 0.376031 0.243441 0.708212
Si Si7 0.933179 0.497376 0.737991
Si Si8 0.584037 0.367189 0.525777
O O1 0.831106 0.296883 0.725371
O O2 0.773414 0.132474 0.736423
O O3 0.765676 0.263784 0.973939
O O4 0.861317 0.176734 0.937505
O O5 0.819712 0.420109 0.080286
O O6 0.905704 0.552367 0.115574
O O7 0.074080 0.184481 0.833880
O O8 0.000000 0.042361 0.750000
O O9 0.978106 0.166482 0.969083
O O10 0.048295 0.000000 0.000000
O O11 0.084257 0.594986 0.120892
O O12 0.128958 0.756495 0.960247
O O13 0.686618 0.251538 0.725988
O O14 0.405875 0.120748 0.723464
O O15 0.410128 0.328271 0.810027
O O16 0.000000 0.506349 0.750000
O O17 0.584816 0.500000 0.500000
#
# Coordination Sequence:
#
# PCOD9320307 Si02
#       8
#     8   4   8   8   8   8   8   8
#     4  11  22  44  69  96 131 180 235 289 355 427
#     4  10  22  46  66  98 144 180 228 296 362 422
#     4  11  25  42  67  96 141 187 227 296 362 424
#     4  12  24  40  67 102 138 183 241 290 351 442
#     4  10  22  45  67  95 135 181 225 299 356 415
#     4  10  25  42  66 102 138 182 235 291 354 433
#     4  11  25  40  68 103 142 187 235 290 359 444
#     4  10  24  47  68  97 143 182 236 298 363 428
#
# _framework density 22.817817000000002
#
# number of rings (size 3 to 8) (size 9 to 14) (size 15 to 20)
#    0.000    1.333    2.667    1.600    7.467    0.000 
#    8.400    1.333    0.000    0.000    0.000    0.000 
#    0.000    0.000    0.000    0.000    0.000    0.000 
#
# Total GULP energy -167105.784657 kJ/mol
# GULP energy per Si atom -5570.192822 kJ/mol
# Density = 2.276588 g / cm^3
# Si number density = 22.817817 Si / 1000 Ang^3
#
#
#
# Elastic Constant Matrix: (Units=GPa)
#
#
# Indices 1 2 3 4 5 6 
#
# 1 67.3315 5.5783 34.5734 0.0000 0.0000 0.0000
# 2 5.5783 67.4056 29.8284 0.0000 0.0000 0.0000
# 3 34.5734 29.8284 167.6659 0.0000 0.0000 0.0000
# 4 0.0000 0.0000 0.0000 37.0130 0.0000 0.0000
# 5 0.0000 0.0000 0.0000 0.0000 37.5418 0.0000
# 6 0.0000 0.0000 0.0000 0.0000 0.0000 16.5146
#
#
#
# Elastic Compliance Matrix: (Units=1/GPa)
#
#
# Indices 1 2 3 4 5 6 
#
# 1 0.016612 0.000153 -0.003453 0.000000 0.000000 0.000000
# 2 0.000153 0.016105 -0.002897 0.000000 0.000000 0.000000
# 3 -0.003453 -0.002897 0.007192 0.000000 0.000000 0.000000
# 4 0.000000 0.000000 0.000000 0.027018 0.000000 0.000000
# 5 0.000000 0.000000 0.000000 0.000000 0.026637 0.000000
# 6 0.000000 0.000000 0.000000 0.000000 0.000000 0.060553
#
#
# Mechanical properties :
#
#
# Convention : Reuss Voigt Hill
#
# Bulk Modulus (GPa) = 36.34269 49.15147 42.74708
# Shear Modulus (GPa) = 28.46083 33.70872 31.08478
#
# Velocity S-wave (km/s) = 3.53556 3.84773 3.69494
# Velocity P-wave (km/s) = 5.71216 6.42866 6.08097
#
# Compressibility (1/GPa) = 0.02751585
#
# Stress axis : x y z
#
# Youngs Moduli (GPa) = 60.19701 62.09355 139.05224
#
# Poissons Ratio (x) = -0.00951 0.48011
# Poissons Ratio (y) = -0.00922 0.40279
# Poissons Ratio (z) = 0.20784 0.17986
#
# Static dielectric constant tensor:
#      x y z
#    x 1.920430 0.000000 0.000000 
#    y 0.000000 1.907080 0.000000 
#    z 0.000000 0.000000 1.962290 
# 
# From -- ./inp_files/11156.got.cif
#   From: 2010.05.17/outbox.cif.g08.bks.cpg/sg20_6_cif.got.tgz:11156.got - 2010.06.03 22:52:26.
