data_PCOD9320050
_publ_section_title
;
Structure prediction by ZEFSAII (Michael W. Deem and Ramdas Pophale) SiO2 
 PCOD9320050
Probable space group: C 2 2 21
;
_chemical_formula_sum "Si O2"
_cell_formula_units_Z 60
_cell_length_a 7.772614
_cell_length_b 29.554218
_cell_length_c 11.566301
_cell_angle_alpha 90.000000
_cell_angle_beta 90.000000
_cell_angle_gamma 90.000000
_cell_volume 2656.935815
_symmetry_space_group_name_H-M "C 2 2 21"
_symmetry_group_IT_number 20
_symmetry_cell_setting 'orthorhombic'
loop_
_space_group_symop_operation_xyz
x,y,z
-x,-y,1/2+z
x,-y,-z
-x,y,1/2-z
1/2+x,1/2+y,z
1/2-x,1/2-y,1/2+z
1/2+x,1/2-y,-z
1/2-x,1/2+y,1/2-z
loop_
_atom_site_type_symbol
_atom_site_label
_atom_site_fract_x
_atom_site_fract_y
_atom_site_fract_z
Si Si1 0.275113 0.238957 0.679702
Si Si2 0.500000 0.517062 0.250000
Si Si3 0.110670 0.545272 0.936169
Si Si4 0.683980 0.328699 0.689335
Si Si5 0.996441 0.213644 0.998491
Si Si6 0.321644 0.658098 0.677950
Si Si7 0.833101 0.422527 0.679836
Si Si8 0.249438 0.053899 0.820932
O O1 0.251689 0.280310 0.767469
O O2 0.105506 0.238042 0.601806
O O3 0.430821 0.253164 0.595863
O O4 0.294482 0.190763 0.742403
O O5 0.341250 0.548454 0.205529
O O6 0.405409 0.481683 0.337526
O O7 0.211443 0.553946 0.817545
O O8 0.915431 0.539207 0.893232
O O9 0.170683 0.500000 0.000000
O O10 0.128247 0.579613 0.042534
O O11 0.500000 0.336801 0.750000
O O12 0.637090 0.321541 0.555650
O O13 0.798842 0.371269 0.718027
O O14 0.148039 0.185182 0.940418
O O15 0.500000 0.656087 0.750000
O O16 0.276339 0.606626 0.651878
O O17 0.000000 0.440998 0.750000
#
# Coordination Sequence:
#
# PCOD9320050 Si02
#       8
#     8   4   8   8   8   8   8   8
#     4  10  22  42  67 101 141 186 245 304 357 451
#     4  12  24  50  82 100 154 198 252 306 382 442
#     4  11  25  49  72 104 153 182 242 317 370 452
#     4  10  23  44  67 102 146 194 251 299 369 456
#     4  10  22  42  67  95 144 189 241 299 373 431
#     4  10  22  42  66 102 139 184 253 303 361 452
#     4  12  27  48  75 115 150 196 254 314 376 456
#     4  11  25  49  73 111 143 196 251 307 383 453
#
# _framework density 22.582405999999999
#
# number of rings (size 3 to 8) (size 9 to 14) (size 15 to 20)
#    0.000    1.333    2.667    1.600    3.733    4.800 
#   21.600    0.000    0.000    0.000    0.000    0.000 
#    0.000    0.000    0.000    0.000    0.000    0.000 
#
# Total GULP energy -167542.802724 kJ/mol
# GULP energy per Si atom -5584.760091 kJ/mol
# Density = 2.253101 g / cm^3
# Si number density = 22.582406 Si / 1000 Ang^3
#
#
#
# Elastic Constant Matrix: (Units=GPa)
#
#
# Indices 1 2 3 4 5 6 
#
# 1 106.2074 29.7656 31.7397 0.0000 0.0000 0.0000
# 2 29.7656 81.2229 22.1996 0.0000 0.0000 0.0000
# 3 31.7397 22.1996 88.5403 0.0000 0.0000 0.0000
# 4 0.0000 0.0000 0.0000 18.7236 0.0000 0.0000
# 5 0.0000 0.0000 0.0000 0.0000 28.6584 0.0000
# 6 0.0000 0.0000 0.0000 0.0000 0.0000 30.9275
#
#
#
# Elastic Compliance Matrix: (Units=1/GPa)
#
#
# Indices 1 2 3 4 5 6 
#
# 1 0.011294 -0.003255 -0.003232 0.000000 0.000000 0.000000
# 2 -0.003255 0.014156 -0.002382 0.000000 0.000000 0.000000
# 3 -0.003232 -0.002382 0.013050 0.000000 0.000000 0.000000
# 4 0.000000 0.000000 0.000000 0.053409 0.000000 0.000000
# 5 0.000000 0.000000 0.000000 0.000000 0.034894 0.000000
# 6 0.000000 0.000000 0.000000 0.000000 0.000000 0.032334
#
#
# Mechanical properties :
#
#
# Convention : Reuss Voigt Hill
#
# Bulk Modulus (GPa) = 48.16962 49.26451 48.71707
# Shear Modulus (GPa) = 27.20403 28.47961 27.84182
#
# Velocity S-wave (km/s) = 3.47458 3.55511 3.51507
# Velocity P-wave (km/s) = 6.12159 6.22210 6.17205
#
# Compressibility (1/GPa) = 0.02075997
#
# Stress axis : x y z
#
# Youngs Moduli (GPa) = 88.54353 70.64185 76.62629
#
# Poissons Ratio (x) = 0.22997 0.24769
# Poissons Ratio (y) = 0.28824 0.18255
# Poissons Ratio (z) = 0.28621 0.16829
#
# Static dielectric constant tensor:
#      x y z
#    x 1.867600 0.000000 0.000000 
#    y 0.000000 1.870560 0.000000 
#    z 0.000000 0.000000 1.925370 
# 
# From -- ./inp_files/13308.got.cif
#   From: 2010.05.17/outbox.cif.g08.bks.cpg/sg20_7_cif.got.tgz:13308.got - 2010.06.03 22:52:26.
