data_PCOD9320732
_publ_section_title
;
Structure prediction by ZEFSAII (Michael W. Deem and Ramdas Pophale) SiO2 
 PCOD9320732
Probable space group: C 2 2 21
;
_chemical_formula_sum "Si O2"
_cell_formula_units_Z 56
_cell_length_a 16.529462
_cell_length_b 7.639334
_cell_length_c 20.442702
_cell_angle_alpha 90.000000
_cell_angle_beta 90.000000
_cell_angle_gamma 90.000000
_cell_volume 2581.383409
_symmetry_space_group_name_H-M "C 2 2 21"
_symmetry_group_IT_number 20
_symmetry_cell_setting 'orthorhombic'
loop_
_space_group_symop_operation_xyz
x,y,z
-x,-y,1/2+z
x,-y,-z
-x,y,1/2-z
1/2+x,1/2+y,z
1/2-x,1/2-y,1/2+z
1/2+x,1/2-y,-z
1/2-x,1/2+y,1/2-z
loop_
_atom_site_type_symbol
_atom_site_label
_atom_site_fract_x
_atom_site_fract_y
_atom_site_fract_z
Si Si1 0.553724 0.674838 0.454115
Si Si2 0.992598 0.678533 0.344237
Si Si3 0.706826 0.659218 0.297668
Si Si4 0.729917 0.337289 0.548881
Si Si5 0.456273 0.213095 0.815750
Si Si6 0.366275 0.292748 0.232865
Si Si7 0.092638 0.800474 0.024076
O O1 0.556191 0.500000 0.500000
O O2 0.642964 0.759415 0.460598
O O3 0.542065 0.651378 0.376208
O O4 0.473577 0.780563 0.474425
O O5 0.930921 0.742361 0.288207
O O6 0.951940 0.756587 0.408433
O O7 0.002259 0.468479 0.337785
O O8 0.084331 0.745314 0.332613
O O9 0.733227 0.623659 0.373021
O O10 0.639078 0.812068 0.300032
O O11 0.658202 0.494304 0.270227
O O12 0.782874 0.698542 0.252125
O O13 0.723973 0.500000 0.500000
O O14 0.815098 0.255559 0.529567
O O15 0.500000 0.274016 0.750000
O O16 0.098298 0.000000 0.000000
#
# Coordination Sequence:
#
# PCOD9320732 Si02
#       7
#     8   8   8   8   8   8   8
#     4   9  23  44  71 103 146 189 244 308 382 449
#     4  11  25  46  70 105 148 188 246 314 367 445
#     4  11  25  44  71 104 144 195 241 307 382 442
#     4  10  23  47  66  97 140 183 247 303 362 444
#     4  11  24  45  75 106 145 192 253 307 373 445
#     4  11  24  44  70 104 149 189 243 304 372 450
#     4  11  25  45  71  99 142 190 247 299 373 443
#
# _framework density 21.693794
#
# number of rings (size 3 to 8) (size 9 to 14) (size 15 to 20)
#    0.000    1.429    2.857    0.857   14.000    0.000 
#    7.714    0.000    0.000    0.000    0.000    0.000 
#    0.000    0.000    0.000    0.000    0.000    0.000 
#
# Total GULP energy -155982.727756 kJ/mol
# GULP energy per Si atom -5570.811706 kJ/mol
# Density = 2.164442 g / cm^3
# Si number density = 21.693794 Si / 1000 Ang^3
#
#
#
# Elastic Constant Matrix: (Units=GPa)
#
#
# Indices 1 2 3 4 5 6 
#
# 1 207.3700 48.8253 73.5401 0.0000 0.0000 0.0000
# 2 48.8253 75.4538 33.5895 0.0000 0.0000 0.0000
# 3 73.5401 33.5895 98.2475 0.0000 0.0000 0.0000
# 4 0.0000 0.0000 0.0000 25.5035 0.0000 0.0000
# 5 0.0000 0.0000 0.0000 0.0000 41.7504 0.0000
# 6 0.0000 0.0000 0.0000 0.0000 0.0000 -9.4375
#
#
#
# Elastic Compliance Matrix: (Units=1/GPa)
#
#
# Indices 1 2 3 4 5 6 
#
# 1 0.006966 -0.002579 -0.004332 0.000000 0.000000 0.000000
# 2 -0.002579 0.016587 -0.003741 0.000000 0.000000 0.000000
# 3 -0.004332 -0.003741 0.014700 0.000000 0.000000 0.000000
# 4 0.000000 0.000000 0.000000 0.039210 0.000000 0.000000
# 5 0.000000 0.000000 0.000000 0.000000 0.023952 0.000000
# 6 0.000000 0.000000 0.000000 0.000000 0.000000 -0.105960
#
#
# Mechanical properties :
#
#
# Convention : Reuss Voigt Hill
#
# Bulk Modulus (GPa) = 58.99923 76.99789 67.99856
# Shear Modulus (GPa) = 223.12897 26.57102 124.85000
#
# Velocity S-wave (km/s) = 10.15269 3.50354 7.59447
# Velocity P-wave (km/s) = 12.83322 7.20670 10.40740
#
# Compressibility (1/GPa) = 0.01694937
#
# Stress axis : x y z
#
# Youngs Moduli (GPa) = 143.55591 60.28783 68.02663
#
# Poissons Ratio (x) = 0.15548 0.29472
# Poissons Ratio (y) = 0.37022 0.25446
# Poissons Ratio (z) = 0.62195 0.22551
#
# Static dielectric constant tensor:
#      x y z
#    x 1.843650 0.000000 0.000000 
#    y 0.000000 1.809640 0.000000 
#    z 0.000000 0.000000 2.070530 
# 
# From -- ./inp_files/27549.got.cif
#   From: 2010.05.17/outbox.cif.g08.bks.cpg/sg20_14_cif.got.tgz:27549.got - 2010.06.03 22:52:26.
