data_PCOD9320519
_publ_section_title
;
Structure prediction by ZEFSAII (Michael W. Deem and Ramdas Pophale) SiO2 
 PCOD9320519
Probable space group: C 2 2 21
;
_chemical_formula_sum "Si O2"
_cell_formula_units_Z 40
_cell_length_a 12.304076
_cell_length_b 7.252858
_cell_length_c 16.933102
_cell_angle_alpha 90.000000
_cell_angle_beta 90.000000
_cell_angle_gamma 90.000000
_cell_volume 1511.105214
_symmetry_space_group_name_H-M "C 2 2 21"
_symmetry_group_IT_number 20
_symmetry_cell_setting 'orthorhombic'
loop_
_space_group_symop_operation_xyz
x,y,z
-x,-y,1/2+z
x,-y,-z
-x,y,1/2-z
1/2+x,1/2+y,z
1/2-x,1/2-y,1/2+z
1/2+x,1/2-y,-z
1/2-x,1/2+y,1/2-z
loop_
_atom_site_type_symbol
_atom_site_label
_atom_site_fract_x
_atom_site_fract_y
_atom_site_fract_z
Si Si1 0.609384 0.559627 0.090626
Si Si2 0.080484 0.782346 0.679206
Si Si3 0.183505 0.294691 0.536940
Si Si4 0.795851 0.673443 0.378672
Si Si5 0.020894 0.624380 0.338794
O O1 0.494145 0.647111 0.108313
O O2 0.712431 0.695005 0.094704
O O3 0.648463 0.374775 0.134721
O O4 0.606638 0.500000 0.000000
O O5 0.200144 0.865677 0.682683
O O6 0.000000 0.826600 0.750000
O O7 0.091187 0.561468 0.673501
O O8 0.160844 0.500000 0.500000
O O9 0.228999 0.183308 0.461136
O O10 0.082118 0.254995 0.594582
O O11 0.904901 0.556863 0.373339
O O12 0.000000 0.698919 0.250000
#
# Coordination Sequence:
#
# PCOD9320519 Si02
#       5
#     8   8   8   8   8
#     4   9  21  43  64  87 133 174 216 276 332 391
#     4  11  24  41  67  99 137 171 221 283 349 404
#     4   9  19  40  65  85 132 174 211 276 337 387
#     4  10  23  42  65  96 128 178 226 274 343 403
#     4  11  24  43  69 100 138 179 231 288 347 409
#
# _framework density 26.470692
#
# number of rings (size 3 to 8) (size 9 to 14) (size 15 to 20)
#    0.000    2.400    4.000    0.000    8.400    0.800 
#    3.600    1.000    0.000    0.000    0.000    0.000 
#    0.000    0.000    0.000    0.000    0.000    0.000 
#
# Total GULP energy -111708.162838 kJ/mol
# GULP energy per Si atom -5585.408142 kJ/mol
# Density = 2.641044 g / cm^3
# Si number density = 26.470692 Si / 1000 Ang^3
#
#
#
# Elastic Constant Matrix: (Units=GPa)
#
#
# Indices 1 2 3 4 5 6 
#
# 1 180.0432 9.0703 45.6776 0.0000 0.0000 0.0000
# 2 9.0703 37.3824 16.4177 0.0000 0.0000 0.0000
# 3 45.6776 16.4177 105.3591 0.0000 0.0000 0.0000
# 4 0.0000 0.0000 0.0000 8.6967 0.0000 0.0000
# 5 0.0000 0.0000 0.0000 0.0000 47.8574 0.0000
# 6 0.0000 0.0000 0.0000 0.0000 0.0000 32.4830
#
#
#
# Elastic Compliance Matrix: (Units=1/GPa)
#
#
# Indices 1 2 3 4 5 6 
#
# 1 0.006245 -0.000350 -0.002653 0.000000 0.000000 0.000000
# 2 -0.000350 0.028735 -0.004326 0.000000 0.000000 0.000000
# 3 -0.002653 -0.004326 0.011316 0.000000 0.000000 0.000000
# 4 0.000000 0.000000 0.000000 0.114986 0.000000 0.000000
# 5 0.000000 0.000000 0.000000 0.000000 0.020895 0.000000
# 6 0.000000 0.000000 0.000000 0.000000 0.000000 0.030785
#
#
# Mechanical properties :
#
#
# Convention : Reuss Voigt Hill
#
# Bulk Modulus (GPa) = 31.60755 51.67954 41.64355
# Shear Modulus (GPa) = 20.99370 34.58202 27.78786
#
# Velocity S-wave (km/s) = 2.81924 3.61837 3.24351
# Velocity P-wave (km/s) = 4.75016 6.08461 5.45832
#
# Compressibility (1/GPa) = 0.03163801
#
# Stress axis : x y z
#
# Youngs Moduli (GPa) = 160.13052 34.80027 88.37385
#
# Poissons Ratio (x) = 0.01219 0.23444
# Poissons Ratio (y) = 0.05607 0.38230
# Poissons Ratio (z) = 0.42480 0.15054
#
# Static dielectric constant tensor:
#      x y z
#    x 2.110320 0.000000 0.000000 
#    y 0.000000 2.176720 0.000000 
#    z 0.000000 0.000000 1.291900 
# 
# From -- ./inp_files/23144.got.cif
#   From: 2010.05.17/outbox.cif.g08.bks.cpg/sg20_12_cif.got.tgz:23144.got - 2010.06.03 22:52:26.
