data_PCOD9320026
_publ_section_title
;
Structure prediction by ZEFSAII (Michael W. Deem and Ramdas Pophale) SiO2 
 PCOD9320026
Probable space group: C 2 2 21
;
_chemical_formula_sum "Si O2"
_cell_formula_units_Z 44
_cell_length_a 7.973310
_cell_length_b 22.440144
_cell_length_c 11.810096
_cell_angle_alpha 90.000000
_cell_angle_beta 90.000000
_cell_angle_gamma 90.000000
_cell_volume 2113.088649
_symmetry_space_group_name_H-M "C 2 2 21"
_symmetry_group_IT_number 20
_symmetry_cell_setting 'orthorhombic'
loop_
_space_group_symop_operation_xyz
x,y,z
-x,-y,1/2+z
x,-y,-z
-x,y,1/2-z
1/2+x,1/2+y,z
1/2-x,1/2-y,1/2+z
1/2+x,1/2-y,-z
1/2-x,1/2+y,1/2-z
loop_
_atom_site_type_symbol
_atom_site_label
_atom_site_fract_x
_atom_site_fract_y
_atom_site_fract_z
Si Si1 0.833827 0.673645 0.322509
Si Si2 0.351516 0.441697 0.167543
Si Si3 0.000000 0.612226 0.750000
Si Si4 0.959373 0.297944 0.038175
Si Si5 0.867159 0.185190 0.387261
Si Si6 0.396173 0.578029 0.093732
O O1 0.893967 0.696196 0.444064
O O2 0.708491 0.705250 0.233577
O O3 0.756240 0.609717 0.344587
O O4 0.000000 0.668727 0.250000
O O5 0.500000 0.419180 0.250000
O O6 0.394256 0.510930 0.139029
O O7 0.169214 0.426540 0.222452
O O8 0.364501 0.415579 0.040873
O O9 0.977197 0.655524 0.858898
O O10 0.985916 0.229962 0.076797
O O11 0.784285 0.310855 0.976209
O O12 0.940855 0.118467 0.381205
#
# Coordination Sequence:
#
# PCOD9320026 Si02
#       6
#     8   8   4   8   8   8
#     4  10  22  42  64 101 135 183 240 287 351 426
#     4  11  25  46  71 103 142 189 239 302 367 435
#     4  12  26  46  70 106 146 188 236 308 362 436
#     4  11  25  42  68 105 145 192 239 292 370 435
#     4  11  24  42  71 100 147 189 239 297 360 433
#     4  11  23  45  69 100 140 182 243 296 356 437
#
# _framework density 20.822600999999999
#
# number of rings (size 3 to 8) (size 9 to 14) (size 15 to 20)
#    0.000    1.091    1.818    3.818    6.364    0.000 
#    0.000    1.818    0.000    0.000    0.000    0.000 
#    0.000    0.000    0.000    0.000    0.000    0.000 
#
# Total GULP energy -122726.908725 kJ/mol
# GULP energy per Si atom -5578.495851 kJ/mol
# Density = 2.077521 g / cm^3
# Si number density = 20.822601 Si / 1000 Ang^3
#
#
#
# Elastic Constant Matrix: (Units=GPa)
#
#
# Indices 1 2 3 4 5 6 
#
# 1 116.8361 48.7189 52.0600 0.0000 0.0000 0.0000
# 2 48.7189 78.2233 37.6167 0.0000 0.0000 0.0000
# 3 52.0600 37.6167 155.8668 0.0000 0.0000 0.0000
# 4 0.0000 0.0000 0.0000 22.7786 0.0000 0.0000
# 5 0.0000 0.0000 0.0000 0.0000 22.6815 0.0000
# 6 0.0000 0.0000 0.0000 0.0000 0.0000 23.6945
#
#
#
# Elastic Compliance Matrix: (Units=1/GPa)
#
#
# Indices 1 2 3 4 5 6 
#
# 1 0.012416 -0.006492 -0.002580 0.000000 0.000000 0.000000
# 2 -0.006492 0.017857 -0.002141 0.000000 0.000000 0.000000
# 3 -0.002580 -0.002141 0.007794 0.000000 0.000000 0.000000
# 4 0.000000 0.000000 0.000000 0.043901 0.000000 0.000000
# 5 0.000000 0.000000 0.000000 0.000000 0.044089 0.000000
# 6 0.000000 0.000000 0.000000 0.000000 0.000000 0.042204
#
#
# Mechanical properties :
#
#
# Convention : Reuss Voigt Hill
#
# Bulk Modulus (GPa) = 63.93760 69.74639 66.84199
# Shear Modulus (GPa) = 25.52315 27.99962 26.76139
#
# Velocity S-wave (km/s) = 3.50486 3.67096 3.58887
# Velocity P-wave (km/s) = 6.86668 7.17887 7.02451
#
# Compressibility (1/GPa) = 0.01564025
#
# Stress axis : x y z
#
# Youngs Moduli (GPa) = 80.54306 56.00059 128.29953
#
# Poissons Ratio (x) = 0.36356 0.33103
# Poissons Ratio (y) = 0.52289 0.27472
# Poissons Ratio (z) = 0.20781 0.11991
#
# Static dielectric constant tensor:
#      x y z
#    x 1.773510 0.000000 0.000000 
#    y 0.000000 1.721960 0.000000 
#    z 0.000000 0.000000 1.788970 
# 
# From -- ./inp_files/13002.got.cif
#   From: 2010.05.17/outbox.cif.g08.bks.cpg/sg20_7_cif.got.tgz:13002.got - 2010.06.03 22:52:26.
