data_PCOD9320306
_publ_section_title
;
Structure prediction by ZEFSAII (Michael W. Deem and Ramdas Pophale) SiO2 
 PCOD9320306
Probable space group: C 2 2 21
;
_chemical_formula_sum "Si O2"
_cell_formula_units_Z 40
_cell_length_a 15.340635
_cell_length_b 10.972360
_cell_length_c 11.264048
_cell_angle_alpha 90.000000
_cell_angle_beta 90.000000
_cell_angle_gamma 90.000000
_cell_volume 1895.998012
_symmetry_space_group_name_H-M "C 2 2 21"
_symmetry_group_IT_number 20
_symmetry_cell_setting 'orthorhombic'
loop_
_space_group_symop_operation_xyz
x,y,z
-x,-y,1/2+z
x,-y,-z
-x,y,1/2-z
1/2+x,1/2+y,z
1/2-x,1/2-y,1/2+z
1/2+x,1/2-y,-z
1/2-x,1/2+y,1/2-z
loop_
_atom_site_type_symbol
_atom_site_label
_atom_site_fract_x
_atom_site_fract_y
_atom_site_fract_z
Si Si1 0.088117 0.286892 0.408643
Si Si2 0.028392 0.500000 0.000000
Si Si3 0.683044 0.519279 0.815434
Si Si4 0.226920 0.202073 0.012338
Si Si5 0.000000 0.909721 0.750000
Si Si6 0.159848 0.585047 0.830112
O O1 0.175218 0.255773 0.481307
O O2 0.121091 0.356238 0.289420
O O3 0.031315 0.382273 0.482233
O O4 0.030889 0.175754 0.359461
O O5 0.090928 0.507006 0.114371
O O6 0.723928 0.409782 0.894158
O O7 0.584592 0.485955 0.785565
O O8 0.746307 0.531529 0.703012
O O9 0.688319 0.642533 0.892780
O O10 0.173682 0.309869 0.072492
#
# Coordination Sequence:
#
# PCOD9320306 Si02
#       6
#     8   4   8   8   4   8
#     4  11  22  42  67  94 134 171 221 280 329 389
#     4  12  22  38  64 100 128 174 212 274 328 384
#     4  10  23  43  69  94 134 175 217 280 337 396
#     4  10  22  45  67  92 129 180 219 267 345 402
#     4  12  22  46  66  94 138 166 220 288 322 390
#     4  11  23  41  66  96 130 175 225 268 330 413
#
# _framework density 21.097068
#
# number of rings (size 3 to 8) (size 9 to 14) (size 15 to 20)
#    0.000    1.200    4.000    2.400    2.800    0.000 
#   10.800    0.000    0.000    0.000    0.000    0.000 
#    0.000    0.000    0.000    0.000    0.000    0.000 
#
# Total GULP energy -111836.414115 kJ/mol
# GULP energy per Si atom -5591.820706 kJ/mol
# Density = 2.104905 g / cm^3
# Si number density = 21.097068 Si / 1000 Ang^3
#
#
#
# Elastic Constant Matrix: (Units=GPa)
#
#
# Indices 1 2 3 4 5 6 
#
# 1 154.3789 53.7404 41.6745 0.0000 0.0000 0.0000
# 2 53.7404 61.7645 23.9520 0.0000 0.0000 0.0000
# 3 41.6745 23.9520 52.2143 0.0000 0.0000 0.0000
# 4 0.0000 0.0000 0.0000 10.4455 0.0000 0.0000
# 5 0.0000 0.0000 0.0000 0.0000 46.4813 0.0000
# 6 0.0000 0.0000 0.0000 0.0000 0.0000 32.8910
#
#
#
# Elastic Compliance Matrix: (Units=1/GPa)
#
#
# Indices 1 2 3 4 5 6 
#
# 1 0.010256 -0.006993 -0.004978 0.000000 0.000000 0.000000
# 2 -0.006993 0.024462 -0.005640 0.000000 0.000000 0.000000
# 3 -0.004978 -0.005640 0.025712 0.000000 0.000000 0.000000
# 4 0.000000 0.000000 0.000000 0.095735 0.000000 0.000000
# 5 0.000000 0.000000 0.000000 0.000000 0.021514 0.000000
# 6 0.000000 0.000000 0.000000 0.000000 0.000000 0.030403
#
#
# Mechanical properties :
#
#
# Convention : Reuss Voigt Hill
#
# Bulk Modulus (GPa) = 39.66917 56.34349 48.00633
# Shear Modulus (GPa) = 19.86447 27.89629 23.88038
#
# Velocity S-wave (km/s) = 3.07184 3.64027 3.36806
# Velocity P-wave (km/s) = 5.60585 6.66584 6.15869
#
# Compressibility (1/GPa) = 0.02520849
#
# Stress axis : x y z
#
# Youngs Moduli (GPa) = 97.50830 40.87947 38.89251
#
# Poissons Ratio (x) = 0.28587 0.19359
# Poissons Ratio (y) = 0.68187 0.21936
# Poissons Ratio (z) = 0.48535 0.23056
#
# Static dielectric constant tensor:
#      x y z
#    x 1.781770 0.000000 0.000000 
#    y 0.000000 1.771310 0.000000 
#    z 0.000000 0.000000 1.760070 
# 
# From -- ./inp_files/14892.got.cif
#   From: 2010.05.17/outbox.cif.g08.bks.cpg/sg20_8_cif.got.tgz:14892.got - 2010.06.03 22:52:26.
