data_PCOD9320690
_publ_section_title
;
Structure prediction by ZEFSAII (Michael W. Deem and Ramdas Pophale) SiO2 
 PCOD9320690
Probable space group: C 2 2 21
;
_chemical_formula_sum "Si O2"
_cell_formula_units_Z 36
_cell_length_a 24.955527
_cell_length_b 5.044613
_cell_length_c 11.000677
_cell_angle_alpha 90.000000
_cell_angle_beta 90.000000
_cell_angle_gamma 90.000000
_cell_volume 1384.885963
_symmetry_space_group_name_H-M "C 2 2 21"
_symmetry_group_IT_number 20
_symmetry_cell_setting 'orthorhombic'
loop_
_space_group_symop_operation_xyz
x,y,z
-x,-y,1/2+z
x,-y,-z
-x,y,1/2-z
1/2+x,1/2+y,z
1/2-x,1/2-y,1/2+z
1/2+x,1/2-y,-z
1/2-x,1/2+y,1/2-z
loop_
_atom_site_type_symbol
_atom_site_label
_atom_site_fract_x
_atom_site_fract_y
_atom_site_fract_z
Si Si1 0.102044 0.358379 0.368749
Si Si2 0.129850 0.677096 0.881262
Si Si3 0.986505 0.760097 0.581048
Si Si4 0.756536 0.853147 0.667972
Si Si5 0.181160 0.000000 0.500000
O O1 0.102993 0.500000 0.500000
O O2 0.125177 0.487951 0.245900
O O3 0.039307 0.306517 0.341606
O O4 0.140935 0.111762 0.396742
O O5 0.073804 0.836542 0.881045
O O6 0.182712 0.850021 0.877290
O O7 0.133985 0.500000 0.000000
O O8 0.978113 0.500000 0.500000
O O9 0.007360 0.000000 0.500000
O O10 0.755318 0.643172 0.780203
O O11 0.717997 0.724058 0.564967
#
# Coordination Sequence:
#
# PCOD9320690 Si02
#       5
#     8   8   8   8   4
#     4  11  23  47  75 106 149 198 258 308 383 467
#     4  11  24  47  72 111 151 195 249 321 380 449
#     4  10  23  45  72 108 146 195 244 309 378 448
#     4  12  27  46  71 106 151 198 254 309 383 459
#     4  12  24  44  74 104 144 204 252 308 380 472
#
# _framework density 25.994921999999999
#
# number of rings (size 3 to 8) (size 9 to 14) (size 15 to 20)
#    0.000    0.889    4.444    2.000    0.000    3.556 
#    8.000    4.444    0.000    0.000    0.000    0.000 
#    0.000    0.000    0.000    0.000    0.000    0.000 
#
# Total GULP energy -100640.297002 kJ/mol
# GULP energy per Si atom -5591.127611 kJ/mol
# Density = 2.593576 g / cm^3
# Si number density = 25.994922 Si / 1000 Ang^3
#
#
#
# Elastic Constant Matrix: (Units=GPa)
#
#
# Indices 1 2 3 4 5 6 
#
# 1 216.1127 6.3619 36.9146 0.0000 0.0000 0.0000
# 2 6.3619 66.8454 18.3280 0.0000 0.0000 0.0000
# 3 36.9146 18.3280 151.1490 0.0000 0.0000 0.0000
# 4 0.0000 0.0000 0.0000 38.5453 0.0000 0.0000
# 5 0.0000 0.0000 0.0000 0.0000 32.7521 0.0000
# 6 0.0000 0.0000 0.0000 0.0000 0.0000 11.7686
#
#
#
# Elastic Compliance Matrix: (Units=1/GPa)
#
#
# Indices 1 2 3 4 5 6 
#
# 1 0.004830 -0.000141 -0.001163 0.000000 0.000000 0.000000
# 2 -0.000141 0.015478 -0.001842 0.000000 0.000000 0.000000
# 3 -0.001163 -0.001842 0.007123 0.000000 0.000000 0.000000
# 4 0.000000 0.000000 0.000000 0.025943 0.000000 0.000000
# 5 0.000000 0.000000 0.000000 0.000000 0.030532 0.000000
# 6 0.000000 0.000000 0.000000 0.000000 0.000000 0.084972
#
#
# Mechanical properties :
#
#
# Convention : Reuss Voigt Hill
#
# Bulk Modulus (GPa) = 47.30393 61.92403 54.61398
# Shear Modulus (GPa) = 27.43966 41.44671 34.44319
#
# Velocity S-wave (km/s) = 3.25249 3.99735 3.64400
# Velocity P-wave (km/s) = 5.68699 6.72148 6.22576
#
# Compressibility (1/GPa) = 0.02113989
#
# Stress axis : x y z
#
# Youngs Moduli (GPa) = 207.04212 64.60585 140.38399
#
# Poissons Ratio (x) = 0.00911 0.16320
# Poissons Ratio (y) = 0.02918 0.25865
# Poissons Ratio (z) = 0.24069 0.11903
#
# Static dielectric constant tensor:
#      x y z
#    x 2.023650 0.000000 0.000000 
#    y 0.000000 2.036200 0.000000 
#    z 0.000000 0.000000 2.146270 
# 
# From -- ./inp_files/12060.got.cif
#   From: 2010.05.17/outbox.cif.g08.bks.cpg/sg20_7_cif.got.tgz:12060.got - 2010.06.03 22:52:26.
