data_PCOD9320608
_publ_section_title
;
Structure prediction by ZEFSAII (Michael W. Deem and Ramdas Pophale) SiO2 
 PCOD9320608
Probable space group: C 2 2 21
;
_chemical_formula_sum "Si O2"
_cell_formula_units_Z 48
_cell_length_a 15.851856
_cell_length_b 9.303459
_cell_length_c 14.538029
_cell_angle_alpha 90.000000
_cell_angle_beta 90.000000
_cell_angle_gamma 90.000000
_cell_volume 2144.026246
_symmetry_space_group_name_H-M "C 2 2 21"
_symmetry_group_IT_number 20
_symmetry_cell_setting 'orthorhombic'
loop_
_space_group_symop_operation_xyz
x,y,z
-x,-y,1/2+z
x,-y,-z
-x,y,1/2-z
1/2+x,1/2+y,z
1/2-x,1/2-y,1/2+z
1/2+x,1/2-y,-z
1/2-x,1/2+y,1/2-z
loop_
_atom_site_type_symbol
_atom_site_label
_atom_site_fract_x
_atom_site_fract_y
_atom_site_fract_z
Si Si1 0.019878 0.000000 0.000000
Si Si2 0.734890 0.205207 0.700294
Si Si3 0.483810 0.002655 0.141968
Si Si4 0.820457 0.200222 0.502129
Si Si5 0.376595 0.000000 0.500000
Si Si6 0.306587 0.105535 0.151750
Si Si7 0.557054 0.670076 0.338127
O O1 0.087341 0.870186 0.012178
O O2 0.961967 0.052285 0.084349
O O3 0.778046 0.208684 0.601201
O O4 0.794525 0.261366 0.780442
O O5 0.652858 0.307780 0.694998
O O6 0.705994 0.040480 0.710703
O O7 0.500000 0.024927 0.250000
O O8 0.563235 0.048540 0.082780
O O9 0.469394 0.831094 0.128081
O O10 0.400297 0.088163 0.112239
O O11 0.825775 0.363113 0.466612
O O12 0.763135 0.116747 0.428092
O O13 0.500000 0.636210 0.250000
#
# Coordination Sequence:
#
# PCOD9320608 Si02
#       7
#     4   8   8   8   4   8   8
#     4  12  22  46  68 102 136 180 224 278 350 404
#     4  11  25  45  69 102 137 183 227 284 341 410
#     4  10  23  44  70 100 135 182 229 279 336 408
#     4  12  26  44  71 100 141 180 227 287 343 407
#     4  12  26  44  74 102 134 182 240 280 338 412
#     4  11  25  45  72 100 140 180 229 282 347 402
#     4  10  23  43  71  98 139 181 225 279 344 404
#
# _framework density 22.387785000000001
#
# number of rings (size 3 to 8) (size 9 to 14) (size 15 to 20)
#    0.000    1.000    3.333    2.000   11.667    0.667 
#    3.000    0.833    0.000    0.000    0.000    0.000 
#    0.000    0.000    0.000    0.000    0.000    0.000 
#
# Total GULP energy -134282.505700 kJ/mol
# GULP energy per Si atom -5595.104404 kJ/mol
# Density = 2.233683 g / cm^3
# Si number density = 22.387785 Si / 1000 Ang^3
#
#
#
# Elastic Constant Matrix: (Units=GPa)
#
#
# Indices 1 2 3 4 5 6 
#
# 1 43.7249 21.3716 7.8555 0.0000 0.0000 0.0000
# 2 21.3716 77.6358 17.6172 0.0000 0.0000 0.0000
# 3 7.8555 17.6172 91.5713 0.0000 0.0000 0.0000
# 4 0.0000 0.0000 0.0000 33.0728 0.0000 0.0000
# 5 0.0000 0.0000 0.0000 0.0000 35.7830 0.0000
# 6 0.0000 0.0000 0.0000 0.0000 0.0000 18.0613
#
#
#
# Elastic Compliance Matrix: (Units=1/GPa)
#
#
# Indices 1 2 3 4 5 6 
#
# 1 0.026498 -0.007088 -0.000909 0.000000 0.000000 0.000000
# 2 -0.007088 0.015365 -0.002348 0.000000 0.000000 0.000000
# 3 -0.000909 -0.002348 0.011450 0.000000 0.000000 0.000000
# 4 0.000000 0.000000 0.000000 0.030236 0.000000 0.000000
# 5 0.000000 0.000000 0.000000 0.000000 0.027946 0.000000
# 6 0.000000 0.000000 0.000000 0.000000 0.000000 0.055367
#
#
# Mechanical properties :
#
#
# Convention : Reuss Voigt Hill
#
# Bulk Modulus (GPa) = 30.65412 34.06896 32.36154
# Shear Modulus (GPa) = 25.19814 28.45595 26.82705
#
# Velocity S-wave (km/s) = 3.35853 3.56904 3.46539
# Velocity P-wave (km/s) = 5.36300 5.67757 5.52252
#
# Compressibility (1/GPa) = 0.03262204
#
# Stress axis : x y z
#
# Youngs Moduli (GPa) = 37.73857 65.08450 87.33485
#
# Poissons Ratio (x) = 0.46132 0.07943
# Poissons Ratio (y) = 0.26749 0.20506
# Poissons Ratio (z) = 0.03432 0.15281
#
# Static dielectric constant tensor:
#      x y z
#    x 1.830100 0.000000 0.000000 
#    y 0.000000 1.848680 0.000000 
#    z 0.000000 0.000000 1.759370 
# 
# From -- ./inp_files/21320.got.cif
#   From: 2010.05.17/outbox.cif.g08.bks.cpg/sg20_11_cif.got.tgz:21320.got - 2010.06.03 22:52:26.
