data_PCOD9320805
_publ_section_title
;
Structure prediction by ZEFSAII (Michael W. Deem and Ramdas Pophale) SiO2 
 PCOD9320805
Probable space group: C 2 2 21
;
_chemical_formula_sum "Si O2"
_cell_formula_units_Z 40
_cell_length_a 24.694345
_cell_length_b 12.067994
_cell_length_c 5.572732
_cell_angle_alpha 90.000000
_cell_angle_beta 90.000000
_cell_angle_gamma 90.000000
_cell_volume 1660.736591
_symmetry_space_group_name_H-M "C 2 2 21"
_symmetry_group_IT_number 20
_symmetry_cell_setting 'orthorhombic'
loop_
_space_group_symop_operation_xyz
x,y,z
-x,-y,1/2+z
x,-y,-z
-x,y,1/2-z
1/2+x,1/2+y,z
1/2-x,1/2-y,1/2+z
1/2+x,1/2-y,-z
1/2-x,1/2+y,1/2-z
loop_
_atom_site_type_symbol
_atom_site_label
_atom_site_fract_x
_atom_site_fract_y
_atom_site_fract_z
Si Si1 0.034318 0.000000 0.500000
Si Si2 0.954185 0.391594 0.898861
Si Si3 0.291725 0.610490 0.359952
Si Si4 0.809059 0.319688 0.624848
Si Si5 0.385840 0.704984 0.022515
Si Si6 0.121707 0.500000 0.000000
O O1 0.073800 0.894813 0.456146
O O2 0.000000 0.983854 0.750000
O O3 0.910833 0.450993 0.724299
O O4 0.000000 0.327299 0.750000
O O5 0.983561 0.500000 0.000000
O O6 0.925970 0.307894 0.082492
O O7 0.306649 0.500000 0.500000
O O8 0.235441 0.595004 0.223129
O O9 0.277054 0.715511 0.523373
O O10 0.342809 0.653135 0.206741
O O11 0.842089 0.392960 0.434331
O O12 0.850212 0.259093 0.808563
#
# Coordination Sequence:
#
# PCOD9320805 Si02
#       6
#     4   8   8   8   8   4
#     4  12  30  53  80 116 156 215 282 336 398 472
#     4  11  22  42  70 106 141 190 242 303 375 453
#     4  12  26  44  75 107 149 193 251 309 389 476
#     4  11  25  44  71 110 145 197 244 309 388 475
#     4  11  26  48  73 104 153 196 254 321 393 456
#     4  10  24  41  68  98 150 181 244 298 370 448
#
# _framework density 24.085698000000001
#
# number of rings (size 3 to 8) (size 9 to 14) (size 15 to 20)
#    0.000    0.800    3.000    3.000    7.000    4.800 
#    0.000    0.000    0.000    0.000    0.000    0.000 
#    0.000    0.000    0.000    0.000    0.000    0.000 
#
# Total GULP energy -111581.145579 kJ/mol
# GULP energy per Si atom -5579.057279 kJ/mol
# Density = 2.403088 g / cm^3
# Si number density = 24.085698 Si / 1000 Ang^3
#
#
#
# Elastic Constant Matrix: (Units=GPa)
#
#
# Indices 1 2 3 4 5 6 
#
# 1 114.9179 70.1705 43.2556 0.0000 0.0000 0.0000
# 2 70.1705 162.1024 47.3899 0.0000 0.0000 0.0000
# 3 43.2556 47.3899 69.8380 0.0000 0.0000 0.0000
# 4 0.0000 0.0000 0.0000 36.1662 0.0000 0.0000
# 5 0.0000 0.0000 0.0000 0.0000 45.0217 0.0000
# 6 0.0000 0.0000 0.0000 0.0000 0.0000 32.0007
#
#
#
# Elastic Compliance Matrix: (Units=1/GPa)
#
#
# Indices 1 2 3 4 5 6 
#
# 1 0.013279 -0.004171 -0.005394 0.000000 0.000000 0.000000
# 2 -0.004171 0.009006 -0.003527 0.000000 0.000000 0.000000
# 3 -0.005394 -0.003527 0.020054 0.000000 0.000000 0.000000
# 4 0.000000 0.000000 0.000000 0.027650 0.000000 0.000000
# 5 0.000000 0.000000 0.000000 0.000000 0.022211 0.000000
# 6 0.000000 0.000000 0.000000 0.000000 0.000000 0.031249
#
#
# Mechanical properties :
#
#
# Convention : Reuss Voigt Hill
#
# Bulk Modulus (GPa) = 61.90984 74.27670 68.09327
# Shear Modulus (GPa) = 32.25385 35.04055 33.64720
#
# Velocity S-wave (km/s) = 3.66338 3.81836 3.74167
# Velocity P-wave (km/s) = 6.60709 7.09544 6.85561
#
# Compressibility (1/GPa) = 0.01615252
#
# Stress axis : x y z
#
# Youngs Moduli (GPa) = 75.30465 111.03880 49.86643
#
# Poissons Ratio (x) = 0.46318 0.26900
# Poissons Ratio (y) = 0.31412 0.17590
# Poissons Ratio (z) = 0.40622 0.39169
#
# Static dielectric constant tensor:
#      x y z
#    x 1.980630 0.000000 0.000000 
#    y 0.000000 1.895410 0.000000 
#    z 0.000000 0.000000 2.111640 
# 
# From -- ./inp_files/4080.got.cif
#   From: 2010.05.17/outbox.cif.g08.bks.cpg/sg20_3_cif.got.tgz:4080.got - 2010.06.03 22:52:26.
