data_PCOD9320459
_publ_section_title
;
Structure prediction by ZEFSAII (Michael W. Deem and Ramdas Pophale) SiO2 
 PCOD9320459
Probable space group: C 2 2 21
;
_chemical_formula_sum "Si O2"
_cell_formula_units_Z 64
_cell_length_a 5.412130
_cell_length_b 21.894696
_cell_length_c 25.873748
_cell_angle_alpha 90.000000
_cell_angle_beta 90.000000
_cell_angle_gamma 90.000000
_cell_volume 3065.959992
_symmetry_space_group_name_H-M "C 2 2 21"
_symmetry_group_IT_number 20
_symmetry_cell_setting 'orthorhombic'
loop_
_space_group_symop_operation_xyz
x,y,z
-x,-y,1/2+z
x,-y,-z
-x,y,1/2-z
1/2+x,1/2+y,z
1/2-x,1/2-y,1/2+z
1/2+x,1/2-y,-z
1/2-x,1/2+y,1/2-z
loop_
_atom_site_type_symbol
_atom_site_label
_atom_site_fract_x
_atom_site_fract_y
_atom_site_fract_z
Si Si1 0.245908 0.580195 0.883911
Si Si2 0.596054 0.030419 0.383043
Si Si3 0.975516 0.669689 0.089901
Si Si4 0.617495 0.455701 0.038066
Si Si5 0.252889 0.468658 0.283635
Si Si6 0.047856 0.758391 0.605415
Si Si7 0.938936 0.652524 0.973281
Si Si8 0.518996 0.844033 0.308366
O O1 0.505061 0.570838 0.909648
O O2 0.140779 0.512815 0.873994
O O3 0.093995 0.614048 0.930448
O O4 0.215997 0.620428 0.833112
O O5 0.562653 0.101827 0.388667
O O6 0.690936 0.004582 0.438429
O O7 0.757840 0.013926 0.332643
O O8 0.721141 0.709159 0.097683
O O9 0.221465 0.697553 0.114677
O O10 0.047404 0.665615 0.029159
O O11 0.715194 0.393588 0.013225
O O12 0.461096 0.500000 0.000000
O O13 0.500000 0.473741 0.250000
O O14 0.215731 0.399622 0.305789
O O15 0.000000 0.479134 0.250000
O O16 0.109376 0.716077 0.555435
O O17 0.053692 0.711333 0.653054
O O18 0.500000 0.822404 0.250000
#
# Coordination Sequence:
#
# PCOD9320459 Si02
#       8
#     8   8   8   8   8   8   8   8
#     4   9  22  37  65 101 133 163 217 275 339 399
#     4  10  24  40  61  99 137 169 217 266 329 410
#     4  12  26  43  65  92 133 187 219 259 321 393
#     4  11  22  36  66 102 137 173 210 272 346 396
#     4  10  23  42  72 103 126 164 210 277 350 392
#     4  11  27  43  64  94 128 176 234 270 313 381
#     4  10  23  41  61  93 132 174 222 275 317 390
#     4   9  21  45  69  97 126 165 223 290 341 377
#
# _framework density 20.874378
#
# number of rings (size 3 to 8) (size 9 to 14) (size 15 to 20)
#    0.000    1.750    1.250    1.500   14.000    2.000 
#    0.000    1.875    0.000    0.000    0.000    0.000 
#    0.000    0.000    0.000    0.000    0.000    0.000 
#
# Total GULP energy -178313.428907 kJ/mol
# GULP energy per Si atom -5572.294653 kJ/mol
# Density = 2.082687 g / cm^3
# Si number density = 20.874378 Si / 1000 Ang^3
#
#
#
# Elastic Constant Matrix: (Units=GPa)
#
#
# Indices 1 2 3 4 5 6 
#
# 1 67.1763 30.0430 12.1721 0.0000 0.0000 0.0000
# 2 30.0430 126.4793 35.4197 0.0000 0.0000 0.0000
# 3 12.1721 35.4197 106.7869 0.0000 0.0000 0.0000
# 4 0.0000 0.0000 0.0000 23.4829 0.0000 0.0000
# 5 0.0000 0.0000 0.0000 0.0000 22.8845 0.0000
# 6 0.0000 0.0000 0.0000 0.0000 0.0000 7.6918
#
#
#
# Elastic Compliance Matrix: (Units=1/GPa)
#
#
# Indices 1 2 3 4 5 6 
#
# 1 0.016696 -0.003784 -0.000648 0.000000 0.000000 0.000000
# 2 -0.003784 0.009574 -0.002744 0.000000 0.000000 0.000000
# 3 -0.000648 -0.002744 0.010348 0.000000 0.000000 0.000000
# 4 0.000000 0.000000 0.000000 0.042584 0.000000 0.000000
# 5 0.000000 0.000000 0.000000 0.000000 0.043698 0.000000
# 6 0.000000 0.000000 0.000000 0.000000 0.000000 0.130008
#
#
# Mechanical properties :
#
#
# Convention : Reuss Voigt Hill
#
# Bulk Modulus (GPa) = 44.91246 50.63468 47.77357
# Shear Modulus (GPa) = 18.20277 25.66568 21.93423
#
# Velocity S-wave (km/s) = 2.95619 3.51027 3.24508
# Velocity P-wave (km/s) = 5.76319 6.38270 6.08084
#
# Compressibility (1/GPa) = 0.02226554
#
# Stress axis : x y z
#
# Youngs Moduli (GPa) = 59.89427 104.45131 96.63260
#
# Poissons Ratio (x) = 0.39529 0.06260
# Poissons Ratio (y) = 0.22667 0.26517
# Poissons Ratio (z) = 0.03880 0.28663
#
# Static dielectric constant tensor:
#      x y z
#    x 1.864760 0.000000 0.000000 
#    y 0.000000 1.742940 0.000000 
#    z 0.000000 0.000000 1.802400 
# 
# From -- ./inp_files/29979.got.cif
#   From: 2010.05.17/outbox.cif.g08.bks.cpg/sg20_15_cif.got.tgz:29979.got - 2010.06.03 22:52:26.
