data_PCOD9320097
_publ_section_title
;
Structure prediction by ZEFSAII (Michael W. Deem and Ramdas Pophale) SiO2 
 PCOD9320097
Probable space group: C 2 2 21
;
_chemical_formula_sum "Si O2"
_cell_formula_units_Z 60
_cell_length_a 28.303385
_cell_length_b 12.278493
_cell_length_c 7.053470
_cell_angle_alpha 90.000000
_cell_angle_beta 90.000000
_cell_angle_gamma 90.000000
_cell_volume 2451.242452
_symmetry_space_group_name_H-M "C 2 2 21"
_symmetry_group_IT_number 20
_symmetry_cell_setting 'orthorhombic'
loop_
_space_group_symop_operation_xyz
x,y,z
-x,-y,1/2+z
x,-y,-z
-x,y,1/2-z
1/2+x,1/2+y,z
1/2-x,1/2-y,1/2+z
1/2+x,1/2-y,-z
1/2-x,1/2+y,1/2-z
loop_
_atom_site_type_symbol
_atom_site_label
_atom_site_fract_x
_atom_site_fract_y
_atom_site_fract_z
Si Si1 0.285203 0.086235 0.282137
Si Si2 0.186439 0.187089 0.851289
Si Si3 0.039178 0.612232 0.093834
Si Si4 0.708735 0.861217 0.332730
Si Si5 0.178994 0.126667 0.272585
Si Si6 0.924511 0.074710 0.242469
Si Si7 0.916720 0.841701 0.316673
Si Si8 0.500000 0.254011 0.750000
O O1 0.311254 0.183678 0.387103
O O2 0.229923 0.084188 0.340035
O O3 0.307034 0.967003 0.281144
O O4 0.287335 0.116526 0.057527
O O5 0.237621 0.163978 0.763969
O O6 0.137934 0.160510 0.749977
O O7 0.183667 0.120817 0.045198
O O8 0.067134 0.715359 0.191205
O O9 0.000000 0.578851 0.250000
O O10 0.060346 0.500000 0.000000
O O11 0.017343 0.676463 0.916289
O O12 0.677902 0.754920 0.313763
O O13 0.129167 0.079178 0.329519
O O14 0.919859 0.119110 0.461743
O O15 0.960527 0.164065 0.164301
O O16 0.940633 0.948880 0.223736
#
# Coordination Sequence:
#
# PCOD9320097 Si02
#       8
#     8   8   8   8   8   8   8   4
#     4   9  17  30  48  73 108 150 190 234 283 348
#     4   9  17  32  51  77 106 143 193 235 286 345
#     4  11  23  44  69  93 125 163 204 249 312 377
#     4   9  17  30  49  72 109 149 189 233 289 347
#     4   9  17  31  53  78 107 148 189 238 292 351
#     4   9  18  36  62  89 119 148 198 251 307 358
#     4   9  19  36  61  90 115 153 197 249 297 367
#     4  10  22  42  68  98 124 158 204 260 310 370
#
# _framework density 24.477384000000001
#
# number of rings (size 3 to 8) (size 9 to 14) (size 15 to 20)
#    0.000    2.667    0.667    0.800    0.933    3.733 
#    9.600    0.000    0.000    1.600    0.000    0.000 
#    0.000    0.000    0.000    0.000    0.000    0.000 
#
# Total GULP energy -167355.363340 kJ/mol
# GULP energy per Si atom -5578.512111 kJ/mol
# Density = 2.442167 g / cm^3
# Si number density = 24.477384 Si / 1000 Ang^3
#
#
#
# Elastic Constant Matrix: (Units=GPa)
#
#
# Indices 1 2 3 4 5 6 
#
# 1 60.0411 40.4160 0.4231 0.0000 0.0000 0.0000
# 2 40.4160 222.9096 28.8810 0.0000 0.0000 0.0000
# 3 0.4231 28.8810 72.2879 0.0000 0.0000 0.0000
# 4 0.0000 0.0000 0.0000 37.4921 0.0000 0.0000
# 5 0.0000 0.0000 0.0000 0.0000 3.5084 0.0000
# 6 0.0000 0.0000 0.0000 0.0000 0.0000 7.0984
#
#
#
# Elastic Compliance Matrix: (Units=1/GPa)
#
#
# Indices 1 2 3 4 5 6 
#
# 1 0.019093 -0.003635 0.001341 0.000000 0.000000 0.000000
# 2 -0.003635 0.005423 -0.002145 0.000000 0.000000 0.000000
# 3 0.001341 -0.002145 0.014683 0.000000 0.000000 0.000000
# 4 0.000000 0.000000 0.000000 0.026672 0.000000 0.000000
# 5 0.000000 0.000000 0.000000 0.000000 0.285029 0.000000
# 6 0.000000 0.000000 0.000000 0.000000 0.000000 0.140876
#
#
# Mechanical properties :
#
#
# Convention : Reuss Voigt Hill
#
# Bulk Modulus (GPa) = 32.98294 54.96432 43.97363
# Shear Modulus (GPa) = 9.78927 28.65435 19.22181
#
# Velocity S-wave (km/s) = 2.00200 3.42518 2.80534
# Velocity P-wave (km/s) = 4.34144 6.17628 5.33828
#
# Compressibility (1/GPa) = 0.03031870
#
# Stress axis : x y z
#
# Youngs Moduli (GPa) = 52.37524 184.39124 68.10647
#
# Poissons Ratio (x) = 0.67035 -0.09131
# Poissons Ratio (y) = 0.19041 0.14612
# Poissons Ratio (z) = -0.07022 0.39560
#
# Static dielectric constant tensor:
#      x y z
#    x 1.930130 0.000000 0.000000 
#    y 0.000000 1.981480 0.000000 
#    z 0.000000 0.000000 2.061970 
# 
# From -- ./inp_files/11132.got.cif
#   From: 2010.05.17/outbox.cif.g08.bks.cpg/sg20_6_cif.got.tgz:11132.got - 2010.06.03 22:52:26.
