data_PCOD9320214
_publ_section_title
;
Structure prediction by ZEFSAII (Michael W. Deem and Ramdas Pophale) SiO2 
 PCOD9320214
Probable space group: C 2 2 21
;
_chemical_formula_sum "Si O2"
_cell_formula_units_Z 32
_cell_length_a 19.005855
_cell_length_b 5.212211
_cell_length_c 12.753650
_cell_angle_alpha 90.000000
_cell_angle_beta 90.000000
_cell_angle_gamma 90.000000
_cell_volume 1263.408791
_symmetry_space_group_name_H-M "C 2 2 21"
_symmetry_group_IT_number 20
_symmetry_cell_setting 'orthorhombic'
loop_
_space_group_symop_operation_xyz
x,y,z
-x,-y,1/2+z
x,-y,-z
-x,y,1/2-z
1/2+x,1/2+y,z
1/2-x,1/2-y,1/2+z
1/2+x,1/2-y,-z
1/2-x,1/2+y,1/2-z
loop_
_atom_site_type_symbol
_atom_site_label
_atom_site_fract_x
_atom_site_fract_y
_atom_site_fract_z
Si Si1 0.475984 0.860642 0.868740
Si Si2 0.328847 0.277811 0.180704
Si Si3 0.470240 0.703967 0.441044
Si Si4 0.173143 0.722469 0.825338
O O1 0.500000 0.792155 0.750000
O O2 0.396222 0.769389 0.891109
O O3 0.475342 0.177447 0.857065
O O4 0.520137 0.615575 0.929118
O O5 0.252038 0.260624 0.128248
O O6 0.332684 0.546480 0.241978
O O7 0.332724 0.050326 0.267228
O O8 0.389895 0.750077 0.407108
O O9 0.488916 0.000000 0.500000
#
# Coordination Sequence:
#
# PCOD9320214 Si02
#       4
#     8   8   8   8
#     4  11  23  42  70 100 143 190 247 295 373 430
#     4  10  22  43  75 103 139 193 234 304 363 449
#     4  11  25  40  67 104 141 189 241 308 360 434
#     4  10  22  44  72 105 140 185 248 295 375 432
#
# _framework density 25.328299999999999
#
# number of rings (size 3 to 8) (size 9 to 14) (size 15 to 20)
#    0.000    1.500    2.500    1.500    7.000    1.000 
#    4.500    0.000    5.500    0.000    0.000    0.000 
#    0.000    0.000    0.000    0.000    0.000    0.000 
#
# Total GULP energy -89228.326837 kJ/mol
# GULP energy per Si atom -5576.770427 kJ/mol
# Density = 2.527065 g / cm^3
# Si number density = 25.328300 Si / 1000 Ang^3
#
#
#
# Elastic Constant Matrix: (Units=GPa)
#
#
# Indices 1 2 3 4 5 6 
#
# 1 238.8812 17.9029 32.2403 0.0000 0.0000 0.0000
# 2 17.9029 180.5797 54.7753 0.0000 0.0000 0.0000
# 3 32.2403 54.7753 59.8701 0.0000 0.0000 0.0000
# 4 0.0000 0.0000 0.0000 35.6260 0.0000 0.0000
# 5 0.0000 0.0000 0.0000 0.0000 40.9594 0.0000
# 6 0.0000 0.0000 0.0000 0.0000 0.0000 36.2974
#
#
#
# Elastic Compliance Matrix: (Units=1/GPa)
#
#
# Indices 1 2 3 4 5 6 
#
# 1 0.004535 0.000403 -0.002811 0.000000 0.000000 0.000000
# 2 0.000403 0.007701 -0.007262 0.000000 0.000000 0.000000
# 3 -0.002811 -0.007262 0.024861 0.000000 0.000000 0.000000
# 4 0.000000 0.000000 0.000000 0.028069 0.000000 0.000000
# 5 0.000000 0.000000 0.000000 0.000000 0.024414 0.000000
# 6 0.000000 0.000000 0.000000 0.000000 0.000000 0.027550
#
#
# Mechanical properties :
#
#
# Convention : Reuss Voigt Hill
#
# Bulk Modulus (GPa) = 56.31837 76.57422 66.44629
# Shear Modulus (GPa) = 35.11469 47.53740 41.32604
#
# Velocity S-wave (km/s) = 3.72745 4.33696 4.04371
# Velocity P-wave (km/s) = 6.38818 7.44159 6.93492
#
# Compressibility (1/GPa) = 0.01775620
#
# Stress axis : x y z
#
# Youngs Moduli (GPa) = 220.48941 129.85885 40.22365
#
# Poissons Ratio (x) = -0.05234 0.11307
# Poissons Ratio (y) = -0.08886 0.29212
# Poissons Ratio (z) = 0.61981 0.94309
#
# Static dielectric constant tensor:
#      x y z
#    x 2.010340 0.000000 0.000000 
#    y 0.000000 2.012180 0.000000 
#    z 0.000000 0.000000 3.055720 
# 
# From -- ./inp_files/21045.got.cif
#   From: 2010.05.17/outbox.cif.g08.bks.cpg/sg20_11_cif.got.tgz:21045.got - 2010.06.03 22:52:26.
