data_PCOD9320623
_publ_section_title
;
Structure prediction by ZEFSAII (Michael W. Deem and Ramdas Pophale) SiO2 
 PCOD9320623
Probable space group: C 2 2 21
;
_chemical_formula_sum "Si O2"
_cell_formula_units_Z 48
_cell_length_a 21.279482
_cell_length_b 10.917513
_cell_length_c 9.439920
_cell_angle_alpha 90.000000
_cell_angle_beta 90.000000
_cell_angle_gamma 90.000000
_cell_volume 2193.072976
_symmetry_space_group_name_H-M "C 2 2 21"
_symmetry_group_IT_number 20
_symmetry_cell_setting 'orthorhombic'
loop_
_space_group_symop_operation_xyz
x,y,z
-x,-y,1/2+z
x,-y,-z
-x,y,1/2-z
1/2+x,1/2+y,z
1/2-x,1/2-y,1/2+z
1/2+x,1/2-y,-z
1/2-x,1/2+y,1/2-z
loop_
_atom_site_type_symbol
_atom_site_label
_atom_site_fract_x
_atom_site_fract_y
_atom_site_fract_z
Si Si1 0.650666 0.731413 0.302960
Si Si2 0.334447 0.483682 0.331001
Si Si3 0.891707 0.727194 0.286496
Si Si4 0.435713 0.861445 0.994890
Si Si5 0.268839 0.923402 0.648688
Si Si6 0.926030 0.366882 0.429953
O O1 0.630883 0.602560 0.233186
O O2 0.613434 0.767541 0.441199
O O3 0.721847 0.696390 0.349806
O O4 0.625389 0.832568 0.188986
O O5 0.333791 0.500000 0.500000
O O6 0.364728 0.362277 0.267508
O O7 0.263903 0.493080 0.267954
O O8 0.834462 0.630538 0.299980
O O9 0.918924 0.729473 0.443873
O O10 0.939239 0.678612 0.168287
O O11 0.498676 0.863335 0.090702
O O12 0.411253 0.000000 0.000000
O O13 0.269162 0.000000 0.500000
O O14 0.915114 0.500000 0.500000
#
# Coordination Sequence:
#
# PCOD9320623 Si02
#       6
#     8   8   8   8   8   8
#     4  10  23  45  68  95 141 177 225 290 348 407
#     4  10  23  44  65  98 139 169 230 281 333 422
#     4  12  23  41  68  98 138 178 225 282 349 407
#     4  11  25  42  66 102 134 175 236 287 343 419
#     4  10  24  42  68 101 139 180 227 283 347 419
#     4  11  23  43  69  96 135 179 231 292 346 408
#
# _framework density 21.887094999999999
#
# number of rings (size 3 to 8) (size 9 to 14) (size 15 to 20)
#    1.000    0.333    1.667    3.500    0.000   11.333 
#    0.000    5.000    0.000    0.000    0.000    0.000 
#    0.000    0.000    0.000    0.000    0.000    0.000 
#
# Total GULP energy -133677.928940 kJ/mol
# GULP energy per Si atom -5569.913706 kJ/mol
# Density = 2.183728 g / cm^3
# Si number density = 21.887095 Si / 1000 Ang^3
#
#
#
# Elastic Constant Matrix: (Units=GPa)
#
#
# Indices 1 2 3 4 5 6 
#
# 1 85.7600 26.4320 25.9035 0.0000 0.0000 0.0000
# 2 26.4320 103.9801 20.3435 0.0000 0.0000 0.0000
# 3 25.9035 20.3435 101.1832 0.0000 0.0000 0.0000
# 4 0.0000 0.0000 0.0000 29.5641 0.0000 0.0000
# 5 0.0000 0.0000 0.0000 0.0000 22.5571 0.0000
# 6 0.0000 0.0000 0.0000 0.0000 0.0000 14.0410
#
#
#
# Elastic Compliance Matrix: (Units=1/GPa)
#
#
# Indices 1 2 3 4 5 6 
#
# 1 0.013401 -0.002847 -0.002858 0.000000 0.000000 0.000000
# 2 -0.002847 0.010616 -0.001405 0.000000 0.000000 0.000000
# 3 -0.002858 -0.001405 0.010897 0.000000 0.000000 0.000000
# 4 0.000000 0.000000 0.000000 0.033825 0.000000 0.000000
# 5 0.000000 0.000000 0.000000 0.000000 0.044332 0.000000
# 6 0.000000 0.000000 0.000000 0.000000 0.000000 0.071220
#
#
# Mechanical properties :
#
#
# Convention : Reuss Voigt Hill
#
# Bulk Modulus (GPa) = 48.32708 48.47572 48.40140
# Shear Modulus (GPa) = 24.34135 27.78205 26.06170
#
# Velocity S-wave (km/s) = 3.33848 3.56664 3.45444
# Velocity P-wave (km/s) = 6.08184 6.25758 6.17034
#
# Compressibility (1/GPa) = 0.02069233
#
# Stress axis : x y z
#
# Youngs Moduli (GPa) = 74.61907 94.19724 91.76509
#
# Poissons Ratio (x) = 0.26822 0.26230
# Poissons Ratio (y) = 0.21247 0.12897
# Poissons Ratio (z) = 0.21329 0.13239
#
# Static dielectric constant tensor:
#      x y z
#    x 1.875920 0.000000 0.000000 
#    y 0.000000 1.821080 0.000000 
#    z 0.000000 0.000000 1.794940 
# 
# From -- ./inp_files/10658.got.cif
#   From: 2010.05.17/outbox.cif.g08.bks.cpg/sg20_6_cif.got.tgz:10658.got - 2010.06.03 22:52:26.
