data_PCOD9320268
_publ_section_title
;
Structure prediction by ZEFSAII (Michael W. Deem and Ramdas Pophale) SiO2 
 PCOD9320268
Probable space group: C 2 2 21
;
_chemical_formula_sum "Si O2"
_cell_formula_units_Z 40
_cell_length_a 14.801828
_cell_length_b 10.733728
_cell_length_c 11.717173
_cell_angle_alpha 90.000000
_cell_angle_beta 90.000000
_cell_angle_gamma 90.000000
_cell_volume 1861.610335
_symmetry_space_group_name_H-M "C 2 2 21"
_symmetry_group_IT_number 20
_symmetry_cell_setting 'orthorhombic'
loop_
_space_group_symop_operation_xyz
x,y,z
-x,-y,1/2+z
x,-y,-z
-x,y,1/2-z
1/2+x,1/2+y,z
1/2-x,1/2-y,1/2+z
1/2+x,1/2-y,-z
1/2-x,1/2+y,1/2-z
loop_
_atom_site_type_symbol
_atom_site_label
_atom_site_fract_x
_atom_site_fract_y
_atom_site_fract_z
Si Si1 0.160450 0.359328 0.819959
Si Si2 0.000000 0.930246 0.750000
Si Si3 0.085657 0.894421 0.095776
Si Si4 0.081748 0.712629 0.425947
Si Si5 0.455121 0.000000 0.500000
Si Si6 0.650711 0.382256 0.585736
O O1 0.146687 0.226474 0.885111
O O2 0.115738 0.341193 0.695120
O O3 0.266067 0.388262 0.827216
O O4 0.107939 0.533710 0.108209
O O5 0.945869 0.862177 0.850251
O O6 0.920760 0.019469 0.705795
O O7 0.986596 0.829095 0.091050
O O8 0.102600 0.000000 0.000000
O O9 0.023134 0.615746 0.498707
O O10 0.162561 0.764745 0.501469
O O11 0.651192 0.500000 0.500000
#
# Coordination Sequence:
#
# PCOD9320268 Si02
#       6
#     8   4   8   8   4   8
#     4  11  24  44  71  97 146 184 222 294 349 398
#     4  12  20  42  70  96 130 188 230 282 348 414
#     4  11  19  39  71  98 129 177 232 276 341 409
#     4  11  22  46  65 102 141 180 229 290 341 415
#     4  10  22  44  70  94 132 190 226 268 358 418
#     4  12  24  46  70 105 139 179 239 288 348 418
#
# _framework density 21.486772999999999
#
# number of rings (size 3 to 8) (size 9 to 14) (size 15 to 20)
#    0.000    0.800    7.000    1.800    0.000    1.600 
#   12.600    0.000    0.000    0.000    0.000    0.000 
#    0.000    0.000    0.000    0.000    0.000    0.000 
#
# Total GULP energy -111336.128480 kJ/mol
# GULP energy per Si atom -5566.806424 kJ/mol
# Density = 2.143787 g / cm^3
# Si number density = 21.486773 Si / 1000 Ang^3
#
#
#
# Elastic Constant Matrix: (Units=GPa)
#
#
# Indices 1 2 3 4 5 6 
#
# 1 115.3286 38.5460 43.9949 0.0000 0.0000 0.0000
# 2 38.5460 89.3584 61.1863 0.0000 0.0000 0.0000
# 3 43.9949 61.1863 114.3443 0.0000 0.0000 0.0000
# 4 0.0000 0.0000 0.0000 49.2287 0.0000 0.0000
# 5 0.0000 0.0000 0.0000 0.0000 28.9125 0.0000
# 6 0.0000 0.0000 0.0000 0.0000 0.0000 -6.7343
#
#
#
# Elastic Compliance Matrix: (Units=1/GPa)
#
#
# Indices 1 2 3 4 5 6 
#
# 1 0.010590 -0.002807 -0.002573 0.000000 0.000000 0.000000
# 2 -0.002807 0.018406 -0.008769 0.000000 0.000000 0.000000
# 3 -0.002573 -0.008769 0.014428 0.000000 0.000000 0.000000
# 4 0.000000 0.000000 0.000000 0.020313 0.000000 0.000000
# 5 0.000000 0.000000 0.000000 0.000000 0.034587 0.000000
# 6 0.000000 0.000000 0.000000 0.000000 0.000000 -0.148493
#
#
# Mechanical properties :
#
#
# Convention : Reuss Voigt Hill
#
# Bulk Modulus (GPa) = 66.10769 67.38727 66.74748
# Shear Modulus (GPa) = -297.12986 25.96831 -135.58077
#
# Velocity S-wave (km/s) = -11.77222 3.48022 -7.95215
# Velocity P-wave (km/s) = 12.40753 6.89779 7.29271
#
# Compressibility (1/GPa) = 0.01512683
#
# Stress axis : x y z
#
# Youngs Moduli (GPa) = 94.42501 54.32953 69.30950
#
# Poissons Ratio (x) = 0.15248 0.17833
# Poissons Ratio (y) = 0.26501 0.60780
# Poissons Ratio (z) = 0.24295 0.47644
#
# Static dielectric constant tensor:
#      x y z
#    x 1.812780 0.000000 0.000000 
#    y 0.000000 1.824640 0.000000 
#    z 0.000000 0.000000 1.990200 
# 
# From -- ./inp_files/13942.got.cif
#   From: 2010.05.17/outbox.cif.g08.bks.cpg/sg20_7_cif.got.tgz:13942.got - 2010.06.03 22:52:26.
