data_PCOD9320548
_publ_section_title
;
Structure prediction by ZEFSAII (Michael W. Deem and Ramdas Pophale) SiO2 
 PCOD9320548
Probable space group: C 2 2 21
;
_chemical_formula_sum "Si O2"
_cell_formula_units_Z 44
_cell_length_a 8.945685
_cell_length_b 10.535193
_cell_length_c 20.214970
_cell_angle_alpha 90.000000
_cell_angle_beta 90.000000
_cell_angle_gamma 90.000000
_cell_volume 1905.150104
_symmetry_space_group_name_H-M "C 2 2 21"
_symmetry_group_IT_number 20
_symmetry_cell_setting 'orthorhombic'
loop_
_space_group_symop_operation_xyz
x,y,z
-x,-y,1/2+z
x,-y,-z
-x,y,1/2-z
1/2+x,1/2+y,z
1/2-x,1/2-y,1/2+z
1/2+x,1/2-y,-z
1/2-x,1/2+y,1/2-z
loop_
_atom_site_type_symbol
_atom_site_label
_atom_site_fract_x
_atom_site_fract_y
_atom_site_fract_z
Si Si1 0.173044 0.061314 0.243577
Si Si2 0.955961 0.335441 0.930171
Si Si3 0.734157 0.069895 0.608239
Si Si4 0.696280 0.692584 0.448402
Si Si5 0.529966 0.500000 0.000000
Si Si6 0.858058 0.806481 0.203075
O O1 0.201833 0.988207 0.174590
O O2 0.213154 0.949289 0.297110
O O3 0.000000 0.094279 0.250000
O O4 0.262799 0.192535 0.235965
O O5 0.894854 0.475026 0.914782
O O6 0.917478 0.246835 0.866921
O O7 0.130286 0.345005 0.948790
O O8 0.857718 0.275711 0.988797
O O9 0.677188 0.213346 0.613585
O O10 0.861760 0.071065 0.551368
O O11 0.079412 0.920389 0.547022
O O12 0.000000 0.822178 0.250000
#
# Coordination Sequence:
#
# PCOD9320548 Si02
#       6
#     8   8   8   8   4   8
#     4  10  23  42  70  92 130 175 217 271 330 390
#     4  11  23  43  66  92 138 171 217 273 326 395
#     4  11  23  45  62  93 136 170 215 274 324 393
#     4  12  23  40  63  96 128 175 214 265 333 388
#     4  12  26  36  66  96 128 172 220 264 332 396
#     4  10  23  44  65  99 131 172 220 274 329 393
#
# _framework density 23.095295
#
# number of rings (size 3 to 8) (size 9 to 14) (size 15 to 20)
#    0.000    1.091    3.636    2.182    2.545    3.636 
#    0.000    3.636    0.000    0.000    0.000    0.000 
#    0.000    0.000    0.000    0.000    0.000    0.000 
#
# Total GULP energy -122956.670506 kJ/mol
# GULP energy per Si atom -5588.939568 kJ/mol
# Density = 2.304273 g / cm^3
# Si number density = 23.095295 Si / 1000 Ang^3
#
#
#
# Elastic Constant Matrix: (Units=GPa)
#
#
# Indices 1 2 3 4 5 6 
#
# 1 86.6833 36.1141 0.8051 0.0000 0.0000 0.0000
# 2 36.1141 80.7561 -24.0464 0.0000 0.0000 0.0000
# 3 0.8051 -24.0464 44.3013 0.0000 0.0000 0.0000
# 4 0.0000 0.0000 0.0000 37.0061 0.0000 0.0000
# 5 0.0000 0.0000 0.0000 0.0000 25.8513 0.0000
# 6 0.0000 0.0000 0.0000 0.0000 0.0000 26.8815
#
#
#
# Elastic Compliance Matrix: (Units=1/GPa)
#
#
# Indices 1 2 3 4 5 6 
#
# 1 0.014940 -0.008065 -0.004649 0.000000 0.000000 0.000000
# 2 -0.008065 0.019124 0.010527 0.000000 0.000000 0.000000
# 3 -0.004649 0.010527 0.028371 0.000000 0.000000 0.000000
# 4 0.000000 0.000000 0.000000 0.027023 0.000000 0.000000
# 5 0.000000 0.000000 0.000000 0.000000 0.038683 0.000000
# 6 0.000000 0.000000 0.000000 0.000000 0.000000 0.037200
#
#
# Mechanical properties :
#
#
# Convention : Reuss Voigt Hill
#
# Bulk Modulus (GPa) = 17.22353 26.38737 21.80545
# Shear Modulus (GPa) = 26.44528 31.20562 28.82545
#
# Velocity S-wave (km/s) = 3.38753 3.67981 3.53669
# Velocity P-wave (km/s) = 4.77224 5.43184 5.11269
#
# Compressibility (1/GPa) = 0.05806012
#
# Stress axis : x y z
#
# Youngs Moduli (GPa) = 66.93598 52.28917 35.24696
#
# Poissons Ratio (x) = 0.42173 0.16387
# Poissons Ratio (y) = 0.53987 -0.37105
# Poissons Ratio (z) = 0.31121 -0.55046
#
# Static dielectric constant tensor:
#      x y z
#    x 1.825460 0.000000 0.000000 
#    y 0.000000 1.955780 0.000000 
#    z 0.000000 0.000000 1.889300 
# 
# From -- ./inp_files/28658.got.cif
#   From: 2010.05.17/outbox.cif.g08.bks.cpg/sg20_15_cif.got.tgz:28658.got - 2010.06.03 22:52:26.
