data_PCOD9320671
_publ_section_title
;
Structure prediction by ZEFSAII (Michael W. Deem and Ramdas Pophale) SiO2 
 PCOD9320671
Probable space group: C 2 2 21
;
_chemical_formula_sum "Si O2"
_cell_formula_units_Z 36
_cell_length_a 10.317898
_cell_length_b 21.785908
_cell_length_c 7.423011
_cell_angle_alpha 90.000000
_cell_angle_beta 90.000000
_cell_angle_gamma 90.000000
_cell_volume 1668.579869
_symmetry_space_group_name_H-M "C 2 2 21"
_symmetry_group_IT_number 20
_symmetry_cell_setting 'orthorhombic'
loop_
_space_group_symop_operation_xyz
x,y,z
-x,-y,1/2+z
x,-y,-z
-x,y,1/2-z
1/2+x,1/2+y,z
1/2-x,1/2-y,1/2+z
1/2+x,1/2-y,-z
1/2-x,1/2+y,1/2-z
loop_
_atom_site_type_symbol
_atom_site_label
_atom_site_fract_x
_atom_site_fract_y
_atom_site_fract_z
Si Si1 0.188491 0.602193 0.142153
Si Si2 0.569118 0.149378 0.493068
Si Si3 0.000000 0.758906 0.250000
Si Si4 0.277003 0.646241 0.790978
Si Si5 0.850991 0.006905 0.711243
O O1 0.172885 0.631488 0.338754
O O2 0.258293 0.537807 0.175047
O O3 0.046970 0.600596 0.044864
O O4 0.263767 0.646811 0.006558
O O5 0.514811 0.214308 0.422575
O O6 0.641804 0.151396 0.682220
O O7 0.124344 0.801977 0.229477
O O8 0.329652 0.577959 0.755034
O O9 0.000000 0.989776 0.750000
O O10 0.823075 0.000000 0.500000
#
# Coordination Sequence:
#
# PCOD9320671 Si02
#       5
#     8   8   4   8   8
#     4  10  23  45  68 101 137 182 238 288 362 439
#     4  10  25  48  65 103 144 184 243 291 356 436
#     4  10  26  42  72 104 140 186 254 290 352 444
#     4  12  23  46  71 102 142 192 236 299 368 419
#     4  12  24  44  70 106 146 183 238 304 367 441
#
# _framework density 21.575233000000001
#
# number of rings (size 3 to 8) (size 9 to 14) (size 15 to 20)
#    0.000    1.333    3.333    2.667    6.222    0.000 
#   16.000    0.000    0.000    0.000    0.000    0.000 
#    0.000    0.000    0.000    0.000    0.000    0.000 
#
# Total GULP energy -100546.401252 kJ/mol
# GULP energy per Si atom -5585.911181 kJ/mol
# Density = 2.152613 g / cm^3
# Si number density = 21.575233 Si / 1000 Ang^3
#
#
#
# Elastic Constant Matrix: (Units=GPa)
#
#
# Indices 1 2 3 4 5 6 
#
# 1 121.2809 73.4415 33.7811 0.0000 0.0000 0.0000
# 2 73.4415 131.2411 36.6643 0.0000 0.0000 0.0000
# 3 33.7811 36.6643 95.0971 0.0000 0.0000 0.0000
# 4 0.0000 0.0000 0.0000 12.9257 0.0000 0.0000
# 5 0.0000 0.0000 0.0000 0.0000 28.9646 0.0000
# 6 0.0000 0.0000 0.0000 0.0000 0.0000 82.2760
#
#
#
# Elastic Compliance Matrix: (Units=1/GPa)
#
#
# Indices 1 2 3 4 5 6 
#
# 1 0.012802 -0.006605 -0.002001 0.000000 0.000000 0.000000
# 2 -0.006605 0.011947 -0.002260 0.000000 0.000000 0.000000
# 3 -0.002001 -0.002260 0.012098 0.000000 0.000000 0.000000
# 4 0.000000 0.000000 0.000000 0.077365 0.000000 0.000000
# 5 0.000000 0.000000 0.000000 0.000000 0.034525 0.000000
# 6 0.000000 0.000000 0.000000 0.000000 0.000000 0.012154
#
#
# Mechanical properties :
#
#
# Convention : Reuss Voigt Hill
#
# Bulk Modulus (GPa) = 66.15963 70.59920 68.37942
# Shear Modulus (GPa) = 26.64367 38.41542 32.52954
#
# Velocity S-wave (km/s) = 3.51795 4.22421 3.88716
# Velocity P-wave (km/s) = 6.87259 7.52232 7.20479
#
# Compressibility (1/GPa) = 0.01511496
#
# Stress axis : x y z
#
# Youngs Moduli (GPa) = 78.11030 83.70291 82.66017
#
# Poissons Ratio (x) = 0.55286 0.16542
# Poissons Ratio (y) = 0.51592 0.18680
# Poissons Ratio (z) = 0.15632 0.18915
#
# Static dielectric constant tensor:
#      x y z
#    x 1.835110 0.000000 0.000000 
#    y 0.000000 1.740250 0.000000 
#    z 0.000000 0.000000 1.798140 
# 
# From -- ./inp_files/5912.got.cif
#   From: 2010.05.17/outbox.cif.g08.bks.cpg/sg20_3_cif.got.tgz:5912.got - 2010.06.03 22:52:26.
