data_PCOD9320062
_publ_section_title
;
Structure prediction by ZEFSAII (Michael W. Deem and Ramdas Pophale) SiO2 
 PCOD9320062
Probable space group: C 2 2 21
;
_chemical_formula_sum "Si O2"
_cell_formula_units_Z 36
_cell_length_a 6.931762
_cell_length_b 13.078264
_cell_length_c 20.686100
_cell_angle_alpha 90.000000
_cell_angle_beta 90.000000
_cell_angle_gamma 90.000000
_cell_volume 1875.306948
_symmetry_space_group_name_H-M "C 2 2 21"
_symmetry_group_IT_number 20
_symmetry_cell_setting 'orthorhombic'
loop_
_space_group_symop_operation_xyz
x,y,z
-x,-y,1/2+z
x,-y,-z
-x,y,1/2-z
1/2+x,1/2+y,z
1/2-x,1/2-y,1/2+z
1/2+x,1/2-y,-z
1/2-x,1/2+y,1/2-z
loop_
_atom_site_type_symbol
_atom_site_label
_atom_site_fract_x
_atom_site_fract_y
_atom_site_fract_z
Si Si1 0.500000 0.534109 0.250000
Si Si2 0.934511 0.836789 0.319189
Si Si3 0.258913 0.753862 0.914379
Si Si4 0.635886 0.672289 0.356484
Si Si5 0.095780 0.612315 0.028475
O O1 0.402921 0.455373 0.301021
O O2 0.639138 0.604931 0.291774
O O3 0.749130 0.778029 0.344964
O O4 0.000000 0.790631 0.250000
O O5 0.107325 0.817605 0.369225
O O6 0.399473 0.840566 0.942915
O O7 0.083521 0.803164 0.874895
O O8 0.170215 0.687858 0.972423
O O9 0.745646 0.615261 0.414489
O O10 0.069761 0.500000 0.000000
#
# Coordination Sequence:
#
# PCOD9320062 Si02
#       5
#     4   8   8   8   8
#     4  10  22  42  66  96 122 174 210 262 328 382
#     4   9  22  41  63  94 128 160 217 264 313 387
#     4  11  22  42  64  95 131 168 216 268 318 380
#     4  11  22  41  69  93 130 172 213 268 323 378
#     4  11  24  41  63  95 129 173 216 265 321 385
#
# _framework density 19.196857000000001
#
# number of rings (size 3 to 8) (size 9 to 14) (size 15 to 20)
#    0.667    0.889    2.222    2.667    0.000    2.667 
#    0.000    6.667    0.000    0.000    0.000    0.000 
#    0.000    0.000    0.000    0.000    0.000    0.000 
#
# Total GULP energy -100456.326966 kJ/mol
# GULP energy per Si atom -5580.907054 kJ/mol
# Density = 1.915316 g / cm^3
# Si number density = 19.196857 Si / 1000 Ang^3
#
#
#
# Elastic Constant Matrix: (Units=GPa)
#
#
# Indices 1 2 3 4 5 6 
#
# 1 119.6364 37.7343 36.1326 0.0000 0.0000 0.0000
# 2 37.7343 55.7788 -5.0657 0.0000 0.0000 0.0000
# 3 36.1326 -5.0657 50.0264 0.0000 0.0000 0.0000
# 4 0.0000 0.0000 0.0000 44.3155 0.0000 0.0000
# 5 0.0000 0.0000 0.0000 0.0000 21.0192 0.0000
# 6 0.0000 0.0000 0.0000 0.0000 0.0000 8.5701
#
#
#
# Elastic Compliance Matrix: (Units=1/GPa)
#
#
# Indices 1 2 3 4 5 6 
#
# 1 0.015991 -0.011977 -0.012762 0.000000 0.000000 0.000000
# 2 -0.011977 0.027065 0.011391 0.000000 0.000000 0.000000
# 3 -0.012762 0.011391 0.030361 0.000000 0.000000 0.000000
# 4 0.000000 0.000000 0.000000 0.022565 0.000000 0.000000
# 5 0.000000 0.000000 0.000000 0.000000 0.047576 0.000000
# 6 0.000000 0.000000 0.000000 0.000000 0.000000 0.116685
#
#
# Mechanical properties :
#
#
# Convention : Reuss Voigt Hill
#
# Bulk Modulus (GPa) = 21.40406 40.33820 30.87113
# Shear Modulus (GPa) = 16.52826 25.22365 20.87596
#
# Velocity S-wave (km/s) = 2.93744 3.62877 3.30125
# Velocity P-wave (km/s) = 4.76222 6.21417 5.53600
#
# Compressibility (1/GPa) = 0.04672011
#
# Stress axis : x y z
#
# Youngs Moduli (GPa) = 62.53621 36.94840 32.93717
#
# Poissons Ratio (x) = 0.44252 0.42036
# Poissons Ratio (y) = 0.74898 -0.37519
# Poissons Ratio (z) = 0.79811 -0.42088
#
# Static dielectric constant tensor:
#      x y z
#    x 1.635150 0.000000 0.000000 
#    y 0.000000 1.648050 0.000000 
#    z 0.000000 0.000000 1.678970 
# 
# From -- ./inp_files/25920.got.cif
#   From: 2010.05.17/outbox.cif.g08.bks.cpg/sg20_13_cif.got.tgz:25920.got - 2010.06.03 22:52:26.
