data_PCOD9320638
_publ_section_title
;
Structure prediction by ZEFSAII (Michael W. Deem and Ramdas Pophale) SiO2 
 PCOD9320638
Probable space group: C 2 2 21
;
_chemical_formula_sum "Si O2"
_cell_formula_units_Z 60
_cell_length_a 11.696225
_cell_length_b 18.681013
_cell_length_c 12.769698
_cell_angle_alpha 90.000000
_cell_angle_beta 90.000000
_cell_angle_gamma 90.000000
_cell_volume 2790.144934
_symmetry_space_group_name_H-M "C 2 2 21"
_symmetry_group_IT_number 20
_symmetry_cell_setting 'orthorhombic'
loop_
_space_group_symop_operation_xyz
x,y,z
-x,-y,1/2+z
x,-y,-z
-x,y,1/2-z
1/2+x,1/2+y,z
1/2-x,1/2-y,1/2+z
1/2+x,1/2-y,-z
1/2-x,1/2+y,1/2-z
loop_
_atom_site_type_symbol
_atom_site_label
_atom_site_fract_x
_atom_site_fract_y
_atom_site_fract_z
Si Si1 0.325327 0.669492 0.366993
Si Si2 0.366585 0.085463 0.003641
Si Si3 0.197523 0.053283 0.289789
Si Si4 0.475035 0.648186 0.562015
Si Si5 0.775027 0.096172 0.693398
Si Si6 0.126701 0.579164 0.053910
Si Si7 0.930272 0.000000 0.000000
Si Si8 0.765753 0.824122 0.101199
O O1 0.224426 0.622809 0.420820
O O2 0.354073 0.624001 0.263777
O O3 0.424407 0.675297 0.453207
O O4 0.280768 0.749533 0.356399
O O5 0.495358 0.101272 0.038351
O O6 0.328283 0.107691 0.886979
O O7 0.352982 0.000000 0.000000
O O8 0.327076 0.069514 0.327969
O O9 0.190464 0.987121 0.208868
O O10 0.138326 0.030235 0.399384
O O11 0.379224 0.646100 0.652415
O O12 0.496557 0.564389 0.543435
O O13 0.597916 0.681343 0.585239
O O14 0.742675 0.118344 0.809194
O O15 0.137162 0.500000 0.000000
O O16 0.204568 0.640707 0.999612
#
# Coordination Sequence:
#
# PCOD9320638 Si02
#       8
#     8   8   8   8   8   8   4   8
#     4  11  28  43  68 105 143 178 235 292 362 432
#     4  10  23  44  69  98 132 181 225 287 343 414
#     4  12  21  44  68 109 132 177 238 294 353 415
#     4  11  24  44  71  99 138 186 230 297 365 413
#     4  11  22  43  71  98 132 177 241 281 343 429
#     4  11  22  44  70  95 138 180 233 284 347 426
#     4  12  22  42  74 102 134 174 236 304 342 422
#     4  12  25  46  66 102 141 186 226 288 360 423
#
# _framework density 21.504259000000001
#
# number of rings (size 3 to 8) (size 9 to 14) (size 15 to 20)
#    0.000    0.800    6.000    1.200    3.733    4.800 
#    2.400    1.333    0.000    0.000    0.000    0.000 
#    0.000    0.000    0.000    0.000    0.000    0.000 
#
# Total GULP energy -167559.051205 kJ/mol
# GULP energy per Si atom -5585.301707 kJ/mol
# Density = 2.145531 g / cm^3
# Si number density = 21.504259 Si / 1000 Ang^3
#
#
#
# Elastic Constant Matrix: (Units=GPa)
#
#
# Indices 1 2 3 4 5 6 
#
# 1 69.8867 -3.8498 21.0195 0.0000 0.0000 0.0000
# 2 -3.8498 80.8731 -3.0971 0.0000 0.0000 0.0000
# 3 21.0195 -3.0971 71.9398 0.0000 0.0000 0.0000
# 4 0.0000 0.0000 0.0000 20.1407 0.0000 0.0000
# 5 0.0000 0.0000 0.0000 0.0000 19.1564 0.0000
# 6 0.0000 0.0000 0.0000 0.0000 0.0000 62.3728
#
#
#
# Elastic Compliance Matrix: (Units=1/GPa)
#
#
# Indices 1 2 3 4 5 6 
#
# 1 0.015714 0.000573 -0.004567 0.000000 0.000000 0.000000
# 2 0.000573 0.012406 0.000367 0.000000 0.000000 0.000000
# 3 -0.004567 0.000367 0.015251 0.000000 0.000000 0.000000
# 4 0.000000 0.000000 0.000000 0.049651 0.000000 0.000000
# 5 0.000000 0.000000 0.000000 0.000000 0.052202 0.000000
# 6 0.000000 0.000000 0.000000 0.000000 0.000000 0.016033
#
#
# Mechanical properties :
#
#
# Convention : Reuss Voigt Hill
#
# Bulk Modulus (GPa) = 27.68767 27.87166 27.77967
# Shear Modulus (GPa) = 27.69333 34.24244 30.96789
#
# Velocity S-wave (km/s) = 3.59250 3.99476 3.79896
# Velocity P-wave (km/s) = 5.48739 5.85377 5.67354
#
# Compressibility (1/GPa) = 0.03611716
#
# Stress axis : x y z
#
# Youngs Moduli (GPa) = 63.63778 80.60371 65.57126
#
# Poissons Ratio (x) = -0.04620 0.29944
# Poissons Ratio (y) = -0.03647 -0.02404
# Poissons Ratio (z) = 0.29061 -0.02955
#
# Static dielectric constant tensor:
#      x y z
#    x 1.851140 0.000000 0.000000 
#    y 0.000000 1.774820 0.000000 
#    z 0.000000 0.000000 1.763710 
# 
# From -- ./inp_files/14385.got.cif
#   From: 2010.05.17/outbox.cif.g08.bks.cpg/sg20_8_cif.got.tgz:14385.got - 2010.06.03 22:52:26.
