data_PCOD9320770
_publ_section_title
;
Structure prediction by ZEFSAII (Michael W. Deem and Ramdas Pophale) SiO2 
 PCOD9320770
Probable space group: C 2 2 21
;
_chemical_formula_sum "Si O2"
_cell_formula_units_Z 56
_cell_length_a 5.457802
_cell_length_b 23.032343
_cell_length_c 21.957856
_cell_angle_alpha 90.000000
_cell_angle_beta 90.000000
_cell_angle_gamma 90.000000
_cell_volume 2760.233537
_symmetry_space_group_name_H-M "C 2 2 21"
_symmetry_group_IT_number 20
_symmetry_cell_setting 'orthorhombic'
loop_
_space_group_symop_operation_xyz
x,y,z
-x,-y,1/2+z
x,-y,-z
-x,y,1/2-z
1/2+x,1/2+y,z
1/2-x,1/2-y,1/2+z
1/2+x,1/2-y,-z
1/2-x,1/2+y,1/2-z
loop_
_atom_site_type_symbol
_atom_site_label
_atom_site_fract_x
_atom_site_fract_y
_atom_site_fract_z
Si Si1 0.423150 0.349312 0.818214
Si Si2 0.011215 0.161132 0.967652
Si Si3 0.746266 0.969864 0.786979
Si Si4 0.594917 0.001568 0.566291
Si Si5 0.803852 0.719182 0.426500
Si Si6 0.106300 0.052155 0.605212
Si Si7 0.195098 0.623534 0.417887
O O1 0.500000 0.330638 0.750000
O O2 0.234962 0.402852 0.810568
O O3 0.639728 0.377678 0.857934
O O4 0.335632 0.298859 0.864390
O O5 0.166385 0.213006 0.937903
O O6 0.920421 0.119398 0.913761
O O7 0.814429 0.192270 0.012021
O O8 0.157072 0.123745 0.018247
O O9 0.500000 0.980740 0.750000
O O10 0.000000 0.969360 0.750000
O O11 0.781662 0.022437 0.834442
O O12 0.334540 0.033527 0.561739
O O13 0.825877 0.027512 0.603474
O O14 0.709456 0.000000 0.500000
O O15 0.540353 0.935093 0.583329
O O16 0.056266 0.684453 0.418973
#
# Coordination Sequence:
#
# PCOD9320770 Si02
#       7
#     8   8   8   8   8   8   8
#     4  10  24  39  68 103 135 177 237 288 349 412
#     4  11  24  42  65  99 136 185 232 288 354 426
#     4  11  24  44  69  99 138 179 230 293 357 419
#     4  12  23  38  62 103 139 170 219 280 349 424
#     4  11  23  42  67  96 139 182 236 289 350 415
#     4  12  25  41  67 100 136 182 225 280 356 422
#     4  11  22  40  65  96 138 177 224 286 353 417
#
# _framework density 20.288138
#
# number of rings (size 3 to 8) (size 9 to 14) (size 15 to 20)
#    0.000    0.857    4.286    3.000    8.000    0.000 
#    0.000    0.000    3.143    0.000    0.000    0.000 
#    0.000    0.000    0.000    0.000    0.000    0.000 
#
# Total GULP energy -155955.785113 kJ/mol
# GULP energy per Si atom -5569.849468 kJ/mol
# Density = 2.024196 g / cm^3
# Si number density = 20.288138 Si / 1000 Ang^3
#
#
#
# Elastic Constant Matrix: (Units=GPa)
#
#
# Indices 1 2 3 4 5 6 
#
# 1 60.3301 25.5051 17.3623 0.0000 0.0000 0.0000
# 2 25.5051 117.5960 47.9112 0.0000 0.0000 0.0000
# 3 17.3623 47.9112 111.7812 0.0000 0.0000 0.0000
# 4 0.0000 0.0000 0.0000 20.6129 0.0000 0.0000
# 5 0.0000 0.0000 0.0000 0.0000 21.9550 0.0000
# 6 0.0000 0.0000 0.0000 0.0000 0.0000 35.8392
#
#
#
# Elastic Compliance Matrix: (Units=1/GPa)
#
#
# Indices 1 2 3 4 5 6 
#
# 1 0.018426 -0.003429 -0.001392 0.000000 0.000000 0.000000
# 2 -0.003429 0.010941 -0.004157 0.000000 0.000000 0.000000
# 3 -0.001392 -0.004157 0.010944 0.000000 0.000000 0.000000
# 4 0.000000 0.000000 0.000000 0.048513 0.000000 0.000000
# 5 0.000000 0.000000 0.000000 0.000000 0.045548 0.000000
# 6 0.000000 0.000000 0.000000 0.000000 0.000000 0.027902
#
#
# Mechanical properties :
#
#
# Convention : Reuss Voigt Hill
#
# Bulk Modulus (GPa) = 44.73380 52.36272 48.54826
# Shear Modulus (GPa) = 26.64081 28.94334 27.79208
#
# Velocity S-wave (km/s) = 3.62763 3.78115 3.70519
# Velocity P-wave (km/s) = 6.29630 6.70286 6.50276
#
# Compressibility (1/GPa) = 0.02235446
#
# Stress axis : x y z
#
# Youngs Moduli (GPa) = 54.27165 91.39907 91.37434
#
# Poissons Ratio (x) = 0.31342 0.12721
# Poissons Ratio (y) = 0.18610 0.37983
# Poissons Ratio (z) = 0.07556 0.37993
#
# Static dielectric constant tensor:
#      x y z
#    x 1.816450 0.000000 0.000000 
#    y 0.000000 1.698310 0.000000 
#    z 0.000000 0.000000 1.775540 
# 
# From -- ./inp_files/26180.got.cif
#   From: 2010.05.17/outbox.cif.g08.bks.cpg/sg20_14_cif.got.tgz:26180.got - 2010.06.03 22:52:26.
