data_PCOD9320105
_publ_section_title
;
Structure prediction by ZEFSAII (Michael W. Deem and Ramdas Pophale) SiO2 
 PCOD9320105
Probable space group: C 2 2 21
;
_chemical_formula_sum "Si O2"
_cell_formula_units_Z 32
_cell_length_a 30.451263
_cell_length_b 5.430759
_cell_length_c 8.626089
_cell_angle_alpha 90.000000
_cell_angle_beta 90.000000
_cell_angle_gamma 90.000000
_cell_volume 1426.526276
_symmetry_space_group_name_H-M "C 2 2 21"
_symmetry_group_IT_number 20
_symmetry_cell_setting 'orthorhombic'
loop_
_space_group_symop_operation_xyz
x,y,z
-x,-y,1/2+z
x,-y,-z
-x,y,1/2-z
1/2+x,1/2+y,z
1/2-x,1/2-y,1/2+z
1/2+x,1/2-y,-z
1/2-x,1/2+y,1/2-z
loop_
_atom_site_type_symbol
_atom_site_label
_atom_site_fract_x
_atom_site_fract_y
_atom_site_fract_z
Si Si1 0.260516 0.749612 0.102376
Si Si2 0.176165 0.993286 0.181740
Si Si3 0.500000 0.338194 0.250000
Si Si4 0.583759 0.602462 0.326491
Si Si5 0.042588 0.500000 0.500000
O O1 0.296773 0.713589 0.235664
O O2 0.212821 0.777491 0.183387
O O3 0.263026 0.500000 0.000000
O O4 0.266099 0.000000 0.000000
O O5 0.129636 0.003562 0.264771
O O6 0.166383 0.000000 0.000000
O O7 0.543023 0.504842 0.227389
O O8 0.511043 0.179036 0.402047
O O9 0.579771 0.500000 0.500000
O O10 0.574220 0.887473 0.365596
#
# Coordination Sequence:
#
# PCOD9320105 Si02
#       5
#     8   8   4   8   4
#     4  11  25  48  73 102 154 199 245 312 379 435
#     4  11  24  43  70 106 138 193 249 308 361 441
#     4  10  22  44  68 100 138 180 238 290 360 436
#     4  10  23  43  67  99 141 184 238 289 370 439
#     4  10  22  42  70 100 138 192 222 298 364 430
#
# _framework density 22.432116000000001
#
# number of rings (size 3 to 8) (size 9 to 14) (size 15 to 20)
#    0.000    1.500    0.000    4.500    1.750    5.000 
#   24.750    0.000    0.000    0.000    0.000    0.000 
#    0.000    0.000    0.000    0.000    0.000    0.000 
#
# Total GULP energy -89148.490980 kJ/mol
# GULP energy per Si atom -5571.780686 kJ/mol
# Density = 2.238106 g / cm^3
# Si number density = 22.432116 Si / 1000 Ang^3
#
#
#
# Elastic Constant Matrix: (Units=GPa)
#
#
# Indices 1 2 3 4 5 6 
#
# 1 137.3302 19.9178 49.7323 0.0000 0.0000 0.0000
# 2 19.9178 106.4286 49.9117 0.0000 0.0000 0.0000
# 3 49.7323 49.9117 112.2412 0.0000 0.0000 0.0000
# 4 0.0000 0.0000 0.0000 39.6901 0.0000 0.0000
# 5 0.0000 0.0000 0.0000 0.0000 9.5730 0.0000
# 6 0.0000 0.0000 0.0000 0.0000 0.0000 13.2157
#
#
#
# Elastic Compliance Matrix: (Units=1/GPa)
#
#
# Indices 1 2 3 4 5 6 
#
# 1 0.008678 0.000226 -0.003946 0.000000 0.000000 0.000000
# 2 0.000226 0.011878 -0.005382 0.000000 0.000000 0.000000
# 3 -0.003946 -0.005382 0.013051 0.000000 0.000000 0.000000
# 4 0.000000 0.000000 0.000000 0.025195 0.000000 0.000000
# 5 0.000000 0.000000 0.000000 0.000000 0.104461 0.000000
# 6 0.000000 0.000000 0.000000 0.000000 0.000000 0.075668
#
#
# Mechanical properties :
#
#
# Convention : Reuss Voigt Hill
#
# Bulk Modulus (GPa) = 64.91973 66.12485 65.52229
# Shear Modulus (GPa) = 19.06453 28.25830 23.66142
#
# Velocity S-wave (km/s) = 2.91843 3.55311 3.25129
# Velocity P-wave (km/s) = 6.35292 6.80989 6.58537
#
# Compressibility (1/GPa) = 0.01540364
#
# Stress axis : x y z
#
# Youngs Moduli (GPa) = 115.23732 84.19189 76.62282
#
# Poissons Ratio (x) = -0.01906 0.30233
# Poissons Ratio (y) = -0.02608 0.41239
# Poissons Ratio (z) = 0.45468 0.45313
#
# Static dielectric constant tensor:
#      x y z
#    x 1.797660 0.000000 0.000000 
#    y 0.000000 2.176370 0.000000 
#    z 0.000000 0.000000 1.863970 
# 
# From -- ./inp_files/5178.got.cif
#   From: 2010.05.17/outbox.cif.g08.bks.cpg/sg20_3_cif.got.tgz:5178.got - 2010.06.03 22:52:26.
