data_PCOD9320898
_publ_section_title
;
Structure prediction by ZEFSAII (Michael W. Deem and Ramdas Pophale) SiO2 
 PCOD9320898
Probable space group: C 2 2 21
;
_chemical_formula_sum "Si O2"
_cell_formula_units_Z 60
_cell_length_a 5.184081
_cell_length_b 27.127572
_cell_length_c 17.529253
_cell_angle_alpha 90.000000
_cell_angle_beta 90.000000
_cell_angle_gamma 90.000000
_cell_volume 2465.165679
_symmetry_space_group_name_H-M "C 2 2 21"
_symmetry_group_IT_number 20
_symmetry_cell_setting 'orthorhombic'
loop_
_space_group_symop_operation_xyz
x,y,z
-x,-y,1/2+z
x,-y,-z
-x,y,1/2-z
1/2+x,1/2+y,z
1/2-x,1/2-y,1/2+z
1/2+x,1/2-y,-z
1/2-x,1/2+y,1/2-z
loop_
_atom_site_type_symbol
_atom_site_label
_atom_site_fract_x
_atom_site_fract_y
_atom_site_fract_z
Si Si1 0.978209 0.682137 0.443767
Si Si2 0.915626 0.340734 0.117065
Si Si3 0.411555 0.403878 0.129780
Si Si4 0.927749 0.951052 0.529016
Si Si5 0.496144 0.728159 0.113452
Si Si6 0.693005 0.488376 0.679229
Si Si7 0.911607 0.404597 0.844833
Si Si8 0.500000 0.654273 0.250000
O O1 0.075008 0.662130 0.524686
O O2 0.712382 0.712539 0.451048
O O3 0.919062 0.637273 0.385460
O O4 0.209661 0.715882 0.410185
O O5 0.180699 0.366257 0.139584
O O6 0.929888 0.283430 0.138877
O O7 0.678099 0.374526 0.145327
O O8 0.324918 0.452395 0.176981
O O9 0.446551 0.422844 0.041834
O O10 0.109906 0.974422 0.593037
O O11 0.768281 0.915876 0.582847
O O12 0.775633 0.000000 0.500000
O O13 0.442446 0.691588 0.182460
O O14 0.500000 0.474817 0.750000
O O15 0.953103 0.455787 0.678091
O O16 0.263064 0.379566 0.720847
#
# Coordination Sequence:
#
# PCOD9320898 Si02
#       8
#     8   8   8   8   8   8   8   4
#     4  11  23  41  73 108 144 183 243 309 376 450
#     4  12  23  46  76 103 144 198 244 312 380 432
#     4  11  26  48  74 111 146 196 261 307 374 454
#     4  10  24  44  70 110 146 193 245 312 368 450
#     4  11  25  45  68 108 148 187 247 307 373 450
#     4  11  28  48  72 110 153 198 252 307 378 463
#     4  11  25  46  75 104 154 198 242 309 388 453
#     4  10  28  48  68 116 144 200 246 312 374 462
#
# _framework density 24.339136
#
# number of rings (size 3 to 8) (size 9 to 14) (size 15 to 20)
#    0.000    1.067    1.333    3.200   10.267    4.267 
#    2.400    0.000    0.000    0.000    0.000    0.000 
#    0.000    0.000    0.000    0.000    0.000    0.000 
#
# Total GULP energy -167547.136022 kJ/mol
# GULP energy per Si atom -5584.904534 kJ/mol
# Density = 2.428374 g / cm^3
# Si number density = 24.339136 Si / 1000 Ang^3
#
#
#
# Elastic Constant Matrix: (Units=GPa)
#
#
# Indices 1 2 3 4 5 6 
#
# 1 106.3296 60.2029 12.5493 0.0000 0.0000 0.0000
# 2 60.2029 115.2114 21.4964 0.0000 0.0000 0.0000
# 3 12.5493 21.4964 65.0794 0.0000 0.0000 0.0000
# 4 0.0000 0.0000 0.0000 55.0739 0.0000 0.0000
# 5 0.0000 0.0000 0.0000 0.0000 4.6720 0.0000
# 6 0.0000 0.0000 0.0000 0.0000 0.0000 19.4005
#
#
#
# Elastic Compliance Matrix: (Units=1/GPa)
#
#
# Indices 1 2 3 4 5 6 
#
# 1 0.013361 -0.006928 -0.000288 0.000000 0.000000 0.000000
# 2 -0.006928 0.012842 -0.002906 0.000000 0.000000 0.000000
# 3 -0.000288 -0.002906 0.016381 0.000000 0.000000 0.000000
# 4 0.000000 0.000000 0.000000 0.018157 0.000000 0.000000
# 5 0.000000 0.000000 0.000000 0.000000 0.214041 0.000000
# 6 0.000000 0.000000 0.000000 0.000000 0.000000 0.051545
#
#
# Mechanical properties :
#
#
# Convention : Reuss Voigt Hill
#
# Bulk Modulus (GPa) = 44.76173 52.79085 48.77629
# Shear Modulus (GPa) = 14.12354 28.65408 21.38881
#
# Velocity S-wave (km/s) = 2.41152 3.43488 2.96764
# Velocity P-wave (km/s) = 5.11709 6.12111 5.64148
#
# Compressibility (1/GPa) = 0.02234051
#
# Stress axis : x y z
#
# Youngs Moduli (GPa) = 74.84263 77.86861 61.04539
#
# Poissons Ratio (x) = 0.53948 0.01758
# Poissons Ratio (y) = 0.51852 0.17739
# Poissons Ratio (z) = 0.02156 0.22628
#
# Static dielectric constant tensor:
#      x y z
#    x 2.051260 0.000000 0.000000 
#    y 0.000000 2.056420 0.000000 
#    z 0.000000 0.000000 2.033960 
# 
# From -- ./inp_files/22936.got.cif
#   From: 2010.05.17/outbox.cif.g08.bks.cpg/sg20_12_cif.got.tgz:22936.got - 2010.06.03 22:52:26.
