data_PCOD9320443
_publ_section_title
;
Structure prediction by ZEFSAII (Michael W. Deem and Ramdas Pophale) SiO2 
 PCOD9320443
Probable space group: C 2 2 21
;
_chemical_formula_sum "Si O2"
_cell_formula_units_Z 64
_cell_length_a 13.032268
_cell_length_b 17.283420
_cell_length_c 14.175870
_cell_angle_alpha 90.000000
_cell_angle_beta 90.000000
_cell_angle_gamma 90.000000
_cell_volume 3193.003598
_symmetry_space_group_name_H-M "C 2 2 21"
_symmetry_group_IT_number 20
_symmetry_cell_setting 'orthorhombic'
loop_
_space_group_symop_operation_xyz
x,y,z
-x,-y,1/2+z
x,-y,-z
-x,y,1/2-z
1/2+x,1/2+y,z
1/2-x,1/2-y,1/2+z
1/2+x,1/2-y,-z
1/2-x,1/2+y,1/2-z
loop_
_atom_site_type_symbol
_atom_site_label
_atom_site_fract_x
_atom_site_fract_y
_atom_site_fract_z
Si Si1 0.882404 0.067487 0.768373
Si Si2 0.750991 0.681753 0.611762
Si Si3 0.715376 0.855062 0.597051
Si Si4 0.289422 0.089928 0.895091
Si Si5 0.960404 0.459470 0.855345
Si Si6 0.890936 0.276105 0.210293
Si Si7 0.669987 0.607725 0.288795
Si Si8 0.327619 0.923841 0.547245
O O1 0.833353 0.120856 0.850549
O O2 0.804251 0.076676 0.678442
O O3 0.000000 0.091002 0.750000
O O4 0.881699 0.976251 0.793966
O O5 0.712077 0.764163 0.575704
O O6 0.814689 0.706066 0.703675
O O7 0.820847 0.641105 0.532920
O O8 0.744379 0.902133 0.503065
O O9 0.604424 0.881412 0.633916
O O10 0.791182 0.877559 0.682301
O O11 0.347570 0.170082 0.871418
O O12 0.377659 0.025255 0.881773
O O13 0.000000 0.473888 0.750000
O O14 0.060021 0.449520 0.919559
O O15 0.892605 0.185154 0.185508
O O16 0.000000 0.301297 0.250000
O O17 0.765424 0.602872 0.360863
O O18 0.278348 0.000000 0.500000
#
# Coordination Sequence:
#
# PCOD9320443 Si02
#       8
#     8   8   8   8   8   8   8   8
#     4  11  23  45  71  94 133 180 228 279 339 405
#     4  10  25  44  63  99 135 171 224 284 331 411
#     4  11  23  44  64  94 139 172 220 279 336 400
#     4  11  23  43  67  98 138 171 227 286 332 408
#     4  12  24  40  72 104 135 179 220 284 353 404
#     4  10  23  40  66  95 131 176 217 274 341 400
#     4  11  22  43  65  93 135 172 223 278 329 404
#     4  12  23  41  68  99 134 172 220 280 340 401
#
# _framework density 20.043823
#
# number of rings (size 3 to 8) (size 9 to 14) (size 15 to 20)
#    0.000    1.000    3.750    2.625    5.250    0.500 
#    4.500    3.750    0.000    0.000    0.000    0.000 
#    0.000    0.000    0.000    0.000    0.000    0.000 
#
# Total GULP energy -178649.580407 kJ/mol
# GULP energy per Si atom -5582.799388 kJ/mol
# Density = 1.999820 g / cm^3
# Si number density = 20.043823 Si / 1000 Ang^3
#
#
#
# Elastic Constant Matrix: (Units=GPa)
#
#
# Indices 1 2 3 4 5 6 
#
# 1 80.2006 22.0983 12.4076 0.0000 0.0000 0.0000
# 2 22.0983 128.6044 39.8545 0.0000 0.0000 0.0000
# 3 12.4076 39.8545 63.3444 0.0000 0.0000 0.0000
# 4 0.0000 0.0000 0.0000 -43.3049 0.0000 0.0000
# 5 0.0000 0.0000 0.0000 0.0000 25.0039 0.0000
# 6 0.0000 0.0000 0.0000 0.0000 0.0000 19.7836
#
#
#
# Elastic Compliance Matrix: (Units=1/GPa)
#
#
# Indices 1 2 3 4 5 6 
#
# 1 0.013193 -0.001821 -0.001438 0.000000 0.000000 0.000000
# 2 -0.001821 0.009911 -0.005879 0.000000 0.000000 0.000000
# 3 -0.001438 -0.005879 0.019767 0.000000 0.000000 0.000000
# 4 0.000000 0.000000 0.000000 -0.023092 0.000000 0.000000
# 5 0.000000 0.000000 0.000000 0.000000 0.039994 0.000000
# 6 0.000000 0.000000 0.000000 0.000000 0.000000 0.050547
#
#
# Mechanical properties :
#
#
# Convention : Reuss Voigt Hill
#
# Bulk Modulus (GPa) = 40.65989 46.76335 43.71162
# Shear Modulus (GPa) = 36.55131 13.48245 25.01688
#
# Velocity S-wave (km/s) = 4.27496 2.59636 3.53669
# Velocity P-wave (km/s) = 6.68555 5.68940 6.20749
#
# Compressibility (1/GPa) = 0.02459426
#
# Stress axis : x y z
#
# Youngs Moduli (GPa) = 75.79734 100.90259 50.58892
#
# Poissons Ratio (x) = 0.18377 0.07276
# Poissons Ratio (y) = 0.13805 0.29740
# Poissons Ratio (z) = 0.10902 0.59318
#
# Static dielectric constant tensor:
#      x y z
#    x 1.692690 0.000000 0.000000 
#    y 0.000000 1.750740 0.000000 
#    z 0.000000 0.000000 1.713430 
# 
# From -- ./inp_files/20287.got.cif
#   From: 2010.05.17/outbox.cif.g08.bks.cpg/sg20_11_cif.got.tgz:20287.got - 2010.06.03 22:52:26.
