data_PCOD9320249
_publ_section_title
;
Structure prediction by ZEFSAII (Michael W. Deem and Ramdas Pophale) SiO2 
 PCOD9320249
Probable space group: C 2 2 21
;
_chemical_formula_sum "Si O2"
_cell_formula_units_Z 64
_cell_length_a 10.358827
_cell_length_b 11.320117
_cell_length_c 23.011507
_cell_angle_alpha 90.000000
_cell_angle_beta 90.000000
_cell_angle_gamma 90.000000
_cell_volume 2698.401420
_symmetry_space_group_name_H-M "C 2 2 21"
_symmetry_group_IT_number 20
_symmetry_cell_setting 'orthorhombic'
loop_
_space_group_symop_operation_xyz
x,y,z
-x,-y,1/2+z
x,-y,-z
-x,y,1/2-z
1/2+x,1/2+y,z
1/2-x,1/2-y,1/2+z
1/2+x,1/2-y,-z
1/2-x,1/2+y,1/2-z
loop_
_atom_site_type_symbol
_atom_site_label
_atom_site_fract_x
_atom_site_fract_y
_atom_site_fract_z
Si Si1 0.122699 0.877672 0.982593
Si Si2 0.452207 0.083408 0.652188
Si Si3 0.143997 0.056254 0.230889
Si Si4 0.663322 0.555129 0.653090
Si Si5 0.508943 0.657377 0.135519
Si Si6 0.094453 0.450270 0.559717
Si Si7 0.616533 0.838084 0.785892
Si Si8 0.441237 0.277427 0.397942
O O1 0.135066 0.815864 0.044772
O O2 0.042759 0.816342 0.931568
O O3 0.260758 0.911648 0.955632
O O4 0.052880 0.000000 0.000000
O O5 0.303674 0.087992 0.628919
O O6 0.483816 0.217892 0.669052
O O7 0.566514 0.047122 0.608646
O O8 0.434963 0.969188 0.694255
O O9 0.119448 0.067431 0.162046
O O10 0.259904 0.142501 0.246287
O O11 0.000000 0.092171 0.250000
O O12 0.168190 0.946149 0.275376
O O13 0.621261 0.419857 0.639330
O O14 0.551321 0.633475 0.625371
O O15 0.037116 0.500000 0.500000
O O16 0.018670 0.337691 0.582291
O O17 0.500000 0.783340 0.750000
O O18 0.641783 0.759497 0.842285
#
# Coordination Sequence:
#
# PCOD9320249 Si02
#       8
#     8   8   8   8   8   8   8   8
#     4  11  23  44  64 103 134 180 239 288 364 443
#     4  10  23  44  67 101 143 186 235 298 375 440
#     4   9  22  44  65 101 140 183 241 295 367 437
#     4  10  22  44  68 105 141 188 247 298 367 451
#     4  11  22  43  74 101 144 190 240 309 368 442
#     4  10  23  44  66 101 139 180 233 294 366 437
#     4  10  24  43  72 107 141 186 247 301 368 451
#     4  11  23  45  71 104 142 190 239 303 366 451
#
# _framework density 23.717746999999999
#
# number of rings (size 3 to 8) (size 9 to 14) (size 15 to 20)
#    0.000    1.750    1.250    1.500    5.250    3.000 
#   33.750    0.000    0.000    0.000    0.000    0.000 
#    0.000    0.000    0.000    0.000    0.000    0.000 
#
# Total GULP energy -178413.814351 kJ/mol
# GULP energy per Si atom -5575.431698 kJ/mol
# Density = 2.366376 g / cm^3
# Si number density = 23.717747 Si / 1000 Ang^3
#
#
#
# Elastic Constant Matrix: (Units=GPa)
#
#
# Indices 1 2 3 4 5 6 
#
# 1 70.2739 5.5194 5.0670 0.0000 0.0000 0.0000
# 2 5.5194 79.6115 2.2202 0.0000 0.0000 0.0000
# 3 5.0670 2.2202 85.1162 0.0000 0.0000 0.0000
# 4 0.0000 0.0000 0.0000 21.3752 0.0000 0.0000
# 5 0.0000 0.0000 0.0000 0.0000 29.0332 0.0000
# 6 0.0000 0.0000 0.0000 0.0000 0.0000 25.5140
#
#
#
# Elastic Compliance Matrix: (Units=1/GPa)
#
#
# Indices 1 2 3 4 5 6 
#
# 1 0.014366 -0.000973 -0.000830 0.000000 0.000000 0.000000
# 2 -0.000973 0.012636 -0.000272 0.000000 0.000000 0.000000
# 3 -0.000830 -0.000272 0.011805 0.000000 0.000000 0.000000
# 4 0.000000 0.000000 0.000000 0.046783 0.000000 0.000000
# 5 0.000000 0.000000 0.000000 0.000000 0.034443 0.000000
# 6 0.000000 0.000000 0.000000 0.000000 0.000000 0.039194
#
#
# Mechanical properties :
#
#
# Convention : Reuss Voigt Hill
#
# Bulk Modulus (GPa) = 28.85285 28.95722 28.90504
# Shear Modulus (GPa) = 28.58290 29.99748 29.29019
#
# Velocity S-wave (km/s) = 3.47526 3.56022 3.51800
# Velocity P-wave (km/s) = 5.31928 5.39776 5.35866
#
# Compressibility (1/GPa) = 0.03465862
#
# Stress axis : x y z
#
# Youngs Moduli (GPa) = 69.60739 79.13882 84.70895
#
# Poissons Ratio (x) = 0.07699 0.07030
# Poissons Ratio (y) = 0.06772 0.02301
# Poissons Ratio (z) = 0.05776 0.02150
#
# Static dielectric constant tensor:
#      x y z
#    x 1.878250 0.000000 0.000000 
#    y 0.000000 1.950770 0.000000 
#    z 0.000000 0.000000 2.064950 
# 
# From -- ./inp_files/29168.got.cif
#   From: 2010.05.17/outbox.cif.g08.bks.cpg/sg20_15_cif.got.tgz:29168.got - 2010.06.03 22:52:26.
