data_PCOD9320009
_publ_section_title
;
Structure prediction by ZEFSAII (Michael W. Deem and Ramdas Pophale) SiO2 
 PCOD9320009
Probable space group: C 2 2 21
;
_chemical_formula_sum "Si O2"
_cell_formula_units_Z 56
_cell_length_a 26.420129
_cell_length_b 18.673590
_cell_length_c 6.529168
_cell_angle_alpha 90.000000
_cell_angle_beta 90.000000
_cell_angle_gamma 90.000000
_cell_volume 3221.221554
_symmetry_space_group_name_H-M "C 2 2 21"
_symmetry_group_IT_number 20
_symmetry_cell_setting 'orthorhombic'
loop_
_space_group_symop_operation_xyz
x,y,z
-x,-y,1/2+z
x,-y,-z
-x,y,1/2-z
1/2+x,1/2+y,z
1/2-x,1/2-y,1/2+z
1/2+x,1/2-y,-z
1/2-x,1/2+y,1/2-z
loop_
_atom_site_type_symbol
_atom_site_label
_atom_site_fract_x
_atom_site_fract_y
_atom_site_fract_z
Si Si1 0.315648 0.802813 0.218448
Si Si2 0.730261 0.342606 0.899237
Si Si3 0.046783 0.872453 0.869810
Si Si4 0.166765 0.103587 0.736691
Si Si5 0.000000 0.786026 0.250000
Si Si6 0.271350 0.917097 0.505126
Si Si7 0.596417 0.280033 0.507448
Si Si8 0.617380 0.500000 0.000000
O O1 0.290887 0.729808 0.301816
O O2 0.311666 0.862528 0.398960
O O3 0.367597 0.780990 0.104956
O O4 0.276996 0.827534 0.045910
O O5 0.753675 0.394620 0.730636
O O6 0.684300 0.370171 0.038315
O O7 0.072858 0.820427 0.704427
O O8 0.083967 0.932441 0.944592
O O9 0.000000 0.907242 0.750000
O O10 0.025243 0.831497 0.067146
O O11 0.218827 0.094170 0.616443
O O12 0.130250 0.161107 0.622046
O O13 0.145323 0.025406 0.792496
O O14 0.049609 0.752440 0.365042
O O15 0.287282 0.000000 0.500000
#
# Coordination Sequence:
#
# PCOD9320009 Si02
#       8
#     8   8   8   8   4   8   8   4
#     4  11  21  35  61  84 107 159 205 240 294 369
#     4  11  20  38  56  86 114 156 202 240 286 354
#     4  10  24  37  52  75 111 152 201 259 301 351
#     4  11  23  33  55  79 111 157 208 243 290 353
#     4  10  22  42  52  78 114 154 196 274 308 338
#     4  11  24  37  55  83 126 155 193 253 298 346
#     4  11  22  38  57  80 108 154 204 255 307 355
#     4  12  22  34  52  74 108 160 212 240 292 354
#
# _framework density 17.384709000000001
#
# number of rings (size 3 to 8) (size 9 to 14) (size 15 to 20)
#    0.000    1.143    4.286    2.571    3.000    1.714 
#    0.000    0.000    0.000    0.000    0.000    0.000 
#    0.000    0.000  109.286    0.000    0.000    0.000 
#
# Total GULP energy -156036.014562 kJ/mol
# GULP energy per Si atom -5572.714806 kJ/mol
# Density = 1.734514 g / cm^3
# Si number density = 17.384709 Si / 1000 Ang^3
#
#
#
# Elastic Constant Matrix: (Units=GPa)
#
#
# Indices 1 2 3 4 5 6 
#
# 1 87.5231 21.2314 31.6108 0.0000 0.0000 0.0000
# 2 21.2314 54.8020 19.3858 0.0000 0.0000 0.0000
# 3 31.6108 19.3858 95.4718 0.0000 0.0000 0.0000
# 4 0.0000 0.0000 0.0000 23.4776 0.0000 0.0000
# 5 0.0000 0.0000 0.0000 0.0000 18.3678 0.0000
# 6 0.0000 0.0000 0.0000 0.0000 0.0000 10.9160
#
#
#
# Elastic Compliance Matrix: (Units=1/GPa)
#
#
# Indices 1 2 3 4 5 6 
#
# 1 0.013747 -0.004003 -0.003739 0.000000 0.000000 0.000000
# 2 -0.004003 0.020825 -0.002903 0.000000 0.000000 0.000000
# 3 -0.003739 -0.002903 0.012302 0.000000 0.000000 0.000000
# 4 0.000000 0.000000 0.000000 0.042594 0.000000 0.000000
# 5 0.000000 0.000000 0.000000 0.000000 0.054443 0.000000
# 6 0.000000 0.000000 0.000000 0.000000 0.000000 0.091609
#
#
# Mechanical properties :
#
#
# Convention : Reuss Voigt Hill
#
# Bulk Modulus (GPa) = 39.08740 42.47252 40.77996
# Shear Modulus (GPa) = 18.84389 21.59021 20.21705
#
# Velocity S-wave (km/s) = 3.29589 3.52789 3.41386
# Velocity P-wave (km/s) = 6.08411 6.40927 6.24881
#
# Compressibility (1/GPa) = 0.02558369
#
# Stress axis : x y z
#
# Youngs Moduli (GPa) = 72.74310 48.01821 81.28959
#
# Poissons Ratio (x) = 0.19223 0.30392
# Poissons Ratio (y) = 0.29121 0.23600
# Poissons Ratio (z) = 0.27197 0.13940
#
# Static dielectric constant tensor:
#      x y z
#    x 1.641730 0.000000 0.000000 
#    y 0.000000 1.622480 0.000000 
#    z 0.000000 0.000000 1.662460 
# 
# From -- ./inp_files/3806.got.cif
#   From: 2010.05.17/outbox.cif.g08.bks.cpg/sg20_2_cif.got.tgz:3806.got - 2010.06.03 22:52:26.
