data_PCOD9320311
_publ_section_title
;
Structure prediction by ZEFSAII (Michael W. Deem and Ramdas Pophale) SiO2 
 PCOD9320311
Probable space group: C 2 2 21
;
_chemical_formula_sum "Si O2"
_cell_formula_units_Z 44
_cell_length_a 9.305018
_cell_length_b 30.214763
_cell_length_c 7.426020
_cell_angle_alpha 90.000000
_cell_angle_beta 90.000000
_cell_angle_gamma 90.000000
_cell_volume 2087.817455
_symmetry_space_group_name_H-M "C 2 2 21"
_symmetry_group_IT_number 20
_symmetry_cell_setting 'orthorhombic'
loop_
_space_group_symop_operation_xyz
x,y,z
-x,-y,1/2+z
x,-y,-z
-x,y,1/2-z
1/2+x,1/2+y,z
1/2-x,1/2-y,1/2+z
1/2+x,1/2-y,-z
1/2-x,1/2+y,1/2-z
loop_
_atom_site_type_symbol
_atom_site_label
_atom_site_fract_x
_atom_site_fract_y
_atom_site_fract_z
Si Si1 0.693955 0.349240 0.889008
Si Si2 0.000000 0.771473 0.750000
Si Si3 0.681749 0.117371 0.030005
Si Si4 0.518196 0.802725 0.540378
Si Si5 0.440956 0.050782 0.949901
Si Si6 0.853573 0.914218 0.320377
O O1 0.622699 0.304457 0.817859
O O2 0.727455 0.378826 0.713458
O O3 0.844979 0.334789 0.974818
O O4 0.770606 0.439204 0.064807
O O5 0.037955 0.739111 0.585967
O O6 0.546622 0.083984 0.056787
O O7 0.774216 0.102333 0.859920
O O8 0.616785 0.166183 0.992036
O O9 0.500000 0.790329 0.750000
O O10 0.394286 0.625697 0.543391
O O11 0.500000 0.057164 0.750000
O O12 0.463594 0.000000 0.000000
O O13 0.000000 0.936983 0.250000
#
# Coordination Sequence:
#
# PCOD9320311 Si02
#       6
#     8   4   8   8   8   8
#     4  11  24  40  66  91 127 183 217 274 332 383
#     4  12  26  38  58  98 128 172 224 270 328 392
#     4  10  22  45  68  95 128 173 225 272 327 379
#     4  10  23  40  63  89 130 170 220 276 318 373
#     4  10  23  41  73 104 126 167 222 273 324 400
#     4  11  23  42  66  96 137 172 208 265 339 400
#
# _framework density 21.074641
#
# number of rings (size 3 to 8) (size 9 to 14) (size 15 to 20)
#    0.000    1.455    1.818    2.182    8.909    2.182 
#    0.000    3.636    2.000    0.000    0.000    0.000 
#    0.000    0.000    0.000    0.000    0.000    0.000 
#
# Total GULP energy -122826.027967 kJ/mol
# GULP energy per Si atom -5583.001271 kJ/mol
# Density = 2.102667 g / cm^3
# Si number density = 21.074641 Si / 1000 Ang^3
#
#
#
# Elastic Constant Matrix: (Units=GPa)
#
#
# Indices 1 2 3 4 5 6 
#
# 1 61.4639 8.0250 11.2083 0.0000 0.0000 0.0000
# 2 8.0250 77.1078 25.2928 0.0000 0.0000 0.0000
# 3 11.2083 25.2928 74.8460 0.0000 0.0000 0.0000
# 4 0.0000 0.0000 0.0000 35.4856 0.0000 0.0000
# 5 0.0000 0.0000 0.0000 0.0000 28.0845 0.0000
# 6 0.0000 0.0000 0.0000 0.0000 0.0000 28.5512
#
#
#
# Elastic Compliance Matrix: (Units=1/GPa)
#
#
# Indices 1 2 3 4 5 6 
#
# 1 0.016800 -0.001038 -0.002165 0.000000 0.000000 0.000000
# 2 -0.001038 0.014650 -0.004795 0.000000 0.000000 0.000000
# 3 -0.002165 -0.004795 0.015305 0.000000 0.000000 0.000000
# 4 0.000000 0.000000 0.000000 0.028180 0.000000 0.000000
# 5 0.000000 0.000000 0.000000 0.000000 0.035607 0.000000
# 6 0.000000 0.000000 0.000000 0.000000 0.000000 0.035025
#
#
# Mechanical properties :
#
#
# Convention : Reuss Voigt Hill
#
# Bulk Modulus (GPa) = 32.51138 33.60777 33.05957
# Shear Modulus (GPa) = 29.10072 29.68369 29.39221
#
# Velocity S-wave (km/s) = 3.72000 3.75707 3.73858
# Velocity P-wave (km/s) = 5.82335 5.89936 5.86148
#
# Compressibility (1/GPa) = 0.03075846
#
# Stress axis : x y z
#
# Youngs Moduli (GPa) = 59.52353 68.26026 65.33636
#
# Poissons Ratio (x) = 0.07088 0.14145
# Poissons Ratio (y) = 0.06180 0.31330
# Poissons Ratio (z) = 0.12887 0.32732
#
# Static dielectric constant tensor:
#      x y z
#    x 1.836320 0.000000 0.000000 
#    y 0.000000 1.670280 0.000000 
#    z 0.000000 0.000000 1.754590 
# 
# From -- ./inp_files/6384.got.cif
#   From: 2010.05.17/outbox.cif.g08.bks.cpg/sg20_4_cif.got.tgz:6384.got - 2010.06.03 22:52:26.
