data_PCOD9320977
_publ_section_title
;
Structure prediction by ZEFSAII (Michael W. Deem and Ramdas Pophale) SiO2 
 PCOD9320977
Probable space group: C 2 2 21
;
_chemical_formula_sum "Si O2"
_cell_formula_units_Z 48
_cell_length_a 8.437636
_cell_length_b 12.643478
_cell_length_c 17.830504
_cell_angle_alpha 90.000000
_cell_angle_beta 90.000000
_cell_angle_gamma 90.000000
_cell_volume 1902.177159
_symmetry_space_group_name_H-M "C 2 2 21"
_symmetry_group_IT_number 20
_symmetry_cell_setting 'orthorhombic'
loop_
_space_group_symop_operation_xyz
x,y,z
-x,-y,1/2+z
x,-y,-z
-x,y,1/2-z
1/2+x,1/2+y,z
1/2-x,1/2-y,1/2+z
1/2+x,1/2-y,-z
1/2-x,1/2+y,1/2-z
loop_
_atom_site_type_symbol
_atom_site_label
_atom_site_fract_x
_atom_site_fract_y
_atom_site_fract_z
Si Si1 0.858812 0.500000 0.000000
Si Si2 0.306072 0.182597 0.681122
Si Si3 0.328112 0.734812 0.611812
Si Si4 0.996228 0.722616 0.540296
Si Si5 0.000000 0.499418 0.750000
Si Si6 0.500000 0.641615 0.250000
Si Si7 0.797838 0.989243 0.650018
Si Si8 0.000000 0.238499 0.750000
O O1 0.961903 0.599194 0.973797
O O2 0.747601 0.458257 0.933706
O O3 0.353576 0.225948 0.600114
O O4 0.406608 0.077538 0.693080
O O5 0.362312 0.271187 0.741186
O O6 0.124542 0.170585 0.701618
O O7 0.155554 0.769095 0.579763
O O8 0.442080 0.731613 0.539295
O O9 0.304663 0.616644 0.645105
O O10 0.411823 0.797925 0.680289
O O11 0.149332 0.455578 0.702505
O O12 0.544094 0.563564 0.182212
#
# Coordination Sequence:
#
# PCOD9320977 Si02
#       8
#     4   8   8   8   4   4   8   4
#     4  10  24  46  72 106 146 188 238 304 358 438
#     4  11  23  46  73 103 145 191 246 296 363 440
#     4  11  23  42  75 100 144 190 240 294 371 438
#     4  11  24  48  72 106 145 195 240 302 370 440
#     4  11  20  47  75  97 138 188 243 304 359 427
#     4  11  27  44  72 112 146 188 247 309 362 432
#     4  11  24  45  71 107 145 189 240 304 366 430
#     4  12  23  41  77 103 132 198 254 297 359 429
#
# _framework density 25.234241999999998
#
# number of rings (size 3 to 8) (size 9 to 14) (size 15 to 20)
#    0.000    1.000    5.000    2.500    7.000    0.667 
#    3.000    0.000    0.000    2.000    0.000    0.000 
#    0.000    0.000    0.000    0.000    0.000    0.000 
#
# Total GULP energy -134041.105943 kJ/mol
# GULP energy per Si atom -5585.046081 kJ/mol
# Density = 2.517681 g / cm^3
# Si number density = 25.234242 Si / 1000 Ang^3
#
#
#
# Elastic Constant Matrix: (Units=GPa)
#
#
# Indices 1 2 3 4 5 6 
#
# 1 115.5922 28.7219 84.8722 0.0000 0.0000 0.0000
# 2 28.7219 68.4299 11.0610 0.0000 0.0000 0.0000
# 3 84.8722 11.0610 209.6878 0.0000 0.0000 0.0000
# 4 0.0000 0.0000 0.0000 35.2343 0.0000 0.0000
# 5 0.0000 0.0000 0.0000 0.0000 62.9990 0.0000
# 6 0.0000 0.0000 0.0000 0.0000 0.0000 24.5747
#
#
#
# Elastic Compliance Matrix: (Units=1/GPa)
#
#
# Indices 1 2 3 4 5 6 
#
# 1 0.013779 -0.004924 -0.005317 0.000000 0.000000 0.000000
# 2 -0.004924 0.016499 0.001123 0.000000 0.000000 0.000000
# 3 -0.005317 0.001123 0.006862 0.000000 0.000000 0.000000
# 4 0.000000 0.000000 0.000000 0.028381 0.000000 0.000000
# 5 0.000000 0.000000 0.000000 0.000000 0.015873 0.000000
# 6 0.000000 0.000000 0.000000 0.000000 0.000000 0.040692
#
#
# Mechanical properties :
#
#
# Convention : Reuss Voigt Hill
#
# Bulk Modulus (GPa) = 52.90317 71.44668 62.17492
# Shear Modulus (GPa) = 34.10082 42.49858 38.29970
#
# Velocity S-wave (km/s) = 3.68009 4.10831 3.90008
# Velocity P-wave (km/s) = 6.25042 7.13296 6.70622
#
# Compressibility (1/GPa) = 0.01890246
#
# Stress axis : x y z
#
# Youngs Moduli (GPa) = 72.57588 60.61091 145.73091
#
# Poissons Ratio (x) = 0.29844 0.77489
# Poissons Ratio (y) = 0.35735 -0.16360
# Poissons Ratio (z) = 0.38590 -0.06804
#
# Static dielectric constant tensor:
#      x y z
#    x 2.061340 0.000000 0.000000 
#    y 0.000000 2.087920 0.000000 
#    z 0.000000 0.000000 2.028040 
# 
# From -- ./inp_files/23551.got.cif
#   From: 2010.05.17/outbox.cif.g08.bks.cpg/sg20_12_cif.got.tgz:23551.got - 2010.06.03 22:52:26.
