data_PCOD9320529
_publ_section_title
;
Structure prediction by ZEFSAII (Michael W. Deem and Ramdas Pophale) SiO2 
 PCOD9320529
Probable space group: C 2 2 21
;
_chemical_formula_sum "Si O2"
_cell_formula_units_Z 60
_cell_length_a 16.696617
_cell_length_b 5.861711
_cell_length_c 28.039032
_cell_angle_alpha 90.000000
_cell_angle_beta 90.000000
_cell_angle_gamma 90.000000
_cell_volume 2744.200910
_symmetry_space_group_name_H-M "C 2 2 21"
_symmetry_group_IT_number 20
_symmetry_cell_setting 'orthorhombic'
loop_
_space_group_symop_operation_xyz
x,y,z
-x,-y,1/2+z
x,-y,-z
-x,y,1/2-z
1/2+x,1/2+y,z
1/2-x,1/2-y,1/2+z
1/2+x,1/2-y,-z
1/2-x,1/2+y,1/2-z
loop_
_atom_site_type_symbol
_atom_site_label
_atom_site_fract_x
_atom_site_fract_y
_atom_site_fract_z
Si Si1 0.164404 0.000000 0.500000
Si Si2 0.524331 0.169936 0.636842
Si Si3 0.777836 0.160516 0.270771
Si Si4 0.072203 0.937394 0.416220
Si Si5 0.229156 0.127828 0.950032
Si Si6 0.553960 0.509761 0.791376
Si Si7 0.911342 0.295246 0.618754
Si Si8 0.179588 0.366168 0.633922
O O1 0.106063 0.140638 0.533822
O O2 0.217332 0.162032 0.467646
O O3 0.550924 0.299546 0.588896
O O4 0.505864 0.352567 0.677787
O O5 0.438365 0.053648 0.627236
O O6 0.600006 0.010235 0.648703
O O7 0.752556 0.414973 0.251844
O O8 0.873844 0.138245 0.270140
O O9 0.742734 0.148992 0.324154
O O10 0.992119 0.807050 0.403746
O O11 0.141968 0.878563 0.378771
O O12 0.158543 0.231251 0.917275
O O13 0.279022 0.968763 0.913491
O O14 0.205489 0.000000 0.000000
O O15 0.500000 0.621112 0.750000
O O16 0.594716 0.683107 0.828846
#
# Coordination Sequence:
#
# PCOD9320529 Si02
#       8
#     4   8   8   8   8   8   8   8
#     4  12  24  40  70 100 140 188 250 304 372 458
#     4  10  23  44  72  98 142 188 238 304 372 447
#     4  12  30  47  75 113 150 199 252 317 384 463
#     4  10  23  42  67  99 134 186 237 302 368 441
#     4  12  25  45  67 108 145 193 244 313 376 458
#     4  11  25  45  71 106 146 191 249 303 379 450
#     4  10  25  45  69 101 143 194 239 312 372 453
#     4  11  23  46  73 100 148 188 252 307 383 445
#
# _framework density 21.864287999999998
#
# number of rings (size 3 to 8) (size 9 to 14) (size 15 to 20)
#    0.000    1.067    4.000    0.800   10.267    3.733 
#    0.000    0.000    0.000    0.000    0.000    0.000 
#    0.000    0.000    0.000    0.000    0.000    0.000 
#
# Total GULP energy -167351.504811 kJ/mol
# GULP energy per Si atom -5578.383494 kJ/mol
# Density = 2.181452 g / cm^3
# Si number density = 21.864288 Si / 1000 Ang^3
#
#
#
# Elastic Constant Matrix: (Units=GPa)
#
#
# Indices 1 2 3 4 5 6 
#
# 1 76.0852 2.1668 35.1304 0.0000 0.0000 0.0000
# 2 2.1668 60.5957 29.6130 0.0000 0.0000 0.0000
# 3 35.1304 29.6130 108.1670 0.0000 0.0000 0.0000
# 4 0.0000 0.0000 0.0000 20.8524 0.0000 0.0000
# 5 0.0000 0.0000 0.0000 0.0000 47.0079 0.0000
# 6 0.0000 0.0000 0.0000 0.0000 0.0000 31.5622
#
#
#
# Elastic Compliance Matrix: (Units=1/GPa)
#
#
# Indices 1 2 3 4 5 6 
#
# 1 0.015719 0.002231 -0.005716 0.000000 0.000000 0.000000
# 2 0.002231 0.019369 -0.006027 0.000000 0.000000 0.000000
# 3 -0.005716 -0.006027 0.012751 0.000000 0.000000 0.000000
# 4 0.000000 0.000000 0.000000 0.047956 0.000000 0.000000
# 5 0.000000 0.000000 0.000000 0.000000 0.021273 0.000000
# 6 0.000000 0.000000 0.000000 0.000000 0.000000 0.031683
#
#
# Mechanical properties :
#
#
# Convention : Reuss Voigt Hill
#
# Bulk Modulus (GPa) = 34.70414 42.07424 38.38919
# Shear Modulus (GPa) = 28.18803 31.74701 29.96752
#
# Velocity S-wave (km/s) = 3.59448 3.81465 3.70620
# Velocity P-wave (km/s) = 5.75621 6.21990 5.99255
#
# Compressibility (1/GPa) = 0.02881501
#
# Stress axis : x y z
#
# Youngs Moduli (GPa) = 63.61795 51.63016 78.42218
#
# Poissons Ratio (x) = -0.11520 0.44826
# Poissons Ratio (y) = -0.14195 0.47267
# Poissons Ratio (z) = 0.36364 0.31119
#
# Static dielectric constant tensor:
#      x y z
#    x 1.765660 0.000000 0.000000 
#    y 0.000000 1.910090 0.000000 
#    z 0.000000 0.000000 1.829630 
# 
# From -- ./inp_files/30507.got.cif
#   From: 2010.05.17/outbox.cif.g08.bks.cpg/sg20_16_cif.got.tgz:30507.got - 2010.06.03 22:52:26.
