data_PCOD9320019
_publ_section_title
;
Structure prediction by ZEFSAII (Michael W. Deem and Ramdas Pophale) SiO2 
 PCOD9320019
Probable space group: C 2 2 21
;
_chemical_formula_sum "Si O2"
_cell_formula_units_Z 48
_cell_length_a 11.085884
_cell_length_b 22.104065
_cell_length_c 8.855108
_cell_angle_alpha 90.000000
_cell_angle_beta 90.000000
_cell_angle_gamma 90.000000
_cell_volume 2169.883120
_symmetry_space_group_name_H-M "C 2 2 21"
_symmetry_group_IT_number 20
_symmetry_cell_setting 'orthorhombic'
loop_
_space_group_symop_operation_xyz
x,y,z
-x,-y,1/2+z
x,-y,-z
-x,y,1/2-z
1/2+x,1/2+y,z
1/2-x,1/2-y,1/2+z
1/2+x,1/2-y,-z
1/2-x,1/2+y,1/2-z
loop_
_atom_site_type_symbol
_atom_site_label
_atom_site_fract_x
_atom_site_fract_y
_atom_site_fract_z
Si Si1 0.000000 0.302907 0.250000
Si Si2 0.402813 0.295646 0.519977
Si Si3 0.369006 0.976448 0.782759
Si Si4 0.474364 0.594400 0.928533
Si Si5 0.359118 0.853757 0.973949
Si Si6 0.500000 0.232898 0.250000
Si Si7 0.770148 0.000000 0.000000
Si Si8 0.171265 0.000000 0.000000
O O1 0.076825 0.257239 0.141878
O O2 0.084653 0.343691 0.359215
O O3 0.517877 0.341560 0.513938
O O4 0.279863 0.333078 0.536477
O O5 0.404985 0.269633 0.350097
O O6 0.500000 0.003634 0.750000
O O7 0.380401 0.918349 0.892328
O O8 0.313348 0.965586 0.619508
O O9 0.262033 0.013164 0.863134
O O10 0.500000 0.601939 0.750000
O O11 0.356944 0.553012 0.939934
O O12 0.580186 0.555630 0.009572
O O13 0.430702 0.807194 0.869742
#
# Coordination Sequence:
#
# PCOD9320019 Si02
#       8
#     4   8   8   8   8   4   4   4
#     4  10  26  44  66 108 136 184 238 290 352 432
#     4  11  22  40  70 100 136 181 229 291 362 411
#     4  12  25  47  67  97 137 193 231 290 345 423
#     4  11  22  42  70 106 136 180 228 297 367 421
#     4  11  23  45  66  96 138 185 232 292 350 424
#     4  10  22  42  62  94 140 174 232 286 344 426
#     4  11  27  44  72 104 145 177 242 296 348 435
#     4  11  23  44  68  94 145 173 234 290 354 419
#
# _framework density 22.121008
#
# number of rings (size 3 to 8) (size 9 to 14) (size 15 to 20)
#    0.000    1.000    5.000    1.500    2.333    0.000 
#    7.500    0.000    0.000    0.000    0.000    0.000 
#    0.000    0.000    0.000    0.000    0.000    0.000 
#
# Total GULP energy -133884.347926 kJ/mol
# GULP energy per Si atom -5578.514497 kJ/mol
# Density = 2.207066 g / cm^3
# Si number density = 22.121008 Si / 1000 Ang^3
#
#
#
# Elastic Constant Matrix: (Units=GPa)
#
#
# Indices 1 2 3 4 5 6 
#
# 1 91.2767 2.6195 34.4275 0.0000 0.0000 0.0000
# 2 2.6195 60.4219 24.4350 0.0000 0.0000 0.0000
# 3 34.4275 24.4350 111.3394 0.0000 0.0000 0.0000
# 4 0.0000 0.0000 0.0000 32.1449 0.0000 0.0000
# 5 0.0000 0.0000 0.0000 0.0000 40.0022 0.0000
# 6 0.0000 0.0000 0.0000 0.0000 0.0000 17.9880
#
#
#
# Elastic Compliance Matrix: (Units=1/GPa)
#
#
# Indices 1 2 3 4 5 6 
#
# 1 0.012471 0.001118 -0.004101 0.000000 0.000000 0.000000
# 2 0.001118 0.018262 -0.004354 0.000000 0.000000 0.000000
# 3 -0.004101 -0.004354 0.011205 0.000000 0.000000 0.000000
# 4 0.000000 0.000000 0.000000 0.031109 0.000000 0.000000
# 5 0.000000 0.000000 0.000000 0.000000 0.024999 0.000000
# 6 0.000000 0.000000 0.000000 0.000000 0.000000 0.055593
#
#
# Mechanical properties :
#
#
# Convention : Reuss Voigt Hill
#
# Bulk Modulus (GPa) = 36.67825 42.88912 39.78368
# Shear Modulus (GPa) = 28.18476 31.46408 29.82442
#
# Velocity S-wave (km/s) = 3.57335 3.77551 3.67582
# Velocity P-wave (km/s) = 5.80016 6.19972 6.00326
#
# Compressibility (1/GPa) = 0.02726412
#
# Stress axis : x y z
#
# Youngs Moduli (GPa) = 80.18879 54.75711 89.24415
#
# Poissons Ratio (x) = -0.06122 0.36603
# Poissons Ratio (y) = -0.08965 0.38854
# Poissons Ratio (z) = 0.32889 0.23839
#
# Static dielectric constant tensor:
#      x y z
#    x 1.825470 0.000000 0.000000 
#    y 0.000000 1.877970 0.000000 
#    z 0.000000 0.000000 1.830380 
# 
# From -- ./inp_files/7463.got.cif
#   From: 2010.05.17/outbox.cif.g08.bks.cpg/sg20_4_cif.got.tgz:7463.got - 2010.06.03 22:52:26.
