data_PCOD9320434
_publ_section_title
;
Structure prediction by ZEFSAII (Michael W. Deem and Ramdas Pophale) SiO2 
 PCOD9320434
Probable space group: C 2 2 21
;
_chemical_formula_sum "Si O2"
_cell_formula_units_Z 40
_cell_length_a 13.238732
_cell_length_b 5.252828
_cell_length_c 24.009420
_cell_angle_alpha 90.000000
_cell_angle_beta 90.000000
_cell_angle_gamma 90.000000
_cell_volume 1669.633845
_symmetry_space_group_name_H-M "C 2 2 21"
_symmetry_group_IT_number 20
_symmetry_cell_setting 'orthorhombic'
loop_
_space_group_symop_operation_xyz
x,y,z
-x,-y,1/2+z
x,-y,-z
-x,y,1/2-z
1/2+x,1/2+y,z
1/2-x,1/2-y,1/2+z
1/2+x,1/2-y,-z
1/2-x,1/2+y,1/2-z
loop_
_atom_site_type_symbol
_atom_site_label
_atom_site_fract_x
_atom_site_fract_y
_atom_site_fract_z
Si Si1 0.761216 0.948211 0.911985
Si Si2 0.758688 0.051715 0.343342
Si Si3 0.982227 0.890181 0.315718
Si Si4 0.438439 0.500000 0.000000
Si Si5 0.061005 0.607511 0.693073
Si Si6 0.080554 0.500000 0.000000
O O1 0.765221 0.655629 0.891430
O O2 0.859816 0.010765 0.948577
O O3 0.658948 0.979913 0.948444
O O4 0.750449 0.160215 0.863663
O O5 0.869912 0.984141 0.324187
O O6 0.674244 0.986839 0.297328
O O7 0.000000 0.846120 0.250000
O O8 0.007956 0.617427 0.341535
O O9 0.053782 0.118405 0.334999
O O10 0.509920 0.749218 0.002884
O O11 0.000000 0.646650 0.750000
#
# Coordination Sequence:
#
# PCOD9320434 Si02
#       6
#     8   8   8   4   8   4
#     4  11  26  42  65 102 127 166 217 256 325 385
#     4  12  24  41  65  94 133 166 217 275 301 378
#     4  10  23  40  61  89 123 169 218 263 323 369
#     4  11  24  45  70  94 134 169 200 263 328 388
#     4  10  23  40  61  89 123 169 218 263 323 369
#     4  11  24  45  70  94 134 169 200 263 328 388
#
# _framework density 23.957346000000001
#
# number of rings (size 3 to 8) (size 9 to 14) (size 15 to 20)
#    0.000    1.200    0.000    4.800    0.000   19.200 
#    0.000    0.000    0.000    0.000    0.000    0.000 
#    0.000    0.000    0.000    0.000    0.000    0.000 
#
# Total GULP energy -111907.293411 kJ/mol
# GULP energy per Si atom -5595.364671 kJ/mol
# Density = 2.390282 g / cm^3
# Si number density = 23.957346 Si / 1000 Ang^3
#
#
#
# Elastic Constant Matrix: (Units=GPa)
#
#
# Indices 1 2 3 4 5 6 
#
# 1 119.5348 37.6831 10.1000 0.0000 0.0000 0.0000
# 2 37.6831 169.2522 3.2310 0.0000 0.0000 0.0000
# 3 10.1000 3.2310 38.8233 0.0000 0.0000 0.0000
# 4 0.0000 0.0000 0.0000 79.8023 0.0000 0.0000
# 5 0.0000 0.0000 0.0000 0.0000 48.4031 0.0000
# 6 0.0000 0.0000 0.0000 0.0000 0.0000 45.9119
#
#
#
# Elastic Compliance Matrix: (Units=1/GPa)
#
#
# Indices 1 2 3 4 5 6 
#
# 1 0.009185 -0.002003 -0.002223 0.000000 0.000000 0.000000
# 2 -0.002003 0.006354 -0.000008 0.000000 0.000000 0.000000
# 3 -0.002223 -0.000008 0.026337 0.000000 0.000000 0.000000
# 4 0.000000 0.000000 0.000000 0.012531 0.000000 0.000000
# 5 0.000000 0.000000 0.000000 0.000000 0.020660 0.000000
# 6 0.000000 0.000000 0.000000 0.000000 0.000000 0.021781
#
#
# Mechanical properties :
#
#
# Convention : Reuss Voigt Hill
#
# Bulk Modulus (GPa) = 29.93166 47.73760 38.83463
# Shear Modulus (GPa) = 42.93676 53.26322 48.09999
#
# Velocity S-wave (km/s) = 4.23805 4.72025 4.48564
# Velocity P-wave (km/s) = 6.03895 7.04820 6.56300
#
# Compressibility (1/GPa) = 0.03340944
#
# Stress axis : x y z
#
# Youngs Moduli (GPa) = 108.87471 157.37261 37.96994
#
# Poissons Ratio (x) = 0.31514 0.08440
# Poissons Ratio (y) = 0.21802 0.00030
# Poissons Ratio (z) = 0.24201 0.00124
#
# Static dielectric constant tensor:
#      x y z
#    x 1.864160 0.000000 0.000000 
#    y 0.000000 1.988750 0.000000 
#    z 0.000000 0.000000 1.676850 
# 
# From -- ./inp_files/1456.got.cif
#   From: 2010.05.17/outbox.cif.g08.bks.cpg/sg20_1_cif.got.tgz:1456.got - 2010.06.03 22:52:26.
