data_PCOD9320327
_publ_section_title
;
Structure prediction by ZEFSAII (Michael W. Deem and Ramdas Pophale) SiO2 
 PCOD9320327
Probable space group: C 2 2 21
;
_chemical_formula_sum "Si O2"
_cell_formula_units_Z 60
_cell_length_a 19.754109
_cell_length_b 23.760969
_cell_length_c 5.611035
_cell_angle_alpha 90.000000
_cell_angle_beta 90.000000
_cell_angle_gamma 90.000000
_cell_volume 2633.689493
_symmetry_space_group_name_H-M "C 2 2 21"
_symmetry_group_IT_number 20
_symmetry_cell_setting 'orthorhombic'
loop_
_space_group_symop_operation_xyz
x,y,z
-x,-y,1/2+z
x,-y,-z
-x,y,1/2-z
1/2+x,1/2+y,z
1/2-x,1/2-y,1/2+z
1/2+x,1/2-y,-z
1/2-x,1/2+y,1/2-z
loop_
_atom_site_type_symbol
_atom_site_label
_atom_site_fract_x
_atom_site_fract_y
_atom_site_fract_z
Si Si1 0.171594 0.723894 0.446076
Si Si2 0.696540 0.000000 0.500000
Si Si3 0.219404 0.919179 0.313336
Si Si4 0.829764 0.603776 0.309795
Si Si5 0.312397 0.309866 0.420622
Si Si6 0.427912 0.741316 0.336035
Si Si7 0.538435 0.141561 0.003139
Si Si8 0.573246 0.535053 0.746461
O O1 0.167857 0.665740 0.303808
O O2 0.250731 0.731051 0.511343
O O3 0.155014 0.781261 0.309491
O O4 0.117157 0.721818 0.653767
O O5 0.743920 0.027064 0.702889
O O6 0.659521 0.052613 0.375072
O O7 0.258056 0.904237 0.555807
O O8 0.225578 0.866999 0.134341
O O9 0.139488 0.928654 0.304341
O O10 0.891557 0.606579 0.496703
O O11 0.375045 0.307721 0.598460
O O12 0.500000 0.719198 0.250000
O O13 0.447099 0.790922 0.521470
O O14 0.500000 0.126032 0.250000
O O15 0.500000 0.133397 0.750000
O O16 0.568939 0.500000 0.500000
O O17 0.500000 0.564971 0.750000
O O18 0.581775 0.500000 0.000000
#
# Coordination Sequence:
#
# PCOD9320327 Si02
#       8
#     8   4   8   8   8   8   8   8
#     4  12  23  45  70 105 145 192 249 305 376 454
#     4  12  26  44  78 102 148 184 256 314 376 442
#     4  12  26  44  69 107 143 190 249 310 376 440
#     4  12  25  45  76 109 143 195 257 314 382 462
#     4  12  24  40  71 102 146 195 244 306 375 456
#     4  11  25  43  69 107 148 194 247 307 377 456
#     4  11  25  46  77 108 151 201 249 307 383 462
#     4  10  22  45  72 100 139 195 246 298 368 439
#
# _framework density 22.781731000000001
#
# number of rings (size 3 to 8) (size 9 to 14) (size 15 to 20)
#    0.000    0.533    4.667    4.400    1.867    0.000 
#    2.400    0.667    2.933    0.000    0.000    0.000 
#    0.000    0.000    0.000    0.000    0.000    0.000 
#
# Total GULP energy -167333.045017 kJ/mol
# GULP energy per Si atom -5577.768167 kJ/mol
# Density = 2.272988 g / cm^3
# Si number density = 22.781731 Si / 1000 Ang^3
#
#
#
# Elastic Constant Matrix: (Units=GPa)
#
#
# Indices 1 2 3 4 5 6 
#
# 1 107.8159 1.2270 37.3609 0.0000 0.0000 0.0000
# 2 1.2270 50.6140 14.4827 0.0000 0.0000 0.0000
# 3 37.3609 14.4827 89.6271 0.0000 0.0000 0.0000
# 4 0.0000 0.0000 0.0000 28.2535 0.0000 0.0000
# 5 0.0000 0.0000 0.0000 0.0000 46.9973 0.0000
# 6 0.0000 0.0000 0.0000 0.0000 0.0000 16.0395
#
#
#
# Elastic Compliance Matrix: (Units=1/GPa)
#
#
# Indices 1 2 3 4 5 6 
#
# 1 0.010898 0.001086 -0.004718 0.000000 0.000000 0.000000
# 2 0.001086 0.020823 -0.003817 0.000000 0.000000 0.000000
# 3 -0.004718 -0.003817 0.013741 0.000000 0.000000 0.000000
# 4 0.000000 0.000000 0.000000 0.035394 0.000000 0.000000
# 5 0.000000 0.000000 0.000000 0.000000 0.021278 0.000000
# 6 0.000000 0.000000 0.000000 0.000000 0.000000 0.062346
#
#
# Mechanical properties :
#
#
# Convention : Reuss Voigt Hill
#
# Bulk Modulus (GPa) = 32.71982 39.35537 36.03759
# Shear Modulus (GPa) = 26.37595 31.25716 28.81656
#
# Velocity S-wave (km/s) = 3.40629 3.70811 3.56040
# Velocity P-wave (km/s) = 5.46479 5.97042 5.72319
#
# Compressibility (1/GPa) = 0.03056252
#
# Stress axis : x y z
#
# Youngs Moduli (GPa) = 91.76280 48.02298 72.77523
#
# Poissons Ratio (x) = -0.05215 0.34336
# Poissons Ratio (y) = -0.09964 0.27782
# Poissons Ratio (z) = 0.43295 0.18333
#
# Static dielectric constant tensor:
#      x y z
#    x 1.912060 0.000000 0.000000 
#    y 0.000000 1.905260 0.000000 
#    z 0.000000 0.000000 2.053260 
# 
# From -- ./inp_files/3325.got.cif
#   From: 2010.05.17/outbox.cif.g08.bks.cpg/sg20_2_cif.got.tgz:3325.got - 2010.06.03 22:52:26.
