data_PCOD9320816
_publ_section_title
;
Structure prediction by ZEFSAII (Michael W. Deem and Ramdas Pophale) SiO2 
 PCOD9320816
Probable space group: C 2 2 21
;
_chemical_formula_sum "Si O2"
_cell_formula_units_Z 48
_cell_length_a 14.339113
_cell_length_b 25.170271
_cell_length_c 6.826933
_cell_angle_alpha 90.000000
_cell_angle_beta 90.000000
_cell_angle_gamma 90.000000
_cell_volume 2463.972290
_symmetry_space_group_name_H-M "C 2 2 21"
_symmetry_group_IT_number 20
_symmetry_cell_setting 'orthorhombic'
loop_
_space_group_symop_operation_xyz
x,y,z
-x,-y,1/2+z
x,-y,-z
-x,y,1/2-z
1/2+x,1/2+y,z
1/2-x,1/2-y,1/2+z
1/2+x,1/2-y,-z
1/2-x,1/2+y,1/2-z
loop_
_atom_site_type_symbol
_atom_site_label
_atom_site_fract_x
_atom_site_fract_y
_atom_site_fract_z
Si Si1 0.424612 0.940181 0.077227
Si Si2 0.422107 0.448358 0.397779
Si Si3 0.674310 0.306997 0.827199
Si Si4 0.335855 0.802634 0.518855
Si Si5 0.000000 0.361593 0.750000
Si Si6 0.254661 0.378429 0.310836
Si Si7 0.500000 0.377037 0.750000
O O1 0.500000 0.934479 0.250000
O O2 0.323452 0.922492 0.148396
O O3 0.449751 0.899579 0.905040
O O4 0.426408 0.000000 0.000000
O O5 0.376724 0.500000 0.500000
O O6 0.500000 0.468836 0.250000
O O7 0.349930 0.411189 0.280691
O O8 0.472683 0.412904 0.563684
O O9 0.636020 0.252618 0.918861
O O10 0.754871 0.292044 0.675872
O O11 0.591383 0.340078 0.725535
O O12 0.721385 0.342311 0.999322
O O13 0.423751 0.827892 0.630523
O O14 0.288607 0.841995 0.359778
#
# Coordination Sequence:
#
# PCOD9320816 Si02
#       7
#     8   8   8   8   4   8   4
#     4  12  24  43  67  98 134 173 221 273 332 396
#     4  11  22  43  66  96 130 169 213 270 330 387
#     4  11  24  42  66  95 132 170 223 270 327 390
#     4  12  24  43  68  98 131 174 218 272 330 395
#     4  12  26  42  68 102 132 174 222 272 338 396
#     4  11  24  42  67  96 130 173 220 269 325 395
#     4  10  24  42  64  92 130 172 216 270 324 392
#
# _framework density 19.480737000000001
#
# number of rings (size 3 to 8) (size 9 to 14) (size 15 to 20)
#    0.000    0.667    6.667    1.500    0.000    2.667 
#    6.000    0.833    0.000    0.000    0.000    0.000 
#    0.000    0.000    0.000    0.000    0.000    0.000 
#
# Total GULP energy -134079.432826 kJ/mol
# GULP energy per Si atom -5586.643034 kJ/mol
# Density = 1.943640 g / cm^3
# Si number density = 19.480737 Si / 1000 Ang^3
#
#
#
# Elastic Constant Matrix: (Units=GPa)
#
#
# Indices 1 2 3 4 5 6 
#
# 1 94.4901 42.8382 32.9763 0.0000 0.0000 0.0000
# 2 42.8382 105.2546 26.6868 0.0000 0.0000 0.0000
# 3 32.9763 26.6868 56.8905 0.0000 0.0000 0.0000
# 4 0.0000 0.0000 0.0000 41.1078 0.0000 0.0000
# 5 0.0000 0.0000 0.0000 0.0000 35.3238 0.0000
# 6 0.0000 0.0000 0.0000 0.0000 0.0000 33.6671
#
#
#
# Elastic Compliance Matrix: (Units=1/GPa)
#
#
# Indices 1 2 3 4 5 6 
#
# 1 0.014859 -0.004385 -0.006556 0.000000 0.000000 0.000000
# 2 -0.004385 0.012078 -0.003123 0.000000 0.000000 0.000000
# 3 -0.006556 -0.003123 0.022843 0.000000 0.000000 0.000000
# 4 0.000000 0.000000 0.000000 0.024326 0.000000 0.000000
# 5 0.000000 0.000000 0.000000 0.000000 0.028310 0.000000
# 6 0.000000 0.000000 0.000000 0.000000 0.000000 0.029703
#
#
# Mechanical properties :
#
#
# Convention : Reuss Voigt Hill
#
# Bulk Modulus (GPa) = 46.18918 51.29308 48.74113
# Shear Modulus (GPa) = 29.85706 32.29535 31.07621
#
# Velocity S-wave (km/s) = 3.91915 4.07604 3.99836
# Velocity P-wave (km/s) = 6.65141 6.96702 6.81105
#
# Compressibility (1/GPa) = 0.02165009
#
# Stress axis : x y z
#
# Youngs Moduli (GPa) = 67.29803 82.79816 43.77717
#
# Poissons Ratio (x) = 0.36311 0.28700
# Poissons Ratio (y) = 0.29513 0.13674
# Poissons Ratio (z) = 0.44120 0.25862
#
# Static dielectric constant tensor:
#      x y z
#    x 1.662160 0.000000 0.000000 
#    y 0.000000 1.660570 0.000000 
#    z 0.000000 0.000000 1.665700 
# 
# From -- ./inp_files/2070.got.cif
#   From: 2010.05.17/outbox.cif.g08.bks.cpg/sg20_2_cif.got.tgz:2070.got - 2010.06.03 22:52:26.
