data_PCOD9320837
_publ_section_title
;
Structure prediction by ZEFSAII (Michael W. Deem and Ramdas Pophale) SiO2 
 PCOD9320837
Probable space group: C 2 2 21
;
_chemical_formula_sum "Si O2"
_cell_formula_units_Z 36
_cell_length_a 14.775160
_cell_length_b 13.194920
_cell_length_c 8.673740
_cell_angle_alpha 90.000000
_cell_angle_beta 90.000000
_cell_angle_gamma 90.000000
_cell_volume 1691.006799
_symmetry_space_group_name_H-M "C 2 2 21"
_symmetry_group_IT_number 20
_symmetry_cell_setting 'orthorhombic'
loop_
_space_group_symop_operation_xyz
x,y,z
-x,-y,1/2+z
x,-y,-z
-x,y,1/2-z
1/2+x,1/2+y,z
1/2-x,1/2-y,1/2+z
1/2+x,1/2-y,-z
1/2-x,1/2+y,1/2-z
loop_
_atom_site_type_symbol
_atom_site_label
_atom_site_fract_x
_atom_site_fract_y
_atom_site_fract_z
Si Si1 0.648002 0.694774 0.353375
Si Si2 0.905169 0.987360 0.318466
Si Si3 0.984021 0.500000 0.500000
Si Si4 0.173637 0.208237 0.718353
Si Si5 0.000000 0.341341 0.750000
Si Si6 0.500000 0.851955 0.250000
O O1 0.617060 0.589754 0.274678
O O2 0.737043 0.732281 0.265230
O O3 0.666090 0.689342 0.535516
O O4 0.570191 0.778310 0.332032
O O5 0.000000 0.947918 0.250000
O O6 0.917066 0.000000 0.500000
O O7 0.829612 0.902481 0.293608
O O8 0.029096 0.583836 0.389349
O O9 0.944797 0.575739 0.630486
O O10 0.087060 0.271858 0.780369
#
# Coordination Sequence:
#
# PCOD9320837 Si02
#       6
#     8   8   4   8   4   4
#     4  12  27  47  75 107 143 187 242 296 359 431
#     4  12  26  46  76 105 145 192 242 296 366 432
#     4  10  24  42  72 100 138 190 224 294 356 418
#     4  12  27  47  75 107 143 187 242 296 359 431
#     4  11  24  47  72 100 142 183 240 287 356 416
#     4  11  24  47  72 100 142 183 240 287 356 416
#
# _framework density 21.289092
#
# number of rings (size 3 to 8) (size 9 to 14) (size 15 to 20)
#    0.000    0.444    4.444    3.333    6.222    3.556 
#    4.000    0.000    0.000    0.000    0.000    0.000 
#    0.000    0.000    0.000    0.000    0.000    0.000 
#
# Total GULP energy -100458.851497 kJ/mol
# GULP energy per Si atom -5581.047305 kJ/mol
# Density = 2.124064 g / cm^3
# Si number density = 21.289092 Si / 1000 Ang^3
#
#
#
# Elastic Constant Matrix: (Units=GPa)
#
#
# Indices 1 2 3 4 5 6 
#
# 1 64.1804 5.1453 -1.1921 0.0000 0.0000 0.0000
# 2 5.1453 106.6366 13.8386 0.0000 0.0000 0.0000
# 3 -1.1921 13.8386 116.9494 0.0000 0.0000 0.0000
# 4 0.0000 0.0000 0.0000 26.9674 0.0000 0.0000
# 5 0.0000 0.0000 0.0000 0.0000 22.1386 0.0000
# 6 0.0000 0.0000 0.0000 0.0000 0.0000 16.9655
#
#
#
# Elastic Compliance Matrix: (Units=1/GPa)
#
#
# Indices 1 2 3 4 5 6 
#
# 1 0.015649 -0.000788 0.000253 0.000000 0.000000 0.000000
# 2 -0.000788 0.009564 -0.001140 0.000000 0.000000 0.000000
# 3 0.000253 -0.001140 0.008688 0.000000 0.000000 0.000000
# 4 0.000000 0.000000 0.000000 0.037082 0.000000 0.000000
# 5 0.000000 0.000000 0.000000 0.000000 0.045170 0.000000
# 6 0.000000 0.000000 0.000000 0.000000 0.000000 0.058943
#
#
# Mechanical properties :
#
#
# Convention : Reuss Voigt Hill
#
# Bulk Modulus (GPa) = 32.73216 35.92779 34.32998
# Shear Modulus (GPa) = 26.50706 31.21259 28.85983
#
# Velocity S-wave (km/s) = 3.53243 3.83316 3.68586
# Velocity P-wave (km/s) = 5.66090 6.04182 5.85446
#
# Compressibility (1/GPa) = 0.03055099
#
# Stress axis : x y z
#
# Youngs Moduli (GPa) = 63.90209 104.56351 115.09936
#
# Poissons Ratio (x) = 0.08238 -0.02909
# Poissons Ratio (y) = 0.05035 0.13118
# Poissons Ratio (z) = -0.01615 0.11917
#
# Static dielectric constant tensor:
#      x y z
#    x 1.719410 0.000000 0.000000 
#    y 0.000000 1.740540 0.000000 
#    z 0.000000 0.000000 1.801020 
# 
# From -- ./inp_files/8068.got.cif
#   From: 2010.05.17/outbox.cif.g08.bks.cpg/sg20_5_cif.got.tgz:8068.got - 2010.06.03 22:52:26.
