data_PCOD9320371
_publ_section_title
;
Structure prediction by ZEFSAII (Michael W. Deem and Ramdas Pophale) SiO2 
 PCOD9320371
Probable space group: C 2 2 21
;
_chemical_formula_sum "Si O2"
_cell_formula_units_Z 52
_cell_length_a 11.722474
_cell_length_b 14.879951
_cell_length_c 12.216110
_cell_angle_alpha 90.000000
_cell_angle_beta 90.000000
_cell_angle_gamma 90.000000
_cell_volume 2130.854097
_symmetry_space_group_name_H-M "C 2 2 21"
_symmetry_group_IT_number 20
_symmetry_cell_setting 'orthorhombic'
loop_
_space_group_symop_operation_xyz
x,y,z
-x,-y,1/2+z
x,-y,-z
-x,y,1/2-z
1/2+x,1/2+y,z
1/2-x,1/2-y,1/2+z
1/2+x,1/2-y,-z
1/2-x,1/2+y,1/2-z
loop_
_atom_site_type_symbol
_atom_site_label
_atom_site_fract_x
_atom_site_fract_y
_atom_site_fract_z
Si Si1 0.136581 0.600574 0.045448
Si Si2 0.500000 0.080524 0.250000
Si Si3 0.594660 0.577147 0.082017
Si Si4 0.692359 0.175382 0.488476
Si Si5 0.211861 0.291134 0.168207
Si Si6 0.795024 0.543089 0.829493
Si Si7 0.865942 0.166307 0.148978
O O1 0.254896 0.609295 0.113478
O O2 0.039948 0.626242 0.135237
O O3 0.119298 0.500000 0.000000
O O4 0.152678 0.663054 0.937763
O O5 0.604223 0.015352 0.280287
O O6 0.689027 0.524348 0.154292
O O7 0.479226 0.611340 0.132912
O O8 0.556259 0.500000 0.000000
O O9 0.670570 0.651624 0.017622
O O10 0.683694 0.227235 0.371972
O O11 0.659395 0.085598 0.555174
O O12 0.641604 0.251167 0.565241
O O13 0.237356 0.373244 0.250912
O O14 0.140562 0.218136 0.236131
#
# Coordination Sequence:
#
# PCOD9320371 Si02
#       7
#     8   4   8   8   8   8   8
#     4  11  24  48  74 113 152 205 263 326 398 462
#     4  12  26  46  78 106 148 194 266 330 366 468
#     4  10  22  46  78 114 156 205 260 329 392 476
#     4   9  22  43  71 107 147 188 249 310 392 462
#     4  10  22  46  72 112 152 201 252 323 400 469
#     4  10  23  46  74 110 144 199 261 311 390 470
#     4  10  23  46  76 111 155 202 257 323 400 482
#
# _framework density 24.403359999999999
#
# number of rings (size 3 to 8) (size 9 to 14) (size 15 to 20)
#    0.000    1.846    1.538    0.462    2.154    4.923 
#    5.538    3.077    0.000    7.385    0.000    0.000 
#    0.000    0.000    0.000    0.000    0.000    0.000 
#
# Total GULP energy -145012.883562 kJ/mol
# GULP energy per Si atom -5577.418599 kJ/mol
# Density = 2.434782 g / cm^3
# Si number density = 24.403360 Si / 1000 Ang^3
#
#
#
# Elastic Constant Matrix: (Units=GPa)
#
#
# Indices 1 2 3 4 5 6 
#
# 1 146.1789 75.0048 65.4907 0.0000 0.0000 0.0000
# 2 75.0048 138.4548 68.5055 0.0000 0.0000 0.0000
# 3 65.4907 68.5055 156.2555 0.0000 0.0000 0.0000
# 4 0.0000 0.0000 0.0000 59.1727 0.0000 0.0000
# 5 0.0000 0.0000 0.0000 0.0000 29.3310 0.0000
# 6 0.0000 0.0000 0.0000 0.0000 0.0000 -209.5839
#
#
#
# Elastic Compliance Matrix: (Units=1/GPa)
#
#
# Indices 1 2 3 4 5 6 
#
# 1 0.010105 -0.004314 -0.002344 0.000000 0.000000 0.000000
# 2 -0.004314 0.011065 -0.003043 0.000000 0.000000 0.000000
# 3 -0.002344 -0.003043 0.008716 0.000000 0.000000 0.000000
# 4 0.000000 0.000000 0.000000 0.016900 0.000000 0.000000
# 5 0.000000 0.000000 0.000000 0.000000 0.034094 0.000000
# 6 0.000000 0.000000 0.000000 0.000000 0.000000 -0.004771
#
#
# Mechanical properties :
#
#
# Convention : Reuss Voigt Hill
#
# Bulk Modulus (GPa) = 95.38162 95.43235 95.40698
# Shear Modulus (GPa) = 50.50252 -8.75684 20.87284
#
# Velocity S-wave (km/s) = 4.55410 -1.89636 2.92777
# Velocity P-wave (km/s) = 8.17456 5.86483 7.11406
#
# Compressibility (1/GPa) = 0.01048420
#
# Stress axis : x y z
#
# Youngs Moduli (GPa) = 98.96464 90.37140 114.72921
#
# Poissons Ratio (x) = 0.38990 0.26888
# Poissons Ratio (y) = 0.42697 0.34913
# Poissons Ratio (z) = 0.23193 0.27500
#
# Static dielectric constant tensor:
#      x y z
#    x 1.925470 0.000000 0.000000 
#    y 0.000000 1.963640 0.000000 
#    z 0.000000 0.000000 2.261340 
# 
# From -- ./inp_files/16809.got.cif
#   From: 2010.05.17/outbox.cif.g08.bks.cpg/sg20_9_cif.got.tgz:16809.got - 2010.06.03 22:52:26.
