data_PCOD9320894
_publ_section_title
;
Structure prediction by ZEFSAII (Michael W. Deem and Ramdas Pophale) SiO2 
 PCOD9320894
Probable space group: C 2 2 21
;
_chemical_formula_sum "Si O2"
_cell_formula_units_Z 32
_cell_length_a 16.974477
_cell_length_b 8.754506
_cell_length_c 8.890408
_cell_angle_alpha 90.000000
_cell_angle_beta 90.000000
_cell_angle_gamma 90.000000
_cell_volume 1321.142729
_symmetry_space_group_name_H-M "C 2 2 21"
_symmetry_group_IT_number 20
_symmetry_cell_setting 'orthorhombic'
loop_
_space_group_symop_operation_xyz
x,y,z
-x,-y,1/2+z
x,-y,-z
-x,y,1/2-z
1/2+x,1/2+y,z
1/2-x,1/2-y,1/2+z
1/2+x,1/2-y,-z
1/2-x,1/2+y,1/2-z
loop_
_atom_site_type_symbol
_atom_site_label
_atom_site_fract_x
_atom_site_fract_y
_atom_site_fract_z
Si Si1 0.361128 0.683831 0.997592
Si Si2 0.132992 0.500000 0.000000
Si Si3 0.653285 0.500000 0.000000
Si Si4 0.027951 0.249259 0.908491
Si Si5 0.225900 0.754825 0.804648
O O1 0.305708 0.741819 0.134623
O O2 0.367497 0.500000 0.000000
O O3 0.448934 0.751493 0.008469
O O4 0.317471 0.731029 0.843038
O O5 0.072848 0.408266 0.894264
O O6 0.184271 0.618103 0.900817
O O7 0.593634 0.635399 0.965595
O O8 0.705099 0.423187 0.870045
O O9 0.000000 0.187588 0.750000
#
# Coordination Sequence:
#
# PCOD9320894 Si02
#       5
#     8   4   4   8   8
#     4  12  27  47  74 109 149 197 248 299 371 439
#     4  10  26  46  68 110 144 182 240 306 366 426
#     4  10  24  44  70 104 138 192 238 300 360 428
#     4  11  25  44  73 100 143 184 242 296 365 431
#     4  11  27  46  75 106 152 189 247 304 363 445
#
# _framework density 24.221456
#
# number of rings (size 3 to 8) (size 9 to 14) (size 15 to 20)
#    0.000    1.000    2.500    1.500   14.000    3.000 
#    0.000    0.000    0.000    0.000    0.000    0.000 
#    0.000    0.000    0.000    0.000    0.000    0.000 
#
# Total GULP energy -89519.728587 kJ/mol
# GULP energy per Si atom -5594.983037 kJ/mol
# Density = 2.416633 g / cm^3
# Si number density = 24.221456 Si / 1000 Ang^3
#
#
#
# Elastic Constant Matrix: (Units=GPa)
#
#
# Indices 1 2 3 4 5 6 
#
# 1 126.6117 54.3554 23.6858 0.0000 0.0000 0.0000
# 2 54.3554 76.9678 11.4953 0.0000 0.0000 0.0000
# 3 23.6858 11.4953 75.6984 0.0000 0.0000 0.0000
# 4 0.0000 0.0000 0.0000 31.5957 0.0000 0.0000
# 5 0.0000 0.0000 0.0000 0.0000 34.3485 0.0000
# 6 0.0000 0.0000 0.0000 0.0000 0.0000 32.3052
#
#
#
# Elastic Compliance Matrix: (Units=1/GPa)
#
#
# Indices 1 2 3 4 5 6 
#
# 1 0.011772 -0.007943 -0.002477 0.000000 0.000000 0.000000
# 2 -0.007943 0.018654 -0.000347 0.000000 0.000000 0.000000
# 3 -0.002477 -0.000347 0.014038 0.000000 0.000000 0.000000
# 4 0.000000 0.000000 0.000000 0.031650 0.000000 0.000000
# 5 0.000000 0.000000 0.000000 0.000000 0.029113 0.000000
# 6 0.000000 0.000000 0.000000 0.000000 0.000000 0.030955
#
#
# Mechanical properties :
#
#
# Convention : Reuss Voigt Hill
#
# Bulk Modulus (GPa) = 43.61402 50.92788 47.27095
# Shear Modulus (GPa) = 30.23707 32.29931 31.26819
#
# Velocity S-wave (km/s) = 3.53705 3.65567 3.59685
# Velocity P-wave (km/s) = 5.89291 6.23620 6.06698
#
# Compressibility (1/GPa) = 0.02292841
#
# Stress axis : x y z
#
# Youngs Moduli (GPa) = 84.94961 53.60797 71.23459
#
# Poissons Ratio (x) = 0.42582 0.17645
# Poissons Ratio (y) = 0.67478 0.02474
# Poissons Ratio (z) = 0.21043 0.01862
#
# Static dielectric constant tensor:
#      x y z
#    x 1.955120 0.000000 0.000000 
#    y 0.000000 1.949610 0.000000 
#    z 0.000000 0.000000 1.980680 
# 
# From -- ./inp_files/14690.got.cif
#   From: 2010.05.17/outbox.cif.g08.bks.cpg/sg20_8_cif.got.tgz:14690.got - 2010.06.03 22:52:26.
