data_PCOD9320446
_publ_section_title
;
Structure prediction by ZEFSAII (Michael W. Deem and Ramdas Pophale) SiO2 
 PCOD9320446
Probable space group: C 2 2 21
;
_chemical_formula_sum "Si O2"
_cell_formula_units_Z 44
_cell_length_a 8.601638
_cell_length_b 17.228712
_cell_length_c 13.043465
_cell_angle_alpha 90.000000
_cell_angle_beta 90.000000
_cell_angle_gamma 90.000000
_cell_volume 1932.978172
_symmetry_space_group_name_H-M "C 2 2 21"
_symmetry_group_IT_number 20
_symmetry_cell_setting 'orthorhombic'
loop_
_space_group_symop_operation_xyz
x,y,z
-x,-y,1/2+z
x,-y,-z
-x,y,1/2-z
1/2+x,1/2+y,z
1/2-x,1/2-y,1/2+z
1/2+x,1/2-y,-z
1/2-x,1/2+y,1/2-z
loop_
_atom_site_type_symbol
_atom_site_label
_atom_site_fract_x
_atom_site_fract_y
_atom_site_fract_z
Si Si1 0.731222 0.570489 0.080303
Si Si2 0.473165 0.113213 0.512149
Si Si3 0.000000 0.974326 0.750000
Si Si4 0.401253 0.712242 0.545919
Si Si5 0.354000 0.824378 0.195973
Si Si6 0.170161 0.901426 0.381370
O O1 0.919702 0.575414 0.075058
O O2 0.643593 0.564073 0.188614
O O3 0.690174 0.500000 0.000000
O O4 0.675627 0.653165 0.034627
O O5 0.451949 0.205111 0.494836
O O6 0.574897 0.112414 0.616950
O O7 0.300799 0.083086 0.533459
O O8 0.923751 0.025857 0.839755
O O9 0.270686 0.724802 0.633163
O O10 0.549464 0.664770 0.585634
O O11 0.500000 0.782752 0.250000
O O12 0.261435 0.868148 0.283752
#
# Coordination Sequence:
#
# PCOD9320446 Si02
#       6
#     8   8   4   8   8   8
#     4  11  23  46  71 102 142 187 241 297 358 435
#     4  10  23  40  68 101 142 186 231 297 362 426
#     4  12  22  42  78 104 138 192 242 296 364 444
#     4  11  20  41  68 102 141 186 236 292 366 426
#     4   9  18  34  62 101 129 176 234 284 340 434
#     4  11  19  39  72 100 133 187 238 284 363 433
#
# _framework density 22.762803000000002
#
# number of rings (size 3 to 8) (size 9 to 14) (size 15 to 20)
#    0.000    1.455    3.636    3.273    0.000    0.000 
#   11.455    0.000    0.000    0.000    0.000    0.000 
#    0.000    0.000    0.000    0.000    0.000    0.000 
#
# Total GULP energy -122882.544486 kJ/mol
# GULP energy per Si atom -5585.570204 kJ/mol
# Density = 2.271099 g / cm^3
# Si number density = 22.762803 Si / 1000 Ang^3
#
#
#
# Elastic Constant Matrix: (Units=GPa)
#
#
# Indices 1 2 3 4 5 6 
#
# 1 170.4944 32.8191 58.8834 0.0000 0.0000 0.0000
# 2 32.8191 91.6477 40.7071 0.0000 0.0000 0.0000
# 3 58.8834 40.7071 61.8423 0.0000 0.0000 0.0000
# 4 0.0000 0.0000 0.0000 7.1369 0.0000 0.0000
# 5 0.0000 0.0000 0.0000 0.0000 58.9772 0.0000
# 6 0.0000 0.0000 0.0000 0.0000 0.0000 3.0341
#
#
#
# Elastic Compliance Matrix: (Units=1/GPa)
#
#
# Indices 1 2 3 4 5 6 
#
# 1 0.008781 0.000804 -0.008890 0.000000 0.000000 0.000000
# 2 0.000804 0.015493 -0.010964 0.000000 0.000000 0.000000
# 3 -0.008890 -0.010964 0.031852 0.000000 0.000000 0.000000
# 4 0.000000 0.000000 0.000000 0.140117 0.000000 0.000000
# 5 0.000000 0.000000 0.000000 0.000000 0.016956 0.000000
# 6 0.000000 0.000000 0.000000 0.000000 0.000000 0.329582
#
#
# Mechanical properties :
#
#
# Convention : Reuss Voigt Hill
#
# Bulk Modulus (GPa) = 55.47491 65.42264 60.44877
# Shear Modulus (GPa) = 8.51950 26.60130 17.56040
#
# Velocity S-wave (km/s) = 1.93671 3.42223 2.78052
# Velocity P-wave (km/s) = 5.42447 6.66476 6.07634
#
# Compressibility (1/GPa) = 0.01802617
#
# Stress axis : x y z
#
# Youngs Moduli (GPa) = 113.88416 64.54431 31.39526
#
# Poissons Ratio (x) = -0.05191 0.27911
# Poissons Ratio (y) = -0.09160 0.34422
# Poissons Ratio (z) = 1.01245 0.70767
#
# Static dielectric constant tensor:
#      x y z
#    x 1.928490 0.000000 0.000000 
#    y 0.000000 1.831350 0.000000 
#    z 0.000000 0.000000 1.892460 
# 
# From -- ./inp_files/18802.got.cif
#   From: 2010.05.17/outbox.cif.g08.bks.cpg/sg20_10_cif.got.tgz:18802.got - 2010.06.03 22:52:26.
