data_PCOD9320917
_publ_section_title
;
Structure prediction by ZEFSAII (Michael W. Deem and Ramdas Pophale) SiO2 
 PCOD9320917
Probable space group: C 2 2 21
;
_chemical_formula_sum "Si O2"
_cell_formula_units_Z 40
_cell_length_a 15.970932
_cell_length_b 5.318582
_cell_length_c 18.620656
_cell_angle_alpha 90.000000
_cell_angle_beta 90.000000
_cell_angle_gamma 90.000000
_cell_volume 1581.689010
_symmetry_space_group_name_H-M "C 2 2 21"
_symmetry_group_IT_number 20
_symmetry_cell_setting 'orthorhombic'
loop_
_space_group_symop_operation_xyz
x,y,z
-x,-y,1/2+z
x,-y,-z
-x,y,1/2-z
1/2+x,1/2+y,z
1/2-x,1/2-y,1/2+z
1/2+x,1/2-y,-z
1/2-x,1/2+y,1/2-z
loop_
_atom_site_type_symbol
_atom_site_label
_atom_site_fract_x
_atom_site_fract_y
_atom_site_fract_z
Si Si1 0.370942 0.255735 0.038787
Si Si2 0.829158 0.752647 0.537663
Si Si3 0.092321 0.542627 0.660812
Si Si4 0.097578 0.550211 0.832451
Si Si5 0.243776 0.236642 0.799573
O O1 0.270941 0.256197 0.031639
O O2 0.390955 0.225278 0.123107
O O3 0.405978 0.500000 0.000000
O O4 0.401127 0.000000 0.000000
O O5 0.862954 0.500000 0.500000
O O6 0.850085 0.745533 0.621390
O O7 0.861977 0.000000 0.500000
O O8 0.091321 0.567905 0.746697
O O9 0.178216 0.697325 0.645333
O O10 0.996561 0.586780 0.639485
O O11 0.156250 0.301226 0.838831
O O12 0.261374 0.486955 0.750559
#
# Coordination Sequence:
#
# PCOD9320917 Si02
#       5
#     8   8   8   8   8
#     4  10  24  45  73 102 144 199 247 302 379 461
#     4  10  24  45  73 102 144 199 247 302 379 461
#     4  10  24  46  77 117 151 196 262 324 385 467
#     4  10  24  46  77 117 151 196 262 324 385 467
#     4  10  24  44  76 110 158 204 246 322 402 450
#
# _framework density 25.289421999999998
#
# number of rings (size 3 to 8) (size 9 to 14) (size 15 to 20)
#    0.000    2.000    0.000    0.000   19.600    0.800 
#    0.000   32.000    0.000    0.000    0.000    0.000 
#    0.000    0.000    0.000    0.000    0.000    0.000 
#
# Total GULP energy -111604.766119 kJ/mol
# GULP energy per Si atom -5580.238306 kJ/mol
# Density = 2.523186 g / cm^3
# Si number density = 25.289422 Si / 1000 Ang^3
#
#
#
# Elastic Constant Matrix: (Units=GPa)
#
#
# Indices 1 2 3 4 5 6 
#
# 1 71.4497 -15.6287 3.1397 0.0000 0.0000 0.0000
# 2 -15.6287 151.6133 67.5180 0.0000 0.0000 0.0000
# 3 3.1397 67.5180 130.9107 0.0000 0.0000 0.0000
# 4 0.0000 0.0000 0.0000 56.4514 0.0000 0.0000
# 5 0.0000 0.0000 0.0000 0.0000 10.4010 0.0000
# 6 0.0000 0.0000 0.0000 0.0000 0.0000 8.4527
#
#
#
# Elastic Compliance Matrix: (Units=1/GPa)
#
#
# Indices 1 2 3 4 5 6 
#
# 1 0.014529 0.002146 -0.001455 0.000000 0.000000 0.000000
# 2 0.002146 0.008879 -0.004631 0.000000 0.000000 0.000000
# 3 -0.001455 -0.004631 0.010062 0.000000 0.000000 0.000000
# 4 0.000000 0.000000 0.000000 0.017714 0.000000 0.000000
# 5 0.000000 0.000000 0.000000 0.000000 0.096145 0.000000
# 6 0.000000 0.000000 0.000000 0.000000 0.000000 0.118305
#
#
# Mechanical properties :
#
#
# Convention : Reuss Voigt Hill
#
# Bulk Modulus (GPa) = 39.07816 51.55908 45.31862
# Shear Modulus (GPa) = 17.72761 34.99065 26.35913
#
# Velocity S-wave (km/s) = 2.65049 3.72372 3.23197
# Velocity P-wave (km/s) = 4.98525 6.23859 5.64680
#
# Compressibility (1/GPa) = 0.02558974
#
# Stress axis : x y z
#
# Youngs Moduli (GPa) = 68.82716 112.62240 99.38231
#
# Poissons Ratio (x) = -0.24166 0.14461
# Poissons Ratio (y) = -0.14768 0.46024
# Poissons Ratio (z) = 0.10015 0.52155
#
# Static dielectric constant tensor:
#      x y z
#    x 2.035870 0.000000 0.000000 
#    y 0.000000 2.025080 0.000000 
#    z 0.000000 0.000000 2.163840 
# 
# From -- ./inp_files/25089.got.cif
#   From: 2010.05.17/outbox.cif.g08.bks.cpg/sg20_13_cif.got.tgz:25089.got - 2010.06.03 22:52:26.
