data_PCOD9320120
_publ_section_title
;
Structure prediction by ZEFSAII (Michael W. Deem and Ramdas Pophale) SiO2 
 PCOD9320120
Probable space group: C 2 2 21
;
_chemical_formula_sum "Si O2"
_cell_formula_units_Z 48
_cell_length_a 13.519834
_cell_length_b 12.305508
_cell_length_c 12.022996
_cell_angle_alpha 90.000000
_cell_angle_beta 90.000000
_cell_angle_gamma 90.000000
_cell_volume 2000.246914
_symmetry_space_group_name_H-M "C 2 2 21"
_symmetry_group_IT_number 20
_symmetry_cell_setting 'orthorhombic'
loop_
_space_group_symop_operation_xyz
x,y,z
-x,-y,1/2+z
x,-y,-z
-x,y,1/2-z
1/2+x,1/2+y,z
1/2-x,1/2-y,1/2+z
1/2+x,1/2-y,-z
1/2-x,1/2+y,1/2-z
loop_
_atom_site_type_symbol
_atom_site_label
_atom_site_fract_x
_atom_site_fract_y
_atom_site_fract_z
Si Si1 0.109453 0.604545 0.652788
Si Si2 0.807440 0.983032 0.253895
Si Si3 0.372516 0.254972 0.220703
Si Si4 0.972435 0.780654 0.001312
Si Si5 0.500000 0.073322 0.250000
Si Si6 0.849775 0.000000 0.000000
Si Si7 0.351459 0.716625 0.338791
O O1 0.210609 0.539174 0.671948
O O2 0.093136 0.684106 0.551029
O O3 0.108086 0.690622 0.755617
O O4 0.027498 0.510935 0.653167
O O5 0.866846 0.871830 0.277520
O O6 0.793165 0.985151 0.118481
O O7 0.859404 0.094771 0.289289
O O8 0.401486 0.142216 0.278324
O O9 0.266135 0.239326 0.160460
O O10 0.459509 0.263305 0.131105
O O11 0.081366 0.777478 0.948515
O O12 0.919178 0.895447 0.979878
#
# Coordination Sequence:
#
# PCOD9320120 Si02
#       7
#     8   8   8   8   4   4   8
#     4  11  22  42  71  96 132 186 226 274 354 419
#     4  10  22  43  71 102 134 186 234 290 351 422
#     4  10  26  44  67 107 140 179 240 290 356 418
#     4  11  23  44  70 102 136 179 234 293 350 422
#     4  12  22  46  64  98 144 182 220 292 344 424
#     4  10  22  42  70  98 144 172 236 302 342 418
#     4  11  21  45  73  98 134 185 233 284 358 417
#
# _framework density 23.997038
#
# number of rings (size 3 to 8) (size 9 to 14) (size 15 to 20)
#    0.000    1.333    5.000    0.000    0.000    3.333 
#   18.000    0.000    0.000    0.000    0.000    0.000 
#    0.000    0.000    0.000    0.000    0.000    0.000 
#
# Total GULP energy -133914.473298 kJ/mol
# GULP energy per Si atom -5579.769721 kJ/mol
# Density = 2.394242 g / cm^3
# Si number density = 23.997038 Si / 1000 Ang^3
#
#
#
# Elastic Constant Matrix: (Units=GPa)
#
#
# Indices 1 2 3 4 5 6 
#
# 1 103.7277 44.9362 23.4795 0.0000 0.0000 0.0000
# 2 44.9362 136.3786 21.4644 0.0000 0.0000 0.0000
# 3 23.4795 21.4644 32.4445 0.0000 0.0000 0.0000
# 4 0.0000 0.0000 0.0000 40.9061 0.0000 0.0000
# 5 0.0000 0.0000 0.0000 0.0000 31.2265 0.0000
# 6 0.0000 0.0000 0.0000 0.0000 0.0000 39.2501
#
#
#
# Elastic Compliance Matrix: (Units=1/GPa)
#
#
# Indices 1 2 3 4 5 6 
#
# 1 0.012553 -0.003021 -0.007086 0.000000 0.000000 0.000000
# 2 -0.003021 0.008912 -0.003710 0.000000 0.000000 0.000000
# 3 -0.007086 -0.003710 0.038404 0.000000 0.000000 0.000000
# 4 0.000000 0.000000 0.000000 0.024446 0.000000 0.000000
# 5 0.000000 0.000000 0.000000 0.000000 0.032024 0.000000
# 6 0.000000 0.000000 0.000000 0.000000 0.000000 0.025478
#
#
# Mechanical properties :
#
#
# Convention : Reuss Voigt Hill
#
# Bulk Modulus (GPa) = 31.02122 50.25676 40.63899
# Shear Modulus (GPa) = 27.74765 34.45458 31.10111
#
# Velocity S-wave (km/s) = 3.40412 3.79329 3.60396
# Velocity P-wave (km/s) = 5.32972 6.33827 5.85575
#
# Compressibility (1/GPa) = 0.03223600
#
# Stress axis : x y z
#
# Youngs Moduli (GPa) = 79.66013 112.21104 26.03899
#
# Poissons Ratio (x) = 0.33899 0.18451
# Poissons Ratio (y) = 0.24065 0.09659
# Poissons Ratio (z) = 0.56447 0.41625
#
# Static dielectric constant tensor:
#      x y z
#    x 2.038510 0.000000 0.000000 
#    y 0.000000 2.005380 0.000000 
#    z 0.000000 0.000000 1.981060 
# 
# From -- ./inp_files/20693.got.cif
#   From: 2010.05.17/outbox.cif.g08.bks.cpg/sg20_11_cif.got.tgz:20693.got - 2010.06.03 22:52:26.
