data_PCOD9320468
_publ_section_title
;
Structure prediction by ZEFSAII (Michael W. Deem and Ramdas Pophale) SiO2 
 PCOD9320468
Probable space group: C 2 2 21
;
_chemical_formula_sum "Si O2"
_cell_formula_units_Z 32
_cell_length_a 12.912563
_cell_length_b 12.640624
_cell_length_c 7.991286
_cell_angle_alpha 90.000000
_cell_angle_beta 90.000000
_cell_angle_gamma 90.000000
_cell_volume 1304.360506
_symmetry_space_group_name_H-M "C 2 2 21"
_symmetry_group_IT_number 20
_symmetry_cell_setting 'orthorhombic'
loop_
_space_group_symop_operation_xyz
x,y,z
-x,-y,1/2+z
x,-y,-z
-x,y,1/2-z
1/2+x,1/2+y,z
1/2-x,1/2-y,1/2+z
1/2+x,1/2-y,-z
1/2-x,1/2+y,1/2-z
loop_
_atom_site_type_symbol
_atom_site_label
_atom_site_fract_x
_atom_site_fract_y
_atom_site_fract_z
Si Si1 0.612692 0.312629 0.811406
Si Si2 0.163877 0.964939 0.305825
Si Si3 0.335590 0.756300 0.685693
Si Si4 0.109485 0.490025 0.801516
O O1 0.500000 0.278700 0.750000
O O2 0.614086 0.441129 0.801890
O O3 0.711774 0.276553 0.701711
O O4 0.635541 0.267793 0.994713
O O5 0.126164 0.845642 0.287510
O O6 0.159043 0.000000 0.500000
O O7 0.283377 0.959611 0.242387
O O8 0.383694 0.866563 0.746259
O O9 0.000000 0.535679 0.750000
O O10 0.114089 0.500000 0.000000
#
# Coordination Sequence:
#
# PCOD9320468 Si02
#       4
#     8   8   8   8
#     4  11  25  43  68  98 136 183 232 292 355 422
#     4  10  23  44  64  95 140 179 231 293 346 420
#     4  11  24  44  67  99 138 183 234 292 352 419
#     4  10  23  41  64  94 132 175 226 283 340 407
#
# _framework density 24.533093999999998
#
# number of rings (size 3 to 8) (size 9 to 14) (size 15 to 20)
#    0.000    1.500    0.000    5.250    0.000   17.000 
#    0.000    0.000    0.000    0.000    0.000    0.000 
#    0.000    0.000    0.000    0.000    0.000    0.000 
#
# Total GULP energy -89559.998828 kJ/mol
# GULP energy per Si atom -5597.499927 kJ/mol
# Density = 2.447726 g / cm^3
# Si number density = 24.533094 Si / 1000 Ang^3
#
#
#
# Elastic Constant Matrix: (Units=GPa)
#
#
# Indices 1 2 3 4 5 6 
#
# 1 140.5125 -15.0201 9.3881 0.0000 0.0000 0.0000
# 2 -15.0201 159.7633 -12.1712 0.0000 0.0000 0.0000
# 3 9.3881 -12.1712 43.6768 0.0000 0.0000 0.0000
# 4 0.0000 0.0000 0.0000 36.2445 0.0000 0.0000
# 5 0.0000 0.0000 0.0000 0.0000 -12.3331 0.0000
# 6 0.0000 0.0000 0.0000 0.0000 0.0000 -13.8787
#
#
#
# Elastic Compliance Matrix: (Units=1/GPa)
#
#
# Indices 1 2 3 4 5 6 
#
# 1 0.007272 0.000577 -0.001402 0.000000 0.000000 0.000000
# 2 0.000577 0.006441 0.001671 0.000000 0.000000 0.000000
# 3 -0.001402 0.001671 0.023662 0.000000 0.000000 0.000000
# 4 0.000000 0.000000 0.000000 0.027590 0.000000 0.000000
# 5 0.000000 0.000000 0.000000 0.000000 -0.081083 0.000000
# 6 0.000000 0.000000 0.000000 0.000000 0.000000 -0.072053
#
#
# Mechanical properties :
#
#
# Convention : Reuss Voigt Hill
#
# Bulk Modulus (GPa) = 25.59768 34.26071 29.92919
# Shear Modulus (GPa) = -65.07189 26.12357 -19.47416
#
# Velocity S-wave (km/s) = -5.15575 3.26671 -2.82049
# Velocity P-wave (km/s) = 4.99857 5.31262 1.27245
#
# Compressibility (1/GPa) = 0.03906604
#
# Stress axis : x y z
#
# Youngs Moduli (GPa) = 137.51062 155.26070 42.26099
#
# Poissons Ratio (x) = -0.08956 0.05927
# Poissons Ratio (y) = -0.07932 -0.07061
# Poissons Ratio (z) = 0.19284 -0.25941
#
# Static dielectric constant tensor:
#      x y z
#    x 1.998870 0.000000 0.000000 
#    y 0.000000 1.966250 0.000000 
#    z 0.000000 0.000000 1.899340 
# 
# From -- ./inp_files/6889.got.cif
#   From: 2010.05.17/outbox.cif.g08.bks.cpg/sg20_4_cif.got.tgz:6889.got - 2010.06.03 22:52:26.
