data_PCOD9320761
_publ_section_title
;
Structure prediction by ZEFSAII (Michael W. Deem and Ramdas Pophale) SiO2 
 PCOD9320761
Probable space group: C 2 2 21
;
_chemical_formula_sum "Si O2"
_cell_formula_units_Z 52
_cell_length_a 24.945124
_cell_length_b 15.020072
_cell_length_c 8.179071
_cell_angle_alpha 90.000000
_cell_angle_beta 90.000000
_cell_angle_gamma 90.000000
_cell_volume 3064.514353
_symmetry_space_group_name_H-M "C 2 2 21"
_symmetry_group_IT_number 20
_symmetry_cell_setting 'orthorhombic'
loop_
_space_group_symop_operation_xyz
x,y,z
-x,-y,1/2+z
x,-y,-z
-x,y,1/2-z
1/2+x,1/2+y,z
1/2-x,1/2-y,1/2+z
1/2+x,1/2-y,-z
1/2-x,1/2+y,1/2-z
loop_
_atom_site_type_symbol
_atom_site_label
_atom_site_fract_x
_atom_site_fract_y
_atom_site_fract_z
Si Si1 0.922977 0.500000 0.500000
Si Si2 0.408113 0.108647 0.989415
Si Si3 0.696893 0.182371 0.688746
Si Si4 0.812053 0.000000 0.500000
Si Si5 0.262703 0.999794 0.316020
Si Si6 0.858192 0.640010 0.326901
Si Si7 0.000000 0.582329 0.750000
Si Si8 0.692402 0.695804 0.006001
O O1 0.888209 0.586971 0.469834
O O2 0.959203 0.479903 0.346041
O O3 0.358427 0.153459 0.894644
O O4 0.462979 0.129148 0.889058
O O5 0.398462 0.143120 0.173417
O O6 0.403196 0.000000 0.000000
O O7 0.712165 0.097838 0.799228
O O8 0.745816 0.191413 0.559132
O O9 0.692431 0.266449 0.809305
O O10 0.777522 0.991756 0.665951
O O11 0.835771 0.099333 0.509687
O O12 0.240035 0.000000 0.500000
O O13 0.307724 0.075316 0.289480
O O14 0.837200 0.733692 0.389683
#
# Coordination Sequence:
#
# PCOD9320761 Si02
#       8
#     4   8   8   4   8   8   4   8
#     4  12  20  34  55  80 118 154 185 232 286 360
#     4  12  22  36  56  81 117 156 187 235 291 361
#     4  11  21  34  54  79 110 153 198 242 286 350
#     4  10  24  36  49  72 114 150 199 250 294 324
#     4  11  18  32  52  75 105 149 195 242 282 345
#     4  12  20  35  54  80 111 154 201 234 290 352
#     4  12  22  36  52  86 120 158 184 226 296 364
#     4  11  22  35  52  79 111 153 204 247 286 338
#
# _framework density 16.968430999999999
#
# number of rings (size 3 to 8) (size 9 to 14) (size 15 to 20)
#    0.000    0.615    6.154    4.615    1.077    0.000 
#    0.000    0.000    0.000    0.000    0.000    0.000 
#    0.000   24.615    0.000    0.154    0.000    0.000 
#
# Total GULP energy -144987.502419 kJ/mol
# GULP energy per Si atom -5576.442401 kJ/mol
# Density = 1.692981 g / cm^3
# Si number density = 16.968431 Si / 1000 Ang^3
#
#
#
# Elastic Constant Matrix: (Units=GPa)
#
#
# Indices 1 2 3 4 5 6 
#
# 1 66.1382 27.7818 29.8988 0.0000 0.0000 0.0000
# 2 27.7818 112.3348 19.3248 0.0000 0.0000 0.0000
# 3 29.8988 19.3248 94.5627 0.0000 0.0000 0.0000
# 4 0.0000 0.0000 0.0000 31.3857 0.0000 0.0000
# 5 0.0000 0.0000 0.0000 0.0000 28.6625 0.0000
# 6 0.0000 0.0000 0.0000 0.0000 0.0000 19.5010
#
#
#
# Elastic Compliance Matrix: (Units=1/GPa)
#
#
# Indices 1 2 3 4 5 6 
#
# 1 0.019102 -0.003819 -0.005259 0.000000 0.000000 0.000000
# 2 -0.003819 0.009990 -0.000834 0.000000 0.000000 0.000000
# 3 -0.005259 -0.000834 0.012408 0.000000 0.000000 0.000000
# 4 0.000000 0.000000 0.000000 0.031862 0.000000 0.000000
# 5 0.000000 0.000000 0.000000 0.000000 0.034889 0.000000
# 6 0.000000 0.000000 0.000000 0.000000 0.000000 0.051279
#
#
# Mechanical properties :
#
#
# Convention : Reuss Voigt Hill
#
# Bulk Modulus (GPa) = 46.13575 47.44962 46.79269
# Shear Modulus (GPa) = 26.79825 28.97853 27.88839
#
# Velocity S-wave (km/s) = 3.97835 4.13703 4.05846
# Velocity P-wave (km/s) = 6.95351 7.13051 7.04256
#
# Compressibility (1/GPa) = 0.02167516
#
# Stress axis : x y z
#
# Youngs Moduli (GPa) = 52.35157 100.10009 80.59171
#
# Poissons Ratio (x) = 0.38232 0.42383
# Poissons Ratio (y) = 0.19995 0.06721
# Poissons Ratio (z) = 0.27532 0.08348
#
# Static dielectric constant tensor:
#      x y z
#    x 1.578220 0.000000 0.000000 
#    y 0.000000 1.604130 0.000000 
#    z 0.000000 0.000000 1.631610 
# 
# From -- ./inp_files/10742.got.cif
#   From: 2010.05.17/outbox.cif.g08.bks.cpg/sg20_6_cif.got.tgz:10742.got - 2010.06.03 22:52:26.
