data_PCOD9320094
_publ_section_title
;
Structure prediction by ZEFSAII (Michael W. Deem and Ramdas Pophale) SiO2 
 PCOD9320094
Probable space group: C 2 2 21
;
_chemical_formula_sum "Si O2"
_cell_formula_units_Z 32
_cell_length_a 21.912724
_cell_length_b 8.769562
_cell_length_c 8.399909
_cell_angle_alpha 90.000000
_cell_angle_beta 90.000000
_cell_angle_gamma 90.000000
_cell_volume 1614.168443
_symmetry_space_group_name_H-M "C 2 2 21"
_symmetry_group_IT_number 20
_symmetry_cell_setting 'orthorhombic'
loop_
_space_group_symop_operation_xyz
x,y,z
-x,-y,1/2+z
x,-y,-z
-x,y,1/2-z
1/2+x,1/2+y,z
1/2-x,1/2-y,1/2+z
1/2+x,1/2-y,-z
1/2-x,1/2+y,1/2-z
loop_
_atom_site_type_symbol
_atom_site_label
_atom_site_fract_x
_atom_site_fract_y
_atom_site_fract_z
Si Si1 0.831542 0.177450 0.041905
Si Si2 0.795268 0.728977 0.305508
Si Si3 0.570419 0.264063 0.785930
Si Si4 0.645148 0.500000 0.000000
Si Si5 0.379733 0.000000 0.500000
O O1 0.775570 0.195040 0.164830
O O2 0.891142 0.246982 0.123097
O O3 0.811083 0.256519 0.878947
O O4 0.841417 0.000000 0.000000
O O5 0.814316 0.884300 0.396191
O O6 0.835531 0.597943 0.386789
O O7 0.500000 0.291736 0.750000
O O8 0.602222 0.401483 0.883359
O O9 0.580641 0.114435 0.893395
#
# Coordination Sequence:
#
# PCOD9320094 Si02
#       5
#     8   8   8   4   4
#     4  12  25  42  68 102 134 178 221 281 345 402
#     4  11  23  41  69  97 136 165 224 278 347 403
#     4  11  26  44  68  98 136 181 232 274 332 406
#     4  10  22  42  68  96 134 180 218 282 334 404
#     4  10  24  46  64 100 132 178 220 286 340 396
#
# _framework density 19.824449000000001
#
# number of rings (size 3 to 8) (size 9 to 14) (size 15 to 20)
#    0.000    1.000    3.750    3.000    1.750    3.000 
#    0.000    5.000    0.000    0.000    0.000    0.000 
#    0.000    0.000    0.000    0.000    0.000    0.000 
#
# Total GULP energy -89568.305730 kJ/mol
# GULP energy per Si atom -5598.019108 kJ/mol
# Density = 1.977933 g / cm^3
# Si number density = 19.824449 Si / 1000 Ang^3
#
#
#
# Elastic Constant Matrix: (Units=GPa)
#
#
# Indices 1 2 3 4 5 6 
#
# 1 118.8162 12.7795 33.4805 0.0000 0.0000 0.0000
# 2 12.7795 84.8646 17.7633 0.0000 0.0000 0.0000
# 3 33.4805 17.7633 123.0145 0.0000 0.0000 0.0000
# 4 0.0000 0.0000 0.0000 28.9841 0.0000 0.0000
# 5 0.0000 0.0000 0.0000 0.0000 28.1934 0.0000
# 6 0.0000 0.0000 0.0000 0.0000 0.0000 11.0771
#
#
#
# Elastic Compliance Matrix: (Units=1/GPa)
#
#
# Indices 1 2 3 4 5 6 
#
# 1 0.009180 -0.000886 -0.002370 0.000000 0.000000 0.000000
# 2 -0.000886 0.012236 -0.001526 0.000000 0.000000 0.000000
# 3 -0.002370 -0.001526 0.008995 0.000000 0.000000 0.000000
# 4 0.000000 0.000000 0.000000 0.034502 0.000000 0.000000
# 5 0.000000 0.000000 0.000000 0.000000 0.035469 0.000000
# 6 0.000000 0.000000 0.000000 0.000000 0.000000 0.090276
#
#
# Mechanical properties :
#
#
# Convention : Reuss Voigt Hill
#
# Bulk Modulus (GPa) = 47.97125 50.52691 49.24908
# Shear Modulus (GPa) = 24.13468 31.16239 27.64854
#
# Velocity S-wave (km/s) = 3.49294 3.96904 3.73858
# Velocity P-wave (km/s) = 6.36538 6.82253 6.59791
#
# Compressibility (1/GPa) = 0.02084582
#
# Stress axis : x y z
#
# Youngs Moduli (GPa) = 108.93693 81.72417 111.17794
#
# Poissons Ratio (x) = 0.07242 0.26354
# Poissons Ratio (y) = 0.09654 0.16963
# Poissons Ratio (z) = 0.25823 0.12469
#
# Static dielectric constant tensor:
#      x y z
#    x 1.639290 0.000000 0.000000 
#    y 0.000000 1.703010 0.000000 
#    z 0.000000 0.000000 1.710590 
# 
# From -- ./inp_files/5825.got.cif
#   From: 2010.05.17/outbox.cif.g08.bks.cpg/sg20_3_cif.got.tgz:5825.got - 2010.06.03 22:52:26.
