data_PCOD9320466
_publ_section_title
;
Structure prediction by ZEFSAII (Michael W. Deem and Ramdas Pophale) SiO2 
 PCOD9320466
Probable space group: C 2 2 21
;
_chemical_formula_sum "Si O2"
_cell_formula_units_Z 60
_cell_length_a 5.343241
_cell_length_b 17.491573
_cell_length_c 26.446987
_cell_angle_alpha 90.000000
_cell_angle_beta 90.000000
_cell_angle_gamma 90.000000
_cell_volume 2471.780101
_symmetry_space_group_name_H-M "C 2 2 21"
_symmetry_group_IT_number 20
_symmetry_cell_setting 'orthorhombic'
loop_
_space_group_symop_operation_xyz
x,y,z
-x,-y,1/2+z
x,-y,-z
-x,y,1/2-z
1/2+x,1/2+y,z
1/2-x,1/2-y,1/2+z
1/2+x,1/2-y,-z
1/2-x,1/2+y,1/2-z
loop_
_atom_site_type_symbol
_atom_site_label
_atom_site_fract_x
_atom_site_fract_y
_atom_site_fract_z
Si Si1 0.250725 0.571534 0.035427
Si Si2 0.098155 0.969252 0.380904
Si Si3 0.767919 0.340704 0.948649
Si Si4 0.142198 0.802795 0.404176
Si Si5 0.841059 0.302419 0.159162
Si Si6 0.991380 0.455716 0.307428
Si Si7 0.500000 0.699354 0.250000
Si Si8 0.233721 0.598505 0.337510
O O1 0.216545 0.526294 0.088676
O O2 0.493315 0.626186 0.039717
O O3 0.990396 0.613576 0.023741
O O4 0.308712 0.500000 0.000000
O O5 0.224864 0.937428 0.330710
O O6 0.080111 0.892420 0.414563
O O7 0.893501 0.028904 0.362208
O O8 0.812850 0.353087 0.887904
O O9 0.809698 0.250091 0.952875
O O10 0.893612 0.777419 0.374011
O O11 0.397987 0.794053 0.371454
O O12 0.824665 0.393993 0.166977
O O13 0.847713 0.255597 0.211815
O O14 0.000000 0.435738 0.250000
O O15 0.018794 0.546773 0.313091
O O16 0.356445 0.646227 0.291438
#
# Coordination Sequence:
#
# PCOD9320466 Si02
#       8
#     8   8   8   8   8   8   4   8
#     4  11  24  45  71  99 132 165 209 273 340 405
#     4  10  23  41  64  90 128 170 218 262 335 385
#     4  11  23  42  67  98 128 164 217 263 331 390
#     4  11  23  43  67  89 128 172 216 269 325 384
#     4  11  24  41  58  91 129 178 218 267 320 371
#     4  11  21  38  60  90 126 178 220 267 312 386
#     4  12  24  40  58  96 132 182 228 274 314 376
#     4  11  22  40  58  92 125 174 217 275 309 388
#
# _framework density 24.274003
#
# number of rings (size 3 to 8) (size 9 to 14) (size 15 to 20)
#    0.000    1.067    4.667    2.000    1.867    1.600 
#    2.400    1.333    0.000    0.000    0.000    0.000 
#    0.000    0.000    0.000    0.000    0.000    0.000 
#
# Total GULP energy -167269.877390 kJ/mol
# GULP energy per Si atom -5575.662580 kJ/mol
# Density = 2.421875 g / cm^3
# Si number density = 24.274003 Si / 1000 Ang^3
#
#
#
# Elastic Constant Matrix: (Units=GPa)
#
#
# Indices 1 2 3 4 5 6 
#
# 1 108.6261 34.0818 14.1202 0.0000 0.0000 0.0000
# 2 34.0818 126.4362 16.9574 0.0000 0.0000 0.0000
# 3 14.1202 16.9574 35.7750 0.0000 0.0000 0.0000
# 4 0.0000 0.0000 0.0000 -82.8653 0.0000 0.0000
# 5 0.0000 0.0000 0.0000 0.0000 15.6394 0.0000
# 6 0.0000 0.0000 0.0000 0.0000 0.0000 36.8478
#
#
#
# Elastic Compliance Matrix: (Units=1/GPa)
#
#
# Indices 1 2 3 4 5 6 
#
# 1 0.010339 -0.002392 -0.002947 0.000000 0.000000 0.000000
# 2 -0.002392 0.008999 -0.003322 0.000000 0.000000 0.000000
# 3 -0.002947 -0.003322 0.030690 0.000000 0.000000 0.000000
# 4 0.000000 0.000000 0.000000 -0.012068 0.000000 0.000000
# 5 0.000000 0.000000 0.000000 0.000000 0.063941 0.000000
# 6 0.000000 0.000000 0.000000 0.000000 0.000000 0.027139
#
#
# Mechanical properties :
#
#
# Convention : Reuss Voigt Hill
#
# Bulk Modulus (GPa) = 30.57387 44.57289 37.57338
# Shear Modulus (GPa) = 31.79350 7.63624 19.71487
#
# Velocity S-wave (km/s) = 3.62301 1.77558 2.85297
# Velocity P-wave (km/s) = 5.48856 4.75456 5.13469
#
# Compressibility (1/GPa) = 0.03270767
#
# Stress axis : x y z
#
# Youngs Moduli (GPa) = 96.71717 111.11916 32.58364
#
# Poissons Ratio (x) = 0.26577 0.09603
# Poissons Ratio (y) = 0.23133 0.10823
# Poissons Ratio (z) = 0.28504 0.36910
#
# Static dielectric constant tensor:
#      x y z
#    x 1.928920 0.000000 0.000000 
#    y 0.000000 2.118240 0.000000 
#    z 0.000000 0.000000 1.929760 
# 
# From -- ./inp_files/29943.got.cif
#   From: 2010.05.17/outbox.cif.g08.bks.cpg/sg20_15_cif.got.tgz:29943.got - 2010.06.03 22:52:26.
