data_PCOD9320179
_publ_section_title
;
Structure prediction by ZEFSAII (Michael W. Deem and Ramdas Pophale) SiO2 
 PCOD9320179
Probable space group: C 2 2 21
;
_chemical_formula_sum "Si O2"
_cell_formula_units_Z 32
_cell_length_a 14.459927
_cell_length_b 16.273147
_cell_length_c 5.284695
_cell_angle_alpha 90.000000
_cell_angle_beta 90.000000
_cell_angle_gamma 90.000000
_cell_volume 1243.533747
_symmetry_space_group_name_H-M "C 2 2 21"
_symmetry_group_IT_number 20
_symmetry_cell_setting 'orthorhombic'
loop_
_space_group_symop_operation_xyz
x,y,z
-x,-y,1/2+z
x,-y,-z
-x,y,1/2-z
1/2+x,1/2+y,z
1/2-x,1/2-y,1/2+z
1/2+x,1/2-y,-z
1/2-x,1/2+y,1/2-z
loop_
_atom_site_type_symbol
_atom_site_label
_atom_site_fract_x
_atom_site_fract_y
_atom_site_fract_z
Si Si1 0.607169 0.078751 0.176798
Si Si2 0.598206 0.325090 0.672711
Si Si3 0.746309 0.000000 0.500000
Si Si4 0.390114 0.262339 0.328372
Si Si5 0.867515 0.000000 0.000000
O O1 0.500000 0.074147 0.250000
O O2 0.623319 0.169926 0.073290
O O3 0.674103 0.070351 0.416637
O O4 0.625491 0.000000 0.000000
O O5 0.500000 0.284914 0.750000
O O6 0.651988 0.279829 0.448785
O O7 0.579782 0.416314 0.565749
O O8 0.642574 0.323239 0.950583
O O9 0.807591 0.984540 0.252065
O O10 0.500000 0.273577 0.250000
#
# Coordination Sequence:
#
# PCOD9320179 Si02
#       5
#     8   8   4   8   4
#     4  11  23  41  73  99 129 177 226 271 329 400
#     4  10  22  43  68  98 126 169 221 274 327 391
#     4  12  26  42  64 100 138 174 220 276 324 400
#     4   9  21  38  67 101 130 156 218 284 323 376
#     4  12  26  44  68  94 138 178 216 276 340 394
#
# _framework density 25.733118000000001
#
# number of rings (size 3 to 8) (size 9 to 14) (size 15 to 20)
#    0.000    1.500    2.500    1.500    3.500    5.000 
#    0.000    5.000    0.000    0.000    0.000    0.000 
#    0.000    0.000    0.000    0.000    0.000    0.000 
#
# Total GULP energy -89331.555246 kJ/mol
# GULP energy per Si atom -5583.222203 kJ/mol
# Density = 2.567455 g / cm^3
# Si number density = 25.733118 Si / 1000 Ang^3
#
#
#
# Elastic Constant Matrix: (Units=GPa)
#
#
# Indices 1 2 3 4 5 6 
#
# 1 68.3718 -3.8975 23.3675 0.0000 0.0000 0.0000
# 2 -3.8975 149.9543 57.7132 0.0000 0.0000 0.0000
# 3 23.3675 57.7132 215.1872 0.0000 0.0000 0.0000
# 4 0.0000 0.0000 0.0000 47.0063 0.0000 0.0000
# 5 0.0000 0.0000 0.0000 0.0000 31.0568 0.0000
# 6 0.0000 0.0000 0.0000 0.0000 0.0000 7.3232
#
#
#
# Elastic Compliance Matrix: (Units=1/GPa)
#
#
# Indices 1 2 3 4 5 6 
#
# 1 0.015369 0.001162 -0.001981 0.000000 0.000000 0.000000
# 2 0.001162 0.007524 -0.002144 0.000000 0.000000 0.000000
# 3 -0.001981 -0.002144 0.005437 0.000000 0.000000 0.000000
# 4 0.000000 0.000000 0.000000 0.021274 0.000000 0.000000
# 5 0.000000 0.000000 0.000000 0.000000 0.032199 0.000000
# 6 0.000000 0.000000 0.000000 0.000000 0.000000 0.136552
#
#
# Mechanical properties :
#
#
# Convention : Reuss Voigt Hill
#
# Bulk Modulus (GPa) = 44.63389 65.31995 54.97692
# Shear Modulus (GPa) = 21.57507 40.83261 31.20384
#
# Velocity S-wave (km/s) = 2.89868 3.98775 3.48601
# Velocity P-wave (km/s) = 5.34656 6.82947 6.13300
#
# Compressibility (1/GPa) = 0.02240450
#
# Stress axis : x y z
#
# Youngs Moduli (GPa) = 65.06600 132.90625 183.91705
#
# Poissons Ratio (x) = -0.15440 0.36425
# Poissons Ratio (y) = -0.07559 0.39434
# Poissons Ratio (z) = 0.12886 0.28497
#
# Static dielectric constant tensor:
#      x y z
#    x 2.062850 0.000000 0.000000 
#    y 0.000000 2.019920 0.000000 
#    z 0.000000 0.000000 2.236960 
# 
# From -- ./inp_files/2406.got.cif
#   From: 2010.05.17/outbox.cif.g08.bks.cpg/sg20_2_cif.got.tgz:2406.got - 2010.06.03 22:52:26.
