data_PCOD9320814
_publ_section_title
;
Structure prediction by ZEFSAII (Michael W. Deem and Ramdas Pophale) SiO2 
 PCOD9320814
Probable space group: C 2 2 21
;
_chemical_formula_sum "Si O2"
_cell_formula_units_Z 48
_cell_length_a 9.838608
_cell_length_b 27.922275
_cell_length_c 8.189874
_cell_angle_alpha 90.000000
_cell_angle_beta 90.000000
_cell_angle_gamma 90.000000
_cell_volume 2249.892032
_symmetry_space_group_name_H-M "C 2 2 21"
_symmetry_group_IT_number 20
_symmetry_cell_setting 'orthorhombic'
loop_
_space_group_symop_operation_xyz
x,y,z
-x,-y,1/2+z
x,-y,-z
-x,y,1/2-z
1/2+x,1/2+y,z
1/2-x,1/2-y,1/2+z
1/2+x,1/2-y,-z
1/2-x,1/2+y,1/2-z
loop_
_atom_site_type_symbol
_atom_site_label
_atom_site_fract_x
_atom_site_fract_y
_atom_site_fract_z
Si Si1 0.265484 0.383840 0.470899
Si Si2 0.521166 0.554444 0.555644
Si Si3 0.867562 0.299129 0.536015
Si Si4 0.444003 0.046413 0.073113
Si Si5 0.822135 0.283888 0.920285
Si Si6 0.309995 0.094984 0.594818
O O1 0.408570 0.408591 0.508971
O O2 0.153936 0.408304 0.586122
O O3 0.259456 0.327273 0.494674
O O4 0.217356 0.398012 0.287749
O O5 0.502760 0.500000 0.500000
O O6 0.500000 0.554835 0.750000
O O7 0.671886 0.573518 0.520041
O O8 0.837825 0.294833 0.728689
O O9 0.761087 0.264562 0.446390
O O10 0.847176 0.353275 0.477232
O O11 0.024358 0.283470 0.508863
O O12 0.500000 0.035183 0.250000
O O13 0.566953 0.060110 0.952371
O O14 0.369460 0.000000 0.000000
#
# Coordination Sequence:
#
# PCOD9320814 Si02
#       6
#     8   8   8   8   8   8
#     4  11  23  42  66  94 129 168 211 265 321 380
#     4  10  24  42  63  94 129 168 214 261 313 375
#     4  11  25  44  67  97 130 167 214 265 320 387
#     4  12  24  40  63  94 127 166 214 263 317 383
#     4  11  25  44  67  97 130 167 214 265 320 387
#     4  11  23  42  66  94 129 168 211 265 321 380
#
# _framework density 21.334357000000001
#
# number of rings (size 3 to 8) (size 9 to 14) (size 15 to 20)
#    0.000    1.000    1.667    4.500    2.333    7.333 
#    0.000    0.000    0.000    0.000    0.000    0.000 
#    0.000    0.000    0.000    0.000    0.000    0.000 
#
# Total GULP energy -134316.475592 kJ/mol
# GULP energy per Si atom -5596.519816 kJ/mol
# Density = 2.128580 g / cm^3
# Si number density = 21.334357 Si / 1000 Ang^3
#
#
#
# Elastic Constant Matrix: (Units=GPa)
#
#
# Indices 1 2 3 4 5 6 
#
# 1 116.2170 39.9925 -4.7396 0.0000 0.0000 0.0000
# 2 39.9925 99.7121 18.2595 0.0000 0.0000 0.0000
# 3 -4.7396 18.2595 25.5855 0.0000 0.0000 0.0000
# 4 0.0000 0.0000 0.0000 37.3866 0.0000 0.0000
# 5 0.0000 0.0000 0.0000 0.0000 12.4120 0.0000
# 6 0.0000 0.0000 0.0000 0.0000 0.0000 53.6866
#
#
#
# Elastic Compliance Matrix: (Units=1/GPa)
#
#
# Indices 1 2 3 4 5 6 
#
# 1 0.010680 -0.005344 0.005792 0.000000 0.000000 0.000000
# 2 -0.005344 0.014211 -0.011132 0.000000 0.000000 0.000000
# 3 0.005792 -0.011132 0.048102 0.000000 0.000000 0.000000
# 4 0.000000 0.000000 0.000000 0.026748 0.000000 0.000000
# 5 0.000000 0.000000 0.000000 0.000000 0.080567 0.000000
# 6 0.000000 0.000000 0.000000 0.000000 0.000000 0.018627
#
#
# Mechanical properties :
#
#
# Convention : Reuss Voigt Hill
#
# Bulk Modulus (GPa) = 19.37031 38.72662 29.04846
# Shear Modulus (GPa) = 21.05180 33.23052 27.14116
#
# Velocity S-wave (km/s) = 3.14467 3.95093 3.57063
# Velocity P-wave (km/s) = 4.72064 6.24538 5.53576
#
# Compressibility (1/GPa) = 0.05162541
#
# Stress axis : x y z
#
# Youngs Moduli (GPa) = 93.63428 70.36911 20.78919
#
# Poissons Ratio (x) = 0.37606 -0.12042
# Poissons Ratio (y) = 0.50040 0.23142
# Poissons Ratio (z) = -0.54236 0.78333
#
# Static dielectric constant tensor:
#      x y z
#    x 1.761630 0.000000 0.000000 
#    y 0.000000 1.714480 0.000000 
#    z 0.000000 0.000000 1.770620 
# 
# From -- ./inp_files/6499.got.cif
#   From: 2010.05.17/outbox.cif.g08.bks.cpg/sg20_4_cif.got.tgz:6499.got - 2010.06.03 22:52:26.
