data_PCOD9320573
_publ_section_title
;
Structure prediction by ZEFSAII (Michael W. Deem and Ramdas Pophale) SiO2 
 PCOD9320573
Probable space group: C 2 2 21
;
_chemical_formula_sum "Si O2"
_cell_formula_units_Z 36
_cell_length_a 13.504709
_cell_length_b 22.572379
_cell_length_c 5.231806
_cell_angle_alpha 90.000000
_cell_angle_beta 90.000000
_cell_angle_gamma 90.000000
_cell_volume 1594.829263
_symmetry_space_group_name_H-M "C 2 2 21"
_symmetry_group_IT_number 20
_symmetry_cell_setting 'orthorhombic'
loop_
_space_group_symop_operation_xyz
x,y,z
-x,-y,1/2+z
x,-y,-z
-x,y,1/2-z
1/2+x,1/2+y,z
1/2-x,1/2-y,1/2+z
1/2+x,1/2-y,-z
1/2-x,1/2+y,1/2-z
loop_
_atom_site_type_symbol
_atom_site_label
_atom_site_fract_x
_atom_site_fract_y
_atom_site_fract_z
Si Si1 0.377477 0.000000 0.000000
Si Si2 0.000000 0.600725 0.750000
Si Si3 0.741729 0.500000 0.500000
Si Si4 0.129661 0.782525 0.406965
Si Si5 0.560773 0.586413 0.508362
Si Si6 0.634220 0.794097 0.094354
O O1 0.444789 0.057516 0.948367
O O2 0.309319 0.995249 0.749904
O O3 0.078398 0.643429 0.892597
O O4 0.667348 0.555645 0.504968
O O5 0.074515 0.843765 0.450483
O O6 0.246661 0.799068 0.409569
O O7 0.109696 0.739223 0.642582
O O8 0.108007 0.747416 0.145903
O O9 0.500000 0.562372 0.750000
O O10 0.500000 0.576449 0.250000
#
# Coordination Sequence:
#
# PCOD9320573 Si02
#       6
#     4   4   4   8   8   8
#     4  12  29  49  76 108 146 196 254 307 383 446
#     4  12  28  48  76 110 140 192 250 308 358 452
#     4  12  27  51  74 106 154 200 242 317 385 438
#     4  10  23  43  65 103 140 191 231 296 369 431
#     4  12  25  43  75 107 148 191 257 308 368 447
#     4  10  24  43  70  98 144 186 239 292 369 436
#
# _framework density 22.572948
#
# number of rings (size 3 to 8) (size 9 to 14) (size 15 to 20)
#    0.000    0.889    0.000    5.333    4.667   10.667 
#    0.000    0.000    0.000    0.000    0.000    0.000 
#    0.000    0.000    0.000    0.000    0.000    0.000 
#
# Total GULP energy -100927.414429 kJ/mol
# GULP energy per Si atom -5607.078579 kJ/mol
# Density = 2.252157 g / cm^3
# Si number density = 22.572948 Si / 1000 Ang^3
#
#
#
# Elastic Constant Matrix: (Units=GPa)
#
#
# Indices 1 2 3 4 5 6 
#
# 1 146.0185 77.6870 89.0858 0.0000 0.0000 0.0000
# 2 77.6870 180.7261 82.5568 0.0000 0.0000 0.0000
# 3 89.0858 82.5568 224.4452 0.0000 0.0000 0.0000
# 4 0.0000 0.0000 0.0000 36.1506 0.0000 0.0000
# 5 0.0000 0.0000 0.0000 0.0000 48.5002 0.0000
# 6 0.0000 0.0000 0.0000 0.0000 0.0000 -32.3720
#
#
#
# Elastic Compliance Matrix: (Units=1/GPa)
#
#
# Indices 1 2 3 4 5 6 
#
# 1 0.010284 -0.003072 -0.002952 0.000000 0.000000 0.000000
# 2 -0.003072 0.007569 -0.001564 0.000000 0.000000 0.000000
# 3 -0.002952 -0.001564 0.006202 0.000000 0.000000 0.000000
# 4 0.000000 0.000000 0.000000 0.027662 0.000000 0.000000
# 5 0.000000 0.000000 0.000000 0.000000 0.020618 0.000000
# 6 0.000000 0.000000 0.000000 0.000000 0.000000 -0.030891
#
#
# Mechanical properties :
#
#
# Convention : Reuss Voigt Hill
#
# Bulk Modulus (GPa) = 112.63932 116.64989 114.64460
# Shear Modulus (GPa) = 83.91952 30.57976 57.24964
#
# Velocity S-wave (km/s) = 6.10391 3.68463 5.04154
# Velocity P-wave (km/s) = 9.98426 8.36009 9.20805
#
# Compressibility (1/GPa) = 0.00887789
#
# Stress axis : x y z
#
# Youngs Moduli (GPa) = 97.23971 132.12601 161.22543
#
# Poissons Ratio (x) = 0.40592 0.47590
# Poissons Ratio (y) = 0.29874 0.25223
# Poissons Ratio (z) = 0.28703 0.20671
#
# Static dielectric constant tensor:
#      x y z
#    x 1.884630 0.000000 0.000000 
#    y 0.000000 1.806750 0.000000 
#    z 0.000000 0.000000 1.816050 
# 
# From -- ./inp_files/1796.got.cif
#   From: 2010.05.17/outbox.cif.g08.bks.cpg/sg20_1_cif.got.tgz:1796.got - 2010.06.03 22:52:26.
