data_PCOD9320300
_publ_section_title
;
Structure prediction by ZEFSAII (Michael W. Deem and Ramdas Pophale) SiO2 
 PCOD9320300
Probable space group: C 2 2 21
;
_chemical_formula_sum "Si O2"
_cell_formula_units_Z 60
_cell_length_a 12.649388
_cell_length_b 19.580299
_cell_length_c 11.914833
_cell_angle_alpha 90.000000
_cell_angle_beta 90.000000
_cell_angle_gamma 90.000000
_cell_volume 2951.051530
_symmetry_space_group_name_H-M "C 2 2 21"
_symmetry_group_IT_number 20
_symmetry_cell_setting 'orthorhombic'
loop_
_space_group_symop_operation_xyz
x,y,z
-x,-y,1/2+z
x,-y,-z
-x,y,1/2-z
1/2+x,1/2+y,z
1/2-x,1/2-y,1/2+z
1/2+x,1/2-y,-z
1/2-x,1/2+y,1/2-z
loop_
_atom_site_type_symbol
_atom_site_label
_atom_site_fract_x
_atom_site_fract_y
_atom_site_fract_z
Si Si1 0.090424 0.500000 0.500000
Si Si2 0.767068 0.576831 0.825718
Si Si3 0.483815 0.868333 0.883804
Si Si4 0.673971 0.800211 0.015520
Si Si5 0.846363 0.297235 0.055236
Si Si6 0.549943 0.576923 0.953902
Si Si7 0.966015 0.800043 0.626869
Si Si8 0.695736 0.565658 0.581568
O O1 0.168954 0.476081 0.401708
O O2 0.019276 0.558257 0.444175
O O3 0.834680 0.645399 0.849340
O O4 0.648408 0.588567 0.871606
O O5 0.753071 0.552207 0.699537
O O6 0.500000 0.871142 0.750000
O O7 0.579140 0.826687 0.938898
O O8 0.377791 0.833073 0.936266
O O9 0.738233 0.742721 0.951226
O O10 0.625723 0.757657 0.120574
O O11 0.748776 0.864594 0.040100
O O12 0.934582 0.241325 0.078817
O O13 0.430380 0.579468 0.905414
O O14 0.562502 0.500000 0.000000
O O15 0.557708 0.634308 0.050684
O O16 0.000000 0.822536 0.750000
O O17 0.707023 0.500000 0.500000
#
# Coordination Sequence:
#
# PCOD9320300 Si02
#       8
#     4   8   8   8   8   8   8   8
#     4  10  24  44  68  98 130 178 232 270 350 406
#     4  11  22  44  70  91 138 176 223 284 335 412
#     4  10  25  42  69  99 134 178 224 283 337 410
#     4  11  23  44  65  98 137 169 230 276 339 408
#     4  10  22  45  63 100 129 175 228 267 348 405
#     4  11  23  43  62  99 135 175 225 272 342 403
#     4  11  23  42  68  96 134 172 221 284 335 410
#     4  11  26  41  67 101 134 179 226 283 346 407
#
# _framework density 20.331735999999999
#
# number of rings (size 3 to 8) (size 9 to 14) (size 15 to 20)
#    0.000    1.333    3.333    1.200    2.800    4.267 
#    0.000    1.333    0.000    0.000    0.000    0.000 
#    0.000    0.000    0.000    0.000    0.000    0.000 
#
# Total GULP energy -167374.734016 kJ/mol
# GULP energy per Si atom -5579.157801 kJ/mol
# Density = 2.028546 g / cm^3
# Si number density = 20.331736 Si / 1000 Ang^3
#
#
#
# Elastic Constant Matrix: (Units=GPa)
#
#
# Indices 1 2 3 4 5 6 
#
# 1 58.4285 32.7108 4.2143 0.0000 0.0000 0.0000
# 2 32.7108 116.1513 41.9910 0.0000 0.0000 0.0000
# 3 4.2143 41.9910 104.3042 0.0000 0.0000 0.0000
# 4 0.0000 0.0000 0.0000 25.7554 0.0000 0.0000
# 5 0.0000 0.0000 0.0000 0.0000 -21.1752 0.0000
# 6 0.0000 0.0000 0.0000 0.0000 0.0000 47.9591
#
#
#
# Elastic Compliance Matrix: (Units=1/GPa)
#
#
# Indices 1 2 3 4 5 6 
#
# 1 0.020590 -0.006434 0.001758 0.000000 0.000000 0.000000
# 2 -0.006434 0.012087 -0.004606 0.000000 0.000000 0.000000
# 3 0.001758 -0.004606 0.011371 0.000000 0.000000 0.000000
# 4 0.000000 0.000000 0.000000 0.038827 0.000000 0.000000
# 5 0.000000 0.000000 0.000000 0.000000 -0.047225 0.000000
# 6 0.000000 0.000000 0.000000 0.000000 0.000000 0.020851
#
#
# Mechanical properties :
#
#
# Convention : Reuss Voigt Hill
#
# Bulk Modulus (GPa) = 39.24057 48.52402 43.88229
# Shear Modulus (GPa) = 59.83819 23.83907 41.83863
#
# Velocity S-wave (km/s) = 5.43091 3.42790 4.54122
# Velocity P-wave (km/s) = 7.65954 6.29168 7.00906
#
# Compressibility (1/GPa) = 0.02548383
#
# Stress axis : x y z
#
# Youngs Moduli (GPa) = 48.56642 82.73589 87.94657
#
# Poissons Ratio (x) = 0.53236 -0.15465
# Poissons Ratio (y) = 0.31250 0.40507
# Poissons Ratio (z) = -0.08540 0.38107
#
# Static dielectric constant tensor:
#      x y z
#    x 1.564920 0.000000 0.000000 
#    y 0.000000 1.722300 0.000000 
#    z 0.000000 0.000000 1.678740 
# 
# From -- ./inp_files/15296.got.cif
#   From: 2010.05.17/outbox.cif.g08.bks.cpg/sg20_8_cif.got.tgz:15296.got - 2010.06.03 22:52:26.
