data_PCOD9320168
_publ_section_title
;
Structure prediction by ZEFSAII (Michael W. Deem and Ramdas Pophale) SiO2 
 PCOD9320168
Probable space group: C 2 2 21
;
_chemical_formula_sum "Si O2"
_cell_formula_units_Z 24
_cell_length_a 4.958214
_cell_length_b 13.593041
_cell_length_c 12.762273
_cell_angle_alpha 90.000000
_cell_angle_beta 90.000000
_cell_angle_gamma 90.000000
_cell_volume 860.141545
_symmetry_space_group_name_H-M "C 2 2 21"
_symmetry_group_IT_number 20
_symmetry_cell_setting 'orthorhombic'
loop_
_space_group_symop_operation_xyz
x,y,z
-x,-y,1/2+z
x,-y,-z
-x,y,1/2-z
1/2+x,1/2+y,z
1/2-x,1/2-y,1/2+z
1/2+x,1/2-y,-z
1/2-x,1/2+y,1/2-z
loop_
_atom_site_type_symbol
_atom_site_label
_atom_site_fract_x
_atom_site_fract_y
_atom_site_fract_z
Si Si1 0.324050 0.654804 0.147697
Si Si2 0.001807 0.464115 0.381381
Si Si3 0.996291 0.154800 0.910556
O O1 0.500000 0.674571 0.250000
O O2 0.162847 0.553865 0.167322
O O3 0.108861 0.740550 0.123871
O O4 0.492702 0.646552 0.038114
O O5 0.011284 0.500000 0.500000
O O6 0.806049 0.369630 0.376217
O O7 0.301019 0.425704 0.361135
#
# Coordination Sequence:
#
# PCOD9320168 Si02
#       3
#     8   8   8
#     4  11  25  46  76 108 143 195 245 290 361 437
#     4  10  22  43  67  94 134 182 230 291 355 410
#     4  11  24  45  68 100 145 181 230 301 352 411
#
# _framework density 27.902384000000001
#
# number of rings (size 3 to 8) (size 9 to 14) (size 15 to 20)
#    0.000    1.333    0.000    7.000    0.000    5.333 
#    0.000   38.333    0.000    0.000    0.000    0.000 
#    0.000    0.000    0.000    0.000    0.000    0.000 
#
# Total GULP energy -67369.362670 kJ/mol
# GULP energy per Si atom -5614.113556 kJ/mol
# Density = 2.783888 g / cm^3
# Si number density = 27.902384 Si / 1000 Ang^3
#
#
#
# Elastic Constant Matrix: (Units=GPa)
#
#
# Indices 1 2 3 4 5 6 
#
# 1 143.5792 33.4697 23.0214 0.0000 0.0000 0.0000
# 2 33.4697 143.6519 8.5692 0.0000 0.0000 0.0000
# 3 23.0214 8.5692 166.0588 0.0000 0.0000 0.0000
# 4 0.0000 0.0000 0.0000 9.9252 0.0000 0.0000
# 5 0.0000 0.0000 0.0000 0.0000 42.0587 0.0000
# 6 0.0000 0.0000 0.0000 0.0000 0.0000 -36.4457
#
#
#
# Elastic Compliance Matrix: (Units=1/GPa)
#
#
# Indices 1 2 3 4 5 6 
#
# 1 0.007513 -0.001693 -0.000954 0.000000 0.000000 0.000000
# 2 -0.001693 0.007364 -0.000145 0.000000 0.000000 0.000000
# 3 -0.000954 -0.000145 0.006162 0.000000 0.000000 0.000000
# 4 0.000000 0.000000 0.000000 0.100754 0.000000 0.000000
# 5 0.000000 0.000000 0.000000 0.000000 0.023776 0.000000
# 6 0.000000 0.000000 0.000000 0.000000 0.000000 -0.027438
#
#
# Mechanical properties :
#
#
# Convention : Reuss Voigt Hill
#
# Bulk Modulus (GPa) = 64.71179 64.82339 64.76759
# Shear Modulus (GPa) = 38.79961 28.98963 33.89462
#
# Velocity S-wave (km/s) = 3.73305 3.22680 3.48912
# Velocity P-wave (km/s) = 6.46711 6.09636 6.28447
#
# Compressibility (1/GPa) = 0.01545314
#
# Stress axis : x y z
#
# Youngs Moduli (GPa) = 133.11084 135.78659 162.29205
#
# Poissons Ratio (x) = 0.22995 0.15484
# Poissons Ratio (y) = 0.22542 0.02358
# Poissons Ratio (z) = 0.12700 0.01972
#
# Static dielectric constant tensor:
#      x y z
#    x 2.069060 0.000000 0.000000 
#    y 0.000000 2.108120 0.000000 
#    z 0.000000 0.000000 2.274380 
# 
# From -- ./inp_files/17337.got.cif
#   From: 2010.05.17/outbox.cif.g08.bks.cpg/sg20_9_cif.got.tgz:17337.got - 2010.06.03 22:52:26.
