data_PCOD9320869
_publ_section_title
;
Structure prediction by ZEFSAII (Michael W. Deem and Ramdas Pophale) SiO2 
 PCOD9320869
Probable space group: C 2 2 21
;
_chemical_formula_sum "Si O2"
_cell_formula_units_Z 60
_cell_length_a 17.804782
_cell_length_b 17.820572
_cell_length_c 8.130594
_cell_angle_alpha 90.000000
_cell_angle_beta 90.000000
_cell_angle_gamma 90.000000
_cell_volume 2579.767550
_symmetry_space_group_name_H-M "C 2 2 21"
_symmetry_group_IT_number 20
_symmetry_cell_setting 'orthorhombic'
loop_
_space_group_symop_operation_xyz
x,y,z
-x,-y,1/2+z
x,-y,-z
-x,y,1/2-z
1/2+x,1/2+y,z
1/2-x,1/2-y,1/2+z
1/2+x,1/2-y,-z
1/2-x,1/2+y,1/2-z
loop_
_atom_site_type_symbol
_atom_site_label
_atom_site_fract_x
_atom_site_fract_y
_atom_site_fract_z
Si Si1 0.627969 0.171081 0.725266
Si Si2 0.114561 0.175677 0.449498
Si Si3 0.000000 0.447105 0.250000
Si Si4 0.210452 0.324051 0.936696
Si Si5 0.262121 0.940708 0.142944
Si Si6 0.515900 0.417664 0.053183
Si Si7 0.861646 0.825060 0.320824
Si Si8 0.625763 0.033365 0.170642
O O1 0.599808 0.250055 0.657244
O O2 0.562693 0.117106 0.791945
O O3 0.676257 0.122765 0.592696
O O4 0.686961 0.179610 0.873004
O O5 0.202054 0.155822 0.416269
O O6 0.107693 0.197095 0.642638
O O7 0.055670 0.107372 0.443044
O O8 0.062985 0.510543 0.303566
O O9 0.192203 0.241375 0.874699
O O10 0.154260 0.382844 0.850335
O O11 0.186392 0.900771 0.194690
O O12 0.300421 0.985007 0.291990
O O13 0.250286 0.000000 0.000000
O O14 0.500000 0.422863 0.250000
O O15 0.575131 0.348704 0.047766
O O16 0.542556 0.500000 0.000000
O O17 0.591649 0.000000 0.000000
#
# Coordination Sequence:
#
# PCOD9320869 Si02
#       8
#     8   8   4   8   8   8   8   8
#     4  11  24  44  66  98 138 174 225 276 336 415
#     4  11  23  44  71  96 134 173 224 281 335 405
#     4  10  24  44  64  98 146 174 226 270 344 412
#     4  12  23  43  71 102 132 176 227 275 341 398
#     4  11  23  41  67  98 136 179 224 275 334 406
#     4  10  25  45  66  98 133 178 225 280 338 395
#     4  11  24  45  65 101 137 172 228 284 336 401
#     4  11  23  44  66  99 136 184 219 283 336 406
#
# _framework density 23.257909999999999
#
# number of rings (size 3 to 8) (size 9 to 14) (size 15 to 20)
#    0.000    1.067    5.333    0.400    3.733    6.933 
#    3.600    0.000    0.000    0.000    0.000    0.000 
#    0.000    0.000    0.000    0.000    0.000    0.000 
#
# Total GULP energy -167159.061400 kJ/mol
# GULP energy per Si atom -5571.968713 kJ/mol
# Density = 2.320497 g / cm^3
# Si number density = 23.257910 Si / 1000 Ang^3
#
#
#
# Elastic Constant Matrix: (Units=GPa)
#
#
# Indices 1 2 3 4 5 6 
#
# 1 92.6791 27.9213 10.1473 0.0000 0.0000 0.0000
# 2 27.9213 110.8001 33.5060 0.0000 0.0000 0.0000
# 3 10.1473 33.5060 46.9172 0.0000 0.0000 0.0000
# 4 0.0000 0.0000 0.0000 39.5216 0.0000 0.0000
# 5 0.0000 0.0000 0.0000 0.0000 3.0029 0.0000
# 6 0.0000 0.0000 0.0000 0.0000 0.0000 23.4994
#
#
#
# Elastic Compliance Matrix: (Units=1/GPa)
#
#
# Indices 1 2 3 4 5 6 
#
# 1 0.011687 -0.002781 -0.000541 0.000000 0.000000 0.000000
# 2 -0.002781 0.012173 -0.008092 0.000000 0.000000 0.000000
# 3 -0.000541 -0.008092 0.027210 0.000000 0.000000 0.000000
# 4 0.000000 0.000000 0.000000 0.025303 0.000000 0.000000
# 5 0.000000 0.000000 0.000000 0.000000 0.333008 0.000000
# 6 0.000000 0.000000 0.000000 0.000000 0.000000 0.042554
#
#
# Mechanical properties :
#
#
# Convention : Reuss Voigt Hill
#
# Bulk Modulus (GPa) = 35.40948 43.72726 39.56837
# Shear Modulus (GPa) = 10.32676 25.12624 17.72650
#
# Velocity S-wave (km/s) = 2.10944 3.29040 2.76374
# Velocity P-wave (km/s) = 4.60334 5.76867 5.21863
#
# Compressibility (1/GPa) = 0.02824103
#
# Stress axis : x y z
#
# Youngs Moduli (GPa) = 85.56411 82.14785 36.75109
#
# Poissons Ratio (x) = 0.22849 0.01990
# Poissons Ratio (y) = 0.23799 0.29739
# Poissons Ratio (z) = 0.04632 0.66473
#
# Static dielectric constant tensor:
#      x y z
#    x 1.966530 0.000000 0.000000 
#    y 0.000000 1.866450 0.000000 
#    z 0.000000 0.000000 2.017880 
# 
# From -- ./inp_files/9583.got.cif
#   From: 2010.05.17/outbox.cif.g08.bks.cpg/sg20_5_cif.got.tgz:9583.got - 2010.06.03 22:52:26.
