data_PCOD9320890
_publ_section_title
;
Structure prediction by ZEFSAII (Michael W. Deem and Ramdas Pophale) SiO2 
 PCOD9320890
Probable space group: C 2 2 21
;
_chemical_formula_sum "Si O2"
_cell_formula_units_Z 40
_cell_length_a 5.193315
_cell_length_b 13.926921
_cell_length_c 20.650285
_cell_angle_alpha 90.000000
_cell_angle_beta 90.000000
_cell_angle_gamma 90.000000
_cell_volume 1493.570845
_symmetry_space_group_name_H-M "C 2 2 21"
_symmetry_group_IT_number 20
_symmetry_cell_setting 'orthorhombic'
loop_
_space_group_symop_operation_xyz
x,y,z
-x,-y,1/2+z
x,-y,-z
-x,y,1/2-z
1/2+x,1/2+y,z
1/2-x,1/2-y,1/2+z
1/2+x,1/2-y,-z
1/2-x,1/2+y,1/2-z
loop_
_atom_site_type_symbol
_atom_site_label
_atom_site_fract_x
_atom_site_fract_y
_atom_site_fract_z
Si Si1 0.143608 0.857549 0.070293
Si Si2 0.541782 0.908029 0.819033
Si Si3 0.165150 0.038109 0.434468
Si Si4 0.780158 0.195639 0.429996
Si Si5 0.250265 0.298236 0.289961
O O1 0.079489 0.969180 0.068054
O O2 0.871443 0.797287 0.075268
O O3 0.279219 0.835764 0.137442
O O4 0.295122 0.832481 0.004407
O O5 0.500000 0.957256 0.750000
O O6 0.325156 0.858834 0.865365
O O7 0.712796 0.816590 0.797360
O O8 0.680514 0.976252 0.869515
O O9 0.297502 0.000000 0.500000
O O10 0.071016 0.149249 0.434179
O O11 0.500000 0.333341 0.250000
O O12 0.000000 0.317866 0.250000
#
# Coordination Sequence:
#
# PCOD9320890 Si02
#       5
#     8   8   8   8   8
#     4  10  24  45  75 106 147 197 247 317 387 452
#     4  10  24  44  76 100 143 200 240 313 388 456
#     4  10  24  46  69 108 145 181 256 317 376 469
#     4  10  24  44  69 109 136 191 244 306 382 449
#     4  10  24  46  74 110 150 200 255 311 384 469
#
# _framework density 26.781452999999999
#
# number of rings (size 3 to 8) (size 9 to 14) (size 15 to 20)
#    0.000    2.000    0.000    0.000   19.600    2.400 
#    7.200    0.000    4.400    0.000    0.000    0.000 
#    0.000    0.000    0.000    0.000    0.000    0.000 
#
# Total GULP energy -111668.303362 kJ/mol
# GULP energy per Si atom -5583.415168 kJ/mol
# Density = 2.672050 g / cm^3
# Si number density = 26.781453 Si / 1000 Ang^3
#
#
#
# Elastic Constant Matrix: (Units=GPa)
#
#
# Indices 1 2 3 4 5 6 
#
# 1 91.2869 23.7012 67.9420 0.0000 0.0000 0.0000
# 2 23.7012 82.5549 31.2743 0.0000 0.0000 0.0000
# 3 67.9420 31.2743 306.6346 0.0000 0.0000 0.0000
# 4 0.0000 0.0000 0.0000 38.6045 0.0000 0.0000
# 5 0.0000 0.0000 0.0000 0.0000 54.8043 0.0000
# 6 0.0000 0.0000 0.0000 0.0000 0.0000 22.7790
#
#
#
# Elastic Compliance Matrix: (Units=1/GPa)
#
#
# Indices 1 2 3 4 5 6 
#
# 1 0.013757 -0.002907 -0.002752 0.000000 0.000000 0.000000
# 2 -0.002907 0.013214 -0.000704 0.000000 0.000000 0.000000
# 3 -0.002752 -0.000704 0.003943 0.000000 0.000000 0.000000
# 4 0.000000 0.000000 0.000000 0.025904 0.000000 0.000000
# 5 0.000000 0.000000 0.000000 0.000000 0.018247 0.000000
# 6 0.000000 0.000000 0.000000 0.000000 0.000000 0.043900
#
#
# Mechanical properties :
#
#
# Convention : Reuss Voigt Hill
#
# Bulk Modulus (GPa) = 54.97762 80.70128 67.83945
# Shear Modulus (GPa) = 36.29683 47.07483 41.68583
#
# Velocity S-wave (km/s) = 3.68543 4.19709 3.94955
# Velocity P-wave (km/s) = 6.21954 7.32708 6.79591
#
# Compressibility (1/GPa) = 0.01818922
#
# Stress axis : x y z
#
# Youngs Moduli (GPa) = 72.68855 75.67530 253.63441
#
# Poissons Ratio (x) = 0.22001 0.69794
# Poissons Ratio (y) = 0.21132 0.17846
# Poissons Ratio (z) = 0.20002 0.05324
#
# Static dielectric constant tensor:
#      x y z
#    x 2.203550 0.000000 0.000000 
#    y 0.000000 2.072070 0.000000 
#    z 0.000000 0.000000 2.135650 
# 
# From -- ./inp_files/22627.got.cif
#   From: 2010.05.17/outbox.cif.g08.bks.cpg/sg20_12_cif.got.tgz:22627.got - 2010.06.03 22:52:26.
