data_PCOD9320329
_publ_section_title
;
Structure prediction by ZEFSAII (Michael W. Deem and Ramdas Pophale) SiO2 
 PCOD9320329
Probable space group: C 2 2 21
;
_chemical_formula_sum "Si O2"
_cell_formula_units_Z 32
_cell_length_a 11.719603
_cell_length_b 22.106630
_cell_length_c 5.110513
_cell_angle_alpha 90.000000
_cell_angle_beta 90.000000
_cell_angle_gamma 90.000000
_cell_volume 1324.036447
_symmetry_space_group_name_H-M "C 2 2 21"
_symmetry_group_IT_number 20
_symmetry_cell_setting 'orthorhombic'
loop_
_space_group_symop_operation_xyz
x,y,z
-x,-y,1/2+z
x,-y,-z
-x,y,1/2-z
1/2+x,1/2+y,z
1/2-x,1/2-y,1/2+z
1/2+x,1/2-y,-z
1/2-x,1/2+y,1/2-z
loop_
_atom_site_type_symbol
_atom_site_label
_atom_site_fract_x
_atom_site_fract_y
_atom_site_fract_z
Si Si1 0.000000 0.836738 0.250000
Si Si2 0.500000 0.857791 0.750000
Si Si3 0.625247 0.449302 0.190498
Si Si4 0.674016 0.756348 0.576012
Si Si5 0.199974 0.500000 0.000000
Si Si6 0.500000 0.943433 0.250000
O O1 0.910895 0.882119 0.395227
O O2 0.924777 0.794476 0.066036
O O3 0.608769 0.815559 0.684650
O O4 0.486413 0.899655 0.497307
O O5 0.500000 0.475302 0.250000
O O6 0.707789 0.446696 0.442806
O O7 0.676299 0.500000 0.000000
O O8 0.734115 0.762895 0.296606
O O9 0.109612 0.513496 0.771832
#
# Coordination Sequence:
#
# PCOD9320329 Si02
#       6
#     4   4   8   8   4   4
#     4   9  24  46  67 113 142 190 247 310 388 438
#     4  11  27  46  74 108 148 193 267 300 378 464
#     4  10  22  45  72 108 148 190 252 314 383 456
#     4  11  25  48  75 108 145 195 248 312 383 456
#     4  12  28  46  70 106 156 196 266 302 390 460
#     4  12  29  48  73 109 154 217 248 322 378 466
#
# _framework density 24.168517999999999
#
# number of rings (size 3 to 8) (size 9 to 14) (size 15 to 20)
#    0.750    0.500    1.250    2.250   12.250    3.000 
#    9.000    0.000    0.000    0.000    0.000    0.000 
#    0.000    0.000    0.000    0.000    0.000    0.000 
#
# Total GULP energy -89107.350071 kJ/mol
# GULP energy per Si atom -5569.209379 kJ/mol
# Density = 2.411351 g / cm^3
# Si number density = 24.168518 Si / 1000 Ang^3
#
#
#
# Elastic Constant Matrix: (Units=GPa)
#
#
# Indices 1 2 3 4 5 6 
#
# 1 154.8533 34.2964 18.5045 0.0000 0.0000 0.0000
# 2 34.2964 119.7311 44.3139 0.0000 0.0000 0.0000
# 3 18.5045 44.3139 103.5208 0.0000 0.0000 0.0000
# 4 0.0000 0.0000 0.0000 29.0054 0.0000 0.0000
# 5 0.0000 0.0000 0.0000 0.0000 31.3879 0.0000
# 6 0.0000 0.0000 0.0000 0.0000 0.0000 -2.5456
#
#
#
# Elastic Compliance Matrix: (Units=1/GPa)
#
#
# Indices 1 2 3 4 5 6 
#
# 1 0.006914 -0.001810 -0.000461 0.000000 0.000000 0.000000
# 2 -0.001810 0.010398 -0.004128 0.000000 0.000000 0.000000
# 3 -0.000461 -0.004128 0.011509 0.000000 0.000000 0.000000
# 4 0.000000 0.000000 0.000000 0.034476 0.000000 0.000000
# 5 0.000000 0.000000 0.000000 0.000000 0.031859 0.000000
# 6 0.000000 0.000000 0.000000 0.000000 0.000000 -0.392834
#
#
# Mechanical properties :
#
#
# Convention : Reuss Voigt Hill
#
# Bulk Modulus (GPa) = 62.40620 63.59276 62.99948
# Shear Modulus (GPa) = -17.88659 30.30224 6.20783
#
# Velocity S-wave (km/s) = -2.72339 3.54473 1.60441
# Velocity P-wave (km/s) = 3.99853 6.56680 5.43650
#
# Compressibility (1/GPa) = 0.01602405
#
# Stress axis : x y z
#
# Youngs Moduli (GPa) = 144.64169 96.17133 86.88682
#
# Poissons Ratio (x) = 0.17404 0.04007
# Poissons Ratio (y) = 0.26176 0.35864
# Poissons Ratio (z) = 0.06670 0.39696
#
# Static dielectric constant tensor:
#      x y z
#    x 1.918920 0.000000 0.000000 
#    y 0.000000 1.954660 0.000000 
#    z 0.000000 0.000000 2.249050 
# 
# From -- ./inp_files/1177.got.cif
#   From: 2010.05.17/outbox.cif.g08.bks.cpg/sg20_1_cif.got.tgz:1177.got - 2010.06.03 22:52:26.
