data_PCOD9320918
_publ_section_title
;
Structure prediction by ZEFSAII (Michael W. Deem and Ramdas Pophale) SiO2 
 PCOD9320918
Probable space group: C 2 2 21
;
_chemical_formula_sum "Si O2"
_cell_formula_units_Z 40
_cell_length_a 12.722025
_cell_length_b 15.159036
_cell_length_c 7.647121
_cell_angle_alpha 90.000000
_cell_angle_beta 90.000000
_cell_angle_gamma 90.000000
_cell_volume 1474.775082
_symmetry_space_group_name_H-M "C 2 2 21"
_symmetry_group_IT_number 20
_symmetry_cell_setting 'orthorhombic'
loop_
_space_group_symop_operation_xyz
x,y,z
-x,-y,1/2+z
x,-y,-z
-x,y,1/2-z
1/2+x,1/2+y,z
1/2-x,1/2-y,1/2+z
1/2+x,1/2-y,-z
1/2-x,1/2+y,1/2-z
loop_
_atom_site_type_symbol
_atom_site_label
_atom_site_fract_x
_atom_site_fract_y
_atom_site_fract_z
Si Si1 0.425682 0.549717 0.862916
Si Si2 0.000000 0.706365 0.250000
Si Si3 0.318582 0.088812 0.592049
Si Si4 0.000000 0.127390 0.250000
Si Si5 0.342267 0.715416 0.518249
Si Si6 0.630822 0.896307 0.468732
O O1 0.301666 0.566848 0.862909
O O2 0.434050 0.435865 0.892599
O O3 0.444978 0.560438 0.648140
O O4 0.238396 0.657721 0.500578
O O5 0.906763 0.772512 0.301386
O O6 0.041860 0.646806 0.408748
O O7 0.310836 0.181013 0.493788
O O8 0.385227 0.109821 0.762763
O O9 0.360300 0.000000 0.500000
O O10 0.078479 0.186091 0.137257
O O11 0.643704 0.000000 0.500000
#
# Coordination Sequence:
#
# PCOD9320918 Si02
#       6
#     8   4   8   4   8   8
#     4   9  22  41  72 113 155 196 263 322 417 467
#     4  12  30  52  82 118 162 218 274 340 424 482
#     4  11  25  47  77 113 158 208 266 338 411 495
#     4  10  24  44  76 112 162 204 264 336 426 480
#     4  12  27  51  77 117 158 215 272 340 406 497
#     4  12  28  52  81 116 162 210 277 338 413 495
#
# _framework density 27.122776999999999
#
# number of rings (size 3 to 8) (size 9 to 14) (size 15 to 20)
#    0.600    0.400    0.000    4.800    2.800   13.600 
#    1.800    2.000    0.000    0.000    0.000    0.000 
#    0.000    0.000    0.000    0.000    0.000    0.000 
#
# Total GULP energy -111507.692061 kJ/mol
# GULP energy per Si atom -5575.384603 kJ/mol
# Density = 2.706104 g / cm^3
# Si number density = 27.122777 Si / 1000 Ang^3
#
#
#
# Elastic Constant Matrix: (Units=GPa)
#
#
# Indices 1 2 3 4 5 6 
#
# 1 152.8599 35.3488 32.2102 0.0000 0.0000 0.0000
# 2 35.3488 171.1873 14.8865 0.0000 0.0000 0.0000
# 3 32.2102 14.8865 124.1223 0.0000 0.0000 0.0000
# 4 0.0000 0.0000 0.0000 48.1593 0.0000 0.0000
# 5 0.0000 0.0000 0.0000 0.0000 44.7711 0.0000
# 6 0.0000 0.0000 0.0000 0.0000 0.0000 46.4782
#
#
#
# Elastic Compliance Matrix: (Units=1/GPa)
#
#
# Indices 1 2 3 4 5 6 
#
# 1 0.007212 -0.001341 -0.001711 0.000000 0.000000 0.000000
# 2 -0.001341 0.006152 -0.000390 0.000000 0.000000 0.000000
# 3 -0.001711 -0.000390 0.008547 0.000000 0.000000 0.000000
# 4 0.000000 0.000000 0.000000 0.020764 0.000000 0.000000
# 5 0.000000 0.000000 0.000000 0.000000 0.022336 0.000000
# 6 0.000000 0.000000 0.000000 0.000000 0.000000 0.021515
#
#
# Mechanical properties :
#
#
# Convention : Reuss Voigt Hill
#
# Bulk Modulus (GPa) = 66.53700 68.11782 67.32741
# Shear Modulus (GPa) = 50.80252 52.26333 51.53292
#
# Velocity S-wave (km/s) = 4.33258 4.39443 4.36361
# Velocity P-wave (km/s) = 7.04367 7.13562 7.08980
#
# Compressibility (1/GPa) = 0.01502923
#
# Stress axis : x y z
#
# Youngs Moduli (GPa) = 138.64919 162.54141 116.99567
#
# Poissons Ratio (x) = 0.21789 0.20017
# Poissons Ratio (y) = 0.18586 0.04563
# Poissons Ratio (z) = 0.23721 0.06339
#
# Static dielectric constant tensor:
#      x y z
#    x 2.013300 0.000000 0.000000 
#    y 0.000000 2.393070 0.000000 
#    z 0.000000 0.000000 2.168130 
# 
# From -- ./inp_files/8160.got.cif
#   From: 2010.05.17/outbox.cif.g08.bks.cpg/sg20_5_cif.got.tgz:8160.got - 2010.06.03 22:52:26.
