data_PCOD9320405
_publ_section_title
;
Structure prediction by ZEFSAII (Michael W. Deem and Ramdas Pophale) SiO2 
 PCOD9320405
Probable space group: C 2 2 21
;
_chemical_formula_sum "Si O2"
_cell_formula_units_Z 40
_cell_length_a 9.924432
_cell_length_b 12.974768
_cell_length_c 11.481754
_cell_angle_alpha 90.000000
_cell_angle_beta 90.000000
_cell_angle_gamma 90.000000
_cell_volume 1478.473345
_symmetry_space_group_name_H-M "C 2 2 21"
_symmetry_group_IT_number 20
_symmetry_cell_setting 'orthorhombic'
loop_
_space_group_symop_operation_xyz
x,y,z
-x,-y,1/2+z
x,-y,-z
-x,y,1/2-z
1/2+x,1/2+y,z
1/2-x,1/2-y,1/2+z
1/2+x,1/2-y,-z
1/2-x,1/2+y,1/2-z
loop_
_atom_site_type_symbol
_atom_site_label
_atom_site_fract_x
_atom_site_fract_y
_atom_site_fract_z
Si Si1 0.500000 0.357499 0.750000
Si Si2 0.819562 0.720167 0.916878
Si Si3 0.625503 0.167819 0.330019
Si Si4 0.850843 0.946442 0.271621
Si Si5 0.500000 0.971045 0.250000
Si Si6 0.309105 0.153526 0.598925
O O1 0.427681 0.289404 0.847672
O O2 0.607997 0.437308 0.806992
O O3 0.736766 0.626133 0.857696
O O4 0.749065 0.748585 0.175886
O O5 0.711534 0.804004 0.970020
O O6 0.500000 0.201261 0.250000
O O7 0.606794 0.176465 0.467858
O O8 0.618311 0.046969 0.294162
O O9 0.791976 0.936613 0.139902
O O10 0.000000 0.902468 0.250000
O O11 0.556239 0.897630 0.149310
#
# Coordination Sequence:
#
# PCOD9320405 Si02
#       6
#     4   8   8   8   4   8
#     4  10  26  54  86 124 174 232 292 344 442 528
#     4  10  24  56  84 125 180 224 285 364 431 519
#     4   8  21  49  85 122 183 219 281 374 413 526
#     4  10  25  54  79 120 175 216 288 360 413 513
#     4  10  22  50  84 122 172 224 294 346 438 520
#     4  10  23  50  83 118 172 222 280 360 419 511
#
# _framework density 27.054935
#
# number of rings (size 3 to 8) (size 9 to 14) (size 15 to 20)
#    2.400    0.000    0.000    0.600    0.000    3.200 
#   14.400    5.000    2.200    0.000    0.000    0.000 
#    0.000    0.000    0.000    0.000    0.000    0.000 
#
# Total GULP energy -111348.940489 kJ/mol
# GULP energy per Si atom -5567.447024 kJ/mol
# Density = 2.699336 g / cm^3
# Si number density = 27.054935 Si / 1000 Ang^3
#
#
#
# Elastic Constant Matrix: (Units=GPa)
#
#
# Indices 1 2 3 4 5 6 
#
# 1 113.7790 71.9106 41.3088 0.0000 0.0000 0.0000
# 2 71.9106 232.4469 85.3250 0.0000 0.0000 0.0000
# 3 41.3088 85.3250 121.7603 0.0000 0.0000 0.0000
# 4 0.0000 0.0000 0.0000 101.2062 0.0000 0.0000
# 5 0.0000 0.0000 0.0000 0.0000 57.0577 0.0000
# 6 0.0000 0.0000 0.0000 0.0000 0.0000 47.9388
#
#
#
# Elastic Compliance Matrix: (Units=1/GPa)
#
#
# Indices 1 2 3 4 5 6 
#
# 1 0.011227 -0.002794 -0.001851 0.000000 0.000000 0.000000
# 2 -0.002794 0.006487 -0.003598 0.000000 0.000000 0.000000
# 3 -0.001851 -0.003598 0.011362 0.000000 0.000000 0.000000
# 4 0.000000 0.000000 0.000000 0.009881 0.000000 0.000000
# 5 0.000000 0.000000 0.000000 0.000000 0.017526 0.000000
# 6 0.000000 0.000000 0.000000 0.000000 0.000000 0.020860
#
#
# Mechanical properties :
#
#
# Convention : Reuss Voigt Hill
#
# Bulk Modulus (GPa) = 79.42622 96.11944 87.77283
# Shear Modulus (GPa) = 51.00717 59.20333 55.10525
#
# Velocity S-wave (km/s) = 4.34674 4.68296 4.51798
# Velocity P-wave (km/s) = 7.39008 8.05263 7.72846
#
# Compressibility (1/GPa) = 0.01259030
#
# Stress axis : x y z
#
# Youngs Moduli (GPa) = 89.07356 154.15255 88.01031
#
# Poissons Ratio (x) = 0.43064 0.16292
# Poissons Ratio (y) = 0.24884 0.31667
# Poissons Ratio (z) = 0.16489 0.55466
#
# Static dielectric constant tensor:
#      x y z
#    x 2.170880 0.000000 0.000000 
#    y 0.000000 2.184690 0.000000 
#    z 0.000000 0.000000 2.197530 
# 
# From -- ./inp_files/13948.got.cif
#   From: 2010.05.17/outbox.cif.g08.bks.cpg/sg20_7_cif.got.tgz:13948.got - 2010.06.03 22:52:26.
