data_PCOD9320431
_publ_section_title
;
Structure prediction by ZEFSAII (Michael W. Deem and Ramdas Pophale) SiO2 
 PCOD9320431
Probable space group: C 2 2 21
;
_chemical_formula_sum "Si O2"
_cell_formula_units_Z 64
_cell_length_a 18.591139
_cell_length_b 20.420803
_cell_length_c 8.653171
_cell_angle_alpha 90.000000
_cell_angle_beta 90.000000
_cell_angle_gamma 90.000000
_cell_volume 3285.141646
_symmetry_space_group_name_H-M "C 2 2 21"
_symmetry_group_IT_number 20
_symmetry_cell_setting 'orthorhombic'
loop_
_space_group_symop_operation_xyz
x,y,z
-x,-y,1/2+z
x,-y,-z
-x,y,1/2-z
1/2+x,1/2+y,z
1/2-x,1/2-y,1/2+z
1/2+x,1/2-y,-z
1/2-x,1/2+y,1/2-z
loop_
_atom_site_type_symbol
_atom_site_label
_atom_site_fract_x
_atom_site_fract_y
_atom_site_fract_z
Si Si1 0.073962 0.400561 0.335318
Si Si2 0.774058 0.586911 0.363687
Si Si3 0.956914 0.746560 0.882343
Si Si4 0.790077 0.177657 0.674167
Si Si5 0.438380 0.258006 0.343944
Si Si6 0.420938 0.117307 0.200201
Si Si7 0.696936 0.287924 0.533205
Si Si8 0.726181 0.950119 0.225673
O O1 0.073506 0.321500 0.311350
O O2 0.081999 0.403244 0.521433
O O3 0.142898 0.437941 0.269742
O O4 0.000000 0.422934 0.250000
O O5 0.855786 0.592708 0.304713
O O6 0.732673 0.655961 0.358895
O O7 0.770427 0.568777 0.544452
O O8 0.746900 0.524656 0.266219
O O9 0.888612 0.784889 0.945793
O O10 0.000000 0.784155 0.750000
O O11 0.018908 0.731262 0.007688
O O12 0.868646 0.200233 0.618963
O O13 0.731784 0.219042 0.580312
O O14 0.771963 0.101202 0.674665
O O15 0.785686 0.198255 0.854684
O O16 0.500000 0.296564 0.250000
O O17 0.417491 0.195771 0.236517
O O18 0.500000 0.095595 0.250000
#
# Coordination Sequence:
#
# PCOD9320431 Si02
#       8
#     8   8   8   8   8   8   8   8
#     4  11  21  34  56  84 122 153 196 240 290 360
#     4  10  23  40  59  80 121 161 203 245 301 359
#     4  11  23  36  58  92 122 151 192 250 303 356
#     4  11  22  35  62  88 121 152 199 247 301 358
#     4  11  20  37  57  90 123 149 189 245 305 355
#     4  11  20  34  57  84 118 160 190 237 299 355
#     4  11  22  37  59  91 116 155 196 249 302 358
#     4  10  23  40  56  86 117 162 203 247 296 362
#
# _framework density 19.481655
#
# number of rings (size 3 to 8) (size 9 to 14) (size 15 to 20)
#    0.000    1.250    6.250    0.750    3.500    1.000 
#    0.000    0.000    0.000    0.750    0.000    0.000 
#    0.000    0.000    0.000    0.000    0.000    0.000 
#
# Total GULP energy -178432.798959 kJ/mol
# GULP energy per Si atom -5576.024967 kJ/mol
# Density = 1.943731 g / cm^3
# Si number density = 19.481655 Si / 1000 Ang^3
#
#
#
# Elastic Constant Matrix: (Units=GPa)
#
#
# Indices 1 2 3 4 5 6 
#
# 1 66.2463 9.5499 -3.4228 0.0000 0.0000 0.0000
# 2 9.5499 65.2407 -4.0398 0.0000 0.0000 0.0000
# 3 -3.4228 -4.0398 22.7756 0.0000 0.0000 0.0000
# 4 0.0000 0.0000 0.0000 15.5127 0.0000 0.0000
# 5 0.0000 0.0000 0.0000 0.0000 25.5671 0.0000
# 6 0.0000 0.0000 0.0000 0.0000 0.0000 14.1931
#
#
#
# Elastic Compliance Matrix: (Units=1/GPa)
#
#
# Indices 1 2 3 4 5 6 
#
# 1 0.015506 -0.002149 0.001949 0.000000 0.000000 0.000000
# 2 -0.002149 0.015796 0.002479 0.000000 0.000000 0.000000
# 3 0.001949 0.002479 0.044639 0.000000 0.000000 0.000000
# 4 0.000000 0.000000 0.000000 0.064463 0.000000 0.000000
# 5 0.000000 0.000000 0.000000 0.000000 0.039113 0.000000
# 6 0.000000 0.000000 0.000000 0.000000 0.000000 0.070457
#
#
# Mechanical properties :
#
#
# Convention : Reuss Voigt Hill
#
# Bulk Modulus (GPa) = 12.42256 17.60412 15.01334
# Shear Modulus (GPa) = 18.36553 21.19958 19.78255
#
# Velocity S-wave (km/s) = 3.07369 3.30234 3.19006
# Velocity P-wave (km/s) = 4.35742 4.85762 4.61430
#
# Compressibility (1/GPa) = 0.08049872
#
# Stress axis : x y z
#
# Youngs Moduli (GPa) = 64.49246 63.30746 22.40177
#
# Poissons Ratio (x) = 0.13605 -0.04366
# Poissons Ratio (y) = 0.13860 -0.05553
# Poissons Ratio (z) = -0.12570 -0.15693
#
# Static dielectric constant tensor:
#      x y z
#    x 1.689370 0.000000 0.000000 
#    y 0.000000 1.732290 0.000000 
#    z 0.000000 0.000000 1.740780 
# 
# From -- ./inp_files/9649.got.cif
#   From: 2010.05.17/outbox.cif.g08.bks.cpg/sg20_5_cif.got.tgz:9649.got - 2010.06.03 22:52:26.
