data_PCOD9320302
_publ_section_title
;
Structure prediction by ZEFSAII (Michael W. Deem and Ramdas Pophale) SiO2 
 PCOD9320302
Probable space group: C 2 2 21
;
_chemical_formula_sum "Si O2"
_cell_formula_units_Z 48
_cell_length_a 17.235217
_cell_length_b 17.543159
_cell_length_c 7.458684
_cell_angle_alpha 90.000000
_cell_angle_beta 90.000000
_cell_angle_gamma 90.000000
_cell_volume 2255.208830
_symmetry_space_group_name_H-M "C 2 2 21"
_symmetry_group_IT_number 20
_symmetry_cell_setting 'orthorhombic'
loop_
_space_group_symop_operation_xyz
x,y,z
-x,-y,1/2+z
x,-y,-z
-x,y,1/2-z
1/2+x,1/2+y,z
1/2-x,1/2-y,1/2+z
1/2+x,1/2-y,-z
1/2-x,1/2+y,1/2-z
loop_
_atom_site_type_symbol
_atom_site_label
_atom_site_fract_x
_atom_site_fract_y
_atom_site_fract_z
Si Si1 0.389430 0.802585 0.528293
Si Si2 0.055584 0.500000 0.500000
Si Si3 0.320590 0.922143 0.247221
Si Si4 0.207374 0.000000 0.500000
Si Si5 0.500000 0.728285 0.250000
Si Si6 0.660646 0.336377 0.607437
Si Si7 0.749562 0.302754 0.967564
Si Si8 0.000000 0.622156 0.250000
O O1 0.346571 0.867351 0.410753
O O2 0.463947 0.777848 0.410671
O O3 0.330932 0.732430 0.542548
O O4 0.422374 0.830559 0.717021
O O5 0.108538 0.533543 0.657769
O O6 0.006227 0.568125 0.420854
O O7 0.261336 0.982821 0.328714
O O8 0.283020 0.868422 0.094855
O O9 0.162419 0.921084 0.529009
O O10 0.425521 0.682703 0.176751
O O11 0.690996 0.268774 0.477576
O O12 0.722761 0.331032 0.772069
#
# Coordination Sequence:
#
# PCOD9320302 Si02
#       8
#     8   4   8   4   4   8   8   4
#     4  11  23  40  67  93 128 169 219 277 320 399
#     4  12  26  39  58  91 136 174 204 264 342 415
#     4  12  23  41  66  93 130 169 221 277 328 389
#     4  12  24  43  64 101 134 170 226 278 336 391
#     4  10  22  45  64  99 130 172 222 274 332 385
#     4  11  23  42  71  99 136 177 222 282 335 399
#     4  11  22  42  70  96 125 174 229 268 324 393
#     4  12  26  39  58  91 136 172 208 258 350 409
#
# _framework density 21.284058999999999
#
# number of rings (size 3 to 8) (size 9 to 14) (size 15 to 20)
#    0.000    0.667    5.000    4.000    2.333    1.333 
#    0.000    3.333    0.000    0.000    0.000    0.000 
#    0.000    0.000    0.000    0.000    0.000    0.000 
#
# Total GULP energy -134269.496367 kJ/mol
# GULP energy per Si atom -5594.562349 kJ/mol
# Density = 2.123562 g / cm^3
# Si number density = 21.284059 Si / 1000 Ang^3
#
#
#
# Elastic Constant Matrix: (Units=GPa)
#
#
# Indices 1 2 3 4 5 6 
#
# 1 84.9532 32.4335 14.0656 0.0000 0.0000 0.0000
# 2 32.4335 102.1354 18.3243 0.0000 0.0000 0.0000
# 3 14.0656 18.3243 57.4896 0.0000 0.0000 0.0000
# 4 0.0000 0.0000 0.0000 38.6807 0.0000 0.0000
# 5 0.0000 0.0000 0.0000 0.0000 44.3740 0.0000
# 6 0.0000 0.0000 0.0000 0.0000 0.0000 31.3162
#
#
#
# Elastic Compliance Matrix: (Units=1/GPa)
#
#
# Indices 1 2 3 4 5 6 
#
# 1 0.013624 -0.003955 -0.002073 0.000000 0.000000 0.000000
# 2 -0.003955 0.011533 -0.002708 0.000000 0.000000 0.000000
# 3 -0.002073 -0.002708 0.018765 0.000000 0.000000 0.000000
# 4 0.000000 0.000000 0.000000 0.025853 0.000000 0.000000
# 5 0.000000 0.000000 0.000000 0.000000 0.022536 0.000000
# 6 0.000000 0.000000 0.000000 0.000000 0.000000 0.031932
#
#
# Mechanical properties :
#
#
# Convention : Reuss Voigt Hill
#
# Bulk Modulus (GPa) = 37.80704 41.58056 39.69380
# Shear Modulus (GPa) = 33.21585 34.85785 34.03685
#
# Velocity S-wave (km/s) = 3.95473 4.05130 4.00330
# Velocity P-wave (km/s) = 6.21730 6.43913 6.32919
#
# Compressibility (1/GPa) = 0.02645010
#
# Stress axis : x y z
#
# Youngs Moduli (GPa) = 73.39912 86.71064 53.29108
#
# Poissons Ratio (x) = 0.34290 0.11046
# Poissons Ratio (y) = 0.29026 0.14433
# Poissons Ratio (z) = 0.15215 0.23485
#
# Static dielectric constant tensor:
#      x y z
#    x 1.769660 0.000000 0.000000 
#    y 0.000000 1.739080 0.000000 
#    z 0.000000 0.000000 1.850650 
# 
# From -- ./inp_files/8503.got.cif
#   From: 2010.05.17/outbox.cif.g08.bks.cpg/sg20_5_cif.got.tgz:8503.got - 2010.06.03 22:52:26.
