data_PCOD9320118
_publ_section_title
;
Structure prediction by ZEFSAII (Michael W. Deem and Ramdas Pophale) SiO2 
 PCOD9320118
Probable space group: C 2 2 21
;
_chemical_formula_sum "Si O2"
_cell_formula_units_Z 48
_cell_length_a 16.746054
_cell_length_b 8.924202
_cell_length_c 15.402995
_cell_angle_alpha 90.000000
_cell_angle_beta 90.000000
_cell_angle_gamma 90.000000
_cell_volume 2301.903185
_symmetry_space_group_name_H-M "C 2 2 21"
_symmetry_group_IT_number 20
_symmetry_cell_setting 'orthorhombic'
loop_
_space_group_symop_operation_xyz
x,y,z
-x,-y,1/2+z
x,-y,-z
-x,y,1/2-z
1/2+x,1/2+y,z
1/2-x,1/2-y,1/2+z
1/2+x,1/2-y,-z
1/2-x,1/2+y,1/2-z
loop_
_atom_site_type_symbol
_atom_site_label
_atom_site_fract_x
_atom_site_fract_y
_atom_site_fract_z
Si Si1 0.774773 0.483504 0.335270
Si Si2 0.245243 0.871758 0.845873
Si Si3 0.400259 0.544616 0.588112
Si Si4 0.334895 0.500000 0.000000
Si Si5 0.584958 0.891153 0.920474
Si Si6 0.410357 0.775182 0.896194
Si Si7 0.500000 0.600997 0.750000
O O1 0.769984 0.304812 0.336608
O O2 0.740284 0.549440 0.247154
O O3 0.722993 0.539892 0.418270
O O4 0.867020 0.533016 0.342326
O O5 0.334178 0.880266 0.883986
O O6 0.179016 0.947950 0.904845
O O7 0.444438 0.500000 0.500000
O O8 0.383047 0.720999 0.579757
O O9 0.453140 0.516984 0.673733
O O10 0.385508 0.357754 0.036534
O O11 0.490178 0.865981 0.918669
O O12 0.604637 0.000000 0.000000
O O13 0.434992 0.697491 0.804097
#
# Coordination Sequence:
#
# PCOD9320118 Si02
#       7
#     8   8   8   4   8   8   4
#     4  11  22  43  70  97 139 183 228 284 348 409
#     4  11  23  44  68 105 134 180 235 286 345 422
#     4  11  24  41  71 101 137 181 233 287 349 416
#     4  10  22  42  70  96 132 184 222 286 338 424
#     4  11  23  43  65  98 137 182 230 287 345 411
#     4  10  23  42  68  98 138 180 233 282 355 404
#     4  10  22  44  66  98 134 186 222 288 350 420
#
# _framework density 20.852309999999999
#
# number of rings (size 3 to 8) (size 9 to 14) (size 15 to 20)
#    0.000    1.333    0.833    6.000    7.000    0.667 
#    3.000    1.667    0.000    1.000    0.000    0.000 
#    0.000    0.000    0.000    0.000    0.000    0.000 
#
# Total GULP energy -133976.285699 kJ/mol
# GULP energy per Si atom -5582.345237 kJ/mol
# Density = 2.080485 g / cm^3
# Si number density = 20.852310 Si / 1000 Ang^3
#
#
#
# Elastic Constant Matrix: (Units=GPa)
#
#
# Indices 1 2 3 4 5 6 
#
# 1 120.9531 34.3819 31.3918 0.0000 0.0000 0.0000
# 2 34.3819 83.4091 29.9169 0.0000 0.0000 0.0000
# 3 31.3918 29.9169 120.1598 0.0000 0.0000 0.0000
# 4 0.0000 0.0000 0.0000 40.6186 0.0000 0.0000
# 5 0.0000 0.0000 0.0000 0.0000 24.7450 0.0000
# 6 0.0000 0.0000 0.0000 0.0000 0.0000 23.5607
#
#
#
# Elastic Compliance Matrix: (Units=1/GPa)
#
#
# Indices 1 2 3 4 5 6 
#
# 1 0.009665 -0.003380 -0.001683 0.000000 0.000000 0.000000
# 2 -0.003380 0.014347 -0.002689 0.000000 0.000000 0.000000
# 3 -0.001683 -0.002689 0.009432 0.000000 0.000000 0.000000
# 4 0.000000 0.000000 0.000000 0.024619 0.000000 0.000000
# 5 0.000000 0.000000 0.000000 0.000000 0.040412 0.000000
# 6 0.000000 0.000000 0.000000 0.000000 0.000000 0.042444
#
#
# Mechanical properties :
#
#
# Convention : Reuss Voigt Hill
#
# Bulk Modulus (GPa) = 55.74619 57.32257 56.53438
# Shear Modulus (GPa) = 30.78742 33.04030 31.91386
#
# Velocity S-wave (km/s) = 3.84663 3.98488 3.91637
# Velocity P-wave (km/s) = 6.82060 6.98011 6.90081
#
# Compressibility (1/GPa) = 0.01793844
#
# Stress axis : x y z
#
# Youngs Moduli (GPa) = 103.46092 69.70116 106.02725
#
# Poissons Ratio (x) = 0.23562 0.17849
# Poissons Ratio (y) = 0.34974 0.28510
# Poissons Ratio (z) = 0.17417 0.18742
#
# Static dielectric constant tensor:
#      x y z
#    x 1.782620 0.000000 0.000000 
#    y 0.000000 1.739230 0.000000 
#    z 0.000000 0.000000 1.853460 
# 
# From -- ./inp_files/21341.got.cif
#   From: 2010.05.17/outbox.cif.g08.bks.cpg/sg20_11_cif.got.tgz:21341.got - 2010.06.03 22:52:26.
