data_PCOD9320304
_publ_section_title
;
Structure prediction by ZEFSAII (Michael W. Deem and Ramdas Pophale) SiO2 
 PCOD9320304
Probable space group: C 2 2 21
;
_chemical_formula_sum "Si O2"
_cell_formula_units_Z 32
_cell_length_a 14.333228
_cell_length_b 7.133913
_cell_length_c 14.936774
_cell_angle_alpha 90.000000
_cell_angle_beta 90.000000
_cell_angle_gamma 90.000000
_cell_volume 1527.315038
_symmetry_space_group_name_H-M "C 2 2 21"
_symmetry_group_IT_number 20
_symmetry_cell_setting 'orthorhombic'
loop_
_space_group_symop_operation_xyz
x,y,z
-x,-y,1/2+z
x,-y,-z
-x,y,1/2-z
1/2+x,1/2+y,z
1/2-x,1/2-y,1/2+z
1/2+x,1/2-y,-z
1/2-x,1/2+y,1/2-z
loop_
_atom_site_type_symbol
_atom_site_label
_atom_site_fract_x
_atom_site_fract_y
_atom_site_fract_z
Si Si1 0.066475 0.703009 0.592649
Si Si2 0.662733 0.201532 0.413862
Si Si3 0.604779 0.526854 0.733702
Si Si4 0.871928 0.857619 0.576684
O O1 0.099914 0.775469 0.495601
O O2 0.118774 0.504582 0.603833
O O3 0.953355 0.704461 0.591053
O O4 0.094968 0.843531 0.671341
O O5 0.658949 0.321418 0.323898
O O6 0.768675 0.206819 0.448560
O O7 0.500000 0.600574 0.750000
O O8 0.642076 0.468518 0.830079
O O9 0.904789 0.000000 0.500000
#
# Coordination Sequence:
#
# PCOD9320304 Si02
#       4
#     8   8   8   8
#     4  10  22  45  66  96 135 170 221 276 325 394
#     4  11  23  43  68 100 131 177 221 265 336 402
#     4  10  23  42  66  93 134 171 218 282 322 388
#     4  11  23  43  68  97 137 175 219 278 330 388
#
# _framework density 20.951801
#
# number of rings (size 3 to 8) (size 9 to 14) (size 15 to 20)
#    0.000    1.500    2.500    3.750    3.500    3.000 
#    9.000    0.000    0.000    0.000    0.000    0.000 
#    0.000    0.000    0.000    0.000    0.000    0.000 
#
# Total GULP energy -89318.412433 kJ/mol
# GULP energy per Si atom -5582.400777 kJ/mol
# Density = 2.090411 g / cm^3
# Si number density = 20.951801 Si / 1000 Ang^3
#
#
#
# Elastic Constant Matrix: (Units=GPa)
#
#
# Indices 1 2 3 4 5 6 
#
# 1 117.8945 41.0783 12.1116 0.0000 0.0000 0.0000
# 2 41.0783 60.8730 12.1755 0.0000 0.0000 0.0000
# 3 12.1116 12.1755 89.9252 0.0000 0.0000 0.0000
# 4 0.0000 0.0000 0.0000 24.9596 0.0000 0.0000
# 5 0.0000 0.0000 0.0000 0.0000 57.3486 0.0000
# 6 0.0000 0.0000 0.0000 0.0000 0.0000 9.4058
#
#
#
# Elastic Compliance Matrix: (Units=1/GPa)
#
#
# Indices 1 2 3 4 5 6 
#
# 1 0.011111 -0.007399 -0.000495 0.000000 0.000000 0.000000
# 2 -0.007399 0.021812 -0.001957 0.000000 0.000000 0.000000
# 3 -0.000495 -0.001957 0.011452 0.000000 0.000000 0.000000
# 4 0.000000 0.000000 0.000000 0.040065 0.000000 0.000000
# 5 0.000000 0.000000 0.000000 0.000000 0.017437 0.000000
# 6 0.000000 0.000000 0.000000 0.000000 0.000000 0.106318
#
#
# Mechanical properties :
#
#
# Convention : Reuss Voigt Hill
#
# Bulk Modulus (GPa) = 40.52827 44.38038 42.45433
# Shear Modulus (GPa) = 21.17565 31.89796 26.53681
#
# Velocity S-wave (km/s) = 3.18257 3.90608 3.56274
# Velocity P-wave (km/s) = 5.73503 6.44759 6.10172
#
# Compressibility (1/GPa) = 0.02467413
#
# Stress axis : x y z
#
# Youngs Moduli (GPa) = 90.00052 45.84625 87.32169
#
# Poissons Ratio (x) = 0.33922 0.04320
# Poissons Ratio (y) = 0.66592 0.17086
# Poissons Ratio (z) = 0.04452 0.08971
#
# Static dielectric constant tensor:
#      x y z
#    x 1.752580 0.000000 0.000000 
#    y 0.000000 1.700350 0.000000 
#    z 0.000000 0.000000 1.780760 
# 
# From -- ./inp_files/18186.got.cif
#   From: 2010.05.17/outbox.cif.g08.bks.cpg/sg20_10_cif.got.tgz:18186.got - 2010.06.03 22:52:26.
