data_PCOD9320603
_publ_section_title
;
Structure prediction by ZEFSAII (Michael W. Deem and Ramdas Pophale) SiO2 
 PCOD9320603
Probable space group: C 2 2 21
;
_chemical_formula_sum "Si O2"
_cell_formula_units_Z 32
_cell_length_a 8.620751
_cell_length_b 19.322611
_cell_length_c 8.101459
_cell_angle_alpha 90.000000
_cell_angle_beta 90.000000
_cell_angle_gamma 90.000000
_cell_volume 1349.503920
_symmetry_space_group_name_H-M "C 2 2 21"
_symmetry_group_IT_number 20
_symmetry_cell_setting 'orthorhombic'
loop_
_space_group_symop_operation_xyz
x,y,z
-x,-y,1/2+z
x,-y,-z
-x,y,1/2-z
1/2+x,1/2+y,z
1/2-x,1/2-y,1/2+z
1/2+x,1/2-y,-z
1/2-x,1/2+y,1/2-z
loop_
_atom_site_type_symbol
_atom_site_label
_atom_site_fract_x
_atom_site_fract_y
_atom_site_fract_z
Si Si1 0.321909 0.905607 0.723396
Si Si2 0.326034 0.463183 0.320050
Si Si3 0.390283 0.696763 0.408062
Si Si4 0.810833 0.835499 0.101867
O O1 0.500000 0.886842 0.750000
O O2 0.220598 0.867515 0.864779
O O3 0.252300 0.879737 0.551912
O O4 0.296331 0.987265 0.729804
O O5 0.329406 0.500000 0.500000
O O6 0.500000 0.473650 0.250000
O O7 0.286874 0.384584 0.261753
O O8 0.500000 0.704649 0.250000
O O9 0.285576 0.764867 0.408833
O O10 0.510687 0.683923 0.557169
#
# Coordination Sequence:
#
# PCOD9320603 Si02
#       4
#     8   8   8   8
#     4  11  24  43  67  99 142 191 247 311 380 459
#     4  12  26  45  71 102 145 196 248 312 388 467
#     4  10  23  43  71 106 144 193 253 314 382 458
#     4  11  24  45  72 105 147 194 254 319 385 462
#
# _framework density 23.712416999999999
#
# number of rings (size 3 to 8) (size 9 to 14) (size 15 to 20)
#    0.000    1.000    0.000    7.500    0.000   14.000 
#    0.000    0.000    0.000    0.000    0.000    0.000 
#    0.000    0.000    0.000    0.000    0.000    0.000 
#
# Total GULP energy -89416.249658 kJ/mol
# GULP energy per Si atom -5588.515604 kJ/mol
# Density = 2.365845 g / cm^3
# Si number density = 23.712417 Si / 1000 Ang^3
#
#
#
# Elastic Constant Matrix: (Units=GPa)
#
#
# Indices 1 2 3 4 5 6 
#
# 1 134.9799 53.0486 14.8410 0.0000 0.0000 0.0000
# 2 53.0486 166.6223 52.1336 0.0000 0.0000 0.0000
# 3 14.8410 52.1336 106.0405 0.0000 0.0000 0.0000
# 4 0.0000 0.0000 0.0000 111.6504 0.0000 0.0000
# 5 0.0000 0.0000 0.0000 0.0000 0.8762 0.0000
# 6 0.0000 0.0000 0.0000 0.0000 0.0000 51.7303
#
#
#
# Elastic Compliance Matrix: (Units=1/GPa)
#
#
# Indices 1 2 3 4 5 6 
#
# 1 0.008471 -0.002749 0.000166 0.000000 0.000000 0.000000
# 2 -0.002749 0.007985 -0.003541 0.000000 0.000000 0.000000
# 3 0.000166 -0.003541 0.011148 0.000000 0.000000 0.000000
# 4 0.000000 0.000000 0.000000 0.008957 0.000000 0.000000
# 5 0.000000 0.000000 0.000000 0.000000 1.141274 0.000000
# 6 0.000000 0.000000 0.000000 0.000000 0.000000 0.019331
#
#
# Mechanical properties :
#
#
# Convention : Reuss Voigt Hill
#
# Bulk Modulus (GPa) = 65.12227 71.96547 68.54387
# Shear Modulus (GPa) = 4.11682 52.02603 28.07142
#
# Velocity S-wave (km/s) = 1.31906 4.68914 3.44441
# Velocity P-wave (km/s) = 5.46286 7.72868 6.69236
#
# Compressibility (1/GPa) = 0.01535573
#
# Stress axis : x y z
#
# Youngs Moduli (GPa) = 118.05609 125.24110 89.70257
#
# Poissons Ratio (x) = 0.34425 -0.01488
# Poissons Ratio (y) = 0.32450 0.31762
# Poissons Ratio (z) = -0.01958 0.44346
#
# Static dielectric constant tensor:
#      x y z
#    x 1.835660 0.000000 0.000000 
#    y 0.000000 1.951230 0.000000 
#    z 0.000000 0.000000 2.063310 
# 
# From -- ./inp_files/5794.got.cif
#   From: 2010.05.17/outbox.cif.g08.bks.cpg/sg20_3_cif.got.tgz:5794.got - 2010.06.03 22:52:26.
