data_PCOD9320818
_publ_section_title
;
Structure prediction by ZEFSAII (Michael W. Deem and Ramdas Pophale) SiO2 
 PCOD9320818
Probable space group: C 2 2 21
;
_chemical_formula_sum "Si O2"
_cell_formula_units_Z 32
_cell_length_a 8.618454
_cell_length_b 6.412956
_cell_length_c 23.050092
_cell_angle_alpha 90.000000
_cell_angle_beta 90.000000
_cell_angle_gamma 90.000000
_cell_volume 1273.973198
_symmetry_space_group_name_H-M "C 2 2 21"
_symmetry_group_IT_number 20
_symmetry_cell_setting 'orthorhombic'
loop_
_space_group_symop_operation_xyz
x,y,z
-x,-y,1/2+z
x,-y,-z
-x,y,1/2-z
1/2+x,1/2+y,z
1/2-x,1/2-y,1/2+z
1/2+x,1/2-y,-z
1/2-x,1/2+y,1/2-z
loop_
_atom_site_type_symbol
_atom_site_label
_atom_site_fract_x
_atom_site_fract_y
_atom_site_fract_z
Si Si1 0.466398 0.361507 0.316260
Si Si2 0.170505 0.774902 0.415961
Si Si3 0.538011 0.774721 0.023101
Si Si4 0.160597 0.204876 0.368497
O O1 0.500000 0.311435 0.250000
O O2 0.570607 0.216949 0.359282
O O3 0.288354 0.331303 0.333808
O O4 0.524959 0.597616 0.330030
O O5 0.314406 0.664304 0.447062
O O6 0.045895 0.818515 0.466647
O O7 0.240905 0.994056 0.393142
O O8 0.413507 0.806836 0.074543
O O9 0.590249 0.000000 0.000000
#
# Coordination Sequence:
#
# PCOD9320818 Si02
#       4
#     8   8   8   8
#     4  10  24  49  72 101 148 198 259 307 379 450
#     4  10  24  42  65 104 150 188 256 307 387 445
#     4  12  23  39  72 109 151 196 248 319 388 454
#     4  10  25  47  69 105 145 193 250 310 377 449
#
# _framework density 25.118265999999998
#
# number of rings (size 3 to 8) (size 9 to 14) (size 15 to 20)
#    1.500    0.000    0.000    5.250    3.500    2.000 
#    4.500    0.000    0.000    0.000    0.000    0.000 
#    0.000    0.000    0.000    0.000    0.000    0.000 
#
# Total GULP energy -89322.337859 kJ/mol
# GULP energy per Si atom -5582.646116 kJ/mol
# Density = 2.506110 g / cm^3
# Si number density = 25.118266 Si / 1000 Ang^3
#
#
#
# Elastic Constant Matrix: (Units=GPa)
#
#
# Indices 1 2 3 4 5 6 
#
# 1 148.8511 39.0199 79.7269 0.0000 0.0000 0.0000
# 2 39.0199 41.0511 22.5113 0.0000 0.0000 0.0000
# 3 79.7269 22.5113 225.5137 0.0000 0.0000 0.0000
# 4 0.0000 0.0000 0.0000 26.8769 0.0000 0.0000
# 5 0.0000 0.0000 0.0000 0.0000 34.3705 0.0000
# 6 0.0000 0.0000 0.0000 0.0000 0.0000 40.0448
#
#
#
# Elastic Compliance Matrix: (Units=1/GPa)
#
#
# Indices 1 2 3 4 5 6 
#
# 1 0.010438 -0.008356 -0.002856 0.000000 0.000000 0.000000
# 2 -0.008356 0.032459 -0.000286 0.000000 0.000000 0.000000
# 3 -0.002856 -0.000286 0.005473 0.000000 0.000000 0.000000
# 4 0.000000 0.000000 0.000000 0.037207 0.000000 0.000000
# 5 0.000000 0.000000 0.000000 0.000000 0.029095 0.000000
# 6 0.000000 0.000000 0.000000 0.000000 0.000000 0.024972
#
#
# Mechanical properties :
#
#
# Convention : Reuss Voigt Hill
#
# Bulk Modulus (GPa) = 39.41036 77.54800 58.47918
# Shear Modulus (GPa) = 29.22317 38.53562 33.87940
#
# Velocity S-wave (km/s) = 3.41460 3.92109 3.67658
# Velocity P-wave (km/s) = 5.59196 7.17218 6.43079
#
# Compressibility (1/GPa) = 0.02537404
#
# Stress axis : x y z
#
# Youngs Moduli (GPa) = 95.80131 30.80819 182.72651
#
# Poissons Ratio (x) = 0.25742 0.52191
# Poissons Ratio (y) = 0.80047 0.05229
# Poissons Ratio (z) = 0.27363 0.00882
#
# Static dielectric constant tensor:
#      x y z
#    x 1.979370 0.000000 0.000000 
#    y 0.000000 2.215130 0.000000 
#    z 0.000000 0.000000 1.917550 
# 
# From -- ./inp_files/26336.got.cif
#   From: 2010.05.17/outbox.cif.g08.bks.cpg/sg20_14_cif.got.tgz:26336.got - 2010.06.03 22:52:26.
