data_PCOD9320569
_publ_section_title
;
Structure prediction by ZEFSAII (Michael W. Deem and Ramdas Pophale) SiO2 
 PCOD9320569
Probable space group: C 2 2 21
;
_chemical_formula_sum "Si O2"
_cell_formula_units_Z 56
_cell_length_a 11.523604
_cell_length_b 9.582551
_cell_length_c 20.429243
_cell_angle_alpha 90.000000
_cell_angle_beta 90.000000
_cell_angle_gamma 90.000000
_cell_volume 2255.909843
_symmetry_space_group_name_H-M "C 2 2 21"
_symmetry_group_IT_number 20
_symmetry_cell_setting 'orthorhombic'
loop_
_space_group_symop_operation_xyz
x,y,z
-x,-y,1/2+z
x,-y,-z
-x,y,1/2-z
1/2+x,1/2+y,z
1/2-x,1/2-y,1/2+z
1/2+x,1/2-y,-z
1/2-x,1/2+y,1/2-z
loop_
_atom_site_type_symbol
_atom_site_label
_atom_site_fract_x
_atom_site_fract_y
_atom_site_fract_z
Si Si1 0.870577 0.330324 0.129046
Si Si2 0.387296 0.282396 0.587025
Si Si3 0.483091 0.075718 0.344704
Si Si4 0.152887 0.711774 0.050546
Si Si5 0.160654 0.662276 0.774709
Si Si6 0.022157 0.954093 0.435054
Si Si7 0.082887 0.123575 0.699692
O O1 0.755488 0.281180 0.092870
O O2 0.879980 0.279125 0.204749
O O3 0.981466 0.276307 0.089605
O O4 0.898469 0.495098 0.136125
O O5 0.318562 0.212729 0.526696
O O6 0.342156 0.255415 0.659866
O O7 0.410999 0.444660 0.574200
O O8 0.396400 0.083471 0.407328
O O9 0.519917 0.227824 0.317762
O O10 0.409262 0.978511 0.294658
O O11 0.036839 0.807017 0.052047
O O12 0.295828 0.635161 0.764920
O O13 0.095003 0.953198 0.369363
O O14 0.088359 0.000000 0.500000
O O15 0.000000 0.045719 0.750000
#
# Coordination Sequence:
#
# PCOD9320569 Si02
#       7
#     8   8   8   8   8   8   8
#     4  11  24  42  69  97 135 176 219 288 340 405
#     4  10  23  43  64 102 133 175 232 278 340 419
#     4  10  23  45  67  99 137 173 226 284 334 415
#     4  10  23  44  67  96 133 179 226 273 344 399
#     4  11  24  41  67 101 133 176 224 279 354 404
#     4   9  21  42  61  91 132 169 223 276 330 402
#     4  11  23  42  67  97 135 180 224 280 347 409
#
# _framework density 24.823685999999999
#
# number of rings (size 3 to 8) (size 9 to 14) (size 15 to 20)
#    0.000    1.714    0.000    4.286    4.000    6.857 
#    7.714    0.000    0.000    0.000    0.000    0.000 
#    0.000    0.000    0.000    0.000    0.000    0.000 
#
# Total GULP energy -156427.653251 kJ/mol
# GULP energy per Si atom -5586.701902 kJ/mol
# Density = 2.476719 g / cm^3
# Si number density = 24.823686 Si / 1000 Ang^3
#
#
#
# Elastic Constant Matrix: (Units=GPa)
#
#
# Indices 1 2 3 4 5 6 
#
# 1 69.6091 2.9756 27.8958 0.0000 0.0000 0.0000
# 2 2.9756 42.3280 40.7273 0.0000 0.0000 0.0000
# 3 27.8958 40.7273 197.6098 0.0000 0.0000 0.0000
# 4 0.0000 0.0000 0.0000 74.6554 0.0000 0.0000
# 5 0.0000 0.0000 0.0000 0.0000 44.1756 0.0000
# 6 0.0000 0.0000 0.0000 0.0000 0.0000 20.0811
#
#
#
# Elastic Compliance Matrix: (Units=1/GPa)
#
#
# Indices 1 2 3 4 5 6 
#
# 1 0.015280 0.001249 -0.002414 0.000000 0.000000 0.000000
# 2 0.001249 0.029571 -0.006271 0.000000 0.000000 0.000000
# 3 -0.002414 -0.006271 0.006694 0.000000 0.000000 0.000000
# 4 0.000000 0.000000 0.000000 0.013395 0.000000 0.000000
# 5 0.000000 0.000000 0.000000 0.000000 0.022637 0.000000
# 6 0.000000 0.000000 0.000000 0.000000 0.000000 0.049798
#
#
# Mechanical properties :
#
#
# Convention : Reuss Voigt Hill
#
# Bulk Modulus (GPa) = 27.26865 50.30493 38.78679
# Shear Modulus (GPa) = 30.40042 43.64564 37.02303
#
# Velocity S-wave (km/s) = 3.50330 4.19767 3.86611
# Velocity P-wave (km/s) = 5.23192 6.61837 5.96556
#
# Compressibility (1/GPa) = 0.03667215
#
# Stress axis : x y z
#
# Youngs Moduli (GPa) = 65.44446 33.81692 149.39322
#
# Poissons Ratio (x) = -0.04224 0.36070
# Poissons Ratio (y) = -0.08174 0.93683
# Poissons Ratio (z) = 0.15801 0.21206
#
# Static dielectric constant tensor:
#      x y z
#    x 1.866780 0.000000 0.000000 
#    y 0.000000 2.075150 0.000000 
#    z 0.000000 0.000000 2.178090 
# 
# From -- ./inp_files/27186.got.cif
#   From: 2010.05.17/outbox.cif.g08.bks.cpg/sg20_14_cif.got.tgz:27186.got - 2010.06.03 22:52:26.
