data_PCOD9320708
_publ_section_title
;
Structure prediction by ZEFSAII (Michael W. Deem and Ramdas Pophale) SiO2 
 PCOD9320708
Probable space group: C 2 2 21
;
_chemical_formula_sum "Si O2"
_cell_formula_units_Z 36
_cell_length_a 9.181768
_cell_length_b 18.337827
_cell_length_c 9.713371
_cell_angle_alpha 90.000000
_cell_angle_beta 90.000000
_cell_angle_gamma 90.000000
_cell_volume 1635.475954
_symmetry_space_group_name_H-M "C 2 2 21"
_symmetry_group_IT_number 20
_symmetry_cell_setting 'orthorhombic'
loop_
_space_group_symop_operation_xyz
x,y,z
-x,-y,1/2+z
x,-y,-z
-x,y,1/2-z
1/2+x,1/2+y,z
1/2-x,1/2-y,1/2+z
1/2+x,1/2-y,-z
1/2-x,1/2+y,1/2-z
loop_
_atom_site_type_symbol
_atom_site_label
_atom_site_fract_x
_atom_site_fract_y
_atom_site_fract_z
Si Si1 0.017719 0.668203 0.909124
Si Si2 0.845095 0.207869 0.992871
Si Si3 0.000000 0.880912 0.250000
Si Si4 0.000000 0.867277 0.750000
Si Si5 0.289664 0.509795 0.343712
Si Si6 0.500000 0.026941 0.750000
O O1 0.006397 0.581814 0.881972
O O2 0.000000 0.693741 0.750000
O O3 0.891311 0.707137 0.996339
O O4 0.174722 0.693175 0.966042
O O5 0.903660 0.173956 0.135961
O O6 0.935264 0.168804 0.871058
O O7 0.127702 0.936066 0.203152
O O8 0.106178 0.921643 0.831121
O O9 0.248684 0.500000 0.500000
O O10 0.145991 0.518564 0.253736
#
# Coordination Sequence:
#
# PCOD9320708 Si02
#       6
#     8   8   4   4   8   4
#     4  10  25  44  69 102 142 184 236 295 365 424
#     4  12  24  44  71 100 145 177 242 295 352 436
#     4  11  22  42  67  95 132 188 225 290 356 415
#     4  11  25  42  70 106 135 180 239 280 356 429
#     4  11  23  41  67  96 136 187 230 284 348 415
#     4  10  23  46  59 101 143 176 242 284 348 430
#
# _framework density 22.011941
#
# number of rings (size 3 to 8) (size 9 to 14) (size 15 to 20)
#    0.667    0.444    5.556    0.000    6.222    1.778 
#    0.000    0.000    0.000    0.000    0.000    0.000 
#    0.000    0.000    0.000    0.000    0.000    0.000 
#
# Total GULP energy -100525.875034 kJ/mol
# GULP energy per Si atom -5584.770835 kJ/mol
# Density = 2.196184 g / cm^3
# Si number density = 22.011941 Si / 1000 Ang^3
#
#
#
# Elastic Constant Matrix: (Units=GPa)
#
#
# Indices 1 2 3 4 5 6 
#
# 1 120.2491 11.0326 13.0110 0.0000 0.0000 0.0000
# 2 11.0326 25.2899 10.5653 0.0000 0.0000 0.0000
# 3 13.0110 10.5653 80.1577 0.0000 0.0000 0.0000
# 4 0.0000 0.0000 0.0000 9.4080 0.0000 0.0000
# 5 0.0000 0.0000 0.0000 0.0000 44.7632 0.0000
# 6 0.0000 0.0000 0.0000 0.0000 0.0000 -283.6223
#
#
#
# Elastic Compliance Matrix: (Units=1/GPa)
#
#
# Indices 1 2 3 4 5 6 
#
# 1 0.008733 -0.003405 -0.000969 0.000000 0.000000 0.000000
# 2 -0.003405 0.043173 -0.005138 0.000000 0.000000 0.000000
# 3 -0.000969 -0.005138 0.013310 0.000000 0.000000 0.000000
# 4 0.000000 0.000000 0.000000 0.106292 0.000000 0.000000
# 5 0.000000 0.000000 0.000000 0.000000 0.022340 0.000000
# 6 0.000000 0.000000 0.000000 0.000000 0.000000 -0.003526
#
#
# Mechanical properties :
#
#
# Convention : Reuss Voigt Hill
#
# Bulk Modulus (GPa) = 21.64828 32.76829 27.20828
# Shear Modulus (GPa) = 22.24757 -33.15103 -5.45173
#
# Velocity S-wave (km/s) = 3.18261 -3.88499 -1.57546
# Velocity P-wave (km/s) = 4.83337 2.28152 3.01298
#
# Compressibility (1/GPa) = 0.04619305
#
# Stress axis : x y z
#
# Youngs Moduli (GPa) = 114.50418 23.16248 75.13237
#
# Poissons Ratio (x) = 0.07887 0.07278
# Poissons Ratio (y) = 0.38990 0.38601
# Poissons Ratio (z) = 0.11093 0.11900
#
# Static dielectric constant tensor:
#      x y z
#    x 1.774790 0.000000 0.000000 
#    y 0.000000 1.855300 0.000000 
#    z 0.000000 0.000000 1.887030 
# 
# From -- ./inp_files/12867.got.cif
#   From: 2010.05.17/outbox.cif.g08.bks.cpg/sg20_7_cif.got.tgz:12867.got - 2010.06.03 22:52:26.
