data_PCOD9320309
_publ_section_title
;
Structure prediction by ZEFSAII (Michael W. Deem and Ramdas Pophale) SiO2 
 PCOD9320309
Probable space group: C 2 2 21
;
_chemical_formula_sum "Si O2"
_cell_formula_units_Z 40
_cell_length_a 9.152596
_cell_length_b 24.428583
_cell_length_c 7.205643
_cell_angle_alpha 90.000000
_cell_angle_beta 90.000000
_cell_angle_gamma 90.000000
_cell_volume 1611.073337
_symmetry_space_group_name_H-M "C 2 2 21"
_symmetry_group_IT_number 20
_symmetry_cell_setting 'orthorhombic'
loop_
_space_group_symop_operation_xyz
x,y,z
-x,-y,1/2+z
x,-y,-z
-x,y,1/2-z
1/2+x,1/2+y,z
1/2-x,1/2-y,1/2+z
1/2+x,1/2-y,-z
1/2-x,1/2+y,1/2-z
loop_
_atom_site_type_symbol
_atom_site_label
_atom_site_fract_x
_atom_site_fract_y
_atom_site_fract_z
Si Si1 0.006023 0.500000 0.500000
Si Si2 0.883321 0.879292 0.548716
Si Si3 0.655077 0.822898 0.302333
Si Si4 0.266680 0.956559 0.691045
Si Si5 0.587348 0.280980 0.439858
Si Si6 0.000000 0.037268 0.750000
O O1 0.878212 0.452240 0.516106
O O2 0.121009 0.519001 0.344263
O O3 0.742611 0.864478 0.428052
O O4 0.817196 0.902198 0.739808
O O5 0.963499 0.925568 0.427788
O O6 0.984245 0.825649 0.539159
O O7 0.500000 0.846347 0.250000
O O8 0.621359 0.768847 0.424940
O O9 0.760597 0.806529 0.132577
O O10 0.137048 0.000421 0.697338
O O11 0.500000 0.264849 0.250000
#
# Coordination Sequence:
#
# PCOD9320309 Si02
#       6
#     4   8   8   8   8   4
#     4  10  24  46  68 104 156 174 244 318 368 414
#     4  11  23  46  72 101 144 198 247 293 380 443
#     4  11  22  42  73 103 145 190 243 314 372 436
#     4  11  25  46  73 105 147 197 244 306 370 447
#     4  10  22  45  68 104 147 193 251 302 369 449
#     4  12  22  46  70 102 142 196 252 290 360 466
#
# _framework density 24.828166
#
# number of rings (size 3 to 8) (size 9 to 14) (size 15 to 20)
#    0.000    1.200    5.000    2.400    2.800    1.600 
#    9.000    0.000    0.000    0.000    0.000    0.000 
#    0.000    0.000    0.000    0.000    0.000    0.000 
#
# Total GULP energy -111794.915243 kJ/mol
# GULP energy per Si atom -5589.745762 kJ/mol
# Density = 2.477166 g / cm^3
# Si number density = 24.828166 Si / 1000 Ang^3
#
#
#
# Elastic Constant Matrix: (Units=GPa)
#
#
# Indices 1 2 3 4 5 6 
#
# 1 195.9765 44.0467 41.2154 0.0000 0.0000 0.0000
# 2 44.0467 72.5249 29.0569 0.0000 0.0000 0.0000
# 3 41.2154 29.0569 80.1996 0.0000 0.0000 0.0000
# 4 0.0000 0.0000 0.0000 34.6066 0.0000 0.0000
# 5 0.0000 0.0000 0.0000 0.0000 39.5600 0.0000
# 6 0.0000 0.0000 0.0000 0.0000 0.0000 10.1797
#
#
#
# Elastic Compliance Matrix: (Units=1/GPa)
#
#
# Indices 1 2 3 4 5 6 
#
# 1 0.006206 -0.002915 -0.002134 0.000000 0.000000 0.000000
# 2 -0.002915 0.017498 -0.004842 0.000000 0.000000 0.000000
# 3 -0.002134 -0.004842 0.015320 0.000000 0.000000 0.000000
# 4 0.000000 0.000000 0.000000 0.028896 0.000000 0.000000
# 5 0.000000 0.000000 0.000000 0.000000 0.025278 0.000000
# 6 0.000000 0.000000 0.000000 0.000000 0.000000 0.098235
#
#
# Mechanical properties :
#
#
# Convention : Reuss Voigt Hill
#
# Bulk Modulus (GPa) = 51.96358 64.14876 58.05617
# Shear Modulus (GPa) = 22.97493 32.49471 27.73482
#
# Velocity S-wave (km/s) = 3.04527 3.62164 3.34589
# Velocity P-wave (km/s) = 5.77405 6.58646 6.19359
#
# Compressibility (1/GPa) = 0.01924425
#
# Stress axis : x y z
#
# Youngs Moduli (GPa) = 161.12345 57.14814 65.27571
#
# Poissons Ratio (x) = 0.16656 0.13927
# Poissons Ratio (y) = 0.46960 0.31606
# Poissons Ratio (z) = 0.34377 0.27671
#
# Static dielectric constant tensor:
#      x y z
#    x 1.939130 0.000000 0.000000 
#    y 0.000000 1.960360 0.000000 
#    z 0.000000 0.000000 2.190750 
# 
# From -- ./inp_files/6180.got.cif
#   From: 2010.05.17/outbox.cif.g08.bks.cpg/sg20_4_cif.got.tgz:6180.got - 2010.06.03 22:52:26.
