data_PCOD9320018
_publ_section_title
;
Structure prediction by ZEFSAII (Michael W. Deem and Ramdas Pophale) SiO2 
 PCOD9320018
Probable space group: C 2 2 21
;
_chemical_formula_sum "Si O2"
_cell_formula_units_Z 40
_cell_length_a 10.649980
_cell_length_b 8.930178
_cell_length_c 21.566469
_cell_angle_alpha 90.000000
_cell_angle_beta 90.000000
_cell_angle_gamma 90.000000
_cell_volume 2051.105283
_symmetry_space_group_name_H-M "C 2 2 21"
_symmetry_group_IT_number 20
_symmetry_cell_setting 'orthorhombic'
loop_
_space_group_symop_operation_xyz
x,y,z
-x,-y,1/2+z
x,-y,-z
-x,y,1/2-z
1/2+x,1/2+y,z
1/2-x,1/2-y,1/2+z
1/2+x,1/2-y,-z
1/2-x,1/2+y,1/2-z
loop_
_atom_site_type_symbol
_atom_site_label
_atom_site_fract_x
_atom_site_fract_y
_atom_site_fract_z
Si Si1 0.273258 0.754380 0.087592
Si Si2 0.110115 0.500000 0.500000
Si Si3 0.370665 0.694138 0.786512
Si Si4 0.487976 0.253867 0.086097
Si Si5 0.867691 0.166263 0.217198
Si Si6 0.628539 0.500000 0.500000
O O1 0.359499 0.733662 0.147967
O O2 0.129983 0.764262 0.109341
O O3 0.291558 0.611311 0.042913
O O4 0.308849 0.897204 0.046198
O O5 0.029298 0.388989 0.542258
O O6 0.500000 0.728650 0.750000
O O7 0.392939 0.749680 0.856497
O O8 0.249397 0.768789 0.755748
O O9 0.356036 0.513932 0.787057
O O10 0.455480 0.397585 0.044544
O O11 0.000000 0.201231 0.250000
#
# Coordination Sequence:
#
# PCOD9320018 Si02
#       6
#     8   4   8   8   8   4
#     4  11  22  44  65  95 130 166 216 268 319 387
#     4  10  26  38  64 102 124 166 214 262 326 384
#     4  11  24  44  67  93 127 175 215 265 323 381
#     4  11  22  42  67  91 129 167 215 265 323 385
#     4  11  26  43  66  97 131 171 221 268 323 379
#     4  10  22  42  62  94 126 172 208 268 326 378
#
# _framework density 19.501678999999999
#
# number of rings (size 3 to 8) (size 9 to 14) (size 15 to 20)
#    0.000    1.200    4.000    1.200    2.800    2.400 
#   14.400    0.000    0.000    0.000    0.000    0.000 
#    0.000    0.000    0.000    0.000    0.000    0.000 
#
# Total GULP energy -111786.255419 kJ/mol
# GULP energy per Si atom -5589.312771 kJ/mol
# Density = 1.945729 g / cm^3
# Si number density = 19.501679 Si / 1000 Ang^3
#
#
#
# Elastic Constant Matrix: (Units=GPa)
#
#
# Indices 1 2 3 4 5 6 
#
# 1 114.9399 37.0986 49.5848 0.0000 0.0000 0.0000
# 2 37.0986 79.8879 36.3584 0.0000 0.0000 0.0000
# 3 49.5848 36.3584 134.7145 0.0000 0.0000 0.0000
# 4 0.0000 0.0000 0.0000 17.1187 0.0000 0.0000
# 5 0.0000 0.0000 0.0000 0.0000 37.9012 0.0000
# 6 0.0000 0.0000 0.0000 0.0000 0.0000 9.6887
#
#
#
# Elastic Compliance Matrix: (Units=1/GPa)
#
#
# Indices 1 2 3 4 5 6 
#
# 1 0.011279 -0.003817 -0.003121 0.000000 0.000000 0.000000
# 2 -0.003817 0.015562 -0.002795 0.000000 0.000000 0.000000
# 3 -0.003121 -0.002795 0.009326 0.000000 0.000000 0.000000
# 4 0.000000 0.000000 0.000000 0.058416 0.000000 0.000000
# 5 0.000000 0.000000 0.000000 0.000000 0.026384 0.000000
# 6 0.000000 0.000000 0.000000 0.000000 0.000000 0.103213
#
#
# Mechanical properties :
#
#
# Convention : Reuss Voigt Hill
#
# Bulk Modulus (GPa) = 59.87890 63.95844 61.91867
# Shear Modulus (GPa) = 20.06312 26.70844 23.38578
#
# Velocity S-wave (km/s) = 3.21095 3.70475 3.46666
# Velocity P-wave (km/s) = 6.67219 7.15317 6.91686
#
# Compressibility (1/GPa) = 0.01670037
#
# Stress axis : x y z
#
# Youngs Moduli (GPa) = 88.66268 64.25794 107.22352
#
# Poissons Ratio (x) = 0.24528 0.33466
# Poissons Ratio (y) = 0.33844 0.29971
# Poissons Ratio (z) = 0.27673 0.17961
#
# Static dielectric constant tensor:
#      x y z
#    x 1.655550 0.000000 0.000000 
#    y 0.000000 1.660960 0.000000 
#    z 0.000000 0.000000 1.671200 
# 
# From -- ./inp_files/23204.got.cif
#   From: 2010.05.17/outbox.cif.g08.bks.cpg/sg20_12_cif.got.tgz:23204.got - 2010.06.03 22:52:26.
