data_PCOD9320678
_publ_section_title
;
Structure prediction by ZEFSAII (Michael W. Deem and Ramdas Pophale) SiO2 
 PCOD9320678
Probable space group: C 2 2 21
;
_chemical_formula_sum "Si O2"
_cell_formula_units_Z 52
_cell_length_a 11.774732
_cell_length_b 25.662150
_cell_length_c 8.066361
_cell_angle_alpha 90.000000
_cell_angle_beta 90.000000
_cell_angle_gamma 90.000000
_cell_volume 2437.371478
_symmetry_space_group_name_H-M "C 2 2 21"
_symmetry_group_IT_number 20
_symmetry_cell_setting 'orthorhombic'
loop_
_space_group_symop_operation_xyz
x,y,z
-x,-y,1/2+z
x,-y,-z
-x,y,1/2-z
1/2+x,1/2+y,z
1/2-x,1/2-y,1/2+z
1/2+x,1/2-y,-z
1/2-x,1/2+y,1/2-z
loop_
_atom_site_type_symbol
_atom_site_label
_atom_site_fract_x
_atom_site_fract_y
_atom_site_fract_z
Si Si1 0.749533 0.096757 0.185693
Si Si2 0.148967 0.000000 0.500000
Si Si3 0.000000 0.066880 0.750000
Si Si4 0.684766 0.629751 0.957759
Si Si5 0.124014 0.771657 0.177363
Si Si6 0.415370 0.185049 0.902763
Si Si7 0.000000 0.360834 0.750000
Si Si8 0.199293 0.203960 0.466290
O O1 0.777091 0.042679 0.097624
O O2 0.799027 0.099740 0.371638
O O3 0.614009 0.107049 0.199785
O O4 0.814454 0.144618 0.091023
O O5 0.067465 0.968705 0.377460
O O6 0.096158 0.101375 0.839521
O O7 0.632496 0.687978 0.974825
O O8 0.809605 0.644602 0.889360
O O9 0.195647 0.791688 0.336021
O O10 0.180105 0.719452 0.113116
O O11 0.000000 0.770546 0.250000
O O12 0.500000 0.177868 0.750000
O O13 0.376844 0.246204 0.908625
O O14 0.463164 0.170889 0.084976
#
# Coordination Sequence:
#
# PCOD9320678 Si02
#       8
#     8   4   4   8   8   8   4   8
#     4  11  26  49  71 105 139 191 245 310 363 439
#     4  12  28  48  76 102 136 184 252 310 380 426
#     4  12  24  48  73 104 140 184 233 314 364 438
#     4  10  23  45  70 106 143 183 237 287 370 442
#     4  11  23  40  63 103 146 194 228 288 348 441
#     4  10  24  43  70 112 149 199 238 292 355 455
#     4  10  24  48  77 104 154 192 245 302 370 444
#     4  11  25  39  64 102 146 188 244 279 359 428
#
# _framework density 21.334455999999999
#
# number of rings (size 3 to 8) (size 9 to 14) (size 15 to 20)
#    0.000    1.231    0.769    4.615   10.769    1.231 
#    1.385    3.077    0.000    0.000    0.000    0.000 
#    0.000    0.000    0.000    0.000    0.000    0.000 
#
# Total GULP energy -145245.418665 kJ/mol
# GULP energy per Si atom -5586.362256 kJ/mol
# Density = 2.128590 g / cm^3
# Si number density = 21.334456 Si / 1000 Ang^3
#
#
#
# Elastic Constant Matrix: (Units=GPa)
#
#
# Indices 1 2 3 4 5 6 
#
# 1 139.4175 64.7360 79.3200 0.0000 0.0000 0.0000
# 2 64.7360 142.8711 67.1091 0.0000 0.0000 0.0000
# 3 79.3200 67.1091 131.3356 0.0000 0.0000 0.0000
# 4 0.0000 0.0000 0.0000 34.2456 0.0000 0.0000
# 5 0.0000 0.0000 0.0000 0.0000 35.7115 0.0000
# 6 0.0000 0.0000 0.0000 0.0000 0.0000 31.6821
#
#
#
# Elastic Compliance Matrix: (Units=1/GPa)
#
#
# Indices 1 2 3 4 5 6 
#
# 1 0.011612 -0.002589 -0.005690 0.000000 0.000000 0.000000
# 2 -0.002589 0.009787 -0.003437 0.000000 0.000000 0.000000
# 3 -0.005690 -0.003437 0.012807 0.000000 0.000000 0.000000
# 4 0.000000 0.000000 0.000000 0.029201 0.000000 0.000000
# 5 0.000000 0.000000 0.000000 0.000000 0.028002 0.000000
# 6 0.000000 0.000000 0.000000 0.000000 0.000000 0.031564
#
#
# Mechanical properties :
#
#
# Convention : Reuss Voigt Hill
#
# Bulk Modulus (GPa) = 92.82223 92.88381 92.85302
# Shear Modulus (GPa) = 33.33397 33.82510 33.57954
#
# Velocity S-wave (km/s) = 3.95707 3.98611 3.97162
# Velocity P-wave (km/s) = 8.02997 8.05090 8.04044
#
# Compressibility (1/GPa) = 0.01077328
#
# Stress axis : x y z
#
# Youngs Moduli (GPa) = 86.11618 102.17756 78.08078
#
# Poissons Ratio (x) = 0.26451 0.44431
# Poissons Ratio (y) = 0.22293 0.26840
# Poissons Ratio (z) = 0.49004 0.35123
#
# Static dielectric constant tensor:
#      x y z
#    x 1.863520 0.000000 0.000000 
#    y 0.000000 1.779360 0.000000 
#    z 0.000000 0.000000 1.770260 
# 
# From -- ./inp_files/7541.got.cif
#   From: 2010.05.17/outbox.cif.g08.bks.cpg/sg20_4_cif.got.tgz:7541.got - 2010.06.03 22:52:26.
