data_PCOD9320964
_publ_section_title
;
Structure prediction by ZEFSAII (Michael W. Deem and Ramdas Pophale) SiO2 
 PCOD9320964
Probable space group: C 2 2 21
;
_chemical_formula_sum "Si O2"
_cell_formula_units_Z 40
_cell_length_a 21.834021
_cell_length_b 8.167992
_cell_length_c 9.033562
_cell_angle_alpha 90.000000
_cell_angle_beta 90.000000
_cell_angle_gamma 90.000000
_cell_volume 1611.046430
_symmetry_space_group_name_H-M "C 2 2 21"
_symmetry_group_IT_number 20
_symmetry_cell_setting 'orthorhombic'
loop_
_space_group_symop_operation_xyz
x,y,z
-x,-y,1/2+z
x,-y,-z
-x,y,1/2-z
1/2+x,1/2+y,z
1/2-x,1/2-y,1/2+z
1/2+x,1/2-y,-z
1/2-x,1/2+y,1/2-z
loop_
_atom_site_type_symbol
_atom_site_label
_atom_site_fract_x
_atom_site_fract_y
_atom_site_fract_z
Si Si1 0.896379 0.675022 0.580223
Si Si2 0.197130 0.748704 0.149664
Si Si3 0.021151 0.788970 0.600213
Si Si4 0.103738 0.904479 0.372922
Si Si5 0.323866 0.071505 0.839837
O O1 0.909426 0.500000 0.500000
O O2 0.832781 0.736550 0.511081
O O3 0.952258 0.791885 0.534749
O O4 0.879976 0.656975 0.754227
O O5 0.148601 0.854143 0.245104
O O6 0.264989 0.815275 0.143279
O O7 0.195339 0.574781 0.230655
O O8 0.000000 0.690706 0.750000
O O9 0.066011 0.760553 0.458536
O O10 0.052130 0.957903 0.658175
O O11 0.142338 0.000000 0.500000
O O12 0.338689 0.000000 0.000000
#
# Coordination Sequence:
#
# PCOD9320964 Si02
#       5
#     8   8   8   8   8
#     4  10  24  46  67  96 148 184 239 303 364 437
#     4  11  24  46  70 103 144 190 241 304 365 440
#     4   9  21  40  63 102 134 182 231 294 351 429
#     4   8  23  38  68 101 139 189 233 300 353 443
#     4  11  26  45  72 105 138 193 240 302 373 439
#
# _framework density 24.828583999999999
#
# number of rings (size 3 to 8) (size 9 to 14) (size 15 to 20)
#    1.200    0.800    0.000    1.200    8.400    7.200 
#    7.200    0.000    0.000    0.000    0.000    0.000 
#    0.000    0.000    0.000    0.000    0.000    0.000 
#
# Total GULP energy -111474.419576 kJ/mol
# GULP energy per Si atom -5573.720979 kJ/mol
# Density = 2.477207 g / cm^3
# Si number density = 24.828584 Si / 1000 Ang^3
#
#
#
# Elastic Constant Matrix: (Units=GPa)
#
#
# Indices 1 2 3 4 5 6 
#
# 1 125.1522 51.8429 14.8932 0.0000 0.0000 0.0000
# 2 51.8429 60.8785 3.6555 0.0000 0.0000 0.0000
# 3 14.8932 3.6555 107.7007 0.0000 0.0000 0.0000
# 4 0.0000 0.0000 0.0000 31.3364 0.0000 0.0000
# 5 0.0000 0.0000 0.0000 0.0000 -8.0356 0.0000
# 6 0.0000 0.0000 0.0000 0.0000 0.0000 39.7977
#
#
#
# Elastic Compliance Matrix: (Units=1/GPa)
#
#
# Indices 1 2 3 4 5 6 
#
# 1 0.012545 -0.010601 -0.001375 0.000000 0.000000 0.000000
# 2 -0.010601 0.025417 0.000603 0.000000 0.000000 0.000000
# 3 -0.001375 0.000603 0.009455 0.000000 0.000000 0.000000
# 4 0.000000 0.000000 0.000000 0.031912 0.000000 0.000000
# 5 0.000000 0.000000 0.000000 0.000000 -0.124446 0.000000
# 6 0.000000 0.000000 0.000000 0.000000 0.000000 0.025127
#
#
# Mechanical properties :
#
#
# Convention : Reuss Voigt Hill
#
# Bulk Modulus (GPa) = 40.53146 48.27940 44.40543
# Shear Modulus (GPa) = 455.43515 27.50903 241.47209
#
# Velocity S-wave (km/s) = 13.55839 3.33221 9.87253
# Velocity P-wave (km/s) = 16.16993 5.85595 12.16057
#
# Compressibility (1/GPa) = 0.02467219
#
# Stress axis : x y z
#
# Youngs Moduli (GPa) = 79.71271 39.34350 105.76805
#
# Poissons Ratio (x) = 0.41706 0.14543
# Poissons Ratio (y) = 0.84500 -0.06380
# Poissons Ratio (z) = 0.10960 -0.02373
#
# Static dielectric constant tensor:
#      x y z
#    x 1.993970 0.000000 0.000000 
#    y 0.000000 2.057770 0.000000 
#    z 0.000000 0.000000 2.116290 
# 
# From -- ./inp_files/9978.got.cif
#   From: 2010.05.17/outbox.cif.g08.bks.cpg/sg20_5_cif.got.tgz:9978.got - 2010.06.03 22:52:26.
