data_PCOD9320064
_publ_section_title
;
Structure prediction by ZEFSAII (Michael W. Deem and Ramdas Pophale) SiO2 
 PCOD9320064
Probable space group: C 2 2 21
;
_chemical_formula_sum "Si O2"
_cell_formula_units_Z 60
_cell_length_a 10.794185
_cell_length_b 8.392492
_cell_length_c 30.442292
_cell_angle_alpha 90.000000
_cell_angle_beta 90.000000
_cell_angle_gamma 90.000000
_cell_volume 2757.770619
_symmetry_space_group_name_H-M "C 2 2 21"
_symmetry_group_IT_number 20
_symmetry_cell_setting 'orthorhombic'
loop_
_space_group_symop_operation_xyz
x,y,z
-x,-y,1/2+z
x,-y,-z
-x,y,1/2-z
1/2+x,1/2+y,z
1/2-x,1/2-y,1/2+z
1/2+x,1/2-y,-z
1/2-x,1/2+y,1/2-z
loop_
_atom_site_type_symbol
_atom_site_label
_atom_site_fract_x
_atom_site_fract_y
_atom_site_fract_z
Si Si1 0.540789 0.218583 0.170134
Si Si2 0.168911 0.681152 0.485689
Si Si3 0.000000 0.498749 0.250000
Si Si4 0.294333 0.210812 0.703748
Si Si5 0.846618 0.566603 0.613895
Si Si6 0.134209 0.035408 0.762578
Si Si7 0.046753 0.193599 0.045876
Si Si8 0.424129 0.395445 0.089829
O O1 0.476223 0.109737 0.207529
O O2 0.629212 0.328325 0.200343
O O3 0.468624 0.333326 0.136919
O O4 0.603614 0.090308 0.137716
O O5 0.148201 0.500000 0.500000
O O6 0.320255 0.697963 0.480740
O O7 0.107278 0.740399 0.440044
O O8 0.081158 0.780740 0.519097
O O9 0.892612 0.383163 0.266224
O O10 0.326212 0.193893 0.653135
O O11 0.175848 0.110444 0.716958
O O12 0.289203 0.389382 0.719702
O O13 0.933693 0.658240 0.579384
O O14 0.712303 0.526818 0.593804
O O15 0.000000 0.971760 0.750000
O O16 0.022017 0.022302 0.069580
#
# Coordination Sequence:
#
# PCOD9320064 Si02
#       8
#     8   8   4   8   8   8   8   8
#     4  11  23  43  64  97 141 182 236 289 343 405
#     4  11  24  44  74 102 137 175 226 281 357 431
#     4  10  22  42  66  96 132 184 240 282 338 402
#     4  11  23  42  65  95 137 183 239 289 343 401
#     4  10  24  42  64  99 139 182 228 290 348 418
#     4  12  24  40  64  94 132 188 241 296 345 407
#     4  11  25  47  72 106 137 181 229 286 358 437
#     4  11  24  43  69  98 143 176 226 284 353 422
#
# _framework density 21.756705
#
# number of rings (size 3 to 8) (size 9 to 14) (size 15 to 20)
#    0.000    1.067    1.333    5.200    1.867    4.267 
#    4.800    0.000    0.000    0.000    0.000    0.000 
#    0.000    0.000    0.000    0.000    0.000    0.000 
#
# Total GULP energy -167289.499239 kJ/mol
# GULP energy per Si atom -5576.316641 kJ/mol
# Density = 2.170719 g / cm^3
# Si number density = 21.756705 Si / 1000 Ang^3
#
#
#
# Elastic Constant Matrix: (Units=GPa)
#
#
# Indices 1 2 3 4 5 6 
#
# 1 94.0055 38.4152 51.3078 0.0000 0.0000 0.0000
# 2 38.4152 90.9270 37.0857 0.0000 0.0000 0.0000
# 3 51.3078 37.0857 117.4962 0.0000 0.0000 0.0000
# 4 0.0000 0.0000 0.0000 99.6719 0.0000 0.0000
# 5 0.0000 0.0000 0.0000 0.0000 30.5709 0.0000
# 6 0.0000 0.0000 0.0000 0.0000 0.0000 25.8048
#
#
#
# Elastic Compliance Matrix: (Units=1/GPa)
#
#
# Indices 1 2 3 4 5 6 
#
# 1 0.015298 -0.004291 -0.005326 0.000000 0.000000 0.000000
# 2 -0.004291 0.013826 -0.002490 0.000000 0.000000 0.000000
# 3 -0.005326 -0.002490 0.011623 0.000000 0.000000 0.000000
# 4 0.000000 0.000000 0.000000 0.010033 0.000000 0.000000
# 5 0.000000 0.000000 0.000000 0.000000 0.032711 0.000000
# 6 0.000000 0.000000 0.000000 0.000000 0.000000 0.038752
#
#
# Mechanical properties :
#
#
# Convention : Reuss Voigt Hill
#
# Bulk Modulus (GPa) = 60.48614 61.78290 61.13452
# Shear Modulus (GPa) = 32.90156 42.91753 37.90954
#
# Velocity S-wave (km/s) = 3.89298 4.44623 4.17877
# Velocity P-wave (km/s) = 6.93315 7.40388 7.17238
#
# Compressibility (1/GPa) = 0.01653271
#
# Stress axis : x y z
#
# Youngs Moduli (GPa) = 65.36798 72.32544 86.03894
#
# Poissons Ratio (x) = 0.31034 0.45824
# Poissons Ratio (y) = 0.28049 0.21426
# Poissons Ratio (z) = 0.34814 0.18011
#
# Static dielectric constant tensor:
#      x y z
#    x 1.935290 0.000000 0.000000 
#    y 0.000000 1.757240 0.000000 
#    z 0.000000 0.000000 1.772340 
# 
# From -- ./inp_files/30319.got.cif
#   From: 2010.05.17/outbox.cif.g08.bks.cpg/sg20_16_cif.got.tgz:30319.got - 2010.06.03 22:52:26.
