data_PCOD9320117
_publ_section_title
;
Structure prediction by ZEFSAII (Michael W. Deem and Ramdas Pophale) SiO2 
 PCOD9320117
Probable space group: C 2 2 21
;
_chemical_formula_sum "Si O2"
_cell_formula_units_Z 36
_cell_length_a 18.878343
_cell_length_b 5.206778
_cell_length_c 14.331011
_cell_angle_alpha 90.000000
_cell_angle_beta 90.000000
_cell_angle_gamma 90.000000
_cell_volume 1408.671613
_symmetry_space_group_name_H-M "C 2 2 21"
_symmetry_group_IT_number 20
_symmetry_cell_setting 'orthorhombic'
loop_
_space_group_symop_operation_xyz
x,y,z
-x,-y,1/2+z
x,-y,-z
-x,y,1/2-z
1/2+x,1/2+y,z
1/2-x,1/2-y,1/2+z
1/2+x,1/2-y,-z
1/2-x,1/2+y,1/2-z
loop_
_atom_site_type_symbol
_atom_site_label
_atom_site_fract_x
_atom_site_fract_y
_atom_site_fract_z
Si Si1 0.868192 0.812601 0.741779
Si Si2 0.325622 0.182531 0.345536
Si Si3 0.215818 0.000000 0.500000
Si Si4 0.584670 0.272274 0.551891
Si Si5 0.526366 0.027568 0.151413
O O1 0.822261 0.033520 0.694936
O O2 0.888861 0.875238 0.846572
O O3 0.830986 0.534000 0.735033
O O4 0.938766 0.747165 0.681803
O O5 0.267115 0.085381 0.416707
O O6 0.405357 0.168429 0.389693
O O7 0.157871 0.229655 0.507456
O O8 0.541844 0.500000 0.500000
O O9 0.539748 0.028563 0.586488
O O10 0.500000 0.144406 0.250000
#
# Coordination Sequence:
#
# PCOD9320117 Si02
#       5
#     8   8   4   8   8
#     4   9  21  42  71  91 131 182 229 268 338 406
#     4  10  22  42  70  94 136 177 229 271 344 408
#     4  10  24  40  68 106 144 176 230 284 354 400
#     4   9  20  42  65 105 140 171 229 287 340 395
#     4   8  18  39  69  94 127 171 231 270 332 395
#
# _framework density 25.555993999999998
#
# number of rings (size 3 to 8) (size 9 to 14) (size 15 to 20)
#    2.000    0.889    0.000    0.000    0.000    7.111 
#    0.000    3.333    0.000    0.000    0.000    0.000 
#    0.000    0.000    0.000    0.000    0.000    0.000 
#
# Total GULP energy -100250.854324 kJ/mol
# GULP energy per Si atom -5569.491907 kJ/mol
# Density = 2.549783 g / cm^3
# Si number density = 25.555994 Si / 1000 Ang^3
#
#
#
# Elastic Constant Matrix: (Units=GPa)
#
#
# Indices 1 2 3 4 5 6 
#
# 1 157.9567 -6.2847 -5.9820 0.0000 0.0000 0.0000
# 2 -6.2847 102.0652 -20.4448 0.0000 0.0000 0.0000
# 3 -5.9820 -20.4448 48.3256 0.0000 0.0000 0.0000
# 4 0.0000 0.0000 0.0000 15.8233 0.0000 0.0000
# 5 0.0000 0.0000 0.0000 0.0000 47.9422 0.0000
# 6 0.0000 0.0000 0.0000 0.0000 0.0000 -46.5903
#
#
#
# Elastic Compliance Matrix: (Units=1/GPa)
#
#
# Indices 1 2 3 4 5 6 
#
# 1 0.006395 0.000603 0.001047 0.000000 0.000000 0.000000
# 2 0.000603 0.010762 0.004628 0.000000 0.000000 0.000000
# 3 0.001047 0.004628 0.022780 0.000000 0.000000 0.000000
# 4 0.000000 0.000000 0.000000 0.063198 0.000000 0.000000
# 5 0.000000 0.000000 0.000000 0.000000 0.020858 0.000000
# 6 0.000000 0.000000 0.000000 0.000000 0.000000 -0.021464
#
#
# Mechanical properties :
#
#
# Convention : Reuss Voigt Hill
#
# Bulk Modulus (GPa) = 19.05039 26.99161 23.02100
# Shear Modulus (GPa) = 46.52412 26.17230 36.34821
#
# Velocity S-wave (km/s) = 4.27133 3.20365 3.77543
# Velocity P-wave (km/s) = 5.63882 4.92638 5.29460
#
# Compressibility (1/GPa) = 0.05249235
#
# Stress axis : x y z
#
# Youngs Moduli (GPa) = 156.38432 92.92145 43.89756
#
# Poissons Ratio (x) = -0.05607 -0.04595
# Poissons Ratio (y) = -0.09437 -0.20314
# Poissons Ratio (z) = -0.16371 -0.43000
#
# Static dielectric constant tensor:
#      x y z
#    x 2.124210 0.000000 0.000000 
#    y 0.000000 2.020430 0.000000 
#    z 0.000000 0.000000 2.064580 
# 
# From -- ./inp_files/21586.got.cif
#   From: 2010.05.17/outbox.cif.g08.bks.cpg/sg20_11_cif.got.tgz:21586.got - 2010.06.03 22:52:26.
