data_PCOD9320522
_publ_section_title
;
Structure prediction by ZEFSAII (Michael W. Deem and Ramdas Pophale) SiO2 
 PCOD9320522
Probable space group: C 2 2 21
;
_chemical_formula_sum "Si O2"
_cell_formula_units_Z 40
_cell_length_a 15.705471
_cell_length_b 6.842601
_cell_length_c 13.288994
_cell_angle_alpha 90.000000
_cell_angle_beta 90.000000
_cell_angle_gamma 90.000000
_cell_volume 1428.118638
_symmetry_space_group_name_H-M "C 2 2 21"
_symmetry_group_IT_number 20
_symmetry_cell_setting 'orthorhombic'
loop_
_space_group_symop_operation_xyz
x,y,z
-x,-y,1/2+z
x,-y,-z
-x,y,1/2-z
1/2+x,1/2+y,z
1/2-x,1/2-y,1/2+z
1/2+x,1/2-y,-z
1/2-x,1/2+y,1/2-z
loop_
_atom_site_type_symbol
_atom_site_label
_atom_site_fract_x
_atom_site_fract_y
_atom_site_fract_z
Si Si1 0.668438 0.536525 0.873280
Si Si2 0.406694 0.970949 0.794893
Si Si3 0.118749 0.071570 0.339138
Si Si4 0.301867 0.935979 0.393217
Si Si5 0.023016 0.000000 0.000000
Si Si6 0.826509 0.500000 0.000000
O O1 0.630837 0.553962 0.761958
O O2 0.684741 0.297551 0.877641
O O3 0.594159 0.625019 0.941955
O O4 0.757400 0.604726 0.924357
O O5 0.500000 0.924421 0.750000
O O6 0.397621 0.204985 0.808495
O O7 0.338530 0.947836 0.704029
O O8 0.385226 0.901625 0.911373
O O9 0.038389 0.049152 0.410108
O O10 0.203450 0.997784 0.394104
O O11 0.339426 0.000000 0.500000
#
# Coordination Sequence:
#
# PCOD9320522 Si02
#       6
#     8   8   8   8   4   4
#     4  10  23  42  66 102 135 176 230 283 343 413
#     4  11  25  43  68  94 137 180 226 288 348 411
#     4  11  21  42  68  99 131 178 228 276 348 405
#     4  11  22  42  70  99 134 174 226 286 347 411
#     4  11  22  40  69  94 134 180 227 282 332 423
#     4  11  22  42  67  94 136 178 217 284 352 407
#
# _framework density 28.008877999999999
#
# number of rings (size 3 to 8) (size 9 to 14) (size 15 to 20)
#    0.000    1.200    3.000    4.200    1.400    0.000 
#    0.000    0.000    4.400    0.000    0.000    0.000 
#    0.000    0.000    0.000    0.000    0.000    0.000 
#
# Total GULP energy -111435.348711 kJ/mol
# GULP energy per Si atom -5571.767436 kJ/mol
# Density = 2.794513 g / cm^3
# Si number density = 28.008878 Si / 1000 Ang^3
#
#
#
# Elastic Constant Matrix: (Units=GPa)
#
#
# Indices 1 2 3 4 5 6 
#
# 1 171.6996 10.5923 85.7472 0.0000 0.0000 0.0000
# 2 10.5923 122.5993 12.8270 0.0000 0.0000 0.0000
# 3 85.7472 12.8270 248.9748 0.0000 0.0000 0.0000
# 4 0.0000 0.0000 0.0000 25.5183 0.0000 0.0000
# 5 0.0000 0.0000 0.0000 0.0000 80.9810 0.0000
# 6 0.0000 0.0000 0.0000 0.0000 0.0000 -6.5721
#
#
#
# Elastic Compliance Matrix: (Units=1/GPa)
#
#
# Indices 1 2 3 4 5 6 
#
# 1 0.007049 -0.000357 -0.002409 0.000000 0.000000 0.000000
# 2 -0.000357 0.008219 -0.000300 0.000000 0.000000 0.000000
# 3 -0.002409 -0.000300 0.004862 0.000000 0.000000 0.000000
# 4 0.000000 0.000000 0.000000 0.039188 0.000000 0.000000
# 5 0.000000 0.000000 0.000000 0.000000 0.012349 0.000000
# 6 0.000000 0.000000 0.000000 0.000000 0.000000 -0.152159
#
#
# Mechanical properties :
#
#
# Convention : Reuss Voigt Hill
#
# Bulk Modulus (GPa) = 71.44733 84.62298 78.03515
# Shear Modulus (GPa) = -71.74231 48.92593 -11.40819
#
# Velocity S-wave (km/s) = -5.06653 4.18401 -2.02037
# Velocity P-wave (km/s) = 2.94315 7.32255 4.74118
#
# Compressibility (1/GPa) = 0.01399632
#
# Stress axis : x y z
#
# Youngs Moduli (GPa) = 141.85547 121.67029 205.68650
#
# Poissons Ratio (x) = 0.04343 0.49559
# Poissons Ratio (y) = 0.05064 0.06181
# Poissons Ratio (z) = 0.34179 0.03656
#
# Static dielectric constant tensor:
#      x y z
#    x 2.140660 0.000000 0.000000 
#    y 0.000000 2.415110 0.000000 
#    z 0.000000 0.000000 2.410400 
# 
# From -- ./inp_files/14898.got.cif
#   From: 2010.05.17/outbox.cif.g08.bks.cpg/sg20_8_cif.got.tgz:14898.got - 2010.06.03 22:52:26.
