data_PCOD9320863
_publ_section_title
;
Structure prediction by ZEFSAII (Michael W. Deem and Ramdas Pophale) SiO2 
 PCOD9320863
Probable space group: C 2 2 21
;
_chemical_formula_sum "Si O2"
_cell_formula_units_Z 60
_cell_length_a 15.593339
_cell_length_b 9.308588
_cell_length_c 17.332724
_cell_angle_alpha 90.000000
_cell_angle_beta 90.000000
_cell_angle_gamma 90.000000
_cell_volume 2515.879005
_symmetry_space_group_name_H-M "C 2 2 21"
_symmetry_group_IT_number 20
_symmetry_cell_setting 'orthorhombic'
loop_
_space_group_symop_operation_xyz
x,y,z
-x,-y,1/2+z
x,-y,-z
-x,y,1/2-z
1/2+x,1/2+y,z
1/2-x,1/2-y,1/2+z
1/2+x,1/2-y,-z
1/2-x,1/2+y,1/2-z
loop_
_atom_site_type_symbol
_atom_site_label
_atom_site_fract_x
_atom_site_fract_y
_atom_site_fract_z
Si Si1 0.663330 0.755582 0.695392
Si Si2 0.642239 0.384281 0.067485
Si Si3 0.003253 0.958945 0.331818
Si Si4 0.929513 0.418223 0.576378
Si Si5 0.222240 0.515251 0.180990
Si Si6 0.676616 0.271992 0.586611
Si Si7 0.585718 0.500000 0.500000
Si Si8 0.391233 0.014968 0.092076
O O1 0.573531 0.666664 0.689045
O O2 0.739188 0.637807 0.704453
O O3 0.673375 0.875622 0.761800
O O4 0.673023 0.862740 0.622087
O O5 0.597702 0.432570 0.147431
O O6 0.585480 0.244185 0.050909
O O7 0.736451 0.318468 0.075560
O O8 0.640726 0.500000 0.000000
O O9 0.000000 0.043772 0.250000
O O10 0.034164 0.003032 0.418923
O O11 0.950871 0.500000 0.500000
O O12 0.846886 0.492564 0.612600
O O13 0.016925 0.431020 0.622835
O O14 0.302577 0.603985 0.147507
O O15 0.643292 0.356870 0.511025
O O16 0.615188 0.149576 0.618954
O O17 0.379889 0.000000 0.000000
#
# Coordination Sequence:
#
# PCOD9320863 Si02
#       8
#     8   8   8   8   8   8   4   8
#     4  12  25  48  75 110 156 206 263 333 409 485
#     4  11  24  44  74 112 153 206 264 321 400 486
#     4  12  25  46  79 112 157 215 266 336 415 493
#     4  10  24  43  70 109 144 193 251 318 385 474
#     4  11  26  46  75 108 147 201 259 329 401 476
#     4  11  25  45  73 114 148 202 267 327 401 481
#     4  12  26  50  82 112 160 218 272 344 422 494
#     4  11  24  43  72 108 145 200 252 318 393 475
#
# _framework density 23.848523
#
# number of rings (size 3 to 8) (size 9 to 14) (size 15 to 20)
#    0.000    0.800    3.333    3.600    5.600    1.067 
#    0.000    1.333    0.000    0.000    0.000    0.000 
#    0.000    0.000    0.000    0.000    0.000    0.000 
#
# Total GULP energy -167235.881152 kJ/mol
# GULP energy per Si atom -5574.529372 kJ/mol
# Density = 2.379424 g / cm^3
# Si number density = 23.848523 Si / 1000 Ang^3
#
#
#
# Elastic Constant Matrix: (Units=GPa)
#
#
# Indices 1 2 3 4 5 6 
#
# 1 74.1323 38.0005 16.6133 0.0000 0.0000 0.0000
# 2 38.0005 84.3172 1.1777 0.0000 0.0000 0.0000
# 3 16.6133 1.1777 86.4817 0.0000 0.0000 0.0000
# 4 0.0000 0.0000 0.0000 39.9144 0.0000 0.0000
# 5 0.0000 0.0000 0.0000 0.0000 18.2980 0.0000
# 6 0.0000 0.0000 0.0000 0.0000 0.0000 27.3689
#
#
#
# Elastic Compliance Matrix: (Units=1/GPa)
#
#
# Indices 1 2 3 4 5 6 
#
# 1 0.018513 -0.008296 -0.003444 0.000000 0.000000 0.000000
# 2 -0.008296 0.015579 0.001381 0.000000 0.000000 0.000000
# 3 -0.003444 0.001381 0.012206 0.000000 0.000000 0.000000
# 4 0.000000 0.000000 0.000000 0.025054 0.000000 0.000000
# 5 0.000000 0.000000 0.000000 0.000000 0.054651 0.000000
# 6 0.000000 0.000000 0.000000 0.000000 0.000000 0.036538
#
#
# Mechanical properties :
#
#
# Convention : Reuss Voigt Hill
#
# Bulk Modulus (GPa) = 39.08799 39.61269 39.35034
# Shear Modulus (GPa) = 26.07099 29.72558 27.89828
#
# Velocity S-wave (km/s) = 3.30993 3.53432 3.42396
# Velocity P-wave (km/s) = 5.57075 5.77073 5.67162
#
# Compressibility (1/GPa) = 0.02558331
#
# Stress axis : x y z
#
# Youngs Moduli (GPa) = 54.01470 64.18729 81.92807
#
# Poissons Ratio (x) = 0.53248 0.28212
# Poissons Ratio (y) = 0.44809 -0.11318
# Poissons Ratio (z) = 0.18600 -0.08867
#
# Static dielectric constant tensor:
#      x y z
#    x 2.073330 0.000000 0.000000 
#    y 0.000000 2.117970 0.000000 
#    z 0.000000 0.000000 1.998740 
# 
# From -- ./inp_files/25272.got.cif
#   From: 2010.05.17/outbox.cif.g08.bks.cpg/sg20_13_cif.got.tgz:25272.got - 2010.06.03 22:52:26.
