data_PCOD9320016
_publ_section_title
;
Structure prediction by ZEFSAII (Michael W. Deem and Ramdas Pophale) SiO2 
 PCOD9320016
Probable space group: C 2 2 21
;
_chemical_formula_sum "Si O2"
_cell_formula_units_Z 48
_cell_length_a 22.476151
_cell_length_b 12.176091
_cell_length_c 7.642463
_cell_angle_alpha 90.000000
_cell_angle_beta 90.000000
_cell_angle_gamma 90.000000
_cell_volume 2091.525535
_symmetry_space_group_name_H-M "C 2 2 21"
_symmetry_group_IT_number 20
_symmetry_cell_setting 'orthorhombic'
loop_
_space_group_symop_operation_xyz
x,y,z
-x,-y,1/2+z
x,-y,-z
-x,y,1/2-z
1/2+x,1/2+y,z
1/2-x,1/2-y,1/2+z
1/2+x,1/2-y,-z
1/2-x,1/2+y,1/2-z
loop_
_atom_site_type_symbol
_atom_site_label
_atom_site_fract_x
_atom_site_fract_y
_atom_site_fract_z
Si Si1 0.567517 0.035118 0.794281
Si Si2 0.137536 0.337285 0.756536
Si Si3 0.169295 0.894405 0.362332
Si Si4 0.866011 0.252880 0.351350
Si Si5 0.230453 0.912423 0.739771
Si Si6 0.067877 0.966244 0.798590
O O1 0.500000 0.067372 0.750000
O O2 0.615112 0.132619 0.760802
O O3 0.587082 0.922316 0.699624
O O4 0.570797 0.000000 0.000000
O O5 0.151711 0.231543 0.644866
O O6 0.199412 0.403096 0.764999
O O7 0.124586 0.283195 0.945801
O O8 0.204056 0.899928 0.544625
O O9 0.210346 0.961265 0.220022
O O10 0.108094 0.958638 0.325621
O O11 0.802278 0.189769 0.336391
O O12 0.910707 0.159015 0.285097
O O13 0.000000 0.979145 0.750000
O O14 0.078216 0.000000 0.000000
#
# Coordination Sequence:
#
# PCOD9320016 Si02
#       6
#     8   8   8   8   8   8
#     4  10  24  42  63  90 126 169 214 260 318 380
#     4  11  22  40  66  90 127 170 207 267 323 385
#     4  10  23  41  59  99 125 159 213 263 323 384
#     4  10  22  42  62  91 127 168 215 257 320 386
#     4  10  23  37  67  91 130 160 209 265 324 390
#     4  11  23  40  64  92 129 168 213 266 321 381
#
# _framework density 22.949755
#
# number of rings (size 3 to 8) (size 9 to 14) (size 15 to 20)
#    0.000    1.667    1.667    1.500   14.000    2.000 
#    0.000    0.000    0.000    0.000    0.000    0.000 
#    0.000    0.000    0.000    0.000    0.000    0.000 
#
# Total GULP energy -133863.816459 kJ/mol
# GULP energy per Si atom -5577.659019 kJ/mol
# Density = 2.289752 g / cm^3
# Si number density = 22.949755 Si / 1000 Ang^3
#
#
#
# Elastic Constant Matrix: (Units=GPa)
#
#
# Indices 1 2 3 4 5 6 
#
# 1 91.9285 8.3035 -14.0986 0.0000 0.0000 0.0000
# 2 8.3035 128.7829 5.2285 0.0000 0.0000 0.0000
# 3 -14.0986 5.2285 29.1652 0.0000 0.0000 0.0000
# 4 0.0000 0.0000 0.0000 23.0471 0.0000 0.0000
# 5 0.0000 0.0000 0.0000 0.0000 -45.5683 0.0000
# 6 0.0000 0.0000 0.0000 0.0000 0.0000 16.5373
#
#
#
# Elastic Compliance Matrix: (Units=1/GPa)
#
#
# Indices 1 2 3 4 5 6 
#
# 1 0.011877 -0.001006 0.005922 0.000000 0.000000 0.000000
# 2 -0.001006 0.007907 -0.001904 0.000000 0.000000 0.000000
# 3 0.005922 -0.001904 0.037491 0.000000 0.000000 0.000000
# 4 0.000000 0.000000 0.000000 0.043389 0.000000 0.000000
# 5 0.000000 0.000000 0.000000 0.000000 -0.021945 0.000000
# 6 0.000000 0.000000 0.000000 0.000000 0.000000 0.060469
#
#
# Mechanical properties :
#
#
# Convention : Reuss Voigt Hill
#
# Bulk Modulus (GPa) = 15.79800 27.63816 21.71808
# Shear Modulus (GPa) = 32.41159 15.49944 23.95552
#
# Velocity S-wave (km/s) = 3.76211 2.60160 3.23433
# Velocity P-wave (km/s) = 5.07642 4.59276 4.84063
#
# Compressibility (1/GPa) = 0.06329914
#
# Stress axis : x y z
#
# Youngs Moduli (GPa) = 84.19557 126.46727 26.67272
#
# Poissons Ratio (x) = 0.12725 -0.15795
# Poissons Ratio (y) = 0.08472 0.05078
# Poissons Ratio (z) = -0.49859 0.24079
#
# Static dielectric constant tensor:
#      x y z
#    x 1.820760 0.000000 0.000000 
#    y 0.000000 2.013430 0.000000 
#    z 0.000000 0.000000 1.946300 
# 
# From -- ./inp_files/10656.got.cif
#   From: 2010.05.17/outbox.cif.g08.bks.cpg/sg20_6_cif.got.tgz:10656.got - 2010.06.03 22:52:26.
