data_PCOD9320234
_publ_section_title
;
Structure prediction by ZEFSAII (Michael W. Deem and Ramdas Pophale) SiO2 
 PCOD9320234
Probable space group: C 2 2 21
;
_chemical_formula_sum "Si O2"
_cell_formula_units_Z 40
_cell_length_a 23.916418
_cell_length_b 14.367100
_cell_length_c 5.026153
_cell_angle_alpha 90.000000
_cell_angle_beta 90.000000
_cell_angle_gamma 90.000000
_cell_volume 1727.034266
_symmetry_space_group_name_H-M "C 2 2 21"
_symmetry_group_IT_number 20
_symmetry_cell_setting 'orthorhombic'
loop_
_space_group_symop_operation_xyz
x,y,z
-x,-y,1/2+z
x,-y,-z
-x,y,1/2-z
1/2+x,1/2+y,z
1/2-x,1/2-y,1/2+z
1/2+x,1/2-y,-z
1/2-x,1/2+y,1/2-z
loop_
_atom_site_type_symbol
_atom_site_label
_atom_site_fract_x
_atom_site_fract_y
_atom_site_fract_z
Si Si1 0.000000 0.935705 0.750000
Si Si2 0.824601 0.231770 0.826768
Si Si3 0.563178 0.908370 0.842566
Si Si4 0.558662 0.294882 0.085309
Si Si5 0.792337 0.350814 0.322918
Si Si6 0.352630 0.000000 0.000000
O O1 0.950600 0.868573 0.647104
O O2 0.015743 0.000000 0.500000
O O3 0.885533 0.191438 0.757860
O O4 0.809714 0.314606 0.614727
O O5 0.774517 0.157676 0.795237
O O6 0.817763 0.274037 0.119800
O O7 0.500000 0.918071 0.750000
O O8 0.565095 0.812574 0.002874
O O9 0.605584 0.917993 0.598732
O O10 0.577590 0.000000 0.000000
O O11 0.500000 0.298492 0.250000
O O12 0.814758 0.449906 0.221934
#
# Coordination Sequence:
#
# PCOD9320234 Si02
#       6
#     4   8   8   8   8   4
#     4  12  28  52  72 100 138 186 252 318 372 426
#     4  10  22  44  66  96 132 183 240 285 350 431
#     4  11  23  36  61 106 148 185 227 278 351 453
#     4  11  25  43  76 104 144 193 235 302 379 428
#     4  10  23  40  66  94 137 186 231 289 344 415
#     4  12  22  38  62  96 144 178 232 282 350 430
#
# _framework density 23.161093999999999
#
# number of rings (size 3 to 8) (size 9 to 14) (size 15 to 20)
#    0.000    1.200    4.000    1.200    4.200    0.000 
#    1.800    0.000    0.000    0.000    0.000    0.000 
#    0.000    0.000    0.000    0.000    0.000    0.000 
#
# Total GULP energy -111807.483446 kJ/mol
# GULP energy per Si atom -5590.374172 kJ/mol
# Density = 2.310838 g / cm^3
# Si number density = 23.161094 Si / 1000 Ang^3
#
#
#
# Elastic Constant Matrix: (Units=GPa)
#
#
# Indices 1 2 3 4 5 6 
#
# 1 182.8784 30.6895 22.7121 0.0000 0.0000 0.0000
# 2 30.6895 118.1655 34.7249 0.0000 0.0000 0.0000
# 3 22.7121 34.7249 92.5384 0.0000 0.0000 0.0000
# 4 0.0000 0.0000 0.0000 31.0927 0.0000 0.0000
# 5 0.0000 0.0000 0.0000 0.0000 25.9037 0.0000
# 6 0.0000 0.0000 0.0000 0.0000 0.0000 33.8440
#
#
#
# Elastic Compliance Matrix: (Units=1/GPa)
#
#
# Indices 1 2 3 4 5 6 
#
# 1 0.005793 -0.001221 -0.000963 0.000000 0.000000 0.000000
# 2 -0.001221 0.009769 -0.003366 0.000000 0.000000 0.000000
# 3 -0.000963 -0.003366 0.012306 0.000000 0.000000 0.000000
# 4 0.000000 0.000000 0.000000 0.032162 0.000000 0.000000
# 5 0.000000 0.000000 0.000000 0.000000 0.038605 0.000000
# 6 0.000000 0.000000 0.000000 0.000000 0.000000 0.029547
#
#
# Mechanical properties :
#
#
# Convention : Reuss Voigt Hill
#
# Bulk Modulus (GPa) = 59.64446 63.31502 61.47974
# Shear Modulus (GPa) = 34.51328 38.53181 36.52254
#
# Velocity S-wave (km/s) = 3.86442 4.08320 3.97532
# Velocity P-wave (km/s) = 6.76163 7.04459 6.90456
#
# Compressibility (1/GPa) = 0.01676602
#
# Stress axis : x y z
#
# Youngs Moduli (GPa) = 172.63037 102.36373 81.26182
#
# Poissons Ratio (x) = 0.12502 0.07829
# Poissons Ratio (y) = 0.21084 0.27353
# Poissons Ratio (z) = 0.16632 0.34456
#
# Static dielectric constant tensor:
#      x y z
#    x 1.863820 0.000000 0.000000 
#    y 0.000000 1.908050 0.000000 
#    z 0.000000 0.000000 1.963210 
# 
# From -- ./inp_files/3668.got.cif
#   From: 2010.05.17/outbox.cif.g08.bks.cpg/sg20_2_cif.got.tgz:3668.got - 2010.06.03 22:52:26.
