data_PCOD9320086
_publ_section_title
;
Structure prediction by ZEFSAII (Michael W. Deem and Ramdas Pophale) SiO2 
 PCOD9320086
Probable space group: C 2 2 21
;
_chemical_formula_sum "Si O2"
_cell_formula_units_Z 52
_cell_length_a 7.397992
_cell_length_b 13.971829
_cell_length_c 20.064656
_cell_angle_alpha 90.000000
_cell_angle_beta 90.000000
_cell_angle_gamma 90.000000
_cell_volume 2073.952652
_symmetry_space_group_name_H-M "C 2 2 21"
_symmetry_group_IT_number 20
_symmetry_cell_setting 'orthorhombic'
loop_
_space_group_symop_operation_xyz
x,y,z
-x,-y,1/2+z
x,-y,-z
-x,y,1/2-z
1/2+x,1/2+y,z
1/2-x,1/2-y,1/2+z
1/2+x,1/2-y,-z
1/2-x,1/2+y,1/2-z
loop_
_atom_site_type_symbol
_atom_site_label
_atom_site_fract_x
_atom_site_fract_y
_atom_site_fract_z
Si Si1 0.000000 0.308527 0.750000
Si Si2 0.485017 0.057740 0.431300
Si Si3 0.560067 0.262913 0.606751
Si Si4 0.318575 0.572473 0.177556
Si Si5 0.374964 0.636781 0.845514
Si Si6 0.040279 0.586816 0.674174
Si Si7 0.675336 0.256703 0.464408
O O1 0.830668 0.376351 0.726302
O O2 0.936337 0.232219 0.806517
O O3 0.298269 0.062109 0.390592
O O4 0.577307 0.157259 0.447807
O O5 0.466504 0.000000 0.500000
O O6 0.596492 0.996566 0.375771
O O7 0.535347 0.348709 0.658661
O O8 0.651300 0.179733 0.652937
O O9 0.688478 0.273707 0.542631
O O10 0.375442 0.252444 0.565276
O O11 0.413016 0.468551 0.185451
O O12 0.417652 0.656811 0.922917
O O13 0.157191 0.629201 0.842782
O O14 0.000000 0.560767 0.750000
#
# Coordination Sequence:
#
# PCOD9320086 Si02
#       7
#     4   8   8   8   8   8   8
#     4  12  24  52  76 104 154 198 250 298 390 448
#     4  11  22  43  70 102 136 193 252 298 385 461
#     4  11  24  44  70 103 146 187 253 309 383 450
#     4  11  26  45  74 107 143 198 238 319 375 453
#     4  10  25  43  68 105 141 185 249 302 360 461
#     4  10  22  42  68 100 141 190 242 301 377 458
#     4  11  23  45  69 104 143 192 249 319 369 461
#
# _framework density 25.072896
#
# number of rings (size 3 to 8) (size 9 to 14) (size 15 to 20)
#    0.000    1.231    3.077    1.846    8.615    0.000 
#   15.231    0.000    0.000    0.000    0.000    0.000 
#    0.000    0.000    0.000    0.000    0.000    0.000 
#
# Total GULP energy -144812.550560 kJ/mol
# GULP energy per Si atom -5569.713483 kJ/mol
# Density = 2.501583 g / cm^3
# Si number density = 25.072896 Si / 1000 Ang^3
#
#
#
# Elastic Constant Matrix: (Units=GPa)
#
#
# Indices 1 2 3 4 5 6 
#
# 1 38.2806 9.4376 17.4947 0.0000 0.0000 0.0000
# 2 9.4376 164.4095 75.1405 0.0000 0.0000 0.0000
# 3 17.4947 75.1405 151.9041 0.0000 0.0000 0.0000
# 4 0.0000 0.0000 0.0000 -864.6544 0.0000 0.0000
# 5 0.0000 0.0000 0.0000 0.0000 37.5559 0.0000
# 6 0.0000 0.0000 0.0000 0.0000 0.0000 -6.7245
#
#
#
# Elastic Compliance Matrix: (Units=1/GPa)
#
#
# Indices 1 2 3 4 5 6 
#
# 1 0.027578 -0.000170 -0.003092 0.000000 0.000000 0.000000
# 2 -0.000170 0.007860 -0.003869 0.000000 0.000000 0.000000
# 3 -0.003092 -0.003869 0.008853 0.000000 0.000000 0.000000
# 4 0.000000 0.000000 0.000000 -0.001157 0.000000 0.000000
# 5 0.000000 0.000000 0.000000 0.000000 0.026627 0.000000
# 6 0.000000 0.000000 0.000000 0.000000 0.000000 -0.148709
#
#
# Mechanical properties :
#
#
# Convention : Reuss Voigt Hill
#
# Bulk Modulus (GPa) = 33.30018 62.08222 47.69120
# Shear Modulus (GPa) = -91.44661 -149.92986 -120.68823
#
# Velocity S-wave (km/s) = -6.04578 -7.74128 -6.94546
# Velocity P-wave (km/s) = 5.95190 7.42218 6.72733
#
# Compressibility (1/GPa) = 0.03002987
#
# Stress axis : x y z
#
# Youngs Moduli (GPa) = 36.26093 127.22372 112.95841
#
# Poissons Ratio (x) = 0.02161 0.34928
# Poissons Ratio (y) = 0.00616 0.43698
# Poissons Ratio (z) = 0.11212 0.49217
#
# Static dielectric constant tensor:
#      x y z
#    x 58.441690 0.000000 0.000000 
#    y 0.000000 2.274170 0.000000 
#    z 0.000000 0.000000 2.287360 
# 
# From -- ./inp_files/26656.got.cif
#   From: 2010.05.17/outbox.cif.g08.bks.cpg/sg20_14_cif.got.tgz:26656.got - 2010.06.03 22:52:26.
