data_PCOD9320629
_publ_section_title
;
Structure prediction by ZEFSAII (Michael W. Deem and Ramdas Pophale) SiO2 
 PCOD9320629
Probable space group: C 2 2 21
;
_chemical_formula_sum "Si O2"
_cell_formula_units_Z 56
_cell_length_a 14.972454
_cell_length_b 7.580021
_cell_length_c 19.284555
_cell_angle_alpha 90.000000
_cell_angle_beta 90.000000
_cell_angle_gamma 90.000000
_cell_volume 2188.633377
_symmetry_space_group_name_H-M "C 2 2 21"
_symmetry_group_IT_number 20
_symmetry_cell_setting 'orthorhombic'
loop_
_space_group_symop_operation_xyz
x,y,z
-x,-y,1/2+z
x,-y,-z
-x,y,1/2-z
1/2+x,1/2+y,z
1/2-x,1/2-y,1/2+z
1/2+x,1/2-y,-z
1/2-x,1/2+y,1/2-z
loop_
_atom_site_type_symbol
_atom_site_label
_atom_site_fract_x
_atom_site_fract_y
_atom_site_fract_z
Si Si1 0.712540 0.148604 0.106688
Si Si2 0.150665 0.412374 0.638823
Si Si3 0.169680 0.251285 0.127502
Si Si4 0.470317 0.252773 0.890847
Si Si5 0.397594 0.260281 0.274596
Si Si6 0.640013 0.640421 0.275518
Si Si7 0.660351 0.216543 0.494858
O O1 0.622396 0.212344 0.145576
O O2 0.786915 0.188339 0.166111
O O3 0.747834 0.228037 0.034129
O O4 0.707740 0.937815 0.102410
O O5 0.257864 0.406534 0.619377
O O6 0.075760 0.561961 0.626992
O O7 0.148849 0.369811 0.719427
O O8 0.128857 0.255571 0.584369
O O9 0.148227 0.266016 0.209560
O O10 0.073723 0.233204 0.092843
O O11 0.450483 0.356261 0.820324
O O12 0.412457 0.307235 0.956445
O O13 0.500000 0.257512 0.250000
O O14 0.354458 0.447113 0.255995
O O15 0.655670 0.000000 0.500000
#
# Coordination Sequence:
#
# PCOD9320629 Si02
#       7
#     8   8   8   8   8   8   8
#     4  11  22  42  68 100 133 181 235 283 353 434
#     4  11  23  44  68  98 141 183 231 295 357 421
#     4  12  23  40  70 105 129 184 238 285 355 432
#     4  10  23  44  67  95 138 183 236 289 362 426
#     4  12  24  40  67 101 139 180 231 299 364 425
#     4  11  22  41  64 100 140 174 229 297 352 421
#     4   9  23  45  69  93 136 185 223 290 363 413
#
# _framework density 25.586743999999999
#
# number of rings (size 3 to 8) (size 9 to 14) (size 15 to 20)
#    0.000    1.143    2.857    3.000    6.000    0.571 
#   10.286    0.000    0.000    0.000    0.000    0.000 
#    0.000    0.000    0.000    0.000    0.000    0.000 
#
# Total GULP energy -156234.484246 kJ/mol
# GULP energy per Si atom -5579.803009 kJ/mol
# Density = 2.552851 g / cm^3
# Si number density = 25.586744 Si / 1000 Ang^3
#
#
#
# Elastic Constant Matrix: (Units=GPa)
#
#
# Indices 1 2 3 4 5 6 
#
# 1 123.9383 10.0504 -5.5238 0.0000 0.0000 0.0000
# 2 10.0504 72.2034 3.4114 0.0000 0.0000 0.0000
# 3 -5.5238 3.4114 90.4244 0.0000 0.0000 0.0000
# 4 0.0000 0.0000 0.0000 37.1388 0.0000 0.0000
# 5 0.0000 0.0000 0.0000 0.0000 30.1850 0.0000
# 6 0.0000 0.0000 0.0000 0.0000 0.0000 24.5664
#
#
#
# Elastic Compliance Matrix: (Units=1/GPa)
#
#
# Indices 1 2 3 4 5 6 
#
# 1 0.008187 -0.001165 0.000544 0.000000 0.000000 0.000000
# 2 -0.001165 0.014040 -0.000601 0.000000 0.000000 0.000000
# 3 0.000544 -0.000601 0.011115 0.000000 0.000000 0.000000
# 4 0.000000 0.000000 0.000000 0.026926 0.000000 0.000000
# 5 0.000000 0.000000 0.000000 0.000000 0.033129 0.000000
# 6 0.000000 0.000000 0.000000 0.000000 0.000000 0.040706
#
#
# Mechanical properties :
#
#
# Convention : Reuss Voigt Hill
#
# Bulk Modulus (GPa) = 32.36428 33.60469 32.98448
# Shear Modulus (GPa) = 34.04898 36.95324 35.50111
#
# Velocity S-wave (km/s) = 3.65187 3.80443 3.72893
# Velocity P-wave (km/s) = 5.51886 5.69740 5.60884
#
# Compressibility (1/GPa) = 0.03089826
#
# Stress axis : x y z
#
# Youngs Moduli (GPa) = 122.14071 71.22324 89.96953
#
# Poissons Ratio (x) = 0.08300 -0.04895
# Poissons Ratio (y) = 0.14234 0.05406
# Poissons Ratio (z) = -0.06646 0.04280
#
# Static dielectric constant tensor:
#      x y z
#    x 2.120900 0.000000 0.000000 
#    y 0.000000 2.050890 0.000000 
#    z 0.000000 0.000000 2.193730 
# 
# From -- ./inp_files/26705.got.cif
#   From: 2010.05.17/outbox.cif.g08.bks.cpg/sg20_14_cif.got.tgz:26705.got - 2010.06.03 22:52:26.
