data_PCOD9320129
_publ_section_title
;
Structure prediction by ZEFSAII (Michael W. Deem and Ramdas Pophale) SiO2 
 PCOD9320129
Probable space group: C 2 2 21
;
_chemical_formula_sum "Si O2"
_cell_formula_units_Z 52
_cell_length_a 10.607768
_cell_length_b 9.389040
_cell_length_c 24.432911
_cell_angle_alpha 90.000000
_cell_angle_beta 90.000000
_cell_angle_gamma 90.000000
_cell_volume 2433.438726
_symmetry_space_group_name_H-M "C 2 2 21"
_symmetry_group_IT_number 20
_symmetry_cell_setting 'orthorhombic'
loop_
_space_group_symop_operation_xyz
x,y,z
-x,-y,1/2+z
x,-y,-z
-x,y,1/2-z
1/2+x,1/2+y,z
1/2-x,1/2-y,1/2+z
1/2+x,1/2-y,-z
1/2-x,1/2+y,1/2-z
loop_
_atom_site_type_symbol
_atom_site_label
_atom_site_fract_x
_atom_site_fract_y
_atom_site_fract_z
Si Si1 0.226572 0.049061 0.096125
Si Si2 0.433867 0.736978 0.933079
Si Si3 0.027977 0.000000 0.000000
Si Si4 0.500000 0.387090 0.750000
Si Si5 0.245423 0.784938 0.796758
Si Si6 0.332463 0.248937 0.358000
Si Si7 0.000000 0.691306 0.250000
Si Si8 0.350984 0.513986 0.840310
O O1 0.345158 0.124685 0.066157
O O2 0.200293 0.160962 0.144406
O O3 0.237087 0.896281 0.126296
O O4 0.116129 0.029722 0.052264
O O5 0.451283 0.644742 0.987875
O O6 0.567279 0.779852 0.906532
O O7 0.382096 0.615480 0.891164
O O8 0.630169 0.305290 0.756481
O O9 0.474161 0.471996 0.805810
O O10 0.376992 0.866475 0.782838
O O11 0.277836 0.619148 0.799328
O O12 0.415965 0.253459 0.301615
O O13 0.233480 0.120426 0.355028
#
# Coordination Sequence:
#
# PCOD9320129 Si02
#       8
#     8   8   4   4   8   8   4   8
#     4  10  23  43  68  97 127 172 224 280 334 405
#     4  10  23  45  67  92 130 165 219 280 340 400
#     4  10  22  42  72  92 124 172 216 286 360 394
#     4  12  23  37  62  96 131 179 224 270 323 393
#     4  11  25  40  66  95 139 177 231 269 333 407
#     4  11  23  40  66  95 137 179 220 264 327 397
#     4  12  21  43  68  96 143 195 214 270 339 399
#     4  11  24  40  62  93 129 178 219 272 326 394
#
# _framework density 21.368936999999999
#
# number of rings (size 3 to 8) (size 9 to 14) (size 15 to 20)
#    0.000    1.231    4.615    2.308    2.154    4.308 
#    0.000    3.077    0.000    0.000    0.000    0.000 
#    0.000    0.000    0.000    0.000    0.000    0.000 
#
# Total GULP energy -144831.971008 kJ/mol
# GULP energy per Si atom -5570.460423 kJ/mol
# Density = 2.132030 g / cm^3
# Si number density = 21.368937 Si / 1000 Ang^3
#
#
#
# Elastic Constant Matrix: (Units=GPa)
#
#
# Indices 1 2 3 4 5 6 
#
# 1 111.4597 58.0009 13.5050 0.0000 0.0000 0.0000
# 2 58.0009 58.4811 -6.0561 0.0000 0.0000 0.0000
# 3 13.5050 -6.0561 45.8289 0.0000 0.0000 0.0000
# 4 0.0000 0.0000 0.0000 35.4770 0.0000 0.0000
# 5 0.0000 0.0000 0.0000 0.0000 25.8533 0.0000
# 6 0.0000 0.0000 0.0000 0.0000 0.0000 48.8223
#
#
#
# Elastic Compliance Matrix: (Units=1/GPa)
#
#
# Indices 1 2 3 4 5 6 
#
# 1 0.021972 -0.022774 -0.009484 0.000000 0.000000 0.000000
# 2 -0.022774 0.040941 0.012121 0.000000 0.000000 0.000000
# 3 -0.009484 0.012121 0.026217 0.000000 0.000000 0.000000
# 4 0.000000 0.000000 0.000000 0.028187 0.000000 0.000000
# 5 0.000000 0.000000 0.000000 0.000000 0.038680 0.000000
# 6 0.000000 0.000000 0.000000 0.000000 0.000000 0.020482
#
#
# Mechanical properties :
#
#
# Convention : Reuss Voigt Hill
#
# Bulk Modulus (GPa) = 20.46784 38.51881 29.49333
# Shear Modulus (GPa) = 21.45569 32.05183 26.75376
#
# Velocity S-wave (km/s) = 3.17213 3.87709 3.54219
# Velocity P-wave (km/s) = 4.79746 6.17310 5.52824
#
# Compressibility (1/GPa) = 0.04885714
#
# Stress axis : x y z
#
# Youngs Moduli (GPa) = 45.51280 24.42516 38.14328
#
# Poissons Ratio (x) = 0.55625 0.36176
# Poissons Ratio (y) = 1.03649 -0.46235
# Poissons Ratio (z) = 0.43165 -0.29606
#
# Static dielectric constant tensor:
#      x y z
#    x 1.744680 0.000000 0.000000 
#    y 0.000000 1.805450 0.000000 
#    z 0.000000 0.000000 1.890160 
# 
# From -- ./inp_files/30311.got.cif
#   From: 2010.05.17/outbox.cif.g08.bks.cpg/sg20_16_cif.got.tgz:30311.got - 2010.06.03 22:52:26.
