data_PCOD9320379
_publ_section_title
;
Structure prediction by ZEFSAII (Michael W. Deem and Ramdas Pophale) SiO2 
 PCOD9320379
Probable space group: C 2 2 21
;
_chemical_formula_sum "Si O2"
_cell_formula_units_Z 60
_cell_length_a 27.565733
_cell_length_b 17.571960
_cell_length_c 5.251943
_cell_angle_alpha 90.000000
_cell_angle_beta 90.000000
_cell_angle_gamma 90.000000
_cell_volume 2543.956936
_symmetry_space_group_name_H-M "C 2 2 21"
_symmetry_group_IT_number 20
_symmetry_cell_setting 'orthorhombic'
loop_
_space_group_symop_operation_xyz
x,y,z
-x,-y,1/2+z
x,-y,-z
-x,y,1/2-z
1/2+x,1/2+y,z
1/2-x,1/2-y,1/2+z
1/2+x,1/2-y,-z
1/2-x,1/2+y,1/2-z
loop_
_atom_site_type_symbol
_atom_site_label
_atom_site_fract_x
_atom_site_fract_y
_atom_site_fract_z
Si Si1 0.368042 0.085930 0.428866
Si Si2 0.056889 0.870979 0.238066
Si Si3 0.762857 0.432364 0.807452
Si Si4 0.810617 0.000000 0.000000
Si Si5 0.228015 0.276167 0.589700
Si Si6 0.614754 0.399412 0.760399
Si Si7 0.131752 0.727263 0.696936
Si Si8 0.944809 0.303902 0.817403
O O1 0.318699 0.070226 0.275061
O O2 0.356356 0.151208 0.641565
O O3 0.410277 0.128736 0.276109
O O4 0.384211 0.000000 0.500000
O O5 0.083983 0.891432 0.499530
O O6 0.062291 0.779599 0.193480
O O7 0.000000 0.887279 0.250000
O O8 0.081087 0.911649 0.000848
O O9 0.729943 0.435011 0.553782
O O10 0.751988 0.500000 0.000000
O O11 0.754063 0.359762 0.977556
O O12 0.847549 0.967556 0.787934
O O13 0.241752 0.270847 0.884550
O O14 0.170937 0.269543 0.533879
O O15 0.636958 0.313640 0.802296
O O16 0.076389 0.713587 0.600126
O O17 0.000000 0.323820 0.750000
#
# Coordination Sequence:
#
# PCOD9320379 Si02
#       8
#     8   8   8   4   8   8   8   8
#     4  12  24  45  70 103 147 199 254 308 381 458
#     4  10  22  46  78 109 146 196 249 310 387 460
#     4  12  28  46  71  99 151 204 254 306 393 457
#     4  12  30  46  70 108 154 200 254 322 392 458
#     4  12  27  44  74 108 142 195 263 318 371 454
#     4  11  25  44  74 110 150 194 252 318 380 461
#     4  11  24  44  73 100 149 193 253 311 377 452
#     4  10  23  43  71 108 144 194 251 310 375 452
#
# _framework density 23.585307
#
# number of rings (size 3 to 8) (size 9 to 14) (size 15 to 20)
#    0.000    0.800    3.333    2.800    5.600    1.600 
#    2.400    1.333    0.000    0.000    0.000    0.000 
#    0.000    0.000    0.000    0.000    0.000    0.000 
#
# Total GULP energy -167238.161271 kJ/mol
# GULP energy per Si atom -5574.605376 kJ/mol
# Density = 2.353163 g / cm^3
# Si number density = 23.585307 Si / 1000 Ang^3
#
#
#
# Elastic Constant Matrix: (Units=GPa)
#
#
# Indices 1 2 3 4 5 6 
#
# 1 129.1537 44.7046 50.5661 0.0000 0.0000 0.0000
# 2 44.7046 104.5508 29.4248 0.0000 0.0000 0.0000
# 3 50.5661 29.4248 87.3506 0.0000 0.0000 0.0000
# 4 0.0000 0.0000 0.0000 39.2328 0.0000 0.0000
# 5 0.0000 0.0000 0.0000 0.0000 19.0508 0.0000
# 6 0.0000 0.0000 0.0000 0.0000 0.0000 31.8613
#
#
#
# Elastic Compliance Matrix: (Units=1/GPa)
#
#
# Indices 1 2 3 4 5 6 
#
# 1 0.010894 -0.003185 -0.005234 0.000000 0.000000 0.000000
# 2 -0.003185 0.011498 -0.002029 0.000000 0.000000 0.000000
# 3 -0.005234 -0.002029 0.015161 0.000000 0.000000 0.000000
# 4 0.000000 0.000000 0.000000 0.025489 0.000000 0.000000
# 5 0.000000 0.000000 0.000000 0.000000 0.052491 0.000000
# 6 0.000000 0.000000 0.000000 0.000000 0.000000 0.031386
#
#
# Mechanical properties :
#
#
# Convention : Reuss Voigt Hill
#
# Bulk Modulus (GPa) = 60.03386 63.38289 61.70837
# Shear Modulus (GPa) = 28.84037 31.11963 29.98000
#
# Velocity S-wave (km/s) = 3.50066 3.63636 3.56916
# Velocity P-wave (km/s) = 6.46906 6.67556 6.57312
#
# Compressibility (1/GPa) = 0.01665727
#
# Stress axis : x y z
#
# Youngs Moduli (GPa) = 91.79111 86.97290 65.95737
#
# Poissons Ratio (x) = 0.27704 0.34519
# Poissons Ratio (y) = 0.29238 0.13384
# Poissons Ratio (z) = 0.48039 0.17649
#
# Static dielectric constant tensor:
#      x y z
#    x 1.893630 0.000000 0.000000 
#    y 0.000000 1.939760 0.000000 
#    z 0.000000 0.000000 2.014400 
# 
# From -- ./inp_files/4320.got.cif
#   From: 2010.05.17/outbox.cif.g08.bks.cpg/sg20_3_cif.got.tgz:4320.got - 2010.06.03 22:52:26.
