data_PCOD9320240
_publ_section_title
;
Structure prediction by ZEFSAII (Michael W. Deem and Ramdas Pophale) SiO2 
 PCOD9320240
Probable space group: C 2 2 21
;
_chemical_formula_sum "Si O2"
_cell_formula_units_Z 60
_cell_length_a 32.822947
_cell_length_b 5.742732
_cell_length_c 14.866495
_cell_angle_alpha 90.000000
_cell_angle_beta 90.000000
_cell_angle_gamma 90.000000
_cell_volume 2802.236011
_symmetry_space_group_name_H-M "C 2 2 21"
_symmetry_group_IT_number 20
_symmetry_cell_setting 'orthorhombic'
loop_
_space_group_symop_operation_xyz
x,y,z
-x,-y,1/2+z
x,-y,-z
-x,y,1/2-z
1/2+x,1/2+y,z
1/2-x,1/2-y,1/2+z
1/2+x,1/2-y,-z
1/2-x,1/2+y,1/2-z
loop_
_atom_site_type_symbol
_atom_site_label
_atom_site_fract_x
_atom_site_fract_y
_atom_site_fract_z
Si Si1 0.382213 0.350125 0.910739
Si Si2 0.848138 0.662359 0.260556
Si Si3 0.000000 0.158625 0.250000
Si Si4 0.281187 0.597896 0.631651
Si Si5 0.071688 0.854682 0.270747
Si Si6 0.958698 0.474959 0.099119
Si Si7 0.192743 0.554806 0.603781
Si Si8 0.309952 0.090069 0.586811
O O1 0.397183 0.477634 0.821942
O O2 0.413806 0.135708 0.915705
O O3 0.335441 0.280336 0.901851
O O4 0.388442 0.500000 0.000000
O O5 0.895982 0.692199 0.278926
O O6 0.836726 0.622928 0.156650
O O7 0.833875 0.440482 0.319840
O O8 0.817934 0.860897 0.298570
O O9 0.016319 0.311367 0.332868
O O10 0.037817 0.998815 0.219062
O O11 0.234483 0.562258 0.659936
O O12 0.279407 0.862814 0.588961
O O13 0.293025 0.352832 0.582929
O O14 0.047879 0.714158 0.347976
O O15 0.977187 0.500000 0.000000
O O16 0.203089 0.500000 0.500000
O O17 0.335547 0.000000 0.500000
#
# Coordination Sequence:
#
# PCOD9320240 Si02
#       8
#     8   8   4   8   8   8   8   8
#     4  11  22  36  65 104 138 185 226 283 361 436
#     4  10  26  39  69  93 140 181 236 292 361 429
#     4  10  26  38  74 106 140 178 232 284 366 432
#     4  10  26  42  66  97 138 191 244 297 356 409
#     4  11  22  43  66 102 139 176 230 289 352 438
#     4  11  21  43  69 103 143 185 222 284 359 438
#     4  12  24  41  61 104 143 181 235 300 357 430
#     4  10  22  44  67  93 127 186 247 299 349 417
#
# _framework density 21.411473999999998
#
# number of rings (size 3 to 8) (size 9 to 14) (size 15 to 20)
#    0.800    0.533    2.667    2.800    3.733    2.667 
#    0.000    0.000    0.000   12.000    0.000    0.000 
#    0.000    0.000    0.000    0.000    0.000    0.000 
#
# Total GULP energy -167012.447059 kJ/mol
# GULP energy per Si atom -5567.081569 kJ/mol
# Density = 2.136274 g / cm^3
# Si number density = 21.411474 Si / 1000 Ang^3
#
#
#
# Elastic Constant Matrix: (Units=GPa)
#
#
# Indices 1 2 3 4 5 6 
#
# 1 112.2278 28.3474 40.6449 0.0000 0.0000 0.0000
# 2 28.3474 95.3509 29.5771 0.0000 0.0000 0.0000
# 3 40.6449 29.5771 69.0007 0.0000 0.0000 0.0000
# 4 0.0000 0.0000 0.0000 38.3745 0.0000 0.0000
# 5 0.0000 0.0000 0.0000 0.0000 5.4217 0.0000
# 6 0.0000 0.0000 0.0000 0.0000 0.0000 28.8361
#
#
#
# Elastic Compliance Matrix: (Units=1/GPa)
#
#
# Indices 1 2 3 4 5 6 
#
# 1 0.011515 -0.001522 -0.006131 0.000000 0.000000 0.000000
# 2 -0.001522 0.012297 -0.004375 0.000000 0.000000 0.000000
# 3 -0.006131 -0.004375 0.019979 0.000000 0.000000 0.000000
# 4 0.000000 0.000000 0.000000 0.026059 0.000000 0.000000
# 5 0.000000 0.000000 0.000000 0.000000 0.184445 0.000000
# 6 0.000000 0.000000 0.000000 0.000000 0.000000 0.034679
#
#
# Mechanical properties :
#
#
# Convention : Reuss Voigt Hill
#
# Bulk Modulus (GPa) = 50.66639 52.63535 51.65087
# Shear Modulus (GPa) = 15.64422 26.39379 21.01901
#
# Velocity S-wave (km/s) = 2.70598 3.51478 3.13656
# Velocity P-wave (km/s) = 5.78599 6.41153 6.10678
#
# Compressibility (1/GPa) = 0.01973695
#
# Stress axis : x y z
#
# Youngs Moduli (GPa) = 86.84220 81.32082 50.05217
#
# Poissons Ratio (x) = 0.12375 0.30686
# Poissons Ratio (y) = 0.13215 0.21896
# Poissons Ratio (z) = 0.53241 0.35576
#
# Static dielectric constant tensor:
#      x y z
#    x 1.781300 0.000000 0.000000 
#    y 0.000000 1.885110 0.000000 
#    z 0.000000 0.000000 1.917600 
# 
# From -- ./inp_files/25739.got.cif
#   From: 2010.05.17/outbox.cif.g08.bks.cpg/sg20_13_cif.got.tgz:25739.got - 2010.06.03 22:52:26.
