data_PCOD9320717
_publ_section_title
;
Structure prediction by ZEFSAII (Michael W. Deem and Ramdas Pophale) SiO2 
 PCOD9320717
Probable space group: C 2 2 21
;
_chemical_formula_sum "Si O2"
_cell_formula_units_Z 40
_cell_length_a 11.304817
_cell_length_b 11.274979
_cell_length_c 14.752580
_cell_angle_alpha 90.000000
_cell_angle_beta 90.000000
_cell_angle_gamma 90.000000
_cell_volume 1880.387071
_symmetry_space_group_name_H-M "C 2 2 21"
_symmetry_group_IT_number 20
_symmetry_cell_setting 'orthorhombic'
loop_
_space_group_symop_operation_xyz
x,y,z
-x,-y,1/2+z
x,-y,-z
-x,y,1/2-z
1/2+x,1/2+y,z
1/2-x,1/2-y,1/2+z
1/2+x,1/2-y,-z
1/2-x,1/2+y,1/2-z
loop_
_atom_site_type_symbol
_atom_site_label
_atom_site_fract_x
_atom_site_fract_y
_atom_site_fract_z
Si Si1 0.324717 0.983813 0.606759
Si Si2 0.612962 0.616903 0.687716
Si Si3 0.720905 0.717084 0.858188
Si Si4 0.029904 0.866731 0.020848
Si Si5 0.497582 0.801323 0.145293
O O1 0.202859 0.015058 0.658087
O O2 0.428836 0.074723 0.637627
O O3 0.310074 0.000000 0.500000
O O4 0.337105 0.844099 0.620180
O O5 0.500000 0.580940 0.750000
O O6 0.691252 0.697677 0.753069
O O7 0.564981 0.677931 0.596045
O O8 0.650561 0.627500 0.922587
O O9 0.858092 0.696670 0.875953
O O10 0.045446 0.789093 0.930993
O O11 0.991438 0.000000 0.000000
O O12 0.500000 0.760744 0.250000
#
# Coordination Sequence:
#
# PCOD9320717 Si02
#       5
#     8   8   8   8   8
#     4  12  24  48  75 105 152 196 244 314 376 441
#     4  10  23  46  69 105 141 193 245 299 376 439
#     4  11  25  46  72 107 148 190 247 308 376 445
#     4  11  25  46  71 101 144 196 248 308 376 451
#     4  12  26  46  74 110 145 196 249 305 381 447
#
# _framework density 21.272216
#
# number of rings (size 3 to 8) (size 9 to 14) (size 15 to 20)
#    0.000    0.800    4.000    3.000    0.000    9.600 
#    0.000    0.000    0.000    0.000    0.000    0.000 
#    0.000    0.000    0.000    0.000    0.000    0.000 
#
# Total GULP energy -111583.984868 kJ/mol
# GULP energy per Si atom -5579.199243 kJ/mol
# Density = 2.122380 g / cm^3
# Si number density = 21.272216 Si / 1000 Ang^3
#
#
#
# Elastic Constant Matrix: (Units=GPa)
#
#
# Indices 1 2 3 4 5 6 
#
# 1 82.7990 16.5328 6.8606 0.0000 0.0000 0.0000
# 2 16.5328 56.8710 20.6067 0.0000 0.0000 0.0000
# 3 6.8606 20.6067 125.5288 0.0000 0.0000 0.0000
# 4 0.0000 0.0000 0.0000 33.0724 0.0000 0.0000
# 5 0.0000 0.0000 0.0000 0.0000 22.5379 0.0000
# 6 0.0000 0.0000 0.0000 0.0000 0.0000 27.6372
#
#
#
# Elastic Compliance Matrix: (Units=1/GPa)
#
#
# Indices 1 2 3 4 5 6 
#
# 1 0.012823 -0.003693 -0.000094 0.000000 0.000000 0.000000
# 2 -0.003693 0.019760 -0.003042 0.000000 0.000000 0.000000
# 3 -0.000094 -0.003042 0.008471 0.000000 0.000000 0.000000
# 4 0.000000 0.000000 0.000000 0.030237 0.000000 0.000000
# 5 0.000000 0.000000 0.000000 0.000000 0.044370 0.000000
# 6 0.000000 0.000000 0.000000 0.000000 0.000000 0.036183
#
#
# Mechanical properties :
#
#
# Convention : Reuss Voigt Hill
#
# Bulk Modulus (GPa) = 36.50492 39.24432 37.87462
# Shear Modulus (GPa) = 28.63141 31.39608 30.01374
#
# Velocity S-wave (km/s) = 3.67270 3.84594 3.76032
# Velocity P-wave (km/s) = 5.93153 6.18145 6.05778
#
# Compressibility (1/GPa) = 0.02739357
#
# Stress axis : x y z
#
# Youngs Moduli (GPa) = 77.98639 50.60851 118.05245
#
# Poissons Ratio (x) = 0.18692 0.01116
# Poissons Ratio (y) = 0.28804 0.35910
# Poissons Ratio (z) = 0.00737 0.15394
#
# Static dielectric constant tensor:
#      x y z
#    x 1.831350 0.000000 0.000000 
#    y 0.000000 1.816920 0.000000 
#    z 0.000000 0.000000 1.672310 
# 
# From -- ./inp_files/19673.got.cif
#   From: 2010.05.17/outbox.cif.g08.bks.cpg/sg20_10_cif.got.tgz:19673.got - 2010.06.03 22:52:26.
