data_PCOD9320380
_publ_section_title
;
Structure prediction by ZEFSAII (Michael W. Deem and Ramdas Pophale) SiO2 
 PCOD9320380
Probable space group: C 2 2 21
;
_chemical_formula_sum "Si O2"
_cell_formula_units_Z 28
_cell_length_a 30.039980
_cell_length_b 7.640607
_cell_length_c 5.388325
_cell_angle_alpha 90.000000
_cell_angle_beta 90.000000
_cell_angle_gamma 90.000000
_cell_volume 1236.748191
_symmetry_space_group_name_H-M "C 2 2 21"
_symmetry_group_IT_number 20
_symmetry_cell_setting 'orthorhombic'
loop_
_space_group_symop_operation_xyz
x,y,z
-x,-y,1/2+z
x,-y,-z
-x,y,1/2-z
1/2+x,1/2+y,z
1/2-x,1/2-y,1/2+z
1/2+x,1/2-y,-z
1/2-x,1/2+y,1/2-z
loop_
_atom_site_type_symbol
_atom_site_label
_atom_site_fract_x
_atom_site_fract_y
_atom_site_fract_z
Si Si1 0.000000 0.383244 0.750000
Si Si2 0.097114 0.683086 0.153225
Si Si3 0.657394 0.500000 0.000000
Si Si4 0.658762 0.000000 0.500000
Si Si5 0.721317 0.257840 0.748057
O O1 0.045647 0.278384 0.790871
O O2 0.006591 0.500000 0.500000
O O3 0.125880 0.645785 0.397018
O O4 0.097370 0.500000 0.000000
O O5 0.124509 0.837427 0.031792
O O6 0.691079 0.430577 0.787631
O O7 0.690001 0.910754 0.296435
O O8 0.751337 0.265290 0.502166
#
# Coordination Sequence:
#
# PCOD9320380 Si02
#       5
#     4   8   4   4   8
#     4  10  22  46  78 110 152 200 238 302 388 452
#     4  11  24  48  74 113 148 197 244 314 370 463
#     4  12  27  48  80 108 148 198 258 312 375 438
#     4  12  25  46  72 102 150 192 246 310 367 454
#     4  12  29  49  72 109 150 199 254 313 378 441
#
# _framework density 22.640015999999999
#
# number of rings (size 3 to 8) (size 9 to 14) (size 15 to 20)
#    0.000    0.571    4.286    2.571    0.000   11.429 
#    0.000    8.571    0.000    0.000    0.000    0.000 
#    0.000    0.000    0.000    0.000    0.000    0.000 
#
# Total GULP energy -78301.245670 kJ/mol
# GULP energy per Si atom -5592.946119 kJ/mol
# Density = 2.258849 g / cm^3
# Si number density = 22.640016 Si / 1000 Ang^3
#
#
#
# Elastic Constant Matrix: (Units=GPa)
#
#
# Indices 1 2 3 4 5 6 
#
# 1 209.9153 60.0658 79.4985 0.0000 0.0000 0.0000
# 2 60.0658 94.4594 31.3601 0.0000 0.0000 0.0000
# 3 79.4985 31.3601 128.0731 0.0000 0.0000 0.0000
# 4 0.0000 0.0000 0.0000 32.3433 0.0000 0.0000
# 5 0.0000 0.0000 0.0000 0.0000 42.5391 0.0000
# 6 0.0000 0.0000 0.0000 0.0000 0.0000 39.1191
#
#
#
# Elastic Compliance Matrix: (Units=1/GPa)
#
#
# Indices 1 2 3 4 5 6 
#
# 1 0.007063 -0.003305 -0.003575 0.000000 0.000000 0.000000
# 2 -0.003305 0.013069 -0.001149 0.000000 0.000000 0.000000
# 3 -0.003575 -0.001149 0.010309 0.000000 0.000000 0.000000
# 4 0.000000 0.000000 0.000000 0.030918 0.000000 0.000000
# 5 0.000000 0.000000 0.000000 0.000000 0.023508 0.000000
# 6 0.000000 0.000000 0.000000 0.000000 0.000000 0.025563
#
#
# Mechanical properties :
#
#
# Convention : Reuss Voigt Hill
#
# Bulk Modulus (GPa) = 69.52259 86.03294 77.77776
# Shear Modulus (GPa) = 38.08572 40.23518 39.16045
#
# Velocity S-wave (km/s) = 4.10595 4.22022 4.16348
# Velocity P-wave (km/s) = 7.29746 7.86320 7.58561
#
# Compressibility (1/GPa) = 0.01438381
#
# Stress axis : x y z
#
# Youngs Moduli (GPa) = 141.57415 76.51490 97.00584
#
# Poissons Ratio (x) = 0.25285 0.34683
# Poissons Ratio (y) = 0.46784 0.11145
# Poissons Ratio (z) = 0.50617 0.08791
#
# Static dielectric constant tensor:
#      x y z
#    x 1.835530 0.000000 0.000000 
#    y 0.000000 1.802020 0.000000 
#    z 0.000000 0.000000 1.866340 
# 
# From -- ./inp_files/469.got.cif
#   From: 2010.05.17/outbox.cif.g08.bks.cpg/sg20_1_cif.got.tgz:469.got - 2010.06.03 22:52:26.
