data_PCOD9320962
_publ_section_title
;
Structure prediction by ZEFSAII (Michael W. Deem and Ramdas Pophale) SiO2 
 PCOD9320962
Probable space group: C 2 2 21
;
_chemical_formula_sum "Si O2"
_cell_formula_units_Z 32
_cell_length_a 28.979244
_cell_length_b 9.939897
_cell_length_c 4.918448
_cell_angle_alpha 90.000000
_cell_angle_beta 90.000000
_cell_angle_gamma 90.000000
_cell_volume 1416.762392
_symmetry_space_group_name_H-M "C 2 2 21"
_symmetry_group_IT_number 20
_symmetry_cell_setting 'orthorhombic'
loop_
_space_group_symop_operation_xyz
x,y,z
-x,-y,1/2+z
x,-y,-z
-x,y,1/2-z
1/2+x,1/2+y,z
1/2-x,1/2-y,1/2+z
1/2+x,1/2-y,-z
1/2-x,1/2+y,1/2-z
loop_
_atom_site_type_symbol
_atom_site_label
_atom_site_fract_x
_atom_site_fract_y
_atom_site_fract_z
Si Si1 0.375266 0.629156 0.689174
Si Si2 0.595220 0.778920 0.307010
Si Si3 0.500000 0.089933 0.750000
Si Si4 0.331673 0.000000 0.000000
Si Si5 0.780294 0.728004 0.321147
O O1 0.382703 0.500000 0.500000
O O2 0.399537 0.743894 0.508433
O O3 0.321107 0.663339 0.697587
O O4 0.393239 0.653478 0.993664
O O5 0.543461 0.826678 0.357322
O O6 0.633707 0.891703 0.366186
O O7 0.482792 0.000000 0.500000
O O8 0.300569 0.087761 0.206588
O O9 0.761249 0.725937 0.625391
#
# Coordination Sequence:
#
# PCOD9320962 Si02
#       5
#     8   8   4   4   8
#     4  11  25  47  68  96 141 188 226 274 344 414
#     4  11  24  44  73 105 136 180 222 285 352 400
#     4  12  24  42  74 112 144 168 232 288 344 430
#     4  10  24  46  66  98 142 170 228 290 344 398
#     4  11  25  43  65  98 132 183 235 291 335 401
#
# _framework density 22.58671
#
# number of rings (size 3 to 8) (size 9 to 14) (size 15 to 20)
#    0.000    1.000    1.250    5.250    5.250    5.000 
#    4.500    2.500    0.000    0.000    0.000    0.000 
#    0.000    0.000    0.000    0.000    0.000    0.000 
#
# Total GULP energy -89512.469084 kJ/mol
# GULP energy per Si atom -5594.529318 kJ/mol
# Density = 2.253530 g / cm^3
# Si number density = 22.586710 Si / 1000 Ang^3
#
#
#
# Elastic Constant Matrix: (Units=GPa)
#
#
# Indices 1 2 3 4 5 6 
#
# 1 101.3842 20.8885 0.1532 0.0000 0.0000 0.0000
# 2 20.8885 77.3624 6.4150 0.0000 0.0000 0.0000
# 3 0.1532 6.4150 99.7614 0.0000 0.0000 0.0000
# 4 0.0000 0.0000 0.0000 34.8343 0.0000 0.0000
# 5 0.0000 0.0000 0.0000 0.0000 35.1624 0.0000
# 6 0.0000 0.0000 0.0000 0.0000 0.0000 6.7962
#
#
#
# Elastic Compliance Matrix: (Units=1/GPa)
#
#
# Indices 1 2 3 4 5 6 
#
# 1 0.010447 -0.002835 0.000166 0.000000 0.000000 0.000000
# 2 -0.002835 0.013765 -0.000881 0.000000 0.000000 0.000000
# 3 0.000166 -0.000881 0.010080 0.000000 0.000000 0.000000
# 4 0.000000 0.000000 0.000000 0.028707 0.000000 0.000000
# 5 0.000000 0.000000 0.000000 0.000000 0.028439 0.000000
# 6 0.000000 0.000000 0.000000 0.000000 0.000000 0.147141
#
#
# Mechanical properties :
#
#
# Convention : Reuss Voigt Hill
#
# Bulk Modulus (GPa) = 36.77307 37.04684 36.90996
# Shear Modulus (GPa) = 19.62761 32.09534 25.86148
#
# Velocity S-wave (km/s) = 2.95106 3.77368 3.38744
# Velocity P-wave (km/s) = 5.28468 5.95191 5.62819
#
# Compressibility (1/GPa) = 0.02719381
#
# Stress axis : x y z
#
# Youngs Moduli (GPa) = 95.71901 72.65016 99.20344
#
# Poissons Ratio (x) = 0.20594 -0.01649
# Poissons Ratio (y) = 0.27133 0.08737
# Poissons Ratio (z) = -0.01591 0.06399
#
# Static dielectric constant tensor:
#      x y z
#    x 1.794230 0.000000 0.000000 
#    y 0.000000 1.907310 0.000000 
#    z 0.000000 0.000000 1.786840 
# 
# From -- ./inp_files/591.got.cif
#   From: 2010.05.17/outbox.cif.g08.bks.cpg/sg20_1_cif.got.tgz:591.got - 2010.06.03 22:52:26.
