data_PCOD9320444
_publ_section_title
;
Structure prediction by ZEFSAII (Michael W. Deem and Ramdas Pophale) SiO2 
 PCOD9320444
Probable space group: C 2 2 21
;
_chemical_formula_sum "Si O2"
_cell_formula_units_Z 32
_cell_length_a 10.357794
_cell_length_b 9.051327
_cell_length_c 14.694512
_cell_angle_alpha 90.000000
_cell_angle_beta 90.000000
_cell_angle_gamma 90.000000
_cell_volume 1377.636663
_symmetry_space_group_name_H-M "C 2 2 21"
_symmetry_group_IT_number 20
_symmetry_cell_setting 'orthorhombic'
loop_
_space_group_symop_operation_xyz
x,y,z
-x,-y,1/2+z
x,-y,-z
-x,y,1/2-z
1/2+x,1/2+y,z
1/2-x,1/2-y,1/2+z
1/2+x,1/2-y,-z
1/2-x,1/2+y,1/2-z
loop_
_atom_site_type_symbol
_atom_site_label
_atom_site_fract_x
_atom_site_fract_y
_atom_site_fract_z
Si Si1 0.983648 0.309633 0.057850
Si Si2 0.750694 0.514660 0.861249
Si Si3 0.980377 0.000000 0.500000
Si Si4 0.195704 0.500000 0.000000
Si Si5 0.275496 0.824716 0.329068
O O1 0.861660 0.408857 0.078869
O O2 0.089561 0.368537 0.984556
O O3 0.071426 0.305874 0.149099
O O4 0.945391 0.148227 0.026124
O O5 0.616959 0.525902 0.915569
O O6 0.779396 0.340243 0.844156
O O7 0.746062 0.604546 0.767333
O O8 0.260374 0.444262 0.092767
#
# Coordination Sequence:
#
# PCOD9320444 Si02
#       5
#     8   8   4   4   8
#     4   9  20  41  64  96 140 174 223 286 341 405
#     4  11  21  40  69 102 139 185 221 289 349 395
#     4  10  23  40  67 104 136 174 241 275 328 434
#     4   8  19  40  59  96 136 174 219 287 324 414
#     4   9  22  37  67 101 134 180 232 281 339 424
#
# _framework density 23.228185
#
# number of rings (size 3 to 8) (size 9 to 14) (size 15 to 20)
#    1.500    1.000    0.000    1.500    3.500    0.000 
#    0.000    8.750    0.000    3.000    0.000    0.000 
#    0.000    0.000    0.000    0.000    0.000    0.000 
#
# Total GULP energy -89230.035880 kJ/mol
# GULP energy per Si atom -5576.877243 kJ/mol
# Density = 2.317532 g / cm^3
# Si number density = 23.228185 Si / 1000 Ang^3
#
#
#
# Elastic Constant Matrix: (Units=GPa)
#
#
# Indices 1 2 3 4 5 6 
#
# 1 58.6666 36.9985 42.6961 0.0000 0.0000 0.0000
# 2 36.9985 205.6082 104.7211 0.0000 0.0000 0.0000
# 3 42.6961 104.7211 162.7837 0.0000 0.0000 0.0000
# 4 0.0000 0.0000 0.0000 51.1055 0.0000 0.0000
# 5 0.0000 0.0000 0.0000 0.0000 -4.9851 0.0000
# 6 0.0000 0.0000 0.0000 0.0000 0.0000 41.0599
#
#
#
# Elastic Compliance Matrix: (Units=1/GPa)
#
#
# Indices 1 2 3 4 5 6 
#
# 1 0.021363 -0.001473 -0.004656 0.000000 0.000000 0.000000
# 2 -0.001473 0.007335 -0.004333 0.000000 0.000000 0.000000
# 3 -0.004656 -0.004333 0.010151 0.000000 0.000000 0.000000
# 4 0.000000 0.000000 0.000000 0.019567 0.000000 0.000000
# 5 0.000000 0.000000 0.000000 0.000000 -0.200596 0.000000
# 6 0.000000 0.000000 0.000000 0.000000 0.000000 0.024355
#
#
# Mechanical properties :
#
#
# Convention : Reuss Voigt Hill
#
# Bulk Modulus (GPa) = 55.78125 88.43220 72.10673
# Shear Modulus (GPa) = -54.98915 33.61223 -10.68846
#
# Velocity S-wave (km/s) = -4.87082 3.80813 -2.14744
# Velocity P-wave (km/s) = 2.75073 7.58219 4.99615
#
# Compressibility (1/GPa) = 0.01792717
#
# Stress axis : x y z
#
# Youngs Moduli (GPa) = 46.81078 136.32564 98.50801
#
# Poissons Ratio (x) = 0.20080 0.45861
# Poissons Ratio (y) = 0.06895 0.42680
# Poissons Ratio (z) = 0.21793 0.59065
#
# Static dielectric constant tensor:
#      x y z
#    x 1.935590 0.000000 0.000000 
#    y 0.000000 1.934430 0.000000 
#    z 0.000000 0.000000 1.865080 
# 
# From -- ./inp_files/19529.got.cif
#   From: 2010.05.17/outbox.cif.g08.bks.cpg/sg20_10_cif.got.tgz:19529.got - 2010.06.03 22:52:26.
