data_PCOD9320534
_publ_section_title
;
Structure prediction by ZEFSAII (Michael W. Deem and Ramdas Pophale) SiO2 
 PCOD9320534
Probable space group: C 2 2 21
;
_chemical_formula_sum "Si O2"
_cell_formula_units_Z 60
_cell_length_a 16.560569
_cell_length_b 9.698682
_cell_length_c 17.470028
_cell_angle_alpha 90.000000
_cell_angle_beta 90.000000
_cell_angle_gamma 90.000000
_cell_volume 2805.960645
_symmetry_space_group_name_H-M "C 2 2 21"
_symmetry_group_IT_number 20
_symmetry_cell_setting 'orthorhombic'
loop_
_space_group_symop_operation_xyz
x,y,z
-x,-y,1/2+z
x,-y,-z
-x,y,1/2-z
1/2+x,1/2+y,z
1/2-x,1/2-y,1/2+z
1/2+x,1/2-y,-z
1/2-x,1/2+y,1/2-z
loop_
_atom_site_type_symbol
_atom_site_label
_atom_site_fract_x
_atom_site_fract_y
_atom_site_fract_z
Si Si1 0.503722 0.007644 0.413801
Si Si2 0.846486 0.898444 0.235484
Si Si3 0.568270 0.205001 0.814375
Si Si4 0.781924 0.811497 0.781778
Si Si5 0.721192 0.500000 0.000000
Si Si6 0.421782 0.516171 0.383416
Si Si7 0.648905 0.207581 0.559237
Si Si8 0.939468 0.818400 0.082601
O O1 0.440992 0.941387 0.355116
O O2 0.582996 0.908197 0.415380
O O3 0.470292 0.000000 0.500000
O O4 0.530569 0.163124 0.398050
O O5 0.802320 0.762939 0.266559
O O6 0.909842 0.953086 0.298467
O O7 0.886258 0.871877 0.153490
O O8 0.783270 0.025025 0.230506
O O9 0.500000 0.212316 0.750000
O O10 0.653619 0.243536 0.777174
O O11 0.549387 0.327120 0.874475
O O12 0.815997 0.779816 0.866006
O O13 0.663202 0.482818 0.927159
O O14 0.779175 0.628466 0.984228
O O15 0.484161 0.417370 0.424904
O O16 0.608074 0.306250 0.496973
#
# Coordination Sequence:
#
# PCOD9320534 Si02
#       8
#     8   8   8   8   4   8   8   8
#     4  10  23  42  68  96 139 182 233 283 349 422
#     4  11  26  45  69 100 143 182 239 295 357 427
#     4  11  23  41  70  99 137 185 230 291 356 418
#     4  11  25  44  69 100 140 186 237 295 354 430
#     4  12  24  44  72 100 142 194 222 290 362 424
#     4  11  26  42  70 103 138 177 240 293 353 420
#     4  11  23  46  69  99 139 188 236 279 362 425
#     4  11  25  44  71 101 137 184 234 298 348 425
#
# _framework density 21.383053
#
# number of rings (size 3 to 8) (size 9 to 14) (size 15 to 20)
#    0.000    1.067    4.667    2.000    9.333    2.667 
#    0.000    0.000    0.000    0.000    0.000    0.000 
#    0.000    0.000    0.000    0.000    0.000    0.000 
#
# Total GULP energy -167888.008930 kJ/mol
# GULP energy per Si atom -5596.266964 kJ/mol
# Density = 2.133438 g / cm^3
# Si number density = 21.383053 Si / 1000 Ang^3
#
#
#
# Elastic Constant Matrix: (Units=GPa)
#
#
# Indices 1 2 3 4 5 6 
#
# 1 50.1816 27.8927 25.8491 0.0000 0.0000 0.0000
# 2 27.8927 75.0755 16.3277 0.0000 0.0000 0.0000
# 3 25.8491 16.3277 72.5102 0.0000 0.0000 0.0000
# 4 0.0000 0.0000 0.0000 42.4559 0.0000 0.0000
# 5 0.0000 0.0000 0.0000 0.0000 3.7470 0.0000
# 6 0.0000 0.0000 0.0000 0.0000 0.0000 26.4063
#
#
#
# Elastic Compliance Matrix: (Units=1/GPa)
#
#
# Indices 1 2 3 4 5 6 
#
# 1 0.029288 -0.009054 -0.008402 0.000000 0.000000 0.000000
# 2 -0.009054 0.016805 -0.000556 0.000000 0.000000 0.000000
# 3 -0.008402 -0.000556 0.016912 0.000000 0.000000 0.000000
# 4 0.000000 0.000000 0.000000 0.023554 0.000000 0.000000
# 5 0.000000 0.000000 0.000000 0.000000 0.266882 0.000000
# 6 0.000000 0.000000 0.000000 0.000000 0.000000 0.037870
#
#
# Mechanical properties :
#
#
# Convention : Reuss Voigt Hill
#
# Bulk Modulus (GPa) = 37.06517 37.54513 37.30515
# Shear Modulus (GPa) = 11.45924 23.03503 17.24713
#
# Velocity S-wave (km/s) = 2.31747 3.28572 2.84312
# Velocity P-wave (km/s) = 4.95302 5.65607 5.31618
#
# Compressibility (1/GPa) = 0.02697951
#
# Stress axis : x y z
#
# Youngs Moduli (GPa) = 34.14342 59.50687 59.13060
#
# Poissons Ratio (x) = 0.53878 0.49682
# Poissons Ratio (y) = 0.30914 0.03290
# Poissons Ratio (z) = 0.28688 0.03311
#
# Static dielectric constant tensor:
#      x y z
#    x 1.755080 0.000000 0.000000 
#    y 0.000000 1.763520 0.000000 
#    z 0.000000 0.000000 1.785480 
# 
# From -- ./inp_files/25269.got.cif
#   From: 2010.05.17/outbox.cif.g08.bks.cpg/sg20_13_cif.got.tgz:25269.got - 2010.06.03 22:52:26.
