data_PCOD9320077
_publ_section_title
;
Structure prediction by ZEFSAII (Michael W. Deem and Ramdas Pophale) SiO2 
 PCOD9320077
Probable space group: C 2 2 21
;
_chemical_formula_sum "Si O2"
_cell_formula_units_Z 60
_cell_length_a 29.615091
_cell_length_b 8.850475
_cell_length_c 11.420586
_cell_angle_alpha 90.000000
_cell_angle_beta 90.000000
_cell_angle_gamma 90.000000
_cell_volume 2993.422644
_symmetry_space_group_name_H-M "C 2 2 21"
_symmetry_group_IT_number 20
_symmetry_cell_setting 'orthorhombic'
loop_
_space_group_symop_operation_xyz
x,y,z
-x,-y,1/2+z
x,-y,-z
-x,y,1/2-z
1/2+x,1/2+y,z
1/2-x,1/2-y,1/2+z
1/2+x,1/2-y,-z
1/2-x,1/2+y,1/2-z
loop_
_atom_site_type_symbol
_atom_site_label
_atom_site_fract_x
_atom_site_fract_y
_atom_site_fract_z
Si Si1 0.892522 0.252671 0.312057
Si Si2 0.219065 0.675117 0.237451
Si Si3 0.000000 0.782166 0.250000
Si Si4 0.555649 0.024243 0.124862
Si Si5 0.408229 0.428254 0.210602
Si Si6 0.306603 0.845887 0.170571
Si Si7 0.172607 0.838771 0.446249
Si Si8 0.135443 0.735211 0.081032
O O1 0.935720 0.364615 0.314013
O O2 0.850811 0.331280 0.248783
O O3 0.875857 0.221302 0.446540
O O4 0.903038 0.104587 0.236651
O O5 0.269628 0.720317 0.205653
O O6 0.213436 0.510958 0.298240
O O7 0.201959 0.794214 0.334190
O O8 0.186396 0.699752 0.123794
O O9 0.971121 0.662849 0.323369
O O10 0.960502 0.883474 0.194518
O O11 0.606332 0.085646 0.105631
O O12 0.533643 0.000000 0.000000
O O13 0.377912 0.365570 0.104039
O O14 0.386178 0.354299 0.327994
O O15 0.321502 0.796442 0.039754
O O16 0.186702 0.000000 0.500000
#
# Coordination Sequence:
#
# PCOD9320077 Si02
#       8
#     8   8   4   8   8   8   8   8
#     4  11  21  39  68  95 128 170 220 265 335 391
#     4  11  25  42  64  98 135 180 226 277 326 388
#     4  10  22  44  66  94 130 164 218 266 340 408
#     4   9  19  40  64  95 123 165 215 270 324 401
#     4  10  22  42  67  94 129 174 211 279 335 395
#     4  12  25  41  65  98 136 178 228 271 330 400
#     4  11  23  46  64  93 140 177 224 275 337 400
#     4   9  20  40  65  89 129 171 213 265 331 380
#
# _framework density 20.043946999999999
#
# number of rings (size 3 to 8) (size 9 to 14) (size 15 to 20)
#    0.000    1.600    2.667    1.600    3.733    0.533 
#    2.400    4.000    0.000    0.000    0.000    0.000 
#    0.000    0.000    0.000    0.000    0.000    0.000 
#
# Total GULP energy -167167.511870 kJ/mol
# GULP energy per Si atom -5572.250396 kJ/mol
# Density = 1.999833 g / cm^3
# Si number density = 20.043947 Si / 1000 Ang^3
#
#
#
# Elastic Constant Matrix: (Units=GPa)
#
#
# Indices 1 2 3 4 5 6 
#
# 1 56.3541 27.9055 42.1871 0.0000 0.0000 0.0000
# 2 27.9055 97.7127 15.4136 0.0000 0.0000 0.0000
# 3 42.1871 15.4136 69.9147 0.0000 0.0000 0.0000
# 4 0.0000 0.0000 0.0000 32.5610 0.0000 0.0000
# 5 0.0000 0.0000 0.0000 0.0000 5.6826 0.0000
# 6 0.0000 0.0000 0.0000 0.0000 0.0000 22.4899
#
#
#
# Elastic Compliance Matrix: (Units=1/GPa)
#
#
# Indices 1 2 3 4 5 6 
#
# 1 0.036727 -0.007245 -0.020564 0.000000 0.000000 0.000000
# 2 -0.007245 0.012032 0.001719 0.000000 0.000000 0.000000
# 3 -0.020564 0.001719 0.026333 0.000000 0.000000 0.000000
# 4 0.000000 0.000000 0.000000 0.030712 0.000000 0.000000
# 5 0.000000 0.000000 0.000000 0.000000 0.175975 0.000000
# 6 0.000000 0.000000 0.000000 0.000000 0.000000 0.044464
#
#
# Mechanical properties :
#
#
# Convention : Reuss Voigt Hill
#
# Bulk Modulus (GPa) = 43.64587 43.88821 43.76704
# Shear Modulus (GPa) = 12.95137 21.37841 17.16489
#
# Velocity S-wave (km/s) = 2.54470 3.26939 2.92954
# Velocity P-wave (km/s) = 5.51873 6.01626 5.77286
#
# Compressibility (1/GPa) = 0.02291168
#
# Stress axis : x y z
#
# Youngs Moduli (GPa) = 27.22795 83.11198 37.97549
#
# Poissons Ratio (x) = 0.60214 0.78093
# Poissons Ratio (y) = 0.19726 -0.06528
# Poissons Ratio (z) = 0.55992 -0.14287
#
# Static dielectric constant tensor:
#      x y z
#    x 1.780720 0.000000 0.000000 
#    y 0.000000 1.744000 0.000000 
#    z 0.000000 0.000000 1.746240 
# 
# From -- ./inp_files/17069.got.cif
#   From: 2010.05.17/outbox.cif.g08.bks.cpg/sg20_9_cif.got.tgz:17069.got - 2010.06.03 22:52:26.
