data_PCOD9320315
_publ_section_title
;
Structure prediction by ZEFSAII (Michael W. Deem and Ramdas Pophale) SiO2 
 PCOD9320315
Probable space group: C 2 2 21
;
_chemical_formula_sum "Si O2"
_cell_formula_units_Z 60
_cell_length_a 12.607410
_cell_length_b 24.760974
_cell_length_c 9.423142
_cell_angle_alpha 90.000000
_cell_angle_beta 90.000000
_cell_angle_gamma 90.000000
_cell_volume 2941.638740
_symmetry_space_group_name_H-M "C 2 2 21"
_symmetry_group_IT_number 20
_symmetry_cell_setting 'orthorhombic'
loop_
_space_group_symop_operation_xyz
x,y,z
-x,-y,1/2+z
x,-y,-z
-x,y,1/2-z
1/2+x,1/2+y,z
1/2-x,1/2-y,1/2+z
1/2+x,1/2-y,-z
1/2-x,1/2+y,1/2-z
loop_
_atom_site_type_symbol
_atom_site_label
_atom_site_fract_x
_atom_site_fract_y
_atom_site_fract_z
Si Si1 0.995661 0.326498 0.415597
Si Si2 0.626594 0.679053 0.752174
Si Si3 0.000000 0.869903 0.750000
Si Si4 0.099957 0.209601 0.439761
Si Si5 0.176841 0.055751 0.156926
Si Si6 0.614815 0.437973 0.169764
Si Si7 0.173138 0.293808 0.863473
Si Si8 0.903025 0.612702 0.160340
O O1 0.057301 0.269832 0.434122
O O2 0.054589 0.372063 0.505979
O O3 0.000000 0.338864 0.250000
O O4 0.882251 0.315934 0.492640
O O5 0.500000 0.674343 0.750000
O O6 0.648522 0.696490 0.592193
O O7 0.667124 0.619460 0.789024
O O8 0.652966 0.729686 0.851299
O O9 0.008730 0.830725 0.613758
O O10 0.102193 0.907820 0.745309
O O11 0.201533 0.201010 0.341062
O O12 0.295484 0.078682 0.153890
O O13 0.173911 0.993694 0.206546
O O14 0.119014 0.060761 0.002378
O O15 0.500000 0.440840 0.250000
O O16 0.120432 0.330194 0.740664
O O17 0.000000 0.587127 0.250000
#
# Coordination Sequence:
#
# PCOD9320315 Si02
#       8
#     8   8   4   8   8   8   8   8
#     4  11  24  38  58  95 135 174 223 272 322 403
#     4  11  21  40  58  85 128 171 206 266 329 397
#     4  12  22  38  58  98 132 160 220 264 332 388
#     4  12  24  33  60  94 130 173 211 268 327 407
#     4  11  23  42  68  95 130 175 219 282 335 406
#     4  10  23  40  64  96 127 170 217 273 348 404
#     4  11  23  39  60  93 134 174 214 265 338 402
#     4  10  22  45  69  94 133 182 224 271 341 409
#
# _framework density 20.396794
#
# number of rings (size 3 to 8) (size 9 to 14) (size 15 to 20)
#    0.000    1.067    5.333    2.000    3.733    0.000 
#    0.000    0.000    0.000    9.600    1.733    0.000 
#    0.000    0.000    0.000    0.000    0.000    0.000 
#
# Total GULP energy -167356.056314 kJ/mol
# GULP energy per Si atom -5578.535210 kJ/mol
# Density = 2.035037 g / cm^3
# Si number density = 20.396794 Si / 1000 Ang^3
#
#
#
# Elastic Constant Matrix: (Units=GPa)
#
#
# Indices 1 2 3 4 5 6 
#
# 1 97.1012 41.0802 8.6128 0.0000 0.0000 0.0000
# 2 41.0802 103.7959 22.7501 0.0000 0.0000 0.0000
# 3 8.6128 22.7501 85.8945 0.0000 0.0000 0.0000
# 4 0.0000 0.0000 0.0000 13.6296 0.0000 0.0000
# 5 0.0000 0.0000 0.0000 0.0000 9.4588 0.0000
# 6 0.0000 0.0000 0.0000 0.0000 0.0000 6.3109
#
#
#
# Elastic Compliance Matrix: (Units=1/GPa)
#
#
# Indices 1 2 3 4 5 6 
#
# 1 0.012370 -0.004909 0.000060 0.000000 0.000000 0.000000
# 2 -0.004909 0.012176 -0.002733 0.000000 0.000000 0.000000
# 3 0.000060 -0.002733 0.012360 0.000000 0.000000 0.000000
# 4 0.000000 0.000000 0.000000 0.073370 0.000000 0.000000
# 5 0.000000 0.000000 0.000000 0.000000 0.105722 0.000000
# 6 0.000000 0.000000 0.000000 0.000000 0.000000 0.158455
#
#
# Mechanical properties :
#
#
# Convention : Reuss Voigt Hill
#
# Bulk Modulus (GPa) = 45.99302 47.96420 46.97861
# Shear Modulus (GPa) = 12.59878 20.16977 16.38427
#
# Velocity S-wave (km/s) = 2.48802 3.14804 2.83729
# Velocity P-wave (km/s) = 5.55444 6.06466 5.81515
#
# Compressibility (1/GPa) = 0.02174243
#
# Stress axis : x y z
#
# Youngs Moduli (GPa) = 80.84068 82.12808 80.90620
#
# Poissons Ratio (x) = 0.40316 -0.00484
# Poissons Ratio (y) = 0.39684 0.22110
# Poissons Ratio (z) = -0.00484 0.22444
#
# Static dielectric constant tensor:
#      x y z
#    x 1.785360 0.000000 0.000000 
#    y 0.000000 1.736420 0.000000 
#    z 0.000000 0.000000 1.777980 
# 
# From -- ./inp_files/7567.got.cif
#   From: 2010.05.17/outbox.cif.g08.bks.cpg/sg20_4_cif.got.tgz:7567.got - 2010.06.03 22:52:26.
