data_PCOD9320087
_publ_section_title
;
Structure prediction by ZEFSAII (Michael W. Deem and Ramdas Pophale) SiO2 
 PCOD9320087
Probable space group: C 2 2 21
;
_chemical_formula_sum "Si O2"
_cell_formula_units_Z 28
_cell_length_a 4.196298
_cell_length_b 27.547728
_cell_length_c 8.042279
_cell_angle_alpha 90.000000
_cell_angle_beta 90.000000
_cell_angle_gamma 90.000000
_cell_volume 929.675195
_symmetry_space_group_name_H-M "C 2 2 21"
_symmetry_group_IT_number 20
_symmetry_cell_setting 'orthorhombic'
loop_
_space_group_symop_operation_xyz
x,y,z
-x,-y,1/2+z
x,-y,-z
-x,y,1/2-z
1/2+x,1/2+y,z
1/2-x,1/2-y,1/2+z
1/2+x,1/2-y,-z
1/2-x,1/2+y,1/2-z
loop_
_atom_site_type_symbol
_atom_site_label
_atom_site_fract_x
_atom_site_fract_y
_atom_site_fract_z
Si Si1 0.958527 0.361932 0.994090
Si Si2 0.000000 0.286213 0.750000
Si Si3 0.000000 0.075985 0.250000
Si Si4 0.500000 0.212501 0.750000
Si Si5 0.000000 0.562719 0.750000
Si Si6 0.061036 0.000000 0.000000
O O1 0.815543 0.323307 0.124312
O O2 0.142644 0.399201 0.114765
O O3 0.152040 0.323873 0.881181
O O4 0.735361 0.392568 0.867268
O O5 0.746171 0.250253 0.830162
O O6 0.863825 0.037427 0.114541
O O7 0.228695 0.530893 0.632063
#
# Coordination Sequence:
#
# PCOD9320087 Si02
#       6
#     8   4   4   4   4   4
#     4  10  23  44  69 106 149 196 257 318 388 462
#     4  12  24  43  73 105 146 197 249 311 384 462
#     4  10  23  42  70 106 148 206 262 326 389 468
#     4  11  25  46  72 105 150 193 246 312 383 461
#     4   9  22  43  67 100 148 206 263 329 390 469
#     4  10  22  42  68 102 150 204 266 322 396 466
#
# _framework density 30.118046
#
# number of rings (size 3 to 8) (size 9 to 14) (size 15 to 20)
#    0.000    1.714    0.000    2.571    0.000   10.286 
#    0.000   12.857    0.000    0.000    0.000    0.000 
#    0.000    0.000    0.000    0.000    0.000    0.000 
#
# Total GULP energy -78098.528787 kJ/mol
# GULP energy per Si atom -5578.466342 kJ/mol
# Density = 3.004950 g / cm^3
# Si number density = 30.118046 Si / 1000 Ang^3
#
#
#
# Elastic Constant Matrix: (Units=GPa)
#
#
# Indices 1 2 3 4 5 6 
#
# 1 67.9018 72.6884 66.2619 0.0000 0.0000 0.0000
# 2 72.6884 218.3993 154.0956 0.0000 0.0000 0.0000
# 3 66.2619 154.0956 219.6487 0.0000 0.0000 0.0000
# 4 0.0000 0.0000 0.0000 145.7700 0.0000 0.0000
# 5 0.0000 0.0000 0.0000 0.0000 72.5089 0.0000
# 6 0.0000 0.0000 0.0000 0.0000 0.0000 23.5088
#
#
#
# Elastic Compliance Matrix: (Units=1/GPa)
#
#
# Indices 1 2 3 4 5 6 
#
# 1 0.023988 -0.005699 -0.003238 0.000000 0.000000 0.000000
# 2 -0.005699 0.010421 -0.005591 0.000000 0.000000 0.000000
# 3 -0.003238 -0.005591 0.009452 0.000000 0.000000 0.000000
# 4 0.000000 0.000000 0.000000 0.006860 0.000000 0.000000
# 5 0.000000 0.000000 0.000000 0.000000 0.013791 0.000000
# 6 0.000000 0.000000 0.000000 0.000000 0.000000 0.042537
#
#
# Mechanical properties :
#
#
# Convention : Reuss Voigt Hill
#
# Bulk Modulus (GPa) = 67.55164 121.33795 94.44480
# Shear Modulus (GPa) = 35.45050 62.55113 49.00081
#
# Velocity S-wave (km/s) = 3.43454 4.56221 4.03793
# Velocity P-wave (km/s) = 6.18108 8.25388 7.29151
#
# Compressibility (1/GPa) = 0.01480349
#
# Stress axis : x y z
#
# Youngs Moduli (GPa) = 41.68765 95.96363 105.79304
#
# Poissons Ratio (x) = 0.54687 0.34261
# Poissons Ratio (y) = 0.23757 0.59154
# Poissons Ratio (z) = 0.13501 0.53658
#
# Static dielectric constant tensor:
#      x y z
#    x 2.390950 0.000000 0.000000 
#    y 0.000000 2.234880 0.000000 
#    z 0.000000 0.000000 2.385320 
# 
# From -- ./inp_files/5101.got.cif
#   From: 2010.05.17/outbox.cif.g08.bks.cpg/sg20_3_cif.got.tgz:5101.got - 2010.06.03 22:52:26.
