data_PCOD9320701
_publ_section_title
;
Structure prediction by ZEFSAII (Michael W. Deem and Ramdas Pophale) SiO2 
 PCOD9320701
Probable space group: C 2 2 21
;
_chemical_formula_sum "Si O2"
_cell_formula_units_Z 32
_cell_length_a 4.836466
_cell_length_b 24.478529
_cell_length_c 11.231351
_cell_angle_alpha 90.000000
_cell_angle_beta 90.000000
_cell_angle_gamma 90.000000
_cell_volume 1329.674852
_symmetry_space_group_name_H-M "C 2 2 21"
_symmetry_group_IT_number 20
_symmetry_cell_setting 'orthorhombic'
loop_
_space_group_symop_operation_xyz
x,y,z
-x,-y,1/2+z
x,-y,-z
-x,y,1/2-z
1/2+x,1/2+y,z
1/2-x,1/2-y,1/2+z
1/2+x,1/2-y,-z
1/2-x,1/2+y,1/2-z
loop_
_atom_site_type_symbol
_atom_site_label
_atom_site_fract_x
_atom_site_fract_y
_atom_site_fract_z
Si Si1 0.500000 0.238856 0.250000
Si Si2 0.674707 0.647744 0.390973
Si Si3 0.000000 0.309747 0.250000
Si Si4 0.657888 0.121527 0.537918
Si Si5 0.156214 0.000000 0.000000
Si Si6 0.000000 0.947748 0.750000
O O1 0.317448 0.201249 0.338590
O O2 0.247018 0.273304 0.191776
O O3 0.359736 0.648223 0.437996
O O4 0.716006 0.598067 0.297473
O O5 0.841424 0.630393 0.505620
O O6 0.178090 0.347223 0.338802
O O7 0.699670 0.056846 0.534046
O O8 0.029233 0.016748 0.129899
#
# Coordination Sequence:
#
# PCOD9320701 Si02
#       6
#     4   8   4   8   4   4
#     4  12  24  45  73 100 143 195 240 308 374 426
#     4  11  24  46  70  99 141 192 245 290 359 455
#     4  12  27  44  71 108 143 184 245 310 372 432
#     4  11  26  45  70 106 144 185 242 301 364 447
#     4  10  24  44  76 106 146 192 234 302 374 432
#     4  10  23  45  74 108 140 189 245 298 362 446
#
# _framework density 24.066034999999999
#
# number of rings (size 3 to 8) (size 9 to 14) (size 15 to 20)
#    0.000    1.000    0.000    6.750    0.000   15.000 
#    0.000    2.500    0.000    0.000    0.000    0.000 
#    0.000    0.000    0.000    0.000    0.000    0.000 
#
# Total GULP energy -89074.020738 kJ/mol
# GULP energy per Si atom -5567.126296 kJ/mol
# Density = 2.401126 g / cm^3
# Si number density = 24.066035 Si / 1000 Ang^3
#
#
#
# Elastic Constant Matrix: (Units=GPa)
#
#
# Indices 1 2 3 4 5 6 
#
# 1 65.1722 33.6941 12.7014 0.0000 0.0000 0.0000
# 2 33.6941 147.0091 55.9675 0.0000 0.0000 0.0000
# 3 12.7014 55.9675 124.6335 0.0000 0.0000 0.0000
# 4 0.0000 0.0000 0.0000 41.8511 0.0000 0.0000
# 5 0.0000 0.0000 0.0000 0.0000 42.2987 0.0000
# 6 0.0000 0.0000 0.0000 0.0000 0.0000 12.1384
#
#
#
# Elastic Compliance Matrix: (Units=1/GPa)
#
#
# Indices 1 2 3 4 5 6 
#
# 1 0.017407 -0.003998 0.000021 0.000000 0.000000 0.000000
# 2 -0.003998 0.009123 -0.003689 0.000000 0.000000 0.000000
# 3 0.000021 -0.003689 0.009678 0.000000 0.000000 0.000000
# 4 0.000000 0.000000 0.000000 0.023894 0.000000 0.000000
# 5 0.000000 0.000000 0.000000 0.000000 0.023641 0.000000
# 6 0.000000 0.000000 0.000000 0.000000 0.000000 0.082383
#
#
# Mechanical properties :
#
#
# Convention : Reuss Voigt Hill
#
# Bulk Modulus (GPa) = 47.90129 60.17123 54.03626
# Shear Modulus (GPa) = 26.53693 34.88776 30.71234
#
# Velocity S-wave (km/s) = 3.32425 3.81158 3.57623
# Velocity P-wave (km/s) = 5.88910 6.66541 6.28925
#
# Compressibility (1/GPa) = 0.02087627
#
# Stress axis : x y z
#
# Youngs Moduli (GPa) = 57.44946 109.61138 103.32596
#
# Poissons Ratio (x) = 0.43819 -0.00220
# Poissons Ratio (y) = 0.22966 0.38121
# Poissons Ratio (z) = -0.00122 0.40440
#
# Static dielectric constant tensor:
#      x y z
#    x 1.824980 0.000000 0.000000 
#    y 0.000000 1.941320 0.000000 
#    z 0.000000 0.000000 1.886190 
# 
# From -- ./inp_files/11963.got.cif
#   From: 2010.05.17/outbox.cif.g08.bks.cpg/sg20_6_cif.got.tgz:11963.got - 2010.06.03 22:52:26.
