data_PCOD9320489
_publ_section_title
;
Structure prediction by ZEFSAII (Michael W. Deem and Ramdas Pophale) SiO2 
 PCOD9320489
Probable space group: C 2 2 21
;
_chemical_formula_sum "Si O2"
_cell_formula_units_Z 32
_cell_length_a 8.445080
_cell_length_b 19.988748
_cell_length_c 8.980383
_cell_angle_alpha 90.000000
_cell_angle_beta 90.000000
_cell_angle_gamma 90.000000
_cell_volume 1515.947705
_symmetry_space_group_name_H-M "C 2 2 21"
_symmetry_group_IT_number 20
_symmetry_cell_setting 'orthorhombic'
loop_
_space_group_symop_operation_xyz
x,y,z
-x,-y,1/2+z
x,-y,-z
-x,y,1/2-z
1/2+x,1/2+y,z
1/2-x,1/2-y,1/2+z
1/2+x,1/2-y,-z
1/2-x,1/2+y,1/2-z
loop_
_atom_site_type_symbol
_atom_site_label
_atom_site_fract_x
_atom_site_fract_y
_atom_site_fract_z
Si Si1 0.319119 0.849902 0.983542
Si Si2 0.104430 0.733216 0.891144
Si Si3 0.814646 0.887839 0.218887
Si Si4 0.500000 0.921640 0.750000
Si Si5 0.314392 0.000000 0.500000
O O1 0.179897 0.795646 0.973760
O O2 0.353462 0.882267 0.824528
O O3 0.482273 0.811064 0.015837
O O4 0.278196 0.897776 0.123177
O O5 0.242136 0.682338 0.839459
O O6 0.000000 0.756046 0.750000
O O7 0.000000 0.883568 0.250000
O O8 0.781442 0.945477 0.097456
O O9 0.426134 0.963029 0.616653
#
# Coordination Sequence:
#
# PCOD9320489 Si02
#       5
#     8   8   8   4   4
#     4  11  24  42  70 104 138 180 224 286 347 410
#     4  10  23  41  68 106 139 177 224 278 351 409
#     4  11  25  45  69  98 140 180 230 285 343 406
#     4  12  26  42  72  96 136 182 230 282 342 406
#     4  12  26  46  68  96 136 182 240 278 336 412
#
# _framework density 21.108906000000001
#
# number of rings (size 3 to 8) (size 9 to 14) (size 15 to 20)
#    0.000    1.000    2.500    3.000   10.500    4.000 
#    0.000    0.000    0.000    0.000    0.000    0.000 
#    0.000    0.000    0.000    0.000    0.000    0.000 
#
# Total GULP energy -89434.145647 kJ/mol
# GULP energy per Si atom -5589.634103 kJ/mol
# Density = 2.106086 g / cm^3
# Si number density = 21.108906 Si / 1000 Ang^3
#
#
#
# Elastic Constant Matrix: (Units=GPa)
#
#
# Indices 1 2 3 4 5 6 
#
# 1 128.6322 50.5966 47.0966 0.0000 0.0000 0.0000
# 2 50.5966 57.1762 60.3231 0.0000 0.0000 0.0000
# 3 47.0966 60.3231 131.0283 0.0000 0.0000 0.0000
# 4 0.0000 0.0000 0.0000 40.4602 0.0000 0.0000
# 5 0.0000 0.0000 0.0000 0.0000 33.4814 0.0000
# 6 0.0000 0.0000 0.0000 0.0000 0.0000 17.8045
#
#
#
# Elastic Compliance Matrix: (Units=1/GPa)
#
#
# Indices 1 2 3 4 5 6 
#
# 1 0.012009 -0.011809 0.001120 0.000000 0.000000 0.000000
# 2 -0.011809 0.045620 -0.016758 0.000000 0.000000 0.000000
# 3 0.001120 -0.016758 0.014945 0.000000 0.000000 0.000000
# 4 0.000000 0.000000 0.000000 0.024716 0.000000 0.000000
# 5 0.000000 0.000000 0.000000 0.000000 0.029867 0.000000
# 6 0.000000 0.000000 0.000000 0.000000 0.000000 0.056166
#
#
# Mechanical properties :
#
#
# Convention : Reuss Voigt Hill
#
# Bulk Modulus (GPa) = 56.56139 70.31881 63.44010
# Shear Modulus (GPa) = 20.48266 28.93725 24.70995
#
# Velocity S-wave (km/s) = 3.11840 3.70652 3.42511
# Velocity P-wave (km/s) = 6.31023 7.19044 6.76467
#
# Compressibility (1/GPa) = 0.01767990
#
# Stress axis : x y z
#
# Youngs Moduli (GPa) = 83.27185 21.92017 66.91404
#
# Poissons Ratio (x) = 0.25885 -0.07495
# Poissons Ratio (y) = 0.98332 1.12136
# Poissons Ratio (z) = -0.09327 0.36734
#
# Static dielectric constant tensor:
#      x y z
#    x 1.732920 0.000000 0.000000 
#    y 0.000000 1.778150 0.000000 
#    z 0.000000 0.000000 1.732880 
# 
# From -- ./inp_files/5840.got.cif
#   From: 2010.05.17/outbox.cif.g08.bks.cpg/sg20_3_cif.got.tgz:5840.got - 2010.06.03 22:52:26.
