data_PCOD9320210
_publ_section_title
;
Structure prediction by ZEFSAII (Michael W. Deem and Ramdas Pophale) SiO2 
 PCOD9320210
Probable space group: C 2 2 21
;
_chemical_formula_sum "Si O2"
_cell_formula_units_Z 56
_cell_length_a 5.618860
_cell_length_b 14.561654
_cell_length_c 30.634621
_cell_angle_alpha 90.000000
_cell_angle_beta 90.000000
_cell_angle_gamma 90.000000
_cell_volume 2506.521480
_symmetry_space_group_name_H-M "C 2 2 21"
_symmetry_group_IT_number 20
_symmetry_cell_setting 'orthorhombic'
loop_
_space_group_symop_operation_xyz
x,y,z
-x,-y,1/2+z
x,-y,-z
-x,y,1/2-z
1/2+x,1/2+y,z
1/2-x,1/2-y,1/2+z
1/2+x,1/2-y,-z
1/2-x,1/2+y,1/2-z
loop_
_atom_site_type_symbol
_atom_site_label
_atom_site_fract_x
_atom_site_fract_y
_atom_site_fract_z
Si Si1 0.484429 0.554907 0.200643
Si Si2 0.382229 0.010535 0.064217
Si Si3 0.715396 0.152239 0.032267
Si Si4 0.032770 0.145647 0.947860
Si Si5 0.556862 0.643040 0.110561
Si Si6 0.012474 0.558371 0.700841
Si Si7 0.339741 0.853705 0.384547
O O1 0.500000 0.593385 0.250000
O O2 0.485495 0.624312 0.160147
O O3 0.725061 0.490023 0.195975
O O4 0.223779 0.506834 0.197966
O O5 0.495546 0.083141 0.031329
O O6 0.282903 0.078950 0.101366
O O7 0.551399 0.935453 0.086567
O O8 0.177938 0.946402 0.045474
O O9 0.661111 0.257549 0.044083
O O10 0.871269 0.115596 0.072850
O O11 0.834575 0.148526 0.985340
O O12 0.938104 0.140558 0.897837
O O13 0.603568 0.749806 0.102362
O O14 0.000000 0.597128 0.750000
O O15 0.949447 0.630006 0.662919
#
# Coordination Sequence:
#
# PCOD9320210 Si02
#       7
#     8   8   8   8   8   8   8
#     4  10  22  43  72 109 152 199 251 311 378 452
#     4  12  26  49  72  98 144 194 234 308 371 446
#     4  12  28  50  72 106 146 192 251 310 372 453
#     4  12  28  50  72 106 146 192 251 310 372 453
#     4  12  25  45  74 105 145 194 245 308 374 450
#     4  10  22  43  72 109 152 199 251 311 378 452
#     4  12  25  45  74 105 145 194 245 308 374 450
#
# _framework density 22.341719999999999
#
# number of rings (size 3 to 8) (size 9 to 14) (size 15 to 20)
#    0.000    0.571    4.286    3.429    0.000    4.000 
#    0.000    0.000    0.000    5.143    0.000    0.000 
#    0.000    0.000    0.000    0.000    0.000    0.000 
#
# Total GULP energy -156343.358426 kJ/mol
# GULP energy per Si atom -5583.691372 kJ/mol
# Density = 2.229087 g / cm^3
# Si number density = 22.341720 Si / 1000 Ang^3
#
#
#
# Elastic Constant Matrix: (Units=GPa)
#
#
# Indices 1 2 3 4 5 6 
#
# 1 54.5129 26.1854 14.7060 0.0000 0.0000 0.0000
# 2 26.1854 136.1308 21.5913 0.0000 0.0000 0.0000
# 3 14.7060 21.5913 88.8454 0.0000 0.0000 0.0000
# 4 0.0000 0.0000 0.0000 33.3584 0.0000 0.0000
# 5 0.0000 0.0000 0.0000 0.0000 30.1836 0.0000
# 6 0.0000 0.0000 0.0000 0.0000 0.0000 30.7916
#
#
#
# Elastic Compliance Matrix: (Units=1/GPa)
#
#
# Indices 1 2 3 4 5 6 
#
# 1 0.020759 -0.003586 -0.002565 0.000000 0.000000 0.000000
# 2 -0.003586 0.008260 -0.001414 0.000000 0.000000 0.000000
# 3 -0.002565 -0.001414 0.012024 0.000000 0.000000 0.000000
# 4 0.000000 0.000000 0.000000 0.029977 0.000000 0.000000
# 5 0.000000 0.000000 0.000000 0.000000 0.033131 0.000000
# 6 0.000000 0.000000 0.000000 0.000000 0.000000 0.032476
#
#
# Mechanical properties :
#
#
# Convention : Reuss Voigt Hill
#
# Bulk Modulus (GPa) = 38.59033 44.93938 41.76486
# Shear Modulus (GPa) = 31.17332 33.33382 32.25357
#
# Velocity S-wave (km/s) = 3.73942 3.86683 3.80366
# Velocity P-wave (km/s) = 5.99622 6.33204 6.16641
#
# Compressibility (1/GPa) = 0.02591322
#
# Stress axis : x y z
#
# Youngs Moduli (GPa) = 48.17229 121.06615 83.17004
#
# Poissons Ratio (x) = 0.43418 0.21329
# Poissons Ratio (y) = 0.17276 0.11758
# Poissons Ratio (z) = 0.12354 0.17115
#
# Static dielectric constant tensor:
#      x y z
#    x 2.039420 0.000000 0.000000 
#    y 0.000000 1.757600 0.000000 
#    z 0.000000 0.000000 2.128960 
# 
# From -- ./inp_files/30753.got.cif
#   From: 2010.05.17/outbox.cif.g08.bks.cpg/sg20_16_cif.got.tgz:30753.got - 2010.06.03 22:52:26.
