data_PCOD9320054
_publ_section_title
;
Structure prediction by ZEFSAII (Michael W. Deem and Ramdas Pophale) SiO2 
 PCOD9320054
Probable space group: C 2 2 21
;
_chemical_formula_sum "Si O2"
_cell_formula_units_Z 32
_cell_length_a 8.441977
_cell_length_b 14.097440
_cell_length_c 11.292054
_cell_angle_alpha 90.000000
_cell_angle_beta 90.000000
_cell_angle_gamma 90.000000
_cell_volume 1343.870330
_symmetry_space_group_name_H-M "C 2 2 21"
_symmetry_group_IT_number 20
_symmetry_cell_setting 'orthorhombic'
loop_
_space_group_symop_operation_xyz
x,y,z
-x,-y,1/2+z
x,-y,-z
-x,y,1/2-z
1/2+x,1/2+y,z
1/2-x,1/2-y,1/2+z
1/2+x,1/2-y,-z
1/2-x,1/2+y,1/2-z
loop_
_atom_site_type_symbol
_atom_site_label
_atom_site_fract_x
_atom_site_fract_y
_atom_site_fract_z
Si Si1 0.318157 0.424486 0.734596
Si Si2 0.500000 0.297951 0.250000
Si Si3 0.596620 0.141824 0.063022
Si Si4 0.667966 0.197302 0.810925
Si Si5 0.664267 0.000000 0.500000
O O1 0.500000 0.452131 0.750000
O O2 0.199664 0.425941 0.849004
O O3 0.321808 0.310496 0.710562
O O4 0.257496 0.479586 0.619757
O O5 0.525851 0.227298 0.139295
O O6 0.670062 0.347973 0.259866
O O7 0.688072 0.181354 0.950812
O O8 0.453620 0.088279 0.000008
O O9 0.500000 0.167600 0.750000
#
# Coordination Sequence:
#
# PCOD9320054 Si02
#       5
#     8   4   8   8   4
#     4  10  24  44  68 103 138 185 229 290 345 413
#     4  10  22  42  66 104 134 184 222 292 338 410
#     4  11  23  44  70 100 141 178 228 285 348 415
#     4  10  23  42  71 106 138 177 234 283 349 411
#     4  12  22  44  72  92 146 186 224 278 356 410
#
# _framework density 23.811820999999998
#
# number of rings (size 3 to 8) (size 9 to 14) (size 15 to 20)
#    0.000    1.500    5.000    0.000   10.500    3.000 
#    0.000    0.000    5.500    0.000    0.000    0.000 
#    0.000    0.000    0.000    0.000    0.000    0.000 
#
# Total GULP energy -89338.139470 kJ/mol
# GULP energy per Si atom -5583.633717 kJ/mol
# Density = 2.375762 g / cm^3
# Si number density = 23.811821 Si / 1000 Ang^3
#
#
#
# Elastic Constant Matrix: (Units=GPa)
#
#
# Indices 1 2 3 4 5 6 
#
# 1 204.8401 25.9555 78.9644 0.0000 0.0000 0.0000
# 2 25.9555 26.0727 39.4479 0.0000 0.0000 0.0000
# 3 78.9644 39.4479 152.1825 0.0000 0.0000 0.0000
# 4 0.0000 0.0000 0.0000 52.2082 0.0000 0.0000
# 5 0.0000 0.0000 0.0000 0.0000 52.6248 0.0000
# 6 0.0000 0.0000 0.0000 0.0000 0.0000 31.5912
#
#
#
# Elastic Compliance Matrix: (Units=1/GPa)
#
#
# Indices 1 2 3 4 5 6 
#
# 1 0.006174 -0.002138 -0.002649 0.000000 0.000000 0.000000
# 2 -0.002138 0.063842 -0.015440 0.000000 0.000000 0.000000
# 3 -0.002649 -0.015440 0.011948 0.000000 0.000000 0.000000
# 4 0.000000 0.000000 0.000000 0.019154 0.000000 0.000000
# 5 0.000000 0.000000 0.000000 0.000000 0.019002 0.000000
# 6 0.000000 0.000000 0.000000 0.000000 0.000000 0.031654
#
#
# Mechanical properties :
#
#
# Convention : Reuss Voigt Hill
#
# Bulk Modulus (GPa) = 24.09006 74.64787 49.36897
# Shear Modulus (GPa) = 24.26405 43.20001 33.73203
#
# Velocity S-wave (km/s) = 3.19563 4.26399 3.76787
# Velocity P-wave (km/s) = 4.87390 7.46052 6.30136
#
# Compressibility (1/GPa) = 0.04151089
#
# Stress axis : x y z
#
# Youngs Moduli (GPa) = 161.96737 15.66355 83.69586
#
# Poissons Ratio (x) = 0.03348 0.22175
# Poissons Ratio (y) = 0.34623 1.29224
# Poissons Ratio (z) = 0.42913 0.24184
#
# Static dielectric constant tensor:
#      x y z
#    x 1.997520 0.000000 0.000000 
#    y 0.000000 1.972060 0.000000 
#    z 0.000000 0.000000 1.886240 
# 
# From -- ./inp_files/5867.got.cif
#   From: 2010.05.17/outbox.cif.g08.bks.cpg/sg20_3_cif.got.tgz:5867.got - 2010.06.03 22:52:26.
