data_PCOD9320204
_publ_section_title
;
Structure prediction by ZEFSAII (Michael W. Deem and Ramdas Pophale) SiO2 
 PCOD9320204
Probable space group: C 2 2 21
;
_chemical_formula_sum "Si O2"
_cell_formula_units_Z 48
_cell_length_a 10.950170
_cell_length_b 12.134446
_cell_length_c 16.736570
_cell_angle_alpha 90.000000
_cell_angle_beta 90.000000
_cell_angle_gamma 90.000000
_cell_volume 2223.859129
_symmetry_space_group_name_H-M "C 2 2 21"
_symmetry_group_IT_number 20
_symmetry_cell_setting 'orthorhombic'
loop_
_space_group_symop_operation_xyz
x,y,z
-x,-y,1/2+z
x,-y,-z
-x,y,1/2-z
1/2+x,1/2+y,z
1/2-x,1/2-y,1/2+z
1/2+x,1/2-y,-z
1/2-x,1/2+y,1/2-z
loop_
_atom_site_type_symbol
_atom_site_label
_atom_site_fract_x
_atom_site_fract_y
_atom_site_fract_z
Si Si1 0.011535 0.613403 0.521449
Si Si2 0.582650 0.177942 0.149811
Si Si3 0.945495 0.900628 0.166275
Si Si4 0.080973 0.000000 0.500000
Si Si5 0.844763 0.434849 0.328768
Si Si6 0.152758 0.198240 0.393676
Si Si7 0.000000 0.750279 0.750000
O O1 0.077177 0.500000 0.500000
O O2 0.104942 0.699006 0.556995
O O3 0.949977 0.653715 0.441481
O O4 0.906443 0.590297 0.585954
O O5 0.482214 0.270566 0.170214
O O6 0.719417 0.224592 0.147686
O O7 0.604604 0.058009 0.191727
O O8 0.800881 0.925832 0.168394
O O9 0.000000 0.945761 0.250000
O O10 0.986940 0.945622 0.077849
O O11 0.156473 0.903329 0.544319
O O12 0.894304 0.336222 0.274143
O O13 0.051249 0.180921 0.324453
#
# Coordination Sequence:
#
# PCOD9320204 Si02
#       7
#     8   8   8   4   8   8   4
#     4   9  20  39  66  94 132 190 237 294 366 432
#     4  11  22  39  71 100 139 182 239 299 363 438
#     4  12  26  44  71 108 142 191 247 306 371 442
#     4  12  24  44  68  98 150 196 240 304 372 436
#     4  10  22  43  71  99 146 186 239 302 371 437
#     4  11  22  42  66  98 138 189 242 295 371 440
#     4  10  24  44  68 100 136 194 238 298 368 444
#
# _framework density 21.584101
#
# number of rings (size 3 to 8) (size 9 to 14) (size 15 to 20)
#    0.000    1.333    3.333    2.000    4.667    0.000 
#    1.500    0.000    7.333    0.000    0.000    0.000 
#    0.000    0.000    0.000    0.000    0.000    0.000 
#
# Total GULP energy -133765.819466 kJ/mol
# GULP energy per Si atom -5573.575811 kJ/mol
# Density = 2.153497 g / cm^3
# Si number density = 21.584101 Si / 1000 Ang^3
#
#
#
# Elastic Constant Matrix: (Units=GPa)
#
#
# Indices 1 2 3 4 5 6 
#
# 1 90.0406 52.2232 23.5155 0.0000 0.0000 0.0000
# 2 52.2232 94.3621 51.6035 0.0000 0.0000 0.0000
# 3 23.5155 51.6035 99.5819 0.0000 0.0000 0.0000
# 4 0.0000 0.0000 0.0000 28.6678 0.0000 0.0000
# 5 0.0000 0.0000 0.0000 0.0000 -0.3171 0.0000
# 6 0.0000 0.0000 0.0000 0.0000 0.0000 93.9770
#
#
#
# Elastic Compliance Matrix: (Units=1/GPa)
#
#
# Indices 1 2 3 4 5 6 
#
# 1 0.016452 -0.009741 0.001163 0.000000 0.000000 0.000000
# 2 -0.009741 0.020556 -0.008352 0.000000 0.000000 0.000000
# 3 0.001163 -0.008352 0.014095 0.000000 0.000000 0.000000
# 4 0.000000 0.000000 0.000000 0.034882 0.000000 0.000000
# 5 0.000000 0.000000 0.000000 0.000000 -3.153725 0.000000
# 6 0.000000 0.000000 0.000000 0.000000 0.000000 0.010641
#
#
# Mechanical properties :
#
#
# Convention : Reuss Voigt Hill
#
# Bulk Modulus (GPa) = 57.99396 59.85212 58.92304
# Shear Modulus (GPa) = -1.65701 34.90836 16.62568
#
# Velocity S-wave (km/s) = -0.87713 4.02595 2.77839
# Velocity P-wave (km/s) = 5.08934 7.02858 6.13605
#
# Compressibility (1/GPa) = 0.01724318
#
# Stress axis : x y z
#
# Youngs Moduli (GPa) = 60.78202 48.64789 70.94551
#
# Poissons Ratio (x) = 0.47389 -0.08250
# Poissons Ratio (y) = 0.59209 0.59252
# Poissons Ratio (z) = -0.07068 0.40630
#
# Static dielectric constant tensor:
#      x y z
#    x 1.745260 0.000000 0.000000 
#    y 0.000000 1.854500 0.000000 
#    z 0.000000 0.000000 1.839200 
# 
# From -- ./inp_files/24273.got.cif
#   From: 2010.05.17/outbox.cif.g08.bks.cpg/sg20_13_cif.got.tgz:24273.got - 2010.06.03 22:52:26.
