data_PCOD9320757
_publ_section_title
;
Structure prediction by ZEFSAII (Michael W. Deem and Ramdas Pophale) SiO2 
 PCOD9320757
Probable space group: C 2 2 21
;
_chemical_formula_sum "Si O2"
_cell_formula_units_Z 24
_cell_length_a 11.717988
_cell_length_b 6.653192
_cell_length_c 12.030894
_cell_angle_alpha 90.000000
_cell_angle_beta 90.000000
_cell_angle_gamma 90.000000
_cell_volume 937.952847
_symmetry_space_group_name_H-M "C 2 2 21"
_symmetry_group_IT_number 20
_symmetry_cell_setting 'orthorhombic'
loop_
_space_group_symop_operation_xyz
x,y,z
-x,-y,1/2+z
x,-y,-z
-x,y,1/2-z
1/2+x,1/2+y,z
1/2-x,1/2-y,1/2+z
1/2+x,1/2-y,-z
1/2-x,1/2+y,1/2-z
loop_
_atom_site_type_symbol
_atom_site_label
_atom_site_fract_x
_atom_site_fract_y
_atom_site_fract_z
Si Si1 0.119681 0.635160 0.609022
Si Si2 0.250000 0.500000 0.806449
Si Si3 0.880318 0.864840 0.609022
O O1 0.124505 0.500000 0.500000
O O2 0.143801 0.501334 0.719185
O O3 0.216901 0.808054 0.620831
O O4 1.000000 0.750001 0.610469
O O5 0.216901 0.691946 0.879168
O O6 0.356198 0.498666 0.719185
O O7 0.875494 0.000000 0.500000
#
# Coordination Sequence:
#
# PCOD9320757 Si02
#       3
#     8   8   8
#     4  11  26  48  80 116 153 201 260 321 384 459
#     4  10  23  50  77 110 152 202 252 314 384 456
#     4  11  26  48  80 116 153 201 260 321 384 459
#
# _framework density 25.587641999999999
#
# number of rings (size 3 to 8) (size 9 to 14) (size 15 to 20)
#    0.000    1.333    0.000    5.000    0.000   16.000 
#    0.000   16.667    0.000    0.000    0.000    0.000 
#    0.000    0.000    0.000    0.000    0.000    0.000 
#
# Total GULP energy -67018.320689 kJ/mol
# GULP energy per Si atom -5584.860057 kJ/mol
# Density = 2.552940 g / cm^3
# Si number density = 25.587642 Si / 1000 Ang^3
#
#
#
# Elastic Constant Matrix: (Units=GPa)
#
#
# Indices 1 2 3 4 5 6 
#
# 1 173.7420 125.3457 84.9173 0.0000 0.0000 0.0000
# 2 125.3457 197.4843 108.4108 0.0000 0.0000 0.0000
# 3 84.9173 108.4108 247.8519 0.0000 0.0000 0.0000
# 4 0.0000 0.0000 0.0000 86.0909 0.0000 0.0000
# 5 0.0000 0.0000 0.0000 0.0000 23.2150 0.0000
# 6 0.0000 0.0000 0.0000 0.0000 0.0000 87.4596
#
#
#
# Elastic Compliance Matrix: (Units=1/GPa)
#
#
# Indices 1 2 3 4 5 6 
#
# 1 0.010775 -0.006333 -0.000922 0.000000 0.000000 0.000000
# 2 -0.006333 0.010386 -0.002373 0.000000 0.000000 0.000000
# 3 -0.000922 -0.002373 0.005388 0.000000 0.000000 0.000000
# 4 0.000000 0.000000 0.000000 0.011616 0.000000 0.000000
# 5 0.000000 0.000000 0.000000 0.000000 0.043076 0.000000
# 6 0.000000 0.000000 0.000000 0.000000 0.000000 0.011434
#
#
# Mechanical properties :
#
#
# Convention : Reuss Voigt Hill
#
# Bulk Modulus (GPa) = 137.09866 139.60287 138.35077
# Shear Modulus (GPa) = 43.72083 59.38004 51.55043
#
# Velocity S-wave (km/s) = 4.13809 4.82254 4.49337
# Velocity P-wave (km/s) = 8.74803 9.25669 9.00595
#
# Compressibility (1/GPa) = 0.00729402
#
# Stress axis : x y z
#
# Youngs Moduli (GPa) = 92.80585 96.28141 185.58394
#
# Poissons Ratio (x) = 0.60977 0.17102
# Poissons Ratio (y) = 0.58776 0.44041
# Poissons Ratio (z) = 0.08552 0.22848
#
# Static dielectric constant tensor:
#      x y z
#    x 2.027010 0.000000 0.000000 
#    y 0.000000 2.110920 0.000000 
#    z 0.000000 0.000000 2.073020 
# 
# From -- ./inp_files/13437.got.cif
#   From: 2010.05.17/outbox.cif.g08.bks.cpg/sg20_7_cif.got.tgz:13437.got - 2010.06.03 22:52:26.
