data_PCOD9320042
_publ_section_title
;
Structure prediction by ZEFSAII (Michael W. Deem and Ramdas Pophale) SiO2 
 PCOD9320042
Probable space group: C 2 2 21
;
_chemical_formula_sum "Si O2"
_cell_formula_units_Z 48
_cell_length_a 10.696814
_cell_length_b 24.459290
_cell_length_c 8.923197
_cell_angle_alpha 90.000000
_cell_angle_beta 90.000000
_cell_angle_gamma 90.000000
_cell_volume 2334.633815
_symmetry_space_group_name_H-M "C 2 2 21"
_symmetry_group_IT_number 20
_symmetry_cell_setting 'orthorhombic'
loop_
_space_group_symop_operation_xyz
x,y,z
-x,-y,1/2+z
x,-y,-z
-x,y,1/2-z
1/2+x,1/2+y,z
1/2-x,1/2-y,1/2+z
1/2+x,1/2-y,-z
1/2-x,1/2+y,1/2-z
loop_
_atom_site_type_symbol
_atom_site_label
_atom_site_fract_x
_atom_site_fract_y
_atom_site_fract_z
Si Si1 0.465815 0.445180 0.920386
Si Si2 0.148921 0.629194 0.784470
Si Si3 0.901404 0.269990 0.114634
Si Si4 0.761892 0.938208 0.451067
Si Si5 0.721708 0.343395 0.585053
Si Si6 0.607256 0.147696 0.359018
O O1 0.500000 0.460434 0.750000
O O2 0.373962 0.393910 0.911198
O O3 0.415679 0.500000 0.000000
O O4 0.593585 0.428430 0.006441
O O5 0.187493 0.684869 0.695415
O O6 0.227602 0.578770 0.718169
O O7 0.000000 0.621909 0.750000
O O8 0.180368 0.640087 0.956162
O O9 0.845546 0.213951 0.055308
O O10 0.000000 0.258442 0.250000
O O11 0.941811 0.304127 0.967197
O O12 0.668710 0.899731 0.543705
O O13 0.737389 0.000000 0.500000
O O14 0.784846 0.333548 0.745767
O O15 0.500000 0.126538 0.250000
#
# Coordination Sequence:
#
# PCOD9320042 Si02
#       6
#     8   8   8   8   8   8
#     4  11  25  44  67  98 134 170 221 288 334 399
#     4  10  23  44  65  95 138 175 218 281 329 403
#     4  10  22  42  65  92 134 169 217 277 330 397
#     4  10  23  43  66  91 135 172 218 277 331 394
#     4  12  23  40  70  96 127 179 227 266 345 404
#     4  11  23  41  64  94 130 171 216 277 328 392
#
# _framework density 20.559968999999999
#
# number of rings (size 3 to 8) (size 9 to 14) (size 15 to 20)
#    0.000    1.333    1.667    4.500    4.667    0.667 
#    9.000    1.667    0.000    0.000    0.000    0.000 
#    0.000    0.000    0.000    0.000    0.000    0.000 
#
# Total GULP energy -133883.783310 kJ/mol
# GULP energy per Si atom -5578.490971 kJ/mol
# Density = 2.051317 g / cm^3
# Si number density = 20.559969 Si / 1000 Ang^3
#
#
#
# Elastic Constant Matrix: (Units=GPa)
#
#
# Indices 1 2 3 4 5 6 
#
# 1 71.5307 37.5981 35.4743 0.0000 0.0000 0.0000
# 2 37.5981 95.4025 38.3370 0.0000 0.0000 0.0000
# 3 35.4743 38.3370 121.5165 0.0000 0.0000 0.0000
# 4 0.0000 0.0000 0.0000 30.8109 0.0000 0.0000
# 5 0.0000 0.0000 0.0000 0.0000 35.7165 0.0000
# 6 0.0000 0.0000 0.0000 0.0000 0.0000 15.3425
#
#
#
# Elastic Compliance Matrix: (Units=1/GPa)
#
#
# Indices 1 2 3 4 5 6 
#
# 1 0.018938 -0.006003 -0.003635 0.000000 0.000000 0.000000
# 2 -0.006003 0.013906 -0.002635 0.000000 0.000000 0.000000
# 3 -0.003635 -0.002635 0.010122 0.000000 0.000000 0.000000
# 4 0.000000 0.000000 0.000000 0.032456 0.000000 0.000000
# 5 0.000000 0.000000 0.000000 0.000000 0.027998 0.000000
# 6 0.000000 0.000000 0.000000 0.000000 0.000000 0.065179
#
#
# Mechanical properties :
#
#
# Convention : Reuss Voigt Hill
#
# Bulk Modulus (GPa) = 54.28558 56.80760 55.54659
# Shear Modulus (GPa) = 25.08983 28.17666 26.63324
#
# Velocity S-wave (km/s) = 3.49710 3.70599 3.60306
# Velocity P-wave (km/s) = 6.53966 6.78253 6.66220
#
# Compressibility (1/GPa) = 0.01842110
#
# Stress axis : x y z
#
# Youngs Moduli (GPa) = 52.80451 71.90916 98.79764
#
# Poissons Ratio (x) = 0.43166 0.35910
# Poissons Ratio (y) = 0.31697 0.26032
# Poissons Ratio (z) = 0.19193 0.18948
#
# Static dielectric constant tensor:
#      x y z
#    x 1.777740 0.000000 0.000000 
#    y 0.000000 1.700610 0.000000 
#    z 0.000000 0.000000 1.807400 
# 
# From -- ./inp_files/7369.got.cif
#   From: 2010.05.17/outbox.cif.g08.bks.cpg/sg20_4_cif.got.tgz:7369.got - 2010.06.03 22:52:26.
