data_PCOD9320790
_publ_section_title
;
Structure prediction by ZEFSAII (Michael W. Deem and Ramdas Pophale) SiO2 
 PCOD9320790
Probable space group: C 2 2 21
;
_chemical_formula_sum "Si O2"
_cell_formula_units_Z 60
_cell_length_a 11.828793
_cell_length_b 27.041178
_cell_length_c 8.417548
_cell_angle_alpha 90.000000
_cell_angle_beta 90.000000
_cell_angle_gamma 90.000000
_cell_volume 2692.474757
_symmetry_space_group_name_H-M "C 2 2 21"
_symmetry_group_IT_number 20
_symmetry_cell_setting 'orthorhombic'
loop_
_space_group_symop_operation_xyz
x,y,z
-x,-y,1/2+z
x,-y,-z
-x,y,1/2-z
1/2+x,1/2+y,z
1/2-x,1/2-y,1/2+z
1/2+x,1/2-y,-z
1/2-x,1/2+y,1/2-z
loop_
_atom_site_type_symbol
_atom_site_label
_atom_site_fract_x
_atom_site_fract_y
_atom_site_fract_z
Si Si1 0.500000 0.299850 0.250000
Si Si2 0.840508 0.114935 0.693415
Si Si3 0.862353 0.803409 0.762319
Si Si4 0.819982 0.256055 0.533912
Si Si5 0.821089 0.990552 0.175391
Si Si6 0.875029 0.907173 0.679199
Si Si7 0.389249 0.145616 0.648161
Si Si8 0.570732 0.043792 0.904656
O O1 0.594531 0.341870 0.291865
O O2 0.577024 0.264057 0.142505
O O3 0.868838 0.060384 0.757008
O O4 0.868334 0.110601 0.504761
O O5 0.710087 0.127747 0.731852
O O6 0.809135 0.785957 0.597174
O O7 0.800378 0.767750 0.885892
O O8 0.828907 0.860786 0.781960
O O9 0.000000 0.799450 0.750000
O O10 0.855457 0.306152 0.447255
O O11 0.689957 0.978777 0.146276
O O12 0.825553 0.038767 0.286249
O O13 0.872583 0.000000 0.000000
O O14 0.000000 0.912269 0.750000
O O15 0.500000 0.157564 0.750000
O O16 0.409207 0.098735 0.529620
O O17 0.500000 0.054085 0.750000
O O18 0.511526 0.000000 0.000000
#
# Coordination Sequence:
#
# PCOD9320790 Si02
#       8
#     4   8   8   8   8   8   8   8
#     4  12  28  46  70 108 142 200 248 296 382 432
#     4  11  25  47  75 102 155 196 247 314 378 445
#     4  11  28  47  75 105 145 190 251 309 374 447
#     4  12  27  46  75 103 148 194 246 311 372 450
#     4  10  24  40  71 107 143 188 241 306 372 454
#     4  11  26  44  70 109 142 191 246 306 376 453
#     4  10  24  46  75 107 145 192 251 302 374 448
#     4   9  20  40  65  98 134 185 231 296 361 430
#
# _framework density 22.284330000000001
#
# number of rings (size 3 to 8) (size 9 to 14) (size 15 to 20)
#    0.000    1.333    1.333    1.600   12.133    4.267 
#    1.200    0.000    0.000    0.000    0.000    0.000 
#    0.000    0.000    0.000    0.000    0.000    0.000 
#
# Total GULP energy -167262.893662 kJ/mol
# GULP energy per Si atom -5575.429789 kJ/mol
# Density = 2.223361 g / cm^3
# Si number density = 22.284330 Si / 1000 Ang^3
#
#
#
# Elastic Constant Matrix: (Units=GPa)
#
#
# Indices 1 2 3 4 5 6 
#
# 1 101.5305 37.0906 25.3636 0.0000 0.0000 0.0000
# 2 37.0906 182.8474 46.1176 0.0000 0.0000 0.0000
# 3 25.3636 46.1176 53.4370 0.0000 0.0000 0.0000
# 4 0.0000 0.0000 0.0000 24.6793 0.0000 0.0000
# 5 0.0000 0.0000 0.0000 0.0000 32.6506 0.0000
# 6 0.0000 0.0000 0.0000 0.0000 0.0000 36.0903
#
#
#
# Elastic Compliance Matrix: (Units=1/GPa)
#
#
# Indices 1 2 3 4 5 6 
#
# 1 0.011380 -0.001209 -0.004358 0.000000 0.000000 0.000000
# 2 -0.001209 0.007119 -0.005570 0.000000 0.000000 0.000000
# 3 -0.004358 -0.005570 0.025589 0.000000 0.000000 0.000000
# 4 0.000000 0.000000 0.000000 0.040520 0.000000 0.000000
# 5 0.000000 0.000000 0.000000 0.000000 0.030627 0.000000
# 6 0.000000 0.000000 0.000000 0.000000 0.000000 0.027708
#
#
# Mechanical properties :
#
#
# Convention : Reuss Voigt Hill
#
# Bulk Modulus (GPa) = 45.84231 61.66204 53.75218
# Shear Modulus (GPa) = 28.98741 33.96691 31.47716
#
# Velocity S-wave (km/s) = 3.61057 3.90840 3.76243
# Velocity P-wave (km/s) = 6.16424 6.93528 6.56110
#
# Compressibility (1/GPa) = 0.02181391
#
# Stress axis : x y z
#
# Youngs Moduli (GPa) = 87.87648 140.46467 39.07914
#
# Poissons Ratio (x) = 0.16986 0.17029
# Poissons Ratio (y) = 0.10627 0.21768
# Poissons Ratio (z) = 0.38293 0.78240
#
# Static dielectric constant tensor:
#      x y z
#    x 1.846950 0.000000 0.000000 
#    y 0.000000 1.925190 0.000000 
#    z 0.000000 0.000000 1.812670 
# 
# From -- ./inp_files/7577.got.cif
#   From: 2010.05.17/outbox.cif.g08.bks.cpg/sg20_4_cif.got.tgz:7577.got - 2010.06.03 22:52:26.
