data_PCOD9320557
_publ_section_title
;
Structure prediction by ZEFSAII (Michael W. Deem and Ramdas Pophale) SiO2 
 PCOD9320557
Probable space group: C 2 2 21
;
_chemical_formula_sum "Si O2"
_cell_formula_units_Z 20
_cell_length_a 12.857211
_cell_length_b 11.653780
_cell_length_c 5.055762
_cell_angle_alpha 90.000000
_cell_angle_beta 90.000000
_cell_angle_gamma 90.000000
_cell_volume 757.530647
_symmetry_space_group_name_H-M "C 2 2 21"
_symmetry_group_IT_number 20
_symmetry_cell_setting 'orthorhombic'
loop_
_space_group_symop_operation_xyz
x,y,z
-x,-y,1/2+z
x,-y,-z
-x,y,1/2-z
1/2+x,1/2+y,z
1/2-x,1/2-y,1/2+z
1/2+x,1/2-y,-z
1/2-x,1/2+y,1/2-z
loop_
_atom_site_type_symbol
_atom_site_label
_atom_site_fract_x
_atom_site_fract_y
_atom_site_fract_z
Si Si1 0.241663 0.677296 0.731244
Si Si2 0.047705 0.870494 0.492322
Si Si3 0.427871 0.000000 0.000000
O O1 0.287841 0.728298 0.455456
O O2 0.149512 0.596296 0.626917
O O3 0.333030 0.618713 0.904447
O O4 0.000000 0.814978 0.750000
O O5 0.002906 0.000000 0.500000
O O6 0.000000 0.802981 0.250000
O O7 0.500000 0.035454 0.250000
#
# Coordination Sequence:
#
# PCOD9320557 Si02
#       3
#     8   8   4
#     4  12  28  48  83 117 160 214 274 335 401 493
#     4  10  23  42  75 108 144 194 253 326 401 462
#     4  12  30  54  86 116 170 228 270 332 418 496
#
# _framework density 26.401572000000002
#
# number of rings (size 3 to 8) (size 9 to 14) (size 15 to 20)
#    0.000    0.800    0.000    4.800   16.800    6.400 
#    0.000    0.000    0.000    0.000    0.000    0.000 
#    0.000    0.000    0.000    0.000    0.000    0.000 
#
# Total GULP energy -55717.280735 kJ/mol
# GULP energy per Si atom -5571.728073 kJ/mol
# Density = 2.634148 g / cm^3
# Si number density = 26.401572 Si / 1000 Ang^3
#
#
#
# Elastic Constant Matrix: (Units=GPa)
#
#
# Indices 1 2 3 4 5 6 
#
# 1 164.3956 60.4434 111.5379 0.0000 0.0000 0.0000
# 2 60.4434 92.8310 73.5037 0.0000 0.0000 0.0000
# 3 111.5379 73.5037 324.3248 0.0000 0.0000 0.0000
# 4 0.0000 0.0000 0.0000 36.0869 0.0000 0.0000
# 5 0.0000 0.0000 0.0000 0.0000 74.4304 0.0000
# 6 0.0000 0.0000 0.0000 0.0000 0.0000 23.7641
#
#
#
# Elastic Compliance Matrix: (Units=1/GPa)
#
#
# Indices 1 2 3 4 5 6 
#
# 1 0.009107 -0.004204 -0.002179 0.000000 0.000000 0.000000
# 2 -0.004204 0.015069 -0.001969 0.000000 0.000000 0.000000
# 3 -0.002179 -0.001969 0.004279 0.000000 0.000000 0.000000
# 4 0.000000 0.000000 0.000000 0.027711 0.000000 0.000000
# 5 0.000000 0.000000 0.000000 0.000000 0.013435 0.000000
# 6 0.000000 0.000000 0.000000 0.000000 0.000000 0.042080
#
#
# Mechanical properties :
#
#
# Convention : Reuss Voigt Hill
#
# Bulk Modulus (GPa) = 85.10843 119.16903 102.13873
# Shear Modulus (GPa) = 37.79177 49.26072 43.52624
#
# Velocity S-wave (km/s) = 3.78752 4.32421 4.06473
# Velocity P-wave (km/s) = 7.17169 8.37656 7.79743
#
# Compressibility (1/GPa) = 0.01174972
#
# Stress axis : x y z
#
# Youngs Moduli (GPa) = 109.80308 66.36131 233.69504
#
# Poissons Ratio (x) = 0.27900 0.50927
# Poissons Ratio (y) = 0.46165 0.46021
# Poissons Ratio (z) = 0.23928 0.13068
#
# Static dielectric constant tensor:
#      x y z
#    x 2.184240 0.000000 0.000000 
#    y 0.000000 2.138800 0.000000 
#    z 0.000000 0.000000 2.243610 
# 
# From -- ./inp_files/1488.got.cif
#   From: 2010.05.17/outbox.cif.g08.bks.cpg/sg20_1_cif.got.tgz:1488.got - 2010.06.03 22:52:26.
