data_PCOD9320236
_publ_section_title
;
Structure prediction by ZEFSAII (Michael W. Deem and Ramdas Pophale) SiO2 
 PCOD9320236
Probable space group: C 2 2 21
;
_chemical_formula_sum "Si O2"
_cell_formula_units_Z 48
_cell_length_a 13.008633
_cell_length_b 30.417845
_cell_length_c 5.776375
_cell_angle_alpha 90.000000
_cell_angle_beta 90.000000
_cell_angle_gamma 90.000000
_cell_volume 2285.680293
_symmetry_space_group_name_H-M "C 2 2 21"
_symmetry_group_IT_number 20
_symmetry_cell_setting 'orthorhombic'
loop_
_space_group_symop_operation_xyz
x,y,z
-x,-y,1/2+z
x,-y,-z
-x,y,1/2-z
1/2+x,1/2+y,z
1/2-x,1/2-y,1/2+z
1/2+x,1/2-y,-z
1/2-x,1/2+y,1/2-z
loop_
_atom_site_type_symbol
_atom_site_label
_atom_site_fract_x
_atom_site_fract_y
_atom_site_fract_z
Si Si1 0.000000 0.138229 0.250000
Si Si2 0.500000 0.882990 0.250000
Si Si3 0.113888 0.647855 0.356697
Si Si4 0.193058 0.255685 0.746701
Si Si5 0.704969 0.419175 0.720177
Si Si6 0.355558 0.046907 0.614898
Si Si7 0.738360 0.000000 0.500000
Si Si8 0.500000 0.690123 0.750000
O O1 0.898186 0.108269 0.235238
O O2 0.996559 0.164252 0.499668
O O3 0.586878 0.854238 0.370641
O O4 0.557884 0.917297 0.083063
O O5 0.154047 0.694347 0.270445
O O6 0.201025 0.611431 0.311030
O O7 0.000000 0.642343 0.250000
O O8 0.252979 0.248856 0.500285
O O9 0.100254 0.220936 0.744279
O O10 0.747404 0.433268 0.469272
O O11 0.696686 0.466679 0.844702
O O12 0.377694 0.000000 0.500000
O O13 0.338100 0.033688 0.876096
#
# Coordination Sequence:
#
# PCOD9320236 Si02
#       8
#     4   4   8   8   8   8   4   4
#     4  12  30  49  83 102 152 198 265 314 373 434
#     4  12  24  37  70 103 150 188 231 304 371 456
#     4  12  25  43  71 107 145 186 237 296 374 448
#     4  12  28  49  78 109 152 196 239 305 370 449
#     4  11  24  47  67 104 141 198 246 314 365 439
#     4  10  23  38  65  98 144 187 245 294 372 440
#     4  10  22  44  66  96 146 188 252 304 366 448
#     4  12  26  52  73 117 144 194 252 304 374 450
#
# _framework density 21.000309999999999
#
# number of rings (size 3 to 8) (size 9 to 14) (size 15 to 20)
#    0.000    0.667    4.167    3.000    5.833    2.000 
#    4.500    0.000    0.000    0.000    0.000    0.000 
#    0.000    0.000    0.000    0.000    0.000    0.000 
#
# Total GULP energy -133709.049830 kJ/mol
# GULP energy per Si atom -5571.210410 kJ/mol
# Density = 2.095251 g / cm^3
# Si number density = 21.000310 Si / 1000 Ang^3
#
#
#
# Elastic Constant Matrix: (Units=GPa)
#
#
# Indices 1 2 3 4 5 6 
#
# 1 142.4595 67.6097 59.9195 0.0000 0.0000 0.0000
# 2 67.6097 125.0843 55.1849 0.0000 0.0000 0.0000
# 3 59.9195 55.1849 106.1387 0.0000 0.0000 0.0000
# 4 0.0000 0.0000 0.0000 29.8475 0.0000 0.0000
# 5 0.0000 0.0000 0.0000 0.0000 27.2545 0.0000
# 6 0.0000 0.0000 0.0000 0.0000 0.0000 35.6926
#
#
#
# Elastic Compliance Matrix: (Units=1/GPa)
#
#
# Indices 1 2 3 4 5 6 
#
# 1 0.010544 -0.003988 -0.003879 0.000000 0.000000 0.000000
# 2 -0.003988 0.011882 -0.003927 0.000000 0.000000 0.000000
# 3 -0.003879 -0.003927 0.013653 0.000000 0.000000 0.000000
# 4 0.000000 0.000000 0.000000 0.033504 0.000000 0.000000
# 5 0.000000 0.000000 0.000000 0.000000 0.036691 0.000000
# 6 0.000000 0.000000 0.000000 0.000000 0.000000 0.028017
#
#
# Mechanical properties :
#
#
# Convention : Reuss Voigt Hill
#
# Bulk Modulus (GPa) = 80.04976 82.12343 81.08659
# Shear Modulus (GPa) = 30.85620 31.29014 31.07317
#
# Velocity S-wave (km/s) = 3.83733 3.86422 3.85080
# Velocity P-wave (km/s) = 7.60491 7.68767 7.64640
#
# Compressibility (1/GPa) = 0.01249223
#
# Stress axis : x y z
#
# Youngs Moduli (GPa) = 94.84494 84.15786 73.24288
#
# Poissons Ratio (x) = 0.33559 0.28411
# Poissons Ratio (y) = 0.37820 0.28762
# Poissons Ratio (z) = 0.36790 0.33048
#
# Static dielectric constant tensor:
#      x y z
#    x 1.736190 0.000000 0.000000 
#    y 0.000000 1.729060 0.000000 
#    z 0.000000 0.000000 1.980890 
# 
# From -- ./inp_files/2122.got.cif
#   From: 2010.05.17/outbox.cif.g08.bks.cpg/sg20_2_cif.got.tgz:2122.got - 2010.06.03 22:52:26.
