data_PCOD9320008
_publ_section_title
;
Structure prediction by ZEFSAII (Michael W. Deem and Ramdas Pophale) SiO2 
 PCOD9320008
Probable space group: C 2 2 21
;
_chemical_formula_sum "Si O2"
_cell_formula_units_Z 64
_cell_length_a 15.848667
_cell_length_b 11.144306
_cell_length_c 18.280494
_cell_angle_alpha 90.000000
_cell_angle_beta 90.000000
_cell_angle_gamma 90.000000
_cell_volume 3228.744627
_symmetry_space_group_name_H-M "C 2 2 21"
_symmetry_group_IT_number 20
_symmetry_cell_setting 'orthorhombic'
loop_
_space_group_symop_operation_xyz
x,y,z
-x,-y,1/2+z
x,-y,-z
-x,y,1/2-z
1/2+x,1/2+y,z
1/2-x,1/2-y,1/2+z
1/2+x,1/2-y,-z
1/2-x,1/2+y,1/2-z
loop_
_atom_site_type_symbol
_atom_site_label
_atom_site_fract_x
_atom_site_fract_y
_atom_site_fract_z
Si Si1 0.141429 0.295175 0.588836
Si Si2 0.032685 0.291549 0.827931
Si Si3 0.862581 0.052269 0.711562
Si Si4 0.088056 0.813956 0.719626
Si Si5 0.721714 0.163409 0.811651
Si Si6 0.338931 0.040047 0.417445
Si Si7 0.180893 0.781681 0.573759
Si Si8 0.753552 0.980663 0.418269
O O1 0.212515 0.236118 0.639244
O O2 0.147249 0.238618 0.508140
O O3 0.171039 0.434497 0.587336
O O4 0.051036 0.273358 0.624223
O O5 0.081556 0.168371 0.807587
O O6 0.095149 0.374363 0.875336
O O7 0.000000 0.344099 0.750000
O O8 0.778895 0.089204 0.755465
O O9 0.827360 0.990743 0.638203
O O10 0.908288 0.954198 0.760600
O O11 0.161727 0.747947 0.764430
O O12 0.108565 0.799401 0.634153
O O13 0.000000 0.764959 0.750000
O O14 0.672769 0.075442 0.866148
O O15 0.249676 0.111769 0.422604
O O16 0.363107 0.000000 0.500000
O O17 0.228581 0.657398 0.592410
O O18 0.786006 0.000000 0.500000
#
# Coordination Sequence:
#
# PCOD9320008 Si02
#       8
#     8   8   8   8   8   8   8   8
#     4  11  25  45  71 102 138 184 236 285 356 426
#     4  12  27  44  72 107 140 180 231 299 351 414
#     4  12  23  45  72 100 137 184 235 286 351 424
#     4  12  27  43  69 105 140 179 236 298 345 414
#     4  12  24  42  71  98 134 185 235 279 346 428
#     4  12  26  44  74 101 138 186 237 286 350 424
#     4  11  23  48  70  99 141 187 229 290 353 417
#     4  10  22  41  74  98 132 185 233 279 347 421
#
# _framework density 19.821943999999998
#
# number of rings (size 3 to 8) (size 9 to 14) (size 15 to 20)
#    0.000    0.500    7.500    0.375    1.750    4.000 
#    2.250    0.000    0.000    0.000    0.000    0.000 
#    0.000    0.000    0.000    0.000    0.000    0.000 
#
# Total GULP energy -178839.852047 kJ/mol
# GULP energy per Si atom -5588.745376 kJ/mol
# Density = 1.977683 g / cm^3
# Si number density = 19.821944 Si / 1000 Ang^3
#
#
#
# Elastic Constant Matrix: (Units=GPa)
#
#
# Indices 1 2 3 4 5 6 
#
# 1 77.2359 -15.5398 27.0735 0.0000 0.0000 0.0000
# 2 -15.5398 29.3510 -11.0462 0.0000 0.0000 0.0000
# 3 27.0735 -11.0462 116.7888 0.0000 0.0000 0.0000
# 4 0.0000 0.0000 0.0000 -11.3380 0.0000 0.0000
# 5 0.0000 0.0000 0.0000 0.0000 24.8559 0.0000
# 6 0.0000 0.0000 0.0000 0.0000 0.0000 -42.7441
#
#
#
# Elastic Compliance Matrix: (Units=1/GPa)
#
#
# Indices 1 2 3 4 5 6 
#
# 1 0.015383 0.007053 -0.002899 0.000000 0.000000 0.000000
# 2 0.007053 0.038562 0.002012 0.000000 0.000000 0.000000
# 3 -0.002899 0.002012 0.009425 0.000000 0.000000 0.000000
# 4 0.000000 0.000000 0.000000 -0.088199 0.000000 0.000000
# 5 0.000000 0.000000 0.000000 0.000000 0.040232 0.000000
# 6 0.000000 0.000000 0.000000 0.000000 0.000000 -0.023395
#
#
# Mechanical properties :
#
#
# Convention : Reuss Voigt Hill
#
# Bulk Modulus (GPa) = 13.20955 24.92784 19.06869
# Shear Modulus (GPa) = 1018.66321 9.01396 513.83858
#
# Velocity S-wave (km/s) = 22.69411 2.13479 16.11800
# Velocity P-wave (km/s) = 26.33202 4.32199 18.86869
#
# Compressibility (1/GPa) = 0.07570283
#
# Stress axis : x y z
#
# Youngs Moduli (GPa) = 65.00858 25.93226 106.10327
#
# Poissons Ratio (x) = -0.18291 0.30757
# Poissons Ratio (y) = -0.45852 -0.21351
# Poissons Ratio (z) = 0.18845 -0.05218
#
# Static dielectric constant tensor:
#      x y z
#    x 1.704450 0.000000 0.000000 
#    y 0.000000 1.718680 0.000000 
#    z 0.000000 0.000000 1.733640 
# 
# From -- ./inp_files/25004.got.cif
#   From: 2010.05.17/outbox.cif.g08.bks.cpg/sg20_13_cif.got.tgz:25004.got - 2010.06.03 22:52:26.
