data_PCOD9320883
_publ_section_title
;
Structure prediction by ZEFSAII (Michael W. Deem and Ramdas Pophale) SiO2 
 PCOD9320883
Probable space group: C 2 2 21
;
_chemical_formula_sum "Si O2"
_cell_formula_units_Z 36
_cell_length_a 4.968161
_cell_length_b 18.016419
_cell_length_c 17.365291
_cell_angle_alpha 90.000000
_cell_angle_beta 90.000000
_cell_angle_gamma 90.000000
_cell_volume 1554.340633
_symmetry_space_group_name_H-M "C 2 2 21"
_symmetry_group_IT_number 20
_symmetry_cell_setting 'orthorhombic'
loop_
_space_group_symop_operation_xyz
x,y,z
-x,-y,1/2+z
x,-y,-z
-x,y,1/2-z
1/2+x,1/2+y,z
1/2-x,1/2-y,1/2+z
1/2+x,1/2-y,-z
1/2-x,1/2+y,1/2-z
loop_
_atom_site_type_symbol
_atom_site_label
_atom_site_fract_x
_atom_site_fract_y
_atom_site_fract_z
Si Si1 0.494882 0.608144 0.118902
Si Si2 0.164475 0.258820 0.445235
Si Si3 0.109051 0.393847 0.331254
Si Si4 0.000000 0.991833 0.750000
Si Si5 0.028777 0.527897 0.078344
O O1 0.446727 0.694566 0.110896
O O2 0.362478 0.568059 0.193184
O O3 0.804320 0.583380 0.114092
O O4 0.300727 0.570799 0.055727
O O5 0.442897 0.236558 0.486598
O O6 0.190707 0.332560 0.393418
O O7 0.332807 0.452203 0.302671
O O8 0.913653 0.452786 0.373230
O O9 0.000000 0.361725 0.250000
O O10 0.894448 0.500000 0.000000
#
# Coordination Sequence:
#
# PCOD9320883 Si02
#       5
#     8   8   8   4   8
#     4  11  23  42  66  95 135 172 227 276 339 410
#     4  12  28  47  69 104 145 190 232 287 360 431
#     4  11  24  44  70 103 142 180 240 293 356 415
#     4  10  24  44  68 106 130 184 232 298 342 410
#     4  11  22  41  69  98 131 178 225 281 338 411
#
# _framework density 23.160948999999999
#
# number of rings (size 3 to 8) (size 9 to 14) (size 15 to 20)
#    0.000    0.889    2.222    4.667    4.667    1.778 
#    0.000    0.000    0.000    0.000    0.000    0.000 
#    0.000    0.000    0.000    0.000    0.000    0.000 
#
# Total GULP energy -100340.929691 kJ/mol
# GULP energy per Si atom -5574.496094 kJ/mol
# Density = 2.310823 g / cm^3
# Si number density = 23.160949 Si / 1000 Ang^3
#
#
#
# Elastic Constant Matrix: (Units=GPa)
#
#
# Indices 1 2 3 4 5 6 
#
# 1 78.6117 -0.1663 6.1874 0.0000 0.0000 0.0000
# 2 -0.1663 119.8092 48.3036 0.0000 0.0000 0.0000
# 3 6.1874 48.3036 80.9281 0.0000 0.0000 0.0000
# 4 0.0000 0.0000 0.0000 56.6308 0.0000 0.0000
# 5 0.0000 0.0000 0.0000 0.0000 27.9340 0.0000
# 6 0.0000 0.0000 0.0000 0.0000 0.0000 23.2599
#
#
#
# Elastic Compliance Matrix: (Units=1/GPa)
#
#
# Indices 1 2 3 4 5 6 
#
# 1 0.012825 0.000544 -0.001305 0.000000 0.000000 0.000000
# 2 0.000544 0.011015 -0.006616 0.000000 0.000000 0.000000
# 3 -0.001305 -0.006616 0.016405 0.000000 0.000000 0.000000
# 4 0.000000 0.000000 0.000000 0.017658 0.000000 0.000000
# 5 0.000000 0.000000 0.000000 0.000000 0.035799 0.000000
# 6 0.000000 0.000000 0.000000 0.000000 0.000000 0.042992
#
#
# Mechanical properties :
#
#
# Convention : Reuss Voigt Hill
#
# Bulk Modulus (GPa) = 39.23055 43.11095 41.17075
# Shear Modulus (GPa) = 31.26073 36.56656 33.91365
#
# Velocity S-wave (km/s) = 3.67784 3.97773 3.83072
# Velocity P-wave (km/s) = 5.91695 6.30480 6.11395
#
# Compressibility (1/GPa) = 0.02549034
#
# Stress axis : x y z
#
# Youngs Moduli (GPa) = 77.97497 90.78762 60.95588
#
# Poissons Ratio (x) = -0.04939 0.07956
# Poissons Ratio (y) = -0.04242 0.40328
# Poissons Ratio (z) = 0.10178 0.60065
#
# Static dielectric constant tensor:
#      x y z
#    x 2.042160 0.000000 0.000000 
#    y 0.000000 1.850230 0.000000 
#    z 0.000000 0.000000 2.114060 
# 
# From -- ./inp_files/25908.got.cif
#   From: 2010.05.17/outbox.cif.g08.bks.cpg/sg20_13_cif.got.tgz:25908.got - 2010.06.03 22:52:26.
