data_PCOD9320456
_publ_section_title
;
Structure prediction by ZEFSAII (Michael W. Deem and Ramdas Pophale) SiO2 
 PCOD9320456
Probable space group: C 2 2 21
;
_chemical_formula_sum "Si O2"
_cell_formula_units_Z 32
_cell_length_a 8.673282
_cell_length_b 14.544530
_cell_length_c 10.847639
_cell_angle_alpha 90.000000
_cell_angle_beta 90.000000
_cell_angle_gamma 90.000000
_cell_volume 1368.416754
_symmetry_space_group_name_H-M "C 2 2 21"
_symmetry_group_IT_number 20
_symmetry_cell_setting 'orthorhombic'
loop_
_space_group_symop_operation_xyz
x,y,z
-x,-y,1/2+z
x,-y,-z
-x,y,1/2-z
1/2+x,1/2+y,z
1/2-x,1/2-y,1/2+z
1/2+x,1/2-y,-z
1/2-x,1/2+y,1/2-z
loop_
_atom_site_type_symbol
_atom_site_label
_atom_site_fract_x
_atom_site_fract_y
_atom_site_fract_z
Si Si1 0.187055 0.195064 0.417155
Si Si2 0.824899 0.142250 0.714116
Si Si3 0.822083 0.536550 0.283813
Si Si4 0.829759 0.850084 0.562780
O O1 0.227526 0.265273 0.305587
O O2 0.991301 0.171044 0.084982
O O3 0.235624 0.255383 0.535515
O O4 0.289621 0.104599 0.397532
O O5 0.754151 0.063130 0.797931
O O6 0.824074 0.103660 0.573053
O O7 0.000000 0.163386 0.750000
O O8 0.740318 0.588947 0.169828
O O9 0.000000 0.526674 0.250000
#
# Coordination Sequence:
#
# PCOD9320456 Si02
#       4
#     8   8   8   8
#     4  10  23  40  74  92 142 173 233 281 348 408
#     4  10  24  43  68 100 135 180 228 283 343 413
#     4  12  24  43  65  97 143 182 232 289 343 405
#     4  10  23  43  67 102 132 185 223 286 344 417
#
# _framework density 23.384691
#
# number of rings (size 3 to 8) (size 9 to 14) (size 15 to 20)
#    1.500    0.000    0.000    5.250    3.500    2.000 
#    0.000    0.000    0.000    0.000    0.000    0.000 
#    0.000    0.000    0.000    0.000    0.000    0.000 
#
# Total GULP energy -89466.693852 kJ/mol
# GULP energy per Si atom -5591.668366 kJ/mol
# Density = 2.333147 g / cm^3
# Si number density = 23.384691 Si / 1000 Ang^3
#
#
#
# Elastic Constant Matrix: (Units=GPa)
#
#
# Indices 1 2 3 4 5 6 
#
# 1 132.7227 23.9464 -23.9530 0.0000 0.0000 0.0000
# 2 23.9464 125.4037 -2.3091 0.0000 0.0000 0.0000
# 3 -23.9530 -2.3091 69.1091 0.0000 0.0000 0.0000
# 4 0.0000 0.0000 0.0000 30.0255 0.0000 0.0000
# 5 0.0000 0.0000 0.0000 0.0000 36.3320 0.0000
# 6 0.0000 0.0000 0.0000 0.0000 0.0000 24.6507
#
#
#
# Elastic Compliance Matrix: (Units=1/GPa)
#
#
# Indices 1 2 3 4 5 6 
#
# 1 0.008323 -0.001537 0.002833 0.000000 0.000000 0.000000
# 2 -0.001537 0.008263 -0.000257 0.000000 0.000000 0.000000
# 3 0.002833 -0.000257 0.015443 0.000000 0.000000 0.000000
# 4 0.000000 0.000000 0.000000 0.033305 0.000000 0.000000
# 5 0.000000 0.000000 0.000000 0.000000 0.027524 0.000000
# 6 0.000000 0.000000 0.000000 0.000000 0.000000 0.040567
#
#
# Mechanical properties :
#
#
# Convention : Reuss Voigt Hill
#
# Bulk Modulus (GPa) = 29.31799 35.84491 32.58145
# Shear Modulus (GPa) = 35.03466 40.17172 37.60319
#
# Velocity S-wave (km/s) = 3.87484 4.14921 4.01437
# Velocity P-wave (km/s) = 5.70821 6.19001 5.95399
#
# Compressibility (1/GPa) = 0.03410875
#
# Stress axis : x y z
#
# Youngs Moduli (GPa) = 120.14592 121.02066 64.75273
#
# Poissons Ratio (x) = 0.18603 -0.18347
# Poissons Ratio (y) = 0.18469 0.01662
# Poissons Ratio (z) = -0.34043 0.03107
#
# Static dielectric constant tensor:
#      x y z
#    x 1.763020 0.000000 0.000000 
#    y 0.000000 1.868810 0.000000 
#    z 0.000000 0.000000 1.969330 
# 
# From -- ./inp_files/6886.got.cif
#   From: 2010.05.17/outbox.cif.g08.bks.cpg/sg20_4_cif.got.tgz:6886.got - 2010.06.03 22:52:26.
