data_PCOD9320905
_publ_section_title
;
Structure prediction by ZEFSAII (Michael W. Deem and Ramdas Pophale) SiO2 
 PCOD9320905
Probable space group: C 2 2 21
;
_chemical_formula_sum "Si O2"
_cell_formula_units_Z 60
_cell_length_a 10.152779
_cell_length_b 12.019247
_cell_length_c 20.589830
_cell_angle_alpha 90.000000
_cell_angle_beta 90.000000
_cell_angle_gamma 90.000000
_cell_volume 2512.551393
_symmetry_space_group_name_H-M "C 2 2 21"
_symmetry_group_IT_number 20
_symmetry_cell_setting 'orthorhombic'
loop_
_space_group_symop_operation_xyz
x,y,z
-x,-y,1/2+z
x,-y,-z
-x,y,1/2-z
1/2+x,1/2+y,z
1/2-x,1/2-y,1/2+z
1/2+x,1/2-y,-z
1/2-x,1/2+y,1/2-z
loop_
_atom_site_type_symbol
_atom_site_label
_atom_site_fract_x
_atom_site_fract_y
_atom_site_fract_z
Si Si1 0.627765 0.812251 0.996959
Si Si2 0.661268 0.500000 0.500000
Si Si3 0.474758 0.853209 0.120588
Si Si4 0.178068 0.827426 0.700399
Si Si5 0.881038 0.750815 0.199410
Si Si6 0.059046 0.584702 0.130503
Si Si7 0.797247 0.076561 0.563554
Si Si8 0.456562 0.525894 0.861583
O O1 0.754120 0.888507 0.010178
O O2 0.552367 0.791142 0.063539
O O3 0.549661 0.889350 0.945719
O O4 0.657793 0.698167 0.960766
O O5 0.585893 0.516833 0.432881
O O6 0.412542 0.769257 0.171368
O O7 0.351413 0.914619 0.087087
O O8 0.563592 0.954485 0.146094
O O9 0.244989 0.781886 0.766050
O O10 0.307688 0.856734 0.656608
O O11 0.091268 0.938656 0.692340
O O12 0.935232 0.641931 0.163854
O O13 0.884777 0.857330 0.153173
O O14 0.000000 0.778016 0.250000
O O15 0.888590 0.044670 0.625352
O O16 0.809441 0.000000 0.500000
#
# Coordination Sequence:
#
# PCOD9320905 Si02
#       8
#     8   4   8   8   8   8   8   8
#     4  12  22  42  64 101 141 180 228 291 362 428
#     4  12  24  42  74 104 142 174 232 294 370 442
#     4  12  24  41  70 100 139 185 239 285 354 434
#     4  11  24  45  68  99 134 184 240 302 343 435
#     4  10  24  44  71  94 133 192 244 291 359 428
#     4  11  21  45  68  96 132 186 235 290 354 424
#     4  12  24  36  61 101 140 180 220 286 359 433
#     4  12  23  43  72 100 142 187 228 300 379 420
#
# _framework density 23.880109999999998
#
# number of rings (size 3 to 8) (size 9 to 14) (size 15 to 20)
#    0.000    0.533    6.000    2.400    3.733    1.067 
#    0.000    1.333    0.000    0.000    0.000    0.000 
#    0.000    0.000    0.000    0.000    0.000    0.000 
#
# Total GULP energy -167924.886404 kJ/mol
# GULP energy per Si atom -5597.496213 kJ/mol
# Density = 2.382576 g / cm^3
# Si number density = 23.880110 Si / 1000 Ang^3
#
#
#
# Elastic Constant Matrix: (Units=GPa)
#
#
# Indices 1 2 3 4 5 6 
#
# 1 44.0096 12.6407 12.4641 0.0000 0.0000 0.0000
# 2 12.6407 95.9146 3.6085 0.0000 0.0000 0.0000
# 3 12.4641 3.6085 52.4556 0.0000 0.0000 0.0000
# 4 0.0000 0.0000 0.0000 28.9452 0.0000 0.0000
# 5 0.0000 0.0000 0.0000 0.0000 9.4412 0.0000
# 6 0.0000 0.0000 0.0000 0.0000 0.0000 -2.5277
#
#
#
# Elastic Compliance Matrix: (Units=1/GPa)
#
#
# Indices 1 2 3 4 5 6 
#
# 1 0.025255 -0.003111 -0.005787 0.000000 0.000000 0.000000
# 2 -0.003111 0.010836 -0.000006 0.000000 0.000000 0.000000
# 3 -0.005787 -0.000006 0.020439 0.000000 0.000000 0.000000
# 4 0.000000 0.000000 0.000000 0.034548 0.000000 0.000000
# 5 0.000000 0.000000 0.000000 0.000000 0.105919 0.000000
# 6 0.000000 0.000000 0.000000 0.000000 0.000000 -0.395616
#
#
# Mechanical properties :
#
#
# Convention : Reuss Voigt Hill
#
# Bulk Modulus (GPa) = 25.82483 27.75628 26.79056
# Shear Modulus (GPa) = -29.77892 18.08282 -5.84805
#
# Velocity S-wave (km/s) = -3.53514 2.75477 -1.56660
# Velocity P-wave (km/s) = 2.41353 4.66549 2.82326
#
# Compressibility (1/GPa) = 0.03872242
#
# Stress axis : x y z
#
# Youngs Moduli (GPa) = 39.59667 92.28384 48.92562
#
# Poissons Ratio (x) = 0.28706 0.28312
# Poissons Ratio (y) = 0.12317 0.00031
# Poissons Ratio (z) = 0.22914 0.00058
#
# Static dielectric constant tensor:
#      x y z
#    x 1.931010 0.000000 0.000000 
#    y 0.000000 1.958890 0.000000 
#    z 0.000000 0.000000 1.915730 
# 
# From -- ./inp_files/27253.got.cif
#   From: 2010.05.17/outbox.cif.g08.bks.cpg/sg20_14_cif.got.tgz:27253.got - 2010.06.03 22:52:26.
