data_PCOD9320080
_publ_section_title
;
Structure prediction by ZEFSAII (Michael W. Deem and Ramdas Pophale) SiO2 
 PCOD9320080
Probable space group: C 2 2 21
;
_chemical_formula_sum "Si O2"
_cell_formula_units_Z 24
_cell_length_a 5.106036
_cell_length_b 23.535592
_cell_length_c 8.957462
_cell_angle_alpha 90.000000
_cell_angle_beta 90.000000
_cell_angle_gamma 90.000000
_cell_volume 1076.450277
_symmetry_space_group_name_H-M "C 2 2 21"
_symmetry_group_IT_number 20
_symmetry_cell_setting 'orthorhombic'
loop_
_space_group_symop_operation_xyz
x,y,z
-x,-y,1/2+z
x,-y,-z
-x,y,1/2-z
1/2+x,1/2+y,z
1/2-x,1/2-y,1/2+z
1/2+x,1/2-y,-z
1/2-x,1/2+y,1/2-z
loop_
_atom_site_type_symbol
_atom_site_label
_atom_site_fract_x
_atom_site_fract_y
_atom_site_fract_z
Si Si1 0.249013 0.784351 0.644549
Si Si2 0.418804 0.836467 0.078480
Si Si3 0.248026 0.957499 0.140209
O O1 0.500000 0.779864 0.750000
O O2 0.327173 0.832781 0.526663
O O3 0.225831 0.723843 0.559625
O O4 0.000000 0.795372 0.750000
O O5 0.500000 0.834244 0.250000
O O6 0.262351 0.894490 0.066708
O O7 0.500000 0.964700 0.250000
O O8 0.000000 0.962642 0.250000
O O9 0.246058 0.000000 0.000000
#
# Coordination Sequence:
#
# PCOD9320080 Si02
#       3
#     8   8   8
#     4  11  23  39  63 100 138 174 220 274 333 402
#     4  10  22  42  67  96 135 180 222 270 337 401
#     4  11  25  47  72  98 133 178 229 282 336 395
#
# _framework density 22.295501000000002
#
# number of rings (size 3 to 8) (size 9 to 14) (size 15 to 20)
#    0.000    1.333    0.000    6.000    0.000    9.333 
#    0.000    8.333    0.000    0.000    0.000    0.000 
#    0.000    0.000    0.000    0.000    0.000    0.000 
#
# Total GULP energy -67075.020158 kJ/mol
# GULP energy per Si atom -5589.585013 kJ/mol
# Density = 2.224476 g / cm^3
# Si number density = 22.295501 Si / 1000 Ang^3
#
#
#
# Elastic Constant Matrix: (Units=GPa)
#
#
# Indices 1 2 3 4 5 6 
#
# 1 191.8636 53.7176 88.1252 0.0000 0.0000 0.0000
# 2 53.7176 103.1248 74.7628 0.0000 0.0000 0.0000
# 3 88.1252 74.7628 159.2261 0.0000 0.0000 0.0000
# 4 0.0000 0.0000 0.0000 14.9976 0.0000 0.0000
# 5 0.0000 0.0000 0.0000 0.0000 49.2381 0.0000
# 6 0.0000 0.0000 0.0000 0.0000 0.0000 23.9538
#
#
#
# Elastic Compliance Matrix: (Units=1/GPa)
#
#
# Indices 1 2 3 4 5 6 
#
# 1 0.007100 -0.001288 -0.003325 0.000000 0.000000 0.000000
# 2 -0.001288 0.014935 -0.006300 0.000000 0.000000 0.000000
# 3 -0.003325 -0.006300 0.011078 0.000000 0.000000 0.000000
# 4 0.000000 0.000000 0.000000 0.066677 0.000000 0.000000
# 5 0.000000 0.000000 0.000000 0.000000 0.020309 0.000000
# 6 0.000000 0.000000 0.000000 0.000000 0.000000 0.041747
#
#
# Mechanical properties :
#
#
# Convention : Reuss Voigt Hill
#
# Bulk Modulus (GPa) = 88.58613 98.60287 93.59450
# Shear Modulus (GPa) = 26.67600 33.47849 30.07724
#
# Velocity S-wave (km/s) = 3.46276 3.87923 3.67690
# Velocity P-wave (km/s) = 7.47038 8.02409 7.75218
#
# Compressibility (1/GPa) = 0.01128845
#
# Stress axis : x y z
#
# Youngs Moduli (GPa) = 140.85139 66.95667 90.26553
#
# Poissons Ratio (x) = 0.08624 0.30010
# Poissons Ratio (y) = 0.18141 0.56865
# Poissons Ratio (z) = 0.46828 0.42181
#
# Static dielectric constant tensor:
#      x y z
#    x 1.879170 0.000000 0.000000 
#    y 0.000000 1.866930 0.000000 
#    z 0.000000 0.000000 1.815520 
# 
# From -- ./inp_files/4960.got.cif
#   From: 2010.05.17/outbox.cif.g08.bks.cpg/sg20_3_cif.got.tgz:4960.got - 2010.06.03 22:52:26.
