data_PCOD9320681
_publ_section_title
;
Structure prediction by ZEFSAII (Michael W. Deem and Ramdas Pophale) SiO2 
 PCOD9320681
Probable space group: C 2 2 21
;
_chemical_formula_sum "Si O2"
_cell_formula_units_Z 64
_cell_length_a 22.647654
_cell_length_b 15.627942
_cell_length_c 8.433003
_cell_angle_alpha 90.000000
_cell_angle_beta 90.000000
_cell_angle_gamma 90.000000
_cell_volume 2984.745232
_symmetry_space_group_name_H-M "C 2 2 21"
_symmetry_group_IT_number 20
_symmetry_cell_setting 'orthorhombic'
loop_
_space_group_symop_operation_xyz
x,y,z
-x,-y,1/2+z
x,-y,-z
-x,y,1/2-z
1/2+x,1/2+y,z
1/2-x,1/2-y,1/2+z
1/2+x,1/2-y,-z
1/2-x,1/2+y,1/2-z
loop_
_atom_site_type_symbol
_atom_site_label
_atom_site_fract_x
_atom_site_fract_y
_atom_site_fract_z
Si Si1 0.281717 0.482979 0.196385
Si Si2 0.102418 0.246471 0.459041
Si Si3 0.308742 0.329342 0.768716
Si Si4 0.603906 0.091773 0.945782
Si Si5 0.706673 0.207054 0.017912
Si Si6 0.024495 0.744337 0.072855
Si Si7 0.871535 0.839778 0.291524
Si Si8 0.162445 0.578234 0.622762
O O1 0.290017 0.576039 0.278265
O O2 0.338299 0.428007 0.253445
O O3 0.224075 0.437791 0.278658
O O4 0.280625 0.500000 0.000000
O O5 0.124064 0.187785 0.313754
O O6 0.112294 0.197268 0.621719
O O7 0.144605 0.331475 0.460376
O O8 0.032125 0.255362 0.458839
O O9 0.292445 0.255220 0.647824
O O10 0.271480 0.313462 0.926935
O O11 0.667502 0.121221 0.016715
O O12 0.613207 0.081410 0.759654
O O13 0.563749 0.168029 0.004867
O O14 0.583454 0.000000 0.000000
O O15 0.675741 0.275442 0.131528
O O16 0.068963 0.825705 0.101065
O O17 0.000000 0.723730 0.250000
O O18 0.157484 0.500000 0.500000
#
# Coordination Sequence:
#
# PCOD9320681 Si02
#       8
#     8   8   8   8   8   8   8   8
#     4  12  26  44  67 105 145 186 234 297 364 437
#     4  11  23  45  69 100 133 190 239 288 357 426
#     4  12  24  39  70  98 142 185 233 282 359 431
#     4  11  24  45  68  96 141 183 229 295 353 420
#     4  11  24  41  64 101 137 190 227 282 356 433
#     4   9  23  46  75  97 133 187 248 294 351 423
#     4  10  23  45  70  97 136 183 236 296 355 417
#     4  12  28  41  65 109 148 185 230 290 358 443
#
# _framework density 21.442366
#
# number of rings (size 3 to 8) (size 9 to 14) (size 15 to 20)
#    0.000    1.000    2.500    3.375   10.500    1.000 
#    0.000    0.000    0.000   16.500    0.000    0.000 
#    0.000    0.000    0.000    0.000    0.000    0.000 
#
# Total GULP energy -178429.224698 kJ/mol
# GULP energy per Si atom -5575.913272 kJ/mol
# Density = 2.139356 g / cm^3
# Si number density = 21.442366 Si / 1000 Ang^3
#
#
#
# Elastic Constant Matrix: (Units=GPa)
#
#
# Indices 1 2 3 4 5 6 
#
# 1 118.1460 44.9232 15.2132 0.0000 0.0000 0.0000
# 2 44.9232 63.2791 -1.3485 0.0000 0.0000 0.0000
# 3 15.2132 -1.3485 38.1875 0.0000 0.0000 0.0000
# 4 0.0000 0.0000 0.0000 22.1251 0.0000 0.0000
# 5 0.0000 0.0000 0.0000 0.0000 24.9574 0.0000
# 6 0.0000 0.0000 0.0000 0.0000 0.0000 53.8641
#
#
#
# Elastic Compliance Matrix: (Units=1/GPa)
#
#
# Indices 1 2 3 4 5 6 
#
# 1 0.012594 -0.009055 -0.005337 0.000000 0.000000 0.000000
# 2 -0.009055 0.022325 0.004396 0.000000 0.000000 0.000000
# 3 -0.005337 0.004396 0.028468 0.000000 0.000000 0.000000
# 4 0.000000 0.000000 0.000000 0.045198 0.000000 0.000000
# 5 0.000000 0.000000 0.000000 0.000000 0.040068 0.000000
# 6 0.000000 0.000000 0.000000 0.000000 0.000000 0.018565
#
#
# Mechanical properties :
#
#
# Convention : Reuss Voigt Hill
#
# Bulk Modulus (GPa) = 23.04431 37.46539 30.25485
# Shear Modulus (GPa) = 24.79232 30.91095 27.85163
#
# Velocity S-wave (km/s) = 3.40403 3.80094 3.60794
# Velocity P-wave (km/s) = 5.12058 6.06410 5.61220
#
# Compressibility (1/GPa) = 0.04339466
#
# Stress axis : x y z
#
# Youngs Moduli (GPa) = 79.40141 44.79332 35.12715
#
# Poissons Ratio (x) = 0.40559 0.18748
# Poissons Ratio (y) = 0.71895 -0.15440
# Poissons Ratio (z) = 0.42377 -0.19689
#
# Static dielectric constant tensor:
#      x y z
#    x 1.839870 0.000000 0.000000 
#    y 0.000000 1.803420 0.000000 
#    z 0.000000 0.000000 1.771350 
# 
# From -- ./inp_files/10794.got.cif
#   From: 2010.05.17/outbox.cif.g08.bks.cpg/sg20_6_cif.got.tgz:10794.got - 2010.06.03 22:52:26.
