data_PCOD9320752
_publ_section_title
;
Structure prediction by ZEFSAII (Michael W. Deem and Ramdas Pophale) SiO2 
 PCOD9320752
Probable space group: C 2 2 21
;
_chemical_formula_sum "Si O2"
_cell_formula_units_Z 48
_cell_length_a 13.524527
_cell_length_b 5.315172
_cell_length_c 25.322776
_cell_angle_alpha 90.000000
_cell_angle_beta 90.000000
_cell_angle_gamma 90.000000
_cell_volume 1820.332494
_symmetry_space_group_name_H-M "C 2 2 21"
_symmetry_group_IT_number 20
_symmetry_cell_setting 'orthorhombic'
loop_
_space_group_symop_operation_xyz
x,y,z
-x,-y,1/2+z
x,-y,-z
-x,y,1/2-z
1/2+x,1/2+y,z
1/2-x,1/2-y,1/2+z
1/2+x,1/2-y,-z
1/2-x,1/2+y,1/2-z
loop_
_atom_site_type_symbol
_atom_site_label
_atom_site_fract_x
_atom_site_fract_y
_atom_site_fract_z
Si Si1 0.500000 0.737095 0.250000
Si Si2 0.588086 0.744368 0.085340
Si Si3 0.941304 0.146535 0.661872
Si Si4 0.647397 0.227781 0.349647
Si Si5 0.358812 0.750577 0.083616
Si Si6 0.676452 0.955427 0.197136
Si Si7 0.274686 0.000000 0.500000
O O1 0.508722 0.565527 0.198435
O O2 0.603804 0.879845 0.244499
O O3 0.582225 0.452091 0.103550
O O4 0.474188 0.807686 0.072520
O O5 0.632842 0.865478 0.139362
O O6 0.657161 0.837081 0.038976
O O7 0.033430 0.336698 0.663202
O O8 0.843036 0.249421 0.689271
O O9 0.644471 0.485768 0.384237
O O10 0.719699 0.315118 0.302682
O O11 0.681967 0.987982 0.383364
O O12 0.294842 0.689972 0.032482
#
# Coordination Sequence:
#
# PCOD9320752 Si02
#       7
#     4   8   8   8   8   8   4
#     4  10  24  42  72 112 144 188 248 310 374 466
#     4  10  24  48  73 102 149 201 239 322 376 437
#     4  10  23  49  73 106 153 191 249 313 384 450
#     4  11  25  47  78 103 149 201 247 300 376 454
#     4  11  26  50  70 112 146 196 257 306 367 455
#     4  11  22  47  73 104 144 197 239 304 383 441
#     4  12  26  48  74 110 150 198 262 312 378 450
#
# _framework density 26.368808000000001
#
# number of rings (size 3 to 8) (size 9 to 14) (size 15 to 20)
#    0.000    1.333    3.333    0.500    4.667    2.000 
#   12.000    0.000    0.000    0.000    0.000    0.000 
#    0.000    0.000    0.000    0.000    0.000    0.000 
#
# Total GULP energy -134215.104234 kJ/mol
# GULP energy per Si atom -5592.296010 kJ/mol
# Density = 2.630879 g / cm^3
# Si number density = 26.368808 Si / 1000 Ang^3
#
#
#
# Elastic Constant Matrix: (Units=GPa)
#
#
# Indices 1 2 3 4 5 6 
#
# 1 172.6875 40.2450 59.0774 0.0000 0.0000 0.0000
# 2 40.2450 96.8481 44.4681 0.0000 0.0000 0.0000
# 3 59.0774 44.4681 120.4851 0.0000 0.0000 0.0000
# 4 0.0000 0.0000 0.0000 35.0532 0.0000 0.0000
# 5 0.0000 0.0000 0.0000 0.0000 50.9520 0.0000
# 6 0.0000 0.0000 0.0000 0.0000 0.0000 42.2035
#
#
#
# Elastic Compliance Matrix: (Units=1/GPa)
#
#
# Indices 1 2 3 4 5 6 
#
# 1 0.007169 -0.001644 -0.002909 0.000000 0.000000 0.000000
# 2 -0.001644 0.012809 -0.003922 0.000000 0.000000 0.000000
# 3 -0.002909 -0.003922 0.011173 0.000000 0.000000 0.000000
# 4 0.000000 0.000000 0.000000 0.028528 0.000000 0.000000
# 5 0.000000 0.000000 0.000000 0.000000 0.019626 0.000000
# 6 0.000000 0.000000 0.000000 0.000000 0.000000 0.023695
#
#
# Mechanical properties :
#
#
# Convention : Reuss Voigt Hill
#
# Bulk Modulus (GPa) = 70.40359 75.28908 72.84633
# Shear Modulus (GPa) = 40.10193 42.05708 41.07951
#
# Velocity S-wave (km/s) = 3.90399 3.99802 3.95128
# Velocity P-wave (km/s) = 6.86141 7.06587 6.96439
#
# Compressibility (1/GPa) = 0.01420382
#
# Stress axis : x y z
#
# Youngs Moduli (GPa) = 139.49230 78.06983 89.49926
#
# Poissons Ratio (x) = 0.12831 0.26031
# Poissons Ratio (y) = 0.22926 0.35098
# Poissons Ratio (z) = 0.40571 0.30616
#
# Static dielectric constant tensor:
#      x y z
#    x 2.112820 0.000000 0.000000 
#    y 0.000000 2.302260 0.000000 
#    z 0.000000 0.000000 2.069150 
# 
# From -- ./inp_files/30437.got.cif
#   From: 2010.05.17/outbox.cif.g08.bks.cpg/sg20_16_cif.got.tgz:30437.got - 2010.06.03 22:52:26.
