data_PCOD9320038
_publ_section_title
;
Structure prediction by ZEFSAII (Michael W. Deem and Ramdas Pophale) SiO2 
 PCOD9320038
Probable space group: C 2 2 21
;
_chemical_formula_sum "Si O2"
_cell_formula_units_Z 40
_cell_length_a 4.917845
_cell_length_b 12.850354
_cell_length_c 26.733117
_cell_angle_alpha 90.000000
_cell_angle_beta 90.000000
_cell_angle_gamma 90.000000
_cell_volume 1689.427376
_symmetry_space_group_name_H-M "C 2 2 21"
_symmetry_group_IT_number 20
_symmetry_cell_setting 'orthorhombic'
loop_
_space_group_symop_operation_xyz
x,y,z
-x,-y,1/2+z
x,-y,-z
-x,y,1/2-z
1/2+x,1/2+y,z
1/2-x,1/2-y,1/2+z
1/2+x,1/2-y,-z
1/2-x,1/2+y,1/2-z
loop_
_atom_site_type_symbol
_atom_site_label
_atom_site_fract_x
_atom_site_fract_y
_atom_site_fract_z
Si Si1 0.955345 0.818767 0.881717
Si Si2 0.626534 0.716958 0.971358
Si Si3 0.768237 0.027611 0.588232
Si Si4 0.229887 0.394003 0.143290
Si Si5 0.262114 0.932936 0.715619
O O1 0.141908 0.724447 0.862092
O O2 0.746781 0.775432 0.922970
O O3 0.802630 0.866454 0.833759
O O4 0.133942 0.910062 0.906993
O O5 0.667033 0.594717 0.960881
O O6 0.317435 0.743357 0.983704
O O7 0.454940 0.045058 0.602127
O O8 0.956231 0.085543 0.630189
O O9 0.164748 0.452331 0.194730
O O10 0.500000 0.889481 0.750000
O O11 0.000000 0.939288 0.750000
#
# Coordination Sequence:
#
# PCOD9320038 Si02
#       5
#     8   8   8   8   8
#     4  10  24  46  70  93 134 181 217 273 339 390
#     4  11  24  43  67 100 137 176 224 274 330 393
#     4  10  22  42  67  94 128 169 218 264 316 388
#     4  10  22  42  65  92 128 167 209 267 324 385
#     4  11  24  43  67  98 129 166 222 275 331 406
#
# _framework density 23.676659999999998
#
# number of rings (size 3 to 8) (size 9 to 14) (size 15 to 20)
#    0.000    1.600    0.000    4.800    0.000   16.000 
#    0.000   16.000    0.000    0.000    0.000    0.000 
#    0.000    0.000    0.000    0.000    0.000    0.000 
#
# Total GULP energy -111998.517012 kJ/mol
# GULP energy per Si atom -5599.925851 kJ/mol
# Density = 2.362277 g / cm^3
# Si number density = 23.676660 Si / 1000 Ang^3
#
#
#
# Elastic Constant Matrix: (Units=GPa)
#
#
# Indices 1 2 3 4 5 6 
#
# 1 73.1883 18.3533 13.2097 0.0000 0.0000 0.0000
# 2 18.3533 159.8676 50.2539 0.0000 0.0000 0.0000
# 3 13.2097 50.2539 102.6083 0.0000 0.0000 0.0000
# 4 0.0000 0.0000 0.0000 128.8893 0.0000 0.0000
# 5 0.0000 0.0000 0.0000 0.0000 45.2219 0.0000
# 6 0.0000 0.0000 0.0000 0.0000 0.0000 31.6661
#
#
#
# Elastic Compliance Matrix: (Units=1/GPa)
#
#
# Indices 1 2 3 4 5 6 
#
# 1 0.014196 -0.001247 -0.001217 0.000000 0.000000 0.000000
# 2 -0.001247 0.007503 -0.003514 0.000000 0.000000 0.000000
# 3 -0.001217 -0.003514 0.011624 0.000000 0.000000 0.000000
# 4 0.000000 0.000000 0.000000 0.007759 0.000000 0.000000
# 5 0.000000 0.000000 0.000000 0.000000 0.022113 0.000000
# 6 0.000000 0.000000 0.000000 0.000000 0.000000 0.031579
#
#
# Mechanical properties :
#
#
# Convention : Reuss Voigt Hill
#
# Bulk Modulus (GPa) = 46.80298 55.47753 51.14025
# Shear Modulus (GPa) = 43.91675 58.07863 50.99769
#
# Velocity S-wave (km/s) = 4.31147 4.95814 4.64607
# Velocity P-wave (km/s) = 6.67799 7.50065 7.10124
#
# Compressibility (1/GPa) = 0.02136616
#
# Stress axis : x y z
#
# Youngs Moduli (GPa) = 70.44355 133.27952 86.03234
#
# Poissons Ratio (x) = 0.16623 0.10467
# Poissons Ratio (y) = 0.08786 0.30233
# Poissons Ratio (z) = 0.08571 0.46836
#
# Static dielectric constant tensor:
#      x y z
#    x 1.815840 0.000000 0.000000 
#    y 0.000000 1.926300 0.000000 
#    z 0.000000 0.000000 1.902040 
# 
# From -- ./inp_files/29709.got.cif
#   From: 2010.05.17/outbox.cif.g08.bks.cpg/sg20_15_cif.got.tgz:29709.got - 2010.06.03 22:52:26.
