data_PCOD9320471
_publ_section_title
;
Structure prediction by ZEFSAII (Michael W. Deem and Ramdas Pophale) SiO2 
 PCOD9320471
Probable space group: C 2 2 21
;
_chemical_formula_sum "Si O2"
_cell_formula_units_Z 56
_cell_length_a 5.406438
_cell_length_b 33.784118
_cell_length_c 14.351026
_cell_angle_alpha 90.000000
_cell_angle_beta 90.000000
_cell_angle_gamma 90.000000
_cell_volume 2621.239860
_symmetry_space_group_name_H-M "C 2 2 21"
_symmetry_group_IT_number 20
_symmetry_cell_setting 'orthorhombic'
loop_
_space_group_symop_operation_xyz
x,y,z
-x,-y,1/2+z
x,-y,-z
-x,y,1/2-z
1/2+x,1/2+y,z
1/2-x,1/2-y,1/2+z
1/2+x,1/2-y,-z
1/2-x,1/2+y,1/2-z
loop_
_atom_site_type_symbol
_atom_site_label
_atom_site_fract_x
_atom_site_fract_y
_atom_site_fract_z
Si Si1 0.247947 0.226701 0.311906
Si Si2 0.297106 0.625610 0.519606
Si Si3 0.039230 0.349845 0.859265
Si Si4 0.545660 0.039610 0.543850
Si Si5 0.000000 0.509527 0.750000
Si Si6 0.748086 0.184731 0.688809
Si Si7 0.829910 0.079979 0.074718
Si Si8 0.000000 0.958577 0.750000
O O1 0.500000 0.230424 0.250000
O O2 0.290806 0.188872 0.378518
O O3 0.225603 0.270788 0.353600
O O4 0.000000 0.219891 0.250000
O O5 0.260835 0.651735 0.609747
O O6 0.575252 0.613034 0.497271
O O7 0.187315 0.648868 0.430719
O O8 0.177914 0.581747 0.529587
O O9 0.140809 0.394177 0.866476
O O10 0.000000 0.345500 0.750000
O O11 0.512083 0.033534 0.653597
O O12 0.295307 0.045300 0.483538
O O13 0.668934 0.000000 0.500000
O O14 0.249527 0.483769 0.756954
O O15 0.500000 0.179115 0.750000
O O16 0.000000 0.182192 0.750000
O O17 0.019390 0.065497 0.153211
#
# Coordination Sequence:
#
# PCOD9320471 Si02
#       8
#     8   8   8   8   4   8   8   4
#     4   9  20  41  67  99 137 185 228 285 343 407
#     4  11  26  42  70 102 139 185 235 292 355 416
#     4  10  23  41  65 101 138 182 228 285 352 424
#     4  11  25  47  67 102 140 177 235 293 345 428
#     4  12  28  46  74 100 129 190 233 278 366 416
#     4  10  24  47  72  99 144 190 237 291 347 412
#     4  11  25  41  69 100 140 180 229 299 345 428
#     4  12  26  46  72 100 135 182 225 290 364 414
#
# _framework density 21.363935000000001
#
# number of rings (size 3 to 8) (size 9 to 14) (size 15 to 20)
#    0.000    1.429    1.429    1.714   15.000    0.571 
#    2.571    0.000    0.000    0.000    0.000    0.000 
#    0.000    0.000    0.000    0.000    0.000    0.000 
#
# Total GULP energy -156097.672273 kJ/mol
# GULP energy per Si atom -5574.916867 kJ/mol
# Density = 2.131531 g / cm^3
# Si number density = 21.363935 Si / 1000 Ang^3
#
#
#
# Elastic Constant Matrix: (Units=GPa)
#
#
# Indices 1 2 3 4 5 6 
#
# 1 79.3266 19.6293 11.9816 0.0000 0.0000 0.0000
# 2 19.6293 130.9218 58.6595 0.0000 0.0000 0.0000
# 3 11.9816 58.6595 113.9628 0.0000 0.0000 0.0000
# 4 0.0000 0.0000 0.0000 16.6098 0.0000 0.0000
# 5 0.0000 0.0000 0.0000 0.0000 22.6589 0.0000
# 6 0.0000 0.0000 0.0000 0.0000 0.0000 22.9590
#
#
#
# Elastic Compliance Matrix: (Units=1/GPa)
#
#
# Indices 1 2 3 4 5 6 
#
# 1 0.013112 -0.001752 -0.000477 0.000000 0.000000 0.000000
# 2 -0.001752 0.010162 -0.005046 0.000000 0.000000 0.000000
# 3 -0.000477 -0.005046 0.011422 0.000000 0.000000 0.000000
# 4 0.000000 0.000000 0.000000 0.060205 0.000000 0.000000
# 5 0.000000 0.000000 0.000000 0.000000 0.044133 0.000000
# 6 0.000000 0.000000 0.000000 0.000000 0.000000 0.043556
#
#
# Mechanical properties :
#
#
# Convention : Reuss Voigt Hill
#
# Bulk Modulus (GPa) = 49.63885 56.08356 52.86121
# Shear Modulus (GPa) = 24.52716 28.04160 26.28438
#
# Velocity S-wave (km/s) = 3.39198 3.62687 3.51139
# Velocity P-wave (km/s) = 6.21499 6.62174 6.42158
#
# Compressibility (1/GPa) = 0.02014551
#
# Stress axis : x y z
#
# Youngs Moduli (GPa) = 76.26775 98.40691 87.54755
#
# Poissons Ratio (x) = 0.17244 0.04172
# Poissons Ratio (y) = 0.13365 0.44179
# Poissons Ratio (z) = 0.03634 0.49659
#
# Static dielectric constant tensor:
#      x y z
#    x 1.912870 0.000000 0.000000 
#    y 0.000000 1.796820 0.000000 
#    z 0.000000 0.000000 1.768440 
# 
# From -- ./inp_files/18012.got.cif
#   From: 2010.05.17/outbox.cif.g08.bks.cpg/sg20_10_cif.got.tgz:18012.got - 2010.06.03 22:52:26.
