data_PCOD9320457
_publ_section_title
;
Structure prediction by ZEFSAII (Michael W. Deem and Ramdas Pophale) SiO2 
 PCOD9320457
Probable space group: C 2 2 21
;
_chemical_formula_sum "Si O2"
_cell_formula_units_Z 56
_cell_length_a 17.021485
_cell_length_b 7.465273
_cell_length_c 22.885405
_cell_angle_alpha 90.000000
_cell_angle_beta 90.000000
_cell_angle_gamma 90.000000
_cell_volume 2908.049155
_symmetry_space_group_name_H-M "C 2 2 21"
_symmetry_group_IT_number 20
_symmetry_cell_setting 'orthorhombic'
loop_
_space_group_symop_operation_xyz
x,y,z
-x,-y,1/2+z
x,-y,-z
-x,y,1/2-z
1/2+x,1/2+y,z
1/2-x,1/2-y,1/2+z
1/2+x,1/2-y,-z
1/2-x,1/2+y,1/2-z
loop_
_atom_site_type_symbol
_atom_site_label
_atom_site_fract_x
_atom_site_fract_y
_atom_site_fract_z
Si Si1 0.445433 0.320437 0.463768
Si Si2 0.142163 0.346779 0.397555
Si Si3 0.050223 0.500000 0.500000
Si Si4 0.058174 0.025747 0.634267
Si Si5 0.775567 0.929177 0.169330
Si Si6 0.666103 0.794534 0.271236
Si Si7 0.500000 0.357413 0.750000
Si Si8 0.214861 0.614675 0.058745
O O1 0.426389 0.500000 0.500000
O O2 0.496156 0.175668 0.499362
O O3 0.500613 0.380792 0.410573
O O4 0.367600 0.216386 0.444076
O O5 0.102228 0.485278 0.441473
O O6 0.160872 0.412240 0.331151
O O7 0.218736 0.264191 0.429012
O O8 0.086540 0.170027 0.389385
O O9 0.138862 0.135454 0.646784
O O10 0.012457 0.981763 0.693772
O O11 0.724185 0.835278 0.218406
O O12 0.801734 0.111354 0.201421
O O13 0.723359 0.978976 0.113251
O O14 0.578383 0.762544 0.247274
O O15 0.228052 0.500000 0.000000
#
# Coordination Sequence:
#
# PCOD9320457 Si02
#       8
#     8   8   4   8   8   8   4   8
#     4  12  25  41  62  92 130 161 213 268 315 372
#     4   9  22  40  62  88 128 163 214 253 315 379
#     4  12  24  40  64  94 118 174 210 260 318 382
#     4   9  20  40  61  88 120 171 197 260 315 361
#     4   9  21  38  63  85 129 163 208 259 303 382
#     4   9  19  39  59  91 122 165 203 257 308 369
#     4   8  18  34  62  88 122 158 204 248 312 362
#     4  10  23  41  59  94 128 164 216 260 317 376
#
# _framework density 19.256895
#
# number of rings (size 3 to 8) (size 9 to 14) (size 15 to 20)
#    0.000    2.857    2.143    0.000    5.000    9.143 
#    0.000    0.000    0.000    0.000    0.000    0.000 
#    0.000    0.000    0.000    0.000    0.000    0.000 
#
# Total GULP energy -155978.267766 kJ/mol
# GULP energy per Si atom -5570.652420 kJ/mol
# Density = 1.921307 g / cm^3
# Si number density = 19.256895 Si / 1000 Ang^3
#
#
#
# Elastic Constant Matrix: (Units=GPa)
#
#
# Indices 1 2 3 4 5 6 
#
# 1 110.9097 21.9455 94.5793 0.0000 0.0000 0.0000
# 2 21.9455 29.0900 30.8867 0.0000 0.0000 0.0000
# 3 94.5793 30.8867 122.1600 0.0000 0.0000 0.0000
# 4 0.0000 0.0000 0.0000 30.3200 0.0000 0.0000
# 5 0.0000 0.0000 0.0000 0.0000 -2.1997 0.0000
# 6 0.0000 0.0000 0.0000 0.0000 0.0000 7.9994
#
#
#
# Elastic Compliance Matrix: (Units=1/GPa)
#
#
# Indices 1 2 3 4 5 6 
#
# 1 0.026665 0.002466 -0.021268 0.000000 0.000000 0.000000
# 2 0.002466 0.047219 -0.013848 0.000000 0.000000 0.000000
# 3 -0.021268 -0.013848 0.028154 0.000000 0.000000 0.000000
# 4 0.000000 0.000000 0.000000 0.032982 0.000000 0.000000
# 5 0.000000 0.000000 0.000000 0.000000 -0.454606 0.000000
# 6 0.000000 0.000000 0.000000 0.000000 0.000000 0.125009
#
#
# Mechanical properties :
#
#
# Convention : Reuss Voigt Hill
#
# Bulk Modulus (GPa) = 27.22043 61.88695 44.55369
# Shear Modulus (GPa) = -42.72360 14.87382 -13.92489
#
# Velocity S-wave (km/s) = -4.71533 2.78220 -2.69199
# Velocity P-wave (km/s) = 3.93441 6.52136 3.67754
#
# Compressibility (1/GPa) = 0.03673711
#
# Stress axis : x y z
#
# Youngs Moduli (GPa) = 37.50210 21.17794 35.51944
#
# Poissons Ratio (x) = -0.05222 0.75544
# Poissons Ratio (y) = -0.09246 0.49186
# Poissons Ratio (z) = 0.79760 0.29326
#
# Static dielectric constant tensor:
#      x y z
#    x 1.693760 0.000000 0.000000 
#    y 0.000000 1.761670 0.000000 
#    z 0.000000 0.000000 1.719070 
# 
# From -- ./inp_files/27746.got.cif
#   From: 2010.05.17/outbox.cif.g08.bks.cpg/sg20_14_cif.got.tgz:27746.got - 2010.06.03 22:52:26.
