data_PCOD9320159
_publ_section_title
;
Structure prediction by ZEFSAII (Michael W. Deem and Ramdas Pophale) SiO2 
 PCOD9320159
Probable space group: C 2 2 21
;
_chemical_formula_sum "Si O2"
_cell_formula_units_Z 48
_cell_length_a 5.434959
_cell_length_b 27.839221
_cell_length_c 13.278855
_cell_angle_alpha 90.000000
_cell_angle_beta 90.000000
_cell_angle_gamma 90.000000
_cell_volume 2009.157484
_symmetry_space_group_name_H-M "C 2 2 21"
_symmetry_group_IT_number 20
_symmetry_cell_setting 'orthorhombic'
loop_
_space_group_symop_operation_xyz
x,y,z
-x,-y,1/2+z
x,-y,-z
-x,y,1/2-z
1/2+x,1/2+y,z
1/2-x,1/2-y,1/2+z
1/2+x,1/2-y,-z
1/2-x,1/2+y,1/2-z
loop_
_atom_site_type_symbol
_atom_site_label
_atom_site_fract_x
_atom_site_fract_y
_atom_site_fract_z
Si Si1 0.058243 0.521165 0.352926
Si Si2 0.636247 0.176936 0.979051
Si Si3 0.525272 0.655084 0.139622
Si Si4 0.937144 0.973043 0.105594
Si Si5 0.308076 0.095007 0.983904
Si Si6 0.862991 0.742794 0.141138
O O1 0.839611 0.480640 0.353472
O O2 0.000000 0.549895 0.250000
O O3 0.334501 0.500728 0.342167
O O4 0.060063 0.550795 0.457819
O O5 0.476133 0.134464 0.929931
O O6 0.500248 0.218597 0.044699
O O7 0.791881 0.152750 0.068310
O O8 0.795822 0.204036 0.895201
O O9 0.500000 0.634784 0.250000
O O10 0.723668 0.625243 0.080094
O O11 0.620683 0.709622 0.149675
O O12 0.071969 0.922562 0.079996
O O13 0.923991 0.000000 0.000000
O O14 0.000000 0.740347 0.250000
#
# Coordination Sequence:
#
# PCOD9320159 Si02
#       6
#     8   8   8   8   8   8
#     4  11  24  41  70 102 133 181 236 295 362 438
#     4  11  23  40  66 100 144 187 235 303 368 430
#     4  11  23  38  67 101 142 175 230 306 362 425
#     4  10  22  43  66  96 136 182 222 280 366 439
#     4  10  26  39  67 102 137 178 233 297 370 429
#     4  11  22  41  66 102 139 195 244 288 369 445
#
# _framework density 23.890612999999998
#
# number of rings (size 3 to 8) (size 9 to 14) (size 15 to 20)
#    0.000    1.333    3.333    2.000    9.333    0.000 
#    0.000    0.000    3.667    0.000    0.000    0.000 
#    0.000    0.000    0.000    0.000    0.000    0.000 
#
# Total GULP energy -133811.759427 kJ/mol
# GULP energy per Si atom -5575.489976 kJ/mol
# Density = 2.383624 g / cm^3
# Si number density = 23.890613 Si / 1000 Ang^3
#
#
#
# Elastic Constant Matrix: (Units=GPa)
#
#
# Indices 1 2 3 4 5 6 
#
# 1 125.5538 34.1845 6.4594 0.0000 0.0000 0.0000
# 2 34.1845 92.9243 -5.9027 0.0000 0.0000 0.0000
# 3 6.4594 -5.9027 24.0336 0.0000 0.0000 0.0000
# 4 0.0000 0.0000 0.0000 9.4582 0.0000 0.0000
# 5 0.0000 0.0000 0.0000 0.0000 32.8436 0.0000
# 6 0.0000 0.0000 0.0000 0.0000 0.0000 24.1761
#
#
#
# Elastic Compliance Matrix: (Units=1/GPa)
#
#
# Indices 1 2 3 4 5 6 
#
# 1 0.009105 -0.003560 -0.003322 0.000000 0.000000 0.000000
# 2 -0.003560 0.012324 0.003984 0.000000 0.000000 0.000000
# 3 -0.003322 0.003984 0.043480 0.000000 0.000000 0.000000
# 4 0.000000 0.000000 0.000000 0.105728 0.000000 0.000000
# 5 0.000000 0.000000 0.000000 0.000000 0.030447 0.000000
# 6 0.000000 0.000000 0.000000 0.000000 0.000000 0.041363
#
#
# Mechanical properties :
#
#
# Convention : Reuss Voigt Hill
#
# Bulk Modulus (GPa) = 16.91691 34.66598 25.79145
# Shear Modulus (GPa) = 18.66033 27.14696 22.90364
#
# Velocity S-wave (km/s) = 2.79780 3.37457 3.09963
# Velocity P-wave (km/s) = 4.18728 5.45210 4.86100
#
# Compressibility (1/GPa) = 0.05911246
#
# Stress axis : x y z
#
# Youngs Moduli (GPa) = 109.82961 81.14032 22.99929
#
# Poissons Ratio (x) = 0.28890 0.07639
# Poissons Ratio (y) = 0.39105 -0.09163
# Poissons Ratio (z) = 0.36481 -0.32325
#
# Static dielectric constant tensor:
#      x y z
#    x 2.048260 0.000000 0.000000 
#    y 0.000000 2.004350 0.000000 
#    z 0.000000 0.000000 2.030400 
# 
# From -- ./inp_files/17801.got.cif
#   From: 2010.05.17/outbox.cif.g08.bks.cpg/sg20_9_cif.got.tgz:17801.got - 2010.06.03 22:52:26.
