data_PCOD9320866
_publ_section_title
;
Structure prediction by ZEFSAII (Michael W. Deem and Ramdas Pophale) SiO2 
 PCOD9320866
Probable space group: C 2 2 21
;
_chemical_formula_sum "Si O2"
_cell_formula_units_Z 56
_cell_length_a 5.417347
_cell_length_b 14.680394
_cell_length_c 29.599200
_cell_angle_alpha 90.000000
_cell_angle_beta 90.000000
_cell_angle_gamma 90.000000
_cell_volume 2353.988513
_symmetry_space_group_name_H-M "C 2 2 21"
_symmetry_group_IT_number 20
_symmetry_cell_setting 'orthorhombic'
loop_
_space_group_symop_operation_xyz
x,y,z
-x,-y,1/2+z
x,-y,-z
-x,y,1/2-z
1/2+x,1/2+y,z
1/2-x,1/2-y,1/2+z
1/2+x,1/2-y,-z
1/2-x,1/2+y,1/2-z
loop_
_atom_site_type_symbol
_atom_site_label
_atom_site_fract_x
_atom_site_fract_y
_atom_site_fract_z
Si Si1 0.506335 0.908826 0.097346
Si Si2 0.803654 0.862380 0.712763
Si Si3 0.000000 0.198936 0.750000
Si Si4 0.898575 0.939170 0.625313
Si Si5 0.000000 0.514972 0.750000
Si Si6 0.665820 0.404212 0.322222
Si Si7 0.488790 0.195743 0.990937
Si Si8 0.683142 0.450262 0.541382
O O1 0.648769 0.866150 0.140136
O O2 0.414818 0.838471 0.059420
O O3 0.310584 0.985857 0.112826
O O4 0.706230 0.966084 0.069192
O O5 0.711022 0.769320 0.734003
O O6 0.853018 0.856608 0.659705
O O7 0.000000 0.895811 0.750000
O O8 0.607142 0.944825 0.713578
O O9 0.943981 0.152184 0.700661
O O10 0.011607 0.903795 0.578454
O O11 0.079075 0.001264 0.656228
O O12 0.806678 0.576231 0.724310
O O13 0.237572 0.240988 0.010325
O O14 0.598340 0.112632 0.021603
O O15 0.544443 0.500000 0.500000
#
# Coordination Sequence:
#
# PCOD9320866 Si02
#       8
#     8   8   4   8   4   8   8   8
#     4  10  24  43  72  98 131 183 244 290 346 429
#     4  11  23  42  60  97 131 178 221 286 345 411
#     4  11  28  38  62  93 146 172 224 277 362 410
#     4  11  22  42  77  95 131 179 251 291 340 426
#     4  11  20  40  70  89 130 174 240 275 338 418
#     4  11  23  42  64 101 127 185 232 291 344 426
#     4  11  27  48  71 108 151 189 226 296 377 436
#     4   9  23  43  70 103 132 180 235 290 351 432
#
# _framework density 23.78941
#
# number of rings (size 3 to 8) (size 9 to 14) (size 15 to 20)
#    0.000    1.429    2.857    0.857    9.000    1.714 
#    2.571    0.000    0.000    0.000    0.000    0.000 
#    0.000    0.000    0.000    0.000    0.000    0.000 
#
# Total GULP energy -156040.185736 kJ/mol
# GULP energy per Si atom -5572.863776 kJ/mol
# Density = 2.373526 g / cm^3
# Si number density = 23.789410 Si / 1000 Ang^3
#
#
#
# Elastic Constant Matrix: (Units=GPa)
#
#
# Indices 1 2 3 4 5 6 
#
# 1 43.0415 -3.5365 31.6060 0.0000 0.0000 0.0000
# 2 -3.5365 53.9076 17.4997 0.0000 0.0000 0.0000
# 3 31.6060 17.4997 145.2020 0.0000 0.0000 0.0000
# 4 0.0000 0.0000 0.0000 30.1450 0.0000 0.0000
# 5 0.0000 0.0000 0.0000 0.0000 28.6860 0.0000
# 6 0.0000 0.0000 0.0000 0.0000 0.0000 18.4391
#
#
#
# Elastic Compliance Matrix: (Units=1/GPa)
#
#
# Indices 1 2 3 4 5 6 
#
# 1 0.028474 0.004038 -0.006684 0.000000 0.000000 0.000000
# 2 0.004038 0.019878 -0.003275 0.000000 0.000000 0.000000
# 3 -0.006684 -0.003275 0.008737 0.000000 0.000000 0.000000
# 4 0.000000 0.000000 0.000000 0.033173 0.000000 0.000000
# 5 0.000000 0.000000 0.000000 0.000000 0.034860 0.000000
# 6 0.000000 0.000000 0.000000 0.000000 0.000000 0.054232
#
#
# Mechanical properties :
#
#
# Convention : Reuss Voigt Hill
#
# Bulk Modulus (GPa) = 22.10141 37.03218 29.56680
# Shear Modulus (GPa) = 24.23906 28.55949 26.39928
#
# Velocity S-wave (km/s) = 3.19549 3.46860 3.33484
# Velocity P-wave (km/s) = 4.78805 5.62513 5.22338
#
# Compressibility (1/GPa) = 0.04524598
#
# Stress axis : x y z
#
# Youngs Moduli (GPa) = 35.12018 50.30647 114.46066
#
# Poissons Ratio (x) = -0.20313 0.76511
# Poissons Ratio (y) = -0.14181 0.37482
# Poissons Ratio (z) = 0.23476 0.16474
#
# Static dielectric constant tensor:
#      x y z
#    x 2.039440 0.000000 0.000000 
#    y 0.000000 1.969870 0.000000 
#    z 0.000000 0.000000 2.037890 
# 
# From -- ./inp_files/30770.got.cif
#   From: 2010.05.17/outbox.cif.g08.bks.cpg/sg20_16_cif.got.tgz:30770.got - 2010.06.03 22:52:26.
