data_PCOD9320248
_publ_section_title
;
Structure prediction by ZEFSAII (Michael W. Deem and Ramdas Pophale) SiO2 
 PCOD9320248
Probable space group: C 2 2 21
;
_chemical_formula_sum "Si O2"
_cell_formula_units_Z 56
_cell_length_a 12.137624
_cell_length_b 14.513786
_cell_length_c 13.739867
_cell_angle_alpha 90.000000
_cell_angle_beta 90.000000
_cell_angle_gamma 90.000000
_cell_volume 2420.454504
_symmetry_space_group_name_H-M "C 2 2 21"
_symmetry_group_IT_number 20
_symmetry_cell_setting 'orthorhombic'
loop_
_space_group_symop_operation_xyz
x,y,z
-x,-y,1/2+z
x,-y,-z
-x,y,1/2-z
1/2+x,1/2+y,z
1/2-x,1/2-y,1/2+z
1/2+x,1/2-y,-z
1/2-x,1/2+y,1/2-z
loop_
_atom_site_type_symbol
_atom_site_label
_atom_site_fract_x
_atom_site_fract_y
_atom_site_fract_z
Si Si1 0.354891 0.408542 0.535193
Si Si2 0.898234 0.695959 0.575570
Si Si3 0.315658 0.577349 0.918727
Si Si4 0.663557 0.255773 0.714365
Si Si5 0.125172 0.352589 0.481863
Si Si6 0.625390 0.541243 0.254253
Si Si7 0.602268 0.745282 0.679744
O O1 0.420612 0.500000 0.500000
O O2 0.398480 0.301781 0.532852
O O3 0.238274 0.409039 0.479897
O O4 0.335855 0.433142 0.647506
O O5 0.784744 0.643720 0.551185
O O6 0.898395 0.711741 0.692209
O O7 0.996318 0.629601 0.539987
O O8 0.295616 0.522626 0.817530
O O9 0.407385 0.649797 0.881592
O O10 0.336092 0.500000 0.000000
O O11 0.647639 0.212716 0.609823
O O12 0.622022 0.359121 0.696881
O O13 0.789695 0.248367 0.751693
O O14 0.120842 0.316774 0.592602
O O15 0.500000 0.504765 0.250000
O O16 0.500000 0.760767 0.750000
#
# Coordination Sequence:
#
# PCOD9320248 Si02
#       7
#     8   8   8   8   8   8   8
#     4  11  26  46  71 111 141 187 247 300 365 434
#     4  10  24  46  70 104 143 193 243 300 367 435
#     4  11  24  43  68 103 142 189 243 296 364 439
#     4  10  22  44  68 102 141 187 244 293 359 444
#     4  12  23  45  76  99 142 196 234 297 368 437
#     4  11  23  42  68 106 146 180 236 304 360 428
#     4  11  25  42  69 105 144 189 235 305 370 423
#
# _framework density 23.136151000000002
#
# number of rings (size 3 to 8) (size 9 to 14) (size 15 to 20)
#    0.000    1.143    4.286    3.429    6.000    2.286 
#    0.000    0.000    0.000    0.000    0.000    0.000 
#    0.000    0.000    0.000    0.000    0.000    0.000 
#
# Total GULP energy -156053.898384 kJ/mol
# GULP energy per Si atom -5573.353514 kJ/mol
# Density = 2.308349 g / cm^3
# Si number density = 23.136151 Si / 1000 Ang^3
#
#
#
# Elastic Constant Matrix: (Units=GPa)
#
#
# Indices 1 2 3 4 5 6 
#
# 1 110.8900 12.4460 22.2903 0.0000 0.0000 0.0000
# 2 12.4460 55.0697 9.9568 0.0000 0.0000 0.0000
# 3 22.2903 9.9568 64.5852 0.0000 0.0000 0.0000
# 4 0.0000 0.0000 0.0000 34.7416 0.0000 0.0000
# 5 0.0000 0.0000 0.0000 0.0000 43.3544 0.0000
# 6 0.0000 0.0000 0.0000 0.0000 0.0000 3.9406
#
#
#
# Elastic Compliance Matrix: (Units=1/GPa)
#
#
# Indices 1 2 3 4 5 6 
#
# 1 0.009835 -0.001655 -0.003139 0.000000 0.000000 0.000000
# 2 -0.001655 0.018958 -0.002351 0.000000 0.000000 0.000000
# 3 -0.003139 -0.002351 0.016929 0.000000 0.000000 0.000000
# 4 0.000000 0.000000 0.000000 0.028784 0.000000 0.000000
# 5 0.000000 0.000000 0.000000 0.000000 0.023066 0.000000
# 6 0.000000 0.000000 0.000000 0.000000 0.000000 0.253772
#
#
# Mechanical properties :
#
#
# Convention : Reuss Voigt Hill
#
# Bulk Modulus (GPa) = 31.81598 35.54791 33.68195
# Shear Modulus (GPa) = 13.29393 28.79743 21.04568
#
# Velocity S-wave (km/s) = 2.39967 3.53185 3.01930
# Velocity P-wave (km/s) = 4.63243 5.65950 5.17153
#
# Compressibility (1/GPa) = 0.03143075
#
# Stress axis : x y z
#
# Youngs Moduli (GPa) = 101.68069 52.74818 59.06906
#
# Poissons Ratio (x) = 0.08731 0.18542
# Poissons Ratio (y) = 0.16829 0.13890
# Poissons Ratio (z) = 0.31919 0.12403
#
# Static dielectric constant tensor:
#      x y z
#    x 1.971820 0.000000 0.000000 
#    y 0.000000 1.968310 0.000000 
#    z 0.000000 0.000000 1.873400 
# 
# From -- ./inp_files/20052.got.cif
#   From: 2010.05.17/outbox.cif.g08.bks.cpg/sg20_11_cif.got.tgz:20052.got - 2010.06.03 22:52:26.
