data_PCOD9320659
_publ_section_title
;
Structure prediction by ZEFSAII (Michael W. Deem and Ramdas Pophale) SiO2 
 PCOD9320659
Probable space group: C 2 2 21
;
_chemical_formula_sum "Si O2"
_cell_formula_units_Z 64
_cell_length_a 9.305975
_cell_length_b 11.812732
_cell_length_c 28.507839
_cell_angle_alpha 90.000000
_cell_angle_beta 90.000000
_cell_angle_gamma 90.000000
_cell_volume 3133.837911
_symmetry_space_group_name_H-M "C 2 2 21"
_symmetry_group_IT_number 20
_symmetry_cell_setting 'orthorhombic'
loop_
_space_group_symop_operation_xyz
x,y,z
-x,-y,1/2+z
x,-y,-z
-x,y,1/2-z
1/2+x,1/2+y,z
1/2-x,1/2-y,1/2+z
1/2+x,1/2-y,-z
1/2-x,1/2+y,1/2-z
loop_
_atom_site_type_symbol
_atom_site_label
_atom_site_fract_x
_atom_site_fract_y
_atom_site_fract_z
Si Si1 0.244473 0.877243 0.631929
Si Si2 0.875022 0.424839 0.541798
Si Si3 0.144928 0.461869 0.435613
Si Si4 0.001834 0.221033 0.065607
Si Si5 0.580299 0.667024 0.965364
Si Si6 0.011970 0.973932 0.694444
Si Si7 0.235325 0.868959 0.866892
Si Si8 0.496374 0.295382 0.138047
O O1 0.323400 0.957736 0.593929
O O2 0.114283 0.830489 0.600692
O O3 0.359606 0.779995 0.642700
O O4 0.167594 0.929964 0.676649
O O5 0.815241 0.500000 0.500000
O O6 0.048271 0.438911 0.542387
O O7 0.848429 0.292618 0.533847
O O8 0.038843 0.353483 0.436006
O O9 0.290845 0.421362 0.459915
O O10 0.195097 0.513915 0.385954
O O11 0.153711 0.189822 0.089093
O O12 0.997512 0.163550 0.014358
O O13 0.492508 0.664000 0.916633
O O14 0.997281 0.097413 0.671427
O O15 0.000000 0.975445 0.750000
O O16 0.884316 0.898152 0.671816
O O17 0.361285 0.784928 0.851661
#
# Coordination Sequence:
#
# PCOD9320659 Si02
#       8
#     8   8   8   8   8   8   8   8
#     4  10  23  45  63  96 132 170 213 275 316 390
#     4  11  22  36  63  92 134 182 215 251 307 370
#     4  12  22  42  60  90 143 175 212 268 306 366
#     4  11  24  36  62  96 137 179 223 253 308 375
#     4  11  23  35  60  96 133 180 219 253 305 378
#     4  11  26  48  69  94 126 161 214 285 344 392
#     4  11  25  42  67  99 127 177 216 266 333 387
#     4  11  23  42  70  96 129 168 215 263 331 392
#
# _framework density 20.422243000000002
#
# number of rings (size 3 to 8) (size 9 to 14) (size 15 to 20)
#    0.000    1.000    7.500    0.000    5.250    2.000 
#    0.000    0.000    0.000    0.000    0.000    0.000 
#    0.000    0.000    0.000    0.000    0.000    0.000 
#
# Total GULP energy -178750.075845 kJ/mol
# GULP energy per Si atom -5585.939870 kJ/mol
# Density = 2.037576 g / cm^3
# Si number density = 20.422243 Si / 1000 Ang^3
#
#
#
# Elastic Constant Matrix: (Units=GPa)
#
#
# Indices 1 2 3 4 5 6 
#
# 1 108.9340 38.4874 42.4435 0.0000 0.0000 0.0000
# 2 38.4874 66.7645 47.4953 0.0000 0.0000 0.0000
# 3 42.4435 47.4953 145.5614 0.0000 0.0000 0.0000
# 4 0.0000 0.0000 0.0000 19.3512 0.0000 0.0000
# 5 0.0000 0.0000 0.0000 0.0000 20.6583 0.0000
# 6 0.0000 0.0000 0.0000 0.0000 0.0000 -14.4049
#
#
#
# Elastic Compliance Matrix: (Units=1/GPa)
#
#
# Indices 1 2 3 4 5 6 
#
# 1 0.011804 -0.005673 -0.001591 0.000000 0.000000 0.000000
# 2 -0.005673 0.022232 -0.005600 0.000000 0.000000 0.000000
# 3 -0.001591 -0.005600 0.009161 0.000000 0.000000 0.000000
# 4 0.000000 0.000000 0.000000 0.051676 0.000000 0.000000
# 5 0.000000 0.000000 0.000000 0.000000 0.048407 0.000000
# 6 0.000000 0.000000 0.000000 0.000000 0.000000 -0.069421
#
#
# Mechanical properties :
#
#
# Convention : Reuss Voigt Hill
#
# Bulk Modulus (GPa) = 57.24224 64.23469 60.73847
# Shear Modulus (GPa) = 47.43396 17.97651 32.70524
#
# Velocity S-wave (km/s) = 4.82463 2.97011 4.00616
# Velocity P-wave (km/s) = 7.68936 6.57903 7.15576
#
# Compressibility (1/GPa) = 0.01746962
#
# Stress axis : x y z
#
# Youngs Moduli (GPa) = 84.71712 44.98034 109.15803
#
# Poissons Ratio (x) = 0.25517 0.17366
# Poissons Ratio (y) = 0.48059 0.61128
# Poissons Ratio (z) = 0.13477 0.25189
#
# Static dielectric constant tensor:
#      x y z
#    x 1.789800 0.000000 0.000000 
#    y 0.000000 1.766040 0.000000 
#    z 0.000000 0.000000 1.882010 
# 
# From -- ./inp_files/31071.got.cif
#   From: 2010.05.17/outbox.cif.g08.bks.cpg/sg20_16_cif.got.tgz:31071.got - 2010.06.03 22:52:26.
