data_PCOD9320697
_publ_section_title
;
Structure prediction by ZEFSAII (Michael W. Deem and Ramdas Pophale) SiO2 
 PCOD9320697
Probable space group: C 2 2 21
;
_chemical_formula_sum "Si O2"
_cell_formula_units_Z 40
_cell_length_a 9.836563
_cell_length_b 23.804685
_cell_length_c 7.224757
_cell_angle_alpha 90.000000
_cell_angle_beta 90.000000
_cell_angle_gamma 90.000000
_cell_volume 1691.722250
_symmetry_space_group_name_H-M "C 2 2 21"
_symmetry_group_IT_number 20
_symmetry_cell_setting 'orthorhombic'
loop_
_space_group_symop_operation_xyz
x,y,z
-x,-y,1/2+z
x,-y,-z
-x,y,1/2-z
1/2+x,1/2+y,z
1/2-x,1/2-y,1/2+z
1/2+x,1/2-y,-z
1/2-x,1/2+y,1/2-z
loop_
_atom_site_type_symbol
_atom_site_label
_atom_site_fract_x
_atom_site_fract_y
_atom_site_fract_z
Si Si1 0.657626 0.510376 0.716091
Si Si2 0.151074 0.586234 0.290281
Si Si3 0.317075 0.187356 0.927235
Si Si4 0.013392 0.783702 0.034106
Si Si5 0.290413 0.629294 0.917623
O O1 0.688092 0.500000 0.500000
O O2 0.500000 0.498256 0.750000
O O3 0.749113 0.466235 0.826933
O O4 0.683205 0.576789 0.720647
O O5 0.144126 0.633161 0.449677
O O6 0.000000 0.564481 0.250000
O O7 0.208149 0.614198 0.101428
O O8 0.289913 0.171333 0.714837
O O9 0.171439 0.208406 0.007071
O O10 0.427497 0.235951 0.936034
O O11 0.932055 0.842646 0.018640
O O12 0.000000 0.768069 0.250000
#
# Coordination Sequence:
#
# PCOD9320697 Si02
#       5
#     8   8   8   8   8
#     4  10  23  45  74 102 138 181 234 286 341 415
#     4  11  27  47  68 105 145 177 231 290 347 410
#     4  11  25  46  74  98 141 186 229 283 349 404
#     4  10  24  46  68 104 140 178 234 285 337 413
#     4  10  25  48  70 101 140 181 233 283 340 417
#
# _framework density 23.644544
#
# number of rings (size 3 to 8) (size 9 to 14) (size 15 to 20)
#    0.000    1.600    0.000    2.400   16.800    0.800 
#   14.400    0.000    0.000    0.000    0.000    0.000 
#    0.000    0.000    0.000    0.000    0.000    0.000 
#
# Total GULP energy -111959.324420 kJ/mol
# GULP energy per Si atom -5597.966221 kJ/mol
# Density = 2.359073 g / cm^3
# Si number density = 23.644544 Si / 1000 Ang^3
#
#
#
# Elastic Constant Matrix: (Units=GPa)
#
#
# Indices 1 2 3 4 5 6 
#
# 1 132.0980 46.8693 8.3125 0.0000 0.0000 0.0000
# 2 46.8693 112.6790 13.3343 0.0000 0.0000 0.0000
# 3 8.3125 13.3343 61.8282 0.0000 0.0000 0.0000
# 4 0.0000 0.0000 0.0000 35.2680 0.0000 0.0000
# 5 0.0000 0.0000 0.0000 0.0000 29.6773 0.0000
# 6 0.0000 0.0000 0.0000 0.0000 0.0000 -53.6447
#
#
#
# Elastic Compliance Matrix: (Units=1/GPa)
#
#
# Indices 1 2 3 4 5 6 
#
# 1 0.008891 -0.003650 -0.000408 0.000000 0.000000 0.000000
# 2 -0.003650 0.010606 -0.001797 0.000000 0.000000 0.000000
# 3 -0.000408 -0.001797 0.016616 0.000000 0.000000 0.000000
# 4 0.000000 0.000000 0.000000 0.028354 0.000000 0.000000
# 5 0.000000 0.000000 0.000000 0.000000 0.033696 0.000000
# 6 0.000000 0.000000 0.000000 0.000000 0.000000 -0.018641
#
#
# Mechanical properties :
#
#
# Convention : Reuss Voigt Hill
#
# Bulk Modulus (GPa) = 40.97797 49.29304 45.13551
# Shear Modulus (GPa) = 50.31944 18.13272 34.22608
#
# Velocity S-wave (km/s) = 4.61821 2.77228 3.80876
# Velocity P-wave (km/s) = 6.76798 5.58034 6.20265
#
# Compressibility (1/GPa) = 0.02440336
#
# Stress axis : x y z
#
# Youngs Moduli (GPa) = 112.47552 94.29029 60.18230
#
# Poissons Ratio (x) = 0.34415 0.02456
# Poissons Ratio (y) = 0.41052 0.10812
# Poissons Ratio (z) = 0.04591 0.16940
#
# Static dielectric constant tensor:
#      x y z
#    x 1.866660 0.000000 0.000000 
#    y 0.000000 1.981270 0.000000 
#    z 0.000000 0.000000 1.929810 
# 
# From -- ./inp_files/6069.got.cif
#   From: 2010.05.17/outbox.cif.g08.bks.cpg/sg20_4_cif.got.tgz:6069.got - 2010.06.03 22:52:26.
