data_PCOD9320154
_publ_section_title
;
Structure prediction by ZEFSAII (Michael W. Deem and Ramdas Pophale) SiO2 
 PCOD9320154
Probable space group: C 2 2 21
;
_chemical_formula_sum "Si O2"
_cell_formula_units_Z 64
_cell_length_a 10.402566
_cell_length_b 16.107080
_cell_length_c 17.819798
_cell_angle_alpha 90.000000
_cell_angle_beta 90.000000
_cell_angle_gamma 90.000000
_cell_volume 2985.795590
_symmetry_space_group_name_H-M "C 2 2 21"
_symmetry_group_IT_number 20
_symmetry_cell_setting 'orthorhombic'
loop_
_space_group_symop_operation_xyz
x,y,z
-x,-y,1/2+z
x,-y,-z
-x,y,1/2-z
1/2+x,1/2+y,z
1/2-x,1/2-y,1/2+z
1/2+x,1/2-y,-z
1/2-x,1/2+y,1/2-z
loop_
_atom_site_type_symbol
_atom_site_label
_atom_site_fract_x
_atom_site_fract_y
_atom_site_fract_z
Si Si1 0.651606 0.999510 0.820006
Si Si2 0.986597 0.365985 0.096805
Si Si3 0.712225 0.437894 0.069540
Si Si4 0.958974 0.189957 0.625973
Si Si5 0.098069 0.222590 0.189637
Si Si6 0.802455 0.580464 0.164840
Si Si7 0.190641 0.847545 0.279549
Si Si8 0.558894 0.124923 0.071892
O O1 0.641172 0.940697 0.746925
O O2 0.659643 0.936855 0.889580
O O3 0.537318 0.064453 0.843700
O O4 0.770326 0.060067 0.802993
O O5 0.023358 0.274635 0.125933
O O6 0.836797 0.379231 0.079351
O O7 0.055391 0.382592 0.017348
O O8 0.586681 0.380913 0.068859
O O9 0.723721 0.499958 0.139223
O O10 0.722677 0.500000 0.000000
O O11 0.885388 0.165270 0.702706
O O12 0.921443 0.280253 0.596720
O O13 0.106737 0.188500 0.651636
O O14 0.202025 0.155622 0.164297
O O15 0.180362 0.294675 0.230124
O O16 0.000000 0.185656 0.250000
O O17 0.920791 0.598279 0.108371
#
# Coordination Sequence:
#
# PCOD9320154 Si02
#       8
#     8   8   8   8   8   8   8   8
#     4  11  23  41  71 100 135 183 234 296 340 423
#     4  11  25  43  69 104 138 182 231 291 351 422
#     4  12  24  44  70  99 143 185 234 277 360 420
#     4  11  24  42  69  97 138 185 219 298 348 417
#     4  11  25  43  70 102 136 176 233 296 344 411
#     4  12  24  42  68 102 135 177 233 294 338 421
#     4  10  22  43  66 101 137 174 237 283 357 401
#     4  12  24  42  70 102 137 178 238 280 351 425
#
# _framework density 21.434823000000002
#
# number of rings (size 3 to 8) (size 9 to 14) (size 15 to 20)
#    0.000    0.750    5.000    2.250    5.250    1.000 
#    0.000    2.500    2.750    0.000    0.000    0.000 
#    0.000    0.000    0.000    0.000    0.000    0.000 
#
# Total GULP energy -178739.920216 kJ/mol
# GULP energy per Si atom -5585.622507 kJ/mol
# Density = 2.138604 g / cm^3
# Si number density = 21.434823 Si / 1000 Ang^3
#
#
#
# Elastic Constant Matrix: (Units=GPa)
#
#
# Indices 1 2 3 4 5 6 
#
# 1 48.5399 22.1497 12.5676 0.0000 0.0000 0.0000
# 2 22.1497 110.5423 19.5572 0.0000 0.0000 0.0000
# 3 12.5676 19.5572 75.7712 0.0000 0.0000 0.0000
# 4 0.0000 0.0000 0.0000 15.8199 0.0000 0.0000
# 5 0.0000 0.0000 0.0000 0.0000 19.8374 0.0000
# 6 0.0000 0.0000 0.0000 0.0000 0.0000 42.0959
#
#
#
# Elastic Compliance Matrix: (Units=1/GPa)
#
#
# Indices 1 2 3 4 5 6 
#
# 1 0.023220 -0.004161 -0.002777 0.000000 0.000000 0.000000
# 2 -0.004161 0.010225 -0.001949 0.000000 0.000000 0.000000
# 3 -0.002777 -0.001949 0.014161 0.000000 0.000000 0.000000
# 4 0.000000 0.000000 0.000000 0.063212 0.000000 0.000000
# 5 0.000000 0.000000 0.000000 0.000000 0.050410 0.000000
# 6 0.000000 0.000000 0.000000 0.000000 0.000000 0.023755
#
#
# Mechanical properties :
#
#
# Convention : Reuss Voigt Hill
#
# Bulk Modulus (GPa) = 33.52217 38.15582 35.83900
# Shear Modulus (GPa) = 23.50717 27.58922 25.54820
#
# Velocity S-wave (km/s) = 3.31521 3.59154 3.45614
# Velocity P-wave (km/s) = 5.50702 5.91932 5.71689
#
# Compressibility (1/GPa) = 0.02983100
#
# Stress axis : x y z
#
# Youngs Moduli (GPa) = 43.06724 97.80036 70.61496
#
# Poissons Ratio (x) = 0.40697 0.19611
# Poissons Ratio (y) = 0.17921 0.13763
# Poissons Ratio (z) = 0.11961 0.19061
#
# Static dielectric constant tensor:
#      x y z
#    x 1.792990 0.000000 0.000000 
#    y 0.000000 1.779910 0.000000 
#    z 0.000000 0.000000 1.822440 
# 
# From -- ./inp_files/24445.got.cif
#   From: 2010.05.17/outbox.cif.g08.bks.cpg/sg20_13_cif.got.tgz:24445.got - 2010.06.03 22:52:26.
