data_PCOD9320686
_publ_section_title
;
Structure prediction by ZEFSAII (Michael W. Deem and Ramdas Pophale) SiO2 
 PCOD9320686
Probable space group: C 2 2 21
;
_chemical_formula_sum "Si O2"
_cell_formula_units_Z 36
_cell_length_a 7.982941
_cell_length_b 22.629177
_cell_length_c 9.029447
_cell_angle_alpha 90.000000
_cell_angle_beta 90.000000
_cell_angle_gamma 90.000000
_cell_volume 1631.145987
_symmetry_space_group_name_H-M "C 2 2 21"
_symmetry_group_IT_number 20
_symmetry_cell_setting 'orthorhombic'
loop_
_space_group_symop_operation_xyz
x,y,z
-x,-y,1/2+z
x,-y,-z
-x,y,1/2-z
1/2+x,1/2+y,z
1/2-x,1/2-y,1/2+z
1/2+x,1/2-y,-z
1/2-x,1/2+y,1/2-z
loop_
_atom_site_type_symbol
_atom_site_label
_atom_site_fract_x
_atom_site_fract_y
_atom_site_fract_z
Si Si1 0.322212 0.928127 0.173583
Si Si2 0.819234 0.562198 0.179331
Si Si3 0.571240 0.265703 0.492007
Si Si4 0.000000 0.858348 0.750000
Si Si5 0.731122 0.697973 0.794145
O O1 0.500000 0.915818 0.250000
O O2 0.205827 0.872392 0.211299
O O3 0.273445 0.994400 0.221924
O O4 0.339357 0.932197 0.997008
O O5 0.666044 0.603487 0.223656
O O6 0.000000 0.576625 0.250000
O O7 0.541951 0.318490 0.607656
O O8 0.411709 0.267306 0.385035
O O9 0.719999 0.277079 0.371747
O O10 0.610775 0.210693 0.599115
#
# Coordination Sequence:
#
# PCOD9320686 Si02
#       5
#     8   8   8   4   8
#     4  10  23  45  71  99 142 183 237 291 353 429
#     4  10  24  46  71 107 139 189 235 291 360 424
#     4  11  26  44  68 101 140 182 241 285 364 414
#     4  12  24  46  72 108 146 180 238 304 348 440
#     4  11  25  45  67 101 139 189 232 296 347 431
#
# _framework density 22.070373
#
# number of rings (size 3 to 8) (size 9 to 14) (size 15 to 20)
#    0.000    1.333    2.222    1.333    7.778    1.778 
#    0.000    0.000    0.000    0.000    0.000    0.000 
#    0.000    0.000    0.000    0.000    0.000    0.000 
#
# Total GULP energy -100512.351006 kJ/mol
# GULP energy per Si atom -5584.019500 kJ/mol
# Density = 2.202014 g / cm^3
# Si number density = 22.070373 Si / 1000 Ang^3
#
#
#
# Elastic Constant Matrix: (Units=GPa)
#
#
# Indices 1 2 3 4 5 6 
#
# 1 81.6993 35.6880 33.7818 0.0000 0.0000 0.0000
# 2 35.6880 103.6745 47.4022 0.0000 0.0000 0.0000
# 3 33.7818 47.4022 140.9190 0.0000 0.0000 0.0000
# 4 0.0000 0.0000 0.0000 29.3227 0.0000 0.0000
# 5 0.0000 0.0000 0.0000 0.0000 30.8160 0.0000
# 6 0.0000 0.0000 0.0000 0.0000 0.0000 35.9929
#
#
#
# Elastic Compliance Matrix: (Units=1/GPa)
#
#
# Indices 1 2 3 4 5 6 
#
# 1 0.014957 -0.004147 -0.002191 0.000000 0.000000 0.000000
# 2 -0.004147 0.012549 -0.003227 0.000000 0.000000 0.000000
# 3 -0.002191 -0.003227 0.008707 0.000000 0.000000 0.000000
# 4 0.000000 0.000000 0.000000 0.034103 0.000000 0.000000
# 5 0.000000 0.000000 0.000000 0.000000 0.032451 0.000000
# 6 0.000000 0.000000 0.000000 0.000000 0.000000 0.027783
#
#
# Mechanical properties :
#
#
# Convention : Reuss Voigt Hill
#
# Bulk Modulus (GPa) = 58.53632 62.22631 60.38132
# Shear Modulus (GPa) = 32.18044 33.18772 32.68408
#
# Velocity S-wave (km/s) = 3.82263 3.88199 3.85242
# Velocity P-wave (km/s) = 6.78701 6.95333 6.87067
#
# Compressibility (1/GPa) = 0.01708341
#
# Stress axis : x y z
#
# Youngs Moduli (GPa) = 66.85663 79.69039 114.85174
#
# Poissons Ratio (x) = 0.33049 0.25160
# Poissons Ratio (y) = 0.27727 0.37061
# Poissons Ratio (z) = 0.14646 0.25715
#
# Static dielectric constant tensor:
#      x y z
#    x 1.822050 0.000000 0.000000 
#    y 0.000000 1.819280 0.000000 
#    z 0.000000 0.000000 1.747460 
# 
# From -- ./inp_files/5884.got.cif
#   From: 2010.05.17/outbox.cif.g08.bks.cpg/sg20_3_cif.got.tgz:5884.got - 2010.06.03 22:52:26.
