data_PCOD9320833
_publ_section_title
;
Structure prediction by ZEFSAII (Michael W. Deem and Ramdas Pophale) SiO2 
 PCOD9320833
Probable space group: C 2 2 21
;
_chemical_formula_sum "Si O2"
_cell_formula_units_Z 48
_cell_length_a 29.838355
_cell_length_b 8.215526
_cell_length_c 9.189633
_cell_angle_alpha 90.000000
_cell_angle_beta 90.000000
_cell_angle_gamma 90.000000
_cell_volume 2252.726245
_symmetry_space_group_name_H-M "C 2 2 21"
_symmetry_group_IT_number 20
_symmetry_cell_setting 'orthorhombic'
loop_
_space_group_symop_operation_xyz
x,y,z
-x,-y,1/2+z
x,-y,-z
-x,y,1/2-z
1/2+x,1/2+y,z
1/2-x,1/2-y,1/2+z
1/2+x,1/2-y,-z
1/2-x,1/2+y,1/2-z
loop_
_atom_site_type_symbol
_atom_site_label
_atom_site_fract_x
_atom_site_fract_y
_atom_site_fract_z
Si Si1 0.568739 0.000000 0.500000
Si Si2 0.892519 0.000000 0.000000
Si Si3 0.284589 0.936397 0.856532
Si Si4 0.951157 0.222894 0.210890
Si Si5 0.871108 0.725878 0.206865
Si Si6 0.118052 0.805420 0.973331
Si Si7 0.784833 0.658582 0.600538
O O1 0.542573 0.886019 0.385826
O O2 0.599292 0.889236 0.605024
O O3 0.923831 0.106239 0.103669
O O4 0.864991 0.888844 0.111352
O O5 0.321638 0.841194 0.764911
O O6 0.245798 0.818550 0.913371
O O7 0.272299 0.090209 0.759914
O O8 0.309020 0.000000 0.000000
O O9 0.920334 0.234216 0.355226
O O10 0.000000 0.157482 0.250000
O O11 0.893321 0.744998 0.364099
O O12 0.163854 0.718542 0.918123
O O13 0.124647 0.000000 0.000000
O O14 0.775687 0.500000 0.500000
#
# Coordination Sequence:
#
# PCOD9320833 Si02
#       7
#     4   4   8   8   8   8   8
#     4  10  24  46  66 104 136 182 230 280 352 420
#     4  10  24  42  70 102 138 176 226 286 348 422
#     4  12  26  42  67  98 140 183 237 289 336 407
#     4  11  26  45  73 104 139 178 229 287 357 422
#     4  11  23  44  69  99 139 183 231 279 344 411
#     4  12  26  46  72 102 139 187 233 289 355 419
#     4  12  27  45  65 101 138 189 236 293 348 408
#
# _framework density 21.307517000000001
#
# number of rings (size 3 to 8) (size 9 to 14) (size 15 to 20)
#    0.000    0.667    4.167    2.500    7.000    1.333 
#    0.000    3.333    0.000    0.000    0.000    0.000 
#    0.000    0.000    0.000    0.000    0.000    0.000 
#
# Total GULP energy -133984.283016 kJ/mol
# GULP energy per Si atom -5582.678459 kJ/mol
# Density = 2.125902 g / cm^3
# Si number density = 21.307517 Si / 1000 Ang^3
#
#
#
# Elastic Constant Matrix: (Units=GPa)
#
#
# Indices 1 2 3 4 5 6 
#
# 1 45.9562 -3.8159 20.6491 0.0000 0.0000 0.0000
# 2 -3.8159 62.7038 26.3367 0.0000 0.0000 0.0000
# 3 20.6491 26.3367 162.3195 0.0000 0.0000 0.0000
# 4 0.0000 0.0000 0.0000 35.9526 0.0000 0.0000
# 5 0.0000 0.0000 0.0000 0.0000 17.8354 0.0000
# 6 0.0000 0.0000 0.0000 0.0000 0.0000 1.0923
#
#
#
# Elastic Compliance Matrix: (Units=1/GPa)
#
#
# Indices 1 2 3 4 5 6 
#
# 1 0.023557 0.002889 -0.003466 0.000000 0.000000 0.000000
# 2 0.002889 0.017469 -0.003202 0.000000 0.000000 0.000000
# 3 -0.003466 -0.003202 0.007121 0.000000 0.000000 0.000000
# 4 0.000000 0.000000 0.000000 0.027814 0.000000 0.000000
# 5 0.000000 0.000000 0.000000 0.000000 0.056068 0.000000
# 6 0.000000 0.000000 0.000000 0.000000 0.000000 0.915482
#
#
# Mechanical properties :
#
#
# Convention : Reuss Voigt Hill
#
# Bulk Modulus (GPa) = 24.63651 39.70214 32.16932
# Shear Modulus (GPa) = 4.67903 26.16339 15.42121
#
# Velocity S-wave (km/s) = 1.48348 3.50793 2.69317
# Velocity P-wave (km/s) = 3.81074 5.92291 4.98009
#
# Compressibility (1/GPa) = 0.04059017
#
# Stress axis : x y z
#
# Youngs Moduli (GPa) = 42.45046 57.24534 140.42867
#
# Poissons Ratio (x) = -0.16539 0.48666
# Poissons Ratio (y) = -0.12265 0.44963
# Poissons Ratio (z) = 0.14711 0.18329
#
# Static dielectric constant tensor:
#      x y z
#    x 1.695470 0.000000 0.000000 
#    y 0.000000 1.844470 0.000000 
#    z 0.000000 0.000000 1.805180 
# 
# From -- ./inp_files/11496.got.cif
#   From: 2010.05.17/outbox.cif.g08.bks.cpg/sg20_6_cif.got.tgz:11496.got - 2010.06.03 22:52:26.
