data_PCOD9320325
_publ_section_title
;
Structure prediction by ZEFSAII (Michael W. Deem and Ramdas Pophale) SiO2 
 PCOD9320325
Probable space group: C 2 2 21
;
_chemical_formula_sum "Si O2"
_cell_formula_units_Z 28
_cell_length_a 5.340581
_cell_length_b 28.449497
_cell_length_c 7.480250
_cell_angle_alpha 90.000000
_cell_angle_beta 90.000000
_cell_angle_gamma 90.000000
_cell_volume 1136.525571
_symmetry_space_group_name_H-M "C 2 2 21"
_symmetry_group_IT_number 20
_symmetry_cell_setting 'orthorhombic'
loop_
_space_group_symop_operation_xyz
x,y,z
-x,-y,1/2+z
x,-y,-z
-x,y,1/2-z
1/2+x,1/2+y,z
1/2-x,1/2-y,1/2+z
1/2+x,1/2-y,-z
1/2-x,1/2+y,1/2-z
loop_
_atom_site_type_symbol
_atom_site_label
_atom_site_fract_x
_atom_site_fract_y
_atom_site_fract_z
Si Si1 0.200556 0.311834 0.388919
Si Si2 0.501620 0.055045 0.462509
Si Si3 0.996473 0.108371 0.032341
Si Si4 0.000000 0.725852 0.250000
O O1 0.443951 0.342474 0.437561
O O2 0.282077 0.261191 0.313233
O O3 0.000000 0.331989 0.250000
O O4 0.071511 0.305101 0.581035
O O5 0.500000 0.060637 0.250000
O O6 0.767500 0.075740 0.521755
O O7 0.260191 0.083962 0.525592
O O8 0.477655 0.000000 0.500000
O O9 0.000000 0.113914 0.250000
#
# Coordination Sequence:
#
# PCOD9320325 Si02
#       4
#     8   8   8   4
#     4  12  28  47  74 109 149 202 254 312 383 451
#     4  10  22  45  71 106 145 194 243 306 375 446
#     4  10  25  43  75 105 148 196 246 311 373 447
#     4  12  28  48  72 106 150 196 254 316 374 452
#
# _framework density 24.636493000000002
#
# number of rings (size 3 to 8) (size 9 to 14) (size 15 to 20)
#    0.000    1.143    2.857    0.857   14.000    1.143 
#    0.000    0.000    0.000    0.000    0.000    0.000 
#    0.000    0.000    0.000    0.000    0.000    0.000 
#
# Total GULP energy -78507.069377 kJ/mol
# GULP energy per Si atom -5607.647813 kJ/mol
# Density = 2.458042 g / cm^3
# Si number density = 24.636493 Si / 1000 Ang^3
#
#
#
# Elastic Constant Matrix: (Units=GPa)
#
#
# Indices 1 2 3 4 5 6 
#
# 1 177.8247 60.2754 56.2269 0.0000 0.0000 0.0000
# 2 60.2754 100.3748 38.6821 0.0000 0.0000 0.0000
# 3 56.2269 38.6821 143.3392 0.0000 0.0000 0.0000
# 4 0.0000 0.0000 0.0000 27.7417 0.0000 0.0000
# 5 0.0000 0.0000 0.0000 0.0000 27.9381 0.0000
# 6 0.0000 0.0000 0.0000 0.0000 0.0000 100.9445
#
#
#
# Elastic Compliance Matrix: (Units=1/GPa)
#
#
# Indices 1 2 3 4 5 6 
#
# 1 0.007510 -0.003766 -0.001930 0.000000 0.000000 0.000000
# 2 -0.003766 0.013008 -0.002033 0.000000 0.000000 0.000000
# 3 -0.001930 -0.002033 0.008282 0.000000 0.000000 0.000000
# 4 0.000000 0.000000 0.000000 0.036047 0.000000 0.000000
# 5 0.000000 0.000000 0.000000 0.000000 0.035793 0.000000
# 6 0.000000 0.000000 0.000000 0.000000 0.000000 0.009906
#
#
# Mechanical properties :
#
#
# Convention : Reuss Voigt Hill
#
# Bulk Modulus (GPa) = 74.94953 81.32304 78.13629
# Shear Modulus (GPa) = 38.32829 49.08180 43.70504
#
# Velocity S-wave (km/s) = 3.94858 4.46829 4.21645
# Velocity P-wave (km/s) = 7.16077 7.72669 7.44910
#
# Compressibility (1/GPa) = 0.01334231
#
# Stress axis : x y z
#
# Youngs Moduli (GPa) = 133.15079 76.87697 120.74375
#
# Poissons Ratio (x) = 0.28954 0.23299
# Poissons Ratio (y) = 0.50149 0.24546
# Poissons Ratio (z) = 0.25693 0.15629
#
# Static dielectric constant tensor:
#      x y z
#    x 1.972980 0.000000 0.000000 
#    y 0.000000 1.939580 0.000000 
#    z 0.000000 0.000000 1.897700 
# 
# From -- ./inp_files/5046.got.cif
#   From: 2010.05.17/outbox.cif.g08.bks.cpg/sg20_3_cif.got.tgz:5046.got - 2010.06.03 22:52:26.
