data_PCOD9320476
_publ_section_title
;
Structure prediction by ZEFSAII (Michael W. Deem and Ramdas Pophale) SiO2 
 PCOD9320476
Probable space group: C 2 2 21
;
_chemical_formula_sum "Si O2"
_cell_formula_units_Z 36
_cell_length_a 4.795378
_cell_length_b 14.387813
_cell_length_c 19.627695
_cell_angle_alpha 90.000000
_cell_angle_beta 90.000000
_cell_angle_gamma 90.000000
_cell_volume 1354.212854
_symmetry_space_group_name_H-M "C 2 2 21"
_symmetry_group_IT_number 20
_symmetry_cell_setting 'orthorhombic'
loop_
_space_group_symop_operation_xyz
x,y,z
-x,-y,1/2+z
x,-y,-z
-x,y,1/2-z
1/2+x,1/2+y,z
1/2-x,1/2-y,1/2+z
1/2+x,1/2-y,-z
1/2-x,1/2+y,1/2-z
loop_
_atom_site_type_symbol
_atom_site_label
_atom_site_fract_x
_atom_site_fract_y
_atom_site_fract_z
Si Si1 0.233936 0.298899 0.463560
Si Si2 0.400053 0.689802 0.827862
Si Si3 0.157092 0.000000 0.000000
Si Si4 0.225650 0.008867 0.370878
Si Si5 0.786852 0.394460 0.813523
O O1 0.465270 0.261310 0.517359
O O2 0.365361 0.294163 0.387076
O O3 0.180039 0.407246 0.479021
O O4 0.500000 0.673173 0.750000
O O5 0.234144 0.598624 0.851079
O O6 0.232743 0.785810 0.823340
O O7 0.942653 0.980337 0.939368
O O8 0.512875 0.063558 0.371616
O O9 0.001552 0.052131 0.318252
O O10 0.000000 0.405287 0.750000
#
# Coordination Sequence:
#
# PCOD9320476 Si02
#       5
#     8   8   4   8   8
#     4  11  24  43  65  93 128 167 213 260 312 378
#     4  10  23  41  65  95 127 166 212 263 317 372
#     4  10  24  40  66  92 122 166 208 254 312 372
#     4  11  24  42  63  92 126 162 208 257 310 374
#     4  11  23  40  62  88 122 162 203 253 312 369
#
# _framework density 26.583711000000001
#
# number of rings (size 3 to 8) (size 9 to 14) (size 15 to 20)
#    0.000    1.333    0.000    4.667    0.000   10.667 
#    0.000    7.778    0.000    0.000    0.000    0.000 
#    0.000    0.000    0.000    0.000    0.000    0.000 
#
# Total GULP energy -100948.217350 kJ/mol
# GULP energy per Si atom -5608.234297 kJ/mol
# Density = 2.652321 g / cm^3
# Si number density = 26.583711 Si / 1000 Ang^3
#
#
#
# Elastic Constant Matrix: (Units=GPa)
#
#
# Indices 1 2 3 4 5 6 
#
# 1 99.2103 43.7157 24.4319 0.0000 0.0000 0.0000
# 2 43.7157 166.3175 -2.8602 0.0000 0.0000 0.0000
# 3 24.4319 -2.8602 162.5712 0.0000 0.0000 0.0000
# 4 0.0000 0.0000 0.0000 19.3038 0.0000 0.0000
# 5 0.0000 0.0000 0.0000 0.0000 26.9768 0.0000
# 6 0.0000 0.0000 0.0000 0.0000 0.0000 -44.2968
#
#
#
# Elastic Compliance Matrix: (Units=1/GPa)
#
#
# Indices 1 2 3 4 5 6 
#
# 1 0.011931 -0.003168 -0.001849 0.000000 0.000000 0.000000
# 2 -0.003168 0.006855 0.000597 0.000000 0.000000 0.000000
# 3 -0.001849 0.000597 0.006439 0.000000 0.000000 0.000000
# 4 0.000000 0.000000 0.000000 0.051803 0.000000 0.000000
# 5 0.000000 0.000000 0.000000 0.000000 0.037069 0.000000
# 6 0.000000 0.000000 0.000000 0.000000 0.000000 -0.022575
#
#
# Mechanical properties :
#
#
# Convention : Reuss Voigt Hill
#
# Bulk Modulus (GPa) = 61.02730 62.07484 61.55107
# Shear Modulus (GPa) = 47.24815 24.58421 35.91618
#
# Velocity S-wave (km/s) = 4.22042 3.04433 3.67966
# Velocity P-wave (km/s) = 6.83782 5.97985 6.42318
#
# Compressibility (1/GPa) = 0.01638611
#
# Stress axis : x y z
#
# Youngs Moduli (GPa) = 83.81748 145.86879 155.29192
#
# Poissons Ratio (x) = 0.46207 0.28709
# Poissons Ratio (y) = 0.26551 -0.09266
# Poissons Ratio (z) = 0.15496 -0.08704
#
# Static dielectric constant tensor:
#      x y z
#    x 1.985730 0.000000 0.000000 
#    y 0.000000 1.995860 0.000000 
#    z 0.000000 0.000000 1.941810 
# 
# From -- ./inp_files/25913.got.cif
#   From: 2010.05.17/outbox.cif.g08.bks.cpg/sg20_13_cif.got.tgz:25913.got - 2010.06.03 22:52:26.
