data_PCOD9320460
_publ_section_title
;
Structure prediction by ZEFSAII (Michael W. Deem and Ramdas Pophale) SiO2 
 PCOD9320460
Probable space group: C 2 2 21
;
_chemical_formula_sum "Si O2"
_cell_formula_units_Z 40
_cell_length_a 14.394756
_cell_length_b 7.623866
_cell_length_c 13.381214
_cell_angle_alpha 90.000000
_cell_angle_beta 90.000000
_cell_angle_gamma 90.000000
_cell_volume 1468.503812
_symmetry_space_group_name_H-M "C 2 2 21"
_symmetry_group_IT_number 20
_symmetry_cell_setting 'orthorhombic'
loop_
_space_group_symop_operation_xyz
x,y,z
-x,-y,1/2+z
x,-y,-z
-x,y,1/2-z
1/2+x,1/2+y,z
1/2-x,1/2-y,1/2+z
1/2+x,1/2-y,-z
1/2-x,1/2+y,1/2-z
loop_
_atom_site_type_symbol
_atom_site_label
_atom_site_fract_x
_atom_site_fract_y
_atom_site_fract_z
Si Si1 0.460455 0.653770 0.857657
Si Si2 0.701780 0.461238 0.242344
Si Si3 0.361151 0.170243 0.650964
Si Si4 0.244740 0.195871 0.958447
Si Si5 0.040660 0.762125 0.570594
O O1 0.500000 0.697533 0.750000
O O2 0.351557 0.631462 0.833438
O O3 0.488175 0.457416 0.893334
O O4 0.480242 0.768733 0.953670
O O5 0.659917 0.647940 0.211038
O O6 0.807254 0.469629 0.281225
O O7 0.691857 0.340924 0.144589
O O8 0.313303 0.198089 0.541477
O O9 0.470708 0.145188 0.634932
O O10 0.347767 0.259546 0.928934
O O11 0.259478 0.000000 0.000000
#
# Coordination Sequence:
#
# PCOD9320460 Si02
#       5
#     8   8   8   8   8
#     4  11  21  38  66  96 121 165 227 264 312 377
#     4  11  22  40  67  96 130 171 212 272 324 391
#     4  11  23  43  67  98 131 172 218 272 330 380
#     4  10  23  41  62  92 136 170 214 272 335 387
#     4  11  23  40  68  95 129 173 221 270 317 396
#
# _framework density 27.238610000000001
#
# number of rings (size 3 to 8) (size 9 to 14) (size 15 to 20)
#    0.000    1.200    4.000    2.400    5.600    0.000 
#    0.000    6.000    0.000    0.000    0.000    0.000 
#    0.000    0.000    0.000    0.000    0.000    0.000 
#
# Total GULP energy -111959.266438 kJ/mol
# GULP energy per Si atom -5597.963322 kJ/mol
# Density = 2.717661 g / cm^3
# Si number density = 27.238610 Si / 1000 Ang^3
#
#
#
# Elastic Constant Matrix: (Units=GPa)
#
#
# Indices 1 2 3 4 5 6 
#
# 1 97.6439 -13.4738 38.3575 0.0000 0.0000 0.0000
# 2 -13.4738 49.0090 17.3944 0.0000 0.0000 0.0000
# 3 38.3575 17.3944 186.9103 0.0000 0.0000 0.0000
# 4 0.0000 0.0000 0.0000 30.5324 0.0000 0.0000
# 5 0.0000 0.0000 0.0000 0.0000 65.7011 0.0000
# 6 0.0000 0.0000 0.0000 0.0000 0.0000 25.2847
#
#
#
# Elastic Compliance Matrix: (Units=1/GPa)
#
#
# Indices 1 2 3 4 5 6 
#
# 1 0.011956 0.004300 -0.002854 0.000000 0.000000 0.000000
# 2 0.004300 0.022648 -0.002990 0.000000 0.000000 0.000000
# 3 -0.002854 -0.002990 0.006214 0.000000 0.000000 0.000000
# 4 0.000000 0.000000 0.000000 0.032752 0.000000 0.000000
# 5 0.000000 0.000000 0.000000 0.000000 0.015220 0.000000
# 6 0.000000 0.000000 0.000000 0.000000 0.000000 0.039550
#
#
# Mechanical properties :
#
#
# Convention : Reuss Voigt Hill
#
# Bulk Modulus (GPa) = 26.50452 46.45772 36.48112
# Shear Modulus (GPa) = 34.72127 43.72266 39.22196
#
# Velocity S-wave (km/s) = 3.57418 4.01081 3.79877
# Velocity P-wave (km/s) = 5.17539 6.20819 5.71517
#
# Compressibility (1/GPa) = 0.03772941
#
# Stress axis : x y z
#
# Youngs Moduli (GPa) = 83.64272 44.15453 160.92579
#
# Poissons Ratio (x) = -0.18985 0.45923
# Poissons Ratio (y) = -0.35964 0.48118
# Poissons Ratio (z) = 0.23869 0.13202
#
# Static dielectric constant tensor:
#      x y z
#    x 2.222790 0.000000 0.000000 
#    y 0.000000 2.124290 0.000000 
#    z 0.000000 0.000000 2.080730 
# 
# From -- ./inp_files/13890.got.cif
#   From: 2010.05.17/outbox.cif.g08.bks.cpg/sg20_7_cif.got.tgz:13890.got - 2010.06.03 22:52:26.
