data_PCOD9320766
_publ_section_title
;
Structure prediction by ZEFSAII (Michael W. Deem and Ramdas Pophale) SiO2 
 PCOD9320766
Probable space group: C 2 2 21
;
_chemical_formula_sum "Si O2"
_cell_formula_units_Z 36
_cell_length_a 19.252479
_cell_length_b 9.853341
_cell_length_c 8.761159
_cell_angle_alpha 90.000000
_cell_angle_beta 90.000000
_cell_angle_gamma 90.000000
_cell_volume 1662.002732
_symmetry_space_group_name_H-M "C 2 2 21"
_symmetry_group_IT_number 20
_symmetry_cell_setting 'orthorhombic'
loop_
_space_group_symop_operation_xyz
x,y,z
-x,-y,1/2+z
x,-y,-z
-x,y,1/2-z
1/2+x,1/2+y,z
1/2-x,1/2-y,1/2+z
1/2+x,1/2-y,-z
1/2-x,1/2+y,1/2-z
loop_
_atom_site_type_symbol
_atom_site_label
_atom_site_fract_x
_atom_site_fract_y
_atom_site_fract_z
Si Si1 0.904871 0.474168 0.235672
Si Si2 0.490189 0.000000 0.500000
Si Si3 0.831611 0.215697 0.251157
Si Si4 0.923279 0.960294 0.178713
Si Si5 0.820835 0.717073 0.107807
O O1 0.957899 0.415042 0.107297
O O2 0.871510 0.346173 0.316683
O O3 0.852585 0.572248 0.151879
O O4 0.943427 0.560800 0.366913
O O5 0.879927 0.082969 0.257924
O O6 0.757163 0.211823 0.329814
O O7 0.819952 0.250387 0.072026
O O8 0.000000 0.940181 0.250000
O O9 0.871915 0.830368 0.180778
O O10 0.932259 0.000000 0.000000
#
# Coordination Sequence:
#
# PCOD9320766 Si02
#       5
#     8   4   8   8   8
#     4  11  23  41  66  90 122 159 214 252 309 371
#     4  10  24  38  64  94 122 154 206 268 308 352
#     4  11  24  42  63  92 127 165 207 255 308 374
#     4  10  25  41  62  93 129 159 203 258 312 364
#     4  11  24  42  63  92 127 165 207 255 308 374
#
# _framework density 21.660613999999999
#
# number of rings (size 3 to 8) (size 9 to 14) (size 15 to 20)
#    0.000    1.333    2.222    1.333    9.333    1.778 
#    0.000    0.000    0.000    0.000    0.000    0.000 
#    0.000    0.000    0.000    0.000    0.000    0.000 
#
# Total GULP energy -100386.932055 kJ/mol
# GULP energy per Si atom -5577.051781 kJ/mol
# Density = 2.161131 g / cm^3
# Si number density = 21.660614 Si / 1000 Ang^3
#
#
#
# Elastic Constant Matrix: (Units=GPa)
#
#
# Indices 1 2 3 4 5 6 
#
# 1 138.6095 26.0852 39.4579 0.0000 0.0000 0.0000
# 2 26.0852 83.4735 -4.5739 0.0000 0.0000 0.0000
# 3 39.4579 -4.5739 57.0696 0.0000 0.0000 0.0000
# 4 0.0000 0.0000 0.0000 16.5054 0.0000 0.0000
# 5 0.0000 0.0000 0.0000 0.0000 28.4678 0.0000
# 6 0.0000 0.0000 0.0000 0.0000 0.0000 12.5636
#
#
#
# Elastic Compliance Matrix: (Units=1/GPa)
#
#
# Indices 1 2 3 4 5 6 
#
# 1 0.009898 -0.003483 -0.007122 0.000000 0.000000 0.000000
# 2 -0.003483 0.013259 0.003471 0.000000 0.000000 0.000000
# 3 -0.007122 0.003471 0.022725 0.000000 0.000000 0.000000
# 4 0.000000 0.000000 0.000000 0.060586 0.000000 0.000000
# 5 0.000000 0.000000 0.000000 0.000000 0.035127 0.000000
# 6 0.000000 0.000000 0.000000 0.000000 0.000000 0.079595
#
#
# Mechanical properties :
#
#
# Convention : Reuss Voigt Hill
#
# Bulk Modulus (GPa) = 31.63372 44.56568 38.09970
# Shear Modulus (GPa) = 20.32551 26.05291 23.18921
#
# Velocity S-wave (km/s) = 3.06659 3.47187 3.27551
# Velocity P-wave (km/s) = 5.21293 6.05731 5.65091
#
# Compressibility (1/GPa) = 0.03161184
#
# Stress axis : x y z
#
# Youngs Moduli (GPa) = 101.03524 75.42313 44.00434
#
# Poissons Ratio (x) = 0.26271 0.31341
# Poissons Ratio (y) = 0.35193 -0.15274
# Poissons Ratio (z) = 0.71961 -0.26179
#
# Static dielectric constant tensor:
#      x y z
#    x 0.449150 0.000000 0.000000 
#    y 0.000000 1.776250 0.000000 
#    z 0.000000 0.000000 1.795870 
# 
# From -- ./inp_files/9861.got.cif
#   From: 2010.05.17/outbox.cif.g08.bks.cpg/sg20_5_cif.got.tgz:9861.got - 2010.06.03 22:52:26.
