data_PCOD9320502
_publ_section_title
;
Structure prediction by ZEFSAII (Michael W. Deem and Ramdas Pophale) SiO2 
 PCOD9320502
Probable space group: C 2 2 21
;
_chemical_formula_sum "Si O2"
_cell_formula_units_Z 60
_cell_length_a 5.039794
_cell_length_b 23.133326
_cell_length_c 20.950688
_cell_angle_alpha 90.000000
_cell_angle_beta 90.000000
_cell_angle_gamma 90.000000
_cell_volume 2442.582001
_symmetry_space_group_name_H-M "C 2 2 21"
_symmetry_group_IT_number 20
_symmetry_cell_setting 'orthorhombic'
loop_
_space_group_symop_operation_xyz
x,y,z
-x,-y,1/2+z
x,-y,-z
-x,y,1/2-z
1/2+x,1/2+y,z
1/2-x,1/2-y,1/2+z
1/2+x,1/2-y,-z
1/2-x,1/2+y,1/2-z
loop_
_atom_site_type_symbol
_atom_site_label
_atom_site_fract_x
_atom_site_fract_y
_atom_site_fract_z
Si Si1 0.071802 0.994038 0.180206
Si Si2 0.629166 0.193979 0.599538
Si Si3 0.758078 0.348773 0.960992
Si Si4 0.525501 0.933330 0.142908
Si Si5 0.000000 0.186926 0.250000
Si Si6 0.887862 0.893023 0.866267
Si Si7 0.129716 0.263055 0.642377
Si Si8 0.506464 0.967596 0.943227
O O1 0.828309 0.954321 0.152143
O O2 0.000000 0.016585 0.250000
O O3 0.318601 0.952409 0.196245
O O4 0.108576 0.056805 0.146097
O O5 0.725653 0.185549 0.526758
O O6 0.526820 0.132496 0.626018
O O7 0.366924 0.232379 0.603551
O O8 0.867347 0.223451 0.640259
O O9 0.471835 0.356892 0.928601
O O10 0.919183 0.319264 0.902239
O O11 0.851947 0.414204 0.973829
O O12 0.386648 0.975567 0.089693
O O13 0.866163 0.147405 0.195095
O O14 0.772347 0.221181 0.290140
O O15 0.658842 0.935666 0.886806
O O16 0.671842 0.000000 0.000000
#
# Coordination Sequence:
#
# PCOD9320502 Si02
#       8
#     8   8   8   8   4   8   8   8
#     4  11  22  43  67 104 146 189 242 298 363 451
#     4  12  26  49  73 107 151 199 254 306 378 454
#     4  11  24  43  74 106 152 188 253 310 384 445
#     4  11  24  43  70 104 147 195 243 295 381 447
#     4  10  24  54  74 112 148 198 268 326 366 454
#     4  10  23  41  74 110 149 198 239 313 387 439
#     4  11  28  48  76 108 143 200 256 317 371 431
#     4  11  23  41  70 115 152 191 242 308 388 462
#
# _framework density 24.564171000000002
#
# number of rings (size 3 to 8) (size 9 to 14) (size 15 to 20)
#    0.000    1.067    3.333    2.000    5.600    3.200 
#    7.200    0.000    0.000    0.000    0.000    0.000 
#    0.000    0.000    0.000    0.000    0.000    0.000 
#
# Total GULP energy -167191.309763 kJ/mol
# GULP energy per Si atom -5573.043659 kJ/mol
# Density = 2.450826 g / cm^3
# Si number density = 24.564171 Si / 1000 Ang^3
#
#
#
# Elastic Constant Matrix: (Units=GPa)
#
#
# Indices 1 2 3 4 5 6 
#
# 1 121.2320 44.3158 25.6434 0.0000 0.0000 0.0000
# 2 44.3158 138.2399 35.5087 0.0000 0.0000 0.0000
# 3 25.6434 35.5087 85.6316 0.0000 0.0000 0.0000
# 4 0.0000 0.0000 0.0000 72.7497 0.0000 0.0000
# 5 0.0000 0.0000 0.0000 0.0000 19.6523 0.0000
# 6 0.0000 0.0000 0.0000 0.0000 0.0000 31.6194
#
#
#
# Elastic Compliance Matrix: (Units=1/GPa)
#
#
# Indices 1 2 3 4 5 6 
#
# 1 0.009582 -0.002613 -0.001786 0.000000 0.000000 0.000000
# 2 -0.002613 0.008809 -0.002870 0.000000 0.000000 0.000000
# 3 -0.001786 -0.002870 0.013403 0.000000 0.000000 0.000000
# 4 0.000000 0.000000 0.000000 0.013746 0.000000 0.000000
# 5 0.000000 0.000000 0.000000 0.000000 0.050885 0.000000
# 6 0.000000 0.000000 0.000000 0.000000 0.000000 0.031626
#
#
# Mechanical properties :
#
#
# Convention : Reuss Voigt Hill
#
# Bulk Modulus (GPa) = 57.95332 61.78217 59.86774
# Shear Modulus (GPa) = 33.70656 40.78000 37.24328
#
# Velocity S-wave (km/s) = 3.70832 4.07890 3.89802
# Velocity P-wave (km/s) = 6.47915 6.88398 6.68463
#
# Compressibility (1/GPa) = 0.01725527
#
# Stress axis : x y z
#
# Youngs Moduli (GPa) = 104.36775 113.52470 74.61067
#
# Poissons Ratio (x) = 0.29662 0.13324
# Poissons Ratio (y) = 0.27270 0.21415
# Poissons Ratio (z) = 0.18638 0.32584
#
# Static dielectric constant tensor:
#      x y z
#    x 2.054590 0.000000 0.000000 
#    y 0.000000 1.987930 0.000000 
#    z 0.000000 0.000000 2.827250 
# 
# From -- ./inp_files/28454.got.cif
#   From: 2010.05.17/outbox.cif.g08.bks.cpg/sg20_15_cif.got.tgz:28454.got - 2010.06.03 22:52:26.
