data_PCOD9320802
_publ_section_title
;
Structure prediction by ZEFSAII (Michael W. Deem and Ramdas Pophale) SiO2 
 PCOD9320802
Probable space group: C 2 2 21
;
_chemical_formula_sum "Si O2"
_cell_formula_units_Z 48
_cell_length_a 14.468839
_cell_length_b 9.350711
_cell_length_c 17.587505
_cell_angle_alpha 90.000000
_cell_angle_beta 90.000000
_cell_angle_gamma 90.000000
_cell_volume 2379.482705
_symmetry_space_group_name_H-M "C 2 2 21"
_symmetry_group_IT_number 20
_symmetry_cell_setting 'orthorhombic'
loop_
_space_group_symop_operation_xyz
x,y,z
-x,-y,1/2+z
x,-y,-z
-x,y,1/2-z
1/2+x,1/2+y,z
1/2-x,1/2-y,1/2+z
1/2+x,1/2-y,-z
1/2-x,1/2+y,1/2-z
loop_
_atom_site_type_symbol
_atom_site_label
_atom_site_fract_x
_atom_site_fract_y
_atom_site_fract_z
Si Si1 0.210360 0.687517 0.896058
Si Si2 0.553046 0.830177 0.988194
Si Si3 0.101495 0.852229 0.779277
Si Si4 0.968583 0.050199 0.584781
Si Si5 0.327518 0.420635 0.884197
Si Si6 0.838033 0.667650 0.996138
O O1 0.164348 0.731639 0.817493
O O2 0.242268 0.524928 0.898672
O O3 0.300408 0.772884 0.923921
O O4 0.132264 0.725953 0.956861
O O5 0.550482 0.721890 0.915840
O O6 0.447510 0.814820 0.014697
O O7 0.566724 0.000000 0.000000
O O8 0.155276 0.903789 0.705096
O O9 0.000000 0.803133 0.750000
O O10 0.081354 0.971639 0.844517
O O11 0.939024 0.000000 0.500000
O O12 0.076403 0.998009 0.589024
O O13 0.304920 0.273899 0.929047
O O14 0.814928 0.500000 0.000000
#
# Coordination Sequence:
#
# PCOD9320802 Si02
#       6
#     8   8   8   8   8   8
#     4  12  23  42  67 100 129 184 227 283 353 409
#     4  11  22  38  64 100 134 169 229 292 341 398
#     4  10  24  41  68  95 138 190 226 283 366 420
#     4  11  18  41  71  95 129 178 234 283 343 423
#     4  11  22  44  66  97 140 177 226 292 356 419
#     4  11  24  40  69 102 132 172 234 292 335 416
#
# _framework density 20.172452
#
# number of rings (size 3 to 8) (size 9 to 14) (size 15 to 20)
#    0.000    1.000    5.000    2.500    2.333    1.333 
#    3.000    0.000    0.000    0.000    0.000    0.000 
#    0.000    0.000    0.000    0.000    0.000    0.000 
#
# Total GULP energy -133605.762986 kJ/mol
# GULP energy per Si atom -5566.906791 kJ/mol
# Density = 2.012654 g / cm^3
# Si number density = 20.172452 Si / 1000 Ang^3
#
#
#
# Elastic Constant Matrix: (Units=GPa)
#
#
# Indices 1 2 3 4 5 6 
#
# 1 74.6202 44.2256 44.9880 0.0000 0.0000 0.0000
# 2 44.2256 147.7936 48.6822 0.0000 0.0000 0.0000
# 3 44.9880 48.6822 105.9953 0.0000 0.0000 0.0000
# 4 0.0000 0.0000 0.0000 17.1108 0.0000 0.0000
# 5 0.0000 0.0000 0.0000 0.0000 35.7191 0.0000
# 6 0.0000 0.0000 0.0000 0.0000 0.0000 24.0193
#
#
#
# Elastic Compliance Matrix: (Units=1/GPa)
#
#
# Indices 1 2 3 4 5 6 
#
# 1 0.019570 -0.003676 -0.006618 0.000000 0.000000 0.000000
# 2 -0.003676 0.008663 -0.002418 0.000000 0.000000 0.000000
# 3 -0.006618 -0.002418 0.013354 0.000000 0.000000 0.000000
# 4 0.000000 0.000000 0.000000 0.058443 0.000000 0.000000
# 5 0.000000 0.000000 0.000000 0.000000 0.027996 0.000000
# 6 0.000000 0.000000 0.000000 0.000000 0.000000 0.041633
#
#
# Mechanical properties :
#
#
# Convention : Reuss Voigt Hill
#
# Bulk Modulus (GPa) = 61.87378 67.13342 64.50360
# Shear Modulus (GPa) = 24.94137 28.07075 26.50606
#
# Velocity S-wave (km/s) = 3.52007 3.73438 3.62881
# Velocity P-wave (km/s) = 6.87461 7.20737 7.04295
#
# Compressibility (1/GPa) = 0.01616194
#
# Stress axis : x y z
#
# Youngs Moduli (GPa) = 51.09939 115.43513 74.88472
#
# Poissons Ratio (x) = 0.42437 0.49556
# Poissons Ratio (y) = 0.18785 0.18110
# Poissons Ratio (z) = 0.33816 0.27917
#
# Static dielectric constant tensor:
#      x y z
#    x 1.723780 0.000000 0.000000 
#    y 0.000000 1.813840 0.000000 
#    z 0.000000 0.000000 1.741320 
# 
# From -- ./inp_files/24825.got.cif
#   From: 2010.05.17/outbox.cif.g08.bks.cpg/sg20_13_cif.got.tgz:24825.got - 2010.06.03 22:52:26.
