data_PCOD9320700
_publ_section_title
;
Structure prediction by ZEFSAII (Michael W. Deem and Ramdas Pophale) SiO2 
 PCOD9320700
Probable space group: C 2 2 21
;
_chemical_formula_sum "Si O2"
_cell_formula_units_Z 40
_cell_length_a 8.844426
_cell_length_b 22.943703
_cell_length_c 8.059148
_cell_angle_alpha 90.000000
_cell_angle_beta 90.000000
_cell_angle_gamma 90.000000
_cell_volume 1635.393609
_symmetry_space_group_name_H-M "C 2 2 21"
_symmetry_group_IT_number 20
_symmetry_cell_setting 'orthorhombic'
loop_
_space_group_symop_operation_xyz
x,y,z
-x,-y,1/2+z
x,-y,-z
-x,y,1/2-z
1/2+x,1/2+y,z
1/2-x,1/2-y,1/2+z
1/2+x,1/2-y,-z
1/2-x,1/2+y,1/2-z
loop_
_atom_site_type_symbol
_atom_site_label
_atom_site_fract_x
_atom_site_fract_y
_atom_site_fract_z
Si Si1 0.676117 0.929431 0.114911
Si Si2 0.906830 0.384862 0.922245
Si Si3 0.821674 0.043926 0.231975
Si Si4 0.126524 0.737431 0.607810
Si Si5 0.846276 0.821003 0.185533
O O1 0.715239 0.868211 0.195862
O O2 0.726336 0.983780 0.225027
O O3 0.506569 0.925308 0.045674
O O4 0.783560 0.931262 0.951143
O O5 0.747639 0.413840 0.871978
O O6 0.000000 0.383354 0.750000
O O7 0.897803 0.319943 0.995165
O O8 0.000000 0.034498 0.250000
O O9 0.129605 0.793960 0.493707
O O10 0.289674 0.730349 0.694390
O O11 0.000000 0.741637 0.750000
O O12 0.000000 0.847988 0.250000
#
# Coordination Sequence:
#
# PCOD9320700 Si02
#       5
#     8   8   8   8   8
#     4  10  23  48  67 107 145 193 249 303 378 463
#     4  10  23  48  75 103 150 201 249 308 377 461
#     4  10  23  45  74 106 148 189 251 315 375 446
#     4  12  26  48  72 109 147 195 254 308 380 464
#     4  12  27  44  74 105 149 193 246 315 382 446
#
# _framework density 24.458942
#
# number of rings (size 3 to 8) (size 9 to 14) (size 15 to 20)
#    0.000    1.200    2.000    2.400    8.400    0.800 
#   21.600    0.000    0.000    0.000    0.000    0.000 
#    0.000    0.000    0.000    0.000    0.000    0.000 
#
# Total GULP energy -112061.388069 kJ/mol
# GULP energy per Si atom -5603.069403 kJ/mol
# Density = 2.440327 g / cm^3
# Si number density = 24.458942 Si / 1000 Ang^3
#
#
#
# Elastic Constant Matrix: (Units=GPa)
#
#
# Indices 1 2 3 4 5 6 
#
# 1 103.4809 12.8275 26.3479 0.0000 0.0000 0.0000
# 2 12.8275 100.6627 29.9489 0.0000 0.0000 0.0000
# 3 26.3479 29.9489 58.5914 0.0000 0.0000 0.0000
# 4 0.0000 0.0000 0.0000 38.0013 0.0000 0.0000
# 5 0.0000 0.0000 0.0000 0.0000 38.9612 0.0000
# 6 0.0000 0.0000 0.0000 0.0000 0.0000 16.2847
#
#
#
# Elastic Compliance Matrix: (Units=1/GPa)
#
#
# Indices 1 2 3 4 5 6 
#
# 1 0.010914 0.000082 -0.004950 0.000000 0.000000 0.000000
# 2 0.000082 0.011716 -0.006026 0.000000 0.000000 0.000000
# 3 -0.004950 -0.006026 0.022373 0.000000 0.000000 0.000000
# 4 0.000000 0.000000 0.000000 0.026315 0.000000 0.000000
# 5 0.000000 0.000000 0.000000 0.000000 0.025667 0.000000
# 6 0.000000 0.000000 0.000000 0.000000 0.000000 0.061408
#
#
# Mechanical properties :
#
#
# Convention : Reuss Voigt Hill
#
# Bulk Modulus (GPa) = 43.07285 44.55374 43.81330
# Shear Modulus (GPa) = 26.60735 31.55681 29.08208
#
# Velocity S-wave (km/s) = 3.30182 3.59583 3.45195
# Velocity P-wave (km/s) = 5.67314 5.95779 5.81720
#
# Compressibility (1/GPa) = 0.02321648
#
# Stress axis : x y z
#
# Youngs Moduli (GPa) = 91.62768 85.34987 44.69643
#
# Poissons Ratio (x) = -0.00699 0.22123
# Poissons Ratio (y) = -0.00750 0.26933
# Poissons Ratio (z) = 0.45352 0.51429
#
# Static dielectric constant tensor:
#      x y z
#    x 1.924530 0.000000 0.000000 
#    y 0.000000 1.931080 0.000000 
#    z 0.000000 0.000000 2.008600 
# 
# From -- ./inp_files/6057.got.cif
#   From: 2010.05.17/outbox.cif.g08.bks.cpg/sg20_4_cif.got.tgz:6057.got - 2010.06.03 22:52:26.
