data_PCOD9320189
_publ_section_title
;
Structure prediction by ZEFSAII (Michael W. Deem and Ramdas Pophale) SiO2 
 PCOD9320189
Probable space group: C 2 2 21
;
_chemical_formula_sum "Si O2"
_cell_formula_units_Z 48
_cell_length_a 8.235298
_cell_length_b 12.654007
_cell_length_c 23.888401
_cell_angle_alpha 90.000000
_cell_angle_beta 90.000000
_cell_angle_gamma 90.000000
_cell_volume 2489.398767
_symmetry_space_group_name_H-M "C 2 2 21"
_symmetry_group_IT_number 20
_symmetry_cell_setting 'orthorhombic'
loop_
_space_group_symop_operation_xyz
x,y,z
-x,-y,1/2+z
x,-y,-z
-x,y,1/2-z
1/2+x,1/2+y,z
1/2-x,1/2-y,1/2+z
1/2+x,1/2-y,-z
1/2-x,1/2+y,1/2-z
loop_
_atom_site_type_symbol
_atom_site_label
_atom_site_fract_x
_atom_site_fract_y
_atom_site_fract_z
Si Si1 0.798721 0.000000 0.000000
Si Si2 0.124115 0.215376 0.846274
Si Si3 0.500000 0.158432 0.250000
Si Si4 0.498255 0.509406 0.385403
Si Si5 0.420185 0.197699 0.468138
Si Si6 0.782061 0.889276 0.533595
Si Si7 0.342454 0.639420 0.211365
O O1 0.688309 0.103664 0.007216
O O2 0.903503 0.988870 0.056863
O O3 0.132408 0.275305 0.905183
O O4 0.288599 0.245849 0.813109
O O5 0.990469 0.267845 0.805245
O O6 0.079299 0.096093 0.859845
O O7 0.673863 0.101875 0.241192
O O8 0.353034 0.585708 0.405468
O O9 0.612813 0.564100 0.340173
O O10 0.604960 0.160615 0.466768
O O11 0.397620 0.303988 0.503892
O O12 0.774855 0.000000 0.500000
O O13 0.500000 0.643867 0.250000
#
# Coordination Sequence:
#
# PCOD9320189 Si02
#       7
#     4   8   4   8   8   8   8
#     4  12  22  44  68 110 136 186 234 278 370 424
#     4  10  22  43  69  96 140 175 235 291 342 412
#     4   8  22  44  64  96 134 172 236 292 332 412
#     4  12  23  42  73 102 137 184 228 290 356 419
#     4  12  24  43  68  99 149 180 227 294 344 429
#     4  12  25  41  66 102 140 183 227 275 352 421
#     4  10  24  43  73  96 138 187 231 288 360 408
#
# _framework density 19.281763999999999
#
# number of rings (size 3 to 8) (size 9 to 14) (size 15 to 20)
#    1.000    0.000    5.000    2.000    3.500    0.000 
#    0.000    0.000    7.333    0.000    0.000    0.000 
#    0.000    0.000    0.000    0.000    0.000    0.000 
#
# Total GULP energy -133839.517545 kJ/mol
# GULP energy per Si atom -5576.646564 kJ/mol
# Density = 1.923788 g / cm^3
# Si number density = 19.281764 Si / 1000 Ang^3
#
#
#
# Elastic Constant Matrix: (Units=GPa)
#
#
# Indices 1 2 3 4 5 6 
#
# 1 151.8070 49.0082 49.9635 0.0000 0.0000 0.0000
# 2 49.0082 97.1727 35.0097 0.0000 0.0000 0.0000
# 3 49.9635 35.0097 98.9634 0.0000 0.0000 0.0000
# 4 0.0000 0.0000 0.0000 10.6420 0.0000 0.0000
# 5 0.0000 0.0000 0.0000 0.0000 33.9223 0.0000
# 6 0.0000 0.0000 0.0000 0.0000 0.0000 36.7550
#
#
#
# Elastic Compliance Matrix: (Units=1/GPa)
#
#
# Indices 1 2 3 4 5 6 
#
# 1 0.008695 -0.003213 -0.003253 0.000000 0.000000 0.000000
# 2 -0.003213 0.012982 -0.002970 0.000000 0.000000 0.000000
# 3 -0.003253 -0.002970 0.012798 0.000000 0.000000 0.000000
# 4 0.000000 0.000000 0.000000 0.093967 0.000000 0.000000
# 5 0.000000 0.000000 0.000000 0.000000 0.029479 0.000000
# 6 0.000000 0.000000 0.000000 0.000000 0.000000 0.027207
#
#
# Mechanical properties :
#
#
# Convention : Reuss Voigt Hill
#
# Bulk Modulus (GPa) = 64.09633 68.43399 66.26516
# Shear Modulus (GPa) = 23.90027 30.52798 27.21412
#
# Velocity S-wave (km/s) = 3.52451 3.98333 3.76093
# Velocity P-wave (km/s) = 7.06237 7.53157 7.30074
#
# Compressibility (1/GPa) = 0.01560152
#
# Stress axis : x y z
#
# Youngs Moduli (GPa) = 115.00305 77.03169 78.13755
#
# Poissons Ratio (x) = 0.24753 0.25420
# Poissons Ratio (y) = 0.36955 0.23208
# Poissons Ratio (z) = 0.37414 0.22879
#
# Static dielectric constant tensor:
#      x y z
#    x 1.697200 0.000000 0.000000 
#    y 0.000000 1.664580 0.000000 
#    z 0.000000 0.000000 1.677000 
# 
# From -- ./inp_files/28761.got.cif
#   From: 2010.05.17/outbox.cif.g08.bks.cpg/sg20_15_cif.got.tgz:28761.got - 2010.06.03 22:52:26.
