data_PCOD9320209
_publ_section_title
;
Structure prediction by ZEFSAII (Michael W. Deem and Ramdas Pophale) SiO2 
 PCOD9320209
Probable space group: C 2 2 21
;
_chemical_formula_sum "Si O2"
_cell_formula_units_Z 48
_cell_length_a 13.347872
_cell_length_b 5.283235
_cell_length_c 30.174817
_cell_angle_alpha 90.000000
_cell_angle_beta 90.000000
_cell_angle_gamma 90.000000
_cell_volume 2127.926421
_symmetry_space_group_name_H-M "C 2 2 21"
_symmetry_group_IT_number 20
_symmetry_cell_setting 'orthorhombic'
loop_
_space_group_symop_operation_xyz
x,y,z
-x,-y,1/2+z
x,-y,-z
-x,y,1/2-z
1/2+x,1/2+y,z
1/2-x,1/2-y,1/2+z
1/2+x,1/2-y,-z
1/2-x,1/2+y,1/2-z
loop_
_atom_site_type_symbol
_atom_site_label
_atom_site_fract_x
_atom_site_fract_y
_atom_site_fract_z
Si Si1 0.500000 0.206131 0.250000
Si Si2 0.571430 0.627263 0.453929
Si Si3 0.887696 0.466189 0.332652
Si Si4 0.417459 0.000000 0.500000
Si Si5 0.766258 0.127736 0.546475
Si Si6 0.289896 0.427072 0.225784
Si Si7 0.919901 0.023578 0.612664
O O1 0.448356 0.037542 0.288048
O O2 0.408294 0.368616 0.228782
O O3 0.605466 0.500000 0.500000
O O4 0.667114 0.757703 0.433040
O O5 0.516169 0.450182 0.419072
O O6 0.488180 0.824646 0.470410
O O7 0.770590 0.424921 0.320368
O O8 0.898394 0.713625 0.363134
O O9 0.930651 0.211995 0.354385
O O10 0.346762 0.163978 0.468542
O O11 0.825546 0.957269 0.580946
O O12 0.736922 0.000000 0.500000
O O13 0.263540 0.698461 0.247068
#
# Coordination Sequence:
#
# PCOD9320209 Si02
#       7
#     4   8   8   4   8   8   8
#     4  10  24  48  78 100 138 188 240 288 360 434
#     4  12  25  41  71 100 136 196 246 282 349 423
#     4  11  26  44  72 104 141 185 230 292 363 422
#     4  12  20  44  66  94 136 178 248 290 338 408
#     4  12  25  41  70  95 135 194 234 291 352 414
#     4  10  22  43  72 103 133 176 233 279 341 425
#     4  12  26  45  66 106 150 178 231 305 347 413
#
# _framework density 22.557171
#
# number of rings (size 3 to 8) (size 9 to 14) (size 15 to 20)
#    0.000    0.667    5.000    3.000    0.000    8.667 
#    0.000    0.000    0.000    0.000    0.000    0.000 
#    0.000    0.000    0.000    0.000    0.000    0.000 
#
# Total GULP energy -134266.472654 kJ/mol
# GULP energy per Si atom -5594.436361 kJ/mol
# Density = 2.250583 g / cm^3
# Si number density = 22.557171 Si / 1000 Ang^3
#
#
#
# Elastic Constant Matrix: (Units=GPa)
#
#
# Indices 1 2 3 4 5 6 
#
# 1 131.6908 -9.5572 12.6847 0.0000 0.0000 0.0000
# 2 -9.5572 41.3316 -2.6624 0.0000 0.0000 0.0000
# 3 12.6847 -2.6624 75.3805 0.0000 0.0000 0.0000
# 4 0.0000 0.0000 0.0000 46.4666 0.0000 0.0000
# 5 0.0000 0.0000 0.0000 0.0000 1098.2126 0.0000
# 6 0.0000 0.0000 0.0000 0.0000 0.0000 44.0915
#
#
#
# Elastic Compliance Matrix: (Units=1/GPa)
#
#
# Indices 1 2 3 4 5 6 
#
# 1 0.007840 0.001732 -0.001258 0.000000 0.000000 0.000000
# 2 0.001732 0.024632 0.000579 0.000000 0.000000 0.000000
# 3 -0.001258 0.000579 0.013498 0.000000 0.000000 0.000000
# 4 0.000000 0.000000 0.000000 0.021521 0.000000 0.000000
# 5 0.000000 0.000000 0.000000 0.000000 0.000911 0.000000
# 6 0.000000 0.000000 0.000000 0.000000 0.000000 0.022680
#
#
# Mechanical properties :
#
#
# Convention : Reuss Voigt Hill
#
# Bulk Modulus (GPa) = 20.80063 27.70369 24.25216
# Shear Modulus (GPa) = 47.61770 254.28334 150.95052
#
# Velocity S-wave (km/s) = 4.59952 10.62888 8.18928
# Velocity P-wave (km/s) = 6.11954 12.76476 10.00969
#
# Compressibility (1/GPa) = 0.04807546
#
# Stress axis : x y z
#
# Youngs Moduli (GPa) = 127.54404 40.59712 74.08401
#
# Poissons Ratio (x) = -0.07031 0.09321
# Poissons Ratio (y) = -0.22090 -0.04286
# Poissons Ratio (z) = 0.16047 -0.02349
#
# Static dielectric constant tensor:
#      x y z
#    x 1.798880 0.000000 0.000000 
#    y 0.000000 1.134150 0.000000 
#    z 0.000000 0.000000 1.872240 
# 
# From -- ./inp_files/31269.got.cif
#   From: 2010.05.17/outbox.cif.g08.bks.cpg/sg20_16_cif.got.tgz:31269.got - 2010.06.03 22:52:26.
