data_PCOD9320692
_publ_section_title
;
Structure prediction by ZEFSAII (Michael W. Deem and Ramdas Pophale) SiO2 
 PCOD9320692
Probable space group: C 2 2 21
;
_chemical_formula_sum "Si O2"
_cell_formula_units_Z 32
_cell_length_a 9.036247
_cell_length_b 6.910796
_cell_length_c 20.939294
_cell_angle_alpha 90.000000
_cell_angle_beta 90.000000
_cell_angle_gamma 90.000000
_cell_volume 1307.609904
_symmetry_space_group_name_H-M "C 2 2 21"
_symmetry_group_IT_number 20
_symmetry_cell_setting 'orthorhombic'
loop_
_space_group_symop_operation_xyz
x,y,z
-x,-y,1/2+z
x,-y,-z
-x,y,1/2-z
1/2+x,1/2+y,z
1/2-x,1/2-y,1/2+z
1/2+x,1/2-y,-z
1/2-x,1/2+y,1/2-z
loop_
_atom_site_type_symbol
_atom_site_label
_atom_site_fract_x
_atom_site_fract_y
_atom_site_fract_z
Si Si1 0.514204 0.272462 0.080801
Si Si2 0.410919 0.885950 0.347460
Si Si3 0.599170 0.466782 0.690930
Si Si4 0.225334 0.274204 0.019980
O O1 0.452469 0.438844 0.124993
O O2 0.396033 0.225755 0.026445
O O3 0.531116 0.086634 0.124738
O O4 0.657827 0.330834 0.041312
O O5 0.542821 0.756341 0.317488
O O6 0.345269 0.769252 0.409106
O O7 0.269360 0.957948 0.304271
O O8 0.500000 0.540568 0.750000
O O9 0.212520 0.500000 0.000000
#
# Coordination Sequence:
#
# PCOD9320692 Si02
#       4
#     8   8   8   8
#     4  10  23  45  73 103 149 192 240 316 384 454
#     4  10  25  46  69 106 144 189 248 306 379 447
#     4  11  27  48  72 105 148 198 260 309 372 449
#     4   9  21  42  65 106 139 180 238 303 382 453
#
# _framework density 24.47213
#
# number of rings (size 3 to 8) (size 9 to 14) (size 15 to 20)
#    0.000    2.000    0.000    0.000   14.000    5.000 
#   18.000    0.000    0.000    0.000    0.000    0.000 
#    0.000    0.000    0.000    0.000    0.000    0.000 
#
# Total GULP energy -89329.048794 kJ/mol
# GULP energy per Si atom -5583.065550 kJ/mol
# Density = 2.441643 g / cm^3
# Si number density = 24.472130 Si / 1000 Ang^3
#
#
#
# Elastic Constant Matrix: (Units=GPa)
#
#
# Indices 1 2 3 4 5 6 
#
# 1 83.7925 33.1604 26.1690 0.0000 0.0000 0.0000
# 2 33.1604 87.6815 7.9180 0.0000 0.0000 0.0000
# 3 26.1690 7.9180 61.2132 0.0000 0.0000 0.0000
# 4 0.0000 0.0000 0.0000 24.9800 0.0000 0.0000
# 5 0.0000 0.0000 0.0000 0.0000 47.6295 0.0000
# 6 0.0000 0.0000 0.0000 0.0000 0.0000 19.2427
#
#
#
# Elastic Compliance Matrix: (Units=1/GPa)
#
#
# Indices 1 2 3 4 5 6 
#
# 1 0.016032 -0.005509 -0.006141 0.000000 0.000000 0.000000
# 2 -0.005509 0.013432 0.000617 0.000000 0.000000 0.000000
# 3 -0.006141 0.000617 0.018882 0.000000 0.000000 0.000000
# 4 0.000000 0.000000 0.000000 0.040032 0.000000 0.000000
# 5 0.000000 0.000000 0.000000 0.000000 0.020995 0.000000
# 6 0.000000 0.000000 0.000000 0.000000 0.000000 0.051968
#
#
# Mechanical properties :
#
#
# Convention : Reuss Voigt Hill
#
# Bulk Modulus (GPa) = 38.04942 40.79802 39.42372
# Shear Modulus (GPa) = 26.01898 29.39975 27.70936
#
# Velocity S-wave (km/s) = 3.26423 3.46982 3.36859
# Velocity P-wave (km/s) = 5.45790 5.72366 5.59236
#
# Compressibility (1/GPa) = 0.02628161
#
# Stress axis : x y z
#
# Youngs Moduli (GPa) = 62.37428 74.44640 52.96072
#
# Poissons Ratio (x) = 0.41010 0.32525
# Poissons Ratio (y) = 0.34360 -0.03270
# Poissons Ratio (z) = 0.38306 -0.04597
#
# Static dielectric constant tensor:
#      x y z
#    x 1.965840 0.000000 0.000000 
#    y 0.000000 1.969050 0.000000 
#    z 0.000000 0.000000 1.938690 
# 
# From -- ./inp_files/26346.got.cif
#   From: 2010.05.17/outbox.cif.g08.bks.cpg/sg20_14_cif.got.tgz:26346.got - 2010.06.03 22:52:26.
