data_PCOD9320953
_publ_section_title
;
Structure prediction by ZEFSAII (Michael W. Deem and Ramdas Pophale) SiO2 
 PCOD9320953
Probable space group: C 2 2 21
;
_chemical_formula_sum "Si O2"
_cell_formula_units_Z 48
_cell_length_a 31.443858
_cell_length_b 7.566540
_cell_length_c 9.142709
_cell_angle_alpha 90.000000
_cell_angle_beta 90.000000
_cell_angle_gamma 90.000000
_cell_volume 2175.244382
_symmetry_space_group_name_H-M "C 2 2 21"
_symmetry_group_IT_number 20
_symmetry_cell_setting 'orthorhombic'
loop_
_space_group_symop_operation_xyz
x,y,z
-x,-y,1/2+z
x,-y,-z
-x,y,1/2-z
1/2+x,1/2+y,z
1/2-x,1/2-y,1/2+z
1/2+x,1/2-y,-z
1/2-x,1/2+y,1/2-z
loop_
_atom_site_type_symbol
_atom_site_label
_atom_site_fract_x
_atom_site_fract_y
_atom_site_fract_z
Si Si1 0.148356 0.809572 0.571794
Si Si2 0.762679 0.351605 0.112887
Si Si3 0.897203 0.308435 0.809598
Si Si4 0.602633 0.567134 0.158320
Si Si5 0.957376 0.594024 0.657838
Si Si6 0.689521 0.073375 0.155150
O O1 0.195276 0.737773 0.545764
O O2 0.111837 0.705076 0.483340
O O3 0.137658 0.834690 0.741773
O O4 0.147392 0.000000 0.500000
O O5 0.722568 0.230767 0.136203
O O6 0.781736 0.429749 0.261774
O O7 0.749426 0.500000 0.000000
O O8 0.929224 0.455271 0.751423
O O9 0.851131 0.363045 0.745220
O O10 0.909449 0.113301 0.746454
O O11 0.566520 0.717166 0.138221
O O12 0.617473 0.500000 0.000000
O O13 0.964385 0.500000 0.500000
O O14 0.000000 0.623492 0.750000
O O15 0.674555 0.000000 0.000000
#
# Coordination Sequence:
#
# PCOD9320953 Si02
#       6
#     8   8   8   8   8   8
#     4  10  24  45  74 102 146 194 250 305 376 452
#     4  12  25  45  65 101 146 194 255 307 365 449
#     4  11  25  50  75 110 149 198 250 315 381 462
#     4  11  25  46  76 109 147 188 243 307 382 454
#     4  12  28  50  78 113 150 191 251 317 392 471
#     4  12  27  42  69 104 148 199 251 311 381 434
#
# _framework density 22.066486999999999
#
# number of rings (size 3 to 8) (size 9 to 14) (size 15 to 20)
#    0.000    0.667    3.333    3.000    9.333    1.333 
#    0.000    0.000    0.000    0.000    0.000    0.000 
#    0.000    0.000    0.000    0.000    0.000    0.000 
#
# Total GULP energy -134303.819266 kJ/mol
# GULP energy per Si atom -5595.992469 kJ/mol
# Density = 2.201626 g / cm^3
# Si number density = 22.066487 Si / 1000 Ang^3
#
#
#
# Elastic Constant Matrix: (Units=GPa)
#
#
# Indices 1 2 3 4 5 6 
#
# 1 77.1603 30.5229 32.0871 0.0000 0.0000 0.0000
# 2 30.5229 97.4287 29.0638 0.0000 0.0000 0.0000
# 3 32.0871 29.0638 104.7580 0.0000 0.0000 0.0000
# 4 0.0000 0.0000 0.0000 5.0531 0.0000 0.0000
# 5 0.0000 0.0000 0.0000 0.0000 40.0405 0.0000
# 6 0.0000 0.0000 0.0000 0.0000 0.0000 31.1464
#
#
#
# Elastic Compliance Matrix: (Units=1/GPa)
#
#
# Indices 1 2 3 4 5 6 
#
# 1 0.016103 -0.003896 -0.003851 0.000000 0.000000 0.000000
# 2 -0.003896 0.012133 -0.002173 0.000000 0.000000 0.000000
# 3 -0.003851 -0.002173 0.011328 0.000000 0.000000 0.000000
# 4 0.000000 0.000000 0.000000 0.197898 0.000000 0.000000
# 5 0.000000 0.000000 0.000000 0.000000 0.024975 0.000000
# 6 0.000000 0.000000 0.000000 0.000000 0.000000 0.032106
#
#
# Mechanical properties :
#
#
# Convention : Reuss Voigt Hill
#
# Bulk Modulus (GPa) = 50.70050 51.41050 51.05550
# Shear Modulus (GPa) = 15.57841 27.75955 21.66898
#
# Velocity S-wave (km/s) = 2.65990 3.55067 3.13707
# Velocity P-wave (km/s) = 5.69733 6.33706 6.02569
#
# Compressibility (1/GPa) = 0.01972367
#
# Stress axis : x y z
#
# Youngs Moduli (GPa) = 62.10122 82.42275 88.27462
#
# Poissons Ratio (x) = 0.32111 0.33998
# Poissons Ratio (y) = 0.24194 0.19180
# Poissons Ratio (z) = 0.23918 0.17908
#
# Static dielectric constant tensor:
#      x y z
#    x 1.771760 0.000000 0.000000 
#    y 0.000000 1.792960 0.000000 
#    z 0.000000 0.000000 1.844320 
# 
# From -- ./inp_files/11453.got.cif
#   From: 2010.05.17/outbox.cif.g08.bks.cpg/sg20_6_cif.got.tgz:11453.got - 2010.06.03 22:52:26.
