data_PCOD9320344
_publ_section_title
;
Structure prediction by ZEFSAII (Michael W. Deem and Ramdas Pophale) SiO2 
 PCOD9320344
Probable space group: C 2 2 21
;
_chemical_formula_sum "Si O2"
_cell_formula_units_Z 64
_cell_length_a 29.620188
_cell_length_b 9.188626
_cell_length_c 10.963001
_cell_angle_alpha 90.000000
_cell_angle_beta 90.000000
_cell_angle_gamma 90.000000
_cell_volume 2983.787151
_symmetry_space_group_name_H-M "C 2 2 21"
_symmetry_group_IT_number 20
_symmetry_cell_setting 'orthorhombic'
loop_
_space_group_symop_operation_xyz
x,y,z
-x,-y,1/2+z
x,-y,-z
-x,y,1/2-z
1/2+x,1/2+y,z
1/2-x,1/2-y,1/2+z
1/2+x,1/2-y,-z
1/2-x,1/2+y,1/2-z
loop_
_atom_site_type_symbol
_atom_site_label
_atom_site_fract_x
_atom_site_fract_y
_atom_site_fract_z
Si Si1 0.690177 0.505836 0.141675
Si Si2 0.949096 0.194923 0.293880
Si Si3 0.582125 0.835067 0.967353
Si Si4 0.402821 0.616618 0.731657
Si Si5 0.141325 0.716309 0.430007
Si Si6 0.223752 0.105305 0.606981
Si Si7 0.174396 0.668786 0.899454
Si Si8 0.376434 0.908067 0.178385
O O1 0.644086 0.415320 0.159416
O O2 0.721675 0.460442 0.255673
O O3 0.674842 0.671124 0.157972
O O4 0.706707 0.500000 0.000000
O O5 0.941909 0.228928 0.436312
O O6 0.919776 0.323333 0.230067
O O7 0.000000 0.205331 0.250000
O O8 0.930714 0.032214 0.270420
O O9 0.635770 0.837170 0.999214
O O10 0.576003 0.757171 0.837041
O O11 0.566687 0.000000 0.000000
O O12 0.388502 0.658320 0.868579
O O13 0.192385 0.751842 0.389707
O O14 0.142009 0.698659 0.574246
O O15 0.120178 0.566745 0.379847
O O16 0.274532 0.138652 0.566189
O O17 0.204676 0.000000 0.500000
O O18 0.157364 0.568459 0.790458
#
# Coordination Sequence:
#
# PCOD9320344 Si02
#       8
#     8   8   8   8   8   8   8   8
#     4  11  21  39  63  90 129 179 220 285 334 400
#     4  11  24  44  71 102 134 167 224 284 343 421
#     4  11  22  43  72  96 134 179 223 278 343 407
#     4  11  20  43  68  98 129 174 226 270 347 412
#     4  10  24  42  68  93 136 182 224 271 345 417
#     4  11  26  39  61  99 137 180 242 287 329 406
#     4  11  22  39  65  92 133 178 227 278 332 389
#     4  10  22  46  65  94 135 183 217 277 354 410
#
# _framework density 21.449252000000001
#
# number of rings (size 3 to 8) (size 9 to 14) (size 15 to 20)
#    0.000    1.250    3.750    3.000    3.500    2.000 
#    6.750    1.250    0.000    0.000    0.000    0.000 
#    0.000    0.000    0.000    0.000    0.000    0.000 
#
# Total GULP energy -178508.957115 kJ/mol
# GULP energy per Si atom -5578.404910 kJ/mol
# Density = 2.140043 g / cm^3
# Si number density = 21.449252 Si / 1000 Ang^3
#
#
#
# Elastic Constant Matrix: (Units=GPa)
#
#
# Indices 1 2 3 4 5 6 
#
# 1 76.1383 19.9029 19.6056 0.0000 0.0000 0.0000
# 2 19.9029 84.2242 18.7676 0.0000 0.0000 0.0000
# 3 19.6056 18.7676 95.1216 0.0000 0.0000 0.0000
# 4 0.0000 0.0000 0.0000 42.3951 0.0000 0.0000
# 5 0.0000 0.0000 0.0000 0.0000 -0.6084 0.0000
# 6 0.0000 0.0000 0.0000 0.0000 0.0000 -25.7494
#
#
#
# Elastic Compliance Matrix: (Units=1/GPa)
#
#
# Indices 1 2 3 4 5 6 
#
# 1 0.014513 -0.002890 -0.002421 0.000000 0.000000 0.000000
# 2 -0.002890 0.012995 -0.001968 0.000000 0.000000 0.000000
# 3 -0.002421 -0.001968 0.011400 0.000000 0.000000 0.000000
# 4 0.000000 0.000000 0.000000 0.023588 0.000000 0.000000
# 5 0.000000 0.000000 0.000000 0.000000 -1.643699 0.000000
# 6 0.000000 0.000000 0.000000 0.000000 0.000000 -0.038836
#
#
# Mechanical properties :
#
#
# Convention : Reuss Voigt Hill
#
# Bulk Modulus (GPa) = 41.06926 41.33737 41.20332
# Shear Modulus (GPa) = -3.13016 16.35466 6.61225
#
# Velocity S-wave (km/s) = -1.20934 2.76430 1.75768
# Velocity P-wave (km/s) = 4.15196 5.43162 4.83432
#
# Compressibility (1/GPa) = 0.02434911
#
# Stress axis : x y z
#
# Youngs Moduli (GPa) = 68.90426 76.95520 87.71788
#
# Poissons Ratio (x) = 0.22240 0.21237
# Poissons Ratio (y) = 0.19914 0.17264
# Poissons Ratio (z) = 0.16682 0.15146
#
# Static dielectric constant tensor:
#      x y z
#    x 1.751600 0.000000 0.000000 
#    y 0.000000 1.821260 0.000000 
#    z 0.000000 0.000000 2.126000 
# 
# From -- ./inp_files/17243.got.cif
#   From: 2010.05.17/outbox.cif.g08.bks.cpg/sg20_9_cif.got.tgz:17243.got - 2010.06.03 22:52:26.
