data_PCOD9320611
_publ_section_title
;
Structure prediction by ZEFSAII (Michael W. Deem and Ramdas Pophale) SiO2 
 PCOD9320611
Probable space group: C 2 2 21
;
_chemical_formula_sum "Si O2"
_cell_formula_units_Z 60
_cell_length_a 10.107411
_cell_length_b 9.993778
_cell_length_c 24.712910
_cell_angle_alpha 90.000000
_cell_angle_beta 90.000000
_cell_angle_gamma 90.000000
_cell_volume 2496.281231
_symmetry_space_group_name_H-M "C 2 2 21"
_symmetry_group_IT_number 20
_symmetry_cell_setting 'orthorhombic'
loop_
_space_group_symop_operation_xyz
x,y,z
-x,-y,1/2+z
x,-y,-z
-x,y,1/2-z
1/2+x,1/2+y,z
1/2-x,1/2-y,1/2+z
1/2+x,1/2-y,-z
1/2-x,1/2+y,1/2-z
loop_
_atom_site_type_symbol
_atom_site_label
_atom_site_fract_x
_atom_site_fract_y
_atom_site_fract_z
Si Si1 0.097290 0.655040 0.996933
Si Si2 0.074122 0.334992 0.851234
Si Si3 0.974522 0.857001 0.839634
Si Si4 0.000000 0.496180 0.750000
Si Si5 0.395323 0.621972 0.816495
Si Si6 0.639755 0.887919 0.121575
Si Si7 0.379327 0.360830 0.965831
Si Si8 0.730140 0.189847 0.710958
O O1 0.160500 0.670978 0.937196
O O2 0.973836 0.755186 0.996937
O O3 0.055911 0.500000 0.000000
O O4 0.223884 0.679884 0.035156
O O5 0.065008 0.469869 0.886085
O O6 0.190761 0.224538 0.844879
O O7 0.074013 0.404661 0.792557
O O8 0.942644 0.248089 0.851323
O O9 0.928776 0.867474 0.903233
O O10 0.868600 0.816383 0.793184
O O11 0.075059 0.730901 0.842836
O O12 0.006619 0.006615 0.820221
O O13 0.881104 0.574636 0.780758
O O14 0.271416 0.565802 0.849266
O O15 0.335714 0.667383 0.759038
O O16 0.385670 0.500000 0.000000
#
# Coordination Sequence:
#
# PCOD9320611 Si02
#       8
#     8   8   8   4   8   8   8   8
#     4  10  23  43  73 101 130 177 222 281 351 408
#     4  12  25  42  62  97 127 174 226 270 323 392
#     4  11  24  44  66  98 134 180 220 276 343 397
#     4  12  22  44  60  88 134 172 212 280 324 380
#     4  12  24  41  65  95 135 175 227 267 329 400
#     4  11  24  46  66  95 137 171 221 278 336 404
#     4  10  23  45  70  99 140 174 224 287 346 414
#     4  12  22  41  67  89 130 179 223 273 326 393
#
# _framework density 24.035754000000001
#
# number of rings (size 3 to 8) (size 9 to 14) (size 15 to 20)
#    0.000    0.800    5.333    1.600    0.000    3.733 
#    7.200    2.667    0.000    0.000    0.000    0.000 
#    0.000    0.000    0.000    0.000    0.000    0.000 
#
# Total GULP energy -167027.279101 kJ/mol
# GULP energy per Si atom -5567.575970 kJ/mol
# Density = 2.398105 g / cm^3
# Si number density = 24.035754 Si / 1000 Ang^3
#
#
#
# Elastic Constant Matrix: (Units=GPa)
#
#
# Indices 1 2 3 4 5 6 
#
# 1 76.1885 64.3390 9.2941 0.0000 0.0000 0.0000
# 2 64.3390 143.7312 21.1162 0.0000 0.0000 0.0000
# 3 9.2941 21.1162 73.5466 0.0000 0.0000 0.0000
# 4 0.0000 0.0000 0.0000 31.6578 0.0000 0.0000
# 5 0.0000 0.0000 0.0000 0.0000 22.1599 0.0000
# 6 0.0000 0.0000 0.0000 0.0000 0.0000 42.8589
#
#
#
# Elastic Compliance Matrix: (Units=1/GPa)
#
#
# Indices 1 2 3 4 5 6 
#
# 1 0.021102 -0.009453 0.000047 0.000000 0.000000 0.000000
# 2 -0.009453 0.011499 -0.002107 0.000000 0.000000 0.000000
# 3 0.000047 -0.002107 0.014196 0.000000 0.000000 0.000000
# 4 0.000000 0.000000 0.000000 0.031588 0.000000 0.000000
# 5 0.000000 0.000000 0.000000 0.000000 0.045127 0.000000
# 6 0.000000 0.000000 0.000000 0.000000 0.000000 0.023332
#
#
# Mechanical properties :
#
#
# Convention : Reuss Voigt Hill
#
# Bulk Modulus (GPa) = 42.06693 53.66276 47.86485
# Shear Modulus (GPa) = 28.12269 32.58312 30.35291
#
# Velocity S-wave (km/s) = 3.42429 3.68586 3.55748
# Velocity P-wave (km/s) = 5.75970 6.36308 6.06889
#
# Compressibility (1/GPa) = 0.02377164
#
# Stress axis : x y z
#
# Youngs Moduli (GPa) = 47.38776 86.96782 70.44378
#
# Poissons Ratio (x) = 0.82212 -0.00334
# Poissons Ratio (y) = 0.44796 0.14841
# Poissons Ratio (z) = -0.00225 0.18322
#
# Static dielectric constant tensor:
#      x y z
#    x 1.966000 0.000000 0.000000 
#    y 0.000000 1.920460 0.000000 
#    z 0.000000 0.000000 2.106480 
# 
# From -- ./inp_files/30333.got.cif
#   From: 2010.05.17/outbox.cif.g08.bks.cpg/sg20_16_cif.got.tgz:30333.got - 2010.06.03 22:52:26.
