data_PCOD9320646
_publ_section_title
;
Structure prediction by ZEFSAII (Michael W. Deem and Ramdas Pophale) SiO2 
 PCOD9320646
Probable space group: C 2 2 21
;
_chemical_formula_sum "Si O2"
_cell_formula_units_Z 32
_cell_length_a 35.594245
_cell_length_b 7.670102
_cell_length_c 5.104387
_cell_angle_alpha 90.000000
_cell_angle_beta 90.000000
_cell_angle_gamma 90.000000
_cell_volume 1393.556299
_symmetry_space_group_name_H-M "C 2 2 21"
_symmetry_group_IT_number 20
_symmetry_cell_setting 'orthorhombic'
loop_
_space_group_symop_operation_xyz
x,y,z
-x,-y,1/2+z
x,-y,-z
-x,y,1/2-z
1/2+x,1/2+y,z
1/2-x,1/2-y,1/2+z
1/2+x,1/2-y,-z
1/2-x,1/2+y,1/2-z
loop_
_atom_site_type_symbol
_atom_site_label
_atom_site_fract_x
_atom_site_fract_y
_atom_site_fract_z
Si Si1 0.242722 0.500000 0.500000
Si Si2 0.000000 0.608150 0.250000
Si Si3 0.382044 0.711382 0.503522
Si Si4 0.201314 0.683950 0.874597
Si Si5 0.427989 0.290674 0.000714
O O1 0.210563 0.645282 0.575845
O O2 0.274186 0.649947 0.443800
O O3 0.966802 0.715477 0.110113
O O4 0.984653 0.500000 0.500000
O O5 0.378574 0.500000 0.500000
O O6 0.341764 0.790485 0.439459
O O7 0.396461 0.761755 0.789105
O O8 0.413074 0.760766 0.285205
O O9 0.217040 0.500000 0.000000
O O10 0.431366 0.500000 0.000000
#
# Coordination Sequence:
#
# PCOD9320646 Si02
#       5
#     4   4   8   8   8
#     4  12  26  46  66 104 138 188 246 296 368 440
#     4  12  26  44  70 108 150 184 232 300 350 420
#     4  10  23  44  71 102 139 184 241 299 354 426
#     4  12  26  44  70  99 142 189 238 301 366 427
#     4  10  24  46  72 102 140 190 236 284 354 430
#
# _framework density 22.962834999999998
#
# number of rings (size 3 to 8) (size 9 to 14) (size 15 to 20)
#    0.000    1.000    3.750    1.500    3.500    7.000 
#    4.500    0.000    0.000    0.000    0.000    0.000 
#    0.000    0.000    0.000    0.000    0.000    0.000 
#
# Total GULP energy -89085.568098 kJ/mol
# GULP energy per Si atom -5567.848006 kJ/mol
# Density = 2.291057 g / cm^3
# Si number density = 22.962835 Si / 1000 Ang^3
#
#
#
# Elastic Constant Matrix: (Units=GPa)
#
#
# Indices 1 2 3 4 5 6 
#
# 1 160.7301 67.9561 28.4412 0.0000 0.0000 0.0000
# 2 67.9561 116.0212 39.6362 0.0000 0.0000 0.0000
# 3 28.4412 39.6362 69.2795 0.0000 0.0000 0.0000
# 4 0.0000 0.0000 0.0000 -7.0717 0.0000 0.0000
# 5 0.0000 0.0000 0.0000 0.0000 32.0564 0.0000
# 6 0.0000 0.0000 0.0000 0.0000 0.0000 35.2848
#
#
#
# Elastic Compliance Matrix: (Units=1/GPa)
#
#
# Indices 1 2 3 4 5 6 
#
# 1 0.008303 -0.004597 -0.000778 0.000000 0.000000 0.000000
# 2 -0.004597 0.013259 -0.005698 0.000000 0.000000 0.000000
# 3 -0.000778 -0.005698 0.018014 0.000000 0.000000 0.000000
# 4 0.000000 0.000000 0.000000 -0.141408 0.000000 0.000000
# 5 0.000000 0.000000 0.000000 0.000000 0.031195 0.000000
# 6 0.000000 0.000000 0.000000 0.000000 0.000000 0.028341
#
#
# Mechanical properties :
#
#
# Convention : Reuss Voigt Hill
#
# Bulk Modulus (GPa) = 57.38000 68.67755 63.02877
# Shear Modulus (GPa) = -348.67367 26.05372 -161.30997
#
# Velocity S-wave (km/s) = -12.33581 3.37204 -8.39052
# Velocity P-wave (km/s) = 13.33619 6.71818 8.14616
#
# Compressibility (1/GPa) = 0.01742767
#
# Stress axis : x y z
#
# Youngs Moduli (GPa) = 120.43686 75.42297 55.51283
#
# Poissons Ratio (x) = 0.34675 0.04321
# Poissons Ratio (y) = 0.55370 0.31632
# Poissons Ratio (z) = 0.09375 0.42977
#
# Static dielectric constant tensor:
#      x y z
#    x 1.782990 0.000000 0.000000 
#    y 0.000000 1.864540 0.000000 
#    z 0.000000 0.000000 1.918630 
# 
# From -- ./inp_files/4489.got.cif
#   From: 2010.05.17/outbox.cif.g08.bks.cpg/sg20_3_cif.got.tgz:4489.got - 2010.06.03 22:52:26.
