data_PCOD9320295
_publ_section_title
;
Structure prediction by ZEFSAII (Michael W. Deem and Ramdas Pophale) SiO2 
 PCOD9320295
Probable space group: C 2 2 21
;
_chemical_formula_sum "Si O2"
_cell_formula_units_Z 20
_cell_length_a 12.039913
_cell_length_b 14.056470
_cell_length_c 4.762497
_cell_angle_alpha 90.000000
_cell_angle_beta 90.000000
_cell_angle_gamma 90.000000
_cell_volume 805.998686
_symmetry_space_group_name_H-M "C 2 2 21"
_symmetry_group_IT_number 20
_symmetry_cell_setting 'orthorhombic'
loop_
_space_group_symop_operation_xyz
x,y,z
-x,-y,1/2+z
x,-y,-z
-x,y,1/2-z
1/2+x,1/2+y,z
1/2-x,1/2-y,1/2+z
1/2+x,1/2-y,-z
1/2-x,1/2+y,1/2-z
loop_
_atom_site_type_symbol
_atom_site_label
_atom_site_fract_x
_atom_site_fract_y
_atom_site_fract_z
Si Si1 0.717463 0.690967 0.086739
Si Si2 0.889039 0.568021 0.753786
Si Si3 0.000000 0.927137 0.750000
O O1 0.786604 0.720488 0.366328
O O2 0.603396 0.640679 0.170675
O O3 0.787069 0.618825 0.898185
O O4 0.851771 0.500000 0.500000
O O5 0.000000 0.635089 0.750000
O O6 0.934000 0.500000 0.000000
O O7 0.029692 0.000000 0.500000
#
# Coordination Sequence:
#
# PCOD9320295 Si02
#       3
#     8   8   4
#     4  12  27  47  78 116 160 200 261 330 393 457
#     4  10  22  44  75 106 145 199 252 311 379 470
#     4  12  28  54  84 112 162 220 266 314 398 498
#
# _framework density 24.813935000000001
#
# number of rings (size 3 to 8) (size 9 to 14) (size 15 to 20)
#    0.000    0.800    0.000    6.000    2.800    3.200 
#    0.000    0.000    0.000    0.000    0.000    0.000 
#    0.000    0.000    0.000    0.000    0.000    0.000 
#
# Total GULP energy -55827.294978 kJ/mol
# GULP energy per Si atom -5582.729498 kJ/mol
# Density = 2.475746 g / cm^3
# Si number density = 24.813935 Si / 1000 Ang^3
#
#
#
# Elastic Constant Matrix: (Units=GPa)
#
#
# Indices 1 2 3 4 5 6 
#
# 1 226.7582 91.0758 72.7898 0.0000 0.0000 0.0000
# 2 91.0758 121.4109 65.5677 0.0000 0.0000 0.0000
# 3 72.7898 65.5677 202.7482 0.0000 0.0000 0.0000
# 4 0.0000 0.0000 0.0000 63.3784 0.0000 0.0000
# 5 0.0000 0.0000 0.0000 0.0000 34.6858 0.0000
# 6 0.0000 0.0000 0.0000 0.0000 0.0000 31.2336
#
#
#
# Elastic Compliance Matrix: (Units=1/GPa)
#
#
# Indices 1 2 3 4 5 6 
#
# 1 0.006447 -0.004345 -0.000909 0.000000 0.000000 0.000000
# 2 -0.004345 0.012908 -0.002614 0.000000 0.000000 0.000000
# 3 -0.000909 -0.002614 0.006104 0.000000 0.000000 0.000000
# 4 0.000000 0.000000 0.000000 0.015778 0.000000 0.000000
# 5 0.000000 0.000000 0.000000 0.000000 0.028830 0.000000
# 6 0.000000 0.000000 0.000000 0.000000 0.000000 0.032017
#
#
# Mechanical properties :
#
#
# Convention : Reuss Voigt Hill
#
# Bulk Modulus (GPa) = 102.86666 112.19822 107.53244
# Shear Modulus (GPa) = 41.30092 47.29182 44.29637
#
# Velocity S-wave (km/s) = 4.08416 4.37035 4.22968
# Velocity P-wave (km/s) = 7.98659 8.41312 8.20263
#
# Compressibility (1/GPa) = 0.00972132
#
# Stress axis : x y z
#
# Youngs Moduli (GPa) = 155.10848 77.47222 163.82184
#
# Poissons Ratio (x) = 0.33663 0.14898
# Poissons Ratio (y) = 0.67397 0.42829
# Poissons Ratio (z) = 0.14106 0.20254
#
# Static dielectric constant tensor:
#      x y z
#    x 2.130260 0.000000 0.000000 
#    y 0.000000 2.206660 0.000000 
#    z 0.000000 0.000000 1.944980 
# 
# From -- ./inp_files/818.got.cif
#   From: 2010.05.17/outbox.cif.g08.bks.cpg/sg20_1_cif.got.tgz:818.got - 2010.06.03 22:52:26.
