data_PCOD9320281
_publ_section_title
;
Structure prediction by ZEFSAII (Michael W. Deem and Ramdas Pophale) SiO2 
 PCOD9320281
Probable space group: C 2 2 21
;
_chemical_formula_sum "Si O2"
_cell_formula_units_Z 48
_cell_length_a 8.047066
_cell_length_b 12.753522
_cell_length_c 22.855024
_cell_angle_alpha 90.000000
_cell_angle_beta 90.000000
_cell_angle_gamma 90.000000
_cell_volume 2345.575305
_symmetry_space_group_name_H-M "C 2 2 21"
_symmetry_group_IT_number 20
_symmetry_cell_setting 'orthorhombic'
loop_
_space_group_symop_operation_xyz
x,y,z
-x,-y,1/2+z
x,-y,-z
-x,y,1/2-z
1/2+x,1/2+y,z
1/2-x,1/2-y,1/2+z
1/2+x,1/2-y,-z
1/2-x,1/2+y,1/2-z
loop_
_atom_site_type_symbol
_atom_site_label
_atom_site_fract_x
_atom_site_fract_y
_atom_site_fract_z
Si Si1 0.226859 0.114160 0.029914
Si Si2 0.008588 0.974775 0.880371
Si Si3 0.793227 0.647229 0.331186
Si Si4 0.194573 0.000000 0.500000
Si Si5 0.096512 0.693486 0.037654
Si Si6 0.500000 0.998809 0.750000
Si Si7 0.332287 0.376289 0.289074
O O1 0.406345 0.163069 0.035370
O O2 0.144113 0.104662 0.093510
O O3 0.122917 0.193185 0.989947
O O4 0.238678 0.000000 0.000000
O O5 0.877902 0.918453 0.837117
O O6 0.908761 0.003673 0.939691
O O7 0.105063 0.069015 0.849163
O O8 0.783785 0.754599 0.295241
O O9 0.838297 0.682859 0.396622
O O10 0.935190 0.574165 0.303100
O O11 0.304562 0.104506 0.498070
O O12 0.334689 0.064362 0.767468
O O13 0.500000 0.383668 0.250000
#
# Coordination Sequence:
#
# PCOD9320281 Si02
#       7
#     8   8   8   4   8   4   8
#     4  12  24  43  67 105 143 190 231 283 352 429
#     4  11  24  46  71 104 145 182 234 293 354 431
#     4  11  25  46  70 105 136 185 237 295 357 418
#     4  10  22  44  72 104 142 186 230 284 356 436
#     4  11  24  43  69 103 147 183 232 287 353 431
#     4  12  26  50  72 102 134 184 250 296 354 424
#     4  12  26  48  75 101 142 187 239 301 361 415
#
# _framework density 20.464061999999998
#
# number of rings (size 3 to 8) (size 9 to 14) (size 15 to 20)
#    0.000    0.667    4.167    4.000    2.333    1.333 
#    9.000    0.000    0.000    0.000    0.000    0.000 
#    0.000    0.000    0.000    0.000    0.000    0.000 
#
# Total GULP energy -134129.927261 kJ/mol
# GULP energy per Si atom -5588.746969 kJ/mol
# Density = 2.041749 g / cm^3
# Si number density = 20.464062 Si / 1000 Ang^3
#
#
#
# Elastic Constant Matrix: (Units=GPa)
#
#
# Indices 1 2 3 4 5 6 
#
# 1 117.4929 39.8802 14.9863 0.0000 0.0000 0.0000
# 2 39.8802 119.3734 19.8584 0.0000 0.0000 0.0000
# 3 14.9863 19.8584 45.9406 0.0000 0.0000 0.0000
# 4 0.0000 0.0000 0.0000 34.1900 0.0000 0.0000
# 5 0.0000 0.0000 0.0000 0.0000 29.6482 0.0000
# 6 0.0000 0.0000 0.0000 0.0000 0.0000 63.5899
#
#
#
# Elastic Compliance Matrix: (Units=1/GPa)
#
#
# Indices 1 2 3 4 5 6 
#
# 1 0.009753 -0.002940 -0.001910 0.000000 0.000000 0.000000
# 2 -0.002940 0.009913 -0.003326 0.000000 0.000000 0.000000
# 3 -0.001910 -0.003326 0.023828 0.000000 0.000000 0.000000
# 4 0.000000 0.000000 0.000000 0.029248 0.000000 0.000000
# 5 0.000000 0.000000 0.000000 0.000000 0.033729 0.000000
# 6 0.000000 0.000000 0.000000 0.000000 0.000000 0.015726
#
#
# Mechanical properties :
#
#
# Convention : Reuss Voigt Hill
#
# Bulk Modulus (GPa) = 36.84537 48.02853 42.43695
# Shear Modulus (GPa) = 33.87616 39.35776 36.61696
#
# Velocity S-wave (km/s) = 4.07307 4.39026 4.23464
# Velocity P-wave (km/s) = 6.33750 7.01568 6.68520
#
# Compressibility (1/GPa) = 0.02714045
#
# Stress axis : x y z
#
# Youngs Moduli (GPa) = 102.53372 100.88112 41.96738
#
# Poissons Ratio (x) = 0.29663 0.08018
# Poissons Ratio (y) = 0.30149 0.13957
# Poissons Ratio (z) = 0.19589 0.33550
#
# Static dielectric constant tensor:
#      x y z
#    x 1.732030 0.000000 0.000000 
#    y 0.000000 1.650890 0.000000 
#    z 0.000000 0.000000 1.720650 
# 
# From -- ./inp_files/28745.got.cif
#   From: 2010.05.17/outbox.cif.g08.bks.cpg/sg20_15_cif.got.tgz:28745.got - 2010.06.03 22:52:26.
