data_PCOD9320515
_publ_section_title
;
Structure prediction by ZEFSAII (Michael W. Deem and Ramdas Pophale) SiO2 
 PCOD9320515
Probable space group: C 2 2 21
;
_chemical_formula_sum "Si O2"
_cell_formula_units_Z 44
_cell_length_a 17.873350
_cell_length_b 14.372869
_cell_length_c 8.777382
_cell_angle_alpha 90.000000
_cell_angle_beta 90.000000
_cell_angle_gamma 90.000000
_cell_volume 2254.833232
_symmetry_space_group_name_H-M "C 2 2 21"
_symmetry_group_IT_number 20
_symmetry_cell_setting 'orthorhombic'
loop_
_space_group_symop_operation_xyz
x,y,z
-x,-y,1/2+z
x,-y,-z
-x,y,1/2-z
1/2+x,1/2+y,z
1/2-x,1/2-y,1/2+z
1/2+x,1/2-y,-z
1/2-x,1/2+y,1/2-z
loop_
_atom_site_type_symbol
_atom_site_label
_atom_site_fract_x
_atom_site_fract_y
_atom_site_fract_z
Si Si1 0.000000 0.257753 0.250000
Si Si2 0.989871 0.390091 0.518524
Si Si3 0.658396 0.677757 0.308032
Si Si4 0.737181 0.493041 0.817028
Si Si5 0.271796 0.309389 0.147367
Si Si6 0.375101 0.855346 0.786427
O O1 0.968894 0.328112 0.376246
O O2 0.929717 0.199966 0.184981
O O3 0.985322 0.500000 0.500000
O O4 0.933190 0.365299 0.651563
O O5 0.075452 0.366567 0.561968
O O6 0.672404 0.574458 0.244847
O O7 0.703685 0.684416 0.469435
O O8 0.697892 0.749587 0.189294
O O9 0.734965 0.591268 0.729926
O O10 0.813329 0.436183 0.781166
O O11 0.732321 0.500000 0.000000
O O12 0.336270 0.244342 0.218411
#
# Coordination Sequence:
#
# PCOD9320515 Si02
#       6
#     4   8   8   8   8   8
#     4  12  26  44  68  96 146 172 228 282 338 404
#     4  11  24  39  65 100 136 177 214 278 347 408
#     4  11  26  44  68 101 133 183 229 279 343 399
#     4  11  25  42  71  98 135 176 235 279 338 397
#     4  11  23  45  69  95 140 178 230 286 329 405
#     4  10  23  42  64 100 133 175 222 271 345 403
#
# _framework density 19.513638
#
# number of rings (size 3 to 8) (size 9 to 14) (size 15 to 20)
#    0.000    1.091    1.818    4.364   12.727    0.000 
#    0.000    3.636    0.000    0.000    0.000    0.000 
#    0.000    0.000    0.000    0.000    0.000    0.000 
#
# Total GULP energy -122858.052508 kJ/mol
# GULP energy per Si atom -5584.456932 kJ/mol
# Density = 1.946922 g / cm^3
# Si number density = 19.513638 Si / 1000 Ang^3
#
#
#
# Elastic Constant Matrix: (Units=GPa)
#
#
# Indices 1 2 3 4 5 6 
#
# 1 77.5961 35.1863 30.1009 0.0000 0.0000 0.0000
# 2 35.1863 131.7673 29.2227 0.0000 0.0000 0.0000
# 3 30.1009 29.2227 88.5314 0.0000 0.0000 0.0000
# 4 0.0000 0.0000 0.0000 36.9537 0.0000 0.0000
# 5 0.0000 0.0000 0.0000 0.0000 17.0787 0.0000
# 6 0.0000 0.0000 0.0000 0.0000 0.0000 49.1194
#
#
#
# Elastic Compliance Matrix: (Units=1/GPa)
#
#
# Indices 1 2 3 4 5 6 
#
# 1 0.016092 -0.003327 -0.004373 0.000000 0.000000 0.000000
# 2 -0.003327 0.008877 -0.001799 0.000000 0.000000 0.000000
# 3 -0.004373 -0.001799 0.013376 0.000000 0.000000 0.000000
# 4 0.000000 0.000000 0.000000 0.027061 0.000000 0.000000
# 5 0.000000 0.000000 0.000000 0.000000 0.058552 0.000000
# 6 0.000000 0.000000 0.000000 0.000000 0.000000 0.020359
#
#
# Mechanical properties :
#
#
# Convention : Reuss Voigt Hill
#
# Bulk Modulus (GPa) = 51.68863 54.10161 52.89512
# Shear Modulus (GPa) = 29.45260 34.18937 31.82098
#
# Velocity S-wave (km/s) = 3.88923 4.19032 4.04258
# Velocity P-wave (km/s) = 6.83477 7.15520 6.99682
#
# Compressibility (1/GPa) = 0.01934661
#
# Stress axis : x y z
#
# Youngs Moduli (GPa) = 62.14077 112.65628 74.76055
#
# Poissons Ratio (x) = 0.37485 0.32694
# Poissons Ratio (y) = 0.20677 0.13447
# Poissons Ratio (z) = 0.27175 0.20263
#
# Static dielectric constant tensor:
#      x y z
#    x 1.647230 0.000000 0.000000 
#    y 0.000000 1.651290 0.000000 
#    z 0.000000 0.000000 1.673420 
# 
# From -- ./inp_files/9283.got.cif
#   From: 2010.05.17/outbox.cif.g08.bks.cpg/sg20_5_cif.got.tgz:9283.got - 2010.06.03 22:52:26.
