data_PCOD9320963
_publ_section_title
;
Structure prediction by ZEFSAII (Michael W. Deem and Ramdas Pophale) SiO2 
 PCOD9320963
Probable space group: C 2 2 21
;
_chemical_formula_sum "Si O2"
_cell_formula_units_Z 40
_cell_length_a 7.296240
_cell_length_b 7.277866
_cell_length_c 28.045188
_cell_angle_alpha 90.000000
_cell_angle_beta 90.000000
_cell_angle_gamma 90.000000
_cell_volume 1489.229127
_symmetry_space_group_name_H-M "C 2 2 21"
_symmetry_group_IT_number 20
_symmetry_cell_setting 'orthorhombic'
loop_
_space_group_symop_operation_xyz
x,y,z
-x,-y,1/2+z
x,-y,-z
-x,y,1/2-z
1/2+x,1/2+y,z
1/2-x,1/2-y,1/2+z
1/2+x,1/2-y,-z
1/2-x,1/2+y,1/2-z
loop_
_atom_site_type_symbol
_atom_site_label
_atom_site_fract_x
_atom_site_fract_y
_atom_site_fract_z
Si Si1 0.690021 0.126950 0.181549
Si Si2 0.404537 0.964465 0.583176
Si Si3 0.681788 0.739996 0.226458
Si Si4 0.502045 0.591317 0.549089
Si Si5 0.918341 0.140262 0.368830
O O1 0.581668 0.149662 0.133003
O O2 0.690746 0.260097 0.227022
O O3 0.891910 0.100612 0.158541
O O4 0.632692 0.939982 0.207192
O O5 0.496843 0.813616 0.548304
O O6 0.202750 0.008126 0.561565
O O7 0.451758 0.169260 0.602311
O O8 0.500000 0.655508 0.250000
O O9 0.723603 0.645360 0.175744
O O10 0.442541 0.500000 0.500000
O O11 0.374504 0.508250 0.591069
#
# Coordination Sequence:
#
# PCOD9320963 Si02
#       5
#     8   8   8   8   8
#     4   9  19  38  60  95 128 182 225 284 350 424
#     4  10  24  46  67 101 137 180 236 297 364 434
#     4   9  18  36  59  90 133 178 226 277 345 422
#     4  11  26  44  72 103 133 185 240 301 374 434
#     4   9  21  43  64  95 138 179 233 292 355 434
#
# _framework density 26.859535999999999
#
# number of rings (size 3 to 8) (size 9 to 14) (size 15 to 20)
#    0.000    2.400    0.000    0.000    5.600    3.200 
#   28.800    0.000    0.000    0.000    0.000    0.000 
#    0.000    0.000    0.000    0.000    0.000    0.000 
#
# Total GULP energy -111451.095860 kJ/mol
# GULP energy per Si atom -5572.554793 kJ/mol
# Density = 2.679840 g / cm^3
# Si number density = 26.859536 Si / 1000 Ang^3
#
#
#
# Elastic Constant Matrix: (Units=GPa)
#
#
# Indices 1 2 3 4 5 6 
#
# 1 -63.6186 38.2191 -108.6450 0.0000 0.0000 0.0000
# 2 38.2191 107.0826 86.9404 0.0000 0.0000 0.0000
# 3 -108.6450 86.9404 -9.1174 0.0000 0.0000 0.0000
# 4 0.0000 0.0000 0.0000 48.7099 0.0000 0.0000
# 5 0.0000 0.0000 0.0000 0.0000 7.5628 0.0000
# 6 0.0000 0.0000 0.0000 0.0000 0.0000 28.5147
#
#
#
# Elastic Compliance Matrix: (Units=1/GPa)
#
#
# Indices 1 2 3 4 5 6 
#
# 1 0.005970 0.006363 -0.010462 0.000000 0.000000 0.000000
# 2 0.006363 0.007850 -0.000964 0.000000 0.000000 0.000000
# 3 -0.010462 -0.000964 0.005787 0.000000 0.000000 0.000000
# 4 0.000000 0.000000 0.000000 0.020530 0.000000 0.000000
# 5 0.000000 0.000000 0.000000 0.000000 0.132227 0.000000
# 6 0.000000 0.000000 0.000000 0.000000 0.000000 0.035070
#
#
# Mechanical properties :
#
#
# Convention : Reuss Voigt Hill
#
# Bulk Modulus (GPa) = 105.47135 7.48618 56.47876
# Shear Modulus (GPa) = 22.65322 18.14630 20.39976
#
# Velocity S-wave (km/s) = 2.90728 2.60205 2.75889
# Velocity P-wave (km/s) = 7.11496 3.43813 5.58764
#
# Compressibility (1/GPa) = 0.00948125
#
# Stress axis : x y z
#
# Youngs Moduli (GPa) = 167.50942 127.38078 172.81020
#
# Poissons Ratio (x) = -0.81053 1.80787
# Poissons Ratio (y) = -1.06587 0.16665
# Poissons Ratio (z) = 1.75242 0.12284
#
# Static dielectric constant tensor:
#      x y z
#    x 2.248050 0.000000 0.000000 
#    y 0.000000 2.169620 0.000000 
#    z 0.000000 0.000000 2.240670 
# 
# From -- ./inp_files/29702.got.cif
#   From: 2010.05.17/outbox.cif.g08.bks.cpg/sg20_15_cif.got.tgz:29702.got - 2010.06.03 22:52:26.
