data_PCOD9320504
_publ_section_title
;
Structure prediction by ZEFSAII (Michael W. Deem and Ramdas Pophale) SiO2 
 PCOD9320504
Probable space group: C 2 2 21
;
_chemical_formula_sum "Si O2"
_cell_formula_units_Z 40
_cell_length_a 19.057883
_cell_length_b 11.360838
_cell_length_c 9.539527
_cell_angle_alpha 90.000000
_cell_angle_beta 90.000000
_cell_angle_gamma 90.000000
_cell_volume 2065.436583
_symmetry_space_group_name_H-M "C 2 2 21"
_symmetry_group_IT_number 20
_symmetry_cell_setting 'orthorhombic'
loop_
_space_group_symop_operation_xyz
x,y,z
-x,-y,1/2+z
x,-y,-z
-x,y,1/2-z
1/2+x,1/2+y,z
1/2-x,1/2-y,1/2+z
1/2+x,1/2-y,-z
1/2-x,1/2+y,1/2-z
loop_
_atom_site_type_symbol
_atom_site_label
_atom_site_fract_x
_atom_site_fract_y
_atom_site_fract_z
Si Si1 0.500000 0.399252 0.250000
Si Si2 0.146582 0.330139 0.972822
Si Si3 0.490434 0.169048 0.092320
Si Si4 0.128323 0.500000 0.500000
Si Si5 0.352054 0.566557 0.645490
Si Si6 0.290535 0.960192 0.286122
O O1 0.481505 0.307942 0.123560
O O2 0.570546 0.463503 0.204185
O O3 0.063098 0.352964 0.987714
O O4 0.151268 0.204540 0.896730
O O5 0.181595 0.427278 0.872270
O O6 0.184224 0.348120 0.122103
O O7 0.500000 0.117643 0.250000
O O8 0.423246 0.109378 0.027791
O O9 0.174372 0.531170 0.634286
O O10 0.339555 0.500000 0.500000
O O11 0.292247 0.540305 0.758622
#
# Coordination Sequence:
#
# PCOD9320504 Si02
#       6
#     4   8   8   4   8   8
#     4   8  20  44  54  80 120 168 204 248 306 352
#     4  10  23  42  58  92 124 160 208 249 323 369
#     4   9  18  34  62  81 124 160 193 261 299 366
#     4  12  18  32  60  98 116 156 210 238 328 364
#     4  11  23  41  66  86 124 164 212 261 304 374
#     4  11  23  37  63  92 127 160 196 269 313 374
#
# _framework density 19.366365999999999
#
# number of rings (size 3 to 8) (size 9 to 14) (size 15 to 20)
#    0.600    1.200    3.000    1.200    2.800    1.600 
#    3.600    4.000    0.000    0.000    0.000    0.000 
#    0.000    0.000    0.000    0.000    0.000    0.000 
#
# Total GULP energy -111527.534932 kJ/mol
# GULP energy per Si atom -5576.376747 kJ/mol
# Density = 1.932229 g / cm^3
# Si number density = 19.366366 Si / 1000 Ang^3
#
#
#
# Elastic Constant Matrix: (Units=GPa)
#
#
# Indices 1 2 3 4 5 6 
#
# 1 112.1594 -4.3138 36.7932 0.0000 0.0000 0.0000
# 2 -4.3138 18.6444 -12.8982 0.0000 0.0000 0.0000
# 3 36.7932 -12.8982 84.4460 0.0000 0.0000 0.0000
# 4 0.0000 0.0000 0.0000 14.2549 0.0000 0.0000
# 5 0.0000 0.0000 0.0000 0.0000 17.8164 0.0000
# 6 0.0000 0.0000 0.0000 0.0000 0.0000 12.4875
#
#
#
# Elastic Compliance Matrix: (Units=1/GPa)
#
#
# Indices 1 2 3 4 5 6 
#
# 1 0.010414 -0.000816 -0.004662 0.000000 0.000000 0.000000
# 2 -0.000816 0.060036 0.009525 0.000000 0.000000 0.000000
# 3 -0.004662 0.009525 0.015328 0.000000 0.000000 0.000000
# 4 0.000000 0.000000 0.000000 0.070151 0.000000 0.000000
# 5 0.000000 0.000000 0.000000 0.000000 0.056128 0.000000
# 6 0.000000 0.000000 0.000000 0.000000 0.000000 0.080080
#
#
# Mechanical properties :
#
#
# Convention : Reuss Voigt Hill
#
# Bulk Modulus (GPa) = 10.65262 28.26801 19.46031
# Shear Modulus (GPa) = 15.85624 21.95633 18.90629
#
# Velocity S-wave (km/s) = 2.86449 3.37075 3.12788
# Velocity P-wave (km/s) = 4.05622 5.45687 4.80782
#
# Compressibility (1/GPa) = 0.09387363
#
# Stress axis : x y z
#
# Youngs Moduli (GPa) = 96.02631 16.65659 65.24026
#
# Poissons Ratio (x) = 0.01359 0.30414
# Poissons Ratio (y) = 0.07832 -0.62143
# Poissons Ratio (z) = 0.44766 -0.15866
#
# Static dielectric constant tensor:
#      x y z
#    x 1.679120 0.000000 0.000000 
#    y 0.000000 1.701480 0.000000 
#    z 0.000000 0.000000 1.682370 
# 
# From -- ./inp_files/9145.got.cif
#   From: 2010.05.17/outbox.cif.g08.bks.cpg/sg20_5_cif.got.tgz:9145.got - 2010.06.03 22:52:26.
