data_PCOD9320419
_publ_section_title
;
Structure prediction by ZEFSAII (Michael W. Deem and Ramdas Pophale) SiO2 
 PCOD9320419
Probable space group: C 2 2 21
;
_chemical_formula_sum "Si O2"
_cell_formula_units_Z 48
_cell_length_a 8.285659
_cell_length_b 6.860053
_cell_length_c 33.289797
_cell_angle_alpha 90.000000
_cell_angle_beta 90.000000
_cell_angle_gamma 90.000000
_cell_volume 1892.194055
_symmetry_space_group_name_H-M "C 2 2 21"
_symmetry_group_IT_number 20
_symmetry_cell_setting 'orthorhombic'
loop_
_space_group_symop_operation_xyz
x,y,z
-x,-y,1/2+z
x,-y,-z
-x,y,1/2-z
1/2+x,1/2+y,z
1/2-x,1/2-y,1/2+z
1/2+x,1/2-y,-z
1/2-x,1/2+y,1/2-z
loop_
_atom_site_type_symbol
_atom_site_label
_atom_site_fract_x
_atom_site_fract_y
_atom_site_fract_z
Si Si1 0.636377 0.212341 0.014527
Si Si2 0.845142 0.845599 0.634364
Si Si3 0.458419 0.162321 0.090250
Si Si4 0.350876 0.739708 0.667039
Si Si5 0.454307 0.588400 0.204225
Si Si6 0.471545 0.715754 0.060070
O O1 0.519672 0.274275 0.050704
O O2 0.809832 0.182743 0.034610
O O3 0.616138 0.322737 0.972337
O O4 0.579707 0.000000 0.000000
O O5 0.705556 0.748583 0.608548
O O6 0.984735 0.889247 0.601833
O O7 0.934773 0.778207 0.674512
O O8 0.763011 0.045646 0.649851
O O9 0.583590 0.160344 0.127125
O O10 0.449250 0.939009 0.075527
O O11 0.495500 0.632874 0.691574
O O12 0.229144 0.862694 0.693582
O O13 0.500000 0.621140 0.250000
#
# Coordination Sequence:
#
# PCOD9320419 Si02
#       6
#     8   8   8   8   8   8
#     4  10  23  38  62  98 141 186 243 303 363 448
#     4  10  23  40  68 100 137 187 234 307 366 458
#     4  11  22  40  67 100 139 189 245 303 372 450
#     4  10  25  46  72 103 145 188 241 299 372 454
#     4  10  24  49  74 107 143 187 245 310 385 459
#     4  11  23  41  65  97 143 191 249 308 374 443
#
# _framework density 25.367377000000001
#
# number of rings (size 3 to 8) (size 9 to 14) (size 15 to 20)
#    1.000    0.667    0.000    4.000    2.333    5.333 
#    3.000    0.000    0.000    0.000    0.000    0.000 
#    0.000    0.000    0.000    0.000    0.000    0.000 
#
# Total GULP energy -134007.240778 kJ/mol
# GULP energy per Si atom -5583.635032 kJ/mol
# Density = 2.530964 g / cm^3
# Si number density = 25.367377 Si / 1000 Ang^3
#
#
#
# Elastic Constant Matrix: (Units=GPa)
#
#
# Indices 1 2 3 4 5 6 
#
# 1 99.6241 12.5442 52.7686 0.0000 0.0000 0.0000
# 2 12.5442 57.6681 22.7542 0.0000 0.0000 0.0000
# 3 52.7686 22.7542 218.0754 0.0000 0.0000 0.0000
# 4 0.0000 0.0000 0.0000 27.0782 0.0000 0.0000
# 5 0.0000 0.0000 0.0000 0.0000 43.8480 0.0000
# 6 0.0000 0.0000 0.0000 0.0000 0.0000 34.9905
#
#
#
# Elastic Compliance Matrix: (Units=1/GPa)
#
#
# Indices 1 2 3 4 5 6 
#
# 1 0.011633 -0.001481 -0.002660 0.000000 0.000000 0.000000
# 2 -0.001481 0.018274 -0.001548 0.000000 0.000000 0.000000
# 3 -0.002660 -0.001548 0.005391 0.000000 0.000000 0.000000
# 4 0.000000 0.000000 0.000000 0.036930 0.000000 0.000000
# 5 0.000000 0.000000 0.000000 0.000000 0.022806 0.000000
# 6 0.000000 0.000000 0.000000 0.000000 0.000000 0.028579
#
#
# Mechanical properties :
#
#
# Convention : Reuss Voigt Hill
#
# Bulk Modulus (GPa) = 41.80836 61.27796 51.54316
# Shear Modulus (GPa) = 34.97349 40.33671 37.65510
#
# Velocity S-wave (km/s) = 3.71709 3.99193 3.85696
# Velocity P-wave (km/s) = 5.91094 6.74211 6.34016
#
# Compressibility (1/GPa) = 0.02391866
#
# Stress axis : x y z
#
# Youngs Moduli (GPa) = 85.95954 54.72352 185.49792
#
# Poissons Ratio (x) = 0.08103 0.49351
# Poissons Ratio (y) = 0.12729 0.28722
# Poissons Ratio (z) = 0.22869 0.08473
#
# Static dielectric constant tensor:
#      x y z
#    x 2.058590 0.000000 0.000000 
#    y 0.000000 2.168160 0.000000 
#    z 0.000000 0.000000 1.950220 
# 
# From -- ./inp_files/30945.got.cif
#   From: 2010.05.17/outbox.cif.g08.bks.cpg/sg20_16_cif.got.tgz:30945.got - 2010.06.03 22:52:26.
