data_PCOD9320133
_publ_section_title
;
Structure prediction by ZEFSAII (Michael W. Deem and Ramdas Pophale) SiO2 
 PCOD9320133
Probable space group: C 2 2 21
;
_chemical_formula_sum "Si O2"
_cell_formula_units_Z 60
_cell_length_a 11.749653
_cell_length_b 11.102228
_cell_length_c 20.697409
_cell_angle_alpha 90.000000
_cell_angle_beta 90.000000
_cell_angle_gamma 90.000000
_cell_volume 2699.921670
_symmetry_space_group_name_H-M "C 2 2 21"
_symmetry_group_IT_number 20
_symmetry_cell_setting 'orthorhombic'
loop_
_space_group_symop_operation_xyz
x,y,z
-x,-y,1/2+z
x,-y,-z
-x,y,1/2-z
1/2+x,1/2+y,z
1/2-x,1/2-y,1/2+z
1/2+x,1/2-y,-z
1/2-x,1/2+y,1/2-z
loop_
_atom_site_type_symbol
_atom_site_label
_atom_site_fract_x
_atom_site_fract_y
_atom_site_fract_z
Si Si1 0.611249 0.143657 0.845943
Si Si2 0.661111 0.244431 0.144405
Si Si3 0.889880 0.883403 0.716571
Si Si4 0.275020 0.517408 0.074790
Si Si5 0.223930 0.000000 0.000000
Si Si6 0.651993 0.936243 0.748643
Si Si7 0.538688 0.468331 0.100702
Si Si8 0.860002 0.580379 0.875105
O O1 0.652749 0.274639 0.826662
O O2 0.484728 0.138866 0.875930
O O3 0.705644 0.087552 0.891155
O O4 0.607636 0.054161 0.784724
O O5 0.717595 0.140073 0.100730
O O6 0.612110 0.179357 0.208943
O O7 0.572415 0.326514 0.103385
O O8 0.767076 0.333361 0.159252
O O9 0.787993 0.928288 0.759944
O O10 0.000000 0.829562 0.750000
O O11 0.934511 0.990435 0.672996
O O12 0.409933 0.503611 0.086254
O O13 0.255566 0.500000 0.000000
O O14 0.309948 0.061312 0.947590
O O15 0.127364 0.961217 0.946421
O O16 0.634949 0.961697 0.671972
#
# Coordination Sequence:
#
# PCOD9320133 Si02
#       8
#     8   8   8   8   4   8   8   8
#     4  11  25  42  66 105 141 187 240 299 387 448
#     4  10  23  45  70 105 141 184 243 310 367 445
#     4  12  23  41  72 102 142 190 239 302 381 453
#     4  11  25  48  71 102 151 192 250 309 373 458
#     4  10  22  42  74 100 136 184 252 296 366 458
#     4  11  21  41  67 100 143 178 240 301 369 446
#     4  11  23  48  74 105 142 196 247 307 375 452
#     4  11  22  45  71 101 141 189 236 311 372 449
#
# _framework density 22.222866
#
# number of rings (size 3 to 8) (size 9 to 14) (size 15 to 20)
#    0.000    1.067    3.333    5.200    0.933    2.133 
#    9.600    0.000    0.000    0.000    0.000    0.000 
#    0.000    0.000    0.000    0.000    0.000    0.000 
#
# Total GULP energy -167243.323536 kJ/mol
# GULP energy per Si atom -5574.777451 kJ/mol
# Density = 2.217229 g / cm^3
# Si number density = 22.222866 Si / 1000 Ang^3
#
#
#
# Elastic Constant Matrix: (Units=GPa)
#
#
# Indices 1 2 3 4 5 6 
#
# 1 91.9209 31.4960 24.1042 0.0000 0.0000 0.0000
# 2 31.4960 95.3457 30.1559 0.0000 0.0000 0.0000
# 3 24.1042 30.1559 95.8785 0.0000 0.0000 0.0000
# 4 0.0000 0.0000 0.0000 5.2984 0.0000 0.0000
# 5 0.0000 0.0000 0.0000 0.0000 36.9453 0.0000
# 6 0.0000 0.0000 0.0000 0.0000 0.0000 -1.8102
#
#
#
# Elastic Compliance Matrix: (Units=1/GPa)
#
#
# Indices 1 2 3 4 5 6 
#
# 1 0.012626 -0.003517 -0.002068 0.000000 0.000000 0.000000
# 2 -0.003517 0.012626 -0.003087 0.000000 0.000000 0.000000
# 3 -0.002068 -0.003087 0.011921 0.000000 0.000000 0.000000
# 4 0.000000 0.000000 0.000000 0.188735 0.000000 0.000000
# 5 0.000000 0.000000 0.000000 0.000000 0.027067 0.000000
# 6 0.000000 0.000000 0.000000 0.000000 0.000000 -0.552431
#
#
# Mechanical properties :
#
#
# Convention : Reuss Voigt Hill
#
# Bulk Modulus (GPa) = 50.43076 50.51747 50.47412
# Shear Modulus (GPa) = -18.14876 21.24598 1.54861
#
# Velocity S-wave (km/s) = -2.86085 3.09535 0.83568
# Velocity P-wave (km/s) = 3.43946 5.96292 4.86756
#
# Compressibility (1/GPa) = 0.01982917
#
# Stress axis : x y z
#
# Youngs Moduli (GPa) = 79.20007 79.20010 83.88719
#
# Poissons Ratio (x) = 0.27853 0.17349
# Poissons Ratio (y) = 0.27853 0.25897
# Poissons Ratio (z) = 0.16380 0.24450
#
# Static dielectric constant tensor:
#      x y z
#    x 1.835000 0.000000 0.000000 
#    y 0.000000 1.844140 0.000000 
#    z 0.000000 0.000000 1.907470 
# 
# From -- ./inp_files/27271.got.cif
#   From: 2010.05.17/outbox.cif.g08.bks.cpg/sg20_14_cif.got.tgz:27271.got - 2010.06.03 22:52:26.
