data_PCOD9320404
_publ_section_title
;
Structure prediction by ZEFSAII (Michael W. Deem and Ramdas Pophale) SiO2 
 PCOD9320404
Probable space group: C 2 2 21
;
_chemical_formula_sum "Si O2"
_cell_formula_units_Z 32
_cell_length_a 11.942792
_cell_length_b 8.536188
_cell_length_c 12.378282
_cell_angle_alpha 90.000000
_cell_angle_beta 90.000000
_cell_angle_gamma 90.000000
_cell_volume 1261.915319
_symmetry_space_group_name_H-M "C 2 2 21"
_symmetry_group_IT_number 20
_symmetry_cell_setting 'orthorhombic'
loop_
_space_group_symop_operation_xyz
x,y,z
-x,-y,1/2+z
x,-y,-z
-x,y,1/2-z
1/2+x,1/2+y,z
1/2-x,1/2-y,1/2+z
1/2+x,1/2-y,-z
1/2-x,1/2+y,1/2-z
loop_
_atom_site_type_symbol
_atom_site_label
_atom_site_fract_x
_atom_site_fract_y
_atom_site_fract_z
Si Si1 0.829829 0.000000 0.000000
Si Si2 0.461516 0.831363 0.981732
Si Si3 0.000000 0.233598 0.750000
Si Si4 0.394309 0.238538 0.683786
Si Si5 0.722442 0.479023 0.255811
O O1 0.770835 0.017341 0.115972
O O2 0.897837 0.835552 0.007194
O O3 0.500799 0.832198 0.858538
O O4 0.562432 0.816501 0.068389
O O5 0.404085 0.000000 0.000000
O O6 0.887275 0.129477 0.744480
O O7 0.500000 0.303631 0.750000
O O8 0.300686 0.373358 0.680239
O O9 0.337642 0.110533 0.761141
#
# Coordination Sequence:
#
# PCOD9320404 Si02
#       5
#     4   8   4   8   8
#     4  10  22  50  72 110 156 208 256 332 394 458
#     4  11  25  44  82 110 158 205 265 327 394 481
#     4  10  24  50  76 112 152 210 260 330 400 464
#     4  12  26  48  75 118 155 208 261 327 399 485
#     4  11  25  46  80 106 159 205 258 328 398 475
#
# _framework density 25.358279
#
# number of rings (size 3 to 8) (size 9 to 14) (size 15 to 20)
#    0.000    1.000    3.750    1.500    7.000    2.000 
#    0.000    0.000    2.750    0.000    0.000    0.000 
#    0.000    0.000    0.000    0.000    0.000    0.000 
#
# Total GULP energy -89517.908258 kJ/mol
# GULP energy per Si atom -5594.869266 kJ/mol
# Density = 2.530056 g / cm^3
# Si number density = 25.358279 Si / 1000 Ang^3
#
#
#
# Elastic Constant Matrix: (Units=GPa)
#
#
# Indices 1 2 3 4 5 6 
#
# 1 57.2129 38.1075 -4.2999 0.0000 0.0000 0.0000
# 2 38.1075 156.6324 31.9040 0.0000 0.0000 0.0000
# 3 -4.2999 31.9040 100.7508 0.0000 0.0000 0.0000
# 4 0.0000 0.0000 0.0000 38.2196 0.0000 0.0000
# 5 0.0000 0.0000 0.0000 0.0000 27.2080 0.0000
# 6 0.0000 0.0000 0.0000 0.0000 0.0000 41.1975
#
#
#
# Elastic Compliance Matrix: (Units=1/GPa)
#
#
# Indices 1 2 3 4 5 6 
#
# 1 0.021553 -0.005805 0.002758 0.000000 0.000000 0.000000
# 2 -0.005805 0.008388 -0.002904 0.000000 0.000000 0.000000
# 3 0.002758 -0.002904 0.010963 0.000000 0.000000 0.000000
# 4 0.000000 0.000000 0.000000 0.026165 0.000000 0.000000
# 5 0.000000 0.000000 0.000000 0.000000 0.036754 0.000000
# 6 0.000000 0.000000 0.000000 0.000000 0.000000 0.024273
#
#
# Mechanical properties :
#
#
# Convention : Reuss Voigt Hill
#
# Bulk Modulus (GPa) = 34.48127 49.55771 42.01949
# Shear Modulus (GPa) = 33.40793 37.91733 35.66263
#
# Velocity S-wave (km/s) = 3.63359 3.87106 3.75420
# Velocity P-wave (km/s) = 5.58848 6.29012 5.94965
#
# Compressibility (1/GPa) = 0.02900125
#
# Stress axis : x y z
#
# Youngs Moduli (GPa) = 46.39800 119.21364 91.21760
#
# Poissons Ratio (x) = 0.69208 -0.25160
# Poissons Ratio (y) = 0.26936 0.26490
# Poissons Ratio (z) = -0.12797 0.34620
#
# Static dielectric constant tensor:
#      x y z
#    x 1.981400 0.000000 0.000000 
#    y 0.000000 2.129590 0.000000 
#    z 0.000000 0.000000 1.940480 
# 
# From -- ./inp_files/14724.got.cif
#   From: 2010.05.17/outbox.cif.g08.bks.cpg/sg20_8_cif.got.tgz:14724.got - 2010.06.03 22:52:26.
