data_PCOD9320824
_publ_section_title
;
Structure prediction by ZEFSAII (Michael W. Deem and Ramdas Pophale) SiO2 
 PCOD9320824
Probable space group: C 2 2 21
;
_chemical_formula_sum "Si O2"
_cell_formula_units_Z 40
_cell_length_a 12.765538
_cell_length_b 5.112116
_cell_length_c 27.195090
_cell_angle_alpha 90.000000
_cell_angle_beta 90.000000
_cell_angle_gamma 90.000000
_cell_volume 1774.721960
_symmetry_space_group_name_H-M "C 2 2 21"
_symmetry_group_IT_number 20
_symmetry_cell_setting 'orthorhombic'
loop_
_space_group_symop_operation_xyz
x,y,z
-x,-y,1/2+z
x,-y,-z
-x,y,1/2-z
1/2+x,1/2+y,z
1/2-x,1/2-y,1/2+z
1/2+x,1/2-y,-z
1/2-x,1/2+y,1/2-z
loop_
_atom_site_type_symbol
_atom_site_label
_atom_site_fract_x
_atom_site_fract_y
_atom_site_fract_z
Si Si1 0.498874 0.182895 0.819352
Si Si2 0.214365 0.149557 0.221594
Si Si3 0.108936 0.187399 0.661408
Si Si4 0.681363 0.000000 0.500000
Si Si5 0.993609 0.468339 0.922347
Si Si6 0.173647 0.500000 0.000000
O O1 0.594407 0.283712 0.787913
O O2 0.407229 0.396111 0.820432
O O3 0.527834 0.151327 0.877076
O O4 0.459120 0.894058 0.806506
O O5 0.265372 0.359877 0.258856
O O6 0.274911 0.208059 0.170239
O O7 0.060346 0.227699 0.607342
O O8 0.601265 0.926407 0.455884
O O9 0.753836 0.750078 0.511715
O O10 0.094229 0.419688 0.955975
#
# Coordination Sequence:
#
# PCOD9320824 Si02
#       6
#     8   8   8   4   8   4
#     4  10  24  42  67  90 129 168 214 262 314 380
#     4  12  26  42  64  98 128 168 220 262 322 374
#     4  10  24  42  67  90 129 168 214 262 314 380
#     4  11  26  41  68  96 136 163 210 267 310 382
#     4   9  26  42  67  98 126 172 217 246 330 377
#     4  11  26  41  68  96 136 163 210 267 310 382
#
# _framework density 22.538741999999999
#
# number of rings (size 3 to 8) (size 9 to 14) (size 15 to 20)
#    1.200    0.400    0.000    2.400    8.400    6.400 
#    0.000    0.000    0.000    0.000    0.000    0.000 
#    0.000    0.000    0.000    0.000    0.000    0.000 
#
# Total GULP energy -111581.935272 kJ/mol
# GULP energy per Si atom -5579.096764 kJ/mol
# Density = 2.248744 g / cm^3
# Si number density = 22.538742 Si / 1000 Ang^3
#
#
#
# Elastic Constant Matrix: (Units=GPa)
#
#
# Indices 1 2 3 4 5 6 
#
# 1 93.6826 3.9469 18.0654 0.0000 0.0000 0.0000
# 2 3.9469 76.6002 6.4479 0.0000 0.0000 0.0000
# 3 18.0654 6.4479 86.1934 0.0000 0.0000 0.0000
# 4 0.0000 0.0000 0.0000 28.0526 0.0000 0.0000
# 5 0.0000 0.0000 0.0000 0.0000 33.4395 0.0000
# 6 0.0000 0.0000 0.0000 0.0000 0.0000 29.8856
#
#
#
# Elastic Compliance Matrix: (Units=1/GPa)
#
#
# Indices 1 2 3 4 5 6 
#
# 1 0.011135 -0.000380 -0.002305 0.000000 0.000000 0.000000
# 2 -0.000380 0.013150 -0.000904 0.000000 0.000000 0.000000
# 3 -0.002305 -0.000904 0.012153 0.000000 0.000000 0.000000
# 4 0.000000 0.000000 0.000000 0.035647 0.000000 0.000000
# 5 0.000000 0.000000 0.000000 0.000000 0.029905 0.000000
# 6 0.000000 0.000000 0.000000 0.000000 0.000000 0.033461
#
#
# Mechanical properties :
#
#
# Convention : Reuss Voigt Hill
#
# Bulk Modulus (GPa) = 34.17685 34.82182 34.49934
# Shear Modulus (GPa) = 32.81213 33.47661 33.14437
#
# Velocity S-wave (km/s) = 3.81965 3.85813 3.83894
# Velocity P-wave (km/s) = 5.88638 5.94392 5.91522
#
# Compressibility (1/GPa) = 0.02925957
#
# Stress axis : x y z
#
# Youngs Moduli (GPa) = 89.80778 76.04292 82.28668
#
# Poissons Ratio (x) = 0.02887 0.18970
# Poissons Ratio (y) = 0.03410 0.07440
# Poissons Ratio (z) = 0.20704 0.06876
#
# Static dielectric constant tensor:
#      x y z
#    x 1.818080 0.000000 0.000000 
#    y 0.000000 1.786000 0.000000 
#    z 0.000000 0.000000 1.911630 
# 
# From -- ./inp_files/31133.got.cif
#   From: 2010.05.17/outbox.cif.g08.bks.cpg/sg20_16_cif.got.tgz:31133.got - 2010.06.03 22:52:26.
