data_PCOD9320036
_publ_section_title
;
Structure prediction by ZEFSAII (Michael W. Deem and Ramdas Pophale) SiO2 
 PCOD9320036
Probable space group: C 2 2 21
;
_chemical_formula_sum "Si O2"
_cell_formula_units_Z 36
_cell_length_a 28.321241
_cell_length_b 10.248078
_cell_length_c 5.380015
_cell_angle_alpha 90.000000
_cell_angle_beta 90.000000
_cell_angle_gamma 90.000000
_cell_volume 1561.486337
_symmetry_space_group_name_H-M "C 2 2 21"
_symmetry_group_IT_number 20
_symmetry_cell_setting 'orthorhombic'
loop_
_space_group_symop_operation_xyz
x,y,z
-x,-y,1/2+z
x,-y,-z
-x,y,1/2-z
1/2+x,1/2+y,z
1/2-x,1/2-y,1/2+z
1/2+x,1/2-y,-z
1/2-x,1/2+y,1/2-z
loop_
_atom_site_type_symbol
_atom_site_label
_atom_site_fract_x
_atom_site_fract_y
_atom_site_fract_z
Si Si1 0.209989 0.136146 0.652625
Si Si2 0.644721 0.500000 0.000000
Si Si3 0.813069 0.588262 0.744450
Si Si4 0.969948 0.346764 0.997783
Si Si5 0.378300 0.716149 0.146533
O O1 0.180836 0.107170 0.900328
O O2 0.263195 0.170500 0.722735
O O3 0.170803 0.219495 0.508522
O O4 0.210791 0.000000 0.500000
O O5 0.616828 0.421446 0.788599
O O6 0.808161 0.500000 0.500000
O O7 0.863193 0.660050 0.690587
O O8 0.812319 0.500000 0.000000
O O9 0.924442 0.254105 0.998680
O O10 0.000000 0.323105 0.250000
O O11 0.955999 0.500000 0.000000
O O12 0.000000 0.324252 0.750000
#
# Coordination Sequence:
#
# PCOD9320036 Si02
#       5
#     8   4   8   8   8
#     4   9  21  39  59  93 141 187 227 277 334 407
#     4  10  22  42  64  96 142 188 232 276 356 400
#     4  11  25  41  65 105 145 188 238 283 339 413
#     4  10  24  47  74 104 136 174 229 302 372 423
#     4  11  25  40  74  99 142 186 236 289 356 431
#
# _framework density 23.054955
#
# number of rings (size 3 to 8) (size 9 to 14) (size 15 to 20)
#    0.000    1.778    1.111    0.667    9.333    2.667 
#    0.000    0.000    7.333    0.000    0.000    0.000 
#    0.000    0.000    0.000    0.000    0.000    0.000 
#
# Total GULP energy -100311.411446 kJ/mol
# GULP energy per Si atom -5572.856191 kJ/mol
# Density = 2.300248 g / cm^3
# Si number density = 23.054955 Si / 1000 Ang^3
#
#
#
# Elastic Constant Matrix: (Units=GPa)
#
#
# Indices 1 2 3 4 5 6 
#
# 1 126.5440 63.4052 44.2296 0.0000 0.0000 0.0000
# 2 63.4052 57.4047 26.0335 0.0000 0.0000 0.0000
# 3 44.2296 26.0335 110.3114 0.0000 0.0000 0.0000
# 4 0.0000 0.0000 0.0000 27.4713 0.0000 0.0000
# 5 0.0000 0.0000 0.0000 0.0000 43.7663 0.0000
# 6 0.0000 0.0000 0.0000 0.0000 0.0000 95.0500
#
#
#
# Elastic Compliance Matrix: (Units=1/GPa)
#
#
# Indices 1 2 3 4 5 6 
#
# 1 0.018491 -0.019107 -0.002905 0.000000 0.000000 0.000000
# 2 -0.019107 0.039251 -0.001602 0.000000 0.000000 0.000000
# 3 -0.002905 -0.001602 0.010608 0.000000 0.000000 0.000000
# 4 0.000000 0.000000 0.000000 0.036402 0.000000 0.000000
# 5 0.000000 0.000000 0.000000 0.000000 0.022849 0.000000
# 6 0.000000 0.000000 0.000000 0.000000 0.000000 0.010521
#
#
# Mechanical properties :
#
#
# Convention : Reuss Voigt Hill
#
# Bulk Modulus (GPa) = 47.34341 62.39963 54.87152
# Shear Modulus (GPa) = 25.98896 43.96365 34.97631
#
# Velocity S-wave (km/s) = 3.36111 4.37155 3.89920
# Velocity P-wave (km/s) = 5.97012 7.25293 6.64257
#
# Compressibility (1/GPa) = 0.02112226
#
# Stress axis : x y z
#
# Youngs Moduli (GPa) = 54.07994 25.47725 94.26746
#
# Poissons Ratio (x) = 0.48678 0.27384
# Poissons Ratio (y) = 1.03329 0.15105
# Poissons Ratio (z) = 0.15710 0.04082
#
# Static dielectric constant tensor:
#      x y z
#    x 1.803600 0.000000 0.000000 
#    y 0.000000 0.111240 0.000000 
#    z 0.000000 0.000000 1.214600 
# 
# From -- ./inp_files/3563.got.cif
#   From: 2010.05.17/outbox.cif.g08.bks.cpg/sg20_2_cif.got.tgz:3563.got - 2010.06.03 22:52:26.
