data_PCOD9320989
_publ_section_title
;
Structure prediction by ZEFSAII (Michael W. Deem and Ramdas Pophale) SiO2 
 PCOD9320989
Probable space group: C 2 2 21
;
_chemical_formula_sum "Si O2"
_cell_formula_units_Z 48
_cell_length_a 17.210597
_cell_length_b 8.226576
_cell_length_c 13.969963
_cell_angle_alpha 90.000000
_cell_angle_beta 90.000000
_cell_angle_gamma 90.000000
_cell_volume 1977.927212
_symmetry_space_group_name_H-M "C 2 2 21"
_symmetry_group_IT_number 20
_symmetry_cell_setting 'orthorhombic'
loop_
_space_group_symop_operation_xyz
x,y,z
-x,-y,1/2+z
x,-y,-z
-x,y,1/2-z
1/2+x,1/2+y,z
1/2-x,1/2-y,1/2+z
1/2+x,1/2-y,-z
1/2-x,1/2+y,1/2-z
loop_
_atom_site_type_symbol
_atom_site_label
_atom_site_fract_x
_atom_site_fract_y
_atom_site_fract_z
Si Si1 0.308560 0.138856 0.144123
Si Si2 0.754434 0.831589 0.958106
Si Si3 0.387324 0.795903 0.131543
Si Si4 0.370920 0.343136 0.678318
Si Si5 0.613560 0.715860 0.826011
Si Si6 0.473672 0.695112 0.496143
O O1 0.221825 0.148695 0.187170
O O2 0.367658 0.204510 0.224546
O O3 0.337353 0.958590 0.121279
O O4 0.293878 0.236005 0.046389
O O5 0.829723 0.855556 0.890848
O O6 0.689846 0.743751 0.893188
O O7 0.723358 0.000000 0.000000
O O8 0.406764 0.774429 0.242794
O O9 0.458524 0.784866 0.060039
O O10 0.399998 0.525902 0.691700
O O11 0.397677 0.292173 0.572220
O O12 0.544326 0.764584 0.898552
O O13 0.490532 0.500000 0.500000
#
# Coordination Sequence:
#
# PCOD9320989 Si02
#       6
#     8   8   8   8   8   8
#     4  12  24  43  73 113 145 193 254 319 367 445
#     4  12  25  42  71 103 147 196 254 312 370 449
#     4  12  25  44  72 110 152 193 250 318 379 446
#     4  11  21  43  75 107 146 194 250 303 381 451
#     4  11  24  44  75 106 146 198 254 305 376 458
#     4  10  24  46  74 105 152 204 244 305 382 459
#
# _framework density 24.267828000000002
#
# number of rings (size 3 to 8) (size 9 to 14) (size 15 to 20)
#    0.000    0.667    5.000    2.500    2.333    0.000 
#    0.000   10.833    0.000    0.000    0.000    0.000 
#    0.000    0.000    0.000    0.000    0.000    0.000 
#
# Total GULP energy -134206.027314 kJ/mol
# GULP energy per Si atom -5591.917805 kJ/mol
# Density = 2.421259 g / cm^3
# Si number density = 24.267828 Si / 1000 Ang^3
#
#
#
# Elastic Constant Matrix: (Units=GPa)
#
#
# Indices 1 2 3 4 5 6 
#
# 1 86.3293 13.4993 25.1167 0.0000 0.0000 0.0000
# 2 13.4993 67.3320 34.3870 0.0000 0.0000 0.0000
# 3 25.1167 34.3870 134.4014 0.0000 0.0000 0.0000
# 4 0.0000 0.0000 0.0000 42.2164 0.0000 0.0000
# 5 0.0000 0.0000 0.0000 0.0000 51.3554 0.0000
# 6 0.0000 0.0000 0.0000 0.0000 0.0000 7.7730
#
#
#
# Elastic Compliance Matrix: (Units=1/GPa)
#
#
# Indices 1 2 3 4 5 6 
#
# 1 0.012379 -0.001496 -0.001931 0.000000 0.000000 0.000000
# 2 -0.001496 0.017265 -0.004138 0.000000 0.000000 0.000000
# 3 -0.001931 -0.004138 0.008860 0.000000 0.000000 0.000000
# 4 0.000000 0.000000 0.000000 0.023687 0.000000 0.000000
# 5 0.000000 0.000000 0.000000 0.000000 0.019472 0.000000
# 6 0.000000 0.000000 0.000000 0.000000 0.000000 0.128650
#
#
# Mechanical properties :
#
#
# Convention : Reuss Voigt Hill
#
# Bulk Modulus (GPa) = 42.78013 48.22985 45.50499
# Shear Modulus (GPa) = 21.43773 34.60629 28.02201
#
# Velocity S-wave (km/s) = 2.97540 3.78036 3.40177
# Velocity P-wave (km/s) = 5.42868 6.24275 5.84989
#
# Compressibility (1/GPa) = 0.02337534
#
# Stress axis : x y z
#
# Youngs Moduli (GPa) = 80.78089 57.92117 112.86876
#
# Poissons Ratio (x) = 0.08664 0.21791
# Poissons Ratio (y) = 0.12084 0.46702
# Poissons Ratio (z) = 0.15596 0.23966
#
# Static dielectric constant tensor:
#      x y z
#    x 1.960220 0.000000 0.000000 
#    y 0.000000 1.875670 0.000000 
#    z 0.000000 0.000000 2.011040 
# 
# From -- ./inp_files/21300.got.cif
#   From: 2010.05.17/outbox.cif.g08.bks.cpg/sg20_11_cif.got.tgz:21300.got - 2010.06.03 22:52:26.
