data_PCOD9320058
_publ_section_title
;
Structure prediction by ZEFSAII (Michael W. Deem and Ramdas Pophale) SiO2 
 PCOD9320058
Probable space group: C 2 2 21
;
_chemical_formula_sum "Si O2"
_cell_formula_units_Z 56
_cell_length_a 9.433631
_cell_length_b 14.136939
_cell_length_c 20.039208
_cell_angle_alpha 90.000000
_cell_angle_beta 90.000000
_cell_angle_gamma 90.000000
_cell_volume 2672.482203
_symmetry_space_group_name_H-M "C 2 2 21"
_symmetry_group_IT_number 20
_symmetry_cell_setting 'orthorhombic'
loop_
_space_group_symop_operation_xyz
x,y,z
-x,-y,1/2+z
x,-y,-z
-x,y,1/2-z
1/2+x,1/2+y,z
1/2-x,1/2-y,1/2+z
1/2+x,1/2-y,-z
1/2-x,1/2+y,1/2-z
loop_
_atom_site_type_symbol
_atom_site_label
_atom_site_fract_x
_atom_site_fract_y
_atom_site_fract_z
Si Si1 0.836787 0.864431 0.370802
Si Si2 0.040661 0.932250 0.900393
Si Si3 0.706363 0.325444 0.787968
Si Si4 0.709684 0.888389 0.504034
Si Si5 0.747200 0.933050 0.848719
Si Si6 0.977308 0.321590 0.878703
Si Si7 0.337683 0.890975 0.264738
O O1 0.725296 0.846635 0.430444
O O2 0.754505 0.887453 0.302883
O O3 0.943155 0.776946 0.365735
O O4 0.919454 0.957938 0.393660
O O5 0.097429 0.884547 0.832424
O O6 0.136087 0.889361 0.959438
O O7 0.872536 0.923613 0.902028
O O8 0.716523 0.363378 0.713095
O O9 0.860077 0.337790 0.821795
O O10 0.663394 0.216160 0.790824
O O11 0.604972 0.830711 0.551502
O O12 0.667729 0.000000 0.500000
O O13 0.596555 0.901662 0.876495
O O14 0.733418 0.036620 0.816258
O O15 0.500000 0.920360 0.250000
#
# Coordination Sequence:
#
# PCOD9320058 Si02
#       7
#     8   8   8   8   8   8   8
#     4  11  23  43  68  91 133 172 220 266 325 388
#     4  10  22  42  66  92 127 176 210 266 323 392
#     4  11  22  40  62  94 136 168 210 261 335 389
#     4   9  23  46  66  86 128 179 222 264 326 380
#     4  12  23  37  66 100 130 162 216 268 329 386
#     4  11  24  42  66  97 128 172 217 276 319 388
#     4  12  25  38  64 102 134 168 217 270 331 399
#
# _framework density 20.954302999999999
#
# number of rings (size 3 to 8) (size 9 to 14) (size 15 to 20)
#    0.000    1.143    2.857    3.429    4.000    2.286 
#    2.571    3.571    0.000    0.000    0.000    0.000 
#    0.000    0.000    0.000    0.000    0.000    0.000 
#
# Total GULP energy -156629.591496 kJ/mol
# GULP energy per Si atom -5593.913982 kJ/mol
# Density = 2.090661 g / cm^3
# Si number density = 20.954303 Si / 1000 Ang^3
#
#
#
# Elastic Constant Matrix: (Units=GPa)
#
#
# Indices 1 2 3 4 5 6 
#
# 1 100.9180 15.4044 23.4468 0.0000 0.0000 0.0000
# 2 15.4044 66.7953 -0.0169 0.0000 0.0000 0.0000
# 3 23.4468 -0.0169 41.8236 0.0000 0.0000 0.0000
# 4 0.0000 0.0000 0.0000 14.6345 0.0000 0.0000
# 5 0.0000 0.0000 0.0000 0.0000 12.9443 0.0000
# 6 0.0000 0.0000 0.0000 0.0000 0.0000 23.8246
#
#
#
# Elastic Compliance Matrix: (Units=1/GPa)
#
#
# Indices 1 2 3 4 5 6 
#
# 1 0.011874 -0.002740 -0.006658 0.000000 0.000000 0.000000
# 2 -0.002740 0.015603 0.001542 0.000000 0.000000 0.000000
# 3 -0.006658 0.001542 0.027643 0.000000 0.000000 0.000000
# 4 0.000000 0.000000 0.000000 0.068332 0.000000 0.000000
# 5 0.000000 0.000000 0.000000 0.000000 0.077254 0.000000
# 6 0.000000 0.000000 0.000000 0.000000 0.000000 0.041973
#
#
# Mechanical properties :
#
#
# Convention : Reuss Voigt Hill
#
# Bulk Modulus (GPa) = 25.37457 31.91172 28.64315
# Shear Modulus (GPa) = 18.41435 21.66086 20.03761
#
# Velocity S-wave (km/s) = 2.96765 3.21864 3.09569
# Velocity P-wave (km/s) = 4.88655 5.39213 5.14555
#
# Compressibility (1/GPa) = 0.03940953
#
# Stress axis : x y z
#
# Youngs Moduli (GPa) = 84.21658 64.08850 36.17542
#
# Poissons Ratio (x) = 0.17561 0.24085
# Poissons Ratio (y) = 0.23076 -0.05580
# Poissons Ratio (z) = 0.56070 -0.09885
#
# Static dielectric constant tensor:
#      x y z
#    x 1.752840 0.000000 0.000000 
#    y 0.000000 1.737970 0.000000 
#    z 0.000000 0.000000 1.733960 
# 
# From -- ./inp_files/26715.got.cif
#   From: 2010.05.17/outbox.cif.g08.bks.cpg/sg20_14_cif.got.tgz:26715.got - 2010.06.03 22:52:26.
