data_PCOD9320965
_publ_section_title
;
Structure prediction by ZEFSAII (Michael W. Deem and Ramdas Pophale) SiO2 
 PCOD9320965
Probable space group: C 2 2 21
;
_chemical_formula_sum "Si O2"
_cell_formula_units_Z 32
_cell_length_a 10.468400
_cell_length_b 21.117814
_cell_length_c 6.242973
_cell_angle_alpha 90.000000
_cell_angle_beta 90.000000
_cell_angle_gamma 90.000000
_cell_volume 1380.132319
_symmetry_space_group_name_H-M "C 2 2 21"
_symmetry_group_IT_number 20
_symmetry_cell_setting 'orthorhombic'
loop_
_space_group_symop_operation_xyz
x,y,z
-x,-y,1/2+z
x,-y,-z
-x,y,1/2-z
1/2+x,1/2+y,z
1/2-x,1/2-y,1/2+z
1/2+x,1/2-y,-z
1/2-x,1/2+y,1/2-z
loop_
_atom_site_type_symbol
_atom_site_label
_atom_site_fract_x
_atom_site_fract_y
_atom_site_fract_z
Si Si1 0.500000 0.434664 0.750000
Si Si2 0.863952 0.604050 0.179481
Si Si3 0.669697 0.346509 0.498257
Si Si4 0.860744 0.294404 0.151135
Si Si5 0.210252 0.000000 0.000000
O O1 0.542309 0.388782 0.550309
O O2 0.385013 0.481165 0.689263
O O3 0.776642 0.611115 0.386603
O O4 0.801668 0.560350 0.997074
O O5 0.000000 0.579301 0.250000
O O6 0.870009 0.673523 0.079919
O O7 0.737884 0.322925 0.278772
O O8 0.650057 0.280852 0.626134
O O9 0.000000 0.309347 0.250000
#
# Coordination Sequence:
#
# PCOD9320965 Si02
#       5
#     4   8   8   8   4
#     4  10  24  46  68 102 142 184 238 294 340 426
#     4  11  24  45  65  99 140 185 239 290 342 418
#     4  11  23  41  67 104 143 179 231 284 358 416
#     4  12  23  39  70 103 142 187 224 288 354 421
#     4  10  26  46  68  96 138 186 238 284 344 408
#
# _framework density 23.186181999999999
#
# number of rings (size 3 to 8) (size 9 to 14) (size 15 to 20)
#    0.000    1.000    6.250    0.000    3.500    1.000 
#    0.000    5.000    0.000    0.000    0.000    0.000 
#    0.000    0.000    0.000    0.000    0.000    0.000 
#
# Total GULP energy -89145.373027 kJ/mol
# GULP energy per Si atom -5571.585814 kJ/mol
# Density = 2.313341 g / cm^3
# Si number density = 23.186182 Si / 1000 Ang^3
#
#
#
# Elastic Constant Matrix: (Units=GPa)
#
#
# Indices 1 2 3 4 5 6 
#
# 1 104.4832 28.9398 17.5979 0.0000 0.0000 0.0000
# 2 28.9398 96.9363 9.7749 0.0000 0.0000 0.0000
# 3 17.5979 9.7749 37.5731 0.0000 0.0000 0.0000
# 4 0.0000 0.0000 0.0000 30.1888 0.0000 0.0000
# 5 0.0000 0.0000 0.0000 0.0000 27.7696 0.0000
# 6 0.0000 0.0000 0.0000 0.0000 0.0000 10.8985
#
#
#
# Elastic Compliance Matrix: (Units=1/GPa)
#
#
# Indices 1 2 3 4 5 6 
#
# 1 0.011117 -0.002869 -0.004460 0.000000 0.000000 0.000000
# 2 -0.002869 0.011334 -0.001605 0.000000 0.000000 0.000000
# 3 -0.004460 -0.001605 0.029121 0.000000 0.000000 0.000000
# 4 0.000000 0.000000 0.000000 0.033125 0.000000 0.000000
# 5 0.000000 0.000000 0.000000 0.000000 0.036011 0.000000
# 6 0.000000 0.000000 0.000000 0.000000 0.000000 0.091755
#
#
# Mechanical properties :
#
#
# Convention : Reuss Voigt Hill
#
# Bulk Modulus (GPa) = 29.67010 39.06864 34.36937
# Shear Modulus (GPa) = 20.69820 25.95005 23.32412
#
# Velocity S-wave (km/s) = 2.99104 3.34908 3.17511
# Velocity P-wave (km/s) = 4.97521 5.64284 5.31951
#
# Compressibility (1/GPa) = 0.03370397
#
# Stress axis : x y z
#
# Youngs Moduli (GPa) = 89.95361 88.22663 34.33900
#
# Poissons Ratio (x) = 0.25313 0.15316
# Poissons Ratio (y) = 0.25809 0.05511
# Poissons Ratio (z) = 0.40122 0.14160
#
# Static dielectric constant tensor:
#      x y z
#    x 1.940660 0.000000 0.000000 
#    y 0.000000 1.831990 0.000000 
#    z 0.000000 0.000000 1.912530 
# 
# From -- ./inp_files/1057.got.cif
#   From: 2010.05.17/outbox.cif.g08.bks.cpg/sg20_1_cif.got.tgz:1057.got - 2010.06.03 22:52:26.
