data_PCOD9320418
_publ_section_title
;
Structure prediction by ZEFSAII (Michael W. Deem and Ramdas Pophale) SiO2 
 PCOD9320418
Probable space group: C 2 2 21
;
_chemical_formula_sum "Si O2"
_cell_formula_units_Z 28
_cell_length_a 30.032487
_cell_length_b 5.199779
_cell_length_c 8.184206
_cell_angle_alpha 90.000000
_cell_angle_beta 90.000000
_cell_angle_gamma 90.000000
_cell_volume 1278.064394
_symmetry_space_group_name_H-M "C 2 2 21"
_symmetry_group_IT_number 20
_symmetry_cell_setting 'orthorhombic'
loop_
_space_group_symop_operation_xyz
x,y,z
-x,-y,1/2+z
x,-y,-z
-x,y,1/2-z
1/2+x,1/2+y,z
1/2-x,1/2-y,1/2+z
1/2+x,1/2-y,-z
1/2-x,1/2+y,1/2-z
loop_
_atom_site_type_symbol
_atom_site_label
_atom_site_fract_x
_atom_site_fract_y
_atom_site_fract_z
Si Si1 0.135320 0.159420 0.833026
Si Si2 0.778756 0.659292 0.211035
Si Si3 0.330413 0.500000 0.000000
Si Si4 0.036001 0.744872 0.109136
O O1 0.176233 0.358503 0.818640
O O2 0.086658 0.283352 0.827027
O O3 0.141879 0.986134 0.668148
O O4 0.139448 0.000000 0.000000
O O5 0.747400 0.416229 0.229627
O O6 0.798769 0.758125 0.037854
O O7 0.000000 0.770117 0.250000
O O8 0.024957 0.500000 0.000000
O O9 0.035434 0.000000 0.000000
#
# Coordination Sequence:
#
# PCOD9320418 Si02
#       4
#     8   8   4   8
#     4   9  22  41  66  96 137 171 233 279 342 401
#     4  10  23  38  60  94 132 176 228 273 330 402
#     4   8  22  40  64  96 128 190 222 278 348 396
#     4  11  25  47  73 106 139 181 231 290 359 421
#
# _framework density 21.90813
#
# number of rings (size 3 to 8) (size 9 to 14) (size 15 to 20)
#    1.714    0.571    0.000    0.857    6.000    4.571 
#    0.000    0.000    0.000    0.000    0.000    0.000 
#    0.000    0.000    0.000    0.000    0.000    0.000 
#
# Total GULP energy -78099.404901 kJ/mol
# GULP energy per Si atom -5578.528922 kJ/mol
# Density = 2.185827 g / cm^3
# Si number density = 21.908130 Si / 1000 Ang^3
#
#
#
# Elastic Constant Matrix: (Units=GPa)
#
#
# Indices 1 2 3 4 5 6 
#
# 1 157.4530 32.3033 37.5669 0.0000 0.0000 0.0000
# 2 32.3033 107.8885 17.5569 0.0000 0.0000 0.0000
# 3 37.5669 17.5569 127.9977 0.0000 0.0000 0.0000
# 4 0.0000 0.0000 0.0000 23.4558 0.0000 0.0000
# 5 0.0000 0.0000 0.0000 0.0000 105.3800 0.0000
# 6 0.0000 0.0000 0.0000 0.0000 0.0000 193.9330
#
#
#
# Elastic Compliance Matrix: (Units=1/GPa)
#
#
# Indices 1 2 3 4 5 6 
#
# 1 0.007172 -0.001846 -0.001852 0.000000 0.000000 0.000000
# 2 -0.001846 0.009956 -0.000824 0.000000 0.000000 0.000000
# 3 -0.001852 -0.000824 0.008469 0.000000 0.000000 0.000000
# 4 0.000000 0.000000 0.000000 0.042633 0.000000 0.000000
# 5 0.000000 0.000000 0.000000 0.000000 0.009489 0.000000
# 6 0.000000 0.000000 0.000000 0.000000 0.000000 0.005156
#
#
# Mechanical properties :
#
#
# Convention : Reuss Voigt Hill
#
# Bulk Modulus (GPa) = 60.41011 63.13259 61.77135
# Shear Modulus (GPa) = 51.31571 84.94791 68.13181
#
# Velocity S-wave (km/s) = 4.84500 6.23368 5.58269
# Velocity P-wave (km/s) = 7.67677 8.98283 8.35536
#
# Compressibility (1/GPa) = 0.01655352
#
# Stress axis : x y z
#
# Youngs Moduli (GPa) = 139.43875 100.44615 118.07649
#
# Poissons Ratio (x) = 0.18542 0.21864
# Poissons Ratio (y) = 0.25740 0.09727
# Poissons Ratio (z) = 0.25819 0.08275
#
# Static dielectric constant tensor:
#      x y z
#    x 1.790350 0.000000 0.000000 
#    y 0.000000 1.798640 0.000000 
#    z 0.000000 0.000000 1.861010 
# 
# From -- ./inp_files/10908.got.cif
#   From: 2010.05.17/outbox.cif.g08.bks.cpg/sg20_6_cif.got.tgz:10908.got - 2010.06.03 22:52:26.
