data_PCOD9320310
_publ_section_title
;
Structure prediction by ZEFSAII (Michael W. Deem and Ramdas Pophale) SiO2 
 PCOD9320310
Probable space group: C 2 2 21
;
_chemical_formula_sum "Si O2"
_cell_formula_units_Z 60
_cell_length_a 10.875349
_cell_length_b 27.246074
_cell_length_c 9.845137
_cell_angle_alpha 90.000000
_cell_angle_beta 90.000000
_cell_angle_gamma 90.000000
_cell_volume 2917.218093
_symmetry_space_group_name_H-M "C 2 2 21"
_symmetry_group_IT_number 20
_symmetry_cell_setting 'orthorhombic'
loop_
_space_group_symop_operation_xyz
x,y,z
-x,-y,1/2+z
x,-y,-z
-x,y,1/2-z
1/2+x,1/2+y,z
1/2-x,1/2-y,1/2+z
1/2+x,1/2-y,-z
1/2-x,1/2+y,1/2-z
loop_
_atom_site_type_symbol
_atom_site_label
_atom_site_fract_x
_atom_site_fract_y
_atom_site_fract_z
Si Si1 0.640018 0.566395 0.690643
Si Si2 0.201659 0.852763 0.539186
Si Si3 0.217059 0.500000 0.000000
Si Si4 0.498519 0.072103 0.411512
Si Si5 0.867370 0.130131 0.318370
Si Si6 0.962227 0.685415 0.408930
Si Si7 0.737453 0.553916 0.975960
Si Si8 0.484767 0.276598 0.597532
O O1 0.500000 0.565143 0.750000
O O2 0.665119 0.609488 0.579713
O O3 0.691059 0.517028 0.619309
O O4 0.725026 0.571696 0.822434
O O5 0.220789 0.876918 0.689065
O O6 0.323034 0.820311 0.533617
O O7 0.090053 0.815379 0.559006
O O8 0.122983 0.544959 0.031406
O O9 0.500000 0.064218 0.250000
O O10 0.508437 0.130379 0.439868
O O11 0.622324 0.051650 0.476557
O O12 0.835658 0.092044 0.432315
O O13 0.869146 0.185428 0.381522
O O14 0.000000 0.120673 0.250000
O O15 0.000367 0.733452 0.490982
O O16 0.000000 0.692874 0.250000
O O17 0.682108 0.500000 0.000000
O O18 0.500000 0.256202 0.750000
#
# Coordination Sequence:
#
# PCOD9320310 Si02
#       8
#     8   8   4   8   8   8   8   8
#     4  12  28  46  70 108 138 186 245 294 353 418
#     4  10  22  45  68  93 144 186 229 298 367 419
#     4  12  26  48  74  96 152 190 220 300 352 432
#     4  11  24  46  69 102 143 189 232 283 364 431
#     4   9  20  43  66  89 137 190 230 291 362 415
#     4  11  23  40  69 103 133 181 239 285 357 432
#     4  12  26  41  68 104 140 177 246 288 351 434
#     4   9  22  42  65  95 136 185 235 292 367 407
#
# _framework density 20.567540000000001
#
# number of rings (size 3 to 8) (size 9 to 14) (size 15 to 20)
#    0.000    1.600    2.000    4.000    2.800    6.400 
#    0.000    0.000    0.000    0.000    0.000    0.000 
#    0.000    0.000    0.000    0.000    0.000    0.000 
#
# Total GULP energy -167122.314569 kJ/mol
# GULP energy per Si atom -5570.743819 kJ/mol
# Density = 2.052073 g / cm^3
# Si number density = 20.567540 Si / 1000 Ang^3
#
#
#
# Elastic Constant Matrix: (Units=GPa)
#
#
# Indices 1 2 3 4 5 6 
#
# 1 67.5403 23.9839 24.1309 0.0000 0.0000 0.0000
# 2 23.9839 134.9055 84.9026 0.0000 0.0000 0.0000
# 3 24.1309 84.9026 122.7039 0.0000 0.0000 0.0000
# 4 0.0000 0.0000 0.0000 -3.1861 0.0000 0.0000
# 5 0.0000 0.0000 0.0000 0.0000 30.5673 0.0000
# 6 0.0000 0.0000 0.0000 0.0000 0.0000 30.2158
#
#
#
# Elastic Compliance Matrix: (Units=1/GPa)
#
#
# Indices 1 2 3 4 5 6 
#
# 1 0.016104 -0.001541 -0.002101 0.000000 0.000000 0.000000
# 2 -0.001541 0.013278 -0.008884 0.000000 0.000000 0.000000
# 3 -0.002101 -0.008884 0.014710 0.000000 0.000000 0.000000
# 4 0.000000 0.000000 0.000000 -0.313864 0.000000 0.000000
# 5 0.000000 0.000000 0.000000 0.000000 0.032715 0.000000
# 6 0.000000 0.000000 0.000000 0.000000 0.000000 0.033095
#
#
# Mechanical properties :
#
#
# Convention : Reuss Voigt Hill
#
# Bulk Modulus (GPa) = 52.52149 65.68717 59.10433
# Shear Modulus (GPa) = -28.97487 24.32822 -2.32332
#
# Velocity S-wave (km/s) = -3.75743 3.44298 -1.06398
# Velocity P-wave (km/s) = 2.60139 6.91463 5.22395
#
# Compressibility (1/GPa) = 0.01903983
#
# Stress axis : x y z
#
# Youngs Moduli (GPa) = 62.09747 75.31319 67.98008
#
# Poissons Ratio (x) = 0.11605 0.14281
# Poissons Ratio (y) = 0.09568 0.60396
# Poissons Ratio (z) = 0.13045 0.66911
#
# Static dielectric constant tensor:
#      x y z
#    x 2.797690 0.000000 0.000000 
#    y 0.000000 1.758850 0.000000 
#    z 0.000000 0.000000 0.865060 
# 
# From -- ./inp_files/7583.got.cif
#   From: 2010.05.17/outbox.cif.g08.bks.cpg/sg20_4_cif.got.tgz:7583.got - 2010.06.03 22:52:26.
