data_PCOD9320622
_publ_section_title
;
Structure prediction by ZEFSAII (Michael W. Deem and Ramdas Pophale) SiO2 
 PCOD9320622
Probable space group: C 2 2 21
;
_chemical_formula_sum "Si O2"
_cell_formula_units_Z 40
_cell_length_a 7.883924
_cell_length_b 17.686200
_cell_length_c 13.916099
_cell_angle_alpha 90.000000
_cell_angle_beta 90.000000
_cell_angle_gamma 90.000000
_cell_volume 1940.414318
_symmetry_space_group_name_H-M "C 2 2 21"
_symmetry_group_IT_number 20
_symmetry_cell_setting 'orthorhombic'
loop_
_space_group_symop_operation_xyz
x,y,z
-x,-y,1/2+z
x,-y,-z
-x,y,1/2-z
1/2+x,1/2+y,z
1/2-x,1/2-y,1/2+z
1/2+x,1/2-y,-z
1/2-x,1/2+y,1/2-z
loop_
_atom_site_type_symbol
_atom_site_label
_atom_site_fract_x
_atom_site_fract_y
_atom_site_fract_z
Si Si1 0.238344 0.355755 0.535930
Si Si2 0.617780 0.191651 0.951911
Si Si3 0.310761 0.156078 0.256167
Si Si4 0.000000 0.264889 0.250000
Si Si5 0.245669 0.064065 0.436349
Si Si6 0.577080 0.500000 0.000000
O O1 0.342197 0.278291 0.523443
O O2 0.236743 0.372130 0.650021
O O3 0.311075 0.427043 0.479272
O O4 0.048812 0.337015 0.505152
O O5 0.578078 0.189144 0.838754
O O6 0.762784 0.136815 0.993304
O O7 0.500000 0.191624 0.250000
O O8 0.157763 0.212601 0.285347
O O9 0.319650 0.090979 0.336071
O O10 0.339768 0.000000 0.500000
O O11 0.059061 0.028782 0.420924
#
# Coordination Sequence:
#
# PCOD9320622 Si02
#       6
#     8   8   8   4   8   4
#     4  11  23  39  71  95 134 175 226 281 344 418
#     4  11  22  42  65  96 133 175 221 279 345 407
#     4  11  21  42  69  98 129 185 225 276 354 418
#     4  10  24  40  66 104 136 172 234 288 342 428
#     4  10  23  44  65  94 135 174 228 285 339 406
#     4  10  24  42  62 100 130 178 226 282 356 392
#
# _framework density 20.614153000000002
#
# number of rings (size 3 to 8) (size 9 to 14) (size 15 to 20)
#    0.600    0.800    2.000    4.800    1.400    0.000 
#    5.400    0.000    0.000    2.400    0.000    0.000 
#    0.000    0.000    0.000    0.000    0.000    0.000 
#
# Total GULP energy -111480.059671 kJ/mol
# GULP energy per Si atom -5574.002984 kJ/mol
# Density = 2.056723 g / cm^3
# Si number density = 20.614153 Si / 1000 Ang^3
#
#
#
# Elastic Constant Matrix: (Units=GPa)
#
#
# Indices 1 2 3 4 5 6 
#
# 1 88.2619 36.7397 8.5059 0.0000 0.0000 0.0000
# 2 36.7397 128.0262 53.2404 0.0000 0.0000 0.0000
# 3 8.5059 53.2404 88.2319 0.0000 0.0000 0.0000
# 4 0.0000 0.0000 0.0000 21.2443 0.0000 0.0000
# 5 0.0000 0.0000 0.0000 0.0000 23.6722 0.0000
# 6 0.0000 0.0000 0.0000 0.0000 0.0000 24.0746
#
#
#
# Elastic Compliance Matrix: (Units=1/GPa)
#
#
# Indices 1 2 3 4 5 6 
#
# 1 0.012983 -0.004279 0.001330 0.000000 0.000000 0.000000
# 2 -0.004279 0.011838 -0.006731 0.000000 0.000000 0.000000
# 3 0.001330 -0.006731 0.015267 0.000000 0.000000 0.000000
# 4 0.000000 0.000000 0.000000 0.047071 0.000000 0.000000
# 5 0.000000 0.000000 0.000000 0.000000 0.042244 0.000000
# 6 0.000000 0.000000 0.000000 0.000000 0.000000 0.041538
#
#
# Mechanical properties :
#
#
# Convention : Reuss Voigt Hill
#
# Bulk Modulus (GPa) = 48.24114 55.72132 51.98123
# Shear Modulus (GPa) = 25.35395 27.53384 26.44389
#
# Velocity S-wave (km/s) = 3.51084 3.65866 3.58551
# Velocity P-wave (km/s) = 6.31565 6.70350 6.51246
#
# Compressibility (1/GPa) = 0.02072919
#
# Stress axis : x y z
#
# Youngs Moduli (GPa) = 77.02473 84.47541 65.50149
#
# Poissons Ratio (x) = 0.36146 -0.08714
# Poissons Ratio (y) = 0.32958 0.44086
# Poissons Ratio (z) = -0.10247 0.56857
#
# Static dielectric constant tensor:
#      x y z
#    x 1.788490 0.000000 0.000000 
#    y 0.000000 1.758890 0.000000 
#    z 0.000000 0.000000 1.741970 
# 
# From -- ./inp_files/18590.got.cif
#   From: 2010.05.17/outbox.cif.g08.bks.cpg/sg20_10_cif.got.tgz:18590.got - 2010.06.03 22:52:26.
