data_PCOD9320680
_publ_section_title
;
Structure prediction by ZEFSAII (Michael W. Deem and Ramdas Pophale) SiO2 
 PCOD9320680
Probable space group: C 2 2 21
;
_chemical_formula_sum "Si O2"
_cell_formula_units_Z 36
_cell_length_a 7.221712
_cell_length_b 13.547245
_cell_length_c 18.413547
_cell_angle_alpha 90.000000
_cell_angle_beta 90.000000
_cell_angle_gamma 90.000000
_cell_volume 1801.476514
_symmetry_space_group_name_H-M "C 2 2 21"
_symmetry_group_IT_number 20
_symmetry_cell_setting 'orthorhombic'
loop_
_space_group_symop_operation_xyz
x,y,z
-x,-y,1/2+z
x,-y,-z
-x,y,1/2-z
1/2+x,1/2+y,z
1/2-x,1/2-y,1/2+z
1/2+x,1/2-y,-z
1/2-x,1/2+y,1/2-z
loop_
_atom_site_type_symbol
_atom_site_label
_atom_site_fract_x
_atom_site_fract_y
_atom_site_fract_z
Si Si1 0.000000 0.037738 0.250000
Si Si2 0.215233 0.302009 0.749199
Si Si3 0.159123 0.876865 0.357797
Si Si4 0.198800 0.761050 0.088849
Si Si5 0.028310 0.390593 0.022774
O O1 0.840720 0.109867 0.279083
O O2 0.912479 0.969235 0.188327
O O3 0.266377 0.274169 0.831767
O O4 0.000000 0.331587 0.750000
O O5 0.228668 0.205882 0.699067
O O6 0.321839 0.901228 0.413002
O O7 0.981775 0.829013 0.397634
O O8 0.357575 0.823309 0.049116
O O9 0.131536 0.667925 0.041880
O O10 0.966994 0.500000 0.000000
#
# Coordination Sequence:
#
# PCOD9320680 Si02
#       5
#     4   8   8   8   8
#     4  12  22  42  72  98 132 176 216 278 336 386
#     4  10  23  45  70  97 135 174 223 278 332 393
#     4  11  24  45  68 102 134 171 230 276 326 402
#     4  11  23  47  66  97 139 175 223 283 326 396
#     4  12  26  43  70  97 135 183 222 269 341 398
#
# _framework density 19.983606999999999
#
# number of rings (size 3 to 8) (size 9 to 14) (size 15 to 20)
#    0.000    0.889    5.556    2.667    0.000    6.222 
#    6.000    0.000    0.000    0.000    0.000    0.000 
#    0.000    0.000    0.000    0.000    0.000    0.000 
#
# Total GULP energy -100689.051924 kJ/mol
# GULP energy per Si atom -5593.836218 kJ/mol
# Density = 1.993812 g / cm^3
# Si number density = 19.983607 Si / 1000 Ang^3
#
#
#
# Elastic Constant Matrix: (Units=GPa)
#
#
# Indices 1 2 3 4 5 6 
#
# 1 37.3343 43.4178 25.3719 0.0000 0.0000 0.0000
# 2 43.4178 118.5231 23.2618 0.0000 0.0000 0.0000
# 3 25.3719 23.2618 75.3927 0.0000 0.0000 0.0000
# 4 0.0000 0.0000 0.0000 -19.7573 0.0000 0.0000
# 5 0.0000 0.0000 0.0000 0.0000 31.2475 0.0000
# 6 0.0000 0.0000 0.0000 0.0000 0.0000 44.8958
#
#
#
# Elastic Compliance Matrix: (Units=1/GPa)
#
#
# Indices 1 2 3 4 5 6 
#
# 1 0.057404 -0.018348 -0.013657 0.000000 0.000000 0.000000
# 2 -0.018348 0.014846 0.001594 0.000000 0.000000 0.000000
# 3 -0.013657 0.001594 0.017368 0.000000 0.000000 0.000000
# 4 0.000000 0.000000 0.000000 -0.050614 0.000000 0.000000
# 5 0.000000 0.000000 0.000000 0.000000 0.032003 0.000000
# 6 0.000000 0.000000 0.000000 0.000000 0.000000 0.022274
#
#
# Mechanical properties :
#
#
# Convention : Reuss Voigt Hill
#
# Bulk Modulus (GPa) = 34.72729 46.15035 40.43882
# Shear Modulus (GPa) = 30.54364 20.55710 25.55037
#
# Velocity S-wave (km/s) = 3.91376 3.21081 3.57958
# Velocity P-wave (km/s) = 6.15134 6.07371 6.11265
#
# Compressibility (1/GPa) = 0.02879580
#
# Stress axis : x y z
#
# Youngs Moduli (GPa) = 17.42040 67.36000 57.57709
#
# Poissons Ratio (x) = 1.23592 0.78633
# Poissons Ratio (y) = 0.31963 -0.09179
# Poissons Ratio (z) = 0.23791 -0.10738
#
# Static dielectric constant tensor:
#      x y z
#    x 1.699380 0.000000 0.000000 
#    y 0.000000 1.677800 0.000000 
#    z 0.000000 0.000000 1.697370 
# 
# From -- ./inp_files/25929.got.cif
#   From: 2010.05.17/outbox.cif.g08.bks.cpg/sg20_13_cif.got.tgz:25929.got - 2010.06.03 22:52:26.
