data_PCOD9320606
_publ_section_title
;
Structure prediction by ZEFSAII (Michael W. Deem and Ramdas Pophale) SiO2 
 PCOD9320606
Probable space group: C 2 2 21
;
_chemical_formula_sum "Si O2"
_cell_formula_units_Z 32
_cell_length_a 9.792764
_cell_length_b 31.834461
_cell_length_c 4.907598
_cell_angle_alpha 90.000000
_cell_angle_beta 90.000000
_cell_angle_gamma 90.000000
_cell_volume 1529.930738
_symmetry_space_group_name_H-M "C 2 2 21"
_symmetry_group_IT_number 20
_symmetry_cell_setting 'orthorhombic'
loop_
_space_group_symop_operation_xyz
x,y,z
-x,-y,1/2+z
x,-y,-z
-x,y,1/2-z
1/2+x,1/2+y,z
1/2-x,1/2-y,1/2+z
1/2+x,1/2-y,-z
1/2-x,1/2+y,1/2-z
loop_
_atom_site_type_symbol
_atom_site_label
_atom_site_fract_x
_atom_site_fract_y
_atom_site_fract_z
Si Si1 0.093083 0.357388 0.006261
Si Si2 0.500000 0.324526 0.250000
Si Si3 0.750732 0.777413 0.251524
Si Si4 0.370544 0.400458 0.943932
Si Si5 0.500000 0.469868 0.250000
O O1 0.212666 0.388588 0.892621
O O2 0.000000 0.345863 0.750000
O O3 0.156331 0.314888 0.140070
O O4 0.000000 0.376309 0.250000
O O5 0.384118 0.297671 0.391356
O O6 0.577334 0.355895 0.447389
O O7 0.694131 0.747962 0.488858
O O8 0.500000 0.412401 0.750000
O O9 0.379012 0.438003 0.163367
O O10 0.463700 0.500000 0.500000
#
# Coordination Sequence:
#
# PCOD9320606 Si02
#       5
#     8   4   8   8   4
#     4  11  26  43  64  94 132 177 229 271 338 405
#     4   9  24  38  58  84 124 168 218 266 326 378
#     4  11  25  39  58  84 123 168 223 285 332 376
#     4  10  23  43  71  97 133 170 219 264 329 394
#     4  11  22  40  72 112 132 158 210 268 318 388
#
# _framework density 20.915980999999999
#
# number of rings (size 3 to 8) (size 9 to 14) (size 15 to 20)
#    0.000    1.500    1.250    1.500   22.750    0.000 
#    0.000    0.000    0.000    3.000    0.000    0.000 
#    0.000    0.000    0.000    0.000    0.000    0.000 
#
# Total GULP energy -89094.451864 kJ/mol
# GULP energy per Si atom -5568.403242 kJ/mol
# Density = 2.086837 g / cm^3
# Si number density = 20.915981 Si / 1000 Ang^3
#
#
#
# Elastic Constant Matrix: (Units=GPa)
#
#
# Indices 1 2 3 4 5 6 
#
# 1 109.8591 37.9135 26.7724 0.0000 0.0000 0.0000
# 2 37.9135 89.7618 22.8264 0.0000 0.0000 0.0000
# 3 26.7724 22.8264 83.4326 0.0000 0.0000 0.0000
# 4 0.0000 0.0000 0.0000 28.5496 0.0000 0.0000
# 5 0.0000 0.0000 0.0000 0.0000 33.0296 0.0000
# 6 0.0000 0.0000 0.0000 0.0000 0.0000 54.0003
#
#
#
# Elastic Compliance Matrix: (Units=1/GPa)
#
#
# Indices 1 2 3 4 5 6 
#
# 1 0.011103 -0.004067 -0.002450 0.000000 0.000000 0.000000
# 2 -0.004067 0.013463 -0.002378 0.000000 0.000000 0.000000
# 3 -0.002450 -0.002378 0.013423 0.000000 0.000000 0.000000
# 4 0.000000 0.000000 0.000000 0.035027 0.000000 0.000000
# 5 0.000000 0.000000 0.000000 0.000000 0.030276 0.000000
# 6 0.000000 0.000000 0.000000 0.000000 0.000000 0.018518
#
#
# Mechanical properties :
#
#
# Convention : Reuss Voigt Hill
#
# Bulk Modulus (GPa) = 49.50925 50.89759 50.20342
# Shear Modulus (GPa) = 34.16855 36.15198 35.16027
#
# Velocity S-wave (km/s) = 4.04618 4.16196 4.10448
# Velocity P-wave (km/s) = 6.74912 6.89079 6.82033
#
# Compressibility (1/GPa) = 0.02019824
#
# Stress axis : x y z
#
# Youngs Moduli (GPa) = 90.06473 74.27706 74.50061
#
# Poissons Ratio (x) = 0.30206 0.18255
# Poissons Ratio (y) = 0.36626 0.17720
# Poissons Ratio (z) = 0.22068 0.17667
#
# Static dielectric constant tensor:
#      x y z
#    x 1.862370 0.000000 0.000000 
#    y 0.000000 1.752020 0.000000 
#    z 0.000000 0.000000 1.836030 
# 
# From -- ./inp_files/613.got.cif
#   From: 2010.05.17/outbox.cif.g08.bks.cpg/sg20_1_cif.got.tgz:613.got - 2010.06.03 22:52:26.
