data_PCOD9320999
_publ_section_title
;
Structure prediction by ZEFSAII (Michael W. Deem and Ramdas Pophale) SiO2 
 PCOD9320999
Probable space group: C 2 2 21
;
_chemical_formula_sum "Si O2"
_cell_formula_units_Z 48
_cell_length_a 17.425577
_cell_length_b 22.074871
_cell_length_c 5.440519
_cell_angle_alpha 90.000000
_cell_angle_beta 90.000000
_cell_angle_gamma 90.000000
_cell_volume 2092.790105
_symmetry_space_group_name_H-M "C 2 2 21"
_symmetry_group_IT_number 20
_symmetry_cell_setting 'orthorhombic'
loop_
_space_group_symop_operation_xyz
x,y,z
-x,-y,1/2+z
x,-y,-z
-x,y,1/2-z
1/2+x,1/2+y,z
1/2-x,1/2-y,1/2+z
1/2+x,1/2-y,-z
1/2-x,1/2+y,1/2-z
loop_
_atom_site_type_symbol
_atom_site_label
_atom_site_fract_x
_atom_site_fract_y
_atom_site_fract_z
Si Si1 0.718203 0.000000 0.000000
Si Si2 0.926007 0.270543 0.414425
Si Si3 0.211117 0.092975 0.847290
Si Si4 0.500000 0.138486 0.250000
Si Si5 0.362526 0.933385 0.881492
Si Si6 0.451062 0.370904 0.500607
Si Si7 0.237797 0.285076 0.171363
O O1 0.661874 0.947792 0.898884
O O2 0.772584 0.031517 0.800485
O O3 0.937865 0.316839 0.633493
O O4 0.927525 0.200287 0.490822
O O5 0.851775 0.290482 0.267678
O O6 0.000000 0.278830 0.250000
O O7 0.129793 0.093835 0.983577
O O8 0.215254 0.152525 0.673900
O O9 0.286970 0.099812 0.015273
O O10 0.555018 0.096608 0.413810
O O11 0.365388 0.000000 0.000000
O O12 0.500000 0.381296 0.250000
O O13 0.500000 0.383252 0.750000
O O14 0.265528 0.243664 0.398536
#
# Coordination Sequence:
#
# PCOD9320999 Si02
#       7
#     4   8   8   4   8   8   8
#     4  10  24  46  78 102 140 200 254 312 368 434
#     4  11  25  41  65 102 150 186 240 290 367 437
#     4  11  25  46  76 102 149 193 255 310 376 444
#     4  12  24  42  72 100 152 190 244 300 364 446
#     4  10  25  45  69 103 140 194 251 311 369 434
#     4  11  26  44  73 108 150 190 237 305 379 442
#     4  12  28  43  73 111 149 199 247 297 369 457
#
# _framework density 22.935886
#
# number of rings (size 3 to 8) (size 9 to 14) (size 15 to 20)
#    0.000    1.000    2.500    2.000   15.167    1.333 
#    0.000    0.000    5.500    0.000    0.000    0.000 
#    0.000    0.000    0.000    0.000    0.000    0.000 
#
# Total GULP energy -134044.746801 kJ/mol
# GULP energy per Si atom -5585.197783 kJ/mol
# Density = 2.288368 g / cm^3
# Si number density = 22.935886 Si / 1000 Ang^3
#
#
#
# Elastic Constant Matrix: (Units=GPa)
#
#
# Indices 1 2 3 4 5 6 
#
# 1 155.7834 23.3457 31.3820 0.0000 0.0000 0.0000
# 2 23.3457 47.2956 16.8497 0.0000 0.0000 0.0000
# 3 31.3820 16.8497 68.2247 0.0000 0.0000 0.0000
# 4 0.0000 0.0000 0.0000 27.8582 0.0000 0.0000
# 5 0.0000 0.0000 0.0000 0.0000 39.2292 0.0000
# 6 0.0000 0.0000 0.0000 0.0000 0.0000 -58.6561
#
#
#
# Elastic Compliance Matrix: (Units=1/GPa)
#
#
# Indices 1 2 3 4 5 6 
#
# 1 0.007369 -0.002664 -0.002731 0.000000 0.000000 0.000000
# 2 -0.002664 0.024147 -0.004738 0.000000 0.000000 0.000000
# 3 -0.002731 -0.004738 0.017084 0.000000 0.000000 0.000000
# 4 0.000000 0.000000 0.000000 0.035896 0.000000 0.000000
# 5 0.000000 0.000000 0.000000 0.000000 0.025491 0.000000
# 6 0.000000 0.000000 0.000000 0.000000 0.000000 -0.017049
#
#
# Mechanical properties :
#
#
# Convention : Reuss Voigt Hill
#
# Bulk Modulus (GPa) = 35.29589 46.05095 40.67342
# Shear Modulus (GPa) = 40.76652 15.00134 27.88393
#
# Velocity S-wave (km/s) = 4.22051 2.56023 3.49052
# Velocity P-wave (km/s) = 6.25880 5.37228 5.83241
#
# Compressibility (1/GPa) = 0.02833191
#
# Stress axis : x y z
#
# Youngs Moduli (GPa) = 135.70983 41.41356 58.53403
#
# Poissons Ratio (x) = 0.11033 0.15988
# Poissons Ratio (y) = 0.36155 0.27734
# Poissons Ratio (z) = 0.37069 0.19622
#
# Static dielectric constant tensor:
#      x y z
#    x 1.735520 0.000000 0.000000 
#    y 0.000000 1.894010 0.000000 
#    z 0.000000 0.000000 5.658530 
# 
# From -- ./inp_files/2053.got.cif
#   From: 2010.05.17/outbox.cif.g08.bks.cpg/sg20_2_cif.got.tgz:2053.got - 2010.06.03 22:52:26.
