data_PCOD9320475
_publ_section_title
;
Structure prediction by ZEFSAII (Michael W. Deem and Ramdas Pophale) SiO2 
 PCOD9320475
Probable space group: C 2 2 21
;
_chemical_formula_sum "Si O2"
_cell_formula_units_Z 32
_cell_length_a 5.182041
_cell_length_b 9.122896
_cell_length_c 26.315584
_cell_angle_alpha 90.000000
_cell_angle_beta 90.000000
_cell_angle_gamma 90.000000
_cell_volume 1244.075052
_symmetry_space_group_name_H-M "C 2 2 21"
_symmetry_group_IT_number 20
_symmetry_cell_setting 'orthorhombic'
loop_
_space_group_symop_operation_xyz
x,y,z
-x,-y,1/2+z
x,-y,-z
-x,y,1/2-z
1/2+x,1/2+y,z
1/2-x,1/2-y,1/2+z
1/2+x,1/2-y,-z
1/2-x,1/2+y,1/2-z
loop_
_atom_site_type_symbol
_atom_site_label
_atom_site_fract_x
_atom_site_fract_y
_atom_site_fract_z
Si Si1 0.160160 0.481943 0.440213
Si Si2 0.541381 0.728838 0.535125
Si Si3 0.509254 0.516335 0.809945
Si Si4 0.514016 0.812492 0.151602
O O1 0.096175 0.500000 0.500000
O O2 0.456523 0.426955 0.441318
O O3 0.507877 0.640024 0.338358
O O4 0.010615 0.364330 0.407028
O O5 0.776881 0.730171 0.495633
O O6 0.596261 0.853564 0.576968
O O7 0.500000 0.485759 0.750000
O O8 0.771594 0.601433 0.823663
O O9 0.272480 0.620563 0.824999
#
# Coordination Sequence:
#
# PCOD9320475 Si02
#       4
#     8   8   8   8
#     4  10  24  43  68 102 146 185 228 280 338 416
#     4  10  23  41  65  94 136 192 234 275 332 394
#     4  12  26  49  73 102 138 180 235 301 354 410
#     4  12  27  45  75 108 139 185 235 282 356 424
#
# _framework density 25.721919
#
# number of rings (size 3 to 8) (size 9 to 14) (size 15 to 20)
#    0.000    1.000    0.000    5.250    0.000   25.000 
#    0.000    0.000    0.000    0.000    0.000    0.000 
#    0.000    0.000    0.000    0.000    0.000    0.000 
#
# Total GULP energy -89610.568912 kJ/mol
# GULP energy per Si atom -5600.660557 kJ/mol
# Density = 2.566338 g / cm^3
# Si number density = 25.721919 Si / 1000 Ang^3
#
#
#
# Elastic Constant Matrix: (Units=GPa)
#
#
# Indices 1 2 3 4 5 6 
#
# 1 173.9201 66.2449 22.5624 0.0000 0.0000 0.0000
# 2 66.2449 177.3056 -0.1510 0.0000 0.0000 0.0000
# 3 22.5624 -0.1510 116.5380 0.0000 0.0000 0.0000
# 4 0.0000 0.0000 0.0000 43.3026 0.0000 0.0000
# 5 0.0000 0.0000 0.0000 0.0000 37.4953 0.0000
# 6 0.0000 0.0000 0.0000 0.0000 0.0000 60.5860
#
#
#
# Elastic Compliance Matrix: (Units=1/GPa)
#
#
# Indices 1 2 3 4 5 6 
#
# 1 0.006907 -0.002582 -0.001341 0.000000 0.000000 0.000000
# 2 -0.002582 0.006605 0.000508 0.000000 0.000000 0.000000
# 3 -0.001341 0.000508 0.008841 0.000000 0.000000 0.000000
# 4 0.000000 0.000000 0.000000 0.023093 0.000000 0.000000
# 5 0.000000 0.000000 0.000000 0.000000 0.026670 0.000000
# 6 0.000000 0.000000 0.000000 0.000000 0.000000 0.016505
#
#
# Mechanical properties :
#
#
# Convention : Reuss Voigt Hill
#
# Bulk Modulus (GPa) = 64.41115 71.67517 68.04316
# Shear Modulus (GPa) = 49.68948 53.55059 51.62004
#
# Velocity S-wave (km/s) = 4.39999 4.56774 4.48465
# Velocity P-wave (km/s) = 7.13505 7.46625 7.30253
#
# Compressibility (1/GPa) = 0.01552526
#
# Stress axis : x y z
#
# Youngs Moduli (GPa) = 144.77964 151.40033 113.10817
#
# Poissons Ratio (x) = 0.39088 0.15163
# Poissons Ratio (y) = 0.37379 -0.05750
# Poissons Ratio (z) = 0.19409 -0.07697
#
# Static dielectric constant tensor:
#      x y z
#    x 2.057490 0.000000 0.000000 
#    y 0.000000 2.268420 0.000000 
#    z 0.000000 0.000000 2.118250 
# 
# From -- ./inp_files/25369.got.cif
#   From: 2010.05.17/outbox.cif.g08.bks.cpg/sg20_13_cif.got.tgz:25369.got - 2010.06.03 22:52:26.
