data_PCOD9320303
_publ_section_title
;
Structure prediction by ZEFSAII (Michael W. Deem and Ramdas Pophale) SiO2 
 PCOD9320303
Probable space group: C 2 2 21
;
_chemical_formula_sum "Si O2"
_cell_formula_units_Z 56
_cell_length_a 22.623690
_cell_length_b 15.179357
_cell_length_c 8.325439
_cell_angle_alpha 90.000000
_cell_angle_beta 90.000000
_cell_angle_gamma 90.000000
_cell_volume 2859.064543
_symmetry_space_group_name_H-M "C 2 2 21"
_symmetry_group_IT_number 20
_symmetry_cell_setting 'orthorhombic'
loop_
_space_group_symop_operation_xyz
x,y,z
-x,-y,1/2+z
x,-y,-z
-x,y,1/2-z
1/2+x,1/2+y,z
1/2-x,1/2-y,1/2+z
1/2+x,1/2-y,-z
1/2-x,1/2+y,1/2-z
loop_
_atom_site_type_symbol
_atom_site_label
_atom_site_fract_x
_atom_site_fract_y
_atom_site_fract_z
Si Si1 0.230568 0.021180 0.821410
Si Si2 0.337152 0.944763 0.352315
Si Si3 0.225663 0.830541 0.705412
Si Si4 0.164977 0.738728 0.010214
Si Si5 0.360819 0.405268 0.065755
Si Si6 0.569909 0.744559 0.724679
Si Si7 0.064378 0.447118 0.667985
O O1 0.249668 0.924983 0.760177
O O2 0.290158 0.075515 0.788688
O O3 0.180058 0.066406 0.716655
O O4 0.211213 0.000000 0.000000
O O5 0.354763 0.853806 0.433382
O O6 0.308964 0.000000 0.500000
O O7 0.390208 0.001097 0.281696
O O8 0.280097 0.775060 0.633828
O O9 0.181031 0.855801 0.562231
O O10 0.190960 0.792367 0.859061
O O11 0.109070 0.769709 0.114121
O O12 0.410082 0.335053 0.111348
O O13 0.382351 0.500000 0.000000
O O14 0.500000 0.740773 0.750000
O O15 0.582934 0.843767 0.658244
O O16 0.063221 0.500000 0.500000
O O17 0.000000 0.448946 0.750000
#
# Coordination Sequence:
#
# PCOD9320303 Si02
#       7
#     8   8   8   8   8   8   8
#     4  11  21  38  64  93 130 169 213 270 341 407
#     4  12  21  40  60  94 134 171 217 273 333 396
#     4  11  23  38  64  96 128 169 212 276 338 405
#     4  12  24  39  65  96 135 174 219 279 341 404
#     4  10  22  45  66  95 130 168 217 282 343 399
#     4  11  25  45  66  95 131 177 227 279 329 404
#     4  11  25  42  66  91 130 182 230 275 332 398
#
# _framework density 19.586827
#
# number of rings (size 3 to 8) (size 9 to 14) (size 15 to 20)
#    0.000    0.857    4.286    3.000    6.000    0.000 
#    0.000    4.286    0.000    0.000    0.000    0.000 
#    0.000    0.000    0.000    0.000    0.000    0.000 
#
# Total GULP energy -156297.463154 kJ/mol
# GULP energy per Si atom -5582.052255 kJ/mol
# Density = 1.954225 g / cm^3
# Si number density = 19.586827 Si / 1000 Ang^3
#
#
#
# Elastic Constant Matrix: (Units=GPa)
#
#
# Indices 1 2 3 4 5 6 
#
# 1 84.2310 56.4529 46.7839 0.0000 0.0000 0.0000
# 2 56.4529 94.3627 44.1415 0.0000 0.0000 0.0000
# 3 46.7839 44.1415 123.2408 0.0000 0.0000 0.0000
# 4 0.0000 0.0000 0.0000 40.8531 0.0000 0.0000
# 5 0.0000 0.0000 0.0000 0.0000 25.0818 0.0000
# 6 0.0000 0.0000 0.0000 0.0000 0.0000 31.2239
#
#
#
# Elastic Compliance Matrix: (Units=1/GPa)
#
#
# Indices 1 2 3 4 5 6 
#
# 1 0.021547 -0.010889 -0.004279 0.000000 0.000000 0.000000
# 2 -0.010889 0.018233 -0.002397 0.000000 0.000000 0.000000
# 3 -0.004279 -0.002397 0.010597 0.000000 0.000000 0.000000
# 4 0.000000 0.000000 0.000000 0.024478 0.000000 0.000000
# 5 0.000000 0.000000 0.000000 0.000000 0.039870 0.000000
# 6 0.000000 0.000000 0.000000 0.000000 0.000000 0.032027
#
#
# Mechanical properties :
#
#
# Convention : Reuss Voigt Hill
#
# Bulk Modulus (GPa) = 65.58784 66.28788 65.93786
# Shear Modulus (GPa) = 26.74321 29.72884 28.23603
#
# Velocity S-wave (km/s) = 3.69910 3.90012 3.80094
# Velocity P-wave (km/s) = 7.19742 7.36192 7.28013
#
# Compressibility (1/GPa) = 0.01524673
#
# Stress axis : x y z
#
# Youngs Moduli (GPa) = 46.41090 54.84612 94.36369
#
# Poissons Ratio (x) = 0.59719 0.40382
# Poissons Ratio (y) = 0.50535 0.22620
# Poissons Ratio (z) = 0.19861 0.13147
#
# Static dielectric constant tensor:
#      x y z
#    x 1.659780 0.000000 0.000000 
#    y 0.000000 1.732080 0.000000 
#    z 0.000000 0.000000 1.750790 
# 
# From -- ./inp_files/10188.got.cif
#   From: 2010.05.17/outbox.cif.g08.bks.cpg/sg20_6_cif.got.tgz:10188.got - 2010.06.03 22:52:26.
