data_PCOD9320188
_publ_section_title
;
Structure prediction by ZEFSAII (Michael W. Deem and Ramdas Pophale) SiO2 
 PCOD9320188
Probable space group: C 2 2 21
;
_chemical_formula_sum "Si O2"
_cell_formula_units_Z 64
_cell_length_a 8.561347
_cell_length_b 11.587350
_cell_length_c 29.200207
_cell_angle_alpha 90.000000
_cell_angle_beta 90.000000
_cell_angle_gamma 90.000000
_cell_volume 2896.757601
_symmetry_space_group_name_H-M "C 2 2 21"
_symmetry_group_IT_number 20
_symmetry_cell_setting 'orthorhombic'
loop_
_space_group_symop_operation_xyz
x,y,z
-x,-y,1/2+z
x,-y,-z
-x,y,1/2-z
1/2+x,1/2+y,z
1/2-x,1/2-y,1/2+z
1/2+x,1/2-y,-z
1/2-x,1/2+y,1/2-z
loop_
_atom_site_type_symbol
_atom_site_label
_atom_site_fract_x
_atom_site_fract_y
_atom_site_fract_z
Si Si1 0.876237 0.719668 0.711539
Si Si2 0.031831 0.942392 0.826002
Si Si3 0.140729 0.868320 0.985852
Si Si4 0.274208 0.131257 0.109955
Si Si5 0.488735 0.931530 0.374595
Si Si6 0.446328 0.702872 0.823092
Si Si7 0.640677 0.761685 0.439378
Si Si8 0.714685 0.861739 0.851343
O O1 0.692897 0.687969 0.713954
O O2 0.000000 0.687052 0.750000
O O3 0.870920 0.859658 0.707337
O O4 0.950857 0.656464 0.666637
O O5 0.856863 0.898590 0.819913
O O6 0.098072 0.896024 0.874324
O O7 0.028933 0.079242 0.826101
O O8 0.266250 0.861608 0.944186
O O9 0.976083 0.819354 0.967921
O O10 0.219192 0.802758 0.028218
O O11 0.120659 0.000000 0.000000
O O12 0.348405 0.245681 0.132977
O O13 0.366652 0.020848 0.130180
O O14 0.527141 0.863048 0.420591
O O15 0.346799 0.021145 0.374662
O O16 0.583059 0.797647 0.821522
O O17 0.722744 0.715775 0.392955
#
# Coordination Sequence:
#
# PCOD9320188 Si02
#       8
#     8   8   8   8   8   8   8   8
#     4  11  24  46  67 103 143 172 227 293 349 417
#     4  11  21  42  69  96 128 175 223 270 342 409
#     4  12  27  41  61 100 135 175 227 284 339 393
#     4  10  22  43  69  93 137 178 225 279 342 411
#     4  11  22  45  71  94 133 187 222 278 349 414
#     4  10  23  42  69  99 128 180 224 271 343 418
#     4  12  26  43  65  94 138 177 226 286 333 407
#     4  11  23  41  73  96 125 183 229 269 337 419
#
# _framework density 22.093668999999998
#
# number of rings (size 3 to 8) (size 9 to 14) (size 15 to 20)
#    0.000    1.000    5.000    1.500    3.500    1.000 
#    6.750    0.625    0.000    0.750    0.000    0.000 
#    0.000    0.000    0.000    0.000    0.000    0.000 
#
# Total GULP energy -178481.018716 kJ/mol
# GULP energy per Si atom -5577.531835 kJ/mol
# Density = 2.204338 g / cm^3
# Si number density = 22.093669 Si / 1000 Ang^3
#
#
#
# Elastic Constant Matrix: (Units=GPa)
#
#
# Indices 1 2 3 4 5 6 
#
# 1 50.6526 8.8973 -4.6792 0.0000 0.0000 0.0000
# 2 8.8973 102.5291 7.4217 0.0000 0.0000 0.0000
# 3 -4.6792 7.4217 37.8478 0.0000 0.0000 0.0000
# 4 0.0000 0.0000 0.0000 9.0584 0.0000 0.0000
# 5 0.0000 0.0000 0.0000 0.0000 25.4168 0.0000
# 6 0.0000 0.0000 0.0000 0.0000 0.0000 29.8598
#
#
#
# Elastic Compliance Matrix: (Units=1/GPa)
#
#
# Indices 1 2 3 4 5 6 
#
# 1 0.020358 -0.001977 0.002905 0.000000 0.000000 0.000000
# 2 -0.001977 0.010086 -0.002222 0.000000 0.000000 0.000000
# 3 0.002905 -0.002222 0.027216 0.000000 0.000000 0.000000
# 4 0.000000 0.000000 0.000000 0.110395 0.000000 0.000000
# 5 0.000000 0.000000 0.000000 0.000000 0.039344 0.000000
# 6 0.000000 0.000000 0.000000 0.000000 0.000000 0.033490
#
#
# Mechanical properties :
#
#
# Convention : Reuss Voigt Hill
#
# Bulk Modulus (GPa) = 18.15833 23.81213 20.98523
# Shear Modulus (GPa) = 19.09600 24.82631 21.96116
#
# Velocity S-wave (km/s) = 2.94312 3.35578 3.15620
# Velocity P-wave (km/s) = 4.44814 5.08096 4.77505
#
# Compressibility (1/GPa) = 0.05507113
#
# Stress axis : x y z
#
# Youngs Moduli (GPa) = 49.12101 99.14998 36.74247
#
# Poissons Ratio (x) = 0.19601 -0.10672
# Poissons Ratio (y) = 0.09711 0.08165
# Poissons Ratio (z) = -0.14268 0.22033
#
# Static dielectric constant tensor:
#      x y z
#    x 1.863890 0.000000 0.000000 
#    y 0.000000 1.814660 0.000000 
#    z 0.000000 0.000000 1.845000 
# 
# From -- ./inp_files/31054.got.cif
#   From: 2010.05.17/outbox.cif.g08.bks.cpg/sg20_16_cif.got.tgz:31054.got - 2010.06.03 22:52:26.
