data_PCOD9320988
_publ_section_title
;
Structure prediction by ZEFSAII (Michael W. Deem and Ramdas Pophale) SiO2 
 PCOD9320988
Probable space group: C 2 2 21
;
_chemical_formula_sum "Si O2"
_cell_formula_units_Z 28
_cell_length_a 8.450567
_cell_length_b 10.349690
_cell_length_c 12.714345
_cell_angle_alpha 90.000000
_cell_angle_beta 90.000000
_cell_angle_gamma 90.000000
_cell_volume 1112.006134
_symmetry_space_group_name_H-M "C 2 2 21"
_symmetry_group_IT_number 20
_symmetry_cell_setting 'orthorhombic'
loop_
_space_group_symop_operation_xyz
x,y,z
-x,-y,1/2+z
x,-y,-z
-x,y,1/2-z
1/2+x,1/2+y,z
1/2-x,1/2-y,1/2+z
1/2+x,1/2-y,-z
1/2-x,1/2+y,1/2-z
loop_
_atom_site_type_symbol
_atom_site_label
_atom_site_fract_x
_atom_site_fract_y
_atom_site_fract_z
Si Si1 0.271747 0.070114 0.816015
Si Si2 0.984469 0.500000 0.500000
Si Si3 0.196864 0.208793 0.154269
Si Si4 0.466763 0.732135 0.549634
O O1 0.328019 0.167220 0.726397
O O2 0.122618 0.140227 0.869999
O O3 0.227890 0.924184 0.783407
O O4 0.401935 0.051346 0.907242
O O5 0.892335 0.376932 0.543455
O O6 0.356461 0.241407 0.088584
O O7 0.061179 0.181287 0.068296
#
# Coordination Sequence:
#
# PCOD9320988 Si02
#       4
#     8   4   8   8
#     4  11  23  51  72 108 148 195 253 307 369 453
#     4  10  24  46  74 104 152 190 244 316 374 440
#     4  11  26  47  79 106 151 198 252 308 380 446
#     4  11  22  50  70 105 152 191 243 318 362 448
#
# _framework density 25.179718000000001
#
# number of rings (size 3 to 8) (size 9 to 14) (size 15 to 20)
#    0.000    1.143    5.714    0.857    4.000    1.143 
#   20.571    0.000    0.000    0.000    0.000    0.000 
#    0.000    0.000    0.000    0.000    0.000    0.000 
#
# Total GULP energy -78395.649312 kJ/mol
# GULP energy per Si atom -5599.689237 kJ/mol
# Density = 2.512241 g / cm^3
# Si number density = 25.179718 Si / 1000 Ang^3
#
#
#
# Elastic Constant Matrix: (Units=GPa)
#
#
# Indices 1 2 3 4 5 6 
#
# 1 63.6270 68.0156 40.1547 0.0000 0.0000 0.0000
# 2 68.0156 165.9241 53.2908 0.0000 0.0000 0.0000
# 3 40.1547 53.2908 125.2304 0.0000 0.0000 0.0000
# 4 0.0000 0.0000 0.0000 60.2451 0.0000 0.0000
# 5 0.0000 0.0000 0.0000 0.0000 27.7199 0.0000
# 6 0.0000 0.0000 0.0000 0.0000 0.0000 34.3692
#
#
#
# Elastic Compliance Matrix: (Units=1/GPa)
#
#
# Indices 1 2 3 4 5 6 
#
# 1 0.030632 -0.010891 -0.005188 0.000000 0.000000 0.000000
# 2 -0.010891 0.010853 -0.001126 0.000000 0.000000 0.000000
# 3 -0.005188 -0.001126 0.010128 0.000000 0.000000 0.000000
# 4 0.000000 0.000000 0.000000 0.016599 0.000000 0.000000
# 5 0.000000 0.000000 0.000000 0.000000 0.036075 0.000000
# 6 0.000000 0.000000 0.000000 0.000000 0.000000 0.029096
#
#
# Mechanical properties :
#
#
# Convention : Reuss Voigt Hill
#
# Bulk Modulus (GPa) = 58.12643 75.30040 66.71342
# Shear Modulus (GPa) = 28.81394 37.35485 33.08440
#
# Velocity S-wave (km/s) = 3.38647 3.85584 3.62875
# Velocity P-wave (km/s) = 6.19884 7.05645 6.64150
#
# Compressibility (1/GPa) = 0.01720388
#
# Stress axis : x y z
#
# Youngs Moduli (GPa) = 32.64522 92.14141 98.73607
#
# Poissons Ratio (x) = 1.00348 0.51222
# Poissons Ratio (y) = 0.35553 0.11121
# Poissons Ratio (z) = 0.16935 0.10378
#
# Static dielectric constant tensor:
#      x y z
#    x 2.000220 0.000000 0.000000 
#    y 0.000000 2.020490 0.000000 
#    z 0.000000 0.000000 2.008850 
# 
# From -- ./inp_files/18134.got.cif
#   From: 2010.05.17/outbox.cif.g08.bks.cpg/sg20_10_cif.got.tgz:18134.got - 2010.06.03 22:52:26.
