data_PCOD9320376
_publ_section_title
;
Structure prediction by ZEFSAII (Michael W. Deem and Ramdas Pophale) SiO2 
 PCOD9320376
Probable space group: C 2 2 21
;
_chemical_formula_sum "Si O2"
_cell_formula_units_Z 40
_cell_length_a 19.936505
_cell_length_b 10.914294
_cell_length_c 8.394377
_cell_angle_alpha 90.000000
_cell_angle_beta 90.000000
_cell_angle_gamma 90.000000
_cell_volume 1826.556641
_symmetry_space_group_name_H-M "C 2 2 21"
_symmetry_group_IT_number 20
_symmetry_cell_setting 'orthorhombic'
loop_
_space_group_symop_operation_xyz
x,y,z
-x,-y,1/2+z
x,-y,-z
-x,y,1/2-z
1/2+x,1/2+y,z
1/2-x,1/2-y,1/2+z
1/2+x,1/2-y,-z
1/2-x,1/2+y,1/2-z
loop_
_atom_site_type_symbol
_atom_site_label
_atom_site_fract_x
_atom_site_fract_y
_atom_site_fract_z
Si Si1 0.556439 0.857772 0.045996
Si Si2 0.819368 0.795444 0.009115
Si Si3 0.030141 0.130750 0.428122
Si Si4 0.872943 0.433378 0.152638
Si Si5 0.814892 0.337910 0.662079
O O1 0.502133 0.755500 0.999371
O O2 0.574307 0.866981 0.233224
O O3 0.624780 0.813573 0.960094
O O4 0.544839 0.000000 0.000000
O O5 0.889776 0.857742 0.959404
O O6 0.822886 0.664388 0.920372
O O7 0.753656 0.854806 0.934076
O O8 0.813388 0.763702 0.196733
O O9 0.000000 0.128058 0.250000
O O10 0.008780 0.000000 0.500000
O O11 0.835116 0.535078 0.254176
O O12 0.904502 0.500000 0.000000
#
# Coordination Sequence:
#
# PCOD9320376 Si02
#       5
#     8   8   8   8   8
#     4  10  22  46  76 104 142 187 245 312 362 441
#     4  11  23  43  69 103 143 192 239 312 373 453
#     4  12  29  49  70 105 157 199 245 298 383 463
#     4   9  19  40  67 105 137 177 244 308 371 431
#     4  10  23  40  73 104 140 185 255 310 376 433
#
# _framework density 21.899131000000001
#
# number of rings (size 3 to 8) (size 9 to 14) (size 15 to 20)
#    0.000    1.600    2.000    1.200    2.800    6.400 
#    0.000    0.000    0.000    0.000    0.000    0.000 
#    0.000    0.000    0.000    0.000    0.000    0.000 
#
# Total GULP energy -111704.710963 kJ/mol
# GULP energy per Si atom -5585.235548 kJ/mol
# Density = 2.184929 g / cm^3
# Si number density = 21.899131 Si / 1000 Ang^3
#
#
#
# Elastic Constant Matrix: (Units=GPa)
#
#
# Indices 1 2 3 4 5 6 
#
# 1 178.6846 52.2152 64.9823 0.0000 0.0000 0.0000
# 2 52.2152 97.9668 49.4924 0.0000 0.0000 0.0000
# 3 64.9823 49.4924 111.5174 0.0000 0.0000 0.0000
# 4 0.0000 0.0000 0.0000 31.1942 0.0000 0.0000
# 5 0.0000 0.0000 0.0000 0.0000 19.4292 0.0000
# 6 0.0000 0.0000 0.0000 0.0000 0.0000 -4.2138
#
#
#
# Elastic Compliance Matrix: (Units=1/GPa)
#
#
# Indices 1 2 3 4 5 6 
#
# 1 0.007483 -0.002302 -0.003339 0.000000 0.000000 0.000000
# 2 -0.002302 0.013866 -0.004812 0.000000 0.000000 0.000000
# 3 -0.003339 -0.004812 0.013049 0.000000 0.000000 0.000000
# 4 0.000000 0.000000 0.000000 0.032057 0.000000 0.000000
# 5 0.000000 0.000000 0.000000 0.000000 0.051469 0.000000
# 6 0.000000 0.000000 0.000000 0.000000 0.000000 -0.237318
#
#
# Mechanical properties :
#
#
# Convention : Reuss Voigt Hill
#
# Bulk Modulus (GPa) = 74.12243 80.17207 77.14725
# Shear Modulus (GPa) = -53.19693 24.04717 -14.57488
#
# Velocity S-wave (km/s) = -4.93402 3.31734 -2.58262
# Velocity P-wave (km/s) = 1.20884 7.16674 5.13923
#
# Compressibility (1/GPa) = 0.01349119
#
# Stress axis : x y z
#
# Youngs Moduli (GPa) = 133.62930 72.12132 76.63556
#
# Poissons Ratio (x) = 0.16600 0.25590
# Poissons Ratio (y) = 0.30757 0.36881
# Poissons Ratio (z) = 0.44621 0.34708
#
# Static dielectric constant tensor:
#      x y z
#    x 1.812900 0.000000 0.000000 
#    y 0.000000 1.848040 0.000000 
#    z 0.000000 0.000000 2.342330 
# 
# From -- ./inp_files/9122.got.cif
#   From: 2010.05.17/outbox.cif.g08.bks.cpg/sg20_5_cif.got.tgz:9122.got - 2010.06.03 22:52:26.
