data_PCOD9320483
_publ_section_title
;
Structure prediction by ZEFSAII (Michael W. Deem and Ramdas Pophale) SiO2 
 PCOD9320483
Probable space group: C 2 2 21
;
_chemical_formula_sum "Si O2"
_cell_formula_units_Z 40
_cell_length_a 18.494877
_cell_length_b 10.145876
_cell_length_c 10.322316
_cell_angle_alpha 90.000000
_cell_angle_beta 90.000000
_cell_angle_gamma 90.000000
_cell_volume 1936.948830
_symmetry_space_group_name_H-M "C 2 2 21"
_symmetry_group_IT_number 20
_symmetry_cell_setting 'orthorhombic'
loop_
_space_group_symop_operation_xyz
x,y,z
-x,-y,1/2+z
x,-y,-z
-x,y,1/2-z
1/2+x,1/2+y,z
1/2-x,1/2-y,1/2+z
1/2+x,1/2-y,-z
1/2-x,1/2+y,1/2-z
loop_
_atom_site_type_symbol
_atom_site_label
_atom_site_fract_x
_atom_site_fract_y
_atom_site_fract_z
Si Si1 0.619153 0.150185 0.984032
Si Si2 0.336233 0.408784 0.372613
Si Si3 0.532579 0.828924 0.384168
Si Si4 0.680112 0.824556 0.304943
Si Si5 0.616657 0.429367 0.636143
O O1 0.531274 0.151518 0.984495
O O2 0.650223 0.186887 0.841746
O O3 0.643099 0.260861 0.085084
O O4 0.643242 0.000000 0.000000
O O5 0.342027 0.500000 0.500000
O O6 0.253794 0.400541 0.322427
O O7 0.382816 0.471860 0.256715
O O8 0.500000 0.881476 0.250000
O O9 0.614014 0.883271 0.391069
O O10 0.549548 0.672696 0.368218
O O11 0.684129 0.672045 0.349555
O O12 0.620716 0.500000 0.500000
#
# Coordination Sequence:
#
# PCOD9320483 Si02
#       5
#     8   8   8   8   8
#     4  11  24  42  69  96 135 181 231 273 342 411
#     4  12  24  41  70 102 128 185 228 278 347 402
#     4   8  18  43  60  90 131 175 209 286 325 387
#     4   9  23  40  64  94 141 166 218 297 327 395
#     4  10  23  41  67  96 136 174 222 280 342 385
#
# _framework density 20.651036000000001
#
# number of rings (size 3 to 8) (size 9 to 14) (size 15 to 20)
#    1.200    0.800    2.000    0.000    5.600    3.200 
#    0.000    4.000    0.000    0.000    0.000    0.000 
#    0.000    0.000    0.000    0.000    0.000    0.000 
#
# Total GULP energy -111337.894949 kJ/mol
# GULP energy per Si atom -5566.894747 kJ/mol
# Density = 2.060403 g / cm^3
# Si number density = 20.651036 Si / 1000 Ang^3
#
#
#
# Elastic Constant Matrix: (Units=GPa)
#
#
# Indices 1 2 3 4 5 6 
#
# 1 65.6838 11.5351 6.7433 0.0000 0.0000 0.0000
# 2 11.5351 97.1579 32.8043 0.0000 0.0000 0.0000
# 3 6.7433 32.8043 86.7746 0.0000 0.0000 0.0000
# 4 0.0000 0.0000 0.0000 24.5759 0.0000 0.0000
# 5 0.0000 0.0000 0.0000 0.0000 7.5637 0.0000
# 6 0.0000 0.0000 0.0000 0.0000 0.0000 22.1222
#
#
#
# Elastic Compliance Matrix: (Units=1/GPa)
#
#
# Indices 1 2 3 4 5 6 
#
# 1 0.015575 -0.001651 -0.000586 0.000000 0.000000 0.000000
# 2 -0.001651 0.011974 -0.004398 0.000000 0.000000 0.000000
# 3 -0.000586 -0.004398 0.013232 0.000000 0.000000 0.000000
# 4 0.000000 0.000000 0.000000 0.040690 0.000000 0.000000
# 5 0.000000 0.000000 0.000000 0.000000 0.132210 0.000000
# 6 0.000000 0.000000 0.000000 0.000000 0.000000 0.045203
#
#
# Mechanical properties :
#
#
# Convention : Reuss Voigt Hill
#
# Bulk Modulus (GPa) = 36.35098 39.08683 37.71891
# Shear Modulus (GPa) = 17.77303 24.08795 20.93049
#
# Velocity S-wave (km/s) = 2.93684 3.41901 3.18706
# Velocity P-wave (km/s) = 5.39822 5.87831 5.64337
#
# Compressibility (1/GPa) = 0.02750957
#
# Stress axis : x y z
#
# Youngs Moduli (GPa) = 64.20715 83.51742 75.57241
#
# Poissons Ratio (x) = 0.13790 0.04429
# Poissons Ratio (y) = 0.10602 0.33238
# Poissons Ratio (z) = 0.03763 0.36732
#
# Static dielectric constant tensor:
#      x y z
#    x 1.774160 0.000000 0.000000 
#    y 0.000000 1.766390 0.000000 
#    z 0.000000 0.000000 1.751780 
# 
# From -- ./inp_files/15566.got.cif
#   From: 2010.05.17/outbox.cif.g08.bks.cpg/sg20_8_cif.got.tgz:15566.got - 2010.06.03 22:52:26.
