data_PCOD9320065
_publ_section_title
;
Structure prediction by ZEFSAII (Michael W. Deem and Ramdas Pophale) SiO2 
 PCOD9320065
Probable space group: C 2 2 21
;
_chemical_formula_sum "Si O2"
_cell_formula_units_Z 40
_cell_length_a 18.327351
_cell_length_b 7.706473
_cell_length_c 13.379403
_cell_angle_alpha 90.000000
_cell_angle_beta 90.000000
_cell_angle_gamma 90.000000
_cell_volume 1889.696653
_symmetry_space_group_name_H-M "C 2 2 21"
_symmetry_group_IT_number 20
_symmetry_cell_setting 'orthorhombic'
loop_
_space_group_symop_operation_xyz
x,y,z
-x,-y,1/2+z
x,-y,-z
-x,y,1/2-z
1/2+x,1/2+y,z
1/2-x,1/2-y,1/2+z
1/2+x,1/2-y,-z
1/2-x,1/2+y,1/2-z
loop_
_atom_site_type_symbol
_atom_site_label
_atom_site_fract_x
_atom_site_fract_y
_atom_site_fract_z
Si Si1 0.661966 0.078827 0.270703
Si Si2 0.341474 0.701346 0.968452
Si Si3 0.772744 0.833279 0.378511
Si Si4 0.892808 0.000000 0.500000
Si Si5 0.000000 0.383857 0.750000
Si Si6 0.503200 0.195829 0.025792
O O1 0.662626 0.235306 0.353373
O O2 0.693579 0.161924 0.170487
O O3 0.715376 0.928952 0.307272
O O4 0.577725 0.019820 0.260409
O O5 0.273354 0.787491 0.023450
O O6 0.419295 0.776293 0.005341
O O7 0.341137 0.500000 0.000000
O O8 0.943949 0.836268 0.521783
O O9 0.840035 0.954318 0.408312
O O10 0.993113 0.279609 0.646190
O O11 0.524710 0.000000 0.000000
#
# Coordination Sequence:
#
# PCOD9320065 Si02
#       6
#     8   8   8   4   4   8
#     4  11  23  41  65  94 135 177 223 284 339 404
#     4  11  22  42  69  97 135 183 225 280 347 406
#     4  12  24  44  66 101 139 175 227 287 342 409
#     4  12  24  46  68 102 138 184 222 288 336 412
#     4  10  22  42  66  96 134 172 226 280 328 404
#     4  11  24  45  72  98 137 181 229 282 342 409
#
# _framework density 21.16742
#
# number of rings (size 3 to 8) (size 9 to 14) (size 15 to 20)
#    0.000    0.800    5.000    3.600    0.000    2.400 
#    0.000    3.000    0.000    0.000    0.000    0.000 
#    0.000    0.000    0.000    0.000    0.000    0.000 
#
# Total GULP energy -111726.979440 kJ/mol
# GULP energy per Si atom -5586.348972 kJ/mol
# Density = 2.111924 g / cm^3
# Si number density = 21.167420 Si / 1000 Ang^3
#
#
#
# Elastic Constant Matrix: (Units=GPa)
#
#
# Indices 1 2 3 4 5 6 
#
# 1 138.4421 29.4669 14.1732 0.0000 0.0000 0.0000
# 2 29.4669 92.2370 -5.5324 0.0000 0.0000 0.0000
# 3 14.1732 -5.5324 55.5822 0.0000 0.0000 0.0000
# 4 0.0000 0.0000 0.0000 19.3222 0.0000 0.0000
# 5 0.0000 0.0000 0.0000 0.0000 26.1670 0.0000
# 6 0.0000 0.0000 0.0000 0.0000 0.0000 1.7109
#
#
#
# Elastic Compliance Matrix: (Units=1/GPa)
#
#
# Indices 1 2 3 4 5 6 
#
# 1 0.008037 -0.002707 -0.002319 0.000000 0.000000 0.000000
# 2 -0.002707 0.011818 0.001866 0.000000 0.000000 0.000000
# 3 -0.002319 0.001866 0.018768 0.000000 0.000000 0.000000
# 4 0.000000 0.000000 0.000000 0.051754 0.000000 0.000000
# 5 0.000000 0.000000 0.000000 0.000000 0.038216 0.000000
# 6 0.000000 0.000000 0.000000 0.000000 0.000000 0.584493
#
#
# Mechanical properties :
#
#
# Convention : Reuss Voigt Hill
#
# Bulk Modulus (GPa) = 30.95421 40.27521 35.61471
# Shear Modulus (GPa) = 6.84770 25.98358 16.41564
#
# Velocity S-wave (km/s) = 1.80057 3.50741 2.78783
# Velocity P-wave (km/s) = 4.35637 5.95574 5.21770
#
# Compressibility (1/GPa) = 0.03230579
#
# Stress axis : x y z
#
# Youngs Moduli (GPa) = 124.42913 84.61493 53.28096
#
# Poissons Ratio (x) = 0.22902 0.12354
# Poissons Ratio (y) = 0.33677 -0.09945
# Poissons Ratio (z) = 0.28852 -0.15793
#
# Static dielectric constant tensor:
#      x y z
#    x 1.754450 0.000000 0.000000 
#    y 0.000000 1.810640 0.000000 
#    z 0.000000 0.000000 1.814180 
# 
# From -- ./inp_files/25118.got.cif
#   From: 2010.05.17/outbox.cif.g08.bks.cpg/sg20_13_cif.got.tgz:25118.got - 2010.06.03 22:52:26.
