data_PCOD9320145
_publ_section_title
;
Structure prediction by ZEFSAII (Michael W. Deem and Ramdas Pophale) SiO2 
 PCOD9320145
Probable space group: C 2 2 21
;
_chemical_formula_sum "Si O2"
_cell_formula_units_Z 28
_cell_length_a 7.746767
_cell_length_b 17.194440
_cell_length_c 9.092104
_cell_angle_alpha 90.000000
_cell_angle_beta 90.000000
_cell_angle_gamma 90.000000
_cell_volume 1211.080258
_symmetry_space_group_name_H-M "C 2 2 21"
_symmetry_group_IT_number 20
_symmetry_cell_setting 'orthorhombic'
loop_
_space_group_symop_operation_xyz
x,y,z
-x,-y,1/2+z
x,-y,-z
-x,y,1/2-z
1/2+x,1/2+y,z
1/2-x,1/2-y,1/2+z
1/2+x,1/2-y,-z
1/2-x,1/2+y,1/2-z
loop_
_atom_site_type_symbol
_atom_site_label
_atom_site_fract_x
_atom_site_fract_y
_atom_site_fract_z
Si Si1 0.500000 0.606421 0.750000
Si Si2 0.957194 0.247341 0.955790
Si Si3 0.691011 0.992461 0.822691
Si Si4 0.238677 0.182340 0.293821
O O1 0.512947 0.664680 0.887760
O O2 0.326509 0.556780 0.766742
O O3 0.797021 0.277772 0.856838
O O4 0.101773 0.308643 0.910027
O O5 0.905585 0.230318 0.120387
O O6 0.500000 0.997702 0.750000
O O7 0.777961 0.909585 0.780039
O O8 0.677240 0.000000 0.000000
#
# Coordination Sequence:
#
# PCOD9320145 Si02
#       4
#     4   8   8   8
#     4  10  24  44  68 100 140 180 228 278 344 410
#     4  10  22  44  68  96 137 175 234 275 345 409
#     4  12  25  46  72 106 141 180 230 289 346 411
#     4  10  22  43  65 100 132 174 227 282 336 408
#
# _framework density 23.119852999999999
#
# number of rings (size 3 to 8) (size 9 to 14) (size 15 to 20)
#    0.000    1.714    5.714    0.000    0.000    9.143 
#    0.000    0.000    0.000    0.000    0.000    0.000 
#    0.000    0.000    0.000    0.000    0.000    0.000 
#
# Total GULP energy -78273.010109 kJ/mol
# GULP energy per Si atom -5590.929294 kJ/mol
# Density = 2.306723 g / cm^3
# Si number density = 23.119853 Si / 1000 Ang^3
#
#
#
# Elastic Constant Matrix: (Units=GPa)
#
#
# Indices 1 2 3 4 5 6 
#
# 1 95.4445 15.4757 28.9119 0.0000 0.0000 0.0000
# 2 15.4757 126.1291 28.4558 0.0000 0.0000 0.0000
# 3 28.9119 28.4558 138.3942 0.0000 0.0000 0.0000
# 4 0.0000 0.0000 0.0000 -17.9374 0.0000 0.0000
# 5 0.0000 0.0000 0.0000 0.0000 39.4034 0.0000
# 6 0.0000 0.0000 0.0000 0.0000 0.0000 37.4605
#
#
#
# Elastic Compliance Matrix: (Units=1/GPa)
#
#
# Indices 1 2 3 4 5 6 
#
# 1 0.011280 -0.000894 -0.002173 0.000000 0.000000 0.000000
# 2 -0.000894 0.008385 -0.001537 0.000000 0.000000 0.000000
# 3 -0.002173 -0.001537 0.007996 0.000000 0.000000 0.000000
# 4 0.000000 0.000000 0.000000 -0.055750 0.000000 0.000000
# 5 0.000000 0.000000 0.000000 0.000000 0.025379 0.000000
# 6 0.000000 0.000000 0.000000 0.000000 0.000000 0.026695
#
#
# Mechanical properties :
#
#
# Convention : Reuss Voigt Hill
#
# Bulk Modulus (GPa) = 54.19148 56.18384 55.18766
# Shear Modulus (GPa) = 127.08476 30.92694 79.00585
#
# Velocity S-wave (km/s) = 7.42207 3.66140 5.85205
# Velocity P-wave (km/s) = 9.84580 6.49833 8.34170
#
# Compressibility (1/GPa) = 0.01845309
#
# Stress axis : x y z
#
# Youngs Moduli (GPa) = 88.64925 119.26215 125.06652
#
# Poissons Ratio (x) = 0.10661 0.27174
# Poissons Ratio (y) = 0.07924 0.19227
# Poissons Ratio (z) = 0.19262 0.18334
#
# Static dielectric constant tensor:
#      x y z
#    x 2.211290 0.000000 0.000000 
#    y 0.000000 1.798280 0.000000 
#    z 0.000000 0.000000 1.860930 
# 
# From -- ./inp_files/5679.got.cif
#   From: 2010.05.17/outbox.cif.g08.bks.cpg/sg20_3_cif.got.tgz:5679.got - 2010.06.03 22:52:26.
