data_PCOD9320114
_publ_section_title
;
Structure prediction by ZEFSAII (Michael W. Deem and Ramdas Pophale) SiO2 
 PCOD9320114
Probable space group: C 2 2 21
;
_chemical_formula_sum "Si O2"
_cell_formula_units_Z 32
_cell_length_a 7.822561
_cell_length_b 12.849547
_cell_length_c 14.781700
_cell_angle_alpha 90.000000
_cell_angle_beta 90.000000
_cell_angle_gamma 90.000000
_cell_volume 1485.802756
_symmetry_space_group_name_H-M "C 2 2 21"
_symmetry_group_IT_number 20
_symmetry_cell_setting 'orthorhombic'
loop_
_space_group_symop_operation_xyz
x,y,z
-x,-y,1/2+z
x,-y,-z
-x,y,1/2-z
1/2+x,1/2+y,z
1/2-x,1/2-y,1/2+z
1/2+x,1/2-y,-z
1/2-x,1/2+y,1/2-z
loop_
_atom_site_type_symbol
_atom_site_label
_atom_site_fract_x
_atom_site_fract_y
_atom_site_fract_z
Si Si1 0.164128 0.000000 0.000000
Si Si2 0.000000 0.117832 0.250000
Si Si3 0.151607 0.480334 0.690572
Si Si4 0.060621 0.613475 0.047631
Si Si5 0.058024 0.193331 0.440242
O O1 0.265951 0.981366 0.094590
O O2 0.050721 0.102501 0.012217
O O3 0.177709 0.050712 0.246921
O O4 0.995160 0.189127 0.337749
O O5 0.000000 0.536115 0.750000
O O6 0.034920 0.390378 0.644295
O O7 0.248124 0.657797 0.058254
O O8 0.074161 0.500000 0.000000
O O9 0.963576 0.696128 0.985892
#
# Coordination Sequence:
#
# PCOD9320114 Si02
#       5
#     4   4   8   8   8
#     4  10  22  42  76 106 142 202 242 304 366 436
#     4  10  22  42  70 106 142 192 242 304 356 440
#     4  11  22  43  72 105 149 188 245 299 362 434
#     4  12  25  46  74 106 140 197 238 297 370 429
#     4  11  23  45  74 102 149 188 248 300 364 436
#
# _framework density 21.537178000000001
#
# number of rings (size 3 to 8) (size 9 to 14) (size 15 to 20)
#    0.000    1.000    5.000    3.000    0.000    0.000 
#    2.250    0.000   16.500    0.000    0.000    0.000 
#    0.000    0.000    0.000    0.000    0.000    0.000 
#
# Total GULP energy -89138.677644 kJ/mol
# GULP energy per Si atom -5571.167353 kJ/mol
# Density = 2.148816 g / cm^3
# Si number density = 21.537178 Si / 1000 Ang^3
#
#
#
# Elastic Constant Matrix: (Units=GPa)
#
#
# Indices 1 2 3 4 5 6 
#
# 1 165.3085 30.1310 29.1925 0.0000 0.0000 0.0000
# 2 30.1310 101.2499 22.7692 0.0000 0.0000 0.0000
# 3 29.1925 22.7692 87.2874 0.0000 0.0000 0.0000
# 4 0.0000 0.0000 0.0000 24.9506 0.0000 0.0000
# 5 0.0000 0.0000 0.0000 0.0000 -424.2882 0.0000
# 6 0.0000 0.0000 0.0000 0.0000 0.0000 45.3160
#
#
#
# Elastic Compliance Matrix: (Units=1/GPa)
#
#
# Indices 1 2 3 4 5 6 
#
# 1 0.006657 -0.001573 -0.001816 0.000000 0.000000 0.000000
# 2 -0.001573 0.010864 -0.002308 0.000000 0.000000 0.000000
# 3 -0.001816 -0.002308 0.012666 0.000000 0.000000 0.000000
# 4 0.000000 0.000000 0.000000 0.040079 0.000000 0.000000
# 5 0.000000 0.000000 0.000000 0.000000 -0.002357 0.000000
# 6 0.000000 0.000000 0.000000 0.000000 0.000000 0.022067
#
#
# Mechanical properties :
#
#
# Convention : Reuss Voigt Hill
#
# Bulk Modulus (GPa) = 53.21127 57.55904 55.38515
# Shear Modulus (GPa) = 46.45427 -52.68746 -3.11660
#
# Velocity S-wave (km/s) = 4.64932 -4.95142 -1.20425
# Velocity P-wave (km/s) = 7.31997 2.43009 4.88245
#
# Compressibility (1/GPa) = 0.01879301
#
# Stress axis : x y z
#
# Youngs Moduli (GPa) = 150.22615 92.05114 78.95286
#
# Poissons Ratio (x) = 0.14476 0.14338
# Poissons Ratio (y) = 0.23624 0.18221
# Poissons Ratio (z) = 0.27282 0.21244
#
# Static dielectric constant tensor:
#      x y z
#    x 1.868830 0.000000 0.000000 
#    y 0.000000 1.773120 0.000000 
#    z 0.000000 0.000000 1.850170 
# 
# From -- ./inp_files/18231.got.cif
#   From: 2010.05.17/outbox.cif.g08.bks.cpg/sg20_10_cif.got.tgz:18231.got - 2010.06.03 22:52:26.
