data_PCOD9320513
_publ_section_title
;
Structure prediction by ZEFSAII (Michael W. Deem and Ramdas Pophale) SiO2 
 PCOD9320513
Probable space group: C 2 2 21
;
_chemical_formula_sum "Si O2"
_cell_formula_units_Z 40
_cell_length_a 10.214814
_cell_length_b 7.543367
_cell_length_c 23.891687
_cell_angle_alpha 90.000000
_cell_angle_beta 90.000000
_cell_angle_gamma 90.000000
_cell_volume 1840.952220
_symmetry_space_group_name_H-M "C 2 2 21"
_symmetry_group_IT_number 20
_symmetry_cell_setting 'orthorhombic'
loop_
_space_group_symop_operation_xyz
x,y,z
-x,-y,1/2+z
x,-y,-z
-x,y,1/2-z
1/2+x,1/2+y,z
1/2-x,1/2-y,1/2+z
1/2+x,1/2-y,-z
1/2-x,1/2+y,1/2-z
loop_
_atom_site_type_symbol
_atom_site_label
_atom_site_fract_x
_atom_site_fract_y
_atom_site_fract_z
Si Si1 0.504111 0.353679 0.815853
Si Si2 0.286659 0.771609 0.106599
Si Si3 0.490005 0.791311 0.482319
Si Si4 0.277976 0.320080 0.606300
Si Si5 0.983649 0.198165 0.605359
O O1 0.500000 0.375041 0.750000
O O2 0.378704 0.249079 0.839653
O O3 0.638917 0.269586 0.838649
O O4 0.506396 0.537335 0.850596
O O5 0.383920 0.734835 0.054946
O O6 0.145554 0.677980 0.114807
O O7 0.231089 0.968436 0.097812
O O8 0.360255 0.762581 0.444888
O O9 0.481045 0.674563 0.538053
O O10 0.502573 0.000000 0.500000
O O11 0.127334 0.277458 0.612169
#
# Coordination Sequence:
#
# PCOD9320513 Si02
#       5
#     8   8   8   8   8
#     4  10  25  45  64  89 129 172 222 279 325 378
#     4  10  23  42  63  96 132 168 216 265 322 394
#     4  11  22  39  65  97 141 172 209 263 331 399
#     4  10  23  42  63  96 130 169 218 263 326 396
#     4  11  23  39  68  97 130 169 219 265 328 394
#
# _framework density 21.727885000000001
#
# number of rings (size 3 to 8) (size 9 to 14) (size 15 to 20)
#    0.000    1.600    2.000    1.200    2.800    9.600 
#    3.600    1.000    0.000    0.000    0.000    0.000 
#    0.000    0.000    0.000    0.000    0.000    0.000 
#
# Total GULP energy -111460.508767 kJ/mol
# GULP energy per Si atom -5573.025438 kJ/mol
# Density = 2.167843 g / cm^3
# Si number density = 21.727885 Si / 1000 Ang^3
#
#
#
# Elastic Constant Matrix: (Units=GPa)
#
#
# Indices 1 2 3 4 5 6 
#
# 1 185.0719 24.5813 62.8427 0.0000 0.0000 0.0000
# 2 24.5813 44.6816 52.9001 0.0000 0.0000 0.0000
# 3 62.8427 52.9001 175.0154 0.0000 0.0000 0.0000
# 4 0.0000 0.0000 0.0000 22.6142 0.0000 0.0000
# 5 0.0000 0.0000 0.0000 0.0000 11.2756 0.0000
# 6 0.0000 0.0000 0.0000 0.0000 0.0000 6.7384
#
#
#
# Elastic Compliance Matrix: (Units=1/GPa)
#
#
# Indices 1 2 3 4 5 6 
#
# 1 0.006195 -0.001206 -0.001860 0.000000 0.000000 0.000000
# 2 -0.001206 0.035088 -0.010172 0.000000 0.000000 0.000000
# 3 -0.001860 -0.010172 0.009456 0.000000 0.000000 0.000000
# 4 0.000000 0.000000 0.000000 0.044220 0.000000 0.000000
# 5 0.000000 0.000000 0.000000 0.000000 0.088687 0.000000
# 6 0.000000 0.000000 0.000000 0.000000 0.000000 0.148403
#
#
# Mechanical properties :
#
#
# Convention : Reuss Voigt Hill
#
# Bulk Modulus (GPa) = 41.21678 76.15746 58.68712
# Shear Modulus (GPa) = 13.63834 25.75530 19.69682
#
# Velocity S-wave (km/s) = 2.50809 3.44664 3.01412
# Velocity P-wave (km/s) = 5.23432 7.13903 6.25954
#
# Compressibility (1/GPa) = 0.02426196
#
# Stress axis : x y z
#
# Youngs Moduli (GPa) = 161.41926 28.50002 105.74920
#
# Poissons Ratio (x) = 0.03438 0.19668
# Poissons Ratio (y) = 0.19470 1.07573
# Poissons Ratio (z) = 0.30022 0.28992
#
# Static dielectric constant tensor:
#      x y z
#    x 2.093120 0.000000 0.000000 
#    y 0.000000 1.994410 0.000000 
#    z 0.000000 0.000000 1.745090 
# 
# From -- ./inp_files/28606.got.cif
#   From: 2010.05.17/outbox.cif.g08.bks.cpg/sg20_15_cif.got.tgz:28606.got - 2010.06.03 22:52:26.
