data_PCOD9320150
_publ_section_title
;
Structure prediction by ZEFSAII (Michael W. Deem and Ramdas Pophale) SiO2 
 PCOD9320150
Probable space group: C 2 2 21
;
_chemical_formula_sum "Si O2"
_cell_formula_units_Z 40
_cell_length_a 20.107860
_cell_length_b 13.216302
_cell_length_c 6.905604
_cell_angle_alpha 90.000000
_cell_angle_beta 90.000000
_cell_angle_gamma 90.000000
_cell_volume 1835.174969
_symmetry_space_group_name_H-M "C 2 2 21"
_symmetry_group_IT_number 20
_symmetry_cell_setting 'orthorhombic'
loop_
_space_group_symop_operation_xyz
x,y,z
-x,-y,1/2+z
x,-y,-z
-x,y,1/2-z
1/2+x,1/2+y,z
1/2-x,1/2-y,1/2+z
1/2+x,1/2-y,-z
1/2-x,1/2+y,1/2-z
loop_
_atom_site_type_symbol
_atom_site_label
_atom_site_fract_x
_atom_site_fract_y
_atom_site_fract_z
Si Si1 0.392601 0.000000 0.000000
Si Si2 0.694695 0.179644 0.416444
Si Si3 0.166229 0.843944 0.732525
Si Si4 0.000000 0.397786 0.750000
Si Si5 0.096994 0.246967 0.905263
Si Si6 0.922564 0.976123 0.279332
O O1 0.441783 0.967141 0.830225
O O2 0.345327 0.095007 0.964948
O O3 0.767941 0.141146 0.363546
O O4 0.690285 0.279559 0.548088
O O5 0.655979 0.199407 0.214938
O O6 0.126202 0.944911 0.673769
O O7 0.117762 0.782165 0.878024
O O8 0.966327 0.321035 0.597159
O O9 0.083549 0.145253 0.777260
O O10 0.000000 0.003139 0.250000
O O11 0.904863 0.000000 0.500000
#
# Coordination Sequence:
#
# PCOD9320150 Si02
#       6
#     4   8   8   4   8   8
#     4  10  26  40  66  94 130 168 222 266 308 390
#     4  11  24  43  63  92 129 173 217 262 317 377
#     4  11  24  40  68  93 129 173 213 264 324 380
#     4  10  22  44  66  90 130 168 216 270 320 374
#     4  10  22  43  65  92 128 167 210 269 319 379
#     4  10  23  39  65  99 128 160 212 266 323 388
#
# _framework density 21.796285999999998
#
# number of rings (size 3 to 8) (size 9 to 14) (size 15 to 20)
#    0.000    1.600    3.000    0.000    9.800    1.600 
#    0.000    0.000    0.000    0.000    0.000    0.000 
#    0.000    0.000    0.000    0.000    0.000    0.000 
#
# Total GULP energy -111578.876179 kJ/mol
# GULP energy per Si atom -5578.943809 kJ/mol
# Density = 2.174668 g / cm^3
# Si number density = 21.796286 Si / 1000 Ang^3
#
#
#
# Elastic Constant Matrix: (Units=GPa)
#
#
# Indices 1 2 3 4 5 6 
#
# 1 107.1658 39.7153 3.7406 0.0000 0.0000 0.0000
# 2 39.7153 92.1744 8.5709 0.0000 0.0000 0.0000
# 3 3.7406 8.5709 53.2500 0.0000 0.0000 0.0000
# 4 0.0000 0.0000 0.0000 28.7689 0.0000 0.0000
# 5 0.0000 0.0000 0.0000 0.0000 24.1460 0.0000
# 6 0.0000 0.0000 0.0000 0.0000 0.0000 30.5548
#
#
#
# Elastic Compliance Matrix: (Units=1/GPa)
#
#
# Indices 1 2 3 4 5 6 
#
# 1 0.011105 -0.004784 -0.000010 0.000000 0.000000 0.000000
# 2 -0.004784 0.013075 -0.001768 0.000000 0.000000 0.000000
# 3 -0.000010 -0.001768 0.019065 0.000000 0.000000 0.000000
# 4 0.000000 0.000000 0.000000 0.034760 0.000000 0.000000
# 5 0.000000 0.000000 0.000000 0.000000 0.041415 0.000000
# 6 0.000000 0.000000 0.000000 0.000000 0.000000 0.032728
#
#
# Mechanical properties :
#
#
# Convention : Reuss Voigt Hill
#
# Bulk Modulus (GPa) = 33.20111 39.62708 36.41409
# Shear Modulus (GPa) = 28.52083 30.06483 29.29283
#
# Velocity S-wave (km/s) = 3.62127 3.71800 3.66995
# Velocity P-wave (km/s) = 5.72279 6.05404 5.89075
#
# Compressibility (1/GPa) = 0.03011948
#
# Stress axis : x y z
#
# Youngs Moduli (GPa) = 90.05356 76.48431 52.45297
#
# Poissons Ratio (x) = 0.36588 0.00053
# Poissons Ratio (y) = 0.43079 0.09276
# Poissons Ratio (z) = 0.00091 0.13525
#
# Static dielectric constant tensor:
#      x y z
#    x 1.801330 0.000000 0.000000 
#    y 0.000000 1.853980 0.000000 
#    z 0.000000 0.000000 1.801990 
# 
# From -- ./inp_files/7261.got.cif
#   From: 2010.05.17/outbox.cif.g08.bks.cpg/sg20_4_cif.got.tgz:7261.got - 2010.06.03 22:52:26.
