data_PCOD9320153
_publ_section_title
;
Structure prediction by ZEFSAII (Michael W. Deem and Ramdas Pophale) SiO2 
 PCOD9320153
Probable space group: C 2 2 21
;
_chemical_formula_sum "Si O2"
_cell_formula_units_Z 48
_cell_length_a 27.194388
_cell_length_b 5.991114
_cell_length_c 13.976948
_cell_angle_alpha 90.000000
_cell_angle_beta 90.000000
_cell_angle_gamma 90.000000
_cell_volume 2277.189762
_symmetry_space_group_name_H-M "C 2 2 21"
_symmetry_group_IT_number 20
_symmetry_cell_setting 'orthorhombic'
loop_
_space_group_symop_operation_xyz
x,y,z
-x,-y,1/2+z
x,-y,-z
-x,y,1/2-z
1/2+x,1/2+y,z
1/2-x,1/2-y,1/2+z
1/2+x,1/2-y,-z
1/2-x,1/2+y,1/2-z
loop_
_atom_site_type_symbol
_atom_site_label
_atom_site_fract_x
_atom_site_fract_y
_atom_site_fract_z
Si Si1 0.863874 0.221120 0.310638
Si Si2 0.298542 0.589401 0.807067
Si Si3 0.545382 0.220135 0.685683
Si Si4 0.704764 0.886844 0.874604
Si Si5 0.048432 0.000000 0.500000
Si Si6 0.118700 0.368014 0.588763
Si Si7 0.831448 0.000000 0.500000
O O1 0.916558 0.175376 0.262256
O O2 0.843280 0.464579 0.344770
O O3 0.825584 0.133011 0.230732
O O4 0.860917 0.072315 0.405994
O O5 0.282536 0.718497 0.711947
O O6 0.252804 0.541996 0.875321
O O7 0.339163 0.747696 0.853357
O O8 0.500000 0.139015 0.750000
O O9 0.526789 0.371510 0.595006
O O10 0.581632 0.029997 0.644785
O O11 0.696341 0.724744 0.964757
O O12 0.083151 0.816934 0.453738
O O13 0.141683 0.500000 0.500000
#
# Coordination Sequence:
#
# PCOD9320153 Si02
#       7
#     8   8   8   8   4   8   4
#     4  11  22  44  65  96 135 182 229 285 341 411
#     4  11  21  40  68  93 130 184 223 280 344 400
#     4  11  24  43  74 102 136 181 227 293 354 416
#     4  11  22  42  65  96 136 178 236 278 337 417
#     4  10  22  45  66 106 134 166 232 285 344 420
#     4  10  22  43  65  98 138 171 228 289 341 409
#     4  10  26  43  62  98 146 182 226 285 336 424
#
# _framework density 21.078612
#
# number of rings (size 3 to 8) (size 9 to 14) (size 15 to 20)
#    0.000    1.333    5.000    0.500    0.000    1.333 
#    4.500    5.000    0.000    0.000    0.000    0.000 
#    0.000    0.000    0.000    0.000    0.000    0.000 
#
# Total GULP energy -133746.593052 kJ/mol
# GULP energy per Si atom -5572.774710 kJ/mol
# Density = 2.103064 g / cm^3
# Si number density = 21.078612 Si / 1000 Ang^3
#
#
#
# Elastic Constant Matrix: (Units=GPa)
#
#
# Indices 1 2 3 4 5 6 
#
# 1 73.9262 9.5834 45.4369 0.0000 0.0000 0.0000
# 2 9.5834 67.9667 36.9834 0.0000 0.0000 0.0000
# 3 45.4369 36.9834 135.7512 0.0000 0.0000 0.0000
# 4 0.0000 0.0000 0.0000 36.7952 0.0000 0.0000
# 5 0.0000 0.0000 0.0000 0.0000 24.4981 0.0000
# 6 0.0000 0.0000 0.0000 0.0000 0.0000 2.3390
#
#
#
# Elastic Compliance Matrix: (Units=1/GPa)
#
#
# Indices 1 2 3 4 5 6 
#
# 1 0.017070 0.000824 -0.005938 0.000000 0.000000 0.000000
# 2 0.000824 0.017314 -0.004993 0.000000 0.000000 0.000000
# 3 -0.005938 -0.004993 0.010714 0.000000 0.000000 0.000000
# 4 0.000000 0.000000 0.000000 0.027177 0.000000 0.000000
# 5 0.000000 0.000000 0.000000 0.000000 0.040820 0.000000
# 6 0.000000 0.000000 0.000000 0.000000 0.000000 0.427525
#
#
# Mechanical properties :
#
#
# Convention : Reuss Voigt Hill
#
# Bulk Modulus (GPa) = 40.18552 51.29463 45.74008
# Shear Modulus (GPa) = 8.78539 25.10248 16.94394
#
# Velocity S-wave (km/s) = 2.04376 3.45468 2.83829
# Velocity P-wave (km/s) = 4.96742 6.34830 5.69983
#
# Compressibility (1/GPa) = 0.02488458
#
# Stress axis : x y z
#
# Youngs Moduli (GPa) = 58.58318 57.75806 93.33525
#
# Poissons Ratio (x) = -0.04760 0.55422
# Poissons Ratio (y) = -0.04828 0.46599
# Poissons Ratio (z) = 0.34786 0.28837
#
# Static dielectric constant tensor:
#      x y z
#    x 1.747140 0.000000 0.000000 
#    y 0.000000 1.773700 0.000000 
#    z 0.000000 0.000000 1.780330 
# 
# From -- ./inp_files/22175.got.cif
#   From: 2010.05.17/outbox.cif.g08.bks.cpg/sg20_12_cif.got.tgz:22175.got - 2010.06.03 22:52:26.
