data_PCOD9320365
_publ_section_title
;
Structure prediction by ZEFSAII (Michael W. Deem and Ramdas Pophale) SiO2 
 PCOD9320365
Probable space group: C 2 2 21
;
_chemical_formula_sum "Si O2"
_cell_formula_units_Z 28
_cell_length_a 9.725772
_cell_length_b 5.037339
_cell_length_c 20.131939
_cell_angle_alpha 90.000000
_cell_angle_beta 90.000000
_cell_angle_gamma 90.000000
_cell_volume 986.304169
_symmetry_space_group_name_H-M "C 2 2 21"
_symmetry_group_IT_number 20
_symmetry_cell_setting 'orthorhombic'
loop_
_space_group_symop_operation_xyz
x,y,z
-x,-y,1/2+z
x,-y,-z
-x,y,1/2-z
1/2+x,1/2+y,z
1/2-x,1/2-y,1/2+z
1/2+x,1/2-y,-z
1/2-x,1/2+y,1/2-z
loop_
_atom_site_type_symbol
_atom_site_label
_atom_site_fract_x
_atom_site_fract_y
_atom_site_fract_z
Si Si1 0.731321 0.063305 0.294122
Si Si2 0.671743 0.000000 0.000000
Si Si3 0.940141 0.187926 0.942361
Si Si4 0.496611 0.290222 0.830008
O O1 0.714787 0.281250 0.236164
O O2 0.593277 0.975039 0.330820
O O3 0.657527 0.688879 0.157614
O O4 0.785333 0.214397 0.972636
O O5 0.560338 0.909898 0.943837
O O6 0.929272 0.006145 0.877074
O O7 0.003625 0.000000 0.000000
O O8 0.500000 0.347972 0.750000
#
# Coordination Sequence:
#
# PCOD9320365 Si02
#       4
#     8   4   8   8
#     4  10  23  44  72 108 152 190 243 305 374 437
#     4  10  24  44  74  98 140 188 244 292 360 436
#     4  10  24  47  72 103 144 190 241 296 364 433
#     4  10  22  46  70 110 142 192 242 308 364 437
#
# _framework density 28.388805000000001
#
# number of rings (size 3 to 8) (size 9 to 14) (size 15 to 20)
#    0.857    1.143    0.000    1.714    2.000   10.286 
#   41.143    0.000    0.000    0.000    0.000    0.000 
#    0.000    0.000    0.000    0.000    0.000    0.000 
#
# Total GULP energy -78097.698884 kJ/mol
# GULP energy per Si atom -5578.407063 kJ/mol
# Density = 2.832419 g / cm^3
# Si number density = 28.388805 Si / 1000 Ang^3
#
#
#
# Elastic Constant Matrix: (Units=GPa)
#
#
# Indices 1 2 3 4 5 6 
#
# 1 274.3857 94.8870 69.2139 0.0000 0.0000 0.0000
# 2 94.8870 149.6593 18.2119 0.0000 0.0000 0.0000
# 3 69.2139 18.2119 65.7915 0.0000 0.0000 0.0000
# 4 0.0000 0.0000 0.0000 31.1816 0.0000 0.0000
# 5 0.0000 0.0000 0.0000 0.0000 51.4198 0.0000
# 6 0.0000 0.0000 0.0000 0.0000 0.0000 72.7250
#
#
#
# Elastic Compliance Matrix: (Units=1/GPa)
#
#
# Indices 1 2 3 4 5 6 
#
# 1 0.006176 -0.003234 -0.005602 0.000000 0.000000 0.000000
# 2 -0.003234 0.008608 0.001019 0.000000 0.000000 0.000000
# 3 -0.005602 0.001019 0.020811 0.000000 0.000000 0.000000
# 4 0.000000 0.000000 0.000000 0.032070 0.000000 0.000000
# 5 0.000000 0.000000 0.000000 0.000000 0.019448 0.000000
# 6 0.000000 0.000000 0.000000 0.000000 0.000000 0.013750
#
#
# Mechanical properties :
#
#
# Convention : Reuss Voigt Hill
#
# Bulk Modulus (GPa) = 50.09603 94.94022 72.51812
# Shear Modulus (GPa) = 40.60070 51.56687 46.08378
#
# Velocity S-wave (km/s) = 3.78586 4.26661 4.03340
# Velocity P-wave (km/s) = 6.06589 7.60180 6.87686
#
# Compressibility (1/GPa) = 0.01996166
#
# Stress axis : x y z
#
# Youngs Moduli (GPa) = 161.91733 116.16806 48.05198
#
# Poissons Ratio (x) = 0.37569 0.26919
# Poissons Ratio (y) = 0.52364 -0.04898
# Poissons Ratio (z) = 0.90707 -0.11842
#
# Static dielectric constant tensor:
#      x y z
#    x 2.358000 0.000000 0.000000 
#    y 0.000000 2.310110 0.000000 
#    z 0.000000 0.000000 2.318100 
# 
# From -- ./inp_files/26990.got.cif
#   From: 2010.05.17/outbox.cif.g08.bks.cpg/sg20_14_cif.got.tgz:26990.got - 2010.06.03 22:52:26.
