data_PCOD9320788
_publ_section_title
;
Structure prediction by ZEFSAII (Michael W. Deem and Ramdas Pophale) SiO2 
 PCOD9320788
Probable space group: C 2 2 21
;
_chemical_formula_sum "Si O2"
_cell_formula_units_Z 32
_cell_length_a 18.145759
_cell_length_b 9.205141
_cell_length_c 9.191961
_cell_angle_alpha 90.000000
_cell_angle_beta 90.000000
_cell_angle_gamma 90.000000
_cell_volume 1535.372497
_symmetry_space_group_name_H-M "C 2 2 21"
_symmetry_group_IT_number 20
_symmetry_cell_setting 'orthorhombic'
loop_
_space_group_symop_operation_xyz
x,y,z
-x,-y,1/2+z
x,-y,-z
-x,y,1/2-z
1/2+x,1/2+y,z
1/2-x,1/2-y,1/2+z
1/2+x,1/2-y,-z
1/2-x,1/2+y,1/2-z
loop_
_atom_site_type_symbol
_atom_site_label
_atom_site_fract_x
_atom_site_fract_y
_atom_site_fract_z
Si Si1 0.802659 0.403719 0.867251
Si Si2 0.073210 0.014302 0.173443
Si Si3 0.000000 0.297256 0.250000
Si Si4 0.714869 0.573692 0.651764
Si Si5 0.053895 0.500000 0.500000
O O1 0.783179 0.488044 0.721111
O O2 0.770689 0.243456 0.866811
O O3 0.771140 0.500000 0.000000
O O4 0.889590 0.403434 0.902656
O O5 0.000000 0.948537 0.250000
O O6 0.067067 0.184288 0.221941
O O7 0.146430 0.946423 0.239073
O O8 0.068617 0.000000 0.000000
O O9 0.989140 0.396440 0.109111
O O10 0.694466 0.500000 0.500000
#
# Coordination Sequence:
#
# PCOD9320788 Si02
#       5
#     8   8   4   8   4
#     4  10  25  43  67  98 140 179 234 285 348 418
#     4  10  24  40  68  98 135 179 242 275 355 414
#     4  10  24  44  72  96 140 186 230 298 354 420
#     4  12  23  42  70  97 140 184 230 291 351 416
#     4  10  24  46  64 102 142 174 248 282 358 414
#
# _framework density 20.841846
#
# number of rings (size 3 to 8) (size 9 to 14) (size 15 to 20)
#    1.500    0.000    0.000    4.500    7.000    2.000 
#    2.250    0.000    0.000    0.000    0.000    0.000 
#    0.000    0.000    0.000    0.000    0.000    0.000 
#
# Total GULP energy -89283.846866 kJ/mol
# GULP energy per Si atom -5580.240429 kJ/mol
# Density = 2.079441 g / cm^3
# Si number density = 20.841846 Si / 1000 Ang^3
#
#
#
# Elastic Constant Matrix: (Units=GPa)
#
#
# Indices 1 2 3 4 5 6 
#
# 1 43.4466 6.5545 24.7145 0.0000 0.0000 0.0000
# 2 6.5545 148.8965 37.7394 0.0000 0.0000 0.0000
# 3 24.7145 37.7394 121.6245 0.0000 0.0000 0.0000
# 4 0.0000 0.0000 0.0000 35.9478 0.0000 0.0000
# 5 0.0000 0.0000 0.0000 0.0000 20.4484 0.0000
# 6 0.0000 0.0000 0.0000 0.0000 0.0000 -308.9793
#
#
#
# Elastic Compliance Matrix: (Units=1/GPa)
#
#
# Indices 1 2 3 4 5 6 
#
# 1 0.026031 0.000211 -0.005355 0.000000 0.000000 0.000000
# 2 0.000211 0.007291 -0.002305 0.000000 0.000000 0.000000
# 3 -0.005355 -0.002305 0.010026 0.000000 0.000000 0.000000
# 4 0.000000 0.000000 0.000000 0.027818 0.000000 0.000000
# 5 0.000000 0.000000 0.000000 0.000000 0.048904 0.000000
# 6 0.000000 0.000000 0.000000 0.000000 0.000000 -0.003236
#
#
# Mechanical properties :
#
#
# Convention : Reuss Voigt Hill
#
# Bulk Modulus (GPa) = 35.14994 50.22049 42.68521
# Shear Modulus (GPa) = 35.40712 -34.18600 0.61056
#
# Velocity S-wave (km/s) = 4.12618 -4.05440 0.54183
# Velocity P-wave (km/s) = 6.29303 1.49356 4.57345
#
# Compressibility (1/GPa) = 0.02844955
#
# Stress axis : x y z
#
# Youngs Moduli (GPa) = 38.41546 137.15389 99.74507
#
# Poissons Ratio (x) = -0.02900 0.53416
# Poissons Ratio (y) = -0.00812 0.22995
# Poissons Ratio (z) = 0.20572 0.31619
#
# Static dielectric constant tensor:
#      x y z
#    x 1.763180 0.000000 0.000000 
#    y 0.000000 1.731870 0.000000 
#    z 0.000000 0.000000 1.823540 
# 
# From -- ./inp_files/9820.got.cif
#   From: 2010.05.17/outbox.cif.g08.bks.cpg/sg20_5_cif.got.tgz:9820.got - 2010.06.03 22:52:26.
