data_PCOD9320279
_publ_section_title
;
Structure prediction by ZEFSAII (Michael W. Deem and Ramdas Pophale) SiO2 
 PCOD9320279
Probable space group: C 2 2 21
;
_chemical_formula_sum "Si O2"
_cell_formula_units_Z 40
_cell_length_a 12.561487
_cell_length_b 16.719855
_cell_length_c 8.256019
_cell_angle_alpha 90.000000
_cell_angle_beta 90.000000
_cell_angle_gamma 90.000000
_cell_volume 1733.980638
_symmetry_space_group_name_H-M "C 2 2 21"
_symmetry_group_IT_number 20
_symmetry_cell_setting 'orthorhombic'
loop_
_space_group_symop_operation_xyz
x,y,z
-x,-y,1/2+z
x,-y,-z
-x,y,1/2-z
1/2+x,1/2+y,z
1/2-x,1/2-y,1/2+z
1/2+x,1/2-y,-z
1/2-x,1/2+y,1/2-z
loop_
_atom_site_type_symbol
_atom_site_label
_atom_site_fract_x
_atom_site_fract_y
_atom_site_fract_z
Si Si1 0.655385 0.471359 0.746896
Si Si2 0.097401 0.127409 0.931401
Si Si3 0.385090 0.022164 0.812059
Si Si4 0.208922 0.693700 0.736665
Si Si5 0.373068 0.669940 0.026329
O O1 0.621064 0.419029 0.902017
O O2 0.782649 0.479978 0.734565
O O3 0.623126 0.421076 0.591101
O O4 0.608965 0.558434 0.792074
O O5 0.988832 0.177348 0.943974
O O6 0.197185 0.183140 0.894901
O O7 0.500000 0.996732 0.750000
O O8 0.366411 0.116257 0.780551
O O9 0.377428 0.000000 0.000000
O O10 0.145239 0.772217 0.681133
O O11 0.276570 0.687190 0.902563
#
# Coordination Sequence:
#
# PCOD9320279 Si02
#       5
#     8   8   8   8   8
#     4  10  22  44  72 103 144 182 253 307 360 450
#     4  10  22  46  70 103 144 192 243 306 368 437
#     4  11  25  46  70 100 143 193 242 298 365 445
#     4  11  26  46  67 109 147 187 250 298 367 456
#     4  12  26  43  76 106 148 197 239 314 378 433
#
# _framework density 23.068308999999999
#
# number of rings (size 3 to 8) (size 9 to 14) (size 15 to 20)
#    0.000    1.200    4.000    2.400    2.800   16.800 
#    0.000    0.000    0.000    0.000    0.000    0.000 
#    0.000    0.000    0.000    0.000    0.000    0.000 
#
# Total GULP energy -111800.994461 kJ/mol
# GULP energy per Si atom -5590.049723 kJ/mol
# Density = 2.301580 g / cm^3
# Si number density = 23.068309 Si / 1000 Ang^3
#
#
#
# Elastic Constant Matrix: (Units=GPa)
#
#
# Indices 1 2 3 4 5 6 
#
# 1 148.4181 14.5934 12.0750 0.0000 0.0000 0.0000
# 2 14.5934 83.0725 25.5667 0.0000 0.0000 0.0000
# 3 12.0750 25.5667 60.0129 0.0000 0.0000 0.0000
# 4 0.0000 0.0000 0.0000 45.8027 0.0000 0.0000
# 5 0.0000 0.0000 0.0000 0.0000 50.1093 0.0000
# 6 0.0000 0.0000 0.0000 0.0000 0.0000 1.6910
#
#
#
# Elastic Compliance Matrix: (Units=1/GPa)
#
#
# Indices 1 2 3 4 5 6 
#
# 1 0.006908 -0.000904 -0.001005 0.000000 0.000000 0.000000
# 2 -0.000904 0.013973 -0.005771 0.000000 0.000000 0.000000
# 3 -0.001005 -0.005771 0.019324 0.000000 0.000000 0.000000
# 4 0.000000 0.000000 0.000000 0.021833 0.000000 0.000000
# 5 0.000000 0.000000 0.000000 0.000000 0.019956 0.000000
# 6 0.000000 0.000000 0.000000 0.000000 0.000000 0.591358
#
#
# Mechanical properties :
#
#
# Convention : Reuss Voigt Hill
#
# Bulk Modulus (GPa) = 40.24935 43.99707 42.12321
# Shear Modulus (GPa) = 7.17368 35.47183 21.32275
#
# Velocity S-wave (km/s) = 1.76536 3.92559 3.04358
# Velocity P-wave (km/s) = 4.65200 6.29769 5.53634
#
# Compressibility (1/GPa) = 0.02484512
#
# Stress axis : x y z
#
# Youngs Moduli (GPa) = 144.75159 71.56896 51.75004
#
# Poissons Ratio (x) = 0.06473 0.05199
# Poissons Ratio (y) = 0.13091 0.29863
# Poissons Ratio (z) = 0.14544 0.41300
#
# Static dielectric constant tensor:
#      x y z
#    x 1.861660 0.000000 0.000000 
#    y 0.000000 1.842250 0.000000 
#    z 0.000000 0.000000 1.929830 
# 
# From -- ./inp_files/7074.got.cif
#   From: 2010.05.17/outbox.cif.g08.bks.cpg/sg20_4_cif.got.tgz:7074.got - 2010.06.03 22:52:26.
