data_PCOD9320739
_publ_section_title
;
Structure prediction by ZEFSAII (Michael W. Deem and Ramdas Pophale) SiO2 
 PCOD9320739
Probable space group: C 2 2 21
;
_chemical_formula_sum "Si O2"
_cell_formula_units_Z 60
_cell_length_a 10.308683
_cell_length_b 9.730157
_cell_length_c 23.272797
_cell_angle_alpha 90.000000
_cell_angle_beta 90.000000
_cell_angle_gamma 90.000000
_cell_volume 2334.380325
_symmetry_space_group_name_H-M "C 2 2 21"
_symmetry_group_IT_number 20
_symmetry_cell_setting 'orthorhombic'
loop_
_space_group_symop_operation_xyz
x,y,z
-x,-y,1/2+z
x,-y,-z
-x,y,1/2-z
1/2+x,1/2+y,z
1/2-x,1/2-y,1/2+z
1/2+x,1/2-y,-z
1/2-x,1/2+y,1/2-z
loop_
_atom_site_type_symbol
_atom_site_label
_atom_site_fract_x
_atom_site_fract_y
_atom_site_fract_z
Si Si1 0.159451 0.836594 0.996291
Si Si2 0.075674 0.390233 0.861542
Si Si3 0.974378 0.895969 0.836756
Si Si4 0.000000 0.557190 0.750000
Si Si5 0.404072 0.673823 0.823452
Si Si6 0.649244 0.833609 0.116763
Si Si7 0.374576 0.361365 0.968005
Si Si8 0.737682 0.246013 0.714528
O O1 0.181350 0.769048 0.934177
O O2 0.003911 0.815690 0.003638
O O3 0.260969 0.750399 0.033514
O O4 0.180968 0.000000 0.000000
O O5 0.084319 0.522136 0.903172
O O6 0.189336 0.282030 0.845307
O O7 0.057898 0.469832 0.801521
O O8 0.950472 0.296006 0.864434
O O9 0.924983 0.890081 0.903289
O O10 0.866726 0.870383 0.787388
O O11 0.073103 0.766343 0.838237
O O12 0.011086 0.052859 0.823919
O O13 0.868580 0.625585 0.777731
O O14 0.278238 0.612537 0.853776
O O15 0.346766 0.730140 0.763514
O O16 0.329221 0.500000 0.000000
#
# Coordination Sequence:
#
# PCOD9320739 Si02
#       8
#     8   8   8   4   8   8   8   8
#     4  10  24  48  74 106 140 180 237 298 369 435
#     4  12  25  44  64 101 137 184 239 285 338 413
#     4  11  24  44  68 102 139 190 230 289 361 414
#     4  12  22  44  64  94 140 186 228 292 338 396
#     4  12  25  43  67 102 146 185 239 282 343 426
#     4  11  24  47  70  99 141 181 236 295 352 428
#     4  10  23  47  74 103 145 181 234 305 363 436
#     4  12  22  43  69  95 142 189 236 284 341 414
#
# _framework density 25.702753999999999
#
# number of rings (size 3 to 8) (size 9 to 14) (size 15 to 20)
#    0.000    0.800    5.333    0.800    0.000    3.733 
#   16.800    0.000    0.000    0.000    0.000    0.000 
#    0.000    0.000    0.000    0.000    0.000    0.000 
#
# Total GULP energy -167254.819245 kJ/mol
# GULP energy per Si atom -5575.160641 kJ/mol
# Density = 2.564425 g / cm^3
# Si number density = 25.702754 Si / 1000 Ang^3
#
#
#
# Elastic Constant Matrix: (Units=GPa)
#
#
# Indices 1 2 3 4 5 6 
#
# 1 109.2331 72.1831 26.0718 0.0000 0.0000 0.0000
# 2 72.1831 157.6262 31.1686 0.0000 0.0000 0.0000
# 3 26.0718 31.1686 73.3008 0.0000 0.0000 0.0000
# 4 0.0000 0.0000 0.0000 41.3283 0.0000 0.0000
# 5 0.0000 0.0000 0.0000 0.0000 24.3095 0.0000
# 6 0.0000 0.0000 0.0000 0.0000 0.0000 31.1513
#
#
#
# Elastic Compliance Matrix: (Units=1/GPa)
#
#
# Indices 1 2 3 4 5 6 
#
# 1 0.013495 -0.005711 -0.002371 0.000000 0.000000 0.000000
# 2 -0.005711 0.009343 -0.001942 0.000000 0.000000 0.000000
# 3 -0.002371 -0.001942 0.015312 0.000000 0.000000 0.000000
# 4 0.000000 0.000000 0.000000 0.024197 0.000000 0.000000
# 5 0.000000 0.000000 0.000000 0.000000 0.041136 0.000000
# 6 0.000000 0.000000 0.000000 0.000000 0.000000 0.032101
#
#
# Mechanical properties :
#
#
# Convention : Reuss Voigt Hill
#
# Bulk Modulus (GPa) = 55.24400 66.55636 60.90018
# Shear Modulus (GPa) = 30.92816 33.40692 32.16754
#
# Velocity S-wave (km/s) = 3.47263 3.60910 3.54152
# Velocity P-wave (km/s) = 6.13343 6.58167 6.36150
#
# Compressibility (1/GPa) = 0.01810151
#
# Stress axis : x y z
#
# Youngs Moduli (GPa) = 74.10423 107.02935 65.31025
#
# Poissons Ratio (x) = 0.61122 0.15488
# Poissons Ratio (y) = 0.42319 0.12681
# Poissons Ratio (z) = 0.17574 0.20782
#
# Static dielectric constant tensor:
#      x y z
#    x 2.089180 0.000000 0.000000 
#    y 0.000000 2.051820 0.000000 
#    z 0.000000 0.000000 2.080410 
# 
# From -- ./inp_files/30332.got.cif
#   From: 2010.05.17/outbox.cif.g08.bks.cpg/sg20_16_cif.got.tgz:30332.got - 2010.06.03 22:52:26.
