data_PCOD9320743
_publ_section_title
;
Structure prediction by ZEFSAII (Michael W. Deem and Ramdas Pophale) SiO2 
 PCOD9320743
Probable space group: C 2 2 21
;
_chemical_formula_sum "Si O2"
_cell_formula_units_Z 20
_cell_length_a 15.920082
_cell_length_b 10.750607
_cell_length_c 5.023456
_cell_angle_alpha 90.000000
_cell_angle_beta 90.000000
_cell_angle_gamma 90.000000
_cell_volume 859.767232
_symmetry_space_group_name_H-M "C 2 2 21"
_symmetry_group_IT_number 20
_symmetry_cell_setting 'orthorhombic'
loop_
_space_group_symop_operation_xyz
x,y,z
-x,-y,1/2+z
x,-y,-z
-x,y,1/2-z
1/2+x,1/2+y,z
1/2-x,1/2-y,1/2+z
1/2+x,1/2-y,-z
1/2-x,1/2+y,1/2-z
loop_
_atom_site_type_symbol
_atom_site_label
_atom_site_fract_x
_atom_site_fract_y
_atom_site_fract_z
Si Si1 0.132948 0.081081 0.764886
Si Si2 0.209627 0.500000 0.500000
Si Si3 0.089626 0.500000 0.000000
Si Si4 0.500000 0.788312 0.750000
O O1 0.078239 0.199026 0.690716
O O2 0.147034 0.000000 0.500000
O O3 0.223004 0.105571 0.907354
O O4 0.087656 0.000000 0.000000
O O5 0.149882 0.482492 0.748690
O O6 0.030373 0.379872 0.982208
#
# Coordination Sequence:
#
# PCOD9320743 Si02
#       4
#     8   4   4   4
#     4  10  23  47  79 107 137 198 256 314 353 447
#     4  10  23  50  71 106 144 190 258 288 383 426
#     4  12  27  46  69 110 150 200 226 310 377 456
#     4  12  28  46  76 108 160 184 256 300 394 428
#
# _framework density 23.262108000000001
#
# number of rings (size 3 to 8) (size 9 to 14) (size 15 to 20)
#    1.200    0.000    2.000    2.400    0.000   12.800 
#    0.000    0.000    0.000    0.000    0.000    0.000 
#    0.000    0.000    0.000    0.000    0.000    0.000 
#
# Total GULP energy -55789.291218 kJ/mol
# GULP energy per Si atom -5578.929122 kJ/mol
# Density = 2.320916 g / cm^3
# Si number density = 23.262108 Si / 1000 Ang^3
#
#
#
# Elastic Constant Matrix: (Units=GPa)
#
#
# Indices 1 2 3 4 5 6 
#
# 1 170.8356 80.2040 82.3634 0.0000 0.0000 0.0000
# 2 80.2040 113.7269 56.6481 0.0000 0.0000 0.0000
# 3 82.3634 56.6481 191.7406 0.0000 0.0000 0.0000
# 4 0.0000 0.0000 0.0000 17.4846 0.0000 0.0000
# 5 0.0000 0.0000 0.0000 0.0000 26.9974 0.0000
# 6 0.0000 0.0000 0.0000 0.0000 0.0000 3349.5662
#
#
#
# Elastic Compliance Matrix: (Units=1/GPa)
#
#
# Indices 1 2 3 4 5 6 
#
# 1 0.009683 -0.005578 -0.002512 0.000000 0.000000 0.000000
# 2 -0.005578 0.013523 -0.001599 0.000000 0.000000 0.000000
# 3 -0.002512 -0.001599 0.006767 0.000000 0.000000 0.000000
# 4 0.000000 0.000000 0.000000 0.057193 0.000000 0.000000
# 5 0.000000 0.000000 0.000000 0.000000 0.037041 0.000000
# 6 0.000000 0.000000 0.000000 0.000000 0.000000 0.000299
#
#
# Mechanical properties :
#
#
# Convention : Reuss Voigt Hill
#
# Bulk Modulus (GPa) = 94.37754 101.63713 98.00734
# Shear Modulus (GPa) = 33.91790 695.94883 364.93336
#
# Velocity S-wave (km/s) = 3.82262 17.31550 12.53872
# Velocity P-wave (km/s) = 7.75517 21.06076 15.86976
#
# Compressibility (1/GPa) = 0.01059574
#
# Stress axis : x y z
#
# Youngs Moduli (GPa) = 103.27240 73.94628 147.78174
#
# Poissons Ratio (x) = 0.41246 0.37116
# Poissons Ratio (y) = 0.57604 0.23635
# Poissons Ratio (z) = 0.25937 0.11827
#
# Static dielectric constant tensor:
#      x y z
#    x 1.937650 0.000000 0.000000 
#    y 0.000000 1.927340 0.000000 
#    z 0.000000 0.000000 1.685260 
# 
# From -- ./inp_files/271.got.cif
#   From: 2010.05.17/outbox.cif.g08.bks.cpg/sg20_1_cif.got.tgz:271.got - 2010.06.03 22:52:26.
