data_PCOD9320052
_publ_section_title
;
Structure prediction by ZEFSAII (Michael W. Deem and Ramdas Pophale) SiO2 
 PCOD9320052
Probable space group: C 2 2 21
;
_chemical_formula_sum "Si O2"
_cell_formula_units_Z 40
_cell_length_a 23.970759
_cell_length_b 10.209048
_cell_length_c 8.085877
_cell_angle_alpha 90.000000
_cell_angle_beta 90.000000
_cell_angle_gamma 90.000000
_cell_volume 1978.764736
_symmetry_space_group_name_H-M "C 2 2 21"
_symmetry_group_IT_number 20
_symmetry_cell_setting 'orthorhombic'
loop_
_space_group_symop_operation_xyz
x,y,z
-x,-y,1/2+z
x,-y,-z
-x,y,1/2-z
1/2+x,1/2+y,z
1/2-x,1/2-y,1/2+z
1/2+x,1/2-y,-z
1/2-x,1/2+y,1/2-z
loop_
_atom_site_type_symbol
_atom_site_label
_atom_site_fract_x
_atom_site_fract_y
_atom_site_fract_z
Si Si1 0.547997 0.117264 0.626375
Si Si2 0.163965 0.251071 0.677397
Si Si3 0.244457 0.636656 0.596320
Si Si4 0.649561 0.035881 0.809777
Si Si5 0.955681 0.135320 0.901011
O O1 0.500000 0.076163 0.750000
O O2 0.603151 0.132662 0.736950
O O3 0.531668 0.246316 0.527007
O O4 0.556483 0.000000 0.500000
O O5 0.205835 0.271104 0.520569
O O6 0.200191 0.203279 0.833769
O O7 0.143731 0.398111 0.714644
O O8 0.109027 0.163135 0.650977
O O9 0.255549 0.500000 0.500000
O O10 0.208350 0.595905 0.756642
O O11 0.643720 0.000000 0.000000
O O12 0.000000 0.137713 0.750000
O O13 0.959631 0.000000 0.000000
#
# Coordination Sequence:
#
# PCOD9320052 Si02
#       5
#     8   8   8   8   8
#     4  12  23  43  72 101 132 175 226 284 344 403
#     4  11  23  44  69  98 144 180 234 292 350 415
#     4  10  22  42  66 102 140 180 229 287 349 422
#     4  11  22  40  68 104 134 171 231 289 341 417
#     4  12  28  49  68  99 146 187 235 291 351 424
#
# _framework density 20.21463
#
# number of rings (size 3 to 8) (size 9 to 14) (size 15 to 20)
#    0.000    0.800    4.000    3.600    2.800    4.800 
#    3.600    0.000    0.000    0.000    0.000    0.000 
#    0.000    0.000    0.000    0.000    0.000    0.000 
#
# Total GULP energy -111723.229822 kJ/mol
# GULP energy per Si atom -5586.161491 kJ/mol
# Density = 2.016862 g / cm^3
# Si number density = 20.214630 Si / 1000 Ang^3
#
#
#
# Elastic Constant Matrix: (Units=GPa)
#
#
# Indices 1 2 3 4 5 6 
#
# 1 102.1524 27.1608 60.1525 0.0000 0.0000 0.0000
# 2 27.1608 76.4918 37.5458 0.0000 0.0000 0.0000
# 3 60.1525 37.5458 129.9425 0.0000 0.0000 0.0000
# 4 0.0000 0.0000 0.0000 19.0166 0.0000 0.0000
# 5 0.0000 0.0000 0.0000 0.0000 39.5375 0.0000
# 6 0.0000 0.0000 0.0000 0.0000 0.0000 72.9166
#
#
#
# Elastic Compliance Matrix: (Units=1/GPa)
#
#
# Indices 1 2 3 4 5 6 
#
# 1 0.013727 -0.002045 -0.005763 0.000000 0.000000 0.000000
# 2 -0.002045 0.015539 -0.003543 0.000000 0.000000 0.000000
# 3 -0.005763 -0.003543 0.011387 0.000000 0.000000 0.000000
# 4 0.000000 0.000000 0.000000 0.052586 0.000000 0.000000
# 5 0.000000 0.000000 0.000000 0.000000 0.025292 0.000000
# 6 0.000000 0.000000 0.000000 0.000000 0.000000 0.013714
#
#
# Mechanical properties :
#
#
# Convention : Reuss Voigt Hill
#
# Bulk Modulus (GPa) = 55.71145 62.03386 58.87265
# Shear Modulus (GPa) = 31.06904 38.54263 34.80584
#
# Velocity S-wave (km/s) = 3.92466 4.37128 4.15398
# Velocity P-wave (km/s) = 6.93953 7.49878 7.22457
#
# Compressibility (1/GPa) = 0.01794963
#
# Stress axis : x y z
#
# Youngs Moduli (GPa) = 72.84963 64.35596 87.81606
#
# Poissons Ratio (x) = 0.13162 0.50613
# Poissons Ratio (y) = 0.14899 0.31113
# Poissons Ratio (z) = 0.41987 0.22801
#
# Static dielectric constant tensor:
#      x y z
#    x 1.724910 0.000000 0.000000 
#    y 0.000000 1.691600 0.000000 
#    z 0.000000 0.000000 1.701520 
# 
# From -- ./inp_files/6097.got.cif
#   From: 2010.05.17/outbox.cif.g08.bks.cpg/sg20_4_cif.got.tgz:6097.got - 2010.06.03 22:52:26.
