data_PCOD9320864
_publ_section_title
;
Structure prediction by ZEFSAII (Michael W. Deem and Ramdas Pophale) SiO2 
 PCOD9320864
Probable space group: C 2 2 21
;
_chemical_formula_sum "Si O2"
_cell_formula_units_Z 56
_cell_length_a 15.052233
_cell_length_b 5.805826
_cell_length_c 28.479807
_cell_angle_alpha 90.000000
_cell_angle_beta 90.000000
_cell_angle_gamma 90.000000
_cell_volume 2488.868723
_symmetry_space_group_name_H-M "C 2 2 21"
_symmetry_group_IT_number 20
_symmetry_cell_setting 'orthorhombic'
loop_
_space_group_symop_operation_xyz
x,y,z
-x,-y,1/2+z
x,-y,-z
-x,y,1/2-z
1/2+x,1/2+y,z
1/2-x,1/2-y,1/2+z
1/2+x,1/2-y,-z
1/2-x,1/2+y,1/2-z
loop_
_atom_site_type_symbol
_atom_site_label
_atom_site_fract_x
_atom_site_fract_y
_atom_site_fract_z
Si Si1 0.586449 0.133448 0.880450
Si Si2 0.143599 0.250993 0.017749
Si Si3 0.653862 0.843326 0.296536
Si Si4 0.147332 0.339244 0.792926
Si Si5 0.592887 0.128335 0.382031
Si Si6 0.649798 0.750802 0.517120
Si Si7 0.490946 0.504794 0.816545
O O1 0.636733 0.226490 0.925958
O O2 0.544884 0.344084 0.852181
O O3 0.639027 0.989244 0.840839
O O4 0.502525 0.977965 0.896404
O O5 0.246827 0.249927 0.001991
O O6 0.106491 0.500000 0.000000
O O7 0.107158 0.000000 0.000000
O O8 0.754638 0.763936 0.292014
O O9 0.577217 0.654903 0.288754
O O10 0.637070 0.021382 0.254953
O O11 0.641509 0.941562 0.349270
O O12 0.066068 0.161517 0.793584
O O13 0.642474 0.225358 0.426976
O O14 0.572326 0.332732 0.346715
O O15 0.613115 0.500000 0.500000
O O16 0.612064 0.000000 0.500000
#
# Coordination Sequence:
#
# PCOD9320864 Si02
#       7
#     8   8   8   8   8   8   8
#     4  10  25  46  70 104 140 194 243 310 381 443
#     4  10  24  43  71 106 143 192 250 309 378 453
#     4  11  28  47  74 111 144 197 255 304 389 461
#     4  11  28  47  74 111 144 197 255 304 389 461
#     4  10  25  46  70 104 140 194 243 310 381 443
#     4  10  24  43  71 106 143 192 250 309 378 453
#     4  10  26  49  71 102 150 190 245 322 363 462
#
# _framework density 22.500181999999999
#
# number of rings (size 3 to 8) (size 9 to 14) (size 15 to 20)
#    0.000    1.714    0.000    0.000   16.000    8.000 
#    0.000    0.000    0.000    0.000    0.000    0.000 
#    0.000    0.000    0.000    0.000    0.000    0.000 
#
# Total GULP energy -156429.152411 kJ/mol
# GULP energy per Si atom -5586.755443 kJ/mol
# Density = 2.244897 g / cm^3
# Si number density = 22.500182 Si / 1000 Ang^3
#
#
#
# Elastic Constant Matrix: (Units=GPa)
#
#
# Indices 1 2 3 4 5 6 
#
# 1 70.6638 26.3244 24.2125 0.0000 0.0000 0.0000
# 2 26.3244 132.0576 51.8078 0.0000 0.0000 0.0000
# 3 24.2125 51.8078 111.8006 0.0000 0.0000 0.0000
# 4 0.0000 0.0000 0.0000 76.9820 0.0000 0.0000
# 5 0.0000 0.0000 0.0000 0.0000 59.4919 0.0000
# 6 0.0000 0.0000 0.0000 0.0000 0.0000 23.8043
#
#
#
# Elastic Compliance Matrix: (Units=1/GPa)
#
#
# Indices 1 2 3 4 5 6 
#
# 1 0.015796 -0.002208 -0.002398 0.000000 0.000000 0.000000
# 2 -0.002208 0.009564 -0.003954 0.000000 0.000000 0.000000
# 3 -0.002398 -0.003954 0.011296 0.000000 0.000000 0.000000
# 4 0.000000 0.000000 0.000000 0.012990 0.000000 0.000000
# 5 0.000000 0.000000 0.000000 0.000000 0.016809 0.000000
# 6 0.000000 0.000000 0.000000 0.000000 0.000000 0.042009
#
#
# Mechanical properties :
#
#
# Convention : Reuss Voigt Hill
#
# Bulk Modulus (GPa) = 51.18608 57.69015 54.43812
# Shear Modulus (GPa) = 37.85184 46.20080 42.02632
#
# Velocity S-wave (km/s) = 4.10602 4.53631 4.32652
# Velocity P-wave (km/s) = 6.72888 7.28924 7.01466
#
# Compressibility (1/GPa) = 0.01953656
#
# Stress axis : x y z
#
# Youngs Moduli (GPa) = 63.30872 104.56285 88.52855
#
# Poissons Ratio (x) = 0.23088 0.21226
# Poissons Ratio (y) = 0.13979 0.35000
# Poissons Ratio (z) = 0.15179 0.41339
#
# Static dielectric constant tensor:
#      x y z
#    x 1.740640 0.000000 0.000000 
#    y 0.000000 1.859440 0.000000 
#    z 0.000000 0.000000 1.803870 
# 
# From -- ./inp_files/31289.got.cif
#   From: 2010.05.17/outbox.cif.g08.bks.cpg/sg20_16_cif.got.tgz:31289.got - 2010.06.03 22:52:26.
