data_PCOD9320722
_publ_section_title
;
Structure prediction by ZEFSAII (Michael W. Deem and Ramdas Pophale) SiO2 
 PCOD9320722
Probable space group: C 2 2 21
;
_chemical_formula_sum "Si O2"
_cell_formula_units_Z 40
_cell_length_a 10.818316
_cell_length_b 18.501718
_cell_length_c 9.091151
_cell_angle_alpha 90.000000
_cell_angle_beta 90.000000
_cell_angle_gamma 90.000000
_cell_volume 1819.661437
_symmetry_space_group_name_H-M "C 2 2 21"
_symmetry_group_IT_number 20
_symmetry_cell_setting 'orthorhombic'
loop_
_space_group_symop_operation_xyz
x,y,z
-x,-y,1/2+z
x,-y,-z
-x,y,1/2-z
1/2+x,1/2+y,z
1/2-x,1/2-y,1/2+z
1/2+x,1/2-y,-z
1/2-x,1/2+y,1/2-z
loop_
_atom_site_type_symbol
_atom_site_label
_atom_site_fract_x
_atom_site_fract_y
_atom_site_fract_z
Si Si1 0.348324 0.036594 0.349116
Si Si2 0.567319 0.838346 0.014809
Si Si3 0.568780 0.678818 0.903028
Si Si4 0.673401 0.893002 0.316445
Si Si5 0.562315 0.433235 0.594435
O O1 0.409225 0.114725 0.367709
O O2 0.204769 0.052037 0.375598
O O3 0.397008 0.000000 0.500000
O O4 0.354062 0.979026 0.215225
O O5 0.656430 0.861096 0.151214
O O6 0.431467 0.857715 0.079854
O O7 0.593599 0.755582 0.977612
O O8 0.500000 0.690869 0.750000
O O9 0.691965 0.629881 0.876506
O O10 0.471428 0.637134 0.004676
O O11 0.512510 0.500000 0.500000
O O12 0.500000 0.429894 0.750000
#
# Coordination Sequence:
#
# PCOD9320722 Si02
#       5
#     8   8   8   8   8
#     4   9  19  43  68  96 138 183 235 299 357 433
#     4  10  24  43  69 103 141 195 244 309 368 446
#     4  12  26  43  71 106 149 190 246 307 384 447
#     4  10  23  46  71 100 145 189 244 307 365 452
#     4  11  23  42  72 103 140 190 241 305 368 442
#
# _framework density 21.982112000000001
#
# number of rings (size 3 to 8) (size 9 to 14) (size 15 to 20)
#    0.000    1.600    0.000    5.400    8.400    0.000 
#   10.800    9.000    0.000    0.000    0.000    0.000 
#    0.000    0.000    0.000    0.000    0.000    0.000 
#
# Total GULP energy -111676.815135 kJ/mol
# GULP energy per Si atom -5583.840757 kJ/mol
# Density = 2.193208 g / cm^3
# Si number density = 21.982112 Si / 1000 Ang^3
#
#
#
# Elastic Constant Matrix: (Units=GPa)
#
#
# Indices 1 2 3 4 5 6 
#
# 1 73.1359 3.4822 15.9098 0.0000 0.0000 0.0000
# 2 3.4822 130.8508 31.3782 0.0000 0.0000 0.0000
# 3 15.9098 31.3782 84.6302 0.0000 0.0000 0.0000
# 4 0.0000 0.0000 0.0000 35.2469 0.0000 0.0000
# 5 0.0000 0.0000 0.0000 0.0000 35.8851 0.0000
# 6 0.0000 0.0000 0.0000 0.0000 0.0000 29.2925
#
#
#
# Elastic Compliance Matrix: (Units=1/GPa)
#
#
# Indices 1 2 3 4 5 6 
#
# 1 0.014266 0.000289 -0.002789 0.000000 0.000000 0.000000
# 2 0.000289 0.008394 -0.003167 0.000000 0.000000 0.000000
# 3 -0.002789 -0.003167 0.013515 0.000000 0.000000 0.000000
# 4 0.000000 0.000000 0.000000 0.028371 0.000000 0.000000
# 5 0.000000 0.000000 0.000000 0.000000 0.027867 0.000000
# 6 0.000000 0.000000 0.000000 0.000000 0.000000 0.034138
#
#
# Mechanical properties :
#
#
# Convention : Reuss Voigt Hill
#
# Bulk Modulus (GPa) = 40.25513 43.35081 41.80297
# Shear Modulus (GPa) = 34.20800 35.94134 35.07467
#
# Velocity S-wave (km/s) = 3.94912 4.04793 3.99883
# Velocity P-wave (km/s) = 6.25671 6.45069 6.35444
#
# Compressibility (1/GPa) = 0.02484156
#
# Stress axis : x y z
#
# Youngs Moduli (GPa) = 70.09598 119.13347 73.99456
#
# Poissons Ratio (x) = -0.03445 0.20638
# Poissons Ratio (y) = -0.02027 0.23431
# Poissons Ratio (z) = 0.19551 0.37724
#
# Static dielectric constant tensor:
#      x y z
#    x 1.849600 0.000000 0.000000 
#    y 0.000000 1.842610 0.000000 
#    z 0.000000 0.000000 1.772770 
# 
# From -- ./inp_files/7063.got.cif
#   From: 2010.05.17/outbox.cif.g08.bks.cpg/sg20_4_cif.got.tgz:7063.got - 2010.06.03 22:52:26.
