data_PCOD9320882
_publ_section_title
;
Structure prediction by ZEFSAII (Michael W. Deem and Ramdas Pophale) SiO2 
 PCOD9320882
Probable space group: C 2 2 21
;
_chemical_formula_sum "Si O2"
_cell_formula_units_Z 48
_cell_length_a 8.628579
_cell_length_b 12.209781
_cell_length_c 19.715293
_cell_angle_alpha 90.000000
_cell_angle_beta 90.000000
_cell_angle_gamma 90.000000
_cell_volume 2077.066445
_symmetry_space_group_name_H-M "C 2 2 21"
_symmetry_group_IT_number 20
_symmetry_cell_setting 'orthorhombic'
loop_
_space_group_symop_operation_xyz
x,y,z
-x,-y,1/2+z
x,-y,-z
-x,y,1/2-z
1/2+x,1/2+y,z
1/2-x,1/2-y,1/2+z
1/2+x,1/2-y,-z
1/2-x,1/2+y,1/2-z
loop_
_atom_site_type_symbol
_atom_site_label
_atom_site_fract_x
_atom_site_fract_y
_atom_site_fract_z
Si Si1 0.142904 0.000000 0.500000
Si Si2 0.118171 0.820172 0.996595
Si Si3 0.156351 0.305460 0.632751
Si Si4 0.500000 0.506534 0.250000
Si Si5 0.126820 0.852843 0.139383
Si Si6 0.565853 0.073390 0.055388
Si Si7 0.839703 0.790839 0.772152
O O1 0.270655 0.009355 0.439360
O O2 0.036532 0.106473 0.487907
O O3 0.185031 0.879593 0.064293
O O4 0.091328 0.694191 0.021389
O O5 0.223398 0.814093 0.929761
O O6 0.239693 0.304305 0.704343
O O7 0.045712 0.198627 0.631123
O O8 0.035112 0.404635 0.621327
O O9 0.605280 0.441098 0.197905
O O10 0.603435 0.589444 0.293782
O O11 0.243470 0.765141 0.169971
O O12 0.478406 0.000000 0.000000
O O13 0.000000 0.731794 0.750000
#
# Coordination Sequence:
#
# PCOD9320882 Si02
#       7
#     4   8   8   4   8   8   8
#     4  10  24  44  68 104 148 192 232 298 364 440
#     4  11  25  42  74 110 145 188 237 303 366 436
#     4  11  23  43  71 104 147 182 238 309 358 430
#     4  10  24  46  80  98 136 204 236 298 368 420
#     4  11  23  49  74 101 150 186 242 303 358 443
#     4   9  22  42  65 103 143 185 230 292 366 427
#     4  10  25  45  72 103 138 189 248 292 358 440
#
# _framework density 23.109514000000001
#
# number of rings (size 3 to 8) (size 9 to 14) (size 15 to 20)
#    1.000    0.667    1.667    2.000    3.500    8.000 
#    0.000    1.667    0.000    0.000    0.000    0.000 
#    0.000    0.000    0.000    0.000    0.000    0.000 
#
# Total GULP energy -133764.939462 kJ/mol
# GULP energy per Si atom -5573.539144 kJ/mol
# Density = 2.305692 g / cm^3
# Si number density = 23.109514 Si / 1000 Ang^3
#
#
#
# Elastic Constant Matrix: (Units=GPa)
#
#
# Indices 1 2 3 4 5 6 
#
# 1 114.3214 18.4984 25.1250 0.0000 0.0000 0.0000
# 2 18.4984 47.5871 -24.3842 0.0000 0.0000 0.0000
# 3 25.1250 -24.3842 64.2431 0.0000 0.0000 0.0000
# 4 0.0000 0.0000 0.0000 -13.8454 0.0000 0.0000
# 5 0.0000 0.0000 0.0000 0.0000 43.3780 0.0000
# 6 0.0000 0.0000 0.0000 0.0000 0.0000 62.2688
#
#
#
# Elastic Compliance Matrix: (Units=1/GPa)
#
#
# Indices 1 2 3 4 5 6 
#
# 1 0.011906 -0.008708 -0.007962 0.000000 0.000000 0.000000
# 2 -0.008708 0.032457 0.015725 0.000000 0.000000 0.000000
# 3 -0.007962 0.015725 0.024648 0.000000 0.000000 0.000000
# 4 0.000000 0.000000 0.000000 -0.072226 0.000000 0.000000
# 5 0.000000 0.000000 0.000000 0.000000 0.023053 0.000000
# 6 0.000000 0.000000 0.000000 0.000000 0.000000 0.016059
#
#
# Mechanical properties :
#
#
# Convention : Reuss Voigt Hill
#
# Bulk Modulus (GPa) = 14.89823 29.40333 22.15078
# Shear Modulus (GPa) = 83.11173 32.15443 57.63308
#
# Velocity S-wave (km/s) = 6.00353 3.73419 4.99933
# Velocity P-wave (km/s) = 7.38358 5.59851 6.55212
#
# Compressibility (1/GPa) = 0.06712205
#
# Stress axis : x y z
#
# Youngs Moduli (GPa) = 83.99113 30.81028 40.57103
#
# Poissons Ratio (x) = 0.26829 0.32301
# Poissons Ratio (y) = 0.73138 -0.63797
# Poissons Ratio (z) = 0.66870 -0.48449
#
# Static dielectric constant tensor:
#      x y z
#    x 1.944170 0.000000 0.000000 
#    y 0.000000 1.930300 0.000000 
#    z 0.000000 0.000000 1.880210 
# 
# From -- ./inp_files/26599.got.cif
#   From: 2010.05.17/outbox.cif.g08.bks.cpg/sg20_14_cif.got.tgz:26599.got - 2010.06.03 22:52:26.
