data_PCOD9320378
_publ_section_title
;
Structure prediction by ZEFSAII (Michael W. Deem and Ramdas Pophale) SiO2 
 PCOD9320378
Probable space group: C 2 2 21
;
_chemical_formula_sum "Si O2"
_cell_formula_units_Z 48
_cell_length_a 16.958920
_cell_length_b 9.129674
_cell_length_c 13.880321
_cell_angle_alpha 90.000000
_cell_angle_beta 90.000000
_cell_angle_gamma 90.000000
_cell_volume 2149.081925
_symmetry_space_group_name_H-M "C 2 2 21"
_symmetry_group_IT_number 20
_symmetry_cell_setting 'orthorhombic'
loop_
_space_group_symop_operation_xyz
x,y,z
-x,-y,1/2+z
x,-y,-z
-x,y,1/2-z
1/2+x,1/2+y,z
1/2-x,1/2-y,1/2+z
1/2+x,1/2-y,-z
1/2-x,1/2+y,1/2-z
loop_
_atom_site_type_symbol
_atom_site_label
_atom_site_fract_x
_atom_site_fract_y
_atom_site_fract_z
Si Si1 0.665200 0.032255 0.310866
Si Si2 0.500000 0.539067 0.750000
Si Si3 0.838964 0.000000 0.000000
Si Si4 0.089645 0.500000 0.500000
Si Si5 0.500000 0.936778 0.250000
Si Si6 0.747532 0.164740 0.837477
Si Si7 0.922172 0.200267 0.375406
Si Si8 0.524927 0.699125 0.548413
O O1 0.695311 0.197536 0.320739
O O2 0.647431 0.958736 0.413298
O O3 0.580486 0.026170 0.258015
O O4 0.726538 0.930617 0.255433
O O5 0.565411 0.431036 0.798210
O O6 0.525271 0.633118 0.656159
O O7 0.784899 0.051896 0.912972
O O8 0.901085 0.132454 0.011054
O O9 0.037270 0.372105 0.545525
O O10 0.483103 0.826221 0.338783
O O11 0.665047 0.235101 0.872451
O O12 0.949383 0.161719 0.483195
#
# Coordination Sequence:
#
# PCOD9320378 Si02
#       8
#     8   4   4   4   4   8   8   8
#     4  11  25  47  73 111 143 203 245 312 375 449
#     4  11  24  45  82 114 146 192 268 306 376 454
#     4  12  26  51  71 110 146 208 234 310 384 441
#     4  12  26  47  73 106 152 202 248 306 382 445
#     4   9  20  43  76 102 148 198 256 294 366 456
#     4  11  28  46  76 110 154 191 248 318 378 452
#     4  10  22  46  77 110 146 196 245 318 371 439
#     4  12  25  49  80 108 150 201 254 314 367 464
#
# _framework density 22.33512
#
# number of rings (size 3 to 8) (size 9 to 14) (size 15 to 20)
#    0.000    1.000    5.000    0.000    4.667    1.333 
#    6.000    1.667    0.000    0.000    0.000    0.000 
#    0.000    0.000    0.000    0.000    0.000    0.000 
#
# Total GULP energy -134088.488645 kJ/mol
# GULP energy per Si atom -5587.020360 kJ/mol
# Density = 2.228428 g / cm^3
# Si number density = 22.335120 Si / 1000 Ang^3
#
#
#
# Elastic Constant Matrix: (Units=GPa)
#
#
# Indices 1 2 3 4 5 6 
#
# 1 95.1376 44.6873 45.0715 0.0000 0.0000 0.0000
# 2 44.6873 132.0635 67.2514 0.0000 0.0000 0.0000
# 3 45.0715 67.2514 145.0408 0.0000 0.0000 0.0000
# 4 0.0000 0.0000 0.0000 38.1392 0.0000 0.0000
# 5 0.0000 0.0000 0.0000 0.0000 30.5609 0.0000
# 6 0.0000 0.0000 0.0000 0.0000 0.0000 23.5401
#
#
#
# Elastic Compliance Matrix: (Units=1/GPa)
#
#
# Indices 1 2 3 4 5 6 
#
# 1 0.013241 -0.003122 -0.002667 0.000000 0.000000 0.000000
# 2 -0.003122 0.010649 -0.003967 0.000000 0.000000 0.000000
# 3 -0.002667 -0.003967 0.009563 0.000000 0.000000 0.000000
# 4 0.000000 0.000000 0.000000 0.026220 0.000000 0.000000
# 5 0.000000 0.000000 0.000000 0.000000 0.032722 0.000000
# 6 0.000000 0.000000 0.000000 0.000000 0.000000 0.042481
#
#
# Mechanical properties :
#
#
# Convention : Reuss Voigt Hill
#
# Bulk Modulus (GPa) = 71.73759 76.25136 73.99447
# Shear Modulus (GPa) = 31.43959 32.79680 32.11820
#
# Velocity S-wave (km/s) = 3.75591 3.83612 3.79623
# Velocity P-wave (km/s) = 7.14126 7.33723 7.23991
#
# Compressibility (1/GPa) = 0.01393969
#
# Stress axis : x y z
#
# Youngs Moduli (GPa) = 75.52188 93.90564 104.57071
#
# Poissons Ratio (x) = 0.29321 0.27888
# Poissons Ratio (y) = 0.23581 0.41487
# Poissons Ratio (z) = 0.20141 0.37256
#
# Static dielectric constant tensor:
#      x y z
#    x 1.819620 0.000000 0.000000 
#    y 0.000000 1.888790 0.000000 
#    z 0.000000 0.000000 1.972390 
# 
# From -- ./inp_files/21355.got.cif
#   From: 2010.05.17/outbox.cif.g08.bks.cpg/sg20_11_cif.got.tgz:21355.got - 2010.06.03 22:52:26.
