data_PCOD9320724
_publ_section_title
;
Structure prediction by ZEFSAII (Michael W. Deem and Ramdas Pophale) SiO2 
 PCOD9320724
Probable space group: C 2 2 21
;
_chemical_formula_sum "Si O2"
_cell_formula_units_Z 64
_cell_length_a 12.251391
_cell_length_b 17.069732
_cell_length_c 13.760366
_cell_angle_alpha 90.000000
_cell_angle_beta 90.000000
_cell_angle_gamma 90.000000
_cell_volume 2877.677284
_symmetry_space_group_name_H-M "C 2 2 21"
_symmetry_group_IT_number 20
_symmetry_cell_setting 'orthorhombic'
loop_
_space_group_symop_operation_xyz
x,y,z
-x,-y,1/2+z
x,-y,-z
-x,y,1/2-z
1/2+x,1/2+y,z
1/2-x,1/2-y,1/2+z
1/2+x,1/2-y,-z
1/2-x,1/2+y,1/2-z
loop_
_atom_site_type_symbol
_atom_site_label
_atom_site_fract_x
_atom_site_fract_y
_atom_site_fract_z
Si Si1 0.117420 0.699506 0.292319
Si Si2 0.095361 0.967471 0.831377
Si Si3 0.828343 0.165904 0.935101
Si Si4 0.924471 0.119100 0.530976
Si Si5 0.746033 0.747395 0.892502
Si Si6 0.057205 0.630815 0.644630
Si Si7 0.657679 0.974743 0.713856
Si Si8 0.146760 0.445532 0.090502
O O1 0.156065 0.752535 0.380559
O O2 0.203524 0.717301 0.207630
O O3 0.111869 0.608448 0.319294
O O4 0.000000 0.724851 0.250000
O O5 0.212630 0.963923 0.781092
O O6 0.000000 0.963551 0.750000
O O7 0.094615 0.047420 0.894481
O O8 0.091022 0.902925 0.917600
O O9 0.752358 0.104780 0.878140
O O10 0.948473 0.136371 0.955361
O O11 0.765872 0.181797 0.034454
O O12 0.844990 0.188936 0.563558
O O13 0.859055 0.699395 0.880439
O O14 0.126003 0.549831 0.649431
O O15 0.000000 0.645470 0.750000
O O16 0.954995 0.613180 0.574459
O O17 0.614859 0.998405 0.820153
O O18 0.171837 0.500000 0.000000
#
# Coordination Sequence:
#
# PCOD9320724 Si02
#       8
#     8   8   8   8   8   8   8   8
#     4  12  25  45  72 102 142 190 237 294 365 431
#     4  11  25  43  75 102 144 182 242 301 354 421
#     4  12  28  44  70 104 148 184 238 292 363 440
#     4  11  26  47  70 109 138 192 240 289 364 432
#     4  12  26  47  72 103 146 189 232 297 363 436
#     4  10  23  46  71  99 134 182 241 296 356 423
#     4  11  23  45  70 102 133 185 240 297 355 421
#     4  11  25  42  72 101 138 183 239 296 358 421
#
# _framework density 22.240158999999998
#
# number of rings (size 3 to 8) (size 9 to 14) (size 15 to 20)
#    0.000    0.750    2.500    4.875    8.750    3.000 
#    2.250    0.000    0.000    0.000    0.000    0.000 
#    0.000    0.000    0.000    0.000    0.000    0.000 
#
# Total GULP energy -179049.283434 kJ/mol
# GULP energy per Si atom -5595.290107 kJ/mol
# Density = 2.218954 g / cm^3
# Si number density = 22.240159 Si / 1000 Ang^3
#
#
#
# Elastic Constant Matrix: (Units=GPa)
#
#
# Indices 1 2 3 4 5 6 
#
# 1 116.6794 1.6078 -4.0827 0.0000 0.0000 0.0000
# 2 1.6078 56.9215 -0.1870 0.0000 0.0000 0.0000
# 3 -4.0827 -0.1870 37.6691 0.0000 0.0000 0.0000
# 4 0.0000 0.0000 0.0000 28.6492 0.0000 0.0000
# 5 0.0000 0.0000 0.0000 0.0000 25.0688 0.0000
# 6 0.0000 0.0000 0.0000 0.0000 0.0000 236.9137
#
#
#
# Elastic Compliance Matrix: (Units=1/GPa)
#
#
# Indices 1 2 3 4 5 6 
#
# 1 0.008606 -0.000240 0.000932 0.000000 0.000000 0.000000
# 2 -0.000240 0.017575 0.000061 0.000000 0.000000 0.000000
# 3 0.000932 0.000061 0.026648 0.000000 0.000000 0.000000
# 4 0.000000 0.000000 0.000000 0.034905 0.000000 0.000000
# 5 0.000000 0.000000 0.000000 0.000000 0.039890 0.000000
# 6 0.000000 0.000000 0.000000 0.000000 0.000000 0.004221
#
#
# Mechanical properties :
#
#
# Convention : Reuss Voigt Hill
#
# Bulk Modulus (GPa) = 18.40427 22.88292 20.64360
# Shear Modulus (GPa) = 33.68092 72.38846 53.03469
#
# Velocity S-wave (km/s) = 3.89578 5.71132 4.88857
# Velocity P-wave (km/s) = 5.34128 7.33509 6.41611
#
# Compressibility (1/GPa) = 0.05433520
#
# Stress axis : x y z
#
# Youngs Moduli (GPa) = 116.19260 56.89892 37.52597
#
# Poissons Ratio (x) = 0.01366 -0.03496
# Poissons Ratio (y) = 0.02789 -0.00230
# Poissons Ratio (z) = -0.10824 -0.00348
#
# Static dielectric constant tensor:
#      x y z
#    x 1.818420 0.000000 0.000000 
#    y 0.000000 1.805160 0.000000 
#    z 0.000000 0.000000 -1.107680 
# 
# From -- ./inp_files/20285.got.cif
#   From: 2010.05.17/outbox.cif.g08.bks.cpg/sg20_11_cif.got.tgz:20285.got - 2010.06.03 22:52:26.
