data_PCOD9320417
_publ_section_title
;
Structure prediction by ZEFSAII (Michael W. Deem and Ramdas Pophale) SiO2 
 PCOD9320417
Probable space group: C 2 2 21
;
_chemical_formula_sum "Si O2"
_cell_formula_units_Z 48
_cell_length_a 17.124248
_cell_length_b 9.609011
_cell_length_c 13.701909
_cell_angle_alpha 90.000000
_cell_angle_beta 90.000000
_cell_angle_gamma 90.000000
_cell_volume 2254.609218
_symmetry_space_group_name_H-M "C 2 2 21"
_symmetry_group_IT_number 20
_symmetry_cell_setting 'orthorhombic'
loop_
_space_group_symop_operation_xyz
x,y,z
-x,-y,1/2+z
x,-y,-z
-x,y,1/2-z
1/2+x,1/2+y,z
1/2-x,1/2-y,1/2+z
1/2+x,1/2-y,-z
1/2-x,1/2+y,1/2-z
loop_
_atom_site_type_symbol
_atom_site_label
_atom_site_fract_x
_atom_site_fract_y
_atom_site_fract_z
Si Si1 0.750481 0.981319 0.352751
Si Si2 0.329333 0.500000 0.000000
Si Si3 0.052022 0.252177 0.666753
Si Si4 0.618418 0.500000 0.000000
Si Si5 0.730061 0.308389 0.338987
Si Si6 0.026790 0.833356 0.558462
Si Si7 0.572476 0.951952 0.393882
O O1 0.761753 0.150026 0.345307
O O2 0.821693 0.930478 0.421955
O O3 0.741376 0.908034 0.247517
O O4 0.666552 0.945737 0.399956
O O5 0.275530 0.391379 0.058519
O O6 0.392789 0.578053 0.070396
O O7 0.139806 0.212052 0.685910
O O8 0.051554 0.419085 0.672732
O O9 0.000000 0.186501 0.750000
O O10 0.031044 0.209043 0.556776
O O11 0.556487 0.591301 0.063135
O O12 0.035593 0.697494 0.624167
O O13 0.543737 0.000000 0.500000
#
# Coordination Sequence:
#
# PCOD9320417 Si02
#       7
#     8   4   8   4   8   8   8
#     4  11  23  39  63  92 130 163 212 265 316 378
#     4   9  20  38  62  80 117 168 212 255 310 388
#     4   9  17  35  58  84 118 159 208 259 309 376
#     4  11  22  38  62  96 125 156 210 273 306 360
#     4  10  23  38  60  91 121 169 211 258 326 379
#     4   9  19  36  60  86 117 163 211 251 319 375
#     4   9  18  36  60  82 118 172 203 239 320 388
#
# _framework density 21.289719999999999
#
# number of rings (size 3 to 8) (size 9 to 14) (size 15 to 20)
#    0.000    2.333    0.833    2.000    2.333    0.000 
#    6.000    0.000    1.833    0.000    0.000    0.000 
#    0.000    0.000    0.000    0.000    0.000    0.000 
#
# Total GULP energy -133607.327472 kJ/mol
# GULP energy per Si atom -5566.971978 kJ/mol
# Density = 2.124126 g / cm^3
# Si number density = 21.289720 Si / 1000 Ang^3
#
#
#
# Elastic Constant Matrix: (Units=GPa)
#
#
# Indices 1 2 3 4 5 6 
#
# 1 41.8859 0.3135 12.2647 0.0000 0.0000 0.0000
# 2 0.3135 98.2704 7.1692 0.0000 0.0000 0.0000
# 3 12.2647 7.1692 22.1184 0.0000 0.0000 0.0000
# 4 0.0000 0.0000 0.0000 11.9923 0.0000 0.0000
# 5 0.0000 0.0000 0.0000 0.0000 27.0564 0.0000
# 6 0.0000 0.0000 0.0000 0.0000 0.0000 -16.9207
#
#
#
# Elastic Compliance Matrix: (Units=1/GPa)
#
#
# Indices 1 2 3 4 5 6 
#
# 1 0.028616 0.001092 -0.016222 0.000000 0.000000 0.000000
# 2 0.001092 0.010464 -0.003997 0.000000 0.000000 0.000000
# 3 -0.016222 -0.003997 0.055502 0.000000 0.000000 0.000000
# 4 0.000000 0.000000 0.000000 0.083387 0.000000 0.000000
# 5 0.000000 0.000000 0.000000 0.000000 0.036960 0.000000
# 6 0.000000 0.000000 0.000000 0.000000 0.000000 -0.059099
#
#
# Mechanical properties :
#
#
# Convention : Reuss Voigt Hill
#
# Bulk Modulus (GPa) = 17.75305 22.41883 20.08594
# Shear Modulus (GPa) = 23.48969 13.92742 18.70856
#
# Velocity S-wave (km/s) = 3.32525 2.56048 2.96760
# Velocity P-wave (km/s) = 4.80624 4.39256 4.60405
#
# Compressibility (1/GPa) = 0.05632836
#
# Stress axis : x y z
#
# Youngs Moduli (GPa) = 34.94536 95.56448 18.01746
#
# Poissons Ratio (x) = -0.10437 0.29227
# Poissons Ratio (y) = -0.03817 0.07202
# Poissons Ratio (z) = 0.56687 0.38200
#
# Static dielectric constant tensor:
#      x y z
#    x 1.748750 0.000000 0.000000 
#    y 0.000000 1.916800 0.000000 
#    z 0.000000 0.000000 1.872020 
# 
# From -- ./inp_files/21314.got.cif
#   From: 2010.05.17/outbox.cif.g08.bks.cpg/sg20_11_cif.got.tgz:21314.got - 2010.06.03 22:52:26.
