data_PCOD9320929
_publ_section_title
;
Structure prediction by ZEFSAII (Michael W. Deem and Ramdas Pophale) SiO2 
 PCOD9320929
Probable space group: C 2 2 21
;
_chemical_formula_sum "Si O2"
_cell_formula_units_Z 28
_cell_length_a 7.275177
_cell_length_b 13.071681
_cell_length_c 12.094244
_cell_angle_alpha 90.000000
_cell_angle_beta 90.000000
_cell_angle_gamma 90.000000
_cell_volume 1150.148006
_symmetry_space_group_name_H-M "C 2 2 21"
_symmetry_group_IT_number 20
_symmetry_cell_setting 'orthorhombic'
loop_
_space_group_symop_operation_xyz
x,y,z
-x,-y,1/2+z
x,-y,-z
-x,y,1/2-z
1/2+x,1/2+y,z
1/2-x,1/2-y,1/2+z
1/2+x,1/2-y,-z
1/2-x,1/2+y,1/2-z
loop_
_atom_site_type_symbol
_atom_site_label
_atom_site_fract_x
_atom_site_fract_y
_atom_site_fract_z
Si Si1 0.310172 0.395557 0.196711
Si Si2 0.070255 0.500000 0.000000
Si Si3 0.378560 0.746259 0.156736
Si Si4 0.014597 0.297145 0.577873
O O1 0.500000 0.439168 0.250000
O O2 0.178481 0.358922 0.296931
O O3 0.370902 0.284415 0.146560
O O4 0.203683 0.454315 0.098016
O O5 0.938969 0.414489 0.944510
O O6 0.500000 0.695058 0.250000
O O7 0.187030 0.694927 0.129132
O O8 0.492053 0.750670 0.044701
#
# Coordination Sequence:
#
# PCOD9320929 Si02
#       4
#     8   4   8   8
#     4  10  24  45  68 100 144 181 234 295 347 410
#     4  12  22  44  72  98 142 180 242 278 352 426
#     4  11  20  43  69  97 143 180 224 295 341 404
#     4  11  23  43  69  99 141 181 232 290 339 416
#
# _framework density 24.344691000000001
#
# number of rings (size 3 to 8) (size 9 to 14) (size 15 to 20)
#    0.000    1.143    5.714    0.000    0.000    1.143 
#   15.429    5.714    0.000    0.000    0.000    0.000 
#    0.000    0.000    0.000    0.000    0.000    0.000 
#
# Total GULP energy -78114.047508 kJ/mol
# GULP energy per Si atom -5579.574822 kJ/mol
# Density = 2.428928 g / cm^3
# Si number density = 24.344691 Si / 1000 Ang^3
#
#
#
# Elastic Constant Matrix: (Units=GPa)
#
#
# Indices 1 2 3 4 5 6 
#
# 1 47.8554 -11.1662 5.8799 0.0000 0.0000 0.0000
# 2 -11.1662 95.7274 12.9852 0.0000 0.0000 0.0000
# 3 5.8799 12.9852 143.7053 0.0000 0.0000 0.0000
# 4 0.0000 0.0000 0.0000 46.6012 0.0000 0.0000
# 5 0.0000 0.0000 0.0000 0.0000 33.4909 0.0000
# 6 0.0000 0.0000 0.0000 0.0000 0.0000 22.9444
#
#
#
# Elastic Compliance Matrix: (Units=1/GPa)
#
#
# Indices 1 2 3 4 5 6 
#
# 1 0.021660 0.002680 -0.001128 0.000000 0.000000 0.000000
# 2 0.002680 0.010907 -0.001095 0.000000 0.000000 0.000000
# 3 -0.001128 -0.001095 0.007104 0.000000 0.000000 0.000000
# 4 0.000000 0.000000 0.000000 0.021459 0.000000 0.000000
# 5 0.000000 0.000000 0.000000 0.000000 0.029859 0.000000
# 6 0.000000 0.000000 0.000000 0.000000 0.000000 0.043584
#
#
# Mechanical properties :
#
#
# Convention : Reuss Voigt Hill
#
# Bulk Modulus (GPa) = 24.64059 33.63177 29.13618
# Shear Modulus (GPa) = 33.97008 39.24659 36.60833
#
# Velocity S-wave (km/s) = 3.73953 4.01948 3.88203
# Velocity P-wave (km/s) = 5.36554 5.94865 5.66460
#
# Compressibility (1/GPa) = 0.04058344
#
# Stress axis : x y z
#
# Youngs Moduli (GPa) = 46.16772 91.68032 140.76935
#
# Poissons Ratio (x) = -0.24567 0.15884
# Poissons Ratio (y) = -0.12371 0.15418
# Poissons Ratio (z) = 0.05210 0.10041
#
# Static dielectric constant tensor:
#      x y z
#    x 2.005830 0.000000 0.000000 
#    y 0.000000 1.988290 0.000000 
#    z 0.000000 0.000000 2.024190 
# 
# From -- ./inp_files/12400.got.cif
#   From: 2010.05.17/outbox.cif.g08.bks.cpg/sg20_7_cif.got.tgz:12400.got - 2010.06.03 22:52:26.
