data_PCOD9320048
_publ_section_title
;
Structure prediction by ZEFSAII (Michael W. Deem and Ramdas Pophale) SiO2 
 PCOD9320048
Probable space group: C 2 2 21
;
_chemical_formula_sum "Si O2"
_cell_formula_units_Z 60
_cell_length_a 8.276454
_cell_length_b 25.496627
_cell_length_c 12.218635
_cell_angle_alpha 90.000000
_cell_angle_beta 90.000000
_cell_angle_gamma 90.000000
_cell_volume 2578.396647
_symmetry_space_group_name_H-M "C 2 2 21"
_symmetry_group_IT_number 20
_symmetry_cell_setting 'orthorhombic'
loop_
_space_group_symop_operation_xyz
x,y,z
-x,-y,1/2+z
x,-y,-z
-x,y,1/2-z
1/2+x,1/2+y,z
1/2-x,1/2-y,1/2+z
1/2+x,1/2-y,-z
1/2-x,1/2+y,1/2-z
loop_
_atom_site_type_symbol
_atom_site_label
_atom_site_fract_x
_atom_site_fract_y
_atom_site_fract_z
Si Si1 0.163528 0.063021 0.492817
Si Si2 0.537662 0.740334 0.594200
Si Si3 0.383407 0.627335 0.613975
Si Si4 0.000000 0.324058 0.750000
Si Si5 0.588202 0.732886 0.139617
Si Si6 0.319500 0.532243 0.243691
Si Si7 0.234480 0.124165 0.106054
Si Si8 0.671339 0.922440 0.205014
O O1 0.189548 0.070272 0.363197
O O2 0.304959 0.081914 0.574503
O O3 0.008162 0.089287 0.549465
O O4 0.149638 0.000000 0.500000
O O5 0.467973 0.683471 0.621837
O O6 0.432500 0.783201 0.660247
O O7 0.513074 0.749504 0.466013
O O8 0.726212 0.747336 0.626214
O O9 0.240493 0.629521 0.523233
O O10 0.311385 0.607139 0.727228
O O11 0.116698 0.359233 0.680075
O O12 0.500000 0.749268 0.250000
O O13 0.602313 0.669113 0.134141
O O14 0.500000 0.509082 0.250000
O O15 0.303979 0.566341 0.352442
O O16 0.197902 0.484225 0.232125
O O17 0.500000 0.904826 0.250000
#
# Coordination Sequence:
#
# PCOD9320048 Si02
#       8
#     8   8   8   4   8   8   8   8
#     4  10  22  42  66 101 137 184 232 291 344 419
#     4  10  25  43  72 101 142 189 235 304 366 420
#     4  11  23  45  74 100 136 188 245 290 359 432
#     4  10  24  44  64 102 146 176 230 300 354 420
#     4  10  23  45  71 104 141 187 240 297 360 431
#     4  11  21  42  70 103 134 183 236 284 357 413
#     4  10  23  40  72 102 134 180 235 290 353 423
#     4  11  26  44  65 101 149 182 232 296 354 435
#
# _framework density 23.270277
#
# number of rings (size 3 to 8) (size 9 to 14) (size 15 to 20)
#    0.000    1.600    1.333    2.400    8.400    1.067 
#    4.800    3.333    8.800    0.000    0.000    0.000 
#    0.000    0.000    0.000    0.000    0.000    0.000 
#
# Total GULP energy -167665.974630 kJ/mol
# GULP energy per Si atom -5588.865821 kJ/mol
# Density = 2.321731 g / cm^3
# Si number density = 23.270277 Si / 1000 Ang^3
#
#
#
# Elastic Constant Matrix: (Units=GPa)
#
#
# Indices 1 2 3 4 5 6 
#
# 1 74.8235 3.1714 21.4572 0.0000 0.0000 0.0000
# 2 3.1714 48.5430 0.2854 0.0000 0.0000 0.0000
# 3 21.4572 0.2854 130.3281 0.0000 0.0000 0.0000
# 4 0.0000 0.0000 0.0000 33.2130 0.0000 0.0000
# 5 0.0000 0.0000 0.0000 0.0000 42.1154 0.0000
# 6 0.0000 0.0000 0.0000 0.0000 0.0000 15.8258
#
#
#
# Elastic Compliance Matrix: (Units=1/GPa)
#
#
# Indices 1 2 3 4 5 6 
#
# 1 0.014067 -0.000905 -0.002314 0.000000 0.000000 0.000000
# 2 -0.000905 0.020659 0.000104 0.000000 0.000000 0.000000
# 3 -0.002314 0.000104 0.008054 0.000000 0.000000 0.000000
# 4 0.000000 0.000000 0.000000 0.030109 0.000000 0.000000
# 5 0.000000 0.000000 0.000000 0.000000 0.023744 0.000000
# 6 0.000000 0.000000 0.000000 0.000000 0.000000 0.063188
#
#
# Mechanical properties :
#
#
# Convention : Reuss Voigt Hill
#
# Bulk Modulus (GPa) = 27.36116 33.72473 30.54294
# Shear Modulus (GPa) = 28.05299 33.48287 30.76793
#
# Velocity S-wave (km/s) = 3.47584 3.79736 3.64015
# Velocity P-wave (km/s) = 5.28130 5.80953 5.55170
#
# Compressibility (1/GPa) = 0.03654816
#
# Stress axis : x y z
#
# Youngs Moduli (GPa) = 71.08968 48.40548 124.16679
#
# Poissons Ratio (x) = 0.04383 0.28732
# Poissons Ratio (y) = 0.06437 -0.01289
# Poissons Ratio (z) = 0.16450 -0.00503
#
# Static dielectric constant tensor:
#      x y z
#    x 1.933240 0.000000 0.000000 
#    y 0.000000 1.876330 0.000000 
#    z 0.000000 0.000000 1.919430 
# 
# From -- ./inp_files/13313.got.cif
#   From: 2010.05.17/outbox.cif.g08.bks.cpg/sg20_7_cif.got.tgz:13313.got - 2010.06.03 22:52:26.
