data_PCOD9320922
_publ_section_title
;
Structure prediction by ZEFSAII (Michael W. Deem and Ramdas Pophale) SiO2 
 PCOD9320922
Probable space group: C 2 2 21
;
_chemical_formula_sum "Si O2"
_cell_formula_units_Z 40
_cell_length_a 21.703943
_cell_length_b 8.838073
_cell_length_c 8.658674
_cell_angle_alpha 90.000000
_cell_angle_beta 90.000000
_cell_angle_gamma 90.000000
_cell_volume 1660.915788
_symmetry_space_group_name_H-M "C 2 2 21"
_symmetry_group_IT_number 20
_symmetry_cell_setting 'orthorhombic'
loop_
_space_group_symop_operation_xyz
x,y,z
-x,-y,1/2+z
x,-y,-z
-x,y,1/2-z
1/2+x,1/2+y,z
1/2-x,1/2-y,1/2+z
1/2+x,1/2-y,-z
1/2-x,1/2+y,1/2-z
loop_
_atom_site_type_symbol
_atom_site_label
_atom_site_fract_x
_atom_site_fract_y
_atom_site_fract_z
Si Si1 0.375580 0.037998 0.325359
Si Si2 0.306340 0.381230 0.733899
Si Si3 0.195789 0.202042 0.875214
Si Si4 0.500000 0.143474 0.750000
Si Si5 0.080423 0.824437 0.557857
Si Si6 0.638312 0.000000 0.500000
O O1 0.368784 0.217249 0.338898
O O2 0.354534 0.000000 0.500000
O O3 0.441747 0.962753 0.291351
O O4 0.334869 0.988532 0.174247
O O5 0.253021 0.308366 0.835199
O O6 0.299934 0.338115 0.554697
O O7 0.301619 0.560649 0.737319
O O8 0.373003 0.336376 0.797202
O O9 0.515086 0.258145 0.611373
O O10 0.105685 0.665803 0.479513
O O11 0.077766 0.000000 0.500000
#
# Coordination Sequence:
#
# PCOD9320922 Si02
#       6
#     8   8   8   4   8   4
#     4  11  25  47  76 111 153 203 259 316 389 462
#     4  11  28  47  75 113 156 199 263 325 396 478
#     4  11  27  47  75 114 151 210 255 326 397 474
#     4  10  26  48  76 116 154 206 266 314 386 494
#     4  11  25  50  73 116 155 204 265 324 392 467
#     4  10  24  44  78 108 146 208 252 310 382 466
#
# _framework density 24.083098
#
# number of rings (size 3 to 8) (size 9 to 14) (size 15 to 20)
#    0.000    1.200    0.000    3.600   19.600    0.000 
#   10.800    0.000    0.000    0.000    0.000    0.000 
#    0.000    0.000    0.000    0.000    0.000    0.000 
#
# Total GULP energy -111382.034372 kJ/mol
# GULP energy per Si atom -5569.101719 kJ/mol
# Density = 2.402828 g / cm^3
# Si number density = 24.083098 Si / 1000 Ang^3
#
#
#
# Elastic Constant Matrix: (Units=GPa)
#
#
# Indices 1 2 3 4 5 6 
#
# 1 79.3878 55.3095 14.4362 0.0000 0.0000 0.0000
# 2 55.3095 210.7335 24.3468 0.0000 0.0000 0.0000
# 3 14.4362 24.3468 116.5812 0.0000 0.0000 0.0000
# 4 0.0000 0.0000 0.0000 26.0478 0.0000 0.0000
# 5 0.0000 0.0000 0.0000 0.0000 27.4806 0.0000
# 6 0.0000 0.0000 0.0000 0.0000 0.0000 45.4304
#
#
#
# Elastic Compliance Matrix: (Units=1/GPa)
#
#
# Indices 1 2 3 4 5 6 
#
# 1 0.015552 -0.003955 -0.001100 0.000000 0.000000 0.000000
# 2 -0.003955 0.005868 -0.000736 0.000000 0.000000 0.000000
# 3 -0.001100 -0.000736 0.008868 0.000000 0.000000 0.000000
# 4 0.000000 0.000000 0.000000 0.038391 0.000000 0.000000
# 5 0.000000 0.000000 0.000000 0.000000 0.036389 0.000000
# 6 0.000000 0.000000 0.000000 0.000000 0.000000 0.022012
#
#
# Mechanical properties :
#
#
# Convention : Reuss Voigt Hill
#
# Bulk Modulus (GPa) = 53.45647 66.09859 59.77753
# Shear Modulus (GPa) = 34.50760 40.63244 37.57002
#
# Velocity S-wave (km/s) = 3.78941 4.11198 3.95399
# Velocity P-wave (km/s) = 6.43359 7.07461 6.76170
#
# Compressibility (1/GPa) = 0.01870681
#
# Stress axis : x y z
#
# Youngs Moduli (GPa) = 64.30217 170.40764 112.77031
#
# Poissons Ratio (x) = 0.67390 0.12403
# Poissons Ratio (y) = 0.25429 0.08298
# Poissons Ratio (z) = 0.07072 0.12539
#
# Static dielectric constant tensor:
#      x y z
#    x 1.924290 0.000000 0.000000 
#    y 0.000000 2.017340 0.000000 
#    z 0.000000 0.000000 2.012950 
# 
# From -- ./inp_files/10530.got.cif
#   From: 2010.05.17/outbox.cif.g08.bks.cpg/sg20_6_cif.got.tgz:10530.got - 2010.06.03 22:52:26.
