data_PCOD9320276
_publ_section_title
;
Structure prediction by ZEFSAII (Michael W. Deem and Ramdas Pophale) SiO2 
 PCOD9320276
Probable space group: C 2 2 21
;
_chemical_formula_sum "Si O2"
_cell_formula_units_Z 32
_cell_length_a 29.615042
_cell_length_b 5.384294
_cell_length_c 7.482463
_cell_angle_alpha 90.000000
_cell_angle_beta 90.000000
_cell_angle_gamma 90.000000
_cell_volume 1193.124316
_symmetry_space_group_name_H-M "C 2 2 21"
_symmetry_group_IT_number 20
_symmetry_cell_setting 'orthorhombic'
loop_
_space_group_symop_operation_xyz
x,y,z
-x,-y,1/2+z
x,-y,-z
-x,y,1/2-z
1/2+x,1/2+y,z
1/2-x,1/2-y,1/2+z
1/2+x,1/2-y,-z
1/2-x,1/2+y,1/2-z
loop_
_atom_site_type_symbol
_atom_site_label
_atom_site_fract_x
_atom_site_fract_y
_atom_site_fract_z
Si Si1 0.208294 0.794354 0.094007
Si Si2 0.946978 0.750036 0.217065
Si Si3 0.690503 0.851711 0.269805
Si Si4 0.089848 0.750781 0.684616
O O1 0.261978 0.809485 0.133181
O O2 0.184739 0.657380 0.262962
O O3 0.195738 0.111205 0.120616
O O4 0.204333 0.500000 0.000000
O O5 0.926193 0.494510 0.287279
O O6 0.000000 0.759490 0.250000
O O7 0.923194 0.998483 0.285427
O O8 0.936174 0.750414 0.004357
O O9 0.642742 0.768343 0.347063
#
# Coordination Sequence:
#
# PCOD9320276 Si02
#       4
#     8   8   8   8
#     4  11  24  43  67  99 150 192 240 300 354 428
#     4  10  22  44  72 101 139 182 241 304 380 436
#     4  11  25  42  70 104 143 199 244 297 365 426
#     4  10  24  42  73 105 140 188 243 304 361 453
#
# _framework density 26.820340999999999
#
# number of rings (size 3 to 8) (size 9 to 14) (size 15 to 20)
#    0.000    1.500    2.500    0.750    7.000    4.000 
#    0.000   15.000    0.000    0.000    0.000    0.000 
#    0.000    0.000    0.000    0.000    0.000    0.000 
#
# Total GULP energy -89209.822041 kJ/mol
# GULP energy per Si atom -5575.613878 kJ/mol
# Density = 2.675930 g / cm^3
# Si number density = 26.820341 Si / 1000 Ang^3
#
#
#
# Elastic Constant Matrix: (Units=GPa)
#
#
# Indices 1 2 3 4 5 6 
#
# 1 200.8018 61.8903 56.8257 0.0000 0.0000 0.0000
# 2 61.8903 280.0960 39.3220 0.0000 0.0000 0.0000
# 3 56.8257 39.3220 96.2374 0.0000 0.0000 0.0000
# 4 0.0000 0.0000 0.0000 12.8642 0.0000 0.0000
# 5 0.0000 0.0000 0.0000 0.0000 38.7983 0.0000
# 6 0.0000 0.0000 0.0000 0.0000 0.0000 47.1132
#
#
#
# Elastic Compliance Matrix: (Units=1/GPa)
#
#
# Indices 1 2 3 4 5 6 
#
# 1 0.006189 -0.000906 -0.003284 0.000000 0.000000 0.000000
# 2 -0.000906 0.003920 -0.001067 0.000000 0.000000 0.000000
# 3 -0.003284 -0.001067 0.012766 0.000000 0.000000 0.000000
# 4 0.000000 0.000000 0.000000 0.077735 0.000000 0.000000
# 5 0.000000 0.000000 0.000000 0.000000 0.025774 0.000000
# 6 0.000000 0.000000 0.000000 0.000000 0.000000 0.021225
#
#
# Mechanical properties :
#
#
# Convention : Reuss Voigt Hill
#
# Bulk Modulus (GPa) = 80.89989 99.24570 90.07280
# Shear Modulus (GPa) = 30.81784 47.69497 39.25641
#
# Velocity S-wave (km/s) = 3.39344 4.22158 3.82996
# Velocity P-wave (km/s) = 6.75152 7.80042 7.29485
#
# Compressibility (1/GPa) = 0.01236096
#
# Stress axis : x y z
#
# Youngs Moduli (GPa) = 161.58355 255.08751 78.33416
#
# Poissons Ratio (x) = 0.23122 0.25724
# Poissons Ratio (y) = 0.14647 0.08355
# Poissons Ratio (z) = 0.53063 0.27206
#
# Static dielectric constant tensor:
#      x y z
#    x 1.893440 0.000000 0.000000 
#    y 0.000000 2.241050 0.000000 
#    z 0.000000 0.000000 1.485420 
# 
# From -- ./inp_files/5111.got.cif
#   From: 2010.05.17/outbox.cif.g08.bks.cpg/sg20_3_cif.got.tgz:5111.got - 2010.06.03 22:52:26.
