data_PCOD9320382
_publ_section_title
;
Structure prediction by ZEFSAII (Michael W. Deem and Ramdas Pophale) SiO2 
 PCOD9320382
Probable space group: C 2 2 21
;
_chemical_formula_sum "Si O2"
_cell_formula_units_Z 36
_cell_length_a 27.776425
_cell_length_b 9.922187
_cell_length_c 5.819419
_cell_angle_alpha 90.000000
_cell_angle_beta 90.000000
_cell_angle_gamma 90.000000
_cell_volume 1603.848654
_symmetry_space_group_name_H-M "C 2 2 21"
_symmetry_group_IT_number 20
_symmetry_cell_setting 'orthorhombic'
loop_
_space_group_symop_operation_xyz
x,y,z
-x,-y,1/2+z
x,-y,-z
-x,y,1/2-z
1/2+x,1/2+y,z
1/2-x,1/2-y,1/2+z
1/2+x,1/2-y,-z
1/2-x,1/2+y,1/2-z
loop_
_atom_site_type_symbol
_atom_site_label
_atom_site_fract_x
_atom_site_fract_y
_atom_site_fract_z
Si Si1 0.810358 0.000000 0.500000
Si Si2 0.084672 0.000000 0.500000
Si Si3 0.500000 0.362169 0.750000
Si Si4 0.362322 0.274844 0.217737
Si Si5 0.043625 0.359579 0.905975
Si Si6 0.239213 0.680505 0.281369
O O1 0.843566 0.119869 0.590342
O O2 0.773519 0.051040 0.303376
O O3 0.120766 0.126309 0.514914
O O4 0.045572 0.042209 0.306791
O O5 0.480664 0.257724 0.558775
O O6 0.411631 0.205794 0.281246
O O7 0.318410 0.171809 0.187793
O O8 0.000000 0.407780 0.750000
O O9 0.063331 0.500000 0.000000
O O10 0.252645 0.759647 0.523051
#
# Coordination Sequence:
#
# PCOD9320382 Si02
#       6
#     4   4   4   8   8   8
#     4  10  22  47  72 104 146 174 239 308 350 428
#     4  12  22  39  70 104 138 178 239 296 354 422
#     4  12  24  42  70  96 148 180 232 302 352 406
#     4  11  23  43  71 108 132 191 232 289 365 425
#     4  12  25  48  66 100 144 190 233 288 351 433
#     4  10  23  45  70 104 145 183 230 297 363 423
#
# _framework density 22.446006000000001
#
# number of rings (size 3 to 8) (size 9 to 14) (size 15 to 20)
#    0.000    0.889    3.333    4.000    0.000    4.444 
#   22.000    0.000    0.000    0.000    0.000    0.000 
#    0.000    0.000    0.000    0.000    0.000    0.000 
#
# Total GULP energy -100265.073105 kJ/mol
# GULP energy per Si atom -5570.281839 kJ/mol
# Density = 2.239492 g / cm^3
# Si number density = 22.446006 Si / 1000 Ang^3
#
#
#
# Elastic Constant Matrix: (Units=GPa)
#
#
# Indices 1 2 3 4 5 6 
#
# 1 109.9115 -14.3594 -17.1452 0.0000 0.0000 0.0000
# 2 -14.3594 47.4337 -10.0633 0.0000 0.0000 0.0000
# 3 -17.1452 -10.0633 39.8360 0.0000 0.0000 0.0000
# 4 0.0000 0.0000 0.0000 7.4681 0.0000 0.0000
# 5 0.0000 0.0000 0.0000 0.0000 37.3029 0.0000
# 6 0.0000 0.0000 0.0000 0.0000 0.0000 152.7695
#
#
#
# Elastic Compliance Matrix: (Units=1/GPa)
#
#
# Indices 1 2 3 4 5 6 
#
# 1 0.010554 0.004394 0.005652 0.000000 0.000000 0.000000
# 2 0.004394 0.024105 0.007981 0.000000 0.000000 0.000000
# 3 0.005652 0.007981 0.029552 0.000000 0.000000 0.000000
# 4 0.000000 0.000000 0.000000 0.133903 0.000000 0.000000
# 5 0.000000 0.000000 0.000000 0.000000 0.026808 0.000000
# 6 0.000000 0.000000 0.000000 0.000000 0.000000 0.006546
#
#
# Mechanical properties :
#
#
# Convention : Reuss Voigt Hill
#
# Bulk Modulus (GPa) = 9.97348 12.67171 11.32259
# Shear Modulus (GPa) = 21.84980 55.42471 38.63726
#
# Velocity S-wave (km/s) = 3.12338 4.97454 4.15341
# Velocity P-wave (km/s) = 4.17855 6.21711 5.29683
#
# Compressibility (1/GPa) = 0.10026593
#
# Stress axis : x y z
#
# Youngs Moduli (GPa) = 94.75044 41.48446 33.83887
#
# Poissons Ratio (x) = -0.18229 -0.19127
# Poissons Ratio (y) = -0.41635 -0.27006
# Poissons Ratio (z) = -0.53557 -0.33108
#
# Static dielectric constant tensor:
#      x y z
#    x 1.779220 0.000000 0.000000 
#    y 0.000000 1.782640 0.000000 
#    z 0.000000 0.000000 1.930530 
# 
# From -- ./inp_files/3573.got.cif
#   From: 2010.05.17/outbox.cif.g08.bks.cpg/sg20_2_cif.got.tgz:3573.got - 2010.06.03 22:52:26.
