data_PCOD9320166
_publ_section_title
;
Structure prediction by ZEFSAII (Michael W. Deem and Ramdas Pophale) SiO2 
 PCOD9320166
Probable space group: C 2 2 21
;
_chemical_formula_sum "Si O2"
_cell_formula_units_Z 56
_cell_length_a 11.615339
_cell_length_b 21.462396
_cell_length_c 11.457201
_cell_angle_alpha 90.000000
_cell_angle_beta 90.000000
_cell_angle_gamma 90.000000
_cell_volume 2856.200070
_symmetry_space_group_name_H-M "C 2 2 21"
_symmetry_group_IT_number 20
_symmetry_cell_setting 'orthorhombic'
loop_
_space_group_symop_operation_xyz
x,y,z
-x,-y,1/2+z
x,-y,-z
-x,y,1/2-z
1/2+x,1/2+y,z
1/2-x,1/2-y,1/2+z
1/2+x,1/2-y,-z
1/2-x,1/2+y,1/2-z
loop_
_atom_site_type_symbol
_atom_site_label
_atom_site_fract_x
_atom_site_fract_y
_atom_site_fract_z
Si Si1 0.000321 0.610686 0.611610
Si Si2 0.252572 0.061451 0.580611
Si Si3 0.331203 0.837127 0.696723
Si Si4 0.933765 0.706428 0.074545
Si Si5 0.858269 0.500000 0.000000
Si Si6 0.242540 0.036357 0.229645
Si Si7 0.000000 0.104174 0.250000
Si Si8 0.609354 0.335637 0.540523
O O1 0.867849 0.602383 0.572660
O O2 0.000000 0.619153 0.750000
O O3 0.065076 0.665356 0.542674
O O4 0.062351 0.547402 0.571684
O O5 0.149305 0.105241 0.537069
O O6 0.256898 0.000000 0.500000
O O7 0.247502 0.030853 0.708909
O O8 0.444971 0.811745 0.634623
O O9 0.337797 0.812140 0.829650
O O10 0.325520 0.912549 0.708124
O O11 0.219002 0.818691 0.623056
O O12 0.924122 0.778021 0.039540
O O13 0.780452 0.466685 0.903689
O O14 0.114706 0.063040 0.244439
O O15 0.988309 0.144766 0.132763
#
# Coordination Sequence:
#
# PCOD9320166 Si02
#       8
#     8   8   8   8   4   8   4   8
#     4  12  24  37  67 105 135 172 219 282 339 407
#     4  12  21  41  70  96 132 173 222 273 343 403
#     4  10  22  43  67  92 133 180 216 276 347 396
#     4  11  24  42  65  95 134 177 224 277 336 411
#     4  12  24  38  64 108 136 166 220 286 336 402
#     4  11  23  42  67  99 136 174 222 281 344 403
#     4  10  24  44  66  90 128 190 224 264 344 410
#     4  11  25  42  68  98 129 184 230 276 336 415
#
# _framework density 19.606469000000001
#
# number of rings (size 3 to 8) (size 9 to 14) (size 15 to 20)
#    0.000    0.857    7.857    0.000    1.000    4.571 
#    0.000    2.857    0.000    0.000    0.000    0.000 
#    0.000    0.000    0.000    0.000    0.000    0.000 
#
# Total GULP energy -156363.711618 kJ/mol
# GULP energy per Si atom -5584.418272 kJ/mol
# Density = 1.956184 g / cm^3
# Si number density = 19.606469 Si / 1000 Ang^3
#
#
#
# Elastic Constant Matrix: (Units=GPa)
#
#
# Indices 1 2 3 4 5 6 
#
# 1 44.7374 18.7235 19.9687 0.0000 0.0000 0.0000
# 2 18.7235 95.3369 45.2873 0.0000 0.0000 0.0000
# 3 19.9687 45.2873 128.4315 0.0000 0.0000 0.0000
# 4 0.0000 0.0000 0.0000 38.0074 0.0000 0.0000
# 5 0.0000 0.0000 0.0000 0.0000 26.7175 0.0000
# 6 0.0000 0.0000 0.0000 0.0000 0.0000 23.1457
#
#
#
# Elastic Compliance Matrix: (Units=1/GPa)
#
#
# Indices 1 2 3 4 5 6 
#
# 1 0.025054 -0.003688 -0.002595 0.000000 0.000000 0.000000
# 2 -0.003688 0.013142 -0.004061 0.000000 0.000000 0.000000
# 3 -0.002595 -0.004061 0.009622 0.000000 0.000000 0.000000
# 4 0.000000 0.000000 0.000000 0.026311 0.000000 0.000000
# 5 0.000000 0.000000 0.000000 0.000000 0.037429 0.000000
# 6 0.000000 0.000000 0.000000 0.000000 0.000000 0.043205
#
#
# Mechanical properties :
#
#
# Convention : Reuss Voigt Hill
#
# Bulk Modulus (GPa) = 36.85824 48.49607 42.67716
# Shear Modulus (GPa) = 27.10123 29.87588 28.48855
#
# Velocity S-wave (km/s) = 3.72191 3.90779 3.81598
# Velocity P-wave (km/s) = 6.10819 6.71934 6.42104
#
# Compressibility (1/GPa) = 0.02713097
#
# Stress axis : x y z
#
# Youngs Moduli (GPa) = 39.91314 76.08972 103.93201
#
# Poissons Ratio (x) = 0.28060 0.26971
# Poissons Ratio (y) = 0.14719 0.42205
# Poissons Ratio (z) = 0.10358 0.30899
#
# Static dielectric constant tensor:
#      x y z
#    x 1.683310 0.000000 0.000000 
#    y 0.000000 1.674980 0.000000 
#    z 0.000000 0.000000 1.739220 
# 
# From -- ./inp_files/14345.got.cif
#   From: 2010.05.17/outbox.cif.g08.bks.cpg/sg20_8_cif.got.tgz:14345.got - 2010.06.03 22:52:26.
