data_PCOD9320169
_publ_section_title
;
Structure prediction by ZEFSAII (Michael W. Deem and Ramdas Pophale) SiO2 
 PCOD9320169
Probable space group: C 2 2 21
;
_chemical_formula_sum "Si O2"
_cell_formula_units_Z 48
_cell_length_a 23.006704
_cell_length_b 8.848517
_cell_length_c 11.273419
_cell_angle_alpha 90.000000
_cell_angle_beta 90.000000
_cell_angle_gamma 90.000000
_cell_volume 2294.988657
_symmetry_space_group_name_H-M "C 2 2 21"
_symmetry_group_IT_number 20
_symmetry_cell_setting 'orthorhombic'
loop_
_space_group_symop_operation_xyz
x,y,z
-x,-y,1/2+z
x,-y,-z
-x,y,1/2-z
1/2+x,1/2+y,z
1/2-x,1/2-y,1/2+z
1/2+x,1/2-y,-z
1/2-x,1/2+y,1/2-z
loop_
_atom_site_type_symbol
_atom_site_label
_atom_site_fract_x
_atom_site_fract_y
_atom_site_fract_z
Si Si1 0.847578 0.221548 0.928675
Si Si2 0.349109 0.604045 0.182489
Si Si3 0.438459 0.184753 0.687745
Si Si4 0.726820 0.364581 0.908599
Si Si5 0.429875 0.152110 0.248202
Si Si6 0.109436 0.820345 0.026781
O O1 0.785052 0.274421 0.882560
O O2 0.899888 0.323910 0.879535
O O3 0.861132 0.056379 0.876697
O O4 0.838579 0.212323 0.069872
O O5 0.401212 0.683399 0.251866
O O6 0.299500 0.586007 0.281981
O O7 0.500000 0.185857 0.750000
O O8 0.437424 0.228014 0.549972
O O9 0.414536 0.016309 0.707122
O O10 0.673633 0.278750 0.976311
O O11 0.740700 0.500000 0.000000
O O12 0.500000 0.169597 0.250000
O O13 0.401140 0.272503 0.338750
O O14 0.103931 0.000000 0.000000
#
# Coordination Sequence:
#
# PCOD9320169 Si02
#       6
#     8   8   8   8   8   8
#     4  11  25  42  67  97 138 173 232 288 342 421
#     4  10  25  44  62 101 132 176 232 286 348 412
#     4  10  23  43  67  93 135 175 231 291 345 420
#     4  10  23  41  69  96 132 183 222 286 348 417
#     4  11  25  42  67 101 133 183 231 286 353 422
#     4  10  22  43  67  96 133 175 230 281 351 422
#
# _framework density 20.915137999999999
#
# number of rings (size 3 to 8) (size 9 to 14) (size 15 to 20)
#    0.000    1.667    0.000    3.500    9.333    4.000 
#    6.000    0.000    0.000    0.000    0.000    0.000 
#    0.000    0.000    0.000    0.000    0.000    0.000 
#
# Total GULP energy -133922.535054 kJ/mol
# GULP energy per Si atom -5580.105627 kJ/mol
# Density = 2.086753 g / cm^3
# Si number density = 20.915138 Si / 1000 Ang^3
#
#
#
# Elastic Constant Matrix: (Units=GPa)
#
#
# Indices 1 2 3 4 5 6 
#
# 1 64.6730 24.0564 15.8475 0.0000 0.0000 0.0000
# 2 24.0564 75.4589 25.1733 0.0000 0.0000 0.0000
# 3 15.8475 25.1733 110.4191 0.0000 0.0000 0.0000
# 4 0.0000 0.0000 0.0000 14.0175 0.0000 0.0000
# 5 0.0000 0.0000 0.0000 0.0000 23.2386 0.0000
# 6 0.0000 0.0000 0.0000 0.0000 0.0000 24.2035
#
#
#
# Elastic Compliance Matrix: (Units=1/GPa)
#
#
# Indices 1 2 3 4 5 6 
#
# 1 0.017729 -0.005199 -0.001359 0.000000 0.000000 0.000000
# 2 -0.005199 0.015867 -0.002871 0.000000 0.000000 0.000000
# 3 -0.001359 -0.002871 0.009906 0.000000 0.000000 0.000000
# 4 0.000000 0.000000 0.000000 0.071339 0.000000 0.000000
# 5 0.000000 0.000000 0.000000 0.000000 0.043032 0.000000
# 6 0.000000 0.000000 0.000000 0.000000 0.000000 0.041316
#
#
# Mechanical properties :
#
#
# Convention : Reuss Voigt Hill
#
# Bulk Modulus (GPa) = 40.57755 42.30061 41.43908
# Shear Modulus (GPa) = 22.09812 24.65683 23.37747
#
# Velocity S-wave (km/s) = 3.25400 3.43723 3.34687
# Velocity P-wave (km/s) = 5.79320 6.00180 5.89842
#
# Compressibility (1/GPa) = 0.02464417
#
# Stress axis : x y z
#
# Youngs Moduli (GPa) = 56.40400 63.02206 100.94781
#
# Poissons Ratio (x) = 0.32763 0.13722
# Poissons Ratio (y) = 0.29322 0.28986
# Poissons Ratio (z) = 0.07667 0.18096
#
# Static dielectric constant tensor:
#      x y z
#    x 1.754850 0.000000 0.000000 
#    y 0.000000 1.768910 0.000000 
#    z 0.000000 0.000000 1.905120 
# 
# From -- ./inp_files/13109.got.cif
#   From: 2010.05.17/outbox.cif.g08.bks.cpg/sg20_7_cif.got.tgz:13109.got - 2010.06.03 22:52:26.
