data_PCOD9320909
_publ_section_title
;
Structure prediction by ZEFSAII (Michael W. Deem and Ramdas Pophale) SiO2 
 PCOD9320909
Probable space group: C 2 2 21
;
_chemical_formula_sum "Si O2"
_cell_formula_units_Z 32
_cell_length_a 5.154449
_cell_length_b 23.481090
_cell_length_c 10.565308
_cell_angle_alpha 90.000000
_cell_angle_beta 90.000000
_cell_angle_gamma 90.000000
_cell_volume 1278.741212
_symmetry_space_group_name_H-M "C 2 2 21"
_symmetry_group_IT_number 20
_symmetry_cell_setting 'orthorhombic'
loop_
_space_group_symop_operation_xyz
x,y,z
-x,-y,1/2+z
x,-y,-z
-x,y,1/2-z
1/2+x,1/2+y,z
1/2-x,1/2-y,1/2+z
1/2+x,1/2-y,-z
1/2-x,1/2+y,1/2-z
loop_
_atom_site_type_symbol
_atom_site_label
_atom_site_fract_x
_atom_site_fract_y
_atom_site_fract_z
Si Si1 0.000000 0.897617 0.250000
Si Si2 0.265926 0.317793 0.571364
Si Si3 0.229455 0.311265 0.105752
Si Si4 0.198163 0.507499 0.864405
Si Si5 0.000000 0.906086 0.750000
O O1 0.769861 0.852085 0.225823
O O2 0.919805 0.943296 0.141079
O O3 0.514289 0.320179 0.479589
O O4 0.270931 0.255733 0.637451
O O5 0.303826 0.366600 0.673185
O O6 0.011834 0.323606 0.485490
O O7 0.338202 0.448174 0.837947
O O8 0.000000 0.519998 0.750000
O O9 0.066216 0.500000 0.000000
#
# Coordination Sequence:
#
# PCOD9320909 Si02
#       5
#     4   8   8   8   4
#     4  11  26  46  76 108 152 205 266 324 392 471
#     4  10  24  44  73 113 160 200 254 318 398 477
#     4  10  24  44  72 114 158 202 251 322 396 478
#     4  11  28  50  77 112 154 210 271 334 397 466
#     4  11  26  46  78 108 154 209 268 326 394 477
#
# _framework density 25.024611
#
# number of rings (size 3 to 8) (size 9 to 14) (size 15 to 20)
#    0.000    1.500    0.000    1.500   10.500   10.000 
#    0.000    0.000    0.000    0.000    0.000    0.000 
#    0.000    0.000    0.000    0.000    0.000    0.000 
#
# Total GULP energy -89488.180937 kJ/mol
# GULP energy per Si atom -5593.011309 kJ/mol
# Density = 2.496765 g / cm^3
# Si number density = 25.024611 Si / 1000 Ang^3
#
#
#
# Elastic Constant Matrix: (Units=GPa)
#
#
# Indices 1 2 3 4 5 6 
#
# 1 166.1809 57.4793 51.0134 0.0000 0.0000 0.0000
# 2 57.4793 203.7975 66.8280 0.0000 0.0000 0.0000
# 3 51.0134 66.8280 127.3406 0.0000 0.0000 0.0000
# 4 0.0000 0.0000 0.0000 10.5216 0.0000 0.0000
# 5 0.0000 0.0000 0.0000 0.0000 37.9964 0.0000
# 6 0.0000 0.0000 0.0000 0.0000 0.0000 37.3573
#
#
#
# Elastic Compliance Matrix: (Units=1/GPa)
#
#
# Indices 1 2 3 4 5 6 
#
# 1 0.007135 -0.001299 -0.002177 0.000000 0.000000 0.000000
# 2 -0.001299 0.006163 -0.002714 0.000000 0.000000 0.000000
# 3 -0.002177 -0.002714 0.010149 0.000000 0.000000 0.000000
# 4 0.000000 0.000000 0.000000 0.095043 0.000000 0.000000
# 5 0.000000 0.000000 0.000000 0.000000 0.026318 0.000000
# 6 0.000000 0.000000 0.000000 0.000000 0.000000 0.026769
#
#
# Mechanical properties :
#
#
# Convention : Reuss Voigt Hill
#
# Bulk Modulus (GPa) = 90.34778 94.21782 92.28280
# Shear Modulus (GPa) = 26.64599 38.64161 32.64380
#
# Velocity S-wave (km/s) = 3.26665 3.93382 3.61566
# Velocity P-wave (km/s) = 7.10000 7.63970 7.37479
#
# Compressibility (1/GPa) = 0.01106834
#
# Stress axis : x y z
#
# Youngs Moduli (GPa) = 140.15595 162.25642 98.52809
#
# Poissons Ratio (x) = 0.21069 0.21448
# Poissons Ratio (y) = 0.18200 0.26742
# Poissons Ratio (z) = 0.30509 0.44039
#
# Static dielectric constant tensor:
#      x y z
#    x 1.982170 0.000000 0.000000 
#    y 0.000000 1.951510 0.000000 
#    z 0.000000 0.000000 2.042880 
# 
# From -- ./inp_files/12004.got.cif
#   From: 2010.05.17/outbox.cif.g08.bks.cpg/sg20_7_cif.got.tgz:12004.got - 2010.06.03 22:52:26.
