data_PCOD9320245
_publ_section_title
;
Structure prediction by ZEFSAII (Michael W. Deem and Ramdas Pophale) SiO2 
 PCOD9320245
Probable space group: C 2 2 21
;
_chemical_formula_sum "Si O2"
_cell_formula_units_Z 40
_cell_length_a 8.431325
_cell_length_b 12.674804
_cell_length_c 18.514415
_cell_angle_alpha 90.000000
_cell_angle_beta 90.000000
_cell_angle_gamma 90.000000
_cell_volume 1978.550214
_symmetry_space_group_name_H-M "C 2 2 21"
_symmetry_group_IT_number 20
_symmetry_cell_setting 'orthorhombic'
loop_
_space_group_symop_operation_xyz
x,y,z
-x,-y,1/2+z
x,-y,-z
-x,y,1/2-z
1/2+x,1/2+y,z
1/2-x,1/2-y,1/2+z
1/2+x,1/2-y,-z
1/2-x,1/2+y,1/2-z
loop_
_atom_site_type_symbol
_atom_site_label
_atom_site_fract_x
_atom_site_fract_y
_atom_site_fract_z
Si Si1 0.345826 0.884751 0.463430
Si Si2 0.421858 0.969957 0.142829
Si Si3 0.989226 0.807163 0.454729
Si Si4 0.711781 0.500000 0.000000
Si Si5 0.000000 0.649030 0.250000
Si Si6 0.642867 0.654620 0.793950
O O1 0.433306 0.900884 0.387116
O O2 0.174198 0.833034 0.455655
O O3 0.450451 0.806498 0.512351
O O4 0.331186 0.000000 0.500000
O O5 0.304599 0.908376 0.197287
O O6 0.482961 0.074475 0.181434
O O7 0.319021 0.995195 0.071404
O O8 0.898082 0.896573 0.500876
O O9 0.921067 0.820594 0.374252
O O10 0.852949 0.730589 0.256164
O O11 0.500000 0.597438 0.750000
#
# Coordination Sequence:
#
# PCOD9320245 Si02
#       6
#     8   8   8   4   4   8
#     4  12  25  41  71 101 132 174 221 276 342 387
#     4  11  23  42  68  98 134 173 228 275 330 404
#     4  11  23  43  68  99 136 171 224 282 333 403
#     4  10  22  44  68 100 132 176 228 282 336 388
#     4  10  24  42  70  88 138 176 220 266 342 386
#     4   9  23  42  63  90 134 175 218 269 328 394
#
# _framework density 20.216823000000002
#
# number of rings (size 3 to 8) (size 9 to 14) (size 15 to 20)
#    0.600    0.800    2.000    3.600    5.600    0.000 
#    0.000    0.000    0.000    0.000    0.000    0.000 
#    0.000    0.000    0.000    0.000    0.000    0.000 
#
# Total GULP energy -111706.585190 kJ/mol
# GULP energy per Si atom -5585.329260 kJ/mol
# Density = 2.017081 g / cm^3
# Si number density = 20.216823 Si / 1000 Ang^3
#
#
#
# Elastic Constant Matrix: (Units=GPa)
#
#
# Indices 1 2 3 4 5 6 
#
# 1 83.6909 21.6285 -10.0141 0.0000 0.0000 0.0000
# 2 21.6285 91.1715 2.3715 0.0000 0.0000 0.0000
# 3 -10.0141 2.3715 33.2439 0.0000 0.0000 0.0000
# 4 0.0000 0.0000 0.0000 26.3254 0.0000 0.0000
# 5 0.0000 0.0000 0.0000 0.0000 18.4117 0.0000
# 6 0.0000 0.0000 0.0000 0.0000 0.0000 31.0190
#
#
#
# Elastic Compliance Matrix: (Units=1/GPa)
#
#
# Indices 1 2 3 4 5 6 
#
# 1 0.013300 -0.003265 0.004239 0.000000 0.000000 0.000000
# 2 -0.003265 0.011790 -0.001825 0.000000 0.000000 0.000000
# 3 0.004239 -0.001825 0.031488 0.000000 0.000000 0.000000
# 4 0.000000 0.000000 0.000000 0.037986 0.000000 0.000000
# 5 0.000000 0.000000 0.000000 0.000000 0.054313 0.000000
# 6 0.000000 0.000000 0.000000 0.000000 0.000000 0.032238
#
#
# Mechanical properties :
#
#
# Convention : Reuss Voigt Hill
#
# Bulk Modulus (GPa) = 18.22272 26.23089 22.22680
# Shear Modulus (GPa) = 24.86205 28.09259 26.47732
#
# Velocity S-wave (km/s) = 3.51061 3.73173 3.62286
# Velocity P-wave (km/s) = 5.04636 5.61878 5.34025
#
# Compressibility (1/GPa) = 0.05487655
#
# Stress axis : x y z
#
# Youngs Moduli (GPa) = 75.18873 84.81450 31.75828
#
# Poissons Ratio (x) = 0.27695 -0.13463
# Poissons Ratio (y) = 0.24552 0.05795
# Poissons Ratio (z) = -0.31875 0.15476
#
# Static dielectric constant tensor:
#      x y z
#    x 1.728870 0.000000 0.000000 
#    y 0.000000 1.708880 0.000000 
#    z 0.000000 0.000000 1.731530 
# 
# From -- ./inp_files/23222.got.cif
#   From: 2010.05.17/outbox.cif.g08.bks.cpg/sg20_12_cif.got.tgz:23222.got - 2010.06.03 22:52:26.
