data_PCOD9320666
_publ_section_title
;
Structure prediction by ZEFSAII (Michael W. Deem and Ramdas Pophale) SiO2 
 PCOD9320666
Probable space group: C 2 2 21
;
_chemical_formula_sum "Si O2"
_cell_formula_units_Z 64
_cell_length_a 13.821016
_cell_length_b 9.469257
_cell_length_c 21.694813
_cell_angle_alpha 90.000000
_cell_angle_beta 90.000000
_cell_angle_gamma 90.000000
_cell_volume 2839.303282
_symmetry_space_group_name_H-M "C 2 2 21"
_symmetry_group_IT_number 20
_symmetry_cell_setting 'orthorhombic'
loop_
_space_group_symop_operation_xyz
x,y,z
-x,-y,1/2+z
x,-y,-z
-x,y,1/2-z
1/2+x,1/2+y,z
1/2-x,1/2-y,1/2+z
1/2+x,1/2-y,-z
1/2-x,1/2+y,1/2-z
loop_
_atom_site_type_symbol
_atom_site_label
_atom_site_fract_x
_atom_site_fract_y
_atom_site_fract_z
Si Si1 0.545155 0.482132 0.572577
Si Si2 0.860867 0.926832 0.365013
Si Si3 0.410373 0.822045 0.711280
Si Si4 0.923066 0.340279 0.082203
Si Si5 0.894980 0.482227 0.593930
Si Si6 0.276654 0.731632 0.525220
Si Si7 0.273516 0.329128 0.101990
Si Si8 0.820084 0.435679 0.827987
O O1 0.515882 0.500000 0.500000
O O2 0.472749 0.553695 0.621005
O O3 0.544916 0.319890 0.595211
O O4 0.649330 0.557244 0.576430
O O5 0.844093 0.798704 0.317593
O O6 0.822733 0.889357 0.433317
O O7 0.795564 0.047438 0.336198
O O8 0.500000 0.763255 0.750000
O O9 0.355705 0.924369 0.758414
O O10 0.445814 0.899351 0.649660
O O11 0.837694 0.301797 0.034282
O O12 0.870092 0.435096 0.134757
O O13 0.018752 0.427695 0.063086
O O14 0.831574 0.372530 0.552369
O O15 0.815273 0.580182 0.627667
O O16 0.281305 0.744882 0.452680
O O17 0.333388 0.218158 0.141604
#
# Coordination Sequence:
#
# PCOD9320666 Si02
#       8
#     8   8   8   8   8   8   8   8
#     4  12  24  45  70 104 151 192 234 302 368 449
#     4  10  26  43  72 103 141 188 240 299 367 438
#     4  11  23  49  70  99 140 185 248 307 364 435
#     4  11  23  45  69 107 140 185 241 289 366 437
#     4  11  23  42  74 101 141 194 235 299 374 434
#     4  10  23  45  66 108 148 185 235 297 356 449
#     4  12  24  44  71 107 149 188 239 297 378 445
#     4  11  26  46  72 102 140 185 246 307 364 443
#
# _framework density 22.540741000000001
#
# number of rings (size 3 to 8) (size 9 to 14) (size 15 to 20)
#    0.000    1.000    3.750    1.875    7.000    1.500 
#    2.250    0.000    2.750    0.000    0.000    0.000 
#    0.000    0.000    0.000    0.000    0.000    0.000 
#
# Total GULP energy -178322.507280 kJ/mol
# GULP energy per Si atom -5572.578353 kJ/mol
# Density = 2.248944 g / cm^3
# Si number density = 22.540741 Si / 1000 Ang^3
#
#
#
# Elastic Constant Matrix: (Units=GPa)
#
#
# Indices 1 2 3 4 5 6 
#
# 1 90.8235 13.1409 14.3829 0.0000 0.0000 0.0000
# 2 13.1409 81.4764 19.2858 0.0000 0.0000 0.0000
# 3 14.3829 19.2858 55.7513 0.0000 0.0000 0.0000
# 4 0.0000 0.0000 0.0000 27.9901 0.0000 0.0000
# 5 0.0000 0.0000 0.0000 0.0000 28.3383 0.0000
# 6 0.0000 0.0000 0.0000 0.0000 0.0000 31.9498
#
#
#
# Elastic Compliance Matrix: (Units=1/GPa)
#
#
# Indices 1 2 3 4 5 6 
#
# 1 0.011598 -0.001266 -0.002554 0.000000 0.000000 0.000000
# 2 -0.001266 0.013506 -0.004346 0.000000 0.000000 0.000000
# 3 -0.002554 -0.004346 0.020099 0.000000 0.000000 0.000000
# 4 0.000000 0.000000 0.000000 0.035727 0.000000 0.000000
# 5 0.000000 0.000000 0.000000 0.000000 0.035288 0.000000
# 6 0.000000 0.000000 0.000000 0.000000 0.000000 0.031299
#
#
# Mechanical properties :
#
#
# Convention : Reuss Voigt Hill
#
# Bulk Modulus (GPa) = 34.63582 35.74115 35.18848
# Shear Modulus (GPa) = 28.82300 29.73841 29.28071
#
# Velocity S-wave (km/s) = 3.57978 3.63618 3.60809
# Velocity P-wave (km/s) = 5.69962 5.78963 5.74480
#
# Compressibility (1/GPa) = 0.02887185
#
# Stress axis : x y z
#
# Youngs Moduli (GPa) = 86.22164 74.03960 49.75382
#
# Poissons Ratio (x) = 0.09373 0.12708
# Poissons Ratio (y) = 0.10916 0.21621
# Poissons Ratio (z) = 0.22022 0.32174
#
# Static dielectric constant tensor:
#      x y z
#    x 1.889110 0.000000 0.000000 
#    y 0.000000 1.909860 0.000000 
#    z 0.000000 0.000000 1.778500 
# 
# From -- ./inp_files/29380.got.cif
#   From: 2010.05.17/outbox.cif.g08.bks.cpg/sg20_15_cif.got.tgz:29380.got - 2010.06.03 22:52:26.
