data_PCOD9320101
_publ_section_title
;
Structure prediction by ZEFSAII (Michael W. Deem and Ramdas Pophale) SiO2 
 PCOD9320101
Probable space group: C 2 2 21
;
_chemical_formula_sum "Si O2"
_cell_formula_units_Z 60
_cell_length_a 15.000899
_cell_length_b 13.503630
_cell_length_c 13.239908
_cell_angle_alpha 90.000000
_cell_angle_beta 90.000000
_cell_angle_gamma 90.000000
_cell_volume 2681.963012
_symmetry_space_group_name_H-M "C 2 2 21"
_symmetry_group_IT_number 20
_symmetry_cell_setting 'orthorhombic'
loop_
_space_group_symop_operation_xyz
x,y,z
-x,-y,1/2+z
x,-y,-z
-x,y,1/2-z
1/2+x,1/2+y,z
1/2-x,1/2-y,1/2+z
1/2+x,1/2-y,-z
1/2-x,1/2+y,1/2-z
loop_
_atom_site_type_symbol
_atom_site_label
_atom_site_fract_x
_atom_site_fract_y
_atom_site_fract_z
Si Si1 0.175267 0.371004 0.347164
Si Si2 0.652585 0.384687 0.505315
Si Si3 0.734404 0.828671 0.828824
Si Si4 0.204754 0.941000 0.841840
Si Si5 0.135738 0.688340 0.425113
Si Si6 0.039114 0.265739 0.851638
Si Si7 0.461252 0.327076 0.573939
Si Si8 0.000000 0.333027 0.250000
O O1 0.219462 0.274187 0.297726
O O2 0.252143 0.452535 0.361752
O O3 0.139770 0.340006 0.457355
O O4 0.086461 0.395472 0.284255
O O5 0.664100 0.500000 0.500000
O O6 0.741716 0.341062 0.554455
O O7 0.638292 0.307921 0.413562
O O8 0.561531 0.369026 0.568836
O O9 0.787176 0.918644 0.776827
O O10 0.629723 0.818732 0.818451
O O11 0.279277 0.863062 0.878918
O O12 0.111404 0.907928 0.889474
O O13 0.039718 0.658955 0.382805
O O14 0.000000 0.213078 0.750000
O O15 0.058279 0.206740 0.957191
O O16 0.467873 0.238613 0.656915
#
# Coordination Sequence:
#
# PCOD9320101 Si02
#       8
#     8   8   8   8   8   8   8   4
#     4  11  24  43  70 104 142 192 249 307 370 458
#     4  10  22  42  68  99 138 183 246 300 371 448
#     4  11  23  43  65 101 146 185 242 312 371 439
#     4  12  24  41  71 104 143 186 250 304 378 447
#     4  10  22  43  65  93 143 187 231 313 361 440
#     4  11  22  42  72  97 141 199 237 299 389 429
#     4  11  22  43  77 103 141 194 239 316 369 450
#     4  12  20  46  76 100 144 202 246 294 392 438
#
# _framework density 22.371673999999999
#
# number of rings (size 3 to 8) (size 9 to 14) (size 15 to 20)
#    0.000    1.067    6.667    2.000    0.000    5.333 
#    2.400    1.333    7.333    0.000    0.000    0.000 
#    0.000    0.000    0.000    0.000    0.000    0.000 
#
# Total GULP energy -167199.316963 kJ/mol
# GULP energy per Si atom -5573.310565 kJ/mol
# Density = 2.232075 g / cm^3
# Si number density = 22.371674 Si / 1000 Ang^3
#
#
#
# Elastic Constant Matrix: (Units=GPa)
#
#
# Indices 1 2 3 4 5 6 
#
# 1 116.6097 16.1843 15.1890 0.0000 0.0000 0.0000
# 2 16.1843 63.8598 0.5134 0.0000 0.0000 0.0000
# 3 15.1890 0.5134 97.1218 0.0000 0.0000 0.0000
# 4 0.0000 0.0000 0.0000 15.9356 0.0000 0.0000
# 5 0.0000 0.0000 0.0000 0.0000 45.0306 0.0000
# 6 0.0000 0.0000 0.0000 0.0000 0.0000 28.2153
#
#
#
# Elastic Compliance Matrix: (Units=1/GPa)
#
#
# Indices 1 2 3 4 5 6 
#
# 1 0.009077 -0.002289 -0.001407 0.000000 0.000000 0.000000
# 2 -0.002289 0.016237 0.000272 0.000000 0.000000 0.000000
# 3 -0.001407 0.000272 0.010515 0.000000 0.000000 0.000000
# 4 0.000000 0.000000 0.000000 0.062753 0.000000 0.000000
# 5 0.000000 0.000000 0.000000 0.000000 0.022207 0.000000
# 6 0.000000 0.000000 0.000000 0.000000 0.000000 0.035442
#
#
# Mechanical properties :
#
#
# Convention : Reuss Voigt Hill
#
# Bulk Modulus (GPa) = 34.50614 37.92940 36.21777
# Shear Modulus (GPa) = 28.94542 34.21662 31.58102
#
# Velocity S-wave (km/s) = 3.60090 3.91508 3.76127
# Velocity P-wave (km/s) = 5.72243 6.11785 5.92344
#
# Compressibility (1/GPa) = 0.02898035
#
# Stress axis : x y z
#
# Youngs Moduli (GPa) = 110.17304 61.58681 95.10208
#
# Poissons Ratio (x) = 0.14097 0.13385
# Poissons Ratio (y) = 0.25219 -0.02588
# Poissons Ratio (z) = 0.15506 -0.01676
#
# Static dielectric constant tensor:
#      x y z
#    x 1.824510 0.000000 0.000000 
#    y 0.000000 1.837370 0.000000 
#    z 0.000000 0.000000 2.011550 
# 
# From -- ./inp_files/20901.got.cif
#   From: 2010.05.17/outbox.cif.g08.bks.cpg/sg20_11_cif.got.tgz:20901.got - 2010.06.03 22:52:26.
