data_PCOD9320011
_publ_section_title
;
Structure prediction by ZEFSAII (Michael W. Deem and Ramdas Pophale) SiO2 
 PCOD9320011
Probable space group: C 2 2 21
;
_chemical_formula_sum "Si O2"
_cell_formula_units_Z 36
_cell_length_a 17.290549
_cell_length_b 7.610463
_cell_length_c 13.783072
_cell_angle_alpha 90.000000
_cell_angle_beta 90.000000
_cell_angle_gamma 90.000000
_cell_volume 1813.701811
_symmetry_space_group_name_H-M "C 2 2 21"
_symmetry_group_IT_number 20
_symmetry_cell_setting 'orthorhombic'
loop_
_space_group_symop_operation_xyz
x,y,z
-x,-y,1/2+z
x,-y,-z
-x,y,1/2-z
1/2+x,1/2+y,z
1/2-x,1/2-y,1/2+z
1/2+x,1/2-y,-z
1/2-x,1/2+y,1/2-z
loop_
_atom_site_type_symbol
_atom_site_label
_atom_site_fract_x
_atom_site_fract_y
_atom_site_fract_z
Si Si1 0.852803 0.667288 0.555139
Si Si2 0.382074 0.690651 0.962577
Si Si3 0.257394 0.317231 0.400013
Si Si4 0.768508 0.699371 0.190798
Si Si5 0.502161 0.000000 0.500000
O O1 0.814719 0.500000 0.500000
O O2 0.830522 0.811610 0.473535
O O3 0.811280 0.714004 0.654017
O O4 0.940887 0.606308 0.567375
O O5 0.337231 0.690593 0.859896
O O6 0.410000 0.500000 0.000000
O O7 0.316279 0.752215 0.038975
O O8 0.445274 0.845424 0.957166
O O9 0.235309 0.507044 0.356906
O O10 0.274707 0.201112 0.305556
#
# Coordination Sequence:
#
# PCOD9320011 Si02
#       5
#     8   8   8   8   4
#     4   9  20  37  57  84 120 152 196 242 303 347
#     4  11  21  39  62  88 121 160 203 242 302 364
#     4  11  20  36  62  90 118 158 206 250 295 354
#     4  11  20  36  62  90 118 158 206 250 295 354
#     4  10  22  42  60  90 130 160 188 256 308 360
#
# _framework density 19.848908000000002
#
# number of rings (size 3 to 8) (size 9 to 14) (size 15 to 20)
#    0.667    0.889    2.222    7.333    0.000    1.778 
#    0.000    4.444    0.000    5.333    0.000    0.000 
#    0.000    0.000    0.000    0.000    0.000    0.000 
#
# Total GULP energy -100240.304173 kJ/mol
# GULP energy per Si atom -5568.905787 kJ/mol
# Density = 1.980373 g / cm^3
# Si number density = 19.848908 Si / 1000 Ang^3
#
#
#
# Elastic Constant Matrix: (Units=GPa)
#
#
# Indices 1 2 3 4 5 6 
#
# 1 103.9496 21.6395 22.2837 0.0000 0.0000 0.0000
# 2 21.6395 93.0029 17.5788 0.0000 0.0000 0.0000
# 3 22.2837 17.5788 99.2218 0.0000 0.0000 0.0000
# 4 0.0000 0.0000 0.0000 28.0204 0.0000 0.0000
# 5 0.0000 0.0000 0.0000 0.0000 4.2007 0.0000
# 6 0.0000 0.0000 0.0000 0.0000 0.0000 32.4330
#
#
#
# Elastic Compliance Matrix: (Units=1/GPa)
#
#
# Indices 1 2 3 4 5 6 
#
# 1 0.010475 -0.002062 -0.001987 0.000000 0.000000 0.000000
# 2 -0.002062 0.011531 -0.001580 0.000000 0.000000 0.000000
# 3 -0.001987 -0.001580 0.010805 0.000000 0.000000 0.000000
# 4 0.000000 0.000000 0.000000 0.035688 0.000000 0.000000
# 5 0.000000 0.000000 0.000000 0.000000 0.238054 0.000000
# 6 0.000000 0.000000 0.000000 0.000000 0.000000 0.030833
#
#
# Mechanical properties :
#
#
# Convention : Reuss Voigt Hill
#
# Bulk Modulus (GPa) = 46.39754 46.57539 46.48647
# Shear Modulus (GPa) = 14.05175 28.57564 21.31370
#
# Velocity S-wave (km/s) = 2.66359 3.79840 3.28044
# Velocity P-wave (km/s) = 5.73461 6.53858 6.14975
#
# Compressibility (1/GPa) = 0.02155287
#
# Stress axis : x y z
#
# Youngs Moduli (GPa) = 95.46305 86.72528 92.55279
#
# Poissons Ratio (x) = 0.17880 0.18393
# Poissons Ratio (y) = 0.19682 0.14622
# Poissons Ratio (z) = 0.18972 0.13701
#
# Static dielectric constant tensor:
#      x y z
#    x 1.707020 0.000000 0.000000 
#    y 0.000000 1.845050 0.000000 
#    z 0.000000 0.000000 1.695230 
# 
# From -- ./inp_files/21093.got.cif
#   From: 2010.05.17/outbox.cif.g08.bks.cpg/sg20_11_cif.got.tgz:21093.got - 2010.06.03 22:52:26.
