data_PCOD9320755
_publ_section_title
;
Structure prediction by ZEFSAII (Michael W. Deem and Ramdas Pophale) SiO2 
 PCOD9320755
Probable space group: C 2 2 21
;
_chemical_formula_sum "Si O2"
_cell_formula_units_Z 48
_cell_length_a 7.817712
_cell_length_b 11.811276
_cell_length_c 19.305809
_cell_angle_alpha 90.000000
_cell_angle_beta 90.000000
_cell_angle_gamma 90.000000
_cell_volume 1782.643461
_symmetry_space_group_name_H-M "C 2 2 21"
_symmetry_group_IT_number 20
_symmetry_cell_setting 'orthorhombic'
loop_
_space_group_symop_operation_xyz
x,y,z
-x,-y,1/2+z
x,-y,-z
-x,y,1/2-z
1/2+x,1/2+y,z
1/2-x,1/2-y,1/2+z
1/2+x,1/2-y,-z
1/2-x,1/2+y,1/2-z
loop_
_atom_site_type_symbol
_atom_site_label
_atom_site_fract_x
_atom_site_fract_y
_atom_site_fract_z
Si Si1 0.306892 0.955221 0.279275
Si Si2 0.065535 0.058181 0.368901
Si Si3 0.244731 0.898284 0.945067
Si Si4 0.351490 0.666260 0.654073
Si Si5 0.507534 0.911537 0.406886
Si Si6 0.675020 0.181125 0.037789
O O1 0.500000 0.979889 0.250000
O O2 0.182111 0.060785 0.299135
O O3 0.200215 0.866154 0.232926
O O4 0.351278 0.908443 0.354741
O O5 0.184841 0.094301 0.432984
O O6 0.978847 0.934371 0.366830
O O7 0.893539 0.128202 0.384751
O O8 0.397048 0.967027 0.907593
O O9 0.246083 0.785422 0.991246
O O10 0.187832 0.000000 0.000000
O O11 0.416294 0.770279 0.607595
O O12 0.158372 0.665363 0.622932
O O13 0.444863 0.879459 0.482186
#
# Coordination Sequence:
#
# PCOD9320755 Si02
#       6
#     8   8   8   8   8   8
#     4  10  24  46  75 107 165 209 264 333 384 467
#     4  11  25  43  76 108 150 203 254 309 399 460
#     4  11  24  45  71 113 160 186 247 335 385 465
#     4  10  23  50  70 109 159 206 260 329 380 473
#     4  10  24  42  73 113 151 200 259 327 394 463
#     4  12  25  43  84 118 151 205 261 324 405 466
#
# _framework density 26.926302
#
# number of rings (size 3 to 8) (size 9 to 14) (size 15 to 20)
#    0.000    1.333    3.333    1.500    4.667    1.333 
#    0.000   13.333    0.000    0.000    0.000    0.000 
#    0.000    0.000    0.000    0.000    0.000    0.000 
#
# Total GULP energy -133782.136437 kJ/mol
# GULP energy per Si atom -5574.255685 kJ/mol
# Density = 2.686502 g / cm^3
# Si number density = 26.926302 Si / 1000 Ang^3
#
#
#
# Elastic Constant Matrix: (Units=GPa)
#
#
# Indices 1 2 3 4 5 6 
#
# 1 123.4521 45.9510 50.6519 0.0000 0.0000 0.0000
# 2 45.9510 97.9835 37.3210 0.0000 0.0000 0.0000
# 3 50.6519 37.3210 142.6897 0.0000 0.0000 0.0000
# 4 0.0000 0.0000 0.0000 46.4020 0.0000 0.0000
# 5 0.0000 0.0000 0.0000 0.0000 72.1894 0.0000
# 6 0.0000 0.0000 0.0000 0.0000 0.0000 33.4985
#
#
#
# Elastic Compliance Matrix: (Units=1/GPa)
#
#
# Indices 1 2 3 4 5 6 
#
# 1 0.010712 -0.003971 -0.002764 0.000000 0.000000 0.000000
# 2 -0.003971 0.012807 -0.001940 0.000000 0.000000 0.000000
# 3 -0.002764 -0.001940 0.008497 0.000000 0.000000 0.000000
# 4 0.000000 0.000000 0.000000 0.021551 0.000000 0.000000
# 5 0.000000 0.000000 0.000000 0.000000 0.013852 0.000000
# 6 0.000000 0.000000 0.000000 0.000000 0.000000 0.029852
#
#
# Mechanical properties :
#
#
# Convention : Reuss Voigt Hill
#
# Bulk Modulus (GPa) = 68.18488 70.21924 69.20206
# Shear Modulus (GPa) = 41.83727 45.76473 43.80100
#
# Velocity S-wave (km/s) = 3.94606 4.12713 4.03761
# Velocity P-wave (km/s) = 6.79262 6.98898 6.89150
#
# Compressibility (1/GPa) = 0.01466601
#
# Stress axis : x y z
#
# Youngs Moduli (GPa) = 93.34921 78.08212 117.69067
#
# Poissons Ratio (x) = 0.31006 0.32531
# Poissons Ratio (y) = 0.37069 0.22833
# Poissons Ratio (z) = 0.25803 0.15149
#
# Static dielectric constant tensor:
#      x y z
#    x 2.497840 0.000000 0.000000 
#    y 0.000000 2.285150 0.000000 
#    z 0.000000 0.000000 2.177890 
# 
# From -- ./inp_files/23473.got.cif
#   From: 2010.05.17/outbox.cif.g08.bks.cpg/sg20_12_cif.got.tgz:23473.got - 2010.06.03 22:52:26.
