data_PCOD9320979
_publ_section_title
;
Structure prediction by ZEFSAII (Michael W. Deem and Ramdas Pophale) SiO2 
 PCOD9320979
Probable space group: C 2 2 21
;
_chemical_formula_sum "Si O2"
_cell_formula_units_Z 24
_cell_length_a 10.279574
_cell_length_b 19.450026
_cell_length_c 4.645707
_cell_angle_alpha 90.000000
_cell_angle_beta 90.000000
_cell_angle_gamma 90.000000
_cell_volume 928.853281
_symmetry_space_group_name_H-M "C 2 2 21"
_symmetry_group_IT_number 20
_symmetry_cell_setting 'orthorhombic'
loop_
_space_group_symop_operation_xyz
x,y,z
-x,-y,1/2+z
x,-y,-z
-x,y,1/2-z
1/2+x,1/2+y,z
1/2-x,1/2-y,1/2+z
1/2+x,1/2-y,-z
1/2-x,1/2+y,1/2-z
loop_
_atom_site_type_symbol
_atom_site_label
_atom_site_fract_x
_atom_site_fract_y
_atom_site_fract_z
Si Si1 0.000000 0.388621 0.250000
Si Si2 0.909343 0.098413 0.502024
Si Si3 0.801917 0.500000 0.000000
Si Si4 0.269293 0.798009 0.366426
O O1 0.101479 0.442076 0.385046
O O2 0.096205 0.338588 0.071783
O O3 0.803438 0.049093 0.344147
O O4 0.000000 0.125496 0.250000
O O5 0.171019 0.153043 0.807954
O O6 0.000000 0.064018 0.750000
O O7 0.208778 0.765379 0.649515
#
# Coordination Sequence:
#
# PCOD9320979 Si02
#       4
#     4   8   4   8
#     4  10  26  46  74 104 148 194 242 308 356 444
#     4  11  24  44  73 109 145 190 239 304 365 433
#     4  10  24  46  72 108 146 192 246 300 372 430
#     4  11  26  45  72 106 146 197 240 297 366 434
#
# _framework density 25.838312999999999
#
# number of rings (size 3 to 8) (size 9 to 14) (size 15 to 20)
#    0.000    1.333    0.000    3.000    7.000   10.667 
#    0.000    0.000    0.000    0.000    0.000    0.000 
#    0.000    0.000    0.000    0.000    0.000    0.000 
#
# Total GULP energy -66955.936864 kJ/mol
# GULP energy per Si atom -5579.661405 kJ/mol
# Density = 2.577950 g / cm^3
# Si number density = 25.838313 Si / 1000 Ang^3
#
#
#
# Elastic Constant Matrix: (Units=GPa)
#
#
# Indices 1 2 3 4 5 6 
#
# 1 186.4747 82.7868 49.8675 0.0000 0.0000 0.0000
# 2 82.7868 118.0249 29.4109 0.0000 0.0000 0.0000
# 3 49.8675 29.4109 99.9917 0.0000 0.0000 0.0000
# 4 0.0000 0.0000 0.0000 24.4148 0.0000 0.0000
# 5 0.0000 0.0000 0.0000 0.0000 34.4672 0.0000
# 6 0.0000 0.0000 0.0000 0.0000 0.0000 56.5761
#
#
#
# Elastic Compliance Matrix: (Units=1/GPa)
#
#
# Indices 1 2 3 4 5 6 
#
# 1 0.008391 -0.005226 -0.002647 0.000000 0.000000 0.000000
# 2 -0.005226 0.012398 -0.001040 0.000000 0.000000 0.000000
# 3 -0.002647 -0.001040 0.011627 0.000000 0.000000 0.000000
# 4 0.000000 0.000000 0.000000 0.040959 0.000000 0.000000
# 5 0.000000 0.000000 0.000000 0.000000 0.029013 0.000000
# 6 0.000000 0.000000 0.000000 0.000000 0.000000 0.017675
#
#
# Mechanical properties :
#
#
# Convention : Reuss Voigt Hill
#
# Bulk Modulus (GPa) = 68.54866 80.95796 74.75331
# Shear Modulus (GPa) = 35.02562 39.25336 37.13949
#
# Velocity S-wave (km/s) = 3.68580 3.90191 3.79539
# Velocity P-wave (km/s) = 6.68588 7.19030 6.94267
#
# Compressibility (1/GPa) = 0.01458818
#
# Stress axis : x y z
#
# Youngs Moduli (GPa) = 119.17980 80.66084 86.00542
#
# Poissons Ratio (x) = 0.42152 0.22770
# Poissons Ratio (y) = 0.62281 0.08948
# Poissons Ratio (z) = 0.31553 0.08392
#
# Static dielectric constant tensor:
#      x y z
#    x 2.155490 0.000000 0.000000 
#    y 0.000000 2.121060 0.000000 
#    z 0.000000 0.000000 2.058450 
# 
# From -- ./inp_files/347.got.cif
#   From: 2010.05.17/outbox.cif.g08.bks.cpg/sg20_1_cif.got.tgz:347.got - 2010.06.03 22:52:26.
