data_PCOD9320288
_publ_section_title
;
Structure prediction by ZEFSAII (Michael W. Deem and Ramdas Pophale) SiO2 
 PCOD9320288
Probable space group: C 2 2 21
;
_chemical_formula_sum "Si O2"
_cell_formula_units_Z 36
_cell_length_a 9.566225
_cell_length_b 17.773846
_cell_length_c 9.462425
_cell_angle_alpha 90.000000
_cell_angle_beta 90.000000
_cell_angle_gamma 90.000000
_cell_volume 1608.882970
_symmetry_space_group_name_H-M "C 2 2 21"
_symmetry_group_IT_number 20
_symmetry_cell_setting 'orthorhombic'
loop_
_space_group_symop_operation_xyz
x,y,z
-x,-y,1/2+z
x,-y,-z
-x,y,1/2-z
1/2+x,1/2+y,z
1/2-x,1/2-y,1/2+z
1/2+x,1/2-y,-z
1/2-x,1/2+y,1/2-z
loop_
_atom_site_type_symbol
_atom_site_label
_atom_site_fract_x
_atom_site_fract_y
_atom_site_fract_z
Si Si1 0.740543 0.396202 0.806053
Si Si2 0.332869 0.064466 0.756177
Si Si3 0.360755 0.417488 0.006159
Si Si4 0.000000 0.698248 0.250000
Si Si5 0.117918 0.167601 0.916991
O O1 0.772929 0.485501 0.818569
O O2 0.675485 0.388837 0.649256
O O3 0.887912 0.354837 0.823011
O O4 0.644184 0.354675 0.919771
O O5 0.500000 0.066945 0.750000
O O6 0.279602 0.071090 0.595411
O O7 0.250555 0.129796 0.839897
O O8 0.463987 0.368377 0.100150
O O9 0.429834 0.500000 0.000000
O O10 0.088924 0.749016 0.139888
#
# Coordination Sequence:
#
# PCOD9320288 Si02
#       5
#     8   8   8   4   8
#     4  11  26  44  74 101 145 188 243 293 367 426
#     4  11  23  44  76 108 138 188 239 301 358 433
#     4  10  22  44  73 108 138 179 246 300 348 427
#     4  12  28  46  64 110 150 186 236 308 352 448
#     4  12  25  46  73 100 146 187 239 296 365 427
#
# _framework density 22.375774
#
# number of rings (size 3 to 8) (size 9 to 14) (size 15 to 20)
#    0.000    0.889    3.333    2.667    6.222    5.333 
#    0.000    0.000    0.000    0.000    0.000    0.000 
#    0.000    0.000    0.000    0.000    0.000    0.000 
#
# Total GULP energy -100504.232444 kJ/mol
# GULP energy per Si atom -5583.568469 kJ/mol
# Density = 2.232485 g / cm^3
# Si number density = 22.375774 Si / 1000 Ang^3
#
#
#
# Elastic Constant Matrix: (Units=GPa)
#
#
# Indices 1 2 3 4 5 6 
#
# 1 118.3110 14.0587 19.8546 0.0000 0.0000 0.0000
# 2 14.0587 56.2146 13.4945 0.0000 0.0000 0.0000
# 3 19.8546 13.4945 132.5665 0.0000 0.0000 0.0000
# 4 0.0000 0.0000 0.0000 -23.6321 0.0000 0.0000
# 5 0.0000 0.0000 0.0000 0.0000 33.3144 0.0000
# 6 0.0000 0.0000 0.0000 0.0000 0.0000 30.3585
#
#
#
# Elastic Compliance Matrix: (Units=1/GPa)
#
#
# Indices 1 2 3 4 5 6 
#
# 1 0.008873 -0.001948 -0.001131 0.000000 0.000000 0.000000
# 2 -0.001948 0.018662 -0.001608 0.000000 0.000000 0.000000
# 3 -0.001131 -0.001608 0.007876 0.000000 0.000000 0.000000
# 4 0.000000 0.000000 0.000000 -0.042315 0.000000 0.000000
# 5 0.000000 0.000000 0.000000 0.000000 0.030017 0.000000
# 6 0.000000 0.000000 0.000000 0.000000 0.000000 0.032940
#
#
# Mechanical properties :
#
#
# Convention : Reuss Voigt Hill
#
# Bulk Modulus (GPa) = 38.40376 44.65642 41.53009
# Shear Modulus (GPa) = 67.47084 25.32044 46.39564
#
# Velocity S-wave (km/s) = 5.49718 3.36758 4.55848
# Velocity P-wave (km/s) = 7.58237 5.92635 6.80492
#
# Compressibility (1/GPa) = 0.02603912
#
# Stress axis : x y z
#
# Youngs Moduli (GPa) = 112.69510 53.58459 126.96130
#
# Poissons Ratio (x) = 0.10437 0.14356
# Poissons Ratio (y) = 0.21950 0.20415
# Poissons Ratio (z) = 0.12743 0.08616
#
# Static dielectric constant tensor:
#      x y z
#    x 2.032740 0.000000 0.000000 
#    y 0.000000 1.834890 0.000000 
#    z 0.000000 0.000000 2.119820 
# 
# From -- ./inp_files/5914.got.cif
#   From: 2010.05.17/outbox.cif.g08.bks.cpg/sg20_3_cif.got.tgz:5914.got - 2010.06.03 22:52:26.
