data_PCOD9320951
_publ_section_title
;
Structure prediction by ZEFSAII (Michael W. Deem and Ramdas Pophale) SiO2 
 PCOD9320951
Probable space group: C 2 2 21
;
_chemical_formula_sum "Si O2"
_cell_formula_units_Z 40
_cell_length_a 16.360881
_cell_length_b 11.909291
_cell_length_c 9.057395
_cell_angle_alpha 90.000000
_cell_angle_beta 90.000000
_cell_angle_gamma 90.000000
_cell_volume 1764.801650
_symmetry_space_group_name_H-M "C 2 2 21"
_symmetry_group_IT_number 20
_symmetry_cell_setting 'orthorhombic'
loop_
_space_group_symop_operation_xyz
x,y,z
-x,-y,1/2+z
x,-y,-z
-x,y,1/2-z
1/2+x,1/2+y,z
1/2-x,1/2-y,1/2+z
1/2+x,1/2-y,-z
1/2-x,1/2+y,1/2-z
loop_
_atom_site_type_symbol
_atom_site_label
_atom_site_fract_x
_atom_site_fract_y
_atom_site_fract_z
Si Si1 0.091632 0.880166 0.958326
Si Si2 0.316436 0.769270 0.682839
Si Si3 0.444222 0.712617 0.888829
Si Si4 0.374449 0.235587 0.808796
Si Si5 0.088011 0.497302 0.824880
O O1 0.144672 0.782742 0.035840
O O2 0.088870 0.837244 0.790543
O O3 0.004101 0.879908 0.041770
O O4 0.129614 0.000000 0.000000
O O5 0.220078 0.766130 0.670463
O O6 0.351508 0.893936 0.712185
O O7 0.356909 0.692183 0.812257
O O8 0.500000 0.015256 0.250000
O O9 0.422288 0.781175 0.036336
O O10 0.378915 0.117023 0.727328
O O11 0.000000 0.254064 0.750000
O O12 0.077917 0.500000 0.000000
#
# Coordination Sequence:
#
# PCOD9320951 Si02
#       5
#     8   8   8   8   8
#     4  11  24  46  72 106 146 195 254 316 381 460
#     4  11  26  47  70 109 156 193 254 323 380 447
#     4  10  24  45  73 105 147 197 249 302 371 459
#     4  12  26  46  76 109 152 200 255 317 386 444
#     4  12  27  48  77 108 149 202 260 311 381 467
#
# _framework density 22.665436
#
# number of rings (size 3 to 8) (size 9 to 14) (size 15 to 20)
#    0.000    0.800    2.000    4.800    8.400    4.800 
#    0.000    0.000    0.000    0.000    0.000    0.000 
#    0.000    0.000    0.000    0.000    0.000    0.000 
#
# Total GULP energy -111604.881581 kJ/mol
# GULP energy per Si atom -5580.244079 kJ/mol
# Density = 2.261385 g / cm^3
# Si number density = 22.665436 Si / 1000 Ang^3
#
#
#
# Elastic Constant Matrix: (Units=GPa)
#
#
# Indices 1 2 3 4 5 6 
#
# 1 117.8911 54.2265 45.0912 0.0000 0.0000 0.0000
# 2 54.2265 127.7046 36.7088 0.0000 0.0000 0.0000
# 3 45.0912 36.7088 154.8024 0.0000 0.0000 0.0000
# 4 0.0000 0.0000 0.0000 17.3442 0.0000 0.0000
# 5 0.0000 0.0000 0.0000 0.0000 15.9306 0.0000
# 6 0.0000 0.0000 0.0000 0.0000 0.0000 31.2962
#
#
#
# Elastic Compliance Matrix: (Units=1/GPa)
#
#
# Indices 1 2 3 4 5 6 
#
# 1 0.011257 -0.004118 -0.002302 0.000000 0.000000 0.000000
# 2 -0.004118 0.009910 -0.001150 0.000000 0.000000 0.000000
# 3 -0.002302 -0.001150 0.007403 0.000000 0.000000 0.000000
# 4 0.000000 0.000000 0.000000 0.057656 0.000000 0.000000
# 5 0.000000 0.000000 0.000000 0.000000 0.062772 0.000000
# 6 0.000000 0.000000 0.000000 0.000000 0.000000 0.031953
#
#
# Mechanical properties :
#
#
# Convention : Reuss Voigt Hill
#
# Bulk Modulus (GPa) = 74.46960 74.71680 74.59320
# Shear Modulus (GPa) = 24.92890 30.53897 27.73394
#
# Velocity S-wave (km/s) = 3.32002 3.67465 3.50183
# Velocity P-wave (km/s) = 6.90102 7.14428 7.02370
#
# Compressibility (1/GPa) = 0.01342830
#
# Stress axis : x y z
#
# Youngs Moduli (GPa) = 88.83076 100.90828 135.07459
#
# Poissons Ratio (x) = 0.41557 0.31101
# Poissons Ratio (y) = 0.36583 0.15539
# Poissons Ratio (z) = 0.20453 0.11609
#
# Static dielectric constant tensor:
#      x y z
#    x 1.710740 0.000000 0.000000 
#    y 0.000000 1.836690 0.000000 
#    z 0.000000 0.000000 1.903870 
# 
# From -- ./inp_files/9133.got.cif
#   From: 2010.05.17/outbox.cif.g08.bks.cpg/sg20_5_cif.got.tgz:9133.got - 2010.06.03 22:52:26.
