data_PCOD9320980
_publ_section_title
;
Structure prediction by ZEFSAII (Michael W. Deem and Ramdas Pophale) SiO2 
 PCOD9320980
Probable space group: C 2 2 21
;
_chemical_formula_sum "Si O2"
_cell_formula_units_Z 32
_cell_length_a 5.171365
_cell_length_b 26.119756
_cell_length_c 9.884853
_cell_angle_alpha 90.000000
_cell_angle_beta 90.000000
_cell_angle_gamma 90.000000
_cell_volume 1335.194463
_symmetry_space_group_name_H-M "C 2 2 21"
_symmetry_group_IT_number 20
_symmetry_cell_setting 'orthorhombic'
loop_
_space_group_symop_operation_xyz
x,y,z
-x,-y,1/2+z
x,-y,-z
-x,y,1/2-z
1/2+x,1/2+y,z
1/2-x,1/2-y,1/2+z
1/2+x,1/2-y,-z
1/2-x,1/2+y,1/2-z
loop_
_atom_site_type_symbol
_atom_site_label
_atom_site_fract_x
_atom_site_fract_y
_atom_site_fract_z
Si Si1 0.500000 0.326755 0.250000
Si Si2 0.853145 0.721631 0.949776
Si Si3 0.606926 0.960814 0.610061
Si Si4 0.000000 0.117061 0.250000
Si Si5 0.198714 0.630418 0.003701
O O1 0.276932 0.289956 0.306365
O O2 0.626250 0.359865 0.371527
O O3 0.614039 0.745695 0.032724
O O4 0.945096 0.665158 0.993480
O O5 0.500000 0.985179 0.750000
O O6 0.385411 0.927748 0.533591
O O7 0.812736 0.919891 0.664221
O O8 0.712507 0.000000 0.500000
O O9 0.840618 0.148262 0.140438
#
# Coordination Sequence:
#
# PCOD9320980 Si02
#       5
#     4   8   8   4   8
#     4  12  26  52  77 114 146 206 252 319 380 450
#     4  12  27  51  74 113 153 198 255 315 374 449
#     4  10  24  46  72 108 149 198 251 312 379 453
#     4  10  24  48  73 108 154 202 244 311 392 442
#     4  11  25  50  75 112 153 195 255 313 383 453
#
# _framework density 23.966546000000001
#
# number of rings (size 3 to 8) (size 9 to 14) (size 15 to 20)
#    0.000    1.000    2.500    2.250    0.000    8.000 
#   15.750    2.500    0.000    0.000    0.000    0.000 
#    0.000    0.000    0.000    0.000    0.000    0.000 
#
# Total GULP energy -89472.303867 kJ/mol
# GULP energy per Si atom -5592.018992 kJ/mol
# Density = 2.391200 g / cm^3
# Si number density = 23.966546 Si / 1000 Ang^3
#
#
#
# Elastic Constant Matrix: (Units=GPa)
#
#
# Indices 1 2 3 4 5 6 
#
# 1 143.3212 14.1818 81.6819 0.0000 0.0000 0.0000
# 2 14.1818 39.5778 62.8148 0.0000 0.0000 0.0000
# 3 81.6819 62.8148 186.7167 0.0000 0.0000 0.0000
# 4 0.0000 0.0000 0.0000 45.5892 0.0000 0.0000
# 5 0.0000 0.0000 0.0000 0.0000 65.3692 0.0000
# 6 0.0000 0.0000 0.0000 0.0000 0.0000 12.0046
#
#
#
# Elastic Compliance Matrix: (Units=1/GPa)
#
#
# Indices 1 2 3 4 5 6 
#
# 1 0.010204 0.007356 -0.006938 0.000000 0.000000 0.000000
# 2 0.007356 0.059516 -0.023240 0.000000 0.000000 0.000000
# 3 -0.006938 -0.023240 0.016209 0.000000 0.000000 0.000000
# 4 0.000000 0.000000 0.000000 0.021935 0.000000 0.000000
# 5 0.000000 0.000000 0.000000 0.000000 0.015298 0.000000
# 6 0.000000 0.000000 0.000000 0.000000 0.000000 0.083302
#
#
# Mechanical properties :
#
#
# Convention : Reuss Voigt Hill
#
# Bulk Modulus (GPa) = 24.82389 76.33030 50.57710
# Shear Modulus (GPa) = 18.82976 38.65506 28.74241
#
# Velocity S-wave (km/s) = 2.80602 4.02042 3.46681
# Velocity P-wave (km/s) = 4.56930 7.31229 6.09705
#
# Compressibility (1/GPa) = 0.04028378
#
# Stress axis : x y z
#
# Youngs Moduli (GPa) = 98.00211 16.80222 61.69235
#
# Poissons Ratio (x) = -0.12360 0.42805
# Poissons Ratio (y) = -0.72090 1.43374
# Poissons Ratio (z) = 0.67999 0.39049
#
# Static dielectric constant tensor:
#      x y z
#    x 2.040440 0.000000 0.000000 
#    y 0.000000 1.911540 0.000000 
#    z 0.000000 0.000000 1.945320 
# 
# From -- ./inp_files/5266.got.cif
#   From: 2010.05.17/outbox.cif.g08.bks.cpg/sg20_3_cif.got.tgz:5266.got - 2010.06.03 22:52:26.
