data_PCOD9320410
_publ_section_title
;
Structure prediction by ZEFSAII (Michael W. Deem and Ramdas Pophale) SiO2 
 PCOD9320410
Probable space group: C 2 2 21
;
_chemical_formula_sum "Si O2"
_cell_formula_units_Z 40
_cell_length_a 8.804257
_cell_length_b 22.227065
_cell_length_c 9.347573
_cell_angle_alpha 90.000000
_cell_angle_beta 90.000000
_cell_angle_gamma 90.000000
_cell_volume 1829.252665
_symmetry_space_group_name_H-M "C 2 2 21"
_symmetry_group_IT_number 20
_symmetry_cell_setting 'orthorhombic'
loop_
_space_group_symop_operation_xyz
x,y,z
-x,-y,1/2+z
x,-y,-z
-x,y,1/2-z
1/2+x,1/2+y,z
1/2-x,1/2-y,1/2+z
1/2+x,1/2-y,-z
1/2-x,1/2+y,1/2-z
loop_
_atom_site_type_symbol
_atom_site_label
_atom_site_fract_x
_atom_site_fract_y
_atom_site_fract_z
Si Si1 0.298441 0.409254 0.882183
Si Si2 0.398946 0.882391 0.373481
Si Si3 0.153680 0.935998 0.930457
Si Si4 0.396508 0.200285 0.388753
Si Si5 0.654206 0.336764 0.163926
O O1 0.471940 0.426243 0.910029
O O2 0.265248 0.432680 0.723281
O O3 0.260499 0.337579 0.874550
O O4 0.191960 0.425859 0.017576
O O5 0.500000 0.911525 0.250000
O O6 0.476682 0.833798 0.478995
O O7 0.280223 0.841627 0.285842
O O8 0.193897 0.884123 0.041652
O O9 0.182231 0.000000 0.000000
O O10 0.500000 0.191528 0.250000
O O11 0.367183 0.270691 0.401414
O O12 0.500000 0.353492 0.250000
#
# Coordination Sequence:
#
# PCOD9320410 Si02
#       5
#     8   8   8   8   8
#     4   9  23  41  62 101 135 175 229 288 353 410
#     4  10  23  37  62  99 139 177 222 287 351 426
#     4  11  24  42  72  98 133 181 235 302 336 416
#     4   9  22  40  62  96 140 177 219 288 355 432
#     4  11  22  40  65 101 133 177 241 285 355 412
#
# _framework density 21.866854
#
# number of rings (size 3 to 8) (size 9 to 14) (size 15 to 20)
#    1.200    0.800    2.000    0.000    8.400    3.200 
#    0.000    0.000    0.000    9.600    0.000    0.000 
#    0.000    0.000    0.000    0.000    0.000    0.000 
#
# Total GULP energy -111476.469427 kJ/mol
# GULP energy per Si atom -5573.823471 kJ/mol
# Density = 2.181708 g / cm^3
# Si number density = 21.866854 Si / 1000 Ang^3
#
#
#
# Elastic Constant Matrix: (Units=GPa)
#
#
# Indices 1 2 3 4 5 6 
#
# 1 43.5715 11.7726 39.7406 0.0000 0.0000 0.0000
# 2 11.7726 64.8113 68.4532 0.0000 0.0000 0.0000
# 3 39.7406 68.4532 189.7527 0.0000 0.0000 0.0000
# 4 0.0000 0.0000 0.0000 12.0908 0.0000 0.0000
# 5 0.0000 0.0000 0.0000 0.0000 42.2953 0.0000
# 6 0.0000 0.0000 0.0000 0.0000 0.0000 366.9719
#
#
#
# Elastic Compliance Matrix: (Units=1/GPa)
#
#
# Indices 1 2 3 4 5 6 
#
# 1 0.028502 0.001822 -0.006627 0.000000 0.000000 0.000000
# 2 0.001822 0.025044 -0.009416 0.000000 0.000000 0.000000
# 3 -0.006627 -0.009416 0.010055 0.000000 0.000000 0.000000
# 4 0.000000 0.000000 0.000000 0.082708 0.000000 0.000000
# 5 0.000000 0.000000 0.000000 0.000000 0.023643 0.000000
# 6 0.000000 0.000000 0.000000 0.000000 0.000000 0.002725
#
#
# Mechanical properties :
#
#
# Convention : Reuss Voigt Hill
#
# Bulk Modulus (GPa) = 28.44228 59.78537 44.11383
# Shear Modulus (GPa) = 23.49203 96.14953 59.82078
#
# Velocity S-wave (km/s) = 3.28124 6.63822 5.23605
# Velocity P-wave (km/s) = 5.23361 9.28195 7.53476
#
# Compressibility (1/GPa) = 0.03515892
#
# Stress axis : x y z
#
# Youngs Moduli (GPa) = 35.08467 39.93029 99.45653
#
# Poissons Ratio (x) = -0.07274 0.65905
# Poissons Ratio (y) = -0.06391 0.93648
# Poissons Ratio (z) = 0.23249 0.37598
#
# Static dielectric constant tensor:
#      x y z
#    x 1.913270 0.000000 0.000000 
#    y 0.000000 1.739910 0.000000 
#    z 0.000000 0.000000 1.674010 
# 
# From -- ./inp_files/6282.got.cif
#   From: 2010.05.17/outbox.cif.g08.bks.cpg/sg20_4_cif.got.tgz:6282.got - 2010.06.03 22:52:26.
