data_PCOD9320287
_publ_section_title
;
Structure prediction by ZEFSAII (Michael W. Deem and Ramdas Pophale) SiO2 
 PCOD9320287
Probable space group: C 2 2 21
;
_chemical_formula_sum "Si O2"
_cell_formula_units_Z 48
_cell_length_a 13.250949
_cell_length_b 5.254015
_cell_length_c 30.387711
_cell_angle_alpha 90.000000
_cell_angle_beta 90.000000
_cell_angle_gamma 90.000000
_cell_volume 2115.613250
_symmetry_space_group_name_H-M "C 2 2 21"
_symmetry_group_IT_number 20
_symmetry_cell_setting 'orthorhombic'
loop_
_space_group_symop_operation_xyz
x,y,z
-x,-y,1/2+z
x,-y,-z
-x,y,1/2-z
1/2+x,1/2+y,z
1/2-x,1/2-y,1/2+z
1/2+x,1/2-y,-z
1/2-x,1/2+y,1/2-z
loop_
_atom_site_type_symbol
_atom_site_label
_atom_site_fract_x
_atom_site_fract_y
_atom_site_fract_z
Si Si1 0.500000 0.775152 0.250000
Si Si2 0.546824 0.644480 0.458218
Si Si3 0.887374 0.526686 0.331220
Si Si4 0.378686 0.000000 0.500000
Si Si5 0.748443 0.128029 0.548146
Si Si6 0.291171 0.537646 0.225857
Si Si7 0.910531 0.973674 0.614741
O O1 0.447794 0.948698 0.287207
O O2 0.409180 0.607781 0.228783
O O3 0.593659 0.500000 0.500000
O O4 0.452707 0.791588 0.479357
O O5 0.633099 0.825665 0.440191
O O6 0.501026 0.476264 0.419623
O O7 0.767377 0.509820 0.320363
O O8 0.909679 0.807839 0.348644
O O9 0.917786 0.307255 0.365442
O O10 0.310160 0.886859 0.538637
O O11 0.808392 0.989824 0.586340
O O12 0.751359 0.000000 0.500000
O O13 0.233867 0.777274 0.248590
#
# Coordination Sequence:
#
# PCOD9320287 Si02
#       7
#     4   8   8   4   8   8   8
#     4  10  24  50  78 104 136 190 238 290 358 440
#     4  12  25  42  72 101 137 195 247 281 350 424
#     4  11  26  46  74 104 143 187 230 294 365 422
#     4  12  20  44  66  98 134 180 246 292 336 410
#     4  12  25  42  70  96 135 195 233 292 351 415
#     4  10  22  44  73 105 134 176 233 279 341 425
#     4  12  26  47  68 106 152 180 231 307 349 413
#
# _framework density 22.688457
#
# number of rings (size 3 to 8) (size 9 to 14) (size 15 to 20)
#    0.000    0.667    5.000    3.000    0.000    7.333 
#    0.000   11.667    0.000    0.000    0.000    0.000 
#    0.000    0.000    0.000    0.000    0.000    0.000 
#
# Total GULP energy -134257.339560 kJ/mol
# GULP energy per Si atom -5594.055815 kJ/mol
# Density = 2.263682 g / cm^3
# Si number density = 22.688457 Si / 1000 Ang^3
#
#
#
# Elastic Constant Matrix: (Units=GPa)
#
#
# Indices 1 2 3 4 5 6 
#
# 1 115.4364 -2.5978 15.9647 0.0000 0.0000 0.0000
# 2 -2.5978 61.3071 -9.4884 0.0000 0.0000 0.0000
# 3 15.9647 -9.4884 57.6497 0.0000 0.0000 0.0000
# 4 0.0000 0.0000 0.0000 34.0202 0.0000 0.0000
# 5 0.0000 0.0000 0.0000 0.0000 8.8050 0.0000
# 6 0.0000 0.0000 0.0000 0.0000 0.0000 16.2395
#
#
#
# Elastic Compliance Matrix: (Units=1/GPa)
#
#
# Indices 1 2 3 4 5 6 
#
# 1 0.009008 -0.000004 -0.002495 0.000000 0.000000 0.000000
# 2 -0.000004 0.016738 0.002756 0.000000 0.000000 0.000000
# 3 -0.002495 0.002756 0.018491 0.000000 0.000000 0.000000
# 4 0.000000 0.000000 0.000000 0.029394 0.000000 0.000000
# 5 0.000000 0.000000 0.000000 0.000000 0.113572 0.000000
# 6 0.000000 0.000000 0.000000 0.000000 0.000000 0.061578
#
#
# Mechanical properties :
#
#
# Convention : Reuss Voigt Hill
#
# Bulk Modulus (GPa) = 22.34695 26.90560 24.62628
# Shear Modulus (GPa) = 18.99807 27.18059 23.08933
#
# Velocity S-wave (km/s) = 2.89683 3.46496 3.19355
# Velocity P-wave (km/s) = 4.58909 5.28132 4.94733
#
# Compressibility (1/GPa) = 0.04474883
#
# Stress axis : x y z
#
# Youngs Moduli (GPa) = 111.01533 59.74544 54.08111
#
# Poissons Ratio (x) = 0.00027 0.13494
# Poissons Ratio (y) = 0.00050 -0.14905
# Poissons Ratio (z) = 0.27701 -0.16466
#
# Static dielectric constant tensor:
#      x y z
#    x 1.818710 0.000000 0.000000 
#    y 0.000000 1.859880 0.000000 
#    z 0.000000 0.000000 1.870110 
# 
# From -- ./inp_files/31268.got.cif
#   From: 2010.05.17/outbox.cif.g08.bks.cpg/sg20_16_cif.got.tgz:31268.got - 2010.06.03 22:52:26.
