data_PCOD9320342
_publ_section_title
;
Structure prediction by ZEFSAII (Michael W. Deem and Ramdas Pophale) SiO2 
 PCOD9320342
Probable space group: C 2 2 21
;
_chemical_formula_sum "Si O2"
_cell_formula_units_Z 36
_cell_length_a 11.759560
_cell_length_b 6.941795
_cell_length_c 19.867949
_cell_angle_alpha 90.000000
_cell_angle_beta 90.000000
_cell_angle_gamma 90.000000
_cell_volume 1621.869449
_symmetry_space_group_name_H-M "C 2 2 21"
_symmetry_group_IT_number 20
_symmetry_cell_setting 'orthorhombic'
loop_
_space_group_symop_operation_xyz
x,y,z
-x,-y,1/2+z
x,-y,-z
-x,y,1/2-z
1/2+x,1/2+y,z
1/2-x,1/2-y,1/2+z
1/2+x,1/2-y,-z
1/2-x,1/2+y,1/2-z
loop_
_atom_site_type_symbol
_atom_site_label
_atom_site_fract_x
_atom_site_fract_y
_atom_site_fract_z
Si Si1 0.707641 0.863375 0.654040
Si Si2 0.369473 0.536462 0.755863
Si Si3 0.736513 0.948419 0.882474
Si Si4 0.605089 0.500000 0.500000
Si Si5 0.999014 0.630351 0.064929
O O1 0.640462 0.751316 0.713974
O O2 0.798970 0.000281 0.688256
O O3 0.770411 0.684287 0.617169
O O4 0.611947 0.944509 0.604916
O O5 0.500000 0.480981 0.750000
O O6 0.307269 0.412899 0.814566
O O7 0.812848 0.894866 0.946503
O O8 0.610346 0.870236 0.888920
O O9 0.531533 0.654928 0.540448
O O10 0.022209 0.500000 0.000000
#
# Coordination Sequence:
#
# PCOD9320342 Si02
#       5
#     8   8   8   4   8
#     4   9  24  41  65 101 129 177 227 271 344 402
#     4  10  23  42  67  95 135 173 221 277 336 400
#     4   9  22  42  66  96 140 163 232 279 315 420
#     4  10  22  46  64 106 132 174 230 276 328 410
#     4  11  23  45  69  95 143 179 222 288 339 391
#
# _framework density 22.196608999999999
#
# number of rings (size 3 to 8) (size 9 to 14) (size 15 to 20)
#    1.333    0.889    1.111    0.000    3.111    5.333 
#    2.000    0.000    0.000    0.000    0.000    0.000 
#    0.000    0.000    0.000    0.000    0.000    0.000 
#
# Total GULP energy -100461.447264 kJ/mol
# GULP energy per Si atom -5581.191515 kJ/mol
# Density = 2.214609 g / cm^3
# Si number density = 22.196609 Si / 1000 Ang^3
#
#
#
# Elastic Constant Matrix: (Units=GPa)
#
#
# Indices 1 2 3 4 5 6 
#
# 1 152.5544 35.0465 56.2374 0.0000 0.0000 0.0000
# 2 35.0465 44.0303 14.0437 0.0000 0.0000 0.0000
# 3 56.2374 14.0437 81.5251 0.0000 0.0000 0.0000
# 4 0.0000 0.0000 0.0000 33.2504 0.0000 0.0000
# 5 0.0000 0.0000 0.0000 0.0000 41.1445 0.0000
# 6 0.0000 0.0000 0.0000 0.0000 0.0000 26.9029
#
#
#
# Elastic Compliance Matrix: (Units=1/GPa)
#
#
# Indices 1 2 3 4 5 6 
#
# 1 0.010172 -0.006199 -0.005949 0.000000 0.000000 0.000000
# 2 -0.006199 0.027810 -0.000514 0.000000 0.000000 0.000000
# 3 -0.005949 -0.000514 0.016459 0.000000 0.000000 0.000000
# 4 0.000000 0.000000 0.000000 0.030075 0.000000 0.000000
# 5 0.000000 0.000000 0.000000 0.000000 0.024305 0.000000
# 6 0.000000 0.000000 0.000000 0.000000 0.000000 0.037171
#
#
# Mechanical properties :
#
#
# Convention : Reuss Voigt Hill
#
# Bulk Modulus (GPa) = 34.34585 54.30721 44.32653
# Shear Modulus (GPa) = 27.62104 31.77837 29.69971
#
# Velocity S-wave (km/s) = 3.53141 3.78786 3.66188
# Velocity P-wave (km/s) = 5.66876 6.60682 6.15568
#
# Compressibility (1/GPa) = 0.02911560
#
# Stress axis : x y z
#
# Youngs Moduli (GPa) = 98.30643 35.95825 60.75874
#
# Poissons Ratio (x) = 0.22291 0.36146
# Poissons Ratio (y) = 0.60943 0.03125
# Poissons Ratio (z) = 0.58484 0.01849
#
# Static dielectric constant tensor:
#      x y z
#    x 1.754370 0.000000 0.000000 
#    y 0.000000 1.878670 0.000000 
#    z 0.000000 0.000000 1.858930 
# 
# From -- ./inp_files/27046.got.cif
#   From: 2010.05.17/outbox.cif.g08.bks.cpg/sg20_14_cif.got.tgz:27046.got - 2010.06.03 22:52:26.
