data_PCOD9320943
_publ_section_title
;
Structure prediction by ZEFSAII (Michael W. Deem and Ramdas Pophale) SiO2 
 PCOD9320943
Probable space group: C 2 2 21
;
_chemical_formula_sum "Si O2"
_cell_formula_units_Z 32
_cell_length_a 9.399116
_cell_length_b 10.179281
_cell_length_c 14.850604
_cell_angle_alpha 90.000000
_cell_angle_beta 90.000000
_cell_angle_gamma 90.000000
_cell_volume 1420.849996
_symmetry_space_group_name_H-M "C 2 2 21"
_symmetry_group_IT_number 20
_symmetry_cell_setting 'orthorhombic'
loop_
_space_group_symop_operation_xyz
x,y,z
-x,-y,1/2+z
x,-y,-z
-x,y,1/2-z
1/2+x,1/2+y,z
1/2-x,1/2-y,1/2+z
1/2+x,1/2-y,-z
1/2-x,1/2+y,1/2-z
loop_
_atom_site_type_symbol
_atom_site_label
_atom_site_fract_x
_atom_site_fract_y
_atom_site_fract_z
Si Si1 0.459320 0.722814 0.098535
Si Si2 0.660647 0.005955 0.393805
Si Si3 0.287157 0.274762 0.079564
Si Si4 0.643728 0.513728 0.720443
O O1 0.626955 0.715330 0.074976
O O2 0.405223 0.624650 0.176278
O O3 0.434644 0.877043 0.118617
O O4 0.357077 0.686893 0.014843
O O5 0.609211 0.156346 0.386857
O O6 0.706723 0.000000 0.500000
O O7 0.769727 0.998019 0.311839
O O8 0.282263 0.396674 0.146309
O O9 0.500000 0.585510 0.750000
#
# Coordination Sequence:
#
# PCOD9320943 Si02
#       4
#     8   8   8   8
#     4  11  26  48  72 107 146 188 243 295 358 426
#     4  10  24  45  70  99 147 184 236 295 349 419
#     4  11  26  47  72 106 142 192 235 299 356 429
#     4  12  25  43  74 104 143 189 237 290 364 426
#
# _framework density 22.521728
#
# number of rings (size 3 to 8) (size 9 to 14) (size 15 to 20)
#    0.000    1.000    2.500    2.250    7.000    6.000 
#    4.500    0.000    0.000    0.000    0.000    0.000 
#    0.000    0.000    0.000    0.000    0.000    0.000 
#
# Total GULP energy -89191.257117 kJ/mol
# GULP energy per Si atom -5574.453570 kJ/mol
# Density = 2.247047 g / cm^3
# Si number density = 22.521728 Si / 1000 Ang^3
#
#
#
# Elastic Constant Matrix: (Units=GPa)
#
#
# Indices 1 2 3 4 5 6 
#
# 1 74.5335 34.5343 44.9390 0.0000 0.0000 0.0000
# 2 34.5343 134.7358 55.3817 0.0000 0.0000 0.0000
# 3 44.9390 55.3817 105.3945 0.0000 0.0000 0.0000
# 4 0.0000 0.0000 0.0000 21.9107 0.0000 0.0000
# 5 0.0000 0.0000 0.0000 0.0000 32.9439 0.0000
# 6 0.0000 0.0000 0.0000 0.0000 0.0000 28.7515
#
#
#
# Elastic Compliance Matrix: (Units=1/GPa)
#
#
# Indices 1 2 3 4 5 6 
#
# 1 0.018436 -0.001906 -0.006859 0.000000 0.000000 0.000000
# 2 -0.001906 0.009664 -0.004265 0.000000 0.000000 0.000000
# 3 -0.006859 -0.004265 0.014654 0.000000 0.000000 0.000000
# 4 0.000000 0.000000 0.000000 0.045640 0.000000 0.000000
# 5 0.000000 0.000000 0.000000 0.000000 0.030355 0.000000
# 6 0.000000 0.000000 0.000000 0.000000 0.000000 0.034781
#
#
# Mechanical properties :
#
#
# Convention : Reuss Voigt Hill
#
# Bulk Modulus (GPa) = 59.90703 64.93044 62.41873
# Shear Modulus (GPa) = 27.00459 28.70846 27.85653
#
# Velocity S-wave (km/s) = 3.46648 3.57417 3.52074
# Velocity P-wave (km/s) = 6.53295 6.77684 6.65601
#
# Compressibility (1/GPa) = 0.01669253
#
# Stress axis : x y z
#
# Youngs Moduli (GPa) = 54.24308 103.48077 68.23988
#
# Poissons Ratio (x) = 0.19721 0.46808
# Poissons Ratio (y) = 0.10338 0.29107
# Poissons Ratio (z) = 0.37207 0.44138
#
# Static dielectric constant tensor:
#      x y z
#    x 1.845960 0.000000 0.000000 
#    y 0.000000 1.877860 0.000000 
#    z 0.000000 0.000000 2.147480 
# 
# From -- ./inp_files/18191.got.cif
#   From: 2010.05.17/outbox.cif.g08.bks.cpg/sg20_10_cif.got.tgz:18191.got - 2010.06.03 22:52:26.
