data_PCOD9320577
_publ_section_title
;
Structure prediction by ZEFSAII (Michael W. Deem and Ramdas Pophale) SiO2 
 PCOD9320577
Probable space group: C 2 2 21
;
_chemical_formula_sum "Si O2"
_cell_formula_units_Z 40
_cell_length_a 15.002092
_cell_length_b 7.367901
_cell_length_c 17.031925
_cell_angle_alpha 90.000000
_cell_angle_beta 90.000000
_cell_angle_gamma 90.000000
_cell_volume 1882.605583
_symmetry_space_group_name_H-M "C 2 2 21"
_symmetry_group_IT_number 20
_symmetry_cell_setting 'orthorhombic'
loop_
_space_group_symop_operation_xyz
x,y,z
-x,-y,1/2+z
x,-y,-z
-x,y,1/2-z
1/2+x,1/2+y,z
1/2-x,1/2-y,1/2+z
1/2+x,1/2-y,-z
1/2-x,1/2+y,1/2-z
loop_
_atom_site_type_symbol
_atom_site_label
_atom_site_fract_x
_atom_site_fract_y
_atom_site_fract_z
Si Si1 0.824674 0.964226 0.815141
Si Si2 0.192874 0.853695 0.160214
Si Si3 0.778448 0.323396 0.914731
Si Si4 0.580312 0.695724 0.459581
Si Si5 0.886776 0.294544 0.503908
O O1 0.740072 0.829666 0.808708
O O2 0.892292 0.853542 0.870862
O O3 0.853755 0.032789 0.729556
O O4 0.798278 0.149096 0.860836
O O5 0.128012 0.788998 0.090211
O O6 0.273208 0.986169 0.130345
O O7 0.844186 0.297463 0.988887
O O8 0.678288 0.313050 0.947080
O O9 0.569937 0.500000 0.500000
O O10 0.486464 0.792212 0.471943
O O11 0.851785 0.500000 0.500000
#
# Coordination Sequence:
#
# PCOD9320577 Si02
#       5
#     8   8   8   8   8
#     4  11  23  42  70 103 141 182 230 288 364 420
#     4  12  23  42  72 102 140 188 225 295 363 410
#     4  11  22  43  70 100 136 183 235 289 351 415
#     4  10  23  43  66 103 136 181 239 288 340 421
#     4  12  24  41  70 106 138 186 249 285 341 425
#
# _framework density 21.247149
#
# number of rings (size 3 to 8) (size 9 to 14) (size 15 to 20)
#    0.000    0.800    6.000    2.400    2.800    0.000 
#    0.000    9.000    0.000    7.200    0.000    0.000 
#    0.000    0.000    0.000    0.000    0.000    0.000 
#
# Total GULP energy -111666.330286 kJ/mol
# GULP energy per Si atom -5583.316514 kJ/mol
# Density = 2.119879 g / cm^3
# Si number density = 21.247149 Si / 1000 Ang^3
#
#
#
# Elastic Constant Matrix: (Units=GPa)
#
#
# Indices 1 2 3 4 5 6 
#
# 1 64.7136 3.3968 27.1254 0.0000 0.0000 0.0000
# 2 3.3968 118.7678 39.9960 0.0000 0.0000 0.0000
# 3 27.1254 39.9960 136.8259 0.0000 0.0000 0.0000
# 4 0.0000 0.0000 0.0000 46.6085 0.0000 0.0000
# 5 0.0000 0.0000 0.0000 0.0000 15.3140 0.0000
# 6 0.0000 0.0000 0.0000 0.0000 0.0000 20.3536
#
#
#
# Elastic Compliance Matrix: (Units=1/GPa)
#
#
# Indices 1 2 3 4 5 6 
#
# 1 0.016908 0.000716 -0.003561 0.000000 0.000000 0.000000
# 2 0.000716 0.009369 -0.002881 0.000000 0.000000 0.000000
# 3 -0.003561 -0.002881 0.008857 0.000000 0.000000 0.000000
# 4 0.000000 0.000000 0.000000 0.021455 0.000000 0.000000
# 5 0.000000 0.000000 0.000000 0.000000 0.065300 0.000000
# 6 0.000000 0.000000 0.000000 0.000000 0.000000 0.049131
#
#
# Mechanical properties :
#
#
# Convention : Reuss Voigt Hill
#
# Bulk Modulus (GPa) = 42.22695 51.26040 46.74368
# Shear Modulus (GPa) = 26.26511 33.10782 29.68646
#
# Velocity S-wave (km/s) = 3.51974 3.95172 3.74197
# Velocity P-wave (km/s) = 6.03617 6.70817 6.38102
#
# Compressibility (1/GPa) = 0.02368156
#
# Stress axis : x y z
#
# Youngs Moduli (GPa) = 59.14419 106.73019 112.91003
#
# Poissons Ratio (x) = -0.07638 0.40209
# Poissons Ratio (y) = -0.04233 0.32526
# Poissons Ratio (z) = 0.21062 0.30746
#
# Static dielectric constant tensor:
#      x y z
#    x 1.757800 0.000000 0.000000 
#    y 0.000000 1.762580 0.000000 
#    z 0.000000 0.000000 1.807180 
# 
# From -- ./inp_files/24685.got.cif
#   From: 2010.05.17/outbox.cif.g08.bks.cpg/sg20_13_cif.got.tgz:24685.got - 2010.06.03 22:52:26.
