data_PCOD9320348
_publ_section_title
;
Structure prediction by ZEFSAII (Michael W. Deem and Ramdas Pophale) SiO2 
 PCOD9320348
Probable space group: C 2 2 21
;
_chemical_formula_sum "Si O2"
_cell_formula_units_Z 56
_cell_length_a 12.635027
_cell_length_b 15.213253
_cell_length_c 13.120022
_cell_angle_alpha 90.000000
_cell_angle_beta 90.000000
_cell_angle_gamma 90.000000
_cell_volume 2521.928824
_symmetry_space_group_name_H-M "C 2 2 21"
_symmetry_group_IT_number 20
_symmetry_cell_setting 'orthorhombic'
loop_
_space_group_symop_operation_xyz
x,y,z
-x,-y,1/2+z
x,-y,-z
-x,y,1/2-z
1/2+x,1/2+y,z
1/2-x,1/2-y,1/2+z
1/2+x,1/2-y,-z
1/2-x,1/2+y,1/2-z
loop_
_atom_site_type_symbol
_atom_site_label
_atom_site_fract_x
_atom_site_fract_y
_atom_site_fract_z
Si Si1 0.000000 0.026469 0.250000
Si Si2 0.000000 0.273488 0.750000
Si Si3 0.316083 0.043291 0.600464
Si Si4 0.291125 0.858956 0.685689
Si Si5 0.851568 0.867930 0.209857
Si Si6 0.630686 0.666438 0.127947
Si Si7 0.995614 0.344520 0.129123
Si Si8 0.254456 0.191295 0.921643
O O1 0.946157 0.087088 0.336091
O O2 0.912554 0.959987 0.206263
O O3 0.912518 0.330226 0.696112
O O4 0.933608 0.207555 0.821665
O O5 0.249981 0.125258 0.640194
O O6 0.433196 0.079052 0.580202
O O7 0.270352 0.000000 0.500000
O O8 0.300598 0.963621 0.679219
O O9 0.216668 0.830085 0.779904
O O10 0.249339 0.797767 0.593086
O O11 0.810951 0.846021 0.323861
O O12 0.555253 0.751301 0.118206
O O13 0.696544 0.659414 0.023584
O O14 0.875984 0.338740 0.089402
O O15 0.000000 0.363916 0.250000
#
# Coordination Sequence:
#
# PCOD9320348 Si02
#       8
#     4   4   8   8   8   8   8   8
#     4  11  22  46  69 102 138 188 243 302 360 427
#     4   9  22  40  69  92 138 184 221 296 364 407
#     4  12  26  45  69 104 144 190 243 298 372 440
#     4  11  23  44  67 105 144 185 245 301 357 443
#     4  10  22  46  67 101 147 182 238 303 363 429
#     4  12  24  45  78 106 141 200 256 297 371 457
#     4  12  23  48  77 101 151 194 234 312 382 430
#     4  11  25  45  75 107 143 195 247 302 370 452
#
# _framework density 22.205227000000001
#
# number of rings (size 3 to 8) (size 9 to 14) (size 15 to 20)
#    0.000    0.857    5.000    1.714    1.000    4.000 
#   10.286    0.000    0.000    0.000    0.000    0.000 
#    0.000    0.000    0.000    0.000    0.000    0.000 
#
# Total GULP energy -156440.582729 kJ/mol
# GULP energy per Si atom -5587.163669 kJ/mol
# Density = 2.215469 g / cm^3
# Si number density = 22.205227 Si / 1000 Ang^3
#
#
#
# Elastic Constant Matrix: (Units=GPa)
#
#
# Indices 1 2 3 4 5 6 
#
# 1 145.5209 39.5202 22.3013 0.0000 0.0000 0.0000
# 2 39.5202 61.1266 -2.9065 0.0000 0.0000 0.0000
# 3 22.3013 -2.9065 76.3282 0.0000 0.0000 0.0000
# 4 0.0000 0.0000 0.0000 19.0496 0.0000 0.0000
# 5 0.0000 0.0000 0.0000 0.0000 26.9058 0.0000
# 6 0.0000 0.0000 0.0000 0.0000 0.0000 15.8133
#
#
#
# Elastic Compliance Matrix: (Units=1/GPa)
#
#
# Indices 1 2 3 4 5 6 
#
# 1 0.008905 -0.005892 -0.002826 0.000000 0.000000 0.000000
# 2 -0.005892 0.020287 0.002494 0.000000 0.000000 0.000000
# 3 -0.002826 0.002494 0.014022 0.000000 0.000000 0.000000
# 4 0.000000 0.000000 0.000000 0.052495 0.000000 0.000000
# 5 0.000000 0.000000 0.000000 0.000000 0.037167 0.000000
# 6 0.000000 0.000000 0.000000 0.000000 0.000000 0.063238
#
#
# Mechanical properties :
#
#
# Convention : Reuss Voigt Hill
#
# Bulk Modulus (GPa) = 32.50304 44.53395 38.51850
# Shear Modulus (GPa) = 22.85013 27.29111 25.07062
#
# Velocity S-wave (km/s) = 3.21135 3.50957 3.36377
# Velocity P-wave (km/s) = 5.33101 6.04334 5.69832
#
# Compressibility (1/GPa) = 0.03076635
#
# Stress axis : x y z
#
# Youngs Moduli (GPa) = 112.29573 49.29197 71.31636
#
# Poissons Ratio (x) = 0.29042 0.20155
# Poissons Ratio (y) = 0.66162 -0.17786
# Poissons Ratio (z) = 0.31737 -0.12293
#
# Static dielectric constant tensor:
#      x y z
#    x 1.843850 0.000000 0.000000 
#    y 0.000000 1.858860 0.000000 
#    z 0.000000 0.000000 1.854560 
# 
# From -- ./inp_files/20092.got.cif
#   From: 2010.05.17/outbox.cif.g08.bks.cpg/sg20_11_cif.got.tgz:20092.got - 2010.06.03 22:52:26.
