data_PCOD9320081
_publ_section_title
;
Structure prediction by ZEFSAII (Michael W. Deem and Ramdas Pophale) SiO2 
 PCOD9320081
Probable space group: C 2 2 21
;
_chemical_formula_sum "Si O2"
_cell_formula_units_Z 48
_cell_length_a 5.170003
_cell_length_b 28.166108
_cell_length_c 15.040581
_cell_angle_alpha 90.000000
_cell_angle_beta 90.000000
_cell_angle_gamma 90.000000
_cell_volume 2190.192302
_symmetry_space_group_name_H-M "C 2 2 21"
_symmetry_group_IT_number 20
_symmetry_cell_setting 'orthorhombic'
loop_
_space_group_symop_operation_xyz
x,y,z
-x,-y,1/2+z
x,-y,-z
-x,y,1/2-z
1/2+x,1/2+y,z
1/2-x,1/2-y,1/2+z
1/2+x,1/2-y,-z
1/2-x,1/2+y,1/2-z
loop_
_atom_site_type_symbol
_atom_site_label
_atom_site_fract_x
_atom_site_fract_y
_atom_site_fract_z
Si Si1 0.718776 0.637272 0.997628
Si Si2 0.019294 0.232848 0.546150
Si Si3 0.083243 0.009216 0.601661
Si Si4 0.079685 0.431814 0.350777
Si Si5 0.575555 0.182703 0.148309
Si Si6 0.068952 0.093781 0.353032
O O1 0.523295 0.676554 0.957633
O O2 0.851973 0.612361 0.914106
O O3 0.625337 0.595310 0.063529
O O4 0.885715 0.666587 0.069384
O O5 0.819539 0.255280 0.472752
O O6 0.910686 0.260943 0.632120
O O7 0.325837 0.044072 0.607767
O O8 0.829512 0.032471 0.648108
O O9 0.013319 0.000000 0.500000
O O10 0.186328 0.958719 0.639501
O O11 0.000000 0.419498 0.250000
O O12 0.500000 0.174143 0.250000
O O13 0.802721 0.145329 0.132563
O O14 0.000000 0.096243 0.250000
#
# Coordination Sequence:
#
# PCOD9320081 Si02
#       6
#     8   8   8   8   8   8
#     4  11  24  44  69  97 140 189 233 288 355 421
#     4  10  22  42  67  96 135 181 225 279 348 415
#     4  12  26  46  72  99 141 185 238 294 361 415
#     4  12  27  48  68 103 142 192 240 293 344 428
#     4  11  23  41  68 104 140 177 230 298 353 422
#     4  12  23  40  67 103 135 180 232 293 357 422
#
# _framework density 21.915884999999999
#
# number of rings (size 3 to 8) (size 9 to 14) (size 15 to 20)
#    0.000    0.667    5.000    3.000    2.333    0.667 
#    0.000    9.167    0.000    0.000    0.000    0.000 
#    0.000    0.000    0.000    0.000    0.000    0.000 
#
# Total GULP energy -133626.681790 kJ/mol
# GULP energy per Si atom -5567.778408 kJ/mol
# Density = 2.186600 g / cm^3
# Si number density = 21.915885 Si / 1000 Ang^3
#
#
#
# Elastic Constant Matrix: (Units=GPa)
#
#
# Indices 1 2 3 4 5 6 
#
# 1 60.5878 14.1003 16.7187 0.0000 0.0000 0.0000
# 2 14.1003 93.7206 43.1177 0.0000 0.0000 0.0000
# 3 16.7187 43.1177 119.9121 0.0000 0.0000 0.0000
# 4 0.0000 0.0000 0.0000 43.9601 0.0000 0.0000
# 5 0.0000 0.0000 0.0000 0.0000 18.6958 0.0000
# 6 0.0000 0.0000 0.0000 0.0000 0.0000 -116.6212
#
#
#
# Elastic Compliance Matrix: (Units=1/GPa)
#
#
# Indices 1 2 3 4 5 6 
#
# 1 0.017415 -0.001801 -0.001781 0.000000 0.000000 0.000000
# 2 -0.001801 0.012971 -0.004413 0.000000 0.000000 0.000000
# 3 -0.001781 -0.004413 0.010175 0.000000 0.000000 0.000000
# 4 0.000000 0.000000 0.000000 0.022748 0.000000 0.000000
# 5 0.000000 0.000000 0.000000 0.000000 0.053488 0.000000
# 6 0.000000 0.000000 0.000000 0.000000 0.000000 -0.008575
#
#
# Mechanical properties :
#
#
# Convention : Reuss Voigt Hill
#
# Bulk Modulus (GPa) = 40.69667 46.89932 43.79800
# Shear Modulus (GPa) = 37.76370 2.55918 20.16144
#
# Velocity S-wave (km/s) = 4.15555 1.08179 3.03635
# Velocity P-wave (km/s) = 6.45249 4.79651 5.68512
#
# Compressibility (1/GPa) = 0.02457203
#
# Stress axis : x y z
#
# Youngs Moduli (GPa) = 57.42029 77.09333 98.28446
#
# Poissons Ratio (x) = 0.13884 0.17500
# Poissons Ratio (y) = 0.10341 0.43374
# Poissons Ratio (z) = 0.10224 0.34022
#
# Static dielectric constant tensor:
#      x y z
#    x 1.884320 0.000000 0.000000 
#    y 0.000000 2.004450 0.000000 
#    z 0.000000 0.000000 2.021870 
# 
# From -- ./inp_files/17792.got.cif
#   From: 2010.05.17/outbox.cif.g08.bks.cpg/sg20_9_cif.got.tgz:17792.got - 2010.06.03 22:52:26.
