data_PCOD9320006
_publ_section_title
;
Structure prediction by ZEFSAII (Michael W. Deem and Ramdas Pophale) SiO2 
 PCOD9320006
Probable space group: C 2 2 21
;
_chemical_formula_sum "Si O2"
_cell_formula_units_Z 48
_cell_length_a 13.635924
_cell_length_b 13.026054
_cell_length_c 12.159100
_cell_angle_alpha 90.000000
_cell_angle_beta 90.000000
_cell_angle_gamma 90.000000
_cell_volume 2159.727093
_symmetry_space_group_name_H-M "C 2 2 21"
_symmetry_group_IT_number 20
_symmetry_cell_setting 'orthorhombic'
loop_
_space_group_symop_operation_xyz
x,y,z
-x,-y,1/2+z
x,-y,-z
-x,y,1/2-z
1/2+x,1/2+y,z
1/2-x,1/2-y,1/2+z
1/2+x,1/2-y,-z
1/2-x,1/2+y,1/2-z
loop_
_atom_site_type_symbol
_atom_site_label
_atom_site_fract_x
_atom_site_fract_y
_atom_site_fract_z
Si Si1 0.509481 0.382559 0.520217
Si Si2 0.614018 0.118150 0.288628
Si Si3 0.084858 0.500000 0.000000
Si Si4 0.500000 0.260958 0.750000
Si Si5 0.695454 0.301419 0.414170
Si Si6 0.884975 0.708694 0.435342
Si Si7 0.331641 0.090011 0.725540
O O1 0.481471 0.500000 0.500000
O O2 0.495365 0.332607 0.641408
O O3 0.622735 0.368197 0.487333
O O4 0.446809 0.311344 0.437651
O O5 0.500000 0.111545 0.250000
O O6 0.642937 0.195800 0.383791
O O7 0.658707 0.173874 0.180466
O O8 0.653852 0.003551 0.309747
O O9 0.044357 0.613126 0.025479
O O10 0.141041 0.470328 0.111760
O O11 0.407076 0.182446 0.750370
O O12 0.795975 0.281135 0.479354
O O13 0.726847 0.362976 0.303914
#
# Coordination Sequence:
#
# PCOD9320006 Si02
#       7
#     8   8   4   4   8   8   8
#     4  12  28  45  71 101 143 195 235 293 370 435
#     4  11  22  43  74 104 138 188 249 305 358 430
#     4   8  16  38  72  90 132 172 226 292 350 404
#     4  12  24  48  72 102 142 192 242 296 362 434
#     4  11  25  44  67 106 142 189 238 297 366 436
#     4  10  22  44  66  99 142 180 240 296 356 431
#     4  10  22  41  74 105 138 181 240 299 365 424
#
# _framework density 22.22503
#
# number of rings (size 3 to 8) (size 9 to 14) (size 15 to 20)
#    0.000    1.333    5.833    0.000    9.333    1.333 
#    3.000    0.000    0.000    0.000    0.000    0.000 
#    0.000    0.000    0.000    0.000    0.000    0.000 
#
# Total GULP energy -133717.389343 kJ/mol
# GULP energy per Si atom -5571.557889 kJ/mol
# Density = 2.217444 g / cm^3
# Si number density = 22.225030 Si / 1000 Ang^3
#
#
#
# Elastic Constant Matrix: (Units=GPa)
#
#
# Indices 1 2 3 4 5 6 
#
# 1 66.2395 45.0619 -0.4141 0.0000 0.0000 0.0000
# 2 45.0619 206.9610 34.4396 0.0000 0.0000 0.0000
# 3 -0.4141 34.4396 40.5997 0.0000 0.0000 0.0000
# 4 0.0000 0.0000 0.0000 33.8920 0.0000 0.0000
# 5 0.0000 0.0000 0.0000 0.0000 21.6278 0.0000
# 6 0.0000 0.0000 0.0000 0.0000 0.0000 18.3613
#
#
#
# Elastic Compliance Matrix: (Units=1/GPa)
#
#
# Indices 1 2 3 4 5 6 
#
# 1 0.018304 -0.004677 0.004154 0.000000 0.000000 0.000000
# 2 -0.004677 0.006821 -0.005834 0.000000 0.000000 0.000000
# 3 0.004154 -0.005834 0.029622 0.000000 0.000000 0.000000
# 4 0.000000 0.000000 0.000000 0.029505 0.000000 0.000000
# 5 0.000000 0.000000 0.000000 0.000000 0.046237 0.000000
# 6 0.000000 0.000000 0.000000 0.000000 0.000000 0.054462
#
#
# Mechanical properties :
#
#
# Convention : Reuss Voigt Hill
#
# Bulk Modulus (GPa) = 23.79053 52.44169 38.11611
# Shear Modulus (GPa) = 23.62109 30.42375 27.02242
#
# Velocity S-wave (km/s) = 3.26362 3.70387 3.49069
# Velocity P-wave (km/s) = 4.99292 6.47600 5.78221
#
# Compressibility (1/GPa) = 0.04203354
#
# Stress axis : x y z
#
# Youngs Moduli (GPa) = 54.63250 146.60991 33.75919
#
# Poissons Ratio (x) = 0.68563 -0.14023
# Poissons Ratio (y) = 0.25549 0.19694
# Poissons Ratio (z) = -0.22693 0.85527
#
# Static dielectric constant tensor:
#      x y z
#    x 1.854020 0.000000 0.000000 
#    y 0.000000 1.896240 0.000000 
#    z 0.000000 0.000000 1.946780 
# 
# From -- ./inp_files/20692.got.cif
#   From: 2010.05.17/outbox.cif.g08.bks.cpg/sg20_11_cif.got.tgz:20692.got - 2010.06.03 22:52:26.
