data_PCOD9320827
_publ_section_title
;
Structure prediction by ZEFSAII (Michael W. Deem and Ramdas Pophale) SiO2 
 PCOD9320827
Probable space group: C 2 2 21
;
_chemical_formula_sum "Si O2"
_cell_formula_units_Z 48
_cell_length_a 9.130281
_cell_length_b 28.054984
_cell_length_c 7.891355
_cell_angle_alpha 90.000000
_cell_angle_beta 90.000000
_cell_angle_gamma 90.000000
_cell_volume 2021.369694
_symmetry_space_group_name_H-M "C 2 2 21"
_symmetry_group_IT_number 20
_symmetry_cell_setting 'orthorhombic'
loop_
_space_group_symop_operation_xyz
x,y,z
-x,-y,1/2+z
x,-y,-z
-x,y,1/2-z
1/2+x,1/2+y,z
1/2-x,1/2-y,1/2+z
1/2+x,1/2-y,-z
1/2-x,1/2+y,1/2-z
loop_
_atom_site_type_symbol
_atom_site_label
_atom_site_fract_x
_atom_site_fract_y
_atom_site_fract_z
Si Si1 0.500000 0.431029 0.750000
Si Si2 0.166776 0.402783 0.296336
Si Si3 0.233761 0.503800 0.190625
Si Si4 0.759646 0.366823 0.840439
Si Si5 0.339986 0.315681 0.180561
Si Si6 0.000000 0.573809 0.250000
Si Si7 0.337484 0.730149 0.188953
O O1 0.617443 0.466319 0.666029
O O2 0.605470 0.394876 0.849829
O O3 0.252973 0.452231 0.272444
O O4 0.164723 0.380081 0.483207
O O5 0.241969 0.362765 0.181876
O O6 0.000000 0.413653 0.250000
O O7 0.122092 0.534279 0.306857
O O8 0.168796 0.500000 0.000000
O O9 0.871821 0.388098 0.699028
O O10 0.727495 0.312159 0.805134
O O11 0.500000 0.327604 0.250000
O O12 0.265517 0.275832 0.299112
O O13 0.347935 0.292341 0.996485
O O14 0.500000 0.743294 0.250000
#
# Coordination Sequence:
#
# PCOD9320827 Si02
#       7
#     4   8   8   8   8   4   8
#     4  10  26  42  68 104 142 194 238 302 368 424
#     4  12  27  46  72 108 149 197 249 306 373 446
#     4  11  25  42  68 100 146 189 244 295 364 430
#     4  11  25  45  75 105 149 190 246 303 373 439
#     4  12  29  47  79 109 144 190 245 303 374 442
#     4  10  24  42  68 100 140 192 240 290 358 424
#     4  12  26  51  75 108 147 186 239 303 376 452
#
# _framework density 23.746275000000001
#
# number of rings (size 3 to 8) (size 9 to 14) (size 15 to 20)
#    0.000    0.667    1.667    4.500   11.667    1.333 
#    0.000    0.000    0.000    0.000    0.000    0.000 
#    0.000    0.000    0.000    0.000    0.000    0.000 
#
# Total GULP energy -133990.760939 kJ/mol
# GULP energy per Si atom -5582.948372 kJ/mol
# Density = 2.369223 g / cm^3
# Si number density = 23.746275 Si / 1000 Ang^3
#
#
#
# Elastic Constant Matrix: (Units=GPa)
#
#
# Indices 1 2 3 4 5 6 
#
# 1 112.1675 29.6534 -1.3525 0.0000 0.0000 0.0000
# 2 29.6534 105.9052 -15.3579 0.0000 0.0000 0.0000
# 3 -1.3525 -15.3579 75.2501 0.0000 0.0000 0.0000
# 4 0.0000 0.0000 0.0000 16.7899 0.0000 0.0000
# 5 0.0000 0.0000 0.0000 0.0000 23.5759 0.0000
# 6 0.0000 0.0000 0.0000 0.0000 0.0000 -117.4176
#
#
#
# Elastic Compliance Matrix: (Units=1/GPa)
#
#
# Indices 1 2 3 4 5 6 
#
# 1 0.009639 -0.002755 -0.000389 0.000000 0.000000 0.000000
# 2 -0.002755 0.010518 0.002097 0.000000 0.000000 0.000000
# 3 -0.000389 0.002097 0.013710 0.000000 0.000000 0.000000
# 4 0.000000 0.000000 0.000000 0.059559 0.000000 0.000000
# 5 0.000000 0.000000 0.000000 0.000000 0.042416 0.000000
# 6 0.000000 0.000000 0.000000 0.000000 0.000000 -0.008517
#
#
# Mechanical properties :
#
#
# Convention : Reuss Voigt Hill
#
# Bulk Modulus (GPa) = 31.47386 35.46764 33.47075
# Shear Modulus (GPa) = 35.71135 3.28164 19.49649
#
# Velocity S-wave (km/s) = 3.88219 1.17684 2.86848
# Velocity P-wave (km/s) = 5.77738 4.10062 5.00965
#
# Compressibility (1/GPa) = 0.03177240
#
# Stress axis : x y z
#
# Youngs Moduli (GPa) = 103.74558 95.07498 72.93927
#
# Poissons Ratio (x) = 0.26196 0.02838
# Poissons Ratio (y) = 0.28585 -0.15296
# Poissons Ratio (z) = 0.04037 -0.19938
#
# Static dielectric constant tensor:
#      x y z
#    x 1.875460 0.000000 0.000000 
#    y 0.000000 1.871440 0.000000 
#    z 0.000000 0.000000 2.397510 
# 
# From -- ./inp_files/6572.got.cif
#   From: 2010.05.17/outbox.cif.g08.bks.cpg/sg20_4_cif.got.tgz:6572.got - 2010.06.03 22:52:26.
