data_PCOD9320432
_publ_section_title
;
Structure prediction by ZEFSAII (Michael W. Deem and Ramdas Pophale) SiO2 
 PCOD9320432
Probable space group: C 2 2 21
;
_chemical_formula_sum "Si O2"
_cell_formula_units_Z 48
_cell_length_a 11.951238
_cell_length_b 6.788390
_cell_length_c 23.604449
_cell_angle_alpha 90.000000
_cell_angle_beta 90.000000
_cell_angle_gamma 90.000000
_cell_volume 1915.021029
_symmetry_space_group_name_H-M "C 2 2 21"
_symmetry_group_IT_number 20
_symmetry_cell_setting 'orthorhombic'
loop_
_space_group_symop_operation_xyz
x,y,z
-x,-y,1/2+z
x,-y,-z
-x,y,1/2-z
1/2+x,1/2+y,z
1/2-x,1/2-y,1/2+z
1/2+x,1/2-y,-z
1/2-x,1/2+y,1/2-z
loop_
_atom_site_type_symbol
_atom_site_label
_atom_site_fract_x
_atom_site_fract_y
_atom_site_fract_z
Si Si1 0.257521 0.278871 0.078865
Si Si2 0.133573 0.000000 0.000000
Si Si3 0.070334 0.168433 0.170680
Si Si4 0.000689 0.817807 0.105924
Si Si5 0.775733 0.379901 0.650351
Si Si6 0.265250 0.978986 0.232485
Si Si7 0.000000 0.508127 0.250000
O O1 0.383347 0.212066 0.093798
O O2 0.262820 0.514148 0.092096
O O3 0.157367 0.207807 0.119978
O O4 0.214415 0.176501 0.021862
O O5 0.054280 0.095706 0.951932
O O6 0.985438 0.005827 0.147328
O O7 0.147536 0.075664 0.218988
O O8 0.016527 0.358833 0.197624
O O9 0.097745 0.689086 0.135383
O O10 0.726566 0.188412 0.683623
O O11 0.761228 0.546369 0.699333
O O12 0.381953 0.106531 0.234061
#
# Coordination Sequence:
#
# PCOD9320432 Si02
#       7
#     8   4   8   8   8   8   4
#     4  11  23  45  68  94 130 166 222 280 329 397
#     4  10  26  48  66  96 124 160 228 290 338 386
#     4  10  23  40  59  97 134 170 219 257 313 395
#     4  10  25  43  70  93 127 172 216 280 337 386
#     4  11  22  42  63  97 131 172 216 256 319 391
#     4  11  22  38  58  93 135 172 211 252 301 390
#     4  12  20  34  62  84 134 180 198 256 310 364
#
# _framework density 25.064997999999999
#
# number of rings (size 3 to 8) (size 9 to 14) (size 15 to 20)
#    0.000    1.333    3.333    1.000    2.333    3.333 
#    0.000    3.333    0.000    0.000    0.000    0.000 
#    0.000    0.000    0.000    0.000    0.000    0.000 
#
# Total GULP energy -133674.000039 kJ/mol
# GULP energy per Si atom -5569.750002 kJ/mol
# Density = 2.500795 g / cm^3
# Si number density = 25.064998 Si / 1000 Ang^3
#
#
#
# Elastic Constant Matrix: (Units=GPa)
#
#
# Indices 1 2 3 4 5 6 
#
# 1 131.6331 9.5819 24.4559 0.0000 0.0000 0.0000
# 2 9.5819 76.9105 39.3933 0.0000 0.0000 0.0000
# 3 24.4559 39.3933 100.0967 0.0000 0.0000 0.0000
# 4 0.0000 0.0000 0.0000 47.7649 0.0000 0.0000
# 5 0.0000 0.0000 0.0000 0.0000 41.3953 0.0000
# 6 0.0000 0.0000 0.0000 0.0000 0.0000 19.4025
#
#
#
# Elastic Compliance Matrix: (Units=1/GPa)
#
#
# Indices 1 2 3 4 5 6 
#
# 1 0.007958 0.000006 -0.001947 0.000000 0.000000 0.000000
# 2 0.000006 0.016285 -0.006410 0.000000 0.000000 0.000000
# 3 -0.001947 -0.006410 0.012989 0.000000 0.000000 0.000000
# 4 0.000000 0.000000 0.000000 0.020936 0.000000 0.000000
# 5 0.000000 0.000000 0.000000 0.000000 0.024157 0.000000
# 6 0.000000 0.000000 0.000000 0.000000 0.000000 0.051540
#
#
# Mechanical properties :
#
#
# Convention : Reuss Voigt Hill
#
# Bulk Modulus (GPa) = 48.71143 50.61140 49.66141
# Shear Modulus (GPa) = 31.76417 37.39315 34.57866
#
# Velocity S-wave (km/s) = 3.56374 3.86663 3.71827
# Velocity P-wave (km/s) = 6.03406 6.33801 6.18790
#
# Compressibility (1/GPa) = 0.02052906
#
# Stress axis : x y z
#
# Youngs Moduli (GPa) = 125.65793 61.40719 76.99008
#
# Poissons Ratio (x) = -0.00034 0.14986
# Poissons Ratio (y) = -0.00070 0.49353
# Poissons Ratio (z) = 0.24460 0.39364
#
# Static dielectric constant tensor:
#      x y z
#    x 2.004230 0.000000 0.000000 
#    y 0.000000 2.156040 0.000000 
#    z 0.000000 0.000000 2.007830 
# 
# From -- ./inp_files/30271.got.cif
#   From: 2010.05.17/outbox.cif.g08.bks.cpg/sg20_16_cif.got.tgz:30271.got - 2010.06.03 22:52:26.
