data_PCOD9320961
_publ_section_title
;
Structure prediction by ZEFSAII (Michael W. Deem and Ramdas Pophale) SiO2 
 PCOD9320961
Probable space group: C 2 2 21
;
_chemical_formula_sum "Si O2"
_cell_formula_units_Z 40
_cell_length_a 9.881204
_cell_length_b 10.984624
_cell_length_c 18.558710
_cell_angle_alpha 90.000000
_cell_angle_beta 90.000000
_cell_angle_gamma 90.000000
_cell_volume 2014.386707
_symmetry_space_group_name_H-M "C 2 2 21"
_symmetry_group_IT_number 20
_symmetry_cell_setting 'orthorhombic'
loop_
_space_group_symop_operation_xyz
x,y,z
-x,-y,1/2+z
x,-y,-z
-x,y,1/2-z
1/2+x,1/2+y,z
1/2-x,1/2-y,1/2+z
1/2+x,1/2-y,-z
1/2-x,1/2+y,1/2-z
loop_
_atom_site_type_symbol
_atom_site_label
_atom_site_fract_x
_atom_site_fract_y
_atom_site_fract_z
Si Si1 0.326113 0.885708 0.868779
Si Si2 0.001302 0.500000 0.500000
Si Si3 0.500000 0.754159 0.750000
Si Si4 0.824822 0.733967 0.517857
Si Si5 0.942353 0.988167 0.324554
Si Si6 0.917640 0.115380 0.043157
O O1 0.403827 0.838165 0.798463
O O2 0.253017 0.773333 0.909761
O O3 0.208801 0.975240 0.843315
O O4 0.412994 0.949953 0.932002
O O5 0.908990 0.611080 0.525997
O O6 0.554133 0.657249 0.810140
O O7 0.704365 0.713138 0.459783
O O8 0.944216 0.833222 0.506011
O O9 0.000000 0.039682 0.250000
O O10 0.036138 0.054419 0.382959
O O11 0.864573 0.000000 0.000000
#
# Coordination Sequence:
#
# PCOD9320961 Si02
#       6
#     8   4   4   8   8   8
#     4  11  25  45  65 104 138 182 236 284 352 409
#     4  12  26  40  70 108 140 180 234 292 344 412
#     4  10  24  46  66  92 134 192 220 290 350 416
#     4  11  24  39  66 103 133 177 226 285 344 393
#     4   9  24  44  66  96 134 182 231 277 345 410
#     4  11  22  41  68  97 135 178 229 283 335 408
#
# _framework density 19.85716
#
# number of rings (size 3 to 8) (size 9 to 14) (size 15 to 20)
#    0.600    0.800    3.000    1.200    5.600    3.200 
#    7.200    0.000    0.000    0.000    0.000    0.000 
#    0.000    0.000    0.000    0.000    0.000    0.000 
#
# Total GULP energy -111378.853423 kJ/mol
# GULP energy per Si atom -5568.942671 kJ/mol
# Density = 1.981196 g / cm^3
# Si number density = 19.857160 Si / 1000 Ang^3
#
#
#
# Elastic Constant Matrix: (Units=GPa)
#
#
# Indices 1 2 3 4 5 6 
#
# 1 114.7458 24.1035 46.0517 0.0000 0.0000 0.0000
# 2 24.1035 45.0242 13.1465 0.0000 0.0000 0.0000
# 3 46.0517 13.1465 63.6353 0.0000 0.0000 0.0000
# 4 0.0000 0.0000 0.0000 39.3662 0.0000 0.0000
# 5 0.0000 0.0000 0.0000 0.0000 33.5816 0.0000
# 6 0.0000 0.0000 0.0000 0.0000 0.0000 26.7636
#
#
#
# Elastic Compliance Matrix: (Units=1/GPa)
#
#
# Indices 1 2 3 4 5 6 
#
# 1 0.013091 -0.004514 -0.008541 0.000000 0.000000 0.000000
# 2 -0.004514 0.025193 -0.001938 0.000000 0.000000 0.000000
# 3 -0.008541 -0.001938 0.022296 0.000000 0.000000 0.000000
# 4 0.000000 0.000000 0.000000 0.025403 0.000000 0.000000
# 5 0.000000 0.000000 0.000000 0.000000 0.029778 0.000000
# 6 0.000000 0.000000 0.000000 0.000000 0.000000 0.037364
#
#
# Mechanical properties :
#
#
# Convention : Reuss Voigt Hill
#
# Bulk Modulus (GPa) = 32.68669 43.33430 38.01050
# Shear Modulus (GPa) = 25.86533 29.28251 27.57392
#
# Velocity S-wave (km/s) = 3.61303 3.84429 3.73045
# Velocity P-wave (km/s) = 5.82254 6.44788 6.14317
#
# Compressibility (1/GPa) = 0.03059349
#
# Stress axis : x y z
#
# Youngs Moduli (GPa) = 76.38797 39.69386 44.85123
#
# Poissons Ratio (x) = 0.17919 0.38308
# Poissons Ratio (y) = 0.34484 0.08691
# Poissons Ratio (z) = 0.65244 0.07691
#
# Static dielectric constant tensor:
#      x y z
#    x 1.715970 0.000000 0.000000 
#    y 0.000000 1.828290 0.000000 
#    z 0.000000 0.000000 1.772210 
# 
# From -- ./inp_files/23206.got.cif
#   From: 2010.05.17/outbox.cif.g08.bks.cpg/sg20_12_cif.got.tgz:23206.got - 2010.06.03 22:52:26.
