data_PCOD9320538
_publ_section_title
;
Structure prediction by ZEFSAII (Michael W. Deem and Ramdas Pophale) SiO2 
 PCOD9320538
Probable space group: C 2 2 21
;
_chemical_formula_sum "Si O2"
_cell_formula_units_Z 48
_cell_length_a 12.962911
_cell_length_b 10.435411
_cell_length_c 14.284649
_cell_angle_alpha 90.000000
_cell_angle_beta 90.000000
_cell_angle_gamma 90.000000
_cell_volume 1932.331667
_symmetry_space_group_name_H-M "C 2 2 21"
_symmetry_group_IT_number 20
_symmetry_cell_setting 'orthorhombic'
loop_
_space_group_symop_operation_xyz
x,y,z
-x,-y,1/2+z
x,-y,-z
-x,y,1/2-z
1/2+x,1/2+y,z
1/2-x,1/2-y,1/2+z
1/2+x,1/2-y,-z
1/2-x,1/2+y,1/2-z
loop_
_atom_site_type_symbol
_atom_site_label
_atom_site_fract_x
_atom_site_fract_y
_atom_site_fract_z
Si Si1 0.175700 0.267406 0.460270
Si Si2 0.000000 0.177125 0.250000
Si Si3 0.221667 0.500000 0.000000
Si Si4 0.820033 0.000000 0.500000
Si Si5 0.974119 0.389308 0.393517
Si Si6 0.000000 0.399991 0.750000
Si Si7 0.705209 0.762825 0.767955
Si Si8 0.666855 0.489854 0.786213
O O1 0.204651 0.123861 0.490721
O O2 0.250150 0.372977 0.505645
O O3 0.059341 0.325466 0.463000
O O4 0.217200 0.262878 0.353564
O O5 0.048814 0.269822 0.173931
O O6 0.914759 0.078135 0.219034
O O7 0.133568 0.549928 0.926190
O O8 0.870418 0.988728 0.394748
O O9 0.029346 0.500979 0.333235
O O10 0.910436 0.309619 0.709404
O O11 0.696222 0.618891 0.732741
O O12 0.744922 0.883141 0.710102
#
# Coordination Sequence:
#
# PCOD9320538 Si02
#       8
#     8   4   4   4   8   4   8   8
#     4  11  23  46  67 110 145 190 242 304 369 445
#     4  11  23  44  70 104 140 190 244 310 364 446
#     4  12  25  46  77 106 150 192 245 308 377 444
#     4  10  23  42  69 100 150 184 231 306 371 420
#     4  11  24  42  73 106 145 192 244 303 380 439
#     4  11  21  42  72 102 138 188 246 302 364 448
#     4  11  23  41  70 104 135 189 242 300 367 439
#     4  11  24  43  71 103 143 188 246 304 368 440
#
# _framework density 24.840454999999999
#
# number of rings (size 3 to 8) (size 9 to 14) (size 15 to 20)
#    0.000    1.000    3.333    4.000    2.333    1.333 
#    0.000    5.000    0.000    0.000    0.000    0.000 
#    0.000    0.000    0.000    0.000    0.000    0.000 
#
# Total GULP energy -133668.419986 kJ/mol
# GULP energy per Si atom -5569.517499 kJ/mol
# Density = 2.478392 g / cm^3
# Si number density = 24.840455 Si / 1000 Ang^3
#
#
#
# Elastic Constant Matrix: (Units=GPa)
#
#
# Indices 1 2 3 4 5 6 
#
# 1 65.6888 42.0977 19.1306 0.0000 0.0000 0.0000
# 2 42.0977 225.7447 28.7715 0.0000 0.0000 0.0000
# 3 19.1306 28.7715 26.8977 0.0000 0.0000 0.0000
# 4 0.0000 0.0000 0.0000 26.6673 0.0000 0.0000
# 5 0.0000 0.0000 0.0000 0.0000 -149.5180 0.0000
# 6 0.0000 0.0000 0.0000 0.0000 0.0000 76.2867
#
#
#
# Elastic Compliance Matrix: (Units=1/GPa)
#
#
# Indices 1 2 3 4 5 6 
#
# 1 0.020128 -0.002233 -0.011927 0.000000 0.000000 0.000000
# 2 -0.002233 0.005377 -0.004163 0.000000 0.000000 0.000000
# 3 -0.011927 -0.004163 0.050114 0.000000 0.000000 0.000000
# 4 0.000000 0.000000 0.000000 0.037499 0.000000 0.000000
# 5 0.000000 0.000000 0.000000 0.000000 -0.006688 0.000000
# 6 0.000000 0.000000 0.000000 0.000000 0.000000 0.013108
#
#
# Mechanical properties :
#
#
# Convention : Reuss Voigt Hill
#
# Bulk Modulus (GPa) = 25.65931 55.37010 40.51471
# Shear Modulus (GPa) = 29.55521 5.90930 17.73226
#
# Velocity S-wave (km/s) = 3.45309 1.54404 2.67469
# Velocity P-wave (km/s) = 5.12353 5.05148 5.08763
#
# Compressibility (1/GPa) = 0.03897220
#
# Stress axis : x y z
#
# Youngs Moduli (GPa) = 49.68182 185.98230 19.95470
#
# Poissons Ratio (x) = 0.41539 0.23799
# Poissons Ratio (y) = 0.11096 0.08307
# Poissons Ratio (z) = 0.59254 0.77422
#
# Static dielectric constant tensor:
#      x y z
#    x 2.691690 0.000000 0.000000 
#    y 0.000000 1.963960 0.000000 
#    z 0.000000 0.000000 2.123930 
# 
# From -- ./inp_files/24870.got.cif
#   From: 2010.05.17/outbox.cif.g08.bks.cpg/sg20_13_cif.got.tgz:24870.got - 2010.06.03 22:52:26.
