data_PCOD9320096
_publ_section_title
;
Structure prediction by ZEFSAII (Michael W. Deem and Ramdas Pophale) SiO2 
 PCOD9320096
Probable space group: C 2 2 21
;
_chemical_formula_sum "Si O2"
_cell_formula_units_Z 32
_cell_length_a 10.736816
_cell_length_b 15.164643
_cell_length_c 7.907452
_cell_angle_alpha 90.000000
_cell_angle_beta 90.000000
_cell_angle_gamma 90.000000
_cell_volume 1287.491189
_symmetry_space_group_name_H-M "C 2 2 21"
_symmetry_group_IT_number 20
_symmetry_cell_setting 'orthorhombic'
loop_
_space_group_symop_operation_xyz
x,y,z
-x,-y,1/2+z
x,-y,-z
-x,y,1/2-z
1/2+x,1/2+y,z
1/2-x,1/2-y,1/2+z
1/2+x,1/2-y,-z
1/2-x,1/2+y,1/2-z
loop_
_atom_site_type_symbol
_atom_site_label
_atom_site_fract_x
_atom_site_fract_y
_atom_site_fract_z
Si Si1 0.366270 0.472487 0.697035
Si Si2 0.570509 0.090165 0.573429
Si Si3 0.713217 0.663515 0.720173
Si Si4 0.341596 0.156705 0.361850
O O1 0.374697 0.500000 0.500000
O O2 0.500000 0.431945 0.750000
O O3 0.351429 0.568042 0.786367
O O4 0.252573 0.408899 0.759450
O O5 0.500000 0.072039 0.750000
O O6 0.680248 0.153274 0.634693
O O7 0.472157 0.119395 0.432157
O O8 0.622529 0.000000 0.500000
O O9 0.640928 0.751263 0.766922
O O10 0.773744 0.676093 0.538933
#
# Coordination Sequence:
#
# PCOD9320096 Si02
#       4
#     8   8   8   8
#     4  12  26  47  72 102 141 184 229 286 350 417
#     4  10  22  42  68  97 139 185 234 289 342 406
#     4  11  24  43  67 102 140 186 234 284 343 408
#     4  11  24  44  70 103 140 183 234 285 345 411
#
# _framework density 24.854538999999999
#
# number of rings (size 3 to 8) (size 9 to 14) (size 15 to 20)
#    0.000    1.000    0.000    7.500    0.000    9.000 
#    0.000    0.000    0.000    0.000    0.000    0.000 
#    0.000    0.000    0.000    0.000    0.000    0.000 
#
# Total GULP energy -89545.231127 kJ/mol
# GULP energy per Si atom -5596.576945 kJ/mol
# Density = 2.479797 g / cm^3
# Si number density = 24.854539 Si / 1000 Ang^3
#
#
#
# Elastic Constant Matrix: (Units=GPa)
#
#
# Indices 1 2 3 4 5 6 
#
# 1 156.1700 55.1515 45.4065 0.0000 0.0000 0.0000
# 2 55.1515 142.0953 42.0608 0.0000 0.0000 0.0000
# 3 45.4065 42.0608 142.8895 0.0000 0.0000 0.0000
# 4 0.0000 0.0000 0.0000 46.0367 0.0000 0.0000
# 5 0.0000 0.0000 0.0000 0.0000 47.5041 0.0000
# 6 0.0000 0.0000 0.0000 0.0000 0.0000 33.7724
#
#
#
# Elastic Compliance Matrix: (Units=1/GPa)
#
#
# Indices 1 2 3 4 5 6 
#
# 1 0.007795 -0.002511 -0.001738 0.000000 0.000000 0.000000
# 2 -0.002511 0.008518 -0.001709 0.000000 0.000000 0.000000
# 3 -0.001738 -0.001709 0.008054 0.000000 0.000000 0.000000
# 4 0.000000 0.000000 0.000000 0.021722 0.000000 0.000000
# 5 0.000000 0.000000 0.000000 0.000000 0.021051 0.000000
# 6 0.000000 0.000000 0.000000 0.000000 0.000000 0.029610
#
#
# Mechanical properties :
#
#
# Convention : Reuss Voigt Hill
#
# Bulk Modulus (GPa) = 80.31928 80.71029 80.51479
# Shear Modulus (GPa) = 44.31941 45.36504 44.84222
#
# Velocity S-wave (km/s) = 4.22732 4.27690 4.25218
# Velocity P-wave (km/s) = 7.49752 7.54537 7.52149
#
# Compressibility (1/GPa) = 0.01245031
#
# Stress axis : x y z
#
# Youngs Moduli (GPa) = 128.28033 117.39578 124.16365
#
# Poissons Ratio (x) = 0.29480 0.21580
# Poissons Ratio (y) = 0.32214 0.21225
# Poissons Ratio (z) = 0.22295 0.20068
#
# Static dielectric constant tensor:
#      x y z
#    x 2.019360 0.000000 0.000000 
#    y 0.000000 1.900770 0.000000 
#    z 0.000000 0.000000 1.983130 
# 
# From -- ./inp_files/6791.got.cif
#   From: 2010.05.17/outbox.cif.g08.bks.cpg/sg20_4_cif.got.tgz:6791.got - 2010.06.03 22:52:26.
