data_PCOD9320849
_publ_section_title
;
Structure prediction by ZEFSAII (Michael W. Deem and Ramdas Pophale) SiO2 
 PCOD9320849
Probable space group: C 2 2 21
;
_chemical_formula_sum "Si O2"
_cell_formula_units_Z 60
_cell_length_a 6.066620
_cell_length_b 27.340882
_cell_length_c 17.814075
_cell_angle_alpha 90.000000
_cell_angle_beta 90.000000
_cell_angle_gamma 90.000000
_cell_volume 2954.762574
_symmetry_space_group_name_H-M "C 2 2 21"
_symmetry_group_IT_number 20
_symmetry_cell_setting 'orthorhombic'
loop_
_space_group_symop_operation_xyz
x,y,z
-x,-y,1/2+z
x,-y,-z
-x,y,1/2-z
1/2+x,1/2+y,z
1/2-x,1/2-y,1/2+z
1/2+x,1/2-y,-z
1/2-x,1/2+y,1/2-z
loop_
_atom_site_type_symbol
_atom_site_label
_atom_site_fract_x
_atom_site_fract_y
_atom_site_fract_z
Si Si1 0.693903 0.316773 0.687736
Si Si2 0.753224 0.204789 0.712477
Si Si3 0.571739 0.625411 0.447196
Si Si4 0.778191 0.870985 0.417016
Si Si5 0.500000 0.900805 0.750000
Si Si6 0.866036 0.051650 0.329388
Si Si7 0.541595 0.452046 0.338854
Si Si8 0.603797 0.052591 0.959132
O O1 0.500000 0.319138 0.750000
O O2 0.785049 0.262338 0.696448
O O3 0.650926 0.328178 0.600545
O O4 0.840107 0.363294 0.709470
O O5 0.500000 0.200183 0.750000
O O6 0.716987 0.173243 0.637097
O O7 0.000000 0.190471 0.750000
O O8 0.399261 0.644728 0.507760
O O9 0.452497 0.592223 0.385131
O O10 0.739424 0.587607 0.488599
O O11 0.953938 0.901763 0.369758
O O12 0.596610 0.911227 0.440040
O O13 0.381220 0.935453 0.808920
O O14 0.000000 0.053090 0.250000
O O15 0.900448 0.998828 0.364944
O O16 0.500000 0.450918 0.250000
O O17 0.776630 0.458821 0.379024
O O18 0.562174 0.000000 0.000000
#
# Coordination Sequence:
#
# PCOD9320849 Si02
#       8
#     8   8   8   8   4   8   8   8
#     4  11  23  45  71 101 135 184 236 302 370 433
#     4  11  27  52  81 106 144 193 258 320 372 446
#     4  11  23  43  62  98 145 178 233 298 367 451
#     4  11  28  42  69 100 137 196 239 297 371 433
#     4  12  20  36  68 106 132 176 240 282 388 416
#     4  11  22  37  62  99 139 178 224 296 347 435
#     4  10  24  43  65  92 135 183 240 297 353 430
#     4  11  25  42  66  98 143 194 232 294 374 448
#
# _framework density 20.306198999999999
#
# number of rings (size 3 to 8) (size 9 to 14) (size 15 to 20)
#    0.000    1.067    4.667    0.400    9.333    2.133 
#    2.400    0.000    0.000    0.000    0.000    0.000 
#    0.000    0.000    0.000    0.000    0.000    0.000 
#
# Total GULP energy -167031.884396 kJ/mol
# GULP energy per Si atom -5567.729480 kJ/mol
# Density = 2.025998 g / cm^3
# Si number density = 20.306199 Si / 1000 Ang^3
#
#
#
# Elastic Constant Matrix: (Units=GPa)
#
#
# Indices 1 2 3 4 5 6 
#
# 1 74.4424 29.3819 35.9404 0.0000 0.0000 0.0000
# 2 29.3819 73.5531 26.9958 0.0000 0.0000 0.0000
# 3 35.9404 26.9958 106.6753 0.0000 0.0000 0.0000
# 4 0.0000 0.0000 0.0000 33.4563 0.0000 0.0000
# 5 0.0000 0.0000 0.0000 0.0000 35.0494 0.0000
# 6 0.0000 0.0000 0.0000 0.0000 0.0000 41.6379
#
#
#
# Elastic Compliance Matrix: (Units=1/GPa)
#
#
# Indices 1 2 3 4 5 6 
#
# 1 0.017805 -0.005413 -0.004629 0.000000 0.000000 0.000000
# 2 -0.005413 0.016634 -0.002386 0.000000 0.000000 0.000000
# 3 -0.004629 -0.002386 0.011537 0.000000 0.000000 0.000000
# 4 0.000000 0.000000 0.000000 0.029890 0.000000 0.000000
# 5 0.000000 0.000000 0.000000 0.000000 0.028531 0.000000
# 6 0.000000 0.000000 0.000000 0.000000 0.000000 0.024017
#
#
# Mechanical properties :
#
#
# Convention : Reuss Voigt Hill
#
# Bulk Modulus (GPa) = 47.34776 48.81189 48.07983
# Shear Modulus (GPa) = 31.18984 32.85220 32.02102
#
# Velocity S-wave (km/s) = 3.92341 4.02660 3.97534
# Velocity P-wave (km/s) = 6.62508 6.76078 6.69327
#
# Compressibility (1/GPa) = 0.02112032
#
# Stress axis : x y z
#
# Youngs Moduli (GPa) = 56.16539 60.11902 86.67472
#
# Poissons Ratio (x) = 0.32545 0.40119
# Poissons Ratio (y) = 0.30405 0.20676
# Poissons Ratio (z) = 0.25997 0.14342
#
# Static dielectric constant tensor:
#      x y z
#    x 1.837610 0.000000 0.000000 
#    y 0.000000 1.689800 0.000000 
#    z 0.000000 0.000000 1.671710 
# 
# From -- ./inp_files/22929.got.cif
#   From: 2010.05.17/outbox.cif.g08.bks.cpg/sg20_12_cif.got.tgz:22929.got - 2010.06.03 22:52:26.
