data_PCOD9320175
_publ_section_title
;
Structure prediction by ZEFSAII (Michael W. Deem and Ramdas Pophale) SiO2 
 PCOD9320175
Probable space group: C 2 2 21
;
_chemical_formula_sum "Si O2"
_cell_formula_units_Z 32
_cell_length_a 8.467455
_cell_length_b 23.167976
_cell_length_c 6.890009
_cell_angle_alpha 90.000000
_cell_angle_beta 90.000000
_cell_angle_gamma 90.000000
_cell_volume 1351.639208
_symmetry_space_group_name_H-M "C 2 2 21"
_symmetry_group_IT_number 20
_symmetry_cell_setting 'orthorhombic'
loop_
_space_group_symop_operation_xyz
x,y,z
-x,-y,1/2+z
x,-y,-z
-x,y,1/2-z
1/2+x,1/2+y,z
1/2-x,1/2-y,1/2+z
1/2+x,1/2-y,-z
1/2-x,1/2+y,1/2-z
loop_
_atom_site_type_symbol
_atom_site_label
_atom_site_fract_x
_atom_site_fract_y
_atom_site_fract_z
Si Si1 0.500000 0.600894 0.750000
Si Si2 0.229109 0.178904 0.011861
Si Si3 0.990932 0.000000 0.000000
Si Si4 0.000000 0.736165 0.750000
Si Si5 0.712300 0.064737 0.339488
Si Si6 0.533521 0.000000 0.000000
O O1 0.620655 0.640794 0.866161
O O2 0.412424 0.554334 0.890425
O O3 0.379655 0.202354 0.893516
O O4 0.279700 0.133007 0.178131
O O5 0.117037 0.226062 0.112953
O O6 0.118922 0.962942 0.875275
O O7 0.596579 0.051499 0.523461
O O8 0.639193 0.029042 0.163260
#
# Coordination Sequence:
#
# PCOD9320175 Si02
#       6
#     4   8   4   4   8   4
#     4  10  22  43  68 104 146 191 232 294 368 446
#     4  11  26  47  73 104 142 191 248 307 365 418
#     4   9  20  35  58  96 136 172 222 268 346 442
#     4  12  28  51  76 106 140 193 260 314 356 418
#     4   9  20  36  60  97 136 180 221 281 352 431
#     4   9  18  35  60  94 138 172 216 270 352 442
#
# _framework density 23.674955000000001
#
# number of rings (size 3 to 8) (size 9 to 14) (size 15 to 20)
#    0.000    2.000    0.000    1.500    0.000   17.000 
#    0.000    7.500    0.000    0.000    0.000    0.000 
#    0.000    0.000    0.000    0.000    0.000    0.000 
#
# Total GULP energy -89100.231688 kJ/mol
# GULP energy per Si atom -5568.764481 kJ/mol
# Density = 2.362107 g / cm^3
# Si number density = 23.674955 Si / 1000 Ang^3
#
#
#
# Elastic Constant Matrix: (Units=GPa)
#
#
# Indices 1 2 3 4 5 6 
#
# 1 121.5858 77.1102 65.7832 0.0000 0.0000 0.0000
# 2 77.1102 151.9474 63.2526 0.0000 0.0000 0.0000
# 3 65.7832 63.2526 95.2192 0.0000 0.0000 0.0000
# 4 0.0000 0.0000 0.0000 66.5160 0.0000 0.0000
# 5 0.0000 0.0000 0.0000 0.0000 55.1554 0.0000
# 6 0.0000 0.0000 0.0000 0.0000 0.0000 -6.1957
#
#
#
# Elastic Compliance Matrix: (Units=1/GPa)
#
#
# Indices 1 2 3 4 5 6 
#
# 1 0.015155 -0.004606 -0.007410 0.000000 0.000000 0.000000
# 2 -0.004606 0.010497 -0.003791 0.000000 0.000000 0.000000
# 3 -0.007410 -0.003791 0.018140 0.000000 0.000000 0.000000
# 4 0.000000 0.000000 0.000000 0.015034 0.000000 0.000000
# 5 0.000000 0.000000 0.000000 0.000000 0.018131 0.000000
# 6 0.000000 0.000000 0.000000 0.000000 0.000000 -0.161403
#
#
# Mechanical properties :
#
#
# Convention : Reuss Voigt Hill
#
# Bulk Modulus (GPa) = 82.11954 86.78269 84.45112
# Shear Modulus (GPa) = -102.51486 33.93558 -34.28964
#
# Velocity S-wave (km/s) = -6.58749 3.79013 -3.80985
# Velocity P-wave (km/s) = 4.80608 7.47589 4.04910
#
# Compressibility (1/GPa) = 0.01217737
#
# Stress axis : x y z
#
# Youngs Moduli (GPa) = 65.98396 95.26806 55.12809
#
# Poissons Ratio (x) = 0.43882 0.40852
# Poissons Ratio (y) = 0.30393 0.20897
# Poissons Ratio (z) = 0.48896 0.36112
#
# Static dielectric constant tensor:
#      x y z
#    x 1.996620 0.000000 0.000000 
#    y 0.000000 1.885320 0.000000 
#    z 0.000000 0.000000 2.309630 
# 
# From -- ./inp_files/5876.got.cif
#   From: 2010.05.17/outbox.cif.g08.bks.cpg/sg20_3_cif.got.tgz:5876.got - 2010.06.03 22:52:26.
