data_PCOD9320067
_publ_section_title
;
Structure prediction by ZEFSAII (Michael W. Deem and Ramdas Pophale) SiO2 
 PCOD9320067
Probable space group: C 2 2 21
;
_chemical_formula_sum "Si O2"
_cell_formula_units_Z 60
_cell_length_a 17.777952
_cell_length_b 8.662845
_cell_length_c 16.291783
_cell_angle_alpha 90.000000
_cell_angle_beta 90.000000
_cell_angle_gamma 90.000000
_cell_volume 2509.059093
_symmetry_space_group_name_H-M "C 2 2 21"
_symmetry_group_IT_number 20
_symmetry_cell_setting 'orthorhombic'
loop_
_space_group_symop_operation_xyz
x,y,z
-x,-y,1/2+z
x,-y,-z
-x,y,1/2-z
1/2+x,1/2+y,z
1/2-x,1/2-y,1/2+z
1/2+x,1/2-y,-z
1/2-x,1/2+y,1/2-z
loop_
_atom_site_type_symbol
_atom_site_label
_atom_site_fract_x
_atom_site_fract_y
_atom_site_fract_z
Si Si1 0.685322 0.923873 0.659012
Si Si2 0.825270 0.882149 0.372454
Si Si3 0.588071 0.180280 0.869905
Si Si4 0.971386 0.852741 0.468346
Si Si5 0.500000 0.402458 0.750000
Si Si6 0.718773 0.956244 0.852036
Si Si7 0.132454 0.915407 0.320061
Si Si8 0.032431 0.449420 0.594312
O O1 0.702794 0.938789 0.754919
O O2 0.660391 0.748098 0.642108
O O3 0.607450 0.007848 0.638012
O O4 0.755820 0.001501 0.613293
O O5 0.900140 0.921343 0.420804
O O6 0.807453 0.703307 0.392702
O O7 0.845099 0.892764 0.276164
O O8 0.560770 0.295830 0.798479
O O9 0.672399 0.111941 0.874545
O O10 0.538105 0.026178 0.861416
O O11 0.561106 0.255570 0.955007
O O12 0.014721 0.731766 0.411653
O O13 0.017773 0.000000 0.500000
O O14 0.449989 0.508506 0.811027
O O15 0.808179 0.968315 0.860782
O O16 0.038538 0.500000 0.500000
#
# Coordination Sequence:
#
# PCOD9320067 Si02
#       8
#     8   8   8   8   4   8   8   8
#     4  10  23  40  68  93 137 171 225 292 346 410
#     4  10  22  43  67  95 130 180 229 281 352 416
#     4  11  24  41  70  97 135 182 229 291 344 420
#     4  11  24  41  68  94 136 181 234 279 347 424
#     4  12  26  40  72 106 142 180 236 286 366 412
#     4  10  22  42  66  98 130 172 229 294 345 409
#     4  10  25  39  66 100 136 172 229 288 347 416
#     4  10  23  44  62  94 133 178 227 283 348 423
#
# _framework density 23.913347999999999
#
# number of rings (size 3 to 8) (size 9 to 14) (size 15 to 20)
#    0.000    1.600    1.333    1.600   14.933    0.533 
#    0.000    0.000    0.000    0.000    0.000    0.000 
#    0.000    0.000    0.000    0.000    0.000    0.000 
#
# Total GULP energy -167522.393676 kJ/mol
# GULP energy per Si atom -5584.079789 kJ/mol
# Density = 2.385892 g / cm^3
# Si number density = 23.913348 Si / 1000 Ang^3
#
#
#
# Elastic Constant Matrix: (Units=GPa)
#
#
# Indices 1 2 3 4 5 6 
#
# 1 135.8360 41.1470 8.7467 0.0000 0.0000 0.0000
# 2 41.1470 130.5722 15.8036 0.0000 0.0000 0.0000
# 3 8.7467 15.8036 24.3702 0.0000 0.0000 0.0000
# 4 0.0000 0.0000 0.0000 20.7507 0.0000 0.0000
# 5 0.0000 0.0000 0.0000 0.0000 15.2708 0.0000
# 6 0.0000 0.0000 0.0000 0.0000 0.0000 36.4453
#
#
#
# Elastic Compliance Matrix: (Units=1/GPa)
#
#
# Indices 1 2 3 4 5 6 
#
# 1 0.008181 -0.002412 -0.001372 0.000000 0.000000 0.000000
# 2 -0.002412 0.009022 -0.004985 0.000000 0.000000 0.000000
# 3 -0.001372 -0.004985 0.044759 0.000000 0.000000 0.000000
# 4 0.000000 0.000000 0.000000 0.048191 0.000000 0.000000
# 5 0.000000 0.000000 0.000000 0.000000 0.065485 0.000000
# 6 0.000000 0.000000 0.000000 0.000000 0.000000 0.027438
#
#
# Mechanical properties :
#
#
# Convention : Reuss Voigt Hill
#
# Bulk Modulus (GPa) = 22.51049 46.90812 34.70931
# Shear Modulus (GPa) = 21.23852 29.49878 25.36865
#
# Velocity S-wave (km/s) = 2.98341 3.51603 3.26061
# Velocity P-wave (km/s) = 4.61535 6.01180 5.35925
#
# Compressibility (1/GPa) = 0.04442372
#
# Stress axis : x y z
#
# Youngs Moduli (GPa) = 122.23768 110.84004 22.34197
#
# Poissons Ratio (x) = 0.26734 0.03066
# Poissons Ratio (y) = 0.29483 0.11137
# Poissons Ratio (z) = 0.16772 0.55253
#
# Static dielectric constant tensor:
#      x y z
#    x 1.960500 0.000000 0.000000 
#    y 0.000000 1.969330 0.000000 
#    z 0.000000 0.000000 1.853670 
# 
# From -- ./inp_files/25283.got.cif
#   From: 2010.05.17/outbox.cif.g08.bks.cpg/sg20_13_cif.got.tgz:25283.got - 2010.06.03 22:52:26.
