data_PCOD9320595
_publ_section_title
;
Structure prediction by ZEFSAII (Michael W. Deem and Ramdas Pophale) SiO2 
 PCOD9320595
Probable space group: C 2 2 21
;
_chemical_formula_sum "Si O2"
_cell_formula_units_Z 28
_cell_length_a 7.226500
_cell_length_b 17.527903
_cell_length_c 9.941810
_cell_angle_alpha 90.000000
_cell_angle_beta 90.000000
_cell_angle_gamma 90.000000
_cell_volume 1259.283251
_symmetry_space_group_name_H-M "C 2 2 21"
_symmetry_group_IT_number 20
_symmetry_cell_setting 'orthorhombic'
loop_
_space_group_symop_operation_xyz
x,y,z
-x,-y,1/2+z
x,-y,-z
-x,y,1/2-z
1/2+x,1/2+y,z
1/2-x,1/2-y,1/2+z
1/2+x,1/2-y,-z
1/2-x,1/2+y,1/2-z
loop_
_atom_site_type_symbol
_atom_site_label
_atom_site_fract_x
_atom_site_fract_y
_atom_site_fract_z
Si Si1 0.048667 0.921050 0.900387
Si Si2 0.768377 0.170709 0.911922
Si Si3 0.082884 0.341276 0.600763
Si Si4 0.500000 0.571520 0.750000
O O1 0.261695 0.903557 0.928040
O O2 0.000000 0.890473 0.750000
O O3 0.019022 0.011673 0.872710
O O4 0.917594 0.868477 0.990037
O O5 0.820999 0.124765 0.775119
O O6 0.817336 0.258919 0.895291
O O7 0.572890 0.159834 0.984840
O O8 0.000000 0.354840 0.750000
#
# Coordination Sequence:
#
# PCOD9320595 Si02
#       4
#     8   8   8   4
#     4  10  23  43  68  99 145 184 227 305 352 423
#     4  12  23  42  73 103 139 192 240 292 356 427
#     4  12  23  41  72 106 139 184 243 292 352 429
#     4  10  24  46  70  96 150 186 234 292 372 416
#
# _framework density 22.234873
#
# number of rings (size 3 to 8) (size 9 to 14) (size 15 to 20)
#    0.857    0.000    7.143    0.857    0.000    0.000 
#    0.000   18.571    0.000    0.000    0.000    0.000 
#    0.000    0.000    0.000    0.000    0.000    0.000 
#
# Total GULP energy -78116.990115 kJ/mol
# GULP energy per Si atom -5579.785008 kJ/mol
# Density = 2.218427 g / cm^3
# Si number density = 22.234873 Si / 1000 Ang^3
#
#
#
# Elastic Constant Matrix: (Units=GPa)
#
#
# Indices 1 2 3 4 5 6 
#
# 1 107.5872 9.3154 -9.6731 0.0000 0.0000 0.0000
# 2 9.3154 96.7758 -13.0830 0.0000 0.0000 0.0000
# 3 -9.6731 -13.0830 19.2224 0.0000 0.0000 0.0000
# 4 0.0000 0.0000 0.0000 24.8894 0.0000 0.0000
# 5 0.0000 0.0000 0.0000 0.0000 43.4792 0.0000
# 6 0.0000 0.0000 0.0000 0.0000 0.0000 30.6443
#
#
#
# Elastic Compliance Matrix: (Units=1/GPa)
#
#
# Indices 1 2 3 4 5 6 
#
# 1 0.009743 -0.000303 0.004697 0.000000 0.000000 0.000000
# 2 -0.000303 0.011390 0.007600 0.000000 0.000000 0.000000
# 3 0.004697 0.007600 0.059559 0.000000 0.000000 0.000000
# 4 0.000000 0.000000 0.000000 0.040178 0.000000 0.000000
# 5 0.000000 0.000000 0.000000 0.000000 0.023000 0.000000
# 6 0.000000 0.000000 0.000000 0.000000 0.000000 0.032632
#
#
# Mechanical properties :
#
#
# Convention : Reuss Voigt Hill
#
# Bulk Modulus (GPa) = 9.55306 21.85601 15.70453
# Shear Modulus (GPa) = 26.67990 35.60433 31.14212
#
# Velocity S-wave (km/s) = 3.46773 4.00595 3.74652
# Velocity P-wave (km/s) = 4.50991 5.58997 5.07873
#
# Compressibility (1/GPa) = 0.10467851
#
# Stress axis : x y z
#
# Youngs Moduli (GPa) = 102.63458 87.79870 16.79021
#
# Poissons Ratio (x) = 0.02659 -0.07886
# Poissons Ratio (y) = 0.03109 -0.12760
# Poissons Ratio (z) = -0.48206 -0.66723
#
# Static dielectric constant tensor:
#      x y z
#    x 1.851420 0.000000 0.000000 
#    y 0.000000 1.775930 0.000000 
#    z 0.000000 0.000000 2.154390 
# 
# From -- ./inp_files/11830.got.cif
#   From: 2010.05.17/outbox.cif.g08.bks.cpg/sg20_6_cif.got.tgz:11830.got - 2010.06.03 22:52:26.
