data_PCOD9320684
_publ_section_title
;
Structure prediction by ZEFSAII (Michael W. Deem and Ramdas Pophale) SiO2 
 PCOD9320684
Probable space group: C 2 2 21
;
_chemical_formula_sum "Si O2"
_cell_formula_units_Z 40
_cell_length_a 7.587569
_cell_length_b 21.951534
_cell_length_c 10.107743
_cell_angle_alpha 90.000000
_cell_angle_beta 90.000000
_cell_angle_gamma 90.000000
_cell_volume 1683.533331
_symmetry_space_group_name_H-M "C 2 2 21"
_symmetry_group_IT_number 20
_symmetry_cell_setting 'orthorhombic'
loop_
_space_group_symop_operation_xyz
x,y,z
-x,-y,1/2+z
x,-y,-z
-x,y,1/2-z
1/2+x,1/2+y,z
1/2-x,1/2-y,1/2+z
1/2+x,1/2-y,-z
1/2-x,1/2+y,1/2-z
loop_
_atom_site_type_symbol
_atom_site_label
_atom_site_fract_x
_atom_site_fract_y
_atom_site_fract_z
Si Si1 0.407643 0.040534 0.373051
Si Si2 0.260710 0.073642 0.994811
Si Si3 0.159004 0.221080 0.572969
Si Si4 0.255973 0.689248 0.646562
Si Si5 0.092062 0.123336 0.373751
O O1 0.500000 0.006628 0.250000
O O2 0.561598 0.086516 0.421144
O O3 0.229243 0.072451 0.327970
O O4 0.364283 0.000000 0.500000
O O5 0.271965 0.116284 0.864053
O O6 0.073094 0.093761 0.052238
O O7 0.258685 0.000000 0.000000
O O8 0.163691 0.280667 0.481446
O O9 0.275055 0.215476 0.706054
O O10 0.199122 0.167267 0.469612
O O11 0.959160 0.206902 0.616074
O O12 0.000000 0.156091 0.250000
#
# Coordination Sequence:
#
# PCOD9320684 Si02
#       5
#     8   8   8   8   8
#     4  11  24  42  67 103 139 185 239 288 354 431
#     4  10  23  45  71 101 144 187 235 295 352 430
#     4  10  25  43  70 102 139 184 242 298 363 433
#     4  10  24  46  69 105 141 187 238 300 364 426
#     4  11  23  43  68 100 139 189 237 294 363 425
#
# _framework density 23.759554999999999
#
# number of rings (size 3 to 8) (size 9 to 14) (size 15 to 20)
#    0.000    1.600    2.000    0.600    8.400    3.200 
#    7.200    0.000    0.000    0.000    0.000    0.000 
#    0.000    0.000    0.000    0.000    0.000    0.000 
#
# Total GULP energy -111499.205089 kJ/mol
# GULP energy per Si atom -5574.960254 kJ/mol
# Density = 2.370548 g / cm^3
# Si number density = 23.759555 Si / 1000 Ang^3
#
#
#
# Elastic Constant Matrix: (Units=GPa)
#
#
# Indices 1 2 3 4 5 6 
#
# 1 85.1016 19.0398 13.6393 0.0000 0.0000 0.0000
# 2 19.0398 111.6649 64.2506 0.0000 0.0000 0.0000
# 3 13.6393 64.2506 161.5437 0.0000 0.0000 0.0000
# 4 0.0000 0.0000 0.0000 23.8457 0.0000 0.0000
# 5 0.0000 0.0000 0.0000 0.0000 29.3797 0.0000
# 6 0.0000 0.0000 0.0000 0.0000 0.0000 3.5831
#
#
#
# Elastic Compliance Matrix: (Units=1/GPa)
#
#
# Indices 1 2 3 4 5 6 
#
# 1 0.012225 -0.001933 -0.000263 0.000000 0.000000 0.000000
# 2 -0.001933 0.011919 -0.004577 0.000000 0.000000 0.000000
# 3 -0.000263 -0.004577 0.008033 0.000000 0.000000 0.000000
# 4 0.000000 0.000000 0.000000 0.041936 0.000000 0.000000
# 5 0.000000 0.000000 0.000000 0.000000 0.034037 0.000000
# 6 0.000000 0.000000 0.000000 0.000000 0.000000 0.279092
#
#
# Mechanical properties :
#
#
# Convention : Reuss Voigt Hill
#
# Bulk Modulus (GPa) = 53.67730 61.35218 57.51474
# Shear Modulus (GPa) = 12.28504 28.78706 20.53605
#
# Velocity S-wave (km/s) = 2.27636 3.48458 2.94314
# Velocity P-wave (km/s) = 5.43599 6.48598 5.98406
#
# Compressibility (1/GPa) = 0.01862985
#
# Stress axis : x y z
#
# Youngs Moduli (GPa) = 81.79733 83.90244 124.48666
#
# Poissons Ratio (x) = 0.16218 0.03279
# Poissons Ratio (y) = 0.15811 0.56980
# Poissons Ratio (z) = 0.02155 0.38404
#
# Static dielectric constant tensor:
#      x y z
#    x 1.884820 0.000000 0.000000 
#    y 0.000000 1.941800 0.000000 
#    z 0.000000 0.000000 2.335880 
# 
# From -- ./inp_files/6078.got.cif
#   From: 2010.05.17/outbox.cif.g08.bks.cpg/sg20_4_cif.got.tgz:6078.got - 2010.06.03 22:52:26.
