data_PCOD9320695
_publ_section_title
;
Structure prediction by ZEFSAII (Michael W. Deem and Ramdas Pophale) SiO2 
 PCOD9320695
Probable space group: C 2 2 21
;
_chemical_formula_sum "Si O2"
_cell_formula_units_Z 32
_cell_length_a 15.730997
_cell_length_b 9.408080
_cell_length_c 8.257536
_cell_angle_alpha 90.000000
_cell_angle_beta 90.000000
_cell_angle_gamma 90.000000
_cell_volume 1222.102762
_symmetry_space_group_name_H-M "C 2 2 21"
_symmetry_group_IT_number 20
_symmetry_cell_setting 'orthorhombic'
loop_
_space_group_symop_operation_xyz
x,y,z
-x,-y,1/2+z
x,-y,-z
-x,y,1/2-z
1/2+x,1/2+y,z
1/2-x,1/2-y,1/2+z
1/2+x,1/2-y,-z
1/2-x,1/2+y,1/2-z
loop_
_atom_site_type_symbol
_atom_site_label
_atom_site_fract_x
_atom_site_fract_y
_atom_site_fract_z
Si Si1 0.164553 0.588102 0.164709
Si Si2 0.965539 0.648404 0.096392
Si Si3 0.305898 0.814105 0.127987
Si Si4 0.938694 0.109598 0.123095
O O1 0.065952 0.632614 0.209269
O O2 0.219622 0.726971 0.129230
O O3 0.199658 0.464943 0.285116
O O4 0.159069 0.500000 0.000000
O O5 0.974084 0.500000 0.000000
O O6 0.858717 0.678884 0.040925
O O7 0.993740 0.784080 0.989068
O O8 0.371890 0.707194 0.217995
O O9 0.000000 0.034172 0.250000
O O10 0.895571 0.000000 0.000000
#
# Coordination Sequence:
#
# PCOD9320695 Si02
#       4
#     8   8   8   8
#     4  12  25  44  73 104 146 199 245 311 377 445
#     4  10  25  44  73 102 150 189 252 304 374 439
#     4  10  26  46  71 108 145 196 247 309 376 448
#     4  10  23  45  73 107 146 194 250 305 380 443
#
# _framework density 26.184376
#
# number of rings (size 3 to 8) (size 9 to 14) (size 15 to 20)
#    1.500    0.000    0.000    3.750    7.000    3.000 
#    0.000    0.000    0.000    0.000    0.000    0.000 
#    0.000    0.000    0.000    0.000    0.000    0.000 
#
# Total GULP energy -89248.976257 kJ/mol
# GULP energy per Si atom -5578.061016 kJ/mol
# Density = 2.612478 g / cm^3
# Si number density = 26.184376 Si / 1000 Ang^3
#
#
#
# Elastic Constant Matrix: (Units=GPa)
#
#
# Indices 1 2 3 4 5 6 
#
# 1 181.7897 73.2952 74.7705 0.0000 0.0000 0.0000
# 2 73.2952 134.3912 38.6883 0.0000 0.0000 0.0000
# 3 74.7705 38.6883 100.4709 0.0000 0.0000 0.0000
# 4 0.0000 0.0000 0.0000 36.4416 0.0000 0.0000
# 5 0.0000 0.0000 0.0000 0.0000 40.6030 0.0000
# 6 0.0000 0.0000 0.0000 0.0000 0.0000 36.9288
#
#
#
# Elastic Compliance Matrix: (Units=1/GPa)
#
#
# Indices 1 2 3 4 5 6 
#
# 1 0.009127 -0.003399 -0.005483 0.000000 0.000000 0.000000
# 2 -0.003399 0.009635 -0.001180 0.000000 0.000000 0.000000
# 3 -0.005483 -0.001180 0.014488 0.000000 0.000000 0.000000
# 4 0.000000 0.000000 0.000000 0.027441 0.000000 0.000000
# 5 0.000000 0.000000 0.000000 0.000000 0.024629 0.000000
# 6 0.000000 0.000000 0.000000 0.000000 0.000000 0.027079
#
#
# Mechanical properties :
#
#
# Convention : Reuss Voigt Hill
#
# Bulk Modulus (GPa) = 76.19517 87.79556 81.99536
# Shear Modulus (GPa) = 36.52351 38.12120 37.32235
#
# Velocity S-wave (km/s) = 3.73883 3.81973 3.77950
# Velocity P-wave (km/s) = 6.91384 7.28398 7.10132
#
# Compressibility (1/GPa) = 0.01312419
#
# Stress axis : x y z
#
# Youngs Moduli (GPa) = 109.57093 103.79299 69.02163
#
# Poissons Ratio (x) = 0.35279 0.37845
# Poissons Ratio (y) = 0.37243 0.08148
# Poissons Ratio (z) = 0.60079 0.12252
#
# Static dielectric constant tensor:
#      x y z
#    x 2.282600 0.000000 0.000000 
#    y 0.000000 1.998660 0.000000 
#    z 0.000000 0.000000 2.399190 
# 
# From -- ./inp_files/9806.got.cif
#   From: 2010.05.17/outbox.cif.g08.bks.cpg/sg20_5_cif.got.tgz:9806.got - 2010.06.03 22:52:26.
