data_PCOD9320000
_publ_section_title
;
Structure prediction by ZEFSAII (Michael W. Deem and Ramdas Pophale) SiO2 
 PCOD9320000
Probable space group: C 2 2 21
;
_chemical_formula_sum "Si O2"
_cell_formula_units_Z 40
_cell_length_a 5.023698
_cell_length_b 13.665664
_cell_length_c 23.586414
_cell_angle_alpha 90.000000
_cell_angle_beta 90.000000
_cell_angle_gamma 90.000000
_cell_volume 1619.258478
_symmetry_space_group_name_H-M "C 2 2 21"
_symmetry_group_IT_number 20
_symmetry_cell_setting 'orthorhombic'
loop_
_space_group_symop_operation_xyz
x,y,z
-x,-y,1/2+z
x,-y,-z
-x,y,1/2-z
1/2+x,1/2+y,z
1/2-x,1/2-y,1/2+z
1/2+x,1/2-y,-z
1/2-x,1/2+y,1/2-z
loop_
_atom_site_type_symbol
_atom_site_label
_atom_site_fract_x
_atom_site_fract_y
_atom_site_fract_z
Si Si1 0.078497 0.433354 0.426387
Si Si2 0.000000 0.947398 0.750000
Si Si3 0.829661 0.741792 0.369957
Si Si4 0.431272 0.529462 0.125921
Si Si5 0.000000 0.693479 0.250000
Si Si6 0.831823 0.298453 0.976582
O O1 0.173135 0.336463 0.391630
O O2 0.294493 0.512726 0.406556
O O3 0.791062 0.468239 0.407053
O O4 0.087123 0.397649 0.491355
O O5 0.747942 0.877933 0.737654
O O6 0.948135 0.003760 0.808445
O O7 0.656945 0.642334 0.371237
O O8 0.071748 0.720327 0.413251
O O9 0.931771 0.753200 0.306124
O O10 0.023354 0.220897 0.010508
#
# Coordination Sequence:
#
# PCOD9320000 Si02
#       6
#     8   4   8   8   4   8
#     4  11  24  42  67  99 128 170 222 258 325 392
#     4  10  22  43  64  95 136 166 212 279 320 369
#     4  10  24  46  68  94 135 170 212 275 318 378
#     4  11  24  43  67  95 129 172 217 265 321 386
#     4  10  22  41  70  95 122 176 218 251 332 389
#     4  10  22  42  67  95 133 170 210 271 324 374
#
# _framework density 24.702663000000001
#
# number of rings (size 3 to 8) (size 9 to 14) (size 15 to 20)
#    0.000    1.600    0.000    4.800    0.000   16.000 
#    0.000   14.000    0.000    0.000    0.000    0.000 
#    0.000    0.000    0.000    0.000    0.000    0.000 
#
# Total GULP energy -112107.621158 kJ/mol
# GULP energy per Si atom -5605.381058 kJ/mol
# Density = 2.464644 g / cm^3
# Si number density = 24.702663 Si / 1000 Ang^3
#
#
#
# Elastic Constant Matrix: (Units=GPa)
#
#
# Indices 1 2 3 4 5 6 
#
# 1 82.8804 1.4131 13.2078 0.0000 0.0000 0.0000
# 2 1.4131 91.0480 10.6040 0.0000 0.0000 0.0000
# 3 13.2078 10.6040 178.2924 0.0000 0.0000 0.0000
# 4 0.0000 0.0000 0.0000 54.1658 0.0000 0.0000
# 5 0.0000 0.0000 0.0000 0.0000 42.5159 0.0000
# 6 0.0000 0.0000 0.0000 0.0000 0.0000 40.8224
#
#
#
# Elastic Compliance Matrix: (Units=1/GPa)
#
#
# Indices 1 2 3 4 5 6 
#
# 1 0.012210 -0.000085 -0.000899 0.000000 0.000000 0.000000
# 2 -0.000085 0.011060 -0.000652 0.000000 0.000000 0.000000
# 3 -0.000899 -0.000652 0.005714 0.000000 0.000000 0.000000
# 4 0.000000 0.000000 0.000000 0.018462 0.000000 0.000000
# 5 0.000000 0.000000 0.000000 0.000000 0.023521 0.000000
# 6 0.000000 0.000000 0.000000 0.000000 0.000000 0.024496
#
#
# Mechanical properties :
#
#
# Convention : Reuss Voigt Hill
#
# Bulk Modulus (GPa) = 38.89029 44.74118 41.81573
# Shear Modulus (GPa) = 46.59552 49.30055 47.94803
#
# Velocity S-wave (km/s) = 4.34782 4.47224 4.41047
# Velocity P-wave (km/s) = 6.40173 6.69471 6.54986
#
# Compressibility (1/GPa) = 0.02571336
#
# Stress axis : x y z
#
# Youngs Moduli (GPa) = 81.89760 90.41251 175.00421
#
# Poissons Ratio (x) = 0.00766 0.15742
# Poissons Ratio (y) = 0.00694 0.11402
# Poissons Ratio (z) = 0.07367 0.05891
#
# Static dielectric constant tensor:
#      x y z
#    x 1.856320 0.000000 0.000000 
#    y 0.000000 1.997720 0.000000 
#    z 0.000000 0.000000 1.975360 
# 
# From -- ./inp_files/28294.got.cif
#   From: 2010.05.17/outbox.cif.g08.bks.cpg/sg20_15_cif.got.tgz:28294.got - 2010.06.03 22:52:26.
