data_PCOD9320083
_publ_section_title
;
Structure prediction by ZEFSAII (Michael W. Deem and Ramdas Pophale) SiO2 
 PCOD9320083
Probable space group: C 2 2 21
;
_chemical_formula_sum "Si O2"
_cell_formula_units_Z 64
_cell_length_a 15.935891
_cell_length_b 14.182271
_cell_length_c 12.163412
_cell_angle_alpha 90.000000
_cell_angle_beta 90.000000
_cell_angle_gamma 90.000000
_cell_volume 2749.017774
_symmetry_space_group_name_H-M "C 2 2 21"
_symmetry_group_IT_number 20
_symmetry_cell_setting 'orthorhombic'
loop_
_space_group_symop_operation_xyz
x,y,z
-x,-y,1/2+z
x,-y,-z
-x,y,1/2-z
1/2+x,1/2+y,z
1/2-x,1/2-y,1/2+z
1/2+x,1/2-y,-z
1/2-x,1/2+y,1/2-z
loop_
_atom_site_type_symbol
_atom_site_label
_atom_site_fract_x
_atom_site_fract_y
_atom_site_fract_z
Si Si1 0.280281 0.622325 0.256965
Si Si2 0.779279 0.111937 0.504012
Si Si3 0.089816 0.388804 0.814077
Si Si4 0.907535 0.399196 0.303411
Si Si5 0.040248 0.263909 0.020148
Si Si6 0.131047 0.932977 0.220892
Si Si7 0.523423 0.576119 0.582363
Si Si8 0.145118 0.711253 0.612848
O O1 0.313189 0.632928 0.382560
O O2 0.178727 0.633253 0.246798
O O3 0.309689 0.515162 0.233469
O O4 0.326087 0.694145 0.174346
O O5 0.824815 0.124346 0.622450
O O6 0.703404 0.183618 0.513206
O O7 0.758337 0.000000 0.500000
O O8 0.103412 0.497351 0.852624
O O9 0.000000 0.387817 0.750000
O O10 0.072217 0.316855 0.911867
O O11 0.848532 0.373711 0.201477
O O12 0.000000 0.399698 0.250000
O O13 0.902693 0.312349 0.386692
O O14 0.947781 0.288375 0.065144
O O15 0.023629 0.155967 0.987481
O O16 0.088836 0.883807 0.327380
O O17 0.050635 0.973177 0.152909
O O18 0.561985 0.500000 0.500000
#
# Coordination Sequence:
#
# PCOD9320083 Si02
#       8
#     8   8   8   8   8   8   8   8
#     4  11  24  43  70 107 143 192 245 306 368 457
#     4  10  22  42  67  97 139 190 240 298 366 441
#     4  11  24  44  70 101 142 191 247 308 373 439
#     4   9  21  41  65  96 136 191 239 301 365 444
#     4  11  25  42  67 100 140 187 242 304 373 442
#     4  10  24  43  69 102 144 192 245 293 377 443
#     4  11  24  43  71 102 147 191 239 312 377 453
#     4  11  24  41  68 104 142 185 250 304 371 447
#
# _framework density 23.281043
#
# number of rings (size 3 to 8) (size 9 to 14) (size 15 to 20)
#    0.000    1.500    0.000    4.500    7.000    3.000 
#    0.000    5.000    0.000    0.000    0.000    0.000 
#    0.000    0.000    0.000    0.000    0.000    0.000 
#
# Total GULP energy -178301.273682 kJ/mol
# GULP energy per Si atom -5571.914803 kJ/mol
# Density = 2.322805 g / cm^3
# Si number density = 23.281043 Si / 1000 Ang^3
#
#
#
# Elastic Constant Matrix: (Units=GPa)
#
#
# Indices 1 2 3 4 5 6 
#
# 1 86.9545 6.8851 28.2633 0.0000 0.0000 0.0000
# 2 6.8851 102.9412 35.5927 0.0000 0.0000 0.0000
# 3 28.2633 35.5927 98.8213 0.0000 0.0000 0.0000
# 4 0.0000 0.0000 0.0000 16.0660 0.0000 0.0000
# 5 0.0000 0.0000 0.0000 0.0000 36.7928 0.0000
# 6 0.0000 0.0000 0.0000 0.0000 0.0000 28.9358
#
#
#
# Elastic Compliance Matrix: (Units=1/GPa)
#
#
# Indices 1 2 3 4 5 6 
#
# 1 0.012698 0.000464 -0.003799 0.000000 0.000000 0.000000
# 2 0.000464 0.011113 -0.004135 0.000000 0.000000 0.000000
# 3 -0.003799 -0.004135 0.012695 0.000000 0.000000 0.000000
# 4 0.000000 0.000000 0.000000 0.062243 0.000000 0.000000
# 5 0.000000 0.000000 0.000000 0.000000 0.027179 0.000000
# 6 0.000000 0.000000 0.000000 0.000000 0.000000 0.034559
#
#
# Mechanical properties :
#
#
# Convention : Reuss Voigt Hill
#
# Bulk Modulus (GPa) = 46.36855 47.79992 47.08423
# Shear Modulus (GPa) = 27.37963 30.89064 29.13514
#
# Velocity S-wave (km/s) = 3.43308 3.64656 3.54143
# Velocity P-wave (km/s) = 5.97284 6.18919 6.08198
#
# Compressibility (1/GPa) = 0.02156634
#
# Stress axis : x y z
#
# Youngs Moduli (GPa) = 78.75060 89.98411 78.76966
#
# Poissons Ratio (x) = -0.04177 0.29924
# Poissons Ratio (y) = -0.03656 0.32574
# Poissons Ratio (z) = 0.29917 0.37212
#
# Static dielectric constant tensor:
#      x y z
#    x 2.012780 0.000000 0.000000 
#    y 0.000000 1.909670 0.000000 
#    z 0.000000 0.000000 1.906070 
# 
# From -- ./inp_files/15912.got.cif
#   From: 2010.05.17/outbox.cif.g08.bks.cpg/sg20_8_cif.got.tgz:15912.got - 2010.06.03 22:52:26.
