data_PCOD9320106
_publ_section_title
;
Structure prediction by ZEFSAII (Michael W. Deem and Ramdas Pophale) SiO2 
 PCOD9320106
Probable space group: C 2 2 21
;
_chemical_formula_sum "Si O2"
_cell_formula_units_Z 56
_cell_length_a 11.813927
_cell_length_b 14.170982
_cell_length_c 14.917246
_cell_angle_alpha 90.000000
_cell_angle_beta 90.000000
_cell_angle_gamma 90.000000
_cell_volume 2497.369946
_symmetry_space_group_name_H-M "C 2 2 21"
_symmetry_group_IT_number 20
_symmetry_cell_setting 'orthorhombic'
loop_
_space_group_symop_operation_xyz
x,y,z
-x,-y,1/2+z
x,-y,-z
-x,y,1/2-z
1/2+x,1/2+y,z
1/2-x,1/2-y,1/2+z
1/2+x,1/2-y,-z
1/2-x,1/2+y,1/2-z
loop_
_atom_site_type_symbol
_atom_site_label
_atom_site_fract_x
_atom_site_fract_y
_atom_site_fract_z
Si Si1 0.529822 0.858422 0.390915
Si Si2 0.255706 0.259880 0.946830
Si Si3 0.378036 0.460118 0.712229
Si Si4 0.300342 0.253308 0.653894
Si Si5 0.380230 0.329155 0.300744
Si Si6 0.500000 0.020429 0.250000
Si Si7 0.707172 0.945265 0.853614
Si Si8 0.560018 0.000000 0.000000
O O1 0.639660 0.795207 0.403025
O O2 0.423436 0.798773 0.353001
O O3 0.549793 0.948658 0.325311
O O4 0.510419 0.905142 0.490212
O O5 0.143794 0.225561 0.893522
O O6 0.261774 0.367015 0.915084
O O7 0.249795 0.252457 0.053411
O O8 0.500000 0.433973 0.750000
O O9 0.323027 0.364570 0.674153
O O10 0.380587 0.561069 0.664303
O O11 0.302902 0.490622 0.796566
O O12 0.218269 0.206696 0.729872
O O13 0.500000 0.315524 0.250000
O O14 0.397581 0.082177 0.288680
O O15 0.643127 0.015531 0.917921
#
# Coordination Sequence:
#
# PCOD9320106 Si02
#       8
#     8   8   8   8   8   4   8   4
#     4  11  23  43  67 105 136 182 240 291 357 422
#     4  12  26  42  73 104 150 183 231 305 357 430
#     4  11  25  47  72  97 140 194 234 290 360 439
#     4  12  26  45  75 104 145 190 244 296 364 432
#     4  11  27  49  70 107 148 186 239 296 359 428
#     4  10  24  40  78  92 136 182 238 300 342 428
#     4  11  22  43  69 107 131 184 235 290 362 412
#     4  10  22  42  70 100 140 174 242 296 346 426
#
# _framework density 22.423590000000001
#
# number of rings (size 3 to 8) (size 9 to 14) (size 15 to 20)
#    0.000    0.857    2.857    4.286    4.000    4.000 
#    0.000    0.000    0.000    0.000    0.000    0.000 
#    0.000    0.000    0.000    0.000    0.000    0.000 
#
# Total GULP energy -156099.277702 kJ/mol
# GULP energy per Si atom -5574.974204 kJ/mol
# Density = 2.237255 g / cm^3
# Si number density = 22.423590 Si / 1000 Ang^3
#
#
#
# Elastic Constant Matrix: (Units=GPa)
#
#
# Indices 1 2 3 4 5 6 
#
# 1 96.2458 3.2464 17.0517 0.0000 0.0000 0.0000
# 2 3.2464 73.6433 0.7568 0.0000 0.0000 0.0000
# 3 17.0517 0.7568 71.1176 0.0000 0.0000 0.0000
# 4 0.0000 0.0000 0.0000 9.6866 0.0000 0.0000
# 5 0.0000 0.0000 0.0000 0.0000 6.2504 0.0000
# 6 0.0000 0.0000 0.0000 0.0000 0.0000 33.0938
#
#
#
# Elastic Compliance Matrix: (Units=1/GPa)
#
#
# Indices 1 2 3 4 5 6 
#
# 1 0.010866 -0.000452 -0.002601 0.000000 0.000000 0.000000
# 2 -0.000452 0.013599 -0.000036 0.000000 0.000000 0.000000
# 3 -0.002601 -0.000036 0.014685 0.000000 0.000000 0.000000
# 4 0.000000 0.000000 0.000000 0.103235 0.000000 0.000000
# 5 0.000000 0.000000 0.000000 0.000000 0.159990 0.000000
# 6 0.000000 0.000000 0.000000 0.000000 0.000000 0.030217
#
#
# Mechanical properties :
#
#
# Convention : Reuss Voigt Hill
#
# Bulk Modulus (GPa) = 30.32848 31.45738 30.89293
# Shear Modulus (GPa) = 14.29547 24.46962 19.38254
#
# Velocity S-wave (km/s) = 2.52765 3.30698 2.94323
# Velocity P-wave (km/s) = 4.69823 5.35170 5.03557
#
# Compressibility (1/GPa) = 0.03297231
#
# Stress axis : x y z
#
# Youngs Moduli (GPa) = 92.02975 73.53327 68.09618
#
# Poissons Ratio (x) = 0.03326 0.17708
# Poissons Ratio (y) = 0.04162 0.00247
# Poissons Ratio (z) = 0.23932 0.00267
#
# Static dielectric constant tensor:
#      x y z
#    x 1.784080 0.000000 0.000000 
#    y 0.000000 1.822650 0.000000 
#    z 0.000000 0.000000 1.886820 
# 
# From -- ./inp_files/20109.got.cif
#   From: 2010.05.17/outbox.cif.g08.bks.cpg/sg20_11_cif.got.tgz:20109.got - 2010.06.03 22:52:26.
