data_PCOD9320492
_publ_section_title
;
Structure prediction by ZEFSAII (Michael W. Deem and Ramdas Pophale) SiO2 
 PCOD9320492
Probable space group: C 2 2 21
;
_chemical_formula_sum "Si O2"
_cell_formula_units_Z 56
_cell_length_a 13.170542
_cell_length_b 14.888281
_cell_length_c 12.082607
_cell_angle_alpha 90.000000
_cell_angle_beta 90.000000
_cell_angle_gamma 90.000000
_cell_volume 2369.238899
_symmetry_space_group_name_H-M "C 2 2 21"
_symmetry_group_IT_number 20
_symmetry_cell_setting 'orthorhombic'
loop_
_space_group_symop_operation_xyz
x,y,z
-x,-y,1/2+z
x,-y,-z
-x,y,1/2-z
1/2+x,1/2+y,z
1/2-x,1/2-y,1/2+z
1/2+x,1/2-y,-z
1/2-x,1/2+y,1/2-z
loop_
_atom_site_type_symbol
_atom_site_label
_atom_site_fract_x
_atom_site_fract_y
_atom_site_fract_z
Si Si1 0.769762 0.605795 0.497929
Si Si2 0.000000 0.789051 0.750000
Si Si3 0.699158 0.682300 0.719532
Si Si4 0.887168 0.365878 0.714152
Si Si5 0.089071 0.944086 0.898451
Si Si6 0.826220 0.422336 0.922964
Si Si7 0.166389 0.279822 0.404212
Si Si8 0.500000 0.588271 0.750000
O O1 0.741587 0.500000 0.500000
O O2 0.770679 0.644050 0.622911
O O3 0.866333 0.615708 0.414330
O O4 0.694835 0.677656 0.438894
O O5 0.959510 0.854680 0.652252
O O6 0.916164 0.729246 0.808939
O O7 0.688137 0.789527 0.736588
O O8 0.742255 0.664380 0.843733
O O9 0.584336 0.649866 0.691558
O O10 0.858507 0.444970 0.797758
O O11 0.000000 0.340889 0.750000
O O12 0.204320 0.921801 0.926072
O O13 0.077982 0.019497 0.805903
O O14 0.039544 0.000000 0.000000
O O15 0.867217 0.500000 0.000000
O O16 0.863156 0.332069 0.984884
#
# Coordination Sequence:
#
# PCOD9320492 Si02
#       8
#     8   4   8   8   8   8   8   4
#     4  11  27  44  77 106 151 193 245 318 375 437
#     4  11  26  42  68 109 150 192 248 299 368 461
#     4  11  23  45  69 107 143 196 241 306 378 432
#     4  11  25  48  70 104 148 200 255 300 363 459
#     4  10  23  41  69 107 142 179 241 317 377 432
#     4  11  24  48  73  97 142 197 244 314 382 432
#     4  11  26  47  71 106 150 195 249 308 374 445
#     4  11  24  38  74 111 140 182 248 307 382 445
#
# _framework density 23.636282000000001
#
# number of rings (size 3 to 8) (size 9 to 14) (size 15 to 20)
#    0.000    1.143    2.143    3.429   10.000    1.714 
#    3.857    0.000    0.000    0.000    0.000    0.000 
#    0.000    0.000    0.000    0.000    0.000    0.000 
#
# Total GULP energy -155949.105058 kJ/mol
# GULP energy per Si atom -5569.610895 kJ/mol
# Density = 2.358248 g / cm^3
# Si number density = 23.636282 Si / 1000 Ang^3
#
#
#
# Elastic Constant Matrix: (Units=GPa)
#
#
# Indices 1 2 3 4 5 6 
#
# 1 50.0147 30.6869 33.9901 0.0000 0.0000 0.0000
# 2 30.6869 97.8579 29.8548 0.0000 0.0000 0.0000
# 3 33.9901 29.8548 126.9425 0.0000 0.0000 0.0000
# 4 0.0000 0.0000 0.0000 36.4231 0.0000 0.0000
# 5 0.0000 0.0000 0.0000 0.0000 22.1726 0.0000
# 6 0.0000 0.0000 0.0000 0.0000 0.0000 26.0628
#
#
#
# Elastic Compliance Matrix: (Units=1/GPa)
#
#
# Indices 1 2 3 4 5 6 
#
# 1 0.028373 -0.007088 -0.005930 0.000000 0.000000 0.000000
# 2 -0.007088 0.012780 -0.001108 0.000000 0.000000 0.000000
# 3 -0.005930 -0.001108 0.009726 0.000000 0.000000 0.000000
# 4 0.000000 0.000000 0.000000 0.027455 0.000000 0.000000
# 5 0.000000 0.000000 0.000000 0.000000 0.045101 0.000000
# 6 0.000000 0.000000 0.000000 0.000000 0.000000 0.038369
#
#
# Mechanical properties :
#
#
# Convention : Reuss Voigt Hill
#
# Bulk Modulus (GPa) = 44.19550 51.54210 47.86880
# Shear Modulus (GPa) = 25.30390 28.95060 27.12725
#
# Velocity S-wave (km/s) = 3.27548 3.50356 3.39144
# Velocity P-wave (km/s) = 5.74837 6.18226 5.96926
#
# Compressibility (1/GPa) = 0.02262674
#
# Stress axis : x y z
#
# Youngs Moduli (GPa) = 35.24427 78.24970 102.81787
#
# Poissons Ratio (x) = 0.55466 0.60973
# Poissons Ratio (y) = 0.24982 0.11388
# Poissons Ratio (z) = 0.20901 0.08667
#
# Static dielectric constant tensor:
#      x y z
#    x 1.962810 0.000000 0.000000 
#    y 0.000000 1.882260 0.000000 
#    z 0.000000 0.000000 1.839440 
# 
# From -- ./inp_files/15184.got.cif
#   From: 2010.05.17/outbox.cif.g08.bks.cpg/sg20_8_cif.got.tgz:15184.got - 2010.06.03 22:52:26.
