data_PCOD9320811
_publ_section_title
;
Structure prediction by ZEFSAII (Michael W. Deem and Ramdas Pophale) SiO2 
 PCOD9320811
Probable space group: C 2 2 21
;
_chemical_formula_sum "Si O2"
_cell_formula_units_Z 40
_cell_length_a 14.976178
_cell_length_b 18.077881
_cell_length_c 7.709366
_cell_angle_alpha 90.000000
_cell_angle_beta 90.000000
_cell_angle_gamma 90.000000
_cell_volume 2087.214969
_symmetry_space_group_name_H-M "C 2 2 21"
_symmetry_group_IT_number 20
_symmetry_cell_setting 'orthorhombic'
loop_
_space_group_symop_operation_xyz
x,y,z
-x,-y,1/2+z
x,-y,-z
-x,y,1/2-z
1/2+x,1/2+y,z
1/2-x,1/2-y,1/2+z
1/2+x,1/2-y,-z
1/2-x,1/2+y,1/2-z
loop_
_atom_site_type_symbol
_atom_site_label
_atom_site_fract_x
_atom_site_fract_y
_atom_site_fract_z
Si Si1 0.306951 0.862877 0.358900
Si Si2 0.435059 0.749082 0.913091
Si Si3 0.903606 0.125803 0.163588
Si Si4 0.263741 0.219765 0.282287
Si Si5 0.000000 0.336600 0.250000
Si Si6 0.198140 0.000000 0.500000
O O1 0.299321 0.814228 0.536853
O O2 0.261159 0.806838 0.221306
O O3 0.408661 0.877451 0.301483
O O4 0.257470 0.939113 0.400549
O O5 0.500000 0.749673 0.750000
O O6 0.343830 0.787956 0.853548
O O7 0.413325 0.666400 0.977282
O O8 0.476491 0.787507 0.081860
O O9 0.828081 0.175879 0.257956
O O10 0.000000 0.125037 0.250000
O O11 0.862896 0.045597 0.132989
#
# Coordination Sequence:
#
# PCOD9320811 Si02
#       6
#     8   8   8   8   4   4
#     4  11  21  41  66  95 133 174 218 274 330 386
#     4  12  22  37  68 105 128 168 222 280 326 374
#     4  11  23  42  65  97 135 174 224 265 327 400
#     4  11  20  37  66  96 129 170 218 272 319 381
#     4  12  22  40  66 102 128 168 234 278 310 390
#     4  10  24  42  60  94 144 176 202 278 338 386
#
# _framework density 19.164293000000001
#
# number of rings (size 3 to 8) (size 9 to 14) (size 15 to 20)
#    0.000    0.800    9.000    0.000    0.000    0.800 
#    0.000    4.000    0.000   10.800    0.000    0.000 
#    0.000    0.000    0.000    0.000    0.000    0.000 
#
# Total GULP energy -111579.674805 kJ/mol
# GULP energy per Si atom -5578.983740 kJ/mol
# Density = 1.912067 g / cm^3
# Si number density = 19.164293 Si / 1000 Ang^3
#
#
#
# Elastic Constant Matrix: (Units=GPa)
#
#
# Indices 1 2 3 4 5 6 
#
# 1 179.7485 69.6588 65.6912 0.0000 0.0000 0.0000
# 2 69.6588 120.3042 45.4779 0.0000 0.0000 0.0000
# 3 65.6912 45.4779 109.8659 0.0000 0.0000 0.0000
# 4 0.0000 0.0000 0.0000 26.0358 0.0000 0.0000
# 5 0.0000 0.0000 0.0000 0.0000 44.6302 0.0000
# 6 0.0000 0.0000 0.0000 0.0000 0.0000 23.1772
#
#
#
# Elastic Compliance Matrix: (Units=1/GPa)
#
#
# Indices 1 2 3 4 5 6 
#
# 1 0.008150 -0.003411 -0.003461 0.000000 0.000000 0.000000
# 2 -0.003411 0.011281 -0.002631 0.000000 0.000000 0.000000
# 3 -0.003461 -0.002631 0.012260 0.000000 0.000000 0.000000
# 4 0.000000 0.000000 0.000000 0.038409 0.000000 0.000000
# 5 0.000000 0.000000 0.000000 0.000000 0.022406 0.000000
# 6 0.000000 0.000000 0.000000 0.000000 0.000000 0.043146
#
#
# Mechanical properties :
#
#
# Convention : Reuss Voigt Hill
#
# Bulk Modulus (GPa) = 78.82051 85.73049 82.27550
# Shear Modulus (GPa) = 31.46892 34.04136 32.75514
#
# Velocity S-wave (km/s) = 4.05663 4.21918 4.13870
# Velocity P-wave (km/s) = 7.94731 8.28051 8.11562
#
# Compressibility (1/GPa) = 0.01268705
#
# Stress axis : x y z
#
# Youngs Moduli (GPa) = 122.69910 88.64078 81.56279
#
# Poissons Ratio (x) = 0.30232 0.28231
# Poissons Ratio (y) = 0.41848 0.21456
# Poissons Ratio (z) = 0.42470 0.23318
#
# Static dielectric constant tensor:
#      x y z
#    x 1.723520 0.000000 0.000000 
#    y 0.000000 1.656720 0.000000 
#    z 0.000000 0.000000 1.695690 
# 
# From -- ./inp_files/8263.got.cif
#   From: 2010.05.17/outbox.cif.g08.bks.cpg/sg20_5_cif.got.tgz:8263.got - 2010.06.03 22:52:26.
