data_PCOD9320567
_publ_section_title
;
Structure prediction by ZEFSAII (Michael W. Deem and Ramdas Pophale) SiO2 
 PCOD9320567
Probable space group: C 2 2 21
;
_chemical_formula_sum "Si O2"
_cell_formula_units_Z 64
_cell_length_a 31.726411
_cell_length_b 12.223666
_cell_length_c 8.535935
_cell_angle_alpha 90.000000
_cell_angle_beta 90.000000
_cell_angle_gamma 90.000000
_cell_volume 3310.346999
_symmetry_space_group_name_H-M "C 2 2 21"
_symmetry_group_IT_number 20
_symmetry_cell_setting 'orthorhombic'
loop_
_space_group_symop_operation_xyz
x,y,z
-x,-y,1/2+z
x,-y,-z
-x,y,1/2-z
1/2+x,1/2+y,z
1/2-x,1/2-y,1/2+z
1/2+x,1/2-y,-z
1/2-x,1/2+y,1/2-z
loop_
_atom_site_type_symbol
_atom_site_label
_atom_site_fract_x
_atom_site_fract_y
_atom_site_fract_z
Si Si1 0.703230 0.769772 0.188211
Si Si2 0.067488 0.500000 0.188130
Si Si3 0.955764 0.263661 0.187559
Si Si4 0.334587 1.000000 0.690151
Si Si5 0.873444 0.873218 0.810532
Si Si6 0.455764 0.763661 0.812441
Si Si7 0.296770 0.230228 0.311789
Si Si8 0.373444 0.373218 0.189468
O O1 0.687665 0.889319 0.243322
O O2 0.668898 0.682591 0.246919
O O3 0.750000 0.750000 0.250000
O O4 0.703593 0.768423 0.000000
O O5 0.048372 0.388096 0.252922
O O6 0.116636 0.500000 0.235689
O O7 0.048372 0.611904 0.252922
O O8 0.064149 0.500000 0.000000
O O9 0.914666 0.195481 0.240649
O O10 0.000000 0.217717 0.250000
O O11 0.956460 0.263448 1.000000
O O12 0.333590 0.000000 0.500000
O O13 0.312335 0.889319 0.743322
O O14 0.876500 1.000000 0.762970
O O15 0.872106 0.869421 0.000000
O O16 0.500000 0.717717 0.750000
O O17 0.414666 0.695481 0.759351
O O18 0.331102 0.317409 0.253081
#
# Coordination Sequence:
#
# PCOD9320567 Si02
#       8
#     8   8   8   8   8   8   8   8
#     4  11  23  41  63  92 123 159 201 246 299 359
#     4  11  20  38  63  89 122 158 198 247 301 355
#     4  11  23  39  61  90 121 157 200 247 300 360
#     4   9  20  38  62  87 121 158 193 243 302 349
#     4  10  23  43  63  86 120 160 201 250 302 353
#     4  11  23  39  61  90 121 157 200 247 300 360
#     4  11  23  41  63  92 123 159 201 246 299 359
#     4  10  23  43  63  86 120 160 201 250 302 353
#
# _framework density 19.333321000000002
#
# number of rings (size 3 to 8) (size 9 to 14) (size 15 to 20)
#    0.000    1.500    2.500    2.250    1.750    2.000 
#    0.000    1.875    0.000    0.000    0.000    0.000 
#    0.000    0.000    0.000    0.000    0.000    0.000 
#
# Total GULP energy -178855.504577 kJ/mol
# GULP energy per Si atom -5589.234518 kJ/mol
# Density = 1.928932 g / cm^3
# Si number density = 19.333321 Si / 1000 Ang^3
#
#
#
# Elastic Constant Matrix: (Units=GPa)
#
#
# Indices 1 2 3 4 5 6 
#
# 1 198.3444 84.3220 36.5191 0.0000 0.0000 0.0000
# 2 84.3220 146.1068 29.5099 0.0000 0.0000 0.0000
# 3 36.5191 29.5099 39.8777 0.0000 0.0000 0.0000
# 4 0.0000 0.0000 0.0000 20.8441 0.0000 0.0000
# 5 0.0000 0.0000 0.0000 0.0000 36.9640 0.0000
# 6 0.0000 0.0000 0.0000 0.0000 0.0000 58.5707
#
#
#
# Elastic Compliance Matrix: (Units=1/GPa)
#
#
# Indices 1 2 3 4 5 6 
#
# 1 0.007221 -0.003329 -0.004149 0.000000 0.000000 0.000000
# 2 -0.003329 0.009582 -0.004042 0.000000 0.000000 0.000000
# 3 -0.004149 -0.004042 0.031867 0.000000 0.000000 0.000000
# 4 0.000000 0.000000 0.000000 0.047975 0.000000 0.000000
# 5 0.000000 0.000000 0.000000 0.000000 0.027053 0.000000
# 6 0.000000 0.000000 0.000000 0.000000 0.000000 0.017073
#
#
# Mechanical properties :
#
#
# Convention : Reuss Voigt Hill
#
# Bulk Modulus (GPa) = 39.01708 76.11452 57.56580
# Shear Modulus (GPa) = 29.00960 38.87428 33.94194
#
# Velocity S-wave (km/s) = 3.87783 4.48899 4.19456
# Velocity P-wave (km/s) = 6.34627 8.14390 7.30063
#
# Compressibility (1/GPa) = 0.02562980
#
# Stress axis : x y z
#
# Youngs Moduli (GPa) = 138.48257 104.36032 31.38009
#
# Poissons Ratio (x) = 0.34747 0.13020
# Poissons Ratio (y) = 0.46108 0.12683
# Poissons Ratio (z) = 0.57458 0.42181
#
# Static dielectric constant tensor:
#      x y z
#    x 1.662440 0.000000 0.000000 
#    y 0.000000 1.657730 0.000000 
#    z 0.000000 0.000000 1.662060 
# 
# From -- ./inp_files/11610.got.cif
#   From: 2010.05.17/outbox.cif.g08.bks.cpg/sg20_6_cif.got.tgz:11610.got - 2010.06.03 22:52:26.
