data_PCOD9320823
_publ_section_title
;
Structure prediction by ZEFSAII (Michael W. Deem and Ramdas Pophale) SiO2 
 PCOD9320823
Probable space group: C 2 2 21
;
_chemical_formula_sum "Si O2"
_cell_formula_units_Z 36
_cell_length_a 11.528338
_cell_length_b 23.783628
_cell_length_c 5.213158
_cell_angle_alpha 90.000000
_cell_angle_beta 90.000000
_cell_angle_gamma 90.000000
_cell_volume 1429.373388
_symmetry_space_group_name_H-M "C 2 2 21"
_symmetry_group_IT_number 20
_symmetry_cell_setting 'orthorhombic'
loop_
_space_group_symop_operation_xyz
x,y,z
-x,-y,1/2+z
x,-y,-z
-x,y,1/2-z
1/2+x,1/2+y,z
1/2-x,1/2-y,1/2+z
1/2+x,1/2-y,-z
1/2-x,1/2+y,1/2-z
loop_
_atom_site_type_symbol
_atom_site_label
_atom_site_fract_x
_atom_site_fract_y
_atom_site_fract_z
Si Si1 0.730302 0.719401 0.999824
Si Si2 0.286826 0.446836 0.899780
Si Si3 0.000000 0.890063 0.750000
Si Si4 0.000000 0.180143 0.750000
Si Si5 0.621661 0.000000 0.500000
Si Si6 0.622588 0.881656 0.306188
O O1 0.787767 0.762374 0.793648
O O2 0.606348 0.714410 0.861752
O O3 0.802097 0.661492 0.975219
O O4 0.376524 0.419312 0.700459
O O5 0.194991 0.484135 0.746043
O O6 0.363785 0.500000 0.000000
O O7 0.212641 0.404174 0.083393
O O8 0.032885 0.858152 0.490628
O O9 0.573269 0.938120 0.446380
O O10 0.500000 0.851124 0.250000
#
# Coordination Sequence:
#
# PCOD9320823 Si02
#       6
#     8   8   4   4   4   8
#     4  12  29  51  78 110 148 203 263 321 392 460
#     4  10  24  42  67 110 149 202 250 309 385 469
#     4  12  24  43  76 106 154 196 247 316 386 462
#     4  12  26  49  76 104 152 192 253 326 382 456
#     4  10  24  44  72 106 154 196 260 312 396 468
#     4  11  26  47  75 110 154 202 259 320 394 474
#
# _framework density 25.185860000000002
#
# number of rings (size 3 to 8) (size 9 to 14) (size 15 to 20)
#    0.000    0.889    2.222    2.667   15.556    0.000 
#    0.000    0.000    0.000    0.000    0.000    0.000 
#    0.000    0.000    0.000    0.000    0.000    0.000 
#
# Total GULP energy -100201.942813 kJ/mol
# GULP energy per Si atom -5566.774601 kJ/mol
# Density = 2.512854 g / cm^3
# Si number density = 25.185860 Si / 1000 Ang^3
#
#
#
# Elastic Constant Matrix: (Units=GPa)
#
#
# Indices 1 2 3 4 5 6 
#
# 1 93.1038 17.5668 -11.9334 0.0000 0.0000 0.0000
# 2 17.5668 73.5588 15.5712 0.0000 0.0000 0.0000
# 3 -11.9334 15.5712 73.0188 0.0000 0.0000 0.0000
# 4 0.0000 0.0000 0.0000 12.1309 0.0000 0.0000
# 5 0.0000 0.0000 0.0000 0.0000 110.9368 0.0000
# 6 0.0000 0.0000 0.0000 0.0000 0.0000 51.0039
#
#
#
# Elastic Compliance Matrix: (Units=1/GPa)
#
#
# Indices 1 2 3 4 5 6 
#
# 1 0.011710 -0.003353 0.002629 0.000000 0.000000 0.000000
# 2 -0.003353 0.015197 -0.003789 0.000000 0.000000 0.000000
# 3 0.002629 -0.003789 0.014933 0.000000 0.000000 0.000000
# 4 0.000000 0.000000 0.000000 0.082434 0.000000 0.000000
# 5 0.000000 0.000000 0.000000 0.000000 0.009014 0.000000
# 6 0.000000 0.000000 0.000000 0.000000 0.000000 0.019606
#
#
# Mechanical properties :
#
#
# Convention : Reuss Voigt Hill
#
# Bulk Modulus (GPa) = 30.47452 31.34340 30.90896
# Shear Modulus (GPa) = 28.92533 49.37944 39.15238
#
# Velocity S-wave (km/s) = 3.39259 4.43267 3.94704
# Velocity P-wave (km/s) = 5.24141 6.21852 5.75075
#
# Compressibility (1/GPa) = 0.03281430
#
# Stress axis : x y z
#
# Youngs Moduli (GPa) = 85.39486 65.80090 66.96711
#
# Poissons Ratio (x) = 0.22063 -0.17605
# Poissons Ratio (y) = 0.28633 0.25373
# Poissons Ratio (z) = -0.22449 0.24931
#
# Static dielectric constant tensor:
#      x y z
#    x 2.102350 0.000000 0.000000 
#    y 0.000000 2.161220 0.000000 
#    z 0.000000 0.000000 1.851440 
# 
# From -- ./inp_files/1241.got.cif
#   From: 2010.05.17/outbox.cif.g08.bks.cpg/sg20_1_cif.got.tgz:1241.got - 2010.06.03 22:52:26.
