data_PCOD9320402
_publ_section_title
;
Structure prediction by ZEFSAII (Michael W. Deem and Ramdas Pophale) SiO2 
 PCOD9320402
Probable space group: C 2 2 21
;
_chemical_formula_sum "Si O2"
_cell_formula_units_Z 40
_cell_length_a 27.234435
_cell_length_b 11.738559
_cell_length_c 5.088335
_cell_angle_alpha 90.000000
_cell_angle_beta 90.000000
_cell_angle_gamma 90.000000
_cell_volume 1626.705194
_symmetry_space_group_name_H-M "C 2 2 21"
_symmetry_group_IT_number 20
_symmetry_cell_setting 'orthorhombic'
loop_
_space_group_symop_operation_xyz
x,y,z
-x,-y,1/2+z
x,-y,-z
-x,y,1/2-z
1/2+x,1/2+y,z
1/2-x,1/2-y,1/2+z
1/2+x,1/2-y,-z
1/2-x,1/2+y,1/2-z
loop_
_atom_site_type_symbol
_atom_site_label
_atom_site_fract_x
_atom_site_fract_y
_atom_site_fract_z
Si Si1 0.500000 0.583414 0.250000
Si Si2 0.692694 0.671587 0.266904
Si Si3 0.304678 0.169245 0.268903
Si Si4 0.943410 0.817463 0.156654
Si Si5 0.904365 0.432445 0.753912
Si Si6 0.618810 0.500000 0.000000
O O1 0.496428 0.500000 0.500000
O O2 0.453089 0.342990 0.844641
O O3 0.687000 0.732371 0.548469
O O4 0.748704 0.627417 0.247372
O O5 0.688490 0.771055 0.050187
O O6 0.653801 0.576070 0.187255
O O7 0.345198 0.072914 0.240201
O O8 0.919097 0.698408 0.221892
O O9 0.912557 0.915891 0.306361
O O10 0.000000 0.803797 0.250000
O O11 0.921033 0.500000 0.500000
O O12 0.924258 0.500000 0.000000
#
# Coordination Sequence:
#
# PCOD9320402 Si02
#       6
#     4   8   8   8   8   4
#     4  12  26  52  82 122 156 210 248 328 430 502
#     4  10  23  45  78 113 161 208 257 317 404 486
#     4  10  22  49  74 110 162 212 259 323 388 477
#     4  12  29  53  81 112 166 208 270 341 416 485
#     4  12  29  50  80 112 153 215 284 333 398 474
#     4  12  26  54  80 130 156 208 264 338 412 504
#
# _framework density 24.589583999999999
#
# number of rings (size 3 to 8) (size 9 to 14) (size 15 to 20)
#    0.000    0.800    3.000    2.400    4.200    3.200 
#    3.600    0.000    0.000    0.000    0.000    0.000 
#    0.000    0.000    0.000    0.000    0.000    0.000 
#
# Total GULP energy -111940.871262 kJ/mol
# GULP energy per Si atom -5597.043563 kJ/mol
# Density = 2.453362 g / cm^3
# Si number density = 24.589584 Si / 1000 Ang^3
#
#
#
# Elastic Constant Matrix: (Units=GPa)
#
#
# Indices 1 2 3 4 5 6 
#
# 1 129.0872 57.8479 34.0448 0.0000 0.0000 0.0000
# 2 57.8479 133.6704 59.9127 0.0000 0.0000 0.0000
# 3 34.0448 59.9127 140.0410 0.0000 0.0000 0.0000
# 4 0.0000 0.0000 0.0000 31.6451 0.0000 0.0000
# 5 0.0000 0.0000 0.0000 0.0000 45.5429 0.0000
# 6 0.0000 0.0000 0.0000 0.0000 0.0000 22.1922
#
#
#
# Elastic Compliance Matrix: (Units=1/GPa)
#
#
# Indices 1 2 3 4 5 6 
#
# 1 0.009665 -0.003872 -0.000693 0.000000 0.000000 0.000000
# 2 -0.003872 0.010807 -0.003682 0.000000 0.000000 0.000000
# 3 -0.000693 -0.003682 0.008885 0.000000 0.000000 0.000000
# 4 0.000000 0.000000 0.000000 0.031600 0.000000 0.000000
# 5 0.000000 0.000000 0.000000 0.000000 0.021957 0.000000
# 6 0.000000 0.000000 0.000000 0.000000 0.000000 0.045061
#
#
# Mechanical properties :
#
#
# Convention : Reuss Voigt Hill
#
# Bulk Modulus (GPa) = 77.74856 78.48993 78.11925
# Shear Modulus (GPa) = 33.61195 36.60892 35.11044
#
# Velocity S-wave (km/s) = 3.70120 3.86268 3.78280
# Velocity P-wave (km/s) = 7.06769 7.20299 7.13566
#
# Compressibility (1/GPa) = 0.01286197
#
# Stress axis : x y z
#
# Youngs Moduli (GPa) = 103.47053 92.53143 112.55424
#
# Poissons Ratio (x) = 0.35827 0.07801
# Poissons Ratio (y) = 0.40062 0.41445
# Poissons Ratio (z) = 0.07171 0.34073
#
# Static dielectric constant tensor:
#      x y z
#    x 2.036160 0.000000 0.000000 
#    y 0.000000 1.931490 0.000000 
#    z 0.000000 0.000000 2.116400 
# 
# From -- ./inp_files/4101.got.cif
#   From: 2010.05.17/outbox.cif.g08.bks.cpg/sg20_3_cif.got.tgz:4101.got - 2010.06.03 22:52:26.
