data_PCOD9320093
_publ_section_title
;
Structure prediction by ZEFSAII (Michael W. Deem and Ramdas Pophale) SiO2 
 PCOD9320093
Probable space group: C 2 2 21
;
_chemical_formula_sum "Si O2"
_cell_formula_units_Z 56
_cell_length_a 14.615561
_cell_length_b 8.870618
_cell_length_c 19.709585
_cell_angle_alpha 90.000000
_cell_angle_beta 90.000000
_cell_angle_gamma 90.000000
_cell_volume 2555.329138
_symmetry_space_group_name_H-M "C 2 2 21"
_symmetry_group_IT_number 20
_symmetry_cell_setting 'orthorhombic'
loop_
_space_group_symop_operation_xyz
x,y,z
-x,-y,1/2+z
x,-y,-z
-x,y,1/2-z
1/2+x,1/2+y,z
1/2-x,1/2-y,1/2+z
1/2+x,1/2-y,-z
1/2-x,1/2+y,1/2-z
loop_
_atom_site_type_symbol
_atom_site_label
_atom_site_fract_x
_atom_site_fract_y
_atom_site_fract_z
Si Si1 0.346410 0.222912 0.750218
Si Si2 0.701416 0.755979 0.537745
Si Si3 0.226216 0.538169 0.854696
Si Si4 0.992200 0.128028 0.949676
Si Si5 0.741502 0.033830 0.338074
Si Si6 0.825541 0.779669 0.409004
Si Si7 0.072413 0.011653 0.694997
O O1 0.358141 0.118595 0.683284
O O2 0.273935 0.342588 0.716453
O O3 0.416598 0.335834 0.785780
O O4 0.319520 0.095929 0.804684
O O5 0.754124 0.616401 0.573457
O O6 0.599472 0.702318 0.520951
O O7 0.699176 0.880153 0.597571
O O8 0.756708 0.802610 0.471592
O O9 0.209093 0.362490 0.866227
O O10 0.320782 0.564668 0.811439
O O11 0.072604 0.245237 0.935707
O O12 0.964137 0.049157 0.879240
O O13 0.027763 0.000000 0.000000
O O14 0.825907 0.934401 0.366098
O O15 0.000000 0.076919 0.750000
#
# Coordination Sequence:
#
# PCOD9320093 Si02
#       7
#     8   8   8   8   8   8   8
#     4  11  21  40  65  95 131 178 223 278 346 408
#     4  10  23  42  66 100 134 177 227 285 348 413
#     4  10  22  42  68  96 133 176 223 285 347 415
#     4  11  25  43  68 100 137 182 233 286 346 420
#     4  11  21  37  68  94 129 178 231 273 346 409
#     4  12  22  44  70  97 132 183 232 281 349 422
#     4  11  22  40  65  98 133 178 226 284 335 414
#
# _framework density 21.914985999999999
#
# number of rings (size 3 to 8) (size 9 to 14) (size 15 to 20)
#    0.000    1.143    2.857    4.286    0.000    1.143 
#    5.143    2.857    0.000    0.000    0.000    0.000 
#    0.000    0.000    0.000    0.000    0.000    0.000 
#
# Total GULP energy -156140.913076 kJ/mol
# GULP energy per Si atom -5576.461181 kJ/mol
# Density = 2.186511 g / cm^3
# Si number density = 21.914986 Si / 1000 Ang^3
#
#
#
# Elastic Constant Matrix: (Units=GPa)
#
#
# Indices 1 2 3 4 5 6 
#
# 1 73.0881 23.7745 29.4783 0.0000 0.0000 0.0000
# 2 23.7745 115.0948 28.4250 0.0000 0.0000 0.0000
# 3 29.4783 28.4250 89.6803 0.0000 0.0000 0.0000
# 4 0.0000 0.0000 0.0000 45.7393 0.0000 0.0000
# 5 0.0000 0.0000 0.0000 0.0000 23.7849 0.0000
# 6 0.0000 0.0000 0.0000 0.0000 0.0000 15.4121
#
#
#
# Elastic Compliance Matrix: (Units=1/GPa)
#
#
# Indices 1 2 3 4 5 6 
#
# 1 0.016277 -0.002214 -0.004649 0.000000 0.000000 0.000000
# 2 -0.002214 0.009728 -0.002355 0.000000 0.000000 0.000000
# 3 -0.004649 -0.002355 0.013425 0.000000 0.000000 0.000000
# 4 0.000000 0.000000 0.000000 0.021863 0.000000 0.000000
# 5 0.000000 0.000000 0.000000 0.000000 0.042044 0.000000
# 6 0.000000 0.000000 0.000000 0.000000 0.000000 0.064884
#
#
# Mechanical properties :
#
#
# Convention : Reuss Voigt Hill
#
# Bulk Modulus (GPa) = 47.63341 49.02431 48.32886
# Shear Modulus (GPa) = 25.81907 30.06628 27.94267
#
# Velocity S-wave (km/s) = 3.43614 3.70800 3.57466
# Velocity P-wave (km/s) = 6.12580 6.38366 6.25606
#
# Compressibility (1/GPa) = 0.02099367
#
# Stress axis : x y z
#
# Youngs Moduli (GPa) = 61.43541 102.80031 74.48624
#
# Poissons Ratio (x) = 0.22762 0.34626
# Poissons Ratio (y) = 0.13603 0.17545
# Poissons Ratio (z) = 0.28559 0.24214
#
# Static dielectric constant tensor:
#      x y z
#    x 1.850160 0.000000 0.000000 
#    y 0.000000 1.806360 0.000000 
#    z 0.000000 0.000000 1.832950 
# 
# From -- ./inp_files/27576.got.cif
#   From: 2010.05.17/outbox.cif.g08.bks.cpg/sg20_14_cif.got.tgz:27576.got - 2010.06.03 22:52:26.
