data_PCOD9320593
_publ_section_title
;
Structure prediction by ZEFSAII (Michael W. Deem and Ramdas Pophale) SiO2 
 PCOD9320593
Probable space group: C 2 2 21
;
_chemical_formula_sum "Si O2"
_cell_formula_units_Z 48
_cell_length_a 10.040147
_cell_length_b 23.797493
_cell_length_c 9.147481
_cell_angle_alpha 90.000000
_cell_angle_beta 90.000000
_cell_angle_gamma 90.000000
_cell_volume 2185.610635
_symmetry_space_group_name_H-M "C 2 2 21"
_symmetry_group_IT_number 20
_symmetry_cell_setting 'orthorhombic'
loop_
_space_group_symop_operation_xyz
x,y,z
-x,-y,1/2+z
x,-y,-z
-x,y,1/2-z
1/2+x,1/2+y,z
1/2-x,1/2-y,1/2+z
1/2+x,1/2-y,-z
1/2-x,1/2+y,1/2-z
loop_
_atom_site_type_symbol
_atom_site_label
_atom_site_fract_x
_atom_site_fract_y
_atom_site_fract_z
Si Si1 0.686693 0.335515 0.101317
Si Si2 0.115085 0.352904 0.155625
Si Si3 0.598019 0.783744 0.876594
Si Si4 0.162498 0.153078 0.238723
Si Si5 0.211335 0.936040 0.538094
Si Si6 0.066089 0.045620 0.895963
O O1 0.798476 0.322229 0.220834
O O2 0.586689 0.283459 0.115237
O O3 0.644105 0.398597 0.144904
O O4 0.710444 0.339434 0.927903
O O5 0.000000 0.381540 0.250000
O O6 0.063971 0.309481 0.033935
O O7 0.199413 0.397012 0.063510
O O8 0.500000 0.805036 0.750000
O O9 0.748869 0.803794 0.836096
O O10 0.208260 0.091865 0.301473
O O11 0.000000 0.159232 0.250000
O O12 0.058036 0.932234 0.489713
O O13 0.249594 0.000000 0.500000
O O14 0.000000 0.019946 0.750000
O O15 0.135529 0.000000 0.000000
#
# Coordination Sequence:
#
# PCOD9320593 Si02
#       6
#     8   8   8   8   8   8
#     4  12  24  40  69 101 134 176 233 283 355 417
#     4  11  25  46  65  96 135 182 231 285 343 420
#     4  11  26  45  69  94 140 187 232 288 352 425
#     4  11  24  42  67 103 137 181 232 286 355 422
#     4  10  23  43  68  96 138 175 225 290 343 411
#     4  11  23  39  66  99 136 170 218 285 349 406
#
# _framework density 21.961825000000001
#
# number of rings (size 3 to 8) (size 9 to 14) (size 15 to 20)
#    0.000    1.000    3.333    2.500    4.667    4.000 
#    0.000    5.833    0.000    0.000    0.000    0.000 
#    0.000    0.000    0.000    0.000    0.000    0.000 
#
# Total GULP energy -133877.485494 kJ/mol
# GULP energy per Si atom -5578.228562 kJ/mol
# Density = 2.191184 g / cm^3
# Si number density = 21.961825 Si / 1000 Ang^3
#
#
#
# Elastic Constant Matrix: (Units=GPa)
#
#
# Indices 1 2 3 4 5 6 
#
# 1 52.3500 24.2089 32.1230 0.0000 0.0000 0.0000
# 2 24.2089 105.2414 30.2296 0.0000 0.0000 0.0000
# 3 32.1230 30.2296 169.0270 0.0000 0.0000 0.0000
# 4 0.0000 0.0000 0.0000 19.9648 0.0000 0.0000
# 5 0.0000 0.0000 0.0000 0.0000 38.7534 0.0000
# 6 0.0000 0.0000 0.0000 0.0000 0.0000 7.9161
#
#
#
# Elastic Compliance Matrix: (Units=1/GPa)
#
#
# Indices 1 2 3 4 5 6 
#
# 1 0.023348 -0.004318 -0.003665 0.000000 0.000000 0.000000
# 2 -0.004318 0.010815 -0.001114 0.000000 0.000000 0.000000
# 3 -0.003665 -0.001114 0.006812 0.000000 0.000000 0.000000
# 4 0.000000 0.000000 0.000000 0.050088 0.000000 0.000000
# 5 0.000000 0.000000 0.000000 0.000000 0.025804 0.000000
# 6 0.000000 0.000000 0.000000 0.000000 0.000000 0.126324
#
#
# Mechanical properties :
#
#
# Convention : Reuss Voigt Hill
#
# Bulk Modulus (GPa) = 43.89471 55.52679 49.71075
# Shear Modulus (GPa) = 18.58884 29.33066 23.95975
#
# Velocity S-wave (km/s) = 2.91248 3.65845 3.30657
# Velocity P-wave (km/s) = 5.59824 6.57145 6.10427
#
# Compressibility (1/GPa) = 0.02278179
#
# Stress axis : x y z
#
# Youngs Moduli (GPa) = 42.83034 92.46308 146.80229
#
# Poissons Ratio (x) = 0.39926 0.53802
# Poissons Ratio (y) = 0.18494 0.16348
# Poissons Ratio (z) = 0.15697 0.10297
#
# Static dielectric constant tensor:
#      x y z
#    x 1.862320 0.000000 0.000000 
#    y 0.000000 1.861240 0.000000 
#    z 0.000000 0.000000 1.832470 
# 
# From -- ./inp_files/7377.got.cif
#   From: 2010.05.17/outbox.cif.g08.bks.cpg/sg20_4_cif.got.tgz:7377.got - 2010.06.03 22:52:26.
