data_PCOD9320885
_publ_section_title
;
Structure prediction by ZEFSAII (Michael W. Deem and Ramdas Pophale) SiO2 
 PCOD9320885
Probable space group: C 2 2 21
;
_chemical_formula_sum "Si O2"
_cell_formula_units_Z 56
_cell_length_a 11.234683
_cell_length_b 16.641136
_cell_length_c 15.659095
_cell_angle_alpha 90.000000
_cell_angle_beta 90.000000
_cell_angle_gamma 90.000000
_cell_volume 2927.591325
_symmetry_space_group_name_H-M "C 2 2 21"
_symmetry_group_IT_number 20
_symmetry_cell_setting 'orthorhombic'
loop_
_space_group_symop_operation_xyz
x,y,z
-x,-y,1/2+z
x,-y,-z
-x,y,1/2-z
1/2+x,1/2+y,z
1/2-x,1/2-y,1/2+z
1/2+x,1/2-y,-z
1/2-x,1/2+y,1/2-z
loop_
_atom_site_type_symbol
_atom_site_label
_atom_site_fract_x
_atom_site_fract_y
_atom_site_fract_z
Si Si1 0.842109 0.225542 0.112963
Si Si2 0.158967 0.870197 0.123797
Si Si3 0.500000 0.185171 0.750000
Si Si4 0.265420 0.000000 0.000000
Si Si5 0.412258 0.887380 0.873242
Si Si6 0.264212 0.902604 0.309123
Si Si7 0.595621 0.299121 0.421298
Si Si8 0.322452 0.916314 0.681257
O O1 0.748704 0.298153 0.098427
O O2 0.940158 0.259932 0.177729
O O3 0.768986 0.152531 0.154101
O O4 0.898436 0.200325 0.023412
O O5 0.189502 0.891393 0.221694
O O6 0.026003 0.838513 0.112110
O O7 0.187428 0.945826 0.063757
O O8 0.603514 0.129536 0.788777
O O9 0.347740 0.059063 0.055904
O O10 0.397410 0.793053 0.891084
O O11 0.355453 0.907595 0.781246
O O12 0.552735 0.905757 0.868128
O O13 0.204261 0.848548 0.381282
O O14 0.270574 0.995473 0.333668
#
# Coordination Sequence:
#
# PCOD9320885 Si02
#       8
#     8   8   4   4   8   8   8   8
#     4  11  25  43  68 100 135 178 229 284 345 402
#     4  11  24  46  65 103 136 178 227 286 344 414
#     4  10  24  44  68  96 138 176 224 292 350 404
#     4  12  24  42  74 102 136 178 230 292 338 400
#     4  11  23  42  72 100 132 181 232 278 337 410
#     4  11  25  44  69  98 138 178 226 286 350 401
#     4  12  26  43  71  97 140 185 228 280 347 419
#     4  11  24  43  67 100 134 177 228 277 340 407
#
# _framework density 19.128353000000001
#
# number of rings (size 3 to 8) (size 9 to 14) (size 15 to 20)
#    0.000    0.857    4.286    3.000    6.000    4.000 
#    2.571    0.000    0.000    0.000    0.000    0.000 
#    0.000    0.000    0.000    0.000    0.000    0.000 
#
# Total GULP energy -156666.979863 kJ/mol
# GULP energy per Si atom -5595.249281 kJ/mol
# Density = 1.908482 g / cm^3
# Si number density = 19.128353 Si / 1000 Ang^3
#
#
#
# Elastic Constant Matrix: (Units=GPa)
#
#
# Indices 1 2 3 4 5 6 
#
# 1 63.1204 25.1393 8.9366 0.0000 0.0000 0.0000
# 2 25.1393 132.7019 27.8351 0.0000 0.0000 0.0000
# 3 8.9366 27.8351 35.8579 0.0000 0.0000 0.0000
# 4 0.0000 0.0000 0.0000 25.2597 0.0000 0.0000
# 5 0.0000 0.0000 0.0000 0.0000 19.9041 0.0000
# 6 0.0000 0.0000 0.0000 0.0000 0.0000 30.1446
#
#
#
# Elastic Compliance Matrix: (Units=1/GPa)
#
#
# Indices 1 2 3 4 5 6 
#
# 1 0.017268 -0.002829 -0.002107 0.000000 0.000000 0.000000
# 2 -0.002829 0.009465 -0.006642 0.000000 0.000000 0.000000
# 3 -0.002107 -0.006642 0.033569 0.000000 0.000000 0.000000
# 4 0.000000 0.000000 0.000000 0.039589 0.000000 0.000000
# 5 0.000000 0.000000 0.000000 0.000000 0.050241 0.000000
# 6 0.000000 0.000000 0.000000 0.000000 0.000000 0.033173
#
#
# Mechanical properties :
#
#
# Convention : Reuss Voigt Hill
#
# Bulk Modulus (GPa) = 26.92189 39.50026 33.21107
# Shear Modulus (GPa) = 22.84734 26.37962 24.61348
#
# Velocity S-wave (km/s) = 3.45979 3.71763 3.59103
# Velocity P-wave (km/s) = 5.48317 6.25481 5.88166
#
# Compressibility (1/GPa) = 0.03714450
#
# Stress axis : x y z
#
# Youngs Moduli (GPa) = 57.91088 105.65353 29.78935
#
# Poissons Ratio (x) = 0.29892 0.06278
# Poissons Ratio (y) = 0.16384 0.19786
# Poissons Ratio (z) = 0.12204 0.70176
#
# Static dielectric constant tensor:
#      x y z
#    x 1.635570 0.000000 0.000000 
#    y 0.000000 1.633370 0.000000 
#    z 0.000000 0.000000 1.648660 
# 
# From -- ./inp_files/20077.got.cif
#   From: 2010.05.17/outbox.cif.g08.bks.cpg/sg20_11_cif.got.tgz:20077.got - 2010.06.03 22:52:26.
