data_PCOD9320792
_publ_section_title
;
Structure prediction by ZEFSAII (Michael W. Deem and Ramdas Pophale) SiO2 
 PCOD9320792
Probable space group: C 2 2 21
;
_chemical_formula_sum "Si O2"
_cell_formula_units_Z 48
_cell_length_a 8.650202
_cell_length_b 28.350060
_cell_length_c 9.159330
_cell_angle_alpha 90.000000
_cell_angle_beta 90.000000
_cell_angle_gamma 90.000000
_cell_volume 2246.176804
_symmetry_space_group_name_H-M "C 2 2 21"
_symmetry_group_IT_number 20
_symmetry_cell_setting 'orthorhombic'
loop_
_space_group_symop_operation_xyz
x,y,z
-x,-y,1/2+z
x,-y,-z
-x,y,1/2-z
1/2+x,1/2+y,z
1/2-x,1/2-y,1/2+z
1/2+x,1/2-y,-z
1/2-x,1/2+y,1/2-z
loop_
_atom_site_type_symbol
_atom_site_label
_atom_site_fract_x
_atom_site_fract_y
_atom_site_fract_z
Si Si1 0.961475 0.450207 0.578554
Si Si2 0.216809 0.127914 0.489760
Si Si3 0.500000 0.593064 0.750000
Si Si4 0.377714 0.782227 0.433372
Si Si5 0.736484 0.202699 0.624038
Si Si6 0.500000 0.384917 0.750000
Si Si7 0.782601 0.905723 0.485708
O O1 0.943985 0.500000 0.500000
O O2 0.111116 0.424539 0.508733
O O3 0.000000 0.454792 0.750000
O O4 0.806275 0.420054 0.550125
O O5 0.109789 0.120323 0.632639
O O6 0.345658 0.167257 0.496532
O O7 0.107048 0.143778 0.358382
O O8 0.621753 0.567886 0.857465
O O9 0.258850 0.785498 0.296215
O O10 0.558117 0.783824 0.401751
O O11 0.340270 0.737766 0.531641
O O12 0.769707 0.148918 0.571803
O O13 0.383662 0.410127 0.634688
#
# Coordination Sequence:
#
# PCOD9320792 Si02
#       7
#     8   8   4   8   8   4   8
#     4  12  28  48  76 106 138 187 241 294 351 424
#     4  11  23  47  70 102 141 184 234 284 357 414
#     4  10  24  40  77 100 132 188 216 288 349 418
#     4  11  26  41  64  97 136 181 233 282 341 413
#     4  11  26  41  64  97 136 181 233 282 341 413
#     4  10  24  40  73  96 138 180 222 280 345 422
#     4  11  23  47  70 102 141 184 234 284 357 414
#
# _framework density 21.369644000000001
#
# number of rings (size 3 to 8) (size 9 to 14) (size 15 to 20)
#    0.000    1.000    5.000    0.000    9.333    0.667 
#    0.000    5.000    0.000    0.000    0.000    0.000 
#    0.000    0.000    0.000    0.000    0.000    0.000 
#
# Total GULP energy -133831.393462 kJ/mol
# GULP energy per Si atom -5576.308061 kJ/mol
# Density = 2.132101 g / cm^3
# Si number density = 21.369644 Si / 1000 Ang^3
#
#
#
# Elastic Constant Matrix: (Units=GPa)
#
#
# Indices 1 2 3 4 5 6 
#
# 1 53.7881 -4.6131 16.8351 0.0000 0.0000 0.0000
# 2 -4.6131 80.3740 13.1866 0.0000 0.0000 0.0000
# 3 16.8351 13.1866 100.3450 0.0000 0.0000 0.0000
# 4 0.0000 0.0000 0.0000 10.0514 0.0000 0.0000
# 5 0.0000 0.0000 0.0000 0.0000 36.0116 0.0000
# 6 0.0000 0.0000 0.0000 0.0000 0.0000 80.1174
#
#
#
# Elastic Compliance Matrix: (Units=1/GPa)
#
#
# Indices 1 2 3 4 5 6 
#
# 1 0.019853 0.001723 -0.003557 0.000000 0.000000 0.000000
# 2 0.001723 0.012866 -0.001980 0.000000 0.000000 0.000000
# 3 -0.003557 -0.001980 0.010823 0.000000 0.000000 0.000000
# 4 0.000000 0.000000 0.000000 0.099489 0.000000 0.000000
# 5 0.000000 0.000000 0.000000 0.000000 0.027769 0.000000
# 6 0.000000 0.000000 0.000000 0.000000 0.000000 0.012482
#
#
# Mechanical properties :
#
#
# Convention : Reuss Voigt Hill
#
# Bulk Modulus (GPa) = 27.84512 31.70272 29.77392
# Shear Modulus (GPa) = 24.64529 39.17599 31.91064
#
# Velocity S-wave (km/s) = 3.39969 4.28630 3.86848
# Velocity P-wave (km/s) = 5.33564 6.27408 5.82379
#
# Compressibility (1/GPa) = 0.03591294
#
# Stress axis : x y z
#
# Youngs Moduli (GPa) = 50.37128 77.72705 92.39944
#
# Poissons Ratio (x) = -0.13393 0.32868
# Poissons Ratio (y) = -0.08679 0.18293
# Poissons Ratio (z) = 0.17918 0.15388
#
# Static dielectric constant tensor:
#      x y z
#    x 1.774990 0.000000 0.000000 
#    y 0.000000 1.749780 0.000000 
#    z 0.000000 0.000000 1.729020 
# 
# From -- ./inp_files/6595.got.cif
#   From: 2010.05.17/outbox.cif.g08.bks.cpg/sg20_4_cif.got.tgz:6595.got - 2010.06.03 22:52:26.
