data_PCOD9320579
_publ_section_title
;
Structure prediction by ZEFSAII (Michael W. Deem and Ramdas Pophale) SiO2 
 PCOD9320579
Probable space group: C 2 2 21
;
_chemical_formula_sum "Si O2"
_cell_formula_units_Z 40
_cell_length_a 26.988295
_cell_length_b 13.841807
_cell_length_c 5.085839
_cell_angle_alpha 90.000000
_cell_angle_beta 90.000000
_cell_angle_gamma 90.000000
_cell_volume 1899.900451
_symmetry_space_group_name_H-M "C 2 2 21"
_symmetry_group_IT_number 20
_symmetry_cell_setting 'orthorhombic'
loop_
_space_group_symop_operation_xyz
x,y,z
-x,-y,1/2+z
x,-y,-z
-x,y,1/2-z
1/2+x,1/2+y,z
1/2-x,1/2-y,1/2+z
1/2+x,1/2-y,-z
1/2-x,1/2+y,1/2-z
loop_
_atom_site_type_symbol
_atom_site_label
_atom_site_fract_x
_atom_site_fract_y
_atom_site_fract_z
Si Si1 0.377119 0.872957 0.798014
Si Si2 0.295508 0.000000 0.000000
Si Si3 0.440965 0.564442 0.249872
Si Si4 0.966503 0.500000 0.000000
Si Si5 0.234747 0.190539 0.992069
Si Si6 0.130123 0.241496 0.201431
O O1 0.382233 0.819244 0.523175
O O2 0.334337 0.954771 0.791016
O O3 0.429095 0.918578 0.890060
O O4 0.361355 0.798877 0.028559
O O5 0.260227 0.911127 0.078282
O O6 0.427965 0.500000 0.500000
O O7 0.500000 0.580503 0.250000
O O8 0.413032 0.665086 0.255769
O O9 0.427566 0.500000 0.000000
O O10 0.000000 0.469503 0.250000
O O11 0.237592 0.258453 0.737070
O O12 0.178679 0.185433 0.097360
#
# Coordination Sequence:
#
# PCOD9320579 Si02
#       6
#     8   4   8   4   8   8
#     4  11  25  42  69  94 136 180 219 281 353 407
#     4  11  24  46  66  96 142 182 216 287 358 394
#     4  10  23  43  66  95 133 174 220 279 348 406
#     4  11  24  44  66 102 134 172 230 281 344 422
#     4  12  25  44  67 101 136 178 230 276 339 426
#     4  12  23  44  66 101 131 174 234 279 333 426
#
# _framework density 21.053733000000001
#
# number of rings (size 3 to 8) (size 9 to 14) (size 15 to 20)
#    0.000    0.800    4.000    2.400    1.400    7.200 
#    0.000    0.000    0.000    0.000    0.000    0.000 
#    0.000    0.000    0.000    0.000    0.000    0.000 
#
# Total GULP energy -111876.040781 kJ/mol
# GULP energy per Si atom -5593.802039 kJ/mol
# Density = 2.100581 g / cm^3
# Si number density = 21.053733 Si / 1000 Ang^3
#
#
#
# Elastic Constant Matrix: (Units=GPa)
#
#
# Indices 1 2 3 4 5 6 
#
# 1 65.8999 23.5800 9.9281 0.0000 0.0000 0.0000
# 2 23.5800 93.2139 26.3228 0.0000 0.0000 0.0000
# 3 9.9281 26.3228 126.7974 0.0000 0.0000 0.0000
# 4 0.0000 0.0000 0.0000 48.3234 0.0000 0.0000
# 5 0.0000 0.0000 0.0000 0.0000 31.1582 0.0000
# 6 0.0000 0.0000 0.0000 0.0000 0.0000 36.3264
#
#
#
# Elastic Compliance Matrix: (Units=1/GPa)
#
#
# Indices 1 2 3 4 5 6 
#
# 1 0.016710 -0.004098 -0.000458 0.000000 0.000000 0.000000
# 2 -0.004098 0.012401 -0.002254 0.000000 0.000000 0.000000
# 3 -0.000458 -0.002254 0.008390 0.000000 0.000000 0.000000
# 4 0.000000 0.000000 0.000000 0.020694 0.000000 0.000000
# 5 0.000000 0.000000 0.000000 0.000000 0.032094 0.000000
# 6 0.000000 0.000000 0.000000 0.000000 0.000000 0.027528
#
#
# Mechanical properties :
#
#
# Convention : Reuss Voigt Hill
#
# Bulk Modulus (GPa) = 41.87077 45.06365 43.46721
# Shear Modulus (GPa) = 35.86893 38.23361 37.05127
#
# Velocity S-wave (km/s) = 4.13205 4.26608 4.19960
# Velocity P-wave (km/s) = 6.53421 6.76140 6.64877
#
# Compressibility (1/GPa) = 0.02388301
#
# Stress axis : x y z
#
# Youngs Moduli (GPa) = 59.84535 80.63867 119.18578
#
# Poissons Ratio (x) = 0.33044 0.05455
# Poissons Ratio (y) = 0.24523 0.26859
# Poissons Ratio (z) = 0.02739 0.18172
#
# Static dielectric constant tensor:
#      x y z
#    x 1.773750 0.000000 0.000000 
#    y 0.000000 1.731320 0.000000 
#    z 0.000000 0.000000 1.720520 
# 
# From -- ./inp_files/4114.got.cif
#   From: 2010.05.17/outbox.cif.g08.bks.cpg/sg20_3_cif.got.tgz:4114.got - 2010.06.03 22:52:26.
