data_PCOD9320322
_publ_section_title
;
Structure prediction by ZEFSAII (Michael W. Deem and Ramdas Pophale) SiO2 
 PCOD9320322
Probable space group: C 2 2 21
;
_chemical_formula_sum "Si O2"
_cell_formula_units_Z 48
_cell_length_a 4.954029
_cell_length_b 14.262418
_cell_length_c 26.819694
_cell_angle_alpha 90.000000
_cell_angle_beta 90.000000
_cell_angle_gamma 90.000000
_cell_volume 1894.983896
_symmetry_space_group_name_H-M "C 2 2 21"
_symmetry_group_IT_number 20
_symmetry_cell_setting 'orthorhombic'
loop_
_space_group_symop_operation_xyz
x,y,z
-x,-y,1/2+z
x,-y,-z
-x,y,1/2-z
1/2+x,1/2+y,z
1/2-x,1/2-y,1/2+z
1/2+x,1/2-y,-z
1/2-x,1/2+y,1/2-z
loop_
_atom_site_type_symbol
_atom_site_label
_atom_site_fract_x
_atom_site_fract_y
_atom_site_fract_z
Si Si1 0.686841 0.862252 0.147097
Si Si2 0.309916 0.536043 0.605615
Si Si3 0.500000 0.947561 0.250000
Si Si4 0.426423 0.824575 0.554885
Si Si5 0.430162 0.621525 0.506015
Si Si6 0.040095 0.157501 0.356103
Si Si7 0.000000 0.081855 0.250000
O O1 0.494011 0.929247 0.113986
O O2 0.602893 0.886482 0.203591
O O3 0.990730 0.892603 0.135182
O O4 0.618796 0.754632 0.135588
O O5 0.376252 0.542816 0.547033
O O6 0.379017 0.435305 0.627866
O O7 0.217737 0.357594 0.537573
O O8 0.250573 0.014918 0.235875
O O9 0.405841 0.715758 0.540210
O O10 0.224028 0.878625 0.517664
O O11 0.308211 0.839589 0.609871
O O12 0.089931 0.143238 0.297346
#
# Coordination Sequence:
#
# PCOD9320322 Si02
#       7
#     8   8   4   8   8   8   4
#     4  12  26  46  77 108 154 202 253 314 392 444
#     4  12  26  47  77 111 153 196 256 320 381 460
#     4  12  23  52  71 110 156 206 247 328 391 444
#     4  10  23  41  77 102 149 198 253 301 387 449
#     4  10  22  45  70 108 147 198 246 318 371 458
#     4  12  27  49  80 116 149 209 261 318 388 471
#     4  12  27  48  77 114 158 196 265 318 385 478
#
# _framework density 25.330031000000002
#
# number of rings (size 3 to 8) (size 9 to 14) (size 15 to 20)
#    0.000    0.667    5.000    1.500    4.667    6.000 
#    0.000    3.333    0.000    0.000    0.000    0.000 
#    0.000    0.000    0.000    0.000    0.000    0.000 
#
# Total GULP energy -134704.862476 kJ/mol
# GULP energy per Si atom -5612.702603 kJ/mol
# Density = 2.527238 g / cm^3
# Si number density = 25.330031 Si / 1000 Ang^3
#
#
#
# Elastic Constant Matrix: (Units=GPa)
#
#
# Indices 1 2 3 4 5 6 
#
# 1 53.2606 18.0964 -2.8924 0.0000 0.0000 0.0000
# 2 18.0964 151.0085 21.3532 0.0000 0.0000 0.0000
# 3 -2.8924 21.3532 177.6552 0.0000 0.0000 0.0000
# 4 0.0000 0.0000 0.0000 39.1660 0.0000 0.0000
# 5 0.0000 0.0000 0.0000 0.0000 37.8557 0.0000
# 6 0.0000 0.0000 0.0000 0.0000 0.0000 17.3924
#
#
#
# Elastic Compliance Matrix: (Units=1/GPa)
#
#
# Indices 1 2 3 4 5 6 
#
# 1 0.019638 -0.002440 0.000613 0.000000 0.000000 0.000000
# 2 -0.002440 0.007040 -0.000886 0.000000 0.000000 0.000000
# 3 0.000613 -0.000886 0.005745 0.000000 0.000000 0.000000
# 4 0.000000 0.000000 0.000000 0.025532 0.000000 0.000000
# 5 0.000000 0.000000 0.000000 0.000000 0.026416 0.000000
# 6 0.000000 0.000000 0.000000 0.000000 0.000000 0.057496
#
#
# Mechanical properties :
#
#
# Convention : Reuss Voigt Hill
#
# Bulk Modulus (GPa) = 37.04075 50.55986 43.80031
# Shear Modulus (GPa) = 31.99121 41.90728 36.94925
#
# Velocity S-wave (km/s) = 3.55769 4.07191 3.82345
# Velocity P-wave (km/s) = 5.61527 6.48930 6.06804
#
# Compressibility (1/GPa) = 0.02699729
#
# Stress axis : x y z
#
# Youngs Moduli (GPa) = 50.92182 142.04920 174.05416
#
# Poissons Ratio (x) = 0.34660 -0.10670
# Poissons Ratio (y) = 0.12425 0.15419
# Poissons Ratio (z) = -0.03122 0.12584
#
# Static dielectric constant tensor:
#      x y z
#    x 1.926610 0.000000 0.000000 
#    y 0.000000 2.019040 0.000000 
#    z 0.000000 0.000000 2.042600 
# 
# From -- ./inp_files/29845.got.cif
#   From: 2010.05.17/outbox.cif.g08.bks.cpg/sg20_15_cif.got.tgz:29845.got - 2010.06.03 22:52:26.
