data_PCOD9320463
_publ_section_title
;
Structure prediction by ZEFSAII (Michael W. Deem and Ramdas Pophale) SiO2 
 PCOD9320463
Probable space group: C 2 2 21
;
_chemical_formula_sum "Si O2"
_cell_formula_units_Z 44
_cell_length_a 8.411284
_cell_length_b 11.022627
_cell_length_c 22.213878
_cell_angle_alpha 90.000000
_cell_angle_beta 90.000000
_cell_angle_gamma 90.000000
_cell_volume 2059.547395
_symmetry_space_group_name_H-M "C 2 2 21"
_symmetry_group_IT_number 20
_symmetry_cell_setting 'orthorhombic'
loop_
_space_group_symop_operation_xyz
x,y,z
-x,-y,1/2+z
x,-y,-z
-x,y,1/2-z
1/2+x,1/2+y,z
1/2-x,1/2-y,1/2+z
1/2+x,1/2-y,-z
1/2-x,1/2+y,1/2-z
loop_
_atom_site_type_symbol
_atom_site_label
_atom_site_fract_x
_atom_site_fract_y
_atom_site_fract_z
Si Si1 0.087411 0.705861 0.954509
Si Si2 0.630344 0.892537 0.548664
Si Si3 0.325015 0.925757 0.253757
Si Si4 0.000000 0.069286 0.250000
Si Si5 0.134448 0.222075 0.347559
Si Si6 0.371327 0.004222 0.378974
O O1 0.212085 0.813352 0.946345
O O2 0.166504 0.576355 0.937630
O O3 0.941784 0.723856 0.907581
O O4 0.007772 0.692256 0.019633
O O5 0.656580 0.000000 0.500000
O O6 0.551973 0.949999 0.608614
O O7 0.500000 0.989326 0.250000
O O8 0.317948 0.820044 0.203903
O O9 0.334574 0.906846 0.325926
O O10 0.163345 0.997430 0.246568
O O11 0.004055 0.147090 0.310497
O O12 0.268821 0.123738 0.365018
#
# Coordination Sequence:
#
# PCOD9320463 Si02
#       6
#     8   8   8   4   8   8
#     4  11  22  41  64  91 129 162 218 270 320 391
#     4  10  24  41  64  96 123 172 213 264 332 379
#     4  11  22  43  62  92 135 168 215 272 316 395
#     4  10  24  38  60  94 124 174 220 256 342 388
#     4  11  22  41  61  91 129 165 216 273 317 396
#     4  10  23  41  63  90 126 170 211 266 325 382
#
# _framework density 21.363916
#
# number of rings (size 3 to 8) (size 9 to 14) (size 15 to 20)
#    0.000    1.455    2.727    1.091    2.545    4.364 
#    6.545    0.000    0.000    0.000    0.000    0.000 
#    0.000    0.000    0.000    0.000    0.000    0.000 
#
# Total GULP energy -122487.723760 kJ/mol
# GULP energy per Si atom -5567.623807 kJ/mol
# Density = 2.131529 g / cm^3
# Si number density = 21.363916 Si / 1000 Ang^3
#
#
#
# Elastic Constant Matrix: (Units=GPa)
#
#
# Indices 1 2 3 4 5 6 
#
# 1 85.9577 58.3477 17.1018 0.0000 0.0000 0.0000
# 2 58.3477 104.7934 30.5789 0.0000 0.0000 0.0000
# 3 17.1018 30.5789 75.3196 0.0000 0.0000 0.0000
# 4 0.0000 0.0000 0.0000 14.7544 0.0000 0.0000
# 5 0.0000 0.0000 0.0000 0.0000 27.9222 0.0000
# 6 0.0000 0.0000 0.0000 0.0000 0.0000 4.6001
#
#
#
# Elastic Compliance Matrix: (Units=1/GPa)
#
#
# Indices 1 2 3 4 5 6 
#
# 1 0.018702 -0.010407 -0.000021 0.000000 0.000000 0.000000
# 2 -0.010407 0.016616 -0.004383 0.000000 0.000000 0.000000
# 3 -0.000021 -0.004383 0.015061 0.000000 0.000000 0.000000
# 4 0.000000 0.000000 0.000000 0.067777 0.000000 0.000000
# 5 0.000000 0.000000 0.000000 0.000000 0.035814 0.000000
# 6 0.000000 0.000000 0.000000 0.000000 0.000000 0.217386
#
#
# Mechanical properties :
#
#
# Convention : Reuss Voigt Hill
#
# Bulk Modulus (GPa) = 48.17718 53.12527 50.65122
# Shear Modulus (GPa) = 12.25800 20.12481 16.19141
#
# Velocity S-wave (km/s) = 2.39795 3.07253 2.75596
# Velocity P-wave (km/s) = 5.50151 6.12438 5.82128
#
# Compressibility (1/GPa) = 0.02075671
#
# Stress axis : x y z
#
# Youngs Moduli (GPa) = 53.47033 60.18329 66.39650
#
# Poissons Ratio (x) = 0.62631 0.00142
# Poissons Ratio (y) = 0.55645 0.29101
# Poissons Ratio (z) = 0.00114 0.26378
#
# Static dielectric constant tensor:
#      x y z
#    x 1.921100 0.000000 0.000000 
#    y 0.000000 1.849860 0.000000 
#    z 0.000000 0.000000 1.922590 
# 
# From -- ./inp_files/28668.got.cif
#   From: 2010.05.17/outbox.cif.g08.bks.cpg/sg20_15_cif.got.tgz:28668.got - 2010.06.03 22:52:26.
