data_PCOD9320566
_publ_section_title
;
Structure prediction by ZEFSAII (Michael W. Deem and Ramdas Pophale) SiO2 
 PCOD9320566
Probable space group: C 2 2 21
;
_chemical_formula_sum "Si O2"
_cell_formula_units_Z 60
_cell_length_a 5.758364
_cell_length_b 28.765038
_cell_length_c 16.616471
_cell_angle_alpha 90.000000
_cell_angle_beta 90.000000
_cell_angle_gamma 90.000000
_cell_volume 2752.344933
_symmetry_space_group_name_H-M "C 2 2 21"
_symmetry_group_IT_number 20
_symmetry_cell_setting 'orthorhombic'
loop_
_space_group_symop_operation_xyz
x,y,z
-x,-y,1/2+z
x,-y,-z
-x,y,1/2-z
1/2+x,1/2+y,z
1/2-x,1/2-y,1/2+z
1/2+x,1/2-y,-z
1/2-x,1/2+y,1/2-z
loop_
_atom_site_type_symbol
_atom_site_label
_atom_site_fract_x
_atom_site_fract_y
_atom_site_fract_z
Si Si1 0.184222 0.736741 0.192454
Si Si2 0.508201 0.826299 0.555318
Si Si3 0.500000 0.342464 0.750000
Si Si4 0.748896 0.496295 0.800063
Si Si5 0.487944 0.915263 0.154067
Si Si6 0.851160 0.902473 0.605617
Si Si7 0.756577 0.320557 0.102094
Si Si8 0.367181 0.620495 0.950064
O O1 0.291292 0.694186 0.242084
O O2 0.336143 0.778436 0.157849
O O3 0.000000 0.760365 0.250000
O O4 0.069384 0.713559 0.114751
O O5 0.625974 0.869736 0.599830
O O6 0.692914 0.807630 0.490358
O O7 0.298084 0.848280 0.506002
O O8 0.504940 0.374758 0.671573
O O9 0.500000 0.502474 0.750000
O O10 0.814061 0.541290 0.854105
O O11 0.707744 0.451822 0.856101
O O12 0.000000 0.489517 0.750000
O O13 0.500000 0.910831 0.250000
O O14 0.393737 0.866984 0.122086
O O15 0.730392 0.917005 0.104992
O O16 0.963311 0.903106 0.516615
O O17 0.496751 0.341196 0.105189
#
# Coordination Sequence:
#
# PCOD9320566 Si02
#       8
#     8   8   4   8   8   8   8   8
#     4  12  26  38  66 102 138 185 241 296 366 440
#     4  10  23  43  62  98 140 183 229 297 362 440
#     4  12  24  40  66 102 146 184 236 308 358 466
#     4  11  27  45  81 113 144 200 249 313 392 459
#     4  10  25  48  74  99 143 186 252 306 367 446
#     4  11  23  44  72 104 147 186 242 302 388 453
#     4  10  26  42  68  97 137 189 241 299 366 439
#     4  10  23  46  71  98 142 194 232 312 368 441
#
# _framework density 21.799593999999999
#
# number of rings (size 3 to 8) (size 9 to 14) (size 15 to 20)
#    0.000    1.333    3.333    0.000   12.133    1.067 
#    0.000    7.333    0.000    0.000    0.000    0.000 
#    0.000    0.000    0.000    0.000    0.000    0.000 
#
# Total GULP energy -167169.581286 kJ/mol
# GULP energy per Si atom -5572.319376 kJ/mol
# Density = 2.174998 g / cm^3
# Si number density = 21.799594 Si / 1000 Ang^3
#
#
#
# Elastic Constant Matrix: (Units=GPa)
#
#
# Indices 1 2 3 4 5 6 
#
# 1 66.3329 19.0381 17.5576 0.0000 0.0000 0.0000
# 2 19.0381 102.6002 41.6640 0.0000 0.0000 0.0000
# 3 17.5576 41.6640 81.8815 0.0000 0.0000 0.0000
# 4 0.0000 0.0000 0.0000 28.2670 0.0000 0.0000
# 5 0.0000 0.0000 0.0000 0.0000 33.8182 0.0000
# 6 0.0000 0.0000 0.0000 0.0000 0.0000 2.8785
#
#
#
# Elastic Compliance Matrix: (Units=1/GPa)
#
#
# Indices 1 2 3 4 5 6 
#
# 1 0.016310 -0.002025 -0.002467 0.000000 0.000000 0.000000
# 2 -0.002025 0.012536 -0.005945 0.000000 0.000000 0.000000
# 3 -0.002467 -0.005945 0.015767 0.000000 0.000000 0.000000
# 4 0.000000 0.000000 0.000000 0.035377 0.000000 0.000000
# 5 0.000000 0.000000 0.000000 0.000000 0.029570 0.000000
# 6 0.000000 0.000000 0.000000 0.000000 0.000000 0.347403
#
#
# Mechanical properties :
#
#
# Convention : Reuss Voigt Hill
#
# Bulk Modulus (GPa) = 42.12332 45.25932 43.69132
# Shear Modulus (GPa) = 10.29341 24.49640 17.39490
#
# Velocity S-wave (km/s) = 2.17534 3.35581 2.82786
# Velocity P-wave (km/s) = 5.06699 5.98514 5.54510
#
# Compressibility (1/GPa) = 0.02373982
#
# Stress axis : x y z
#
# Youngs Moduli (GPa) = 61.31380 79.76842 63.42494
#
# Poissons Ratio (x) = 0.16149 0.15647
# Poissons Ratio (y) = 0.12413 0.37705
# Poissons Ratio (z) = 0.15126 0.47420
#
# Static dielectric constant tensor:
#      x y z
#    x 2.000730 0.000000 0.000000 
#    y 0.000000 1.762330 0.000000 
#    z 0.000000 0.000000 1.862190 
# 
# From -- ./inp_files/22912.got.cif
#   From: 2010.05.17/outbox.cif.g08.bks.cpg/sg20_12_cif.got.tgz:22912.got - 2010.06.03 22:52:26.
