data_PCOD9320266
_publ_section_title
;
Structure prediction by ZEFSAII (Michael W. Deem and Ramdas Pophale) SiO2 
 PCOD9320266
Probable space group: C 2 2 21
;
_chemical_formula_sum "Si O2"
_cell_formula_units_Z 36
_cell_length_a 8.824838
_cell_length_b 21.358371
_cell_length_c 8.648223
_cell_angle_alpha 90.000000
_cell_angle_beta 90.000000
_cell_angle_gamma 90.000000
_cell_volume 1630.053082
_symmetry_space_group_name_H-M "C 2 2 21"
_symmetry_group_IT_number 20
_symmetry_cell_setting 'orthorhombic'
loop_
_space_group_symop_operation_xyz
x,y,z
-x,-y,1/2+z
x,-y,-z
-x,y,1/2-z
1/2+x,1/2+y,z
1/2-x,1/2-y,1/2+z
1/2+x,1/2-y,-z
1/2-x,1/2+y,1/2-z
loop_
_atom_site_type_symbol
_atom_site_label
_atom_site_fract_x
_atom_site_fract_y
_atom_site_fract_z
Si Si1 0.740205 0.363697 0.378798
Si Si2 0.218072 0.500000 0.500000
Si Si3 0.000000 0.787612 0.250000
Si Si4 0.000000 0.547478 0.750000
Si Si5 0.547341 0.604738 0.080748
Si Si6 0.434586 0.750054 0.422065
O O1 0.646850 0.332757 0.236270
O O2 0.606766 0.393910 0.480019
O O3 0.811052 0.302561 0.457816
O O4 0.878772 0.408837 0.339688
O O5 0.106226 0.494281 0.356361
O O6 0.325937 0.440034 0.511735
O O7 0.019993 0.751215 0.410942
O O8 0.500000 0.580904 0.250000
O O9 0.603532 0.676621 0.100142
O O10 0.500000 0.767839 0.250000
#
# Coordination Sequence:
#
# PCOD9320266 Si02
#       6
#     8   4   4   4   8   8
#     4  11  24  46  75 108 147 186 241 311 379 444
#     4  12  30  48  74 102 148 198 256 308 366 448
#     4  10  24  38  71 102 153 196 220 290 378 454
#     4  12  28  48  75 106 143 190 252 318 372 428
#     4  10  26  47  76 106 147 198 247 300 376 456
#     4  10  22  44  70 112 145 184 238 301 367 447
#
# _framework density 22.085170999999999
#
# number of rings (size 3 to 8) (size 9 to 14) (size 15 to 20)
#    0.000    1.333    1.111    2.667   15.556    3.556 
#    0.000    1.111    0.000    0.000    0.000    0.000 
#    0.000    0.000    0.000    0.000    0.000    0.000 
#
# Total GULP energy -100330.886282 kJ/mol
# GULP energy per Si atom -5573.938127 kJ/mol
# Density = 2.203490 g / cm^3
# Si number density = 22.085171 Si / 1000 Ang^3
#
#
#
# Elastic Constant Matrix: (Units=GPa)
#
#
# Indices 1 2 3 4 5 6 
#
# 1 156.4288 62.2018 57.0389 0.0000 0.0000 0.0000
# 2 62.2018 73.4350 17.6236 0.0000 0.0000 0.0000
# 3 57.0389 17.6236 137.0155 0.0000 0.0000 0.0000
# 4 0.0000 0.0000 0.0000 10.3955 0.0000 0.0000
# 5 0.0000 0.0000 0.0000 0.0000 45.0760 0.0000
# 6 0.0000 0.0000 0.0000 0.0000 0.0000 63.8890
#
#
#
# Elastic Compliance Matrix: (Units=1/GPa)
#
#
# Indices 1 2 3 4 5 6 
#
# 1 0.011064 -0.008529 -0.003509 0.000000 0.000000 0.000000
# 2 -0.008529 0.020627 0.000898 0.000000 0.000000 0.000000
# 3 -0.003509 0.000898 0.008644 0.000000 0.000000 0.000000
# 4 0.000000 0.000000 0.000000 0.096196 0.000000 0.000000
# 5 0.000000 0.000000 0.000000 0.000000 0.022185 0.000000
# 6 0.000000 0.000000 0.000000 0.000000 0.000000 0.015652
#
#
# Mechanical properties :
#
#
# Convention : Reuss Voigt Hill
#
# Bulk Modulus (GPa) = 55.39166 71.17864 63.28515
# Shear Modulus (GPa) = 24.67132 39.20644 31.93888
#
# Velocity S-wave (km/s) = 3.34593 4.21793 3.80698
# Velocity P-wave (km/s) = 6.32948 7.48467 6.93119
#
# Compressibility (1/GPa) = 0.01805326
#
# Stress axis : x y z
#
# Youngs Moduli (GPa) = 90.38697 48.48125 115.69214
#
# Poissons Ratio (x) = 0.41350 0.40592
# Poissons Ratio (y) = 0.77092 -0.10384
# Poissons Ratio (z) = 0.31714 -0.04351
#
# Static dielectric constant tensor:
#      x y z
#    x 2.370930 0.000000 0.000000 
#    y 0.000000 1.795840 0.000000 
#    z 0.000000 0.000000 1.943590 
# 
# From -- ./inp_files/5943.got.cif
#   From: 2010.05.17/outbox.cif.g08.bks.cpg/sg20_3_cif.got.tgz:5943.got - 2010.06.03 22:52:26.
