data_PCOD9320020
_publ_section_title
;
Structure prediction by ZEFSAII (Michael W. Deem and Ramdas Pophale) SiO2 
 PCOD9320020
Probable space group: C 2 2 21
;
_chemical_formula_sum "Si O2"
_cell_formula_units_Z 40
_cell_length_a 25.944928
_cell_length_b 12.879086
_cell_length_c 5.091314
_cell_angle_alpha 90.000000
_cell_angle_beta 90.000000
_cell_angle_gamma 90.000000
_cell_volume 1701.247090
_symmetry_space_group_name_H-M "C 2 2 21"
_symmetry_group_IT_number 20
_symmetry_cell_setting 'orthorhombic'
loop_
_space_group_symop_operation_xyz
x,y,z
-x,-y,1/2+z
x,-y,-z
-x,y,1/2-z
1/2+x,1/2+y,z
1/2-x,1/2-y,1/2+z
1/2+x,1/2-y,-z
1/2-x,1/2+y,1/2-z
loop_
_atom_site_type_symbol
_atom_site_label
_atom_site_fract_x
_atom_site_fract_y
_atom_site_fract_z
Si Si1 0.387506 0.852362 0.286013
Si Si2 0.317106 0.000000 0.000000
Si Si3 0.451736 0.594787 0.625713
Si Si4 0.000000 0.272005 0.250000
Si Si5 0.259392 0.315942 0.414824
Si Si6 0.134316 0.221165 0.701763
O O1 0.356946 0.958426 0.222065
O O2 0.448819 0.844328 0.209635
O O3 0.379367 0.808615 0.579016
O O4 0.360530 0.773657 0.078990
O O5 0.276438 0.094318 0.036021
O O6 0.420977 0.500000 0.500000
O O7 0.500000 0.537594 0.750000
O O8 0.476598 0.690190 0.462936
O O9 0.414149 0.646984 0.829852
O O10 0.237315 0.270639 0.141515
O O11 0.317361 0.340439 0.320053
#
# Coordination Sequence:
#
# PCOD9320020 Si02
#       6
#     8   4   8   4   8   8
#     4  11  24  43  71  96 136 182 240 284 365 421
#     4  12  26  46  76 104 144 194 246 302 364 454
#     4  11  21  36  64  95 134 178 232 285 355 429
#     4  10  22  42  62  96 138 184 226 302 354 422
#     4  12  25  46  71 103 141 187 240 299 362 429
#     4  11  23  44  63  99 137 184 224 300 351 429
#
# _framework density 23.512163000000001
#
# number of rings (size 3 to 8) (size 9 to 14) (size 15 to 20)
#    0.000    0.800    7.000    0.000    1.400    3.200 
#    0.000    4.000    0.000    0.000    0.000    0.000 
#    0.000    0.000    0.000    0.000    0.000    0.000 
#
# Total GULP energy -111387.746049 kJ/mol
# GULP energy per Si atom -5569.387302 kJ/mol
# Density = 2.345865 g / cm^3
# Si number density = 23.512163 Si / 1000 Ang^3
#
#
#
# Elastic Constant Matrix: (Units=GPa)
#
#
# Indices 1 2 3 4 5 6 
#
# 1 147.2121 32.1675 -9.9796 0.0000 0.0000 0.0000
# 2 32.1675 67.7133 1.8824 0.0000 0.0000 0.0000
# 3 -9.9796 1.8824 72.8616 0.0000 0.0000 0.0000
# 4 0.0000 0.0000 0.0000 25.6515 0.0000 0.0000
# 5 0.0000 0.0000 0.0000 0.0000 35.3206 0.0000
# 6 0.0000 0.0000 0.0000 0.0000 0.0000 42.0027
#
#
#
# Elastic Compliance Matrix: (Units=1/GPa)
#
#
# Indices 1 2 3 4 5 6 
#
# 1 0.007674 -0.003678 0.001146 0.000000 0.000000 0.000000
# 2 -0.003678 0.016541 -0.000931 0.000000 0.000000 0.000000
# 3 0.001146 -0.000931 0.013906 0.000000 0.000000 0.000000
# 4 0.000000 0.000000 0.000000 0.038984 0.000000 0.000000
# 5 0.000000 0.000000 0.000000 0.000000 0.028312 0.000000
# 6 0.000000 0.000000 0.000000 0.000000 0.000000 0.023808
#
#
# Mechanical properties :
#
#
# Convention : Reuss Voigt Hill
#
# Bulk Modulus (GPa) = 32.05534 37.32529 34.69032
# Shear Modulus (GPa) = 34.11835 38.17606 36.14721
#
# Velocity S-wave (km/s) = 3.81345 4.03385 3.92520
# Velocity P-wave (km/s) = 5.74918 6.13232 5.94384
#
# Compressibility (1/GPa) = 0.03119605
#
# Stress axis : x y z
#
# Youngs Moduli (GPa) = 130.30679 60.45567 71.91308
#
# Poissons Ratio (x) = 0.22233 -0.08242
# Poissons Ratio (y) = 0.47921 0.06695
# Poissons Ratio (z) = -0.14935 0.05629
#
# Static dielectric constant tensor:
#      x y z
#    x 1.951830 0.000000 0.000000 
#    y 0.000000 1.933670 0.000000 
#    z 0.000000 0.000000 1.907110 
# 
# From -- ./inp_files/4112.got.cif
#   From: 2010.05.17/outbox.cif.g08.bks.cpg/sg20_3_cif.got.tgz:4112.got - 2010.06.03 22:52:26.
