data_PCOD9320544
_publ_section_title
;
Structure prediction by ZEFSAII (Michael W. Deem and Ramdas Pophale) SiO2 
 PCOD9320544
Probable space group: C 2 2 21
;
_chemical_formula_sum "Si O2"
_cell_formula_units_Z 48
_cell_length_a 11.958063
_cell_length_b 18.633519
_cell_length_c 8.852853
_cell_angle_alpha 90.000000
_cell_angle_beta 90.000000
_cell_angle_gamma 90.000000
_cell_volume 1972.599736
_symmetry_space_group_name_H-M "C 2 2 21"
_symmetry_group_IT_number 20
_symmetry_cell_setting 'orthorhombic'
loop_
_space_group_symop_operation_xyz
x,y,z
-x,-y,1/2+z
x,-y,-z
-x,y,1/2-z
1/2+x,1/2+y,z
1/2-x,1/2-y,1/2+z
1/2+x,1/2-y,-z
1/2-x,1/2+y,1/2-z
loop_
_atom_site_type_symbol
_atom_site_label
_atom_site_fract_x
_atom_site_fract_y
_atom_site_fract_z
Si Si1 0.210958 0.716163 0.094746
Si Si2 0.102195 0.148103 0.957503
Si Si3 0.171961 0.612412 0.368648
Si Si4 0.833622 0.522943 0.663131
Si Si5 0.100408 0.332329 0.334000
Si Si6 0.861398 0.111652 0.893369
O O1 0.115939 0.766132 0.020606
O O2 0.170892 0.672311 0.239014
O O3 0.302851 0.774365 0.145536
O O4 0.274146 0.661763 0.983542
O O5 0.119171 0.138678 0.777130
O O6 0.978835 0.116167 0.982199
O O7 0.204419 0.112604 0.051209
O O8 0.148500 0.537781 0.287379
O O9 0.086274 0.634668 0.499132
O O10 0.880809 0.500000 0.500000
O O11 0.874686 0.598159 0.730188
O O12 0.701131 0.536681 0.635654
O O13 0.000000 0.295088 0.250000
#
# Coordination Sequence:
#
# PCOD9320544 Si02
#       6
#     8   8   8   8   8   8
#     4  11  23  45  71 106 146 189 239 308 371 434
#     4  10  23  42  70 100 142 184 242 296 361 436
#     4  11  24  45  75  99 147 194 236 308 375 433
#     4  12  25  48  70 100 148 185 236 304 366 435
#     4  11  27  46  75 103 141 190 250 301 361 442
#     4  11  23  44  67 105 142 187 238 297 360 440
#
# _framework density 24.333372000000001
#
# number of rings (size 3 to 8) (size 9 to 14) (size 15 to 20)
#    0.000    1.000    5.000    2.500    2.333    1.333 
#    6.000    0.000    3.667    0.000    0.000    0.000 
#    0.000    0.000    0.000    0.000    0.000    0.000 
#
# Total GULP energy -134252.632338 kJ/mol
# GULP energy per Si atom -5593.859681 kJ/mol
# Density = 2.427799 g / cm^3
# Si number density = 24.333372 Si / 1000 Ang^3
#
#
#
# Elastic Constant Matrix: (Units=GPa)
#
#
# Indices 1 2 3 4 5 6 
#
# 1 58.9432 -0.8430 24.8728 0.0000 0.0000 0.0000
# 2 -0.8430 54.9502 31.4717 0.0000 0.0000 0.0000
# 3 24.8728 31.4717 132.3924 0.0000 0.0000 0.0000
# 4 0.0000 0.0000 0.0000 56.9150 0.0000 0.0000
# 5 0.0000 0.0000 0.0000 0.0000 21.1501 0.0000
# 6 0.0000 0.0000 0.0000 0.0000 0.0000 16.5192
#
#
#
# Elastic Compliance Matrix: (Units=1/GPa)
#
#
# Indices 1 2 3 4 5 6 
#
# 1 0.018759 0.002670 -0.004159 0.000000 0.000000 0.000000
# 2 0.002670 0.021446 -0.005600 0.000000 0.000000 0.000000
# 3 -0.004159 -0.005600 0.009666 0.000000 0.000000 0.000000
# 4 0.000000 0.000000 0.000000 0.017570 0.000000 0.000000
# 5 0.000000 0.000000 0.000000 0.000000 0.047281 0.000000
# 6 0.000000 0.000000 0.000000 0.000000 0.000000 0.060536
#
#
# Mechanical properties :
#
#
# Convention : Reuss Voigt Hill
#
# Bulk Modulus (GPa) = 28.01666 39.69876 33.85771
# Shear Modulus (GPa) = 24.83451 31.63582 28.23516
#
# Velocity S-wave (km/s) = 3.19814 3.60960 3.41008
# Velocity P-wave (km/s) = 5.01758 5.80709 5.42671
#
# Compressibility (1/GPa) = 0.03569304
#
# Stress axis : x y z
#
# Youngs Moduli (GPa) = 53.30881 46.62797 103.45793
#
# Poissons Ratio (x) = -0.12448 0.43027
# Poissons Ratio (y) = -0.14232 0.57933
# Poissons Ratio (z) = 0.22170 0.26110
#
# Static dielectric constant tensor:
#      x y z
#    x 2.050080 0.000000 0.000000 
#    y 0.000000 1.926440 0.000000 
#    z 0.000000 0.000000 1.944980 
# 
# From -- ./inp_files/8426.got.cif
#   From: 2010.05.17/outbox.cif.g08.bks.cpg/sg20_5_cif.got.tgz:8426.got - 2010.06.03 22:52:26.
