data_PCOD9320289
_publ_section_title
;
Structure prediction by ZEFSAII (Michael W. Deem and Ramdas Pophale) SiO2 
 PCOD9320289
Probable space group: C 2 2 21
;
_chemical_formula_sum "Si O2"
_cell_formula_units_Z 48
_cell_length_a 13.706079
_cell_length_b 11.501468
_cell_length_c 13.762337
_cell_angle_alpha 90.000000
_cell_angle_beta 90.000000
_cell_angle_gamma 90.000000
_cell_volume 2169.495204
_symmetry_space_group_name_H-M "C 2 2 21"
_symmetry_group_IT_number 20
_symmetry_cell_setting 'orthorhombic'
loop_
_space_group_symop_operation_xyz
x,y,z
-x,-y,1/2+z
x,-y,-z
-x,y,1/2-z
1/2+x,1/2+y,z
1/2-x,1/2-y,1/2+z
1/2+x,1/2-y,-z
1/2-x,1/2+y,1/2-z
loop_
_atom_site_type_symbol
_atom_site_label
_atom_site_fract_x
_atom_site_fract_y
_atom_site_fract_z
Si Si1 0.235058 0.282923 0.471057
Si Si2 0.890795 0.767926 0.642693
Si Si3 0.097544 0.499916 0.116486
Si Si4 0.278700 0.190728 0.280741
Si Si5 0.554087 0.632600 0.475089
Si Si6 0.077972 0.668179 0.394024
O O1 0.322887 0.278879 0.546304
O O2 0.271565 0.292226 0.361467
O O3 0.153401 0.366121 0.519209
O O4 0.168617 0.165073 0.468078
O O5 0.906680 0.630559 0.655433
O O6 0.825653 0.818801 0.728936
O O7 0.991998 0.829910 0.618357
O O8 0.181200 0.574914 0.167888
O O9 0.995962 0.567646 0.132440
O O10 0.112407 0.500000 0.000000
O O11 0.356849 0.211834 0.195175
O O12 0.538534 0.500000 0.500000
O O13 0.521063 0.722125 0.560242
#
# Coordination Sequence:
#
# PCOD9320289 Si02
#       6
#     8   8   8   8   8   8
#     4   9  21  42  71  95 138 185 232 286 358 427
#     4  11  24  45  70 106 138 183 245 296 368 435
#     4  12  21  44  76  97 142 193 237 308 368 428
#     4  11  23  42  68 105 139 185 241 293 360 442
#     4  10  22  44  73  95 144 189 231 294 357 437
#     4   9  22  42  68 104 136 186 242 289 363 425
#
# _framework density 22.124962
#
# number of rings (size 3 to 8) (size 9 to 14) (size 15 to 20)
#    1.000    0.667    3.333    0.500    2.333    0.667 
#   18.000    3.333    7.333    0.000    0.000    0.000 
#    0.000    0.000    0.000    0.000    0.000    0.000 
#
# Total GULP energy -133915.230615 kJ/mol
# GULP energy per Si atom -5579.801276 kJ/mol
# Density = 2.207460 g / cm^3
# Si number density = 22.124962 Si / 1000 Ang^3
#
#
#
# Elastic Constant Matrix: (Units=GPa)
#
#
# Indices 1 2 3 4 5 6 
#
# 1 97.6862 39.3643 37.7932 0.0000 0.0000 0.0000
# 2 39.3643 73.1351 8.0478 0.0000 0.0000 0.0000
# 3 37.7932 8.0478 118.0962 0.0000 0.0000 0.0000
# 4 0.0000 0.0000 0.0000 26.8034 0.0000 0.0000
# 5 0.0000 0.0000 0.0000 0.0000 48.9893 0.0000
# 6 0.0000 0.0000 0.0000 0.0000 0.0000 -0.7429
#
#
#
# Elastic Compliance Matrix: (Units=1/GPa)
#
#
# Indices 1 2 3 4 5 6 
#
# 1 0.014937 -0.007571 -0.004264 0.000000 0.000000 0.000000
# 2 -0.007571 0.017614 0.001222 0.000000 0.000000 0.000000
# 3 -0.004264 0.001222 0.009749 0.000000 0.000000 0.000000
# 4 0.000000 0.000000 0.000000 0.037309 0.000000 0.000000
# 5 0.000000 0.000000 0.000000 0.000000 0.020413 0.000000
# 6 0.000000 0.000000 0.000000 0.000000 0.000000 -1.346080
#
#
# Mechanical properties :
#
#
# Convention : Reuss Voigt Hill
#
# Bulk Modulus (GPa) = 47.44965 51.03645 49.24305
# Shear Modulus (GPa) = -4.10573 28.59078 12.24252
#
# Velocity S-wave (km/s) = -1.36372 3.59868 2.35486
# Velocity P-wave (km/s) = 4.36040 6.35490 5.44967
#
# Compressibility (1/GPa) = 0.02107497
#
# Stress axis : x y z
#
# Youngs Moduli (GPa) = 66.94615 56.77419 102.57416
#
# Poissons Ratio (x) = 0.42982 0.43741
# Poissons Ratio (y) = 0.50683 -0.12539
# Poissons Ratio (z) = 0.28548 -0.06940
#
# Static dielectric constant tensor:
#      x y z
#    x 1.829260 0.000000 0.000000 
#    y 0.000000 1.770880 0.000000 
#    z 0.000000 0.000000 1.905500 
# 
# From -- ./inp_files/21374.got.cif
#   From: 2010.05.17/outbox.cif.g08.bks.cpg/sg20_11_cif.got.tgz:21374.got - 2010.06.03 22:52:26.
