data_PCOD9320886
_publ_section_title
;
Structure prediction by ZEFSAII (Michael W. Deem and Ramdas Pophale) SiO2 
 PCOD9320886
Probable space group: C 2 2 21
;
_chemical_formula_sum "Si O2"
_cell_formula_units_Z 60
_cell_length_a 29.401017
_cell_length_b 8.310675
_cell_length_c 11.725045
_cell_angle_alpha 90.000000
_cell_angle_beta 90.000000
_cell_angle_gamma 90.000000
_cell_volume 2864.924427
_symmetry_space_group_name_H-M "C 2 2 21"
_symmetry_group_IT_number 20
_symmetry_cell_setting 'orthorhombic'
loop_
_space_group_symop_operation_xyz
x,y,z
-x,-y,1/2+z
x,-y,-z
-x,y,1/2-z
1/2+x,1/2+y,z
1/2-x,1/2-y,1/2+z
1/2+x,1/2-y,-z
1/2-x,1/2+y,1/2-z
loop_
_atom_site_type_symbol
_atom_site_label
_atom_site_fract_x
_atom_site_fract_y
_atom_site_fract_z
Si Si1 0.499250 0.108559 0.117783
Si Si2 0.180101 0.448803 0.794416
Si Si3 0.583595 0.333108 0.452852
Si Si4 0.578760 0.331109 0.052089
Si Si5 0.350209 0.392297 0.254629
Si Si6 0.886046 0.500000 0.500000
Si Si7 0.219757 0.077544 0.378140
Si Si8 0.662246 0.851540 0.415552
O O1 0.500000 0.037211 0.250000
O O2 0.452599 0.200030 0.086193
O O3 0.539061 0.243397 0.123994
O O4 0.506728 0.000000 0.000000
O O5 0.179280 0.270159 0.742571
O O6 0.230919 0.477499 0.838140
O O7 0.157860 0.572756 0.707911
O O8 0.145731 0.450441 0.897573
O O9 0.562950 0.500000 0.500000
O O10 0.612126 0.382460 0.342581
O O11 0.620492 0.259313 0.542191
O O12 0.622444 0.386965 0.127141
O O13 0.591007 0.175242 0.972383
O O14 0.562064 0.500000 0.000000
O O15 0.316311 0.534564 0.220817
O O16 0.210833 0.262573 0.407899
O O17 0.207784 0.000000 0.500000
O O18 0.664270 0.000000 0.500000
#
# Coordination Sequence:
#
# PCOD9320886 Si02
#       8
#     8   8   8   8   8   4   8   8
#     4  12  27  50  78 115 152 192 245 314 373 459
#     4  11  24  41  65  96 138 184 237 302 354 430
#     4  12  23  44  72 103 140 189 234 300 371 438
#     4  11  25  47  73 106 149 190 241 297 378 454
#     4  11  22  44  67  95 145 183 233 299 360 431
#     4  10  24  44  68  96 140 196 228 292 362 432
#     4  12  22  42  64  97 139 182 241 298 368 431
#     4  12  23  39  68  99 130 181 241 295 361 439
#
# _framework density 20.942961
#
# number of rings (size 3 to 8) (size 9 to 14) (size 15 to 20)
#    0.000    0.533    6.667    1.600    1.867    0.000 
#    2.400    3.333    0.000    0.000    0.000    0.000 
#    0.000    0.000    0.000    0.000    0.000    0.000 
#
# Total GULP energy -167021.939242 kJ/mol
# GULP energy per Si atom -5567.397975 kJ/mol
# Density = 2.089529 g / cm^3
# Si number density = 20.942961 Si / 1000 Ang^3
#
#
#
# Elastic Constant Matrix: (Units=GPa)
#
#
# Indices 1 2 3 4 5 6 
#
# 1 40.9024 8.1740 0.8167 0.0000 0.0000 0.0000
# 2 8.1740 92.8737 29.8671 0.0000 0.0000 0.0000
# 3 0.8167 29.8671 78.2565 0.0000 0.0000 0.0000
# 4 0.0000 0.0000 0.0000 14.2902 0.0000 0.0000
# 5 0.0000 0.0000 0.0000 0.0000 24.6121 0.0000
# 6 0.0000 0.0000 0.0000 0.0000 0.0000 8.3673
#
#
#
# Elastic Compliance Matrix: (Units=1/GPa)
#
#
# Indices 1 2 3 4 5 6 
#
# 1 0.024916 -0.002404 0.000658 0.000000 0.000000 0.000000
# 2 -0.002404 0.012506 -0.004748 0.000000 0.000000 0.000000
# 3 0.000658 -0.004748 0.014584 0.000000 0.000000 0.000000
# 4 0.000000 0.000000 0.000000 0.069978 0.000000 0.000000
# 5 0.000000 0.000000 0.000000 0.000000 0.040630 0.000000
# 6 0.000000 0.000000 0.000000 0.000000 0.000000 0.119513
#
#
# Mechanical properties :
#
#
# Convention : Reuss Voigt Hill
#
# Bulk Modulus (GPa) = 25.63043 32.19424 28.91233
# Shear Modulus (GPa) = 16.22741 20.99892 18.61316
#
# Velocity S-wave (km/s) = 2.78661 3.16994 2.98443
# Velocity P-wave (km/s) = 4.75588 5.36691 5.07061
#
# Compressibility (1/GPa) = 0.03901612
#
# Stress axis : x y z
#
# Youngs Moduli (GPa) = 40.13514 79.96319 68.56993
#
# Poissons Ratio (x) = 0.19226 -0.04509
# Poissons Ratio (y) = 0.09650 0.32556
# Poissons Ratio (z) = -0.02639 0.37965
#
# Static dielectric constant tensor:
#      x y z
#    x 1.773740 0.000000 0.000000 
#    y 0.000000 1.843070 0.000000 
#    z 0.000000 0.000000 1.754990 
# 
# From -- ./inp_files/17077.got.cif
#   From: 2010.05.17/outbox.cif.g08.bks.cpg/sg20_9_cif.got.tgz:17077.got - 2010.06.03 22:52:26.
