data_PCOD9320262
_publ_section_title
;
Structure prediction by ZEFSAII (Michael W. Deem and Ramdas Pophale) SiO2 
 PCOD9320262
Probable space group: C 2 2 21
;
_chemical_formula_sum "Si O2"
_cell_formula_units_Z 48
_cell_length_a 5.233407
_cell_length_b 27.836849
_cell_length_c 13.327556
_cell_angle_alpha 90.000000
_cell_angle_beta 90.000000
_cell_angle_gamma 90.000000
_cell_volume 1941.579155
_symmetry_space_group_name_H-M "C 2 2 21"
_symmetry_group_IT_number 20
_symmetry_cell_setting 'orthorhombic'
loop_
_space_group_symop_operation_xyz
x,y,z
-x,-y,1/2+z
x,-y,-z
-x,y,1/2-z
1/2+x,1/2+y,z
1/2-x,1/2-y,1/2+z
1/2+x,1/2-y,-z
1/2-x,1/2+y,1/2-z
loop_
_atom_site_type_symbol
_atom_site_label
_atom_site_fract_x
_atom_site_fract_y
_atom_site_fract_z
Si Si1 0.634106 0.710583 0.899318
Si Si2 0.132890 0.000000 0.000000
Si Si3 0.866025 0.651023 0.647763
Si Si4 0.451035 0.083061 0.005239
Si Si5 0.345093 0.572421 0.148065
Si Si6 0.395091 0.664774 0.403605
Si Si7 0.000000 0.293072 0.750000
O O1 0.407463 0.677109 0.852068
O O2 0.618382 0.759705 0.837687
O O3 0.918736 0.689932 0.884540
O O4 0.567194 0.708314 0.018146
O O5 0.316963 0.039256 0.949600
O O6 0.970653 0.033645 0.072703
O O7 0.846954 0.607466 0.568895
O O8 0.000000 0.632818 0.750000
O O9 0.259654 0.125796 0.030324
O O10 0.551452 0.066087 0.114735
O O11 0.500000 0.565104 0.250000
O O12 0.373662 0.630135 0.127346
O O13 0.222108 0.679562 0.309940
#
# Coordination Sequence:
#
# PCOD9320262 Si02
#       7
#     8   4   8   8   8   8   4
#     4  11  24  45  69 104 147 192 255 314 366 449
#     4  10  24  44  66 104 140 182 236 312 372 456
#     4  11  21  45  72 100 143 194 239 306 382 440
#     4  10  22  44  69  98 143 184 242 308 370 464
#     4  11  22  45  73 101 144 188 247 307 384 460
#     4  10  24  44  68 102 143 198 247 310 390 446
#     4  12  24  46  70 106 146 200 256 318 386 446
#
# _framework density 24.722142000000002
#
# number of rings (size 3 to 8) (size 9 to 14) (size 15 to 20)
#    0.000    1.333    3.333    1.500    0.000    4.667 
#   18.000    0.000    0.000    0.000    0.000    0.000 
#    0.000    0.000    0.000    0.000    0.000    0.000 
#
# Total GULP energy -133915.848693 kJ/mol
# GULP energy per Si atom -5579.827029 kJ/mol
# Density = 2.466587 g / cm^3
# Si number density = 24.722142 Si / 1000 Ang^3
#
#
#
# Elastic Constant Matrix: (Units=GPa)
#
#
# Indices 1 2 3 4 5 6 
#
# 1 73.6939 13.7631 11.4746 0.0000 0.0000 0.0000
# 2 13.7631 109.2221 35.0188 0.0000 0.0000 0.0000
# 3 11.4746 35.0188 128.6670 0.0000 0.0000 0.0000
# 4 0.0000 0.0000 0.0000 29.8572 0.0000 0.0000
# 5 0.0000 0.0000 0.0000 0.0000 38.1238 0.0000
# 6 0.0000 0.0000 0.0000 0.0000 0.0000 28.4035
#
#
#
# Elastic Compliance Matrix: (Units=1/GPa)
#
#
# Indices 1 2 3 4 5 6 
#
# 1 0.013979 -0.001492 -0.000841 0.000000 0.000000 0.000000
# 2 -0.001492 0.010190 -0.002640 0.000000 0.000000 0.000000
# 3 -0.000841 -0.002640 0.008566 0.000000 0.000000 0.000000
# 4 0.000000 0.000000 0.000000 0.033493 0.000000 0.000000
# 5 0.000000 0.000000 0.000000 0.000000 0.026230 0.000000
# 6 0.000000 0.000000 0.000000 0.000000 0.000000 0.035207
#
#
# Mechanical properties :
#
#
# Convention : Reuss Voigt Hill
#
# Bulk Modulus (GPa) = 43.88078 48.01067 45.94573
# Shear Modulus (GPa) = 34.43352 36.03199 35.23276
#
# Velocity S-wave (km/s) = 3.73610 3.82184 3.77921
# Velocity P-wave (km/s) = 6.03319 6.23999 6.13746
#
# Compressibility (1/GPa) = 0.02278902
#
# Stress axis : x y z
#
# Youngs Moduli (GPa) = 71.53501 98.13327 116.74617
#
# Poissons Ratio (x) = 0.14642 0.09814
# Poissons Ratio (y) = 0.10673 0.30825
# Poissons Ratio (z) = 0.06013 0.25911
#
# Static dielectric constant tensor:
#      x y z
#    x 2.005310 0.000000 0.000000 
#    y 0.000000 1.927800 0.000000 
#    z 0.000000 0.000000 2.108350 
# 
# From -- ./inp_files/17917.got.cif
#   From: 2010.05.17/outbox.cif.g08.bks.cpg/sg20_9_cif.got.tgz:17917.got - 2010.06.03 22:52:26.
