data_PCOD9320632
_publ_section_title
;
Structure prediction by ZEFSAII (Michael W. Deem and Ramdas Pophale) SiO2 
 PCOD9320632
Probable space group: C 2 2 21
;
_chemical_formula_sum "Si O2"
_cell_formula_units_Z 32
_cell_length_a 23.673332
_cell_length_b 11.254995
_cell_length_c 5.235617
_cell_angle_alpha 90.000000
_cell_angle_beta 90.000000
_cell_angle_gamma 90.000000
_cell_volume 1394.994722
_symmetry_space_group_name_H-M "C 2 2 21"
_symmetry_group_IT_number 20
_symmetry_cell_setting 'orthorhombic'
loop_
_space_group_symop_operation_xyz
x,y,z
-x,-y,1/2+z
x,-y,-z
-x,y,1/2-z
1/2+x,1/2+y,z
1/2-x,1/2-y,1/2+z
1/2+x,1/2-y,-z
1/2-x,1/2+y,1/2-z
loop_
_atom_site_type_symbol
_atom_site_label
_atom_site_fract_x
_atom_site_fract_y
_atom_site_fract_z
Si Si1 0.038934 0.867089 0.001744
Si Si2 0.774252 0.810652 0.847750
Si Si3 0.200250 0.500000 0.000000
Si Si4 0.038659 0.500000 0.500000
Si Si5 0.383137 0.190133 0.750496
O O1 0.081360 0.758403 0.964884
O O2 0.000000 0.862929 0.750000
O O3 0.000000 0.855688 0.250000
O O4 0.065509 0.000000 0.000000
O O5 0.749629 0.733904 0.616776
O O6 0.841350 0.791285 0.861475
O O7 0.744057 0.936733 0.808718
O O8 0.157821 0.408761 0.132730
O O9 0.076810 0.383604 0.441364
O O10 0.000000 0.517300 0.250000
#
# Coordination Sequence:
#
# PCOD9320632 Si02
#       5
#     8   8   4   4   8
#     4  10  24  47  69 101 142 187 241 288 343 426
#     4  10  23  44  67  99 141 182 226 283 341 419
#     4  10  23  46  70 108 140 176 239 288 348 424
#     4  12  27  44  72 112 146 182 237 296 358 426
#     4  11  24  45  74 105 143 191 225 296 360 415
#
# _framework density 22.939157999999999
#
# number of rings (size 3 to 8) (size 9 to 14) (size 15 to 20)
#    0.000    1.500    0.000    3.000    0.000   17.000 
#   24.750    0.000    0.000    0.000    0.000    0.000 
#    0.000    0.000    0.000    0.000    0.000    0.000 
#
# Total GULP energy -89392.770512 kJ/mol
# GULP energy per Si atom -5587.048157 kJ/mol
# Density = 2.288695 g / cm^3
# Si number density = 22.939158 Si / 1000 Ang^3
#
#
#
# Elastic Constant Matrix: (Units=GPa)
#
#
# Indices 1 2 3 4 5 6 
#
# 1 145.0038 86.0158 54.3714 0.0000 0.0000 0.0000
# 2 86.0158 144.1698 30.0367 0.0000 0.0000 0.0000
# 3 54.3714 30.0367 158.3537 0.0000 0.0000 0.0000
# 4 0.0000 0.0000 0.0000 36.4817 0.0000 0.0000
# 5 0.0000 0.0000 0.0000 0.0000 29.0041 0.0000
# 6 0.0000 0.0000 0.0000 0.0000 0.0000-2819.6297
#
#
#
# Elastic Compliance Matrix: (Units=1/GPa)
#
#
# Indices 1 2 3 4 5 6 
#
# 1 0.011772 -0.006436 -0.002821 0.000000 0.000000 0.000000
# 2 -0.006436 0.010740 0.000173 0.000000 0.000000 0.000000
# 3 -0.002821 0.000173 0.007251 0.000000 0.000000 0.000000
# 4 0.000000 0.000000 0.000000 0.027411 0.000000 0.000000
# 5 0.000000 0.000000 0.000000 0.000000 0.034478 0.000000
# 6 0.000000 0.000000 0.000000 0.000000 0.000000 -0.000355
#
#
# Mechanical properties :
#
#
# Convention : Reuss Voigt Hill
#
# Bulk Modulus (GPa) = 86.25036 87.59725 86.92380
# Shear Modulus (GPa) = 44.11883 -532.35523 -244.11820
#
# Velocity S-wave (km/s) = 4.39030 -15.25046 -10.32719
# Velocity P-wave (km/s) = 7.96121 16.48734 10.20910
#
# Compressibility (1/GPa) = 0.01159416
#
# Stress axis : x y z
#
# Youngs Moduli (GPa) = 84.94872 93.10983 137.91361
#
# Poissons Ratio (x) = 0.59922 0.38908
# Poissons Ratio (y) = 0.54670 -0.02379
# Poissons Ratio (z) = 0.23966 -0.01606
#
# Static dielectric constant tensor:
#      x y z
#    x 1.884140 0.000000 0.000000 
#    y 0.000000 1.871070 0.000000 
#    z 0.000000 0.000000 3.388070 
# 
# From -- ./inp_files/2987.got.cif
#   From: 2010.05.17/outbox.cif.g08.bks.cpg/sg20_2_cif.got.tgz:2987.got - 2010.06.03 22:52:26.
