data_PCOD9320772
_publ_section_title
;
Structure prediction by ZEFSAII (Michael W. Deem and Ramdas Pophale) SiO2 
 PCOD9320772
Probable space group: C 2 2 21
;
_chemical_formula_sum "Si O2"
_cell_formula_units_Z 48
_cell_length_a 17.229439
_cell_length_b 22.636401
_cell_length_c 5.498418
_cell_angle_alpha 90.000000
_cell_angle_beta 90.000000
_cell_angle_gamma 90.000000
_cell_volume 2144.451696
_symmetry_space_group_name_H-M "C 2 2 21"
_symmetry_group_IT_number 20
_symmetry_cell_setting 'orthorhombic'
loop_
_space_group_symop_operation_xyz
x,y,z
-x,-y,1/2+z
x,-y,-z
-x,y,1/2-z
1/2+x,1/2+y,z
1/2-x,1/2-y,1/2+z
1/2+x,1/2-y,-z
1/2-x,1/2+y,1/2-z
loop_
_atom_site_type_symbol
_atom_site_label
_atom_site_fract_x
_atom_site_fract_y
_atom_site_fract_z
Si Si1 0.214573 0.396028 0.233840
Si Si2 0.586216 0.559369 0.223896
Si Si3 0.060340 0.662137 0.938987
Si Si4 0.208547 0.000000 0.500000
Si Si5 0.862988 0.500000 0.000000
Si Si6 0.500000 0.057025 0.250000
Si Si7 0.000000 0.761006 0.250000
Si Si8 0.113316 0.867980 0.275008
O O1 0.143133 0.354919 0.165714
O O2 0.186621 0.441899 0.441338
O O3 0.294430 0.361176 0.272529
O O4 0.237465 0.443152 0.025261
O O5 0.500000 0.533315 0.250000
O O6 0.653017 0.510166 0.265890
O O7 0.601216 0.596399 0.472389
O O8 0.587425 0.598346 0.976546
O O9 0.000000 0.689240 0.750000
O O10 0.059985 0.712817 0.137625
O O11 0.019524 0.602189 0.033091
O O12 0.924409 0.482235 0.791986
O O13 0.064482 0.809305 0.330037
#
# Coordination Sequence:
#
# PCOD9320772 Si02
#       8
#     8   8   8   4   4   4   4   8
#     4  11  23  43  65 108 141 184 234 301 355 445
#     4  11  22  43  71 105 147 190 242 288 356 452
#     4  11  24  46  67  97 135 178 242 295 353 433
#     4  10  24  39  69 104 150 188 228 290 371 429
#     4  12  20  37  69 100 152 188 230 284 377 435
#     4  11  22  38  66 102 138 188 232 281 350 448
#     4  11  26  48  76  96 132 192 238 307 368 414
#     4  11  25  46  74 104 140 187 245 307 361 426
#
# _framework density 22.383344000000001
#
# number of rings (size 3 to 8) (size 9 to 14) (size 15 to 20)
#    0.000    1.000    3.333    3.000    2.333    6.000 
#    3.000    0.000    0.000    0.000    0.000    0.000 
#    0.000    0.000    0.000    0.000    0.000    0.000 
#
# Total GULP energy -133738.447661 kJ/mol
# GULP energy per Si atom -5572.435319 kJ/mol
# Density = 2.233240 g / cm^3
# Si number density = 22.383344 Si / 1000 Ang^3
#
#
#
# Elastic Constant Matrix: (Units=GPa)
#
#
# Indices 1 2 3 4 5 6 
#
# 1 169.2240 31.5381 10.8468 0.0000 0.0000 0.0000
# 2 31.5381 99.3441 23.1699 0.0000 0.0000 0.0000
# 3 10.8468 23.1699 87.6205 0.0000 0.0000 0.0000
# 4 0.0000 0.0000 0.0000 -19.7893 0.0000 0.0000
# 5 0.0000 0.0000 0.0000 0.0000 25.1768 0.0000
# 6 0.0000 0.0000 0.0000 0.0000 0.0000 182.0558
#
#
#
# Elastic Compliance Matrix: (Units=1/GPa)
#
#
# Indices 1 2 3 4 5 6 
#
# 1 0.006287 -0.001934 -0.000267 0.000000 0.000000 0.000000
# 2 -0.001934 0.011322 -0.002755 0.000000 0.000000 0.000000
# 3 -0.000267 -0.002755 0.012174 0.000000 0.000000 0.000000
# 4 0.000000 0.000000 0.000000 -0.050532 0.000000 0.000000
# 5 0.000000 0.000000 0.000000 0.000000 0.039719 0.000000
# 6 0.000000 0.000000 0.000000 0.000000 0.000000 0.005493
#
#
# Mechanical properties :
#
#
# Convention : Reuss Voigt Hill
#
# Bulk Modulus (GPa) = 50.31929 54.14425 52.23177
# Shear Modulus (GPa) = 121.95837 56.86427 89.41132
#
# Velocity S-wave (km/s) = 7.38949 5.04578 6.32710
# Velocity P-wave (km/s) = 9.76399 7.62814 8.76139
#
# Compressibility (1/GPa) = 0.01987309
#
# Stress axis : x y z
#
# Youngs Moduli (GPa) = 159.06359 88.32116 82.14007
#
# Poissons Ratio (x) = 0.17077 0.02193
# Poissons Ratio (y) = 0.30756 0.22627
# Poissons Ratio (z) = 0.04246 0.24329
#
# Static dielectric constant tensor:
#      x y z
#    x 1.876140 0.000000 0.000000 
#    y 0.000000 1.812780 0.000000 
#    z 0.000000 0.000000 0.825880 
# 
# From -- ./inp_files/2768.got.cif
#   From: 2010.05.17/outbox.cif.g08.bks.cpg/sg20_2_cif.got.tgz:2768.got - 2010.06.03 22:52:26.
