data_PCOD9320359
_publ_section_title
;
Structure prediction by ZEFSAII (Michael W. Deem and Ramdas Pophale) SiO2 
 PCOD9320359
Probable space group: C 2 2 21
;
_chemical_formula_sum "Si O2"
_cell_formula_units_Z 60
_cell_length_a 8.142654
_cell_length_b 16.445090
_cell_length_c 19.149889
_cell_angle_alpha 90.000000
_cell_angle_beta 90.000000
_cell_angle_gamma 90.000000
_cell_volume 2564.298018
_symmetry_space_group_name_H-M "C 2 2 21"
_symmetry_group_IT_number 20
_symmetry_cell_setting 'orthorhombic'
loop_
_space_group_symop_operation_xyz
x,y,z
-x,-y,1/2+z
x,-y,-z
-x,y,1/2-z
1/2+x,1/2+y,z
1/2-x,1/2-y,1/2+z
1/2+x,1/2-y,-z
1/2-x,1/2+y,1/2-z
loop_
_atom_site_type_symbol
_atom_site_label
_atom_site_fract_x
_atom_site_fract_y
_atom_site_fract_z
Si Si1 0.590631 0.035368 0.354959
Si Si2 0.453195 0.500000 0.000000
Si Si3 0.244904 0.402756 0.436028
Si Si4 0.112670 0.883101 0.615391
Si Si5 0.740780 0.503368 0.713438
Si Si6 0.290468 0.269464 0.325628
Si Si7 0.746611 0.316914 0.920243
Si Si8 0.825442 0.810479 0.177342
O O1 0.627677 0.979095 0.421581
O O2 0.717910 0.008606 0.294329
O O3 0.410373 0.020753 0.325620
O O4 0.630922 0.127830 0.374096
O O5 0.577322 0.444854 0.047733
O O6 0.349162 0.558835 0.049462
O O7 0.225794 0.347056 0.367816
O O8 0.215579 0.342173 0.500720
O O9 0.235204 0.810482 0.633751
O O10 0.935551 0.847004 0.597542
O O11 0.109296 0.941760 0.682137
O O12 0.694401 0.594673 0.692712
O O13 0.239246 0.267456 0.244233
O O14 0.484470 0.285763 0.324011
O O15 0.757989 0.224206 0.895406
#
# Coordination Sequence:
#
# PCOD9320359 Si02
#       8
#     8   4   8   8   8   8   8   8
#     4  11  22  44  67 100 133 178 228 282 340 409
#     4  10  22  46  68  98 136 174 236 278 346 420
#     4  11  21  44  70  95 132 181 222 283 342 406
#     4  11  24  44  66 101 131 181 221 284 337 413
#     4  11  25  41  72  98 137 178 233 287 342 409
#     4  11  25  42  71  96 145 176 228 282 352 400
#     4  11  25  42  72  95 142 174 227 282 349 408
#     4  11  25  45  64 105 136 179 225 288 338 412
#
# _framework density 23.398216000000001
#
# number of rings (size 3 to 8) (size 9 to 14) (size 15 to 20)
#    0.000    1.067    4.000    2.400    1.867    7.467 
#    4.800    0.000    0.000    0.000    0.000    0.000 
#    0.000    0.000    0.000    0.000    0.000    0.000 
#
# Total GULP energy -167808.350474 kJ/mol
# GULP energy per Si atom -5593.611682 kJ/mol
# Density = 2.334496 g / cm^3
# Si number density = 23.398216 Si / 1000 Ang^3
#
#
#
# Elastic Constant Matrix: (Units=GPa)
#
#
# Indices 1 2 3 4 5 6 
#
# 1 46.8834 -9.5557 0.1621 0.0000 0.0000 0.0000
# 2 -9.5557 69.8521 -10.3073 0.0000 0.0000 0.0000
# 3 0.1621 -10.3073 54.6518 0.0000 0.0000 0.0000
# 4 0.0000 0.0000 0.0000 48.6412 0.0000 0.0000
# 5 0.0000 0.0000 0.0000 0.0000 30.4158 0.0000
# 6 0.0000 0.0000 0.0000 0.0000 0.0000 10.1344
#
#
#
# Elastic Compliance Matrix: (Units=1/GPa)
#
#
# Indices 1 2 3 4 5 6 
#
# 1 0.021955 0.003080 0.000516 0.000000 0.000000 0.000000
# 2 0.003080 0.015158 0.002850 0.000000 0.000000 0.000000
# 3 0.000516 0.002850 0.018834 0.000000 0.000000 0.000000
# 4 0.000000 0.000000 0.000000 0.020559 0.000000 0.000000
# 5 0.000000 0.000000 0.000000 0.000000 0.032878 0.000000
# 6 0.000000 0.000000 0.000000 0.000000 0.000000 0.098674
#
#
# Mechanical properties :
#
#
# Convention : Reuss Voigt Hill
#
# Bulk Modulus (GPa) = 14.52720 14.66506 14.59613
# Shear Modulus (GPa) = 22.92390 30.57748 26.75069
#
# Velocity S-wave (km/s) = 3.13346 3.61893 3.38491
# Velocity P-wave (km/s) = 4.39472 4.87272 4.63988
#
# Compressibility (1/GPa) = 0.06883638
#
# Stress axis : x y z
#
# Youngs Moduli (GPa) = 45.54690 65.97294 53.09665
#
# Poissons Ratio (x) = -0.20317 -0.02738
# Poissons Ratio (y) = -0.14026 -0.15130
# Poissons Ratio (z) = -0.02349 -0.18800
#
# Static dielectric constant tensor:
#      x y z
#    x 1.887110 0.000000 0.000000 
#    y 0.000000 1.884220 0.000000 
#    z 0.000000 0.000000 1.958150 
# 
# From -- ./inp_files/23780.got.cif
#   From: 2010.05.17/outbox.cif.g08.bks.cpg/sg20_12_cif.got.tgz:23780.got - 2010.06.03 22:52:26.
