data_PCOD9320495
_publ_section_title
;
Structure prediction by ZEFSAII (Michael W. Deem and Ramdas Pophale) SiO2 
 PCOD9320495
Probable space group: C 2 2 21
;
_chemical_formula_sum "Si O2"
_cell_formula_units_Z 48
_cell_length_a 8.538637
_cell_length_b 17.806925
_cell_length_c 13.805261
_cell_angle_alpha 90.000000
_cell_angle_beta 90.000000
_cell_angle_gamma 90.000000
_cell_volume 2099.046706
_symmetry_space_group_name_H-M "C 2 2 21"
_symmetry_group_IT_number 20
_symmetry_cell_setting 'orthorhombic'
loop_
_space_group_symop_operation_xyz
x,y,z
-x,-y,1/2+z
x,-y,-z
-x,y,1/2-z
1/2+x,1/2+y,z
1/2-x,1/2-y,1/2+z
1/2+x,1/2-y,-z
1/2-x,1/2+y,1/2-z
loop_
_atom_site_type_symbol
_atom_site_label
_atom_site_fract_x
_atom_site_fract_y
_atom_site_fract_z
Si Si1 0.654868 0.181830 0.688833
Si Si2 0.704720 0.226064 0.362558
Si Si3 0.185802 0.419782 0.752102
Si Si4 0.500235 0.276444 0.517170
Si Si5 0.388340 0.561369 0.064210
Si Si6 0.625563 0.447103 0.170401
O O1 0.500000 0.154123 0.750000
O O2 0.759080 0.220995 0.772030
O O3 0.591826 0.239360 0.608474
O O4 0.765768 0.121036 0.635873
O O5 0.738448 0.143173 0.323831
O O6 0.539956 0.239048 0.414332
O O7 0.824543 0.240016 0.449875
O O8 0.274610 0.407498 0.852964
O O9 0.246620 0.500636 0.721927
O O10 0.000000 0.415853 0.750000
O O11 0.542385 0.365106 0.512184
O O12 0.526025 0.506688 0.106254
O O13 0.296323 0.500000 0.000000
O O14 0.500000 0.419595 0.250000
#
# Coordination Sequence:
#
# PCOD9320495 Si02
#       6
#     8   8   8   8   8   8
#     4  10  23  44  69 101 145 184 240 308 363 434
#     4  11  25  43  70 103 147 190 242 307 365 440
#     4  11  24  46  72 102 145 198 239 301 372 439
#     4  11  25  44  69 104 144 191 245 300 370 434
#     4  11  25  46  73 101 149 192 241 303 371 445
#     4  10  23  41  69  98 136 185 235 287 362 435
#
# _framework density 22.867525000000001
#
# number of rings (size 3 to 8) (size 9 to 14) (size 15 to 20)
#    0.000    1.333    3.333    0.500    9.333    0.667 
#    0.000    0.833    0.000    0.000    0.000    0.000 
#    0.000    0.000    0.000    0.000    0.000    0.000 
#
# Total GULP energy -134026.565461 kJ/mol
# GULP energy per Si atom -5584.440228 kJ/mol
# Density = 2.281548 g / cm^3
# Si number density = 22.867525 Si / 1000 Ang^3
#
#
#
# Elastic Constant Matrix: (Units=GPa)
#
#
# Indices 1 2 3 4 5 6 
#
# 1 67.9565 21.2701 30.4286 0.0000 0.0000 0.0000
# 2 21.2701 83.5994 -1.0532 0.0000 0.0000 0.0000
# 3 30.4286 -1.0532 63.6957 0.0000 0.0000 0.0000
# 4 0.0000 0.0000 0.0000 37.5840 0.0000 0.0000
# 5 0.0000 0.0000 0.0000 0.0000 41.9937 0.0000
# 6 0.0000 0.0000 0.0000 0.0000 0.0000 27.2563
#
#
#
# Elastic Compliance Matrix: (Units=1/GPa)
#
#
# Indices 1 2 3 4 5 6 
#
# 1 0.020943 -0.005456 -0.010095 0.000000 0.000000 0.000000
# 2 -0.005456 0.013386 0.002828 0.000000 0.000000 0.000000
# 3 -0.010095 0.002828 0.020569 0.000000 0.000000 0.000000
# 4 0.000000 0.000000 0.000000 0.026607 0.000000 0.000000
# 5 0.000000 0.000000 0.000000 0.000000 0.023813 0.000000
# 6 0.000000 0.000000 0.000000 0.000000 0.000000 0.036689
#
#
# Mechanical properties :
#
#
# Convention : Reuss Voigt Hill
#
# Bulk Modulus (GPa) = 33.95442 35.17141 34.56291
# Shear Modulus (GPa) = 28.20551 32.34055 30.27303
#
# Velocity S-wave (km/s) = 3.51583 3.76474 3.64241
# Velocity P-wave (km/s) = 5.60018 5.85761 5.73034
#
# Compressibility (1/GPa) = 0.02945125
#
# Stress axis : x y z
#
# Youngs Moduli (GPa) = 47.74814 74.70753 48.61667
#
# Poissons Ratio (x) = 0.40759 0.49079
# Poissons Ratio (y) = 0.26050 -0.13747
# Poissons Ratio (z) = 0.48203 -0.21125
#
# Static dielectric constant tensor:
#      x y z
#    x 1.888750 0.000000 0.000000 
#    y 0.000000 1.836440 0.000000 
#    z 0.000000 0.000000 1.902130 
# 
# From -- ./inp_files/18893.got.cif
#   From: 2010.05.17/outbox.cif.g08.bks.cpg/sg20_10_cif.got.tgz:18893.got - 2010.06.03 22:52:26.
