data_PCOD9320685
_publ_section_title
;
Structure prediction by ZEFSAII (Michael W. Deem and Ramdas Pophale) SiO2 
 PCOD9320685
Probable space group: C 2 2 21
;
_chemical_formula_sum "Si O2"
_cell_formula_units_Z 32
_cell_length_a 9.274422
_cell_length_b 12.008695
_cell_length_c 11.887952
_cell_angle_alpha 90.000000
_cell_angle_beta 90.000000
_cell_angle_gamma 90.000000
_cell_volume 1324.005260
_symmetry_space_group_name_H-M "C 2 2 21"
_symmetry_group_IT_number 20
_symmetry_cell_setting 'orthorhombic'
loop_
_space_group_symop_operation_xyz
x,y,z
-x,-y,1/2+z
x,-y,-z
-x,y,1/2-z
1/2+x,1/2+y,z
1/2-x,1/2-y,1/2+z
1/2+x,1/2-y,-z
1/2-x,1/2+y,1/2-z
loop_
_atom_site_type_symbol
_atom_site_label
_atom_site_fract_x
_atom_site_fract_y
_atom_site_fract_z
Si Si1 0.007799 0.299566 0.905829
Si Si2 0.373829 0.557789 0.613515
Si Si3 0.751472 0.368935 0.748247
Si Si4 0.577509 0.836582 0.352778
O O1 0.040650 0.172338 0.869704
O O2 0.131586 0.377634 0.852193
O O3 0.853744 0.333013 0.853034
O O4 0.016857 0.304587 0.040238
O O5 0.429757 0.500000 0.500000
O O6 0.346955 0.472463 0.715877
O O7 0.208811 0.595702 0.595116
O O8 0.648624 0.269712 0.707867
O O9 0.500000 0.898532 0.250000
#
# Coordination Sequence:
#
# PCOD9320685 Si02
#       4
#     8   8   8   8
#     4  10  23  45  71 101 145 185 241 302 349 439
#     4  11  22  43  73 100 141 192 234 289 373 423
#     4  10  23  46  70  99 145 183 241 290 365 416
#     4  11  24  40  72 103 142 185 245 301 356 427
#
# _framework density 24.169087999999999
#
# number of rings (size 3 to 8) (size 9 to 14) (size 15 to 20)
#    0.000    1.500    2.500    1.500    7.000    0.000 
#   27.000    0.000    0.000    0.000    0.000    0.000 
#    0.000    0.000    0.000    0.000    0.000    0.000 
#
# Total GULP energy -89454.249313 kJ/mol
# GULP energy per Si atom -5590.890582 kJ/mol
# Density = 2.411408 g / cm^3
# Si number density = 24.169088 Si / 1000 Ang^3
#
#
#
# Elastic Constant Matrix: (Units=GPa)
#
#
# Indices 1 2 3 4 5 6 
#
# 1 87.6275 24.8077 42.5490 0.0000 0.0000 0.0000
# 2 24.8077 124.1321 32.2601 0.0000 0.0000 0.0000
# 3 42.5490 32.2601 171.1409 0.0000 0.0000 0.0000
# 4 0.0000 0.0000 0.0000 35.8827 0.0000 0.0000
# 5 0.0000 0.0000 0.0000 0.0000 9.2969 0.0000
# 6 0.0000 0.0000 0.0000 0.0000 0.0000 28.5543
#
#
#
# Elastic Compliance Matrix: (Units=1/GPa)
#
#
# Indices 1 2 3 4 5 6 
#
# 1 0.013394 -0.001905 -0.002971 0.000000 0.000000 0.000000
# 2 -0.001905 0.008742 -0.001174 0.000000 0.000000 0.000000
# 3 -0.002971 -0.001174 0.006803 0.000000 0.000000 0.000000
# 4 0.000000 0.000000 0.000000 0.027869 0.000000 0.000000
# 5 0.000000 0.000000 0.000000 0.000000 0.107563 0.000000
# 6 0.000000 0.000000 0.000000 0.000000 0.000000 0.035021
#
#
# Mechanical properties :
#
#
# Convention : Reuss Voigt Hill
#
# Bulk Modulus (GPa) = 59.38624 64.68157 62.03390
# Shear Modulus (GPa) = 23.03045 33.63236 28.33141
#
# Velocity S-wave (km/s) = 3.09024 3.73439 3.42748
# Velocity P-wave (km/s) = 6.11206 6.73902 6.43318
#
# Compressibility (1/GPa) = 0.01683892
#
# Stress axis : x y z
#
# Youngs Moduli (GPa) = 74.66183 114.39358 146.99132
#
# Poissons Ratio (x) = 0.21788 0.43670
# Poissons Ratio (y) = 0.14220 0.17261
# Poissons Ratio (z) = 0.22181 0.13433
#
# Static dielectric constant tensor:
#      x y z
#    x 1.948070 0.000000 0.000000 
#    y 0.000000 1.934710 0.000000 
#    z 0.000000 0.000000 1.936130 
# 
# From -- ./inp_files/13571.got.cif
#   From: 2010.05.17/outbox.cif.g08.bks.cpg/sg20_7_cif.got.tgz:13571.got - 2010.06.03 22:52:26.
