data_PCOD9320366
_publ_section_title
;
Structure prediction by ZEFSAII (Michael W. Deem and Ramdas Pophale) SiO2 
 PCOD9320366
Probable space group: C 2 2 21
;
_chemical_formula_sum "Si O2"
_cell_formula_units_Z 32
_cell_length_a 16.191789
_cell_length_b 7.640668
_cell_length_c 11.099601
_cell_angle_alpha 90.000000
_cell_angle_beta 90.000000
_cell_angle_gamma 90.000000
_cell_volume 1373.199171
_symmetry_space_group_name_H-M "C 2 2 21"
_symmetry_group_IT_number 20
_symmetry_cell_setting 'orthorhombic'
loop_
_space_group_symop_operation_xyz
x,y,z
-x,-y,1/2+z
x,-y,-z
-x,y,1/2-z
1/2+x,1/2+y,z
1/2-x,1/2-y,1/2+z
1/2+x,1/2-y,-z
1/2-x,1/2+y,1/2-z
loop_
_atom_site_type_symbol
_atom_site_label
_atom_site_fract_x
_atom_site_fract_y
_atom_site_fract_z
Si Si1 0.509399 0.685281 0.877065
Si Si2 0.931627 0.500000 0.500000
Si Si3 0.657266 0.500000 0.000000
Si Si4 0.657744 0.478015 0.637644
Si Si5 0.690712 0.805421 0.173348
O O1 0.500000 0.780662 0.750000
O O2 0.434715 0.550577 0.870828
O O3 0.594140 0.583422 0.902127
O O4 0.511058 0.833393 0.976864
O O5 0.872387 0.555386 0.612047
O O6 0.702730 0.655922 0.069530
O O7 0.688565 0.500000 0.500000
O O8 0.659277 0.293929 0.706956
O O9 0.723634 0.601835 0.704469
#
# Coordination Sequence:
#
# PCOD9320366 Si02
#       5
#     8   4   4   8   8
#     4  11  23  44  68 104 135 184 231 294 347 417
#     4  10  26  48  72  98 146 188 238 290 366 414
#     4  10  22  46  70  94 148 182 224 298 356 406
#     4  12  27  44  71 107 142 183 241 290 355 425
#     4  11  26  45  69 104 142 188 232 294 354 426
#
# _framework density 23.303249000000001
#
# number of rings (size 3 to 8) (size 9 to 14) (size 15 to 20)
#    0.000    1.000    5.000    0.000    7.000    3.000 
#    0.000    0.000    0.000    0.000    0.000    0.000 
#    0.000    0.000    0.000    0.000    0.000    0.000 
#
# Total GULP energy -89327.176746 kJ/mol
# GULP energy per Si atom -5582.948547 kJ/mol
# Density = 2.325021 g / cm^3
# Si number density = 23.303249 Si / 1000 Ang^3
#
#
#
# Elastic Constant Matrix: (Units=GPa)
#
#
# Indices 1 2 3 4 5 6 
#
# 1 76.2470 30.6547 44.2884 0.0000 0.0000 0.0000
# 2 30.6547 83.7795 29.5152 0.0000 0.0000 0.0000
# 3 44.2884 29.5152 96.6331 0.0000 0.0000 0.0000
# 4 0.0000 0.0000 0.0000 57.8907 0.0000 0.0000
# 5 0.0000 0.0000 0.0000 0.0000 27.6735 0.0000
# 6 0.0000 0.0000 0.0000 0.0000 0.0000 26.3972
#
#
#
# Elastic Compliance Matrix: (Units=1/GPa)
#
#
# Indices 1 2 3 4 5 6 
#
# 1 0.019221 -0.004403 -0.007465 0.000000 0.000000 0.000000
# 2 -0.004403 0.014384 -0.002375 0.000000 0.000000 0.000000
# 3 -0.007465 -0.002375 0.014495 0.000000 0.000000 0.000000
# 4 0.000000 0.000000 0.000000 0.017274 0.000000 0.000000
# 5 0.000000 0.000000 0.000000 0.000000 0.036136 0.000000
# 6 0.000000 0.000000 0.000000 0.000000 0.000000 0.037883
#
#
# Mechanical properties :
#
#
# Convention : Reuss Voigt Hill
#
# Bulk Modulus (GPa) = 50.98351 51.73071 51.35711
# Shear Modulus (GPa) = 28.66688 32.53902 30.60295
#
# Velocity S-wave (km/s) = 3.51118 3.74080 3.62781
# Velocity P-wave (km/s) = 6.19384 6.39572 6.29559
#
# Compressibility (1/GPa) = 0.01961418
#
# Stress axis : x y z
#
# Youngs Moduli (GPa) = 52.02533 69.52132 68.98914
#
# Poissons Ratio (x) = 0.30613 0.51497
# Poissons Ratio (y) = 0.22909 0.16387
# Poissons Ratio (z) = 0.38834 0.16513
#
# Static dielectric constant tensor:
#      x y z
#    x 1.832290 0.000000 0.000000 
#    y 0.000000 1.883620 0.000000 
#    z 0.000000 0.000000 2.063280 
# 
# From -- ./inp_files/12509.got.cif
#   From: 2010.05.17/outbox.cif.g08.bks.cpg/sg20_7_cif.got.tgz:12509.got - 2010.06.03 22:52:26.
