data_PCOD9320164
_publ_section_title
;
Structure prediction by ZEFSAII (Michael W. Deem and Ramdas Pophale) SiO2 
 PCOD9320164
Probable space group: C 2 2 21
;
_chemical_formula_sum "Si O2"
_cell_formula_units_Z 64
_cell_length_a 22.009566
_cell_length_b 8.684846
_cell_length_c 16.657645
_cell_angle_alpha 90.000000
_cell_angle_beta 90.000000
_cell_angle_gamma 90.000000
_cell_volume 3184.103698
_symmetry_space_group_name_H-M "C 2 2 21"
_symmetry_group_IT_number 20
_symmetry_cell_setting 'orthorhombic'
loop_
_space_group_symop_operation_xyz
x,y,z
-x,-y,1/2+z
x,-y,-z
-x,y,1/2-z
1/2+x,1/2+y,z
1/2-x,1/2-y,1/2+z
1/2+x,1/2-y,-z
1/2-x,1/2+y,1/2-z
loop_
_atom_site_type_symbol
_atom_site_label
_atom_site_fract_x
_atom_site_fract_y
_atom_site_fract_z
Si Si1 0.815402 0.551894 0.789433
Si Si2 0.171717 0.918585 0.171693
Si Si3 0.371003 0.156338 0.948603
Si Si4 0.160725 0.265679 0.128664
Si Si5 0.603977 0.319508 0.024903
Si Si6 0.365617 0.289959 0.171792
Si Si7 0.723208 0.356907 0.453310
Si Si8 0.033589 0.826849 0.463059
O O1 0.743462 0.583907 0.805121
O O2 0.854480 0.641857 0.856075
O O3 0.832914 0.609150 0.699664
O O4 0.833712 0.375956 0.811857
O O5 0.156331 0.817828 0.092615
O O6 0.128088 0.855214 0.240548
O O7 0.152666 0.096158 0.163692
O O8 0.322651 0.272021 0.987806
O O9 0.437637 0.218984 0.968111
O O10 0.362953 0.000000 0.000000
O O11 0.224272 0.253191 0.081240
O O12 0.114529 0.283331 0.054452
O O13 0.536142 0.292038 0.056005
O O14 0.605195 0.500000 0.000000
O O15 0.317931 0.397439 0.123455
O O16 0.424421 0.292948 0.114936
O O17 0.750275 0.500000 0.500000
O O18 0.039159 0.000000 0.500000
#
# Coordination Sequence:
#
# PCOD9320164 Si02
#       8
#     8   8   8   8   8   8   8   8
#     4  12  22  36  62  99 135 162 204 271 338 399
#     4  11  21  40  66  91 134 166 211 267 332 394
#     4  11  20  37  62  90 124 172 210 269 328 385
#     4  11  23  39  62  96 128 166 217 261 334 391
#     4   9  22  44  66  90 121 176 220 273 316 387
#     4  11  22  39  61  98 128 167 209 265 330 391
#     4  11  22  37  59  91 131 165 216 261 324 400
#     4  10  22  43  67  91 126 165 238 268 314 386
#
# _framework density 20.099847
#
# number of rings (size 3 to 8) (size 9 to 14) (size 15 to 20)
#    0.000    1.250    5.000    2.250    3.500    3.500 
#    0.000    2.500    2.750    0.000    0.000    0.000 
#    0.000    0.000    0.000    0.000    0.000    0.000 
#
# Total GULP energy -178338.487100 kJ/mol
# GULP energy per Si atom -5573.077722 kJ/mol
# Density = 2.005410 g / cm^3
# Si number density = 20.099847 Si / 1000 Ang^3
#
#
#
# Elastic Constant Matrix: (Units=GPa)
#
#
# Indices 1 2 3 4 5 6 
#
# 1 97.3681 15.7232 45.7965 0.0000 0.0000 0.0000
# 2 15.7232 42.5194 34.4234 0.0000 0.0000 0.0000
# 3 45.7965 34.4234 124.5732 0.0000 0.0000 0.0000
# 4 0.0000 0.0000 0.0000 34.7989 0.0000 0.0000
# 5 0.0000 0.0000 0.0000 0.0000 15.1708 0.0000
# 6 0.0000 0.0000 0.0000 0.0000 0.0000 15.1255
#
#
#
# Elastic Compliance Matrix: (Units=1/GPa)
#
#
# Indices 1 2 3 4 5 6 
#
# 1 0.012462 -0.001158 -0.004261 0.000000 0.000000 0.000000
# 2 -0.001158 0.030404 -0.007976 0.000000 0.000000 0.000000
# 3 -0.004261 -0.007976 0.011798 0.000000 0.000000 0.000000
# 4 0.000000 0.000000 0.000000 0.028737 0.000000 0.000000
# 5 0.000000 0.000000 0.000000 0.000000 0.065916 0.000000
# 6 0.000000 0.000000 0.000000 0.000000 0.000000 0.066114
#
#
# Mechanical properties :
#
#
# Convention : Reuss Voigt Hill
#
# Bulk Modulus (GPa) = 35.87694 50.70521 43.29107
# Shear Modulus (GPa) = 19.87985 24.25356 22.06671
#
# Velocity S-wave (km/s) = 3.14834 3.47746 3.31698
# Velocity P-wave (km/s) = 5.57711 6.43468 6.02118
#
# Compressibility (1/GPa) = 0.02787306
#
# Stress axis : x y z
#
# Youngs Moduli (GPa) = 80.24688 32.89032 84.76122
#
# Poissons Ratio (x) = 0.03810 0.36118
# Poissons Ratio (y) = 0.09296 0.67603
# Poissons Ratio (z) = 0.34194 0.26232
#
# Static dielectric constant tensor:
#      x y z
#    x 1.703050 0.000000 0.000000 
#    y 0.000000 1.778900 0.000000 
#    z 0.000000 0.000000 1.765940 
# 
# From -- ./inp_files/22028.got.cif
#   From: 2010.05.17/outbox.cif.g08.bks.cpg/sg20_12_cif.got.tgz:22028.got - 2010.06.03 22:52:26.
