data_PCOD9320778
_publ_section_title
;
Structure prediction by ZEFSAII (Michael W. Deem and Ramdas Pophale) SiO2 
 PCOD9320778
Probable space group: C 2 2 21
;
_chemical_formula_sum "Si O2"
_cell_formula_units_Z 64
_cell_length_a 8.743607
_cell_length_b 18.628671
_cell_length_c 19.861805
_cell_angle_alpha 90.000000
_cell_angle_beta 90.000000
_cell_angle_gamma 90.000000
_cell_volume 3235.126116
_symmetry_space_group_name_H-M "C 2 2 21"
_symmetry_group_IT_number 20
_symmetry_cell_setting 'orthorhombic'
loop_
_space_group_symop_operation_xyz
x,y,z
-x,-y,1/2+z
x,-y,-z
-x,y,1/2-z
1/2+x,1/2+y,z
1/2-x,1/2-y,1/2+z
1/2+x,1/2-y,-z
1/2-x,1/2+y,1/2-z
loop_
_atom_site_type_symbol
_atom_site_label
_atom_site_fract_x
_atom_site_fract_y
_atom_site_fract_z
Si Si1 0.491057 0.280220 0.124419
Si Si2 0.633437 0.884448 0.604565
Si Si3 0.706148 0.315889 0.001738
Si Si4 0.198015 0.626600 0.835483
Si Si5 0.894278 0.469616 0.683896
Si Si6 0.718385 0.773567 0.282497
Si Si7 0.014306 0.272018 0.409421
Si Si8 0.825593 0.875507 0.732129
O O1 0.436374 0.197482 0.111751
O O2 0.351811 0.332712 0.141936
O O3 0.615512 0.279098 0.184365
O O4 0.582243 0.314542 0.061182
O O5 0.716832 0.885404 0.532441
O O6 0.497122 0.938315 0.623563
O O7 0.761604 0.901499 0.660894
O O8 0.619025 0.276590 0.940252
O O9 0.852133 0.276957 0.035330
O O10 0.195332 0.541389 0.834762
O O11 0.174750 0.655815 0.759040
O O12 0.065799 0.654313 0.885926
O O13 0.779124 0.408595 0.709464
O O14 0.000000 0.484246 0.750000
O O15 0.601539 0.750216 0.341272
O O16 0.708080 0.709069 0.230295
O O17 0.000000 0.890518 0.750000
#
# Coordination Sequence:
#
# PCOD9320778 Si02
#       8
#     8   8   8   8   8   8   8   8
#     4  11  22  36  65  96 125 165 220 274 319 374
#     4  11  20  41  62  87 129 172 212 272 318 392
#     4  11  21  38  61  94 123 163 221 279 310 375
#     4  12  22  40  61  97 129 165 212 278 332 402
#     4  10  24  40  63  90 137 173 209 260 352 396
#     4  11  21  34  61  94 126 159 212 267 322 386
#     4  11  21  34  60  90 124 158 215 268 324 368
#     4  11  21  35  61  96 127 166 215 260 324 399
#
# _framework density 19.782845999999999
#
# number of rings (size 3 to 8) (size 9 to 14) (size 15 to 20)
#    0.000    1.000    5.000    3.000    0.000    1.000 
#    0.000    1.875    0.000    1.500    0.000    0.000 
#    0.000    0.000    0.000    0.000    0.000    0.000 
#
# Total GULP energy -178453.572051 kJ/mol
# GULP energy per Si atom -5576.674127 kJ/mol
# Density = 1.973782 g / cm^3
# Si number density = 19.782846 Si / 1000 Ang^3
#
#
#
# Elastic Constant Matrix: (Units=GPa)
#
#
# Indices 1 2 3 4 5 6 
#
# 1 118.1674 25.0107 34.9198 0.0000 0.0000 0.0000
# 2 25.0107 59.9534 0.0809 0.0000 0.0000 0.0000
# 3 34.9198 0.0809 63.0097 0.0000 0.0000 0.0000
# 4 0.0000 0.0000 0.0000 10.0479 0.0000 0.0000
# 5 0.0000 0.0000 0.0000 0.0000 49.9399 0.0000
# 6 0.0000 0.0000 0.0000 0.0000 0.0000 24.9531
#
#
#
# Elastic Compliance Matrix: (Units=1/GPa)
#
#
# Indices 1 2 3 4 5 6 
#
# 1 0.011310 -0.004710 -0.006262 0.000000 0.000000 0.000000
# 2 -0.004710 0.018641 0.002586 0.000000 0.000000 0.000000
# 3 -0.006262 0.002586 0.019338 0.000000 0.000000 0.000000
# 4 0.000000 0.000000 0.000000 0.099524 0.000000 0.000000
# 5 0.000000 0.000000 0.000000 0.000000 0.020024 0.000000
# 6 0.000000 0.000000 0.000000 0.000000 0.000000 0.040075
#
#
# Mechanical properties :
#
#
# Convention : Reuss Voigt Hill
#
# Bulk Modulus (GPa) = 30.75265 40.12817 35.44041
# Shear Modulus (GPa) = 21.13977 29.06279 25.10128
#
# Velocity S-wave (km/s) = 3.27248 3.83703 3.56594
# Velocity P-wave (km/s) = 5.46422 6.32129 5.90832
#
# Compressibility (1/GPa) = 0.03251752
#
# Stress axis : x y z
#
# Youngs Moduli (GPa) = 88.41858 53.64559 51.71291
#
# Poissons Ratio (x) = 0.25265 0.32382
# Poissons Ratio (y) = 0.41642 -0.13374
# Poissons Ratio (z) = 0.55366 -0.13874
#
# Static dielectric constant tensor:
#      x y z
#    x 1.723130 0.000000 0.000000 
#    y 0.000000 1.667120 0.000000 
#    z 0.000000 0.000000 1.740180 
# 
# From -- ./inp_files/26883.got.cif
#   From: 2010.05.17/outbox.cif.g08.bks.cpg/sg20_14_cif.got.tgz:26883.got - 2010.06.03 22:52:26.
