data_PCOD9320575
_publ_section_title
;
Structure prediction by ZEFSAII (Michael W. Deem and Ramdas Pophale) SiO2 
 PCOD9320575
Probable space group: C 2 2 21
;
_chemical_formula_sum "Si O2"
_cell_formula_units_Z 56
_cell_length_a 10.750494
_cell_length_b 11.277001
_cell_length_c 19.888206
_cell_angle_alpha 90.000000
_cell_angle_beta 90.000000
_cell_angle_gamma 90.000000
_cell_volume 2411.113473
_symmetry_space_group_name_H-M "C 2 2 21"
_symmetry_group_IT_number 20
_symmetry_cell_setting 'orthorhombic'
loop_
_space_group_symop_operation_xyz
x,y,z
-x,-y,1/2+z
x,-y,-z
-x,y,1/2-z
1/2+x,1/2+y,z
1/2-x,1/2-y,1/2+z
1/2+x,1/2-y,-z
1/2-x,1/2+y,1/2-z
loop_
_atom_site_type_symbol
_atom_site_label
_atom_site_fract_x
_atom_site_fract_y
_atom_site_fract_z
Si Si1 0.526930 0.759260 0.091606
Si Si2 0.573176 0.385978 0.038937
Si Si3 0.425466 0.902296 0.821413
Si Si4 0.390441 0.466408 0.877769
Si Si5 0.221754 0.368750 0.351421
Si Si6 0.359464 0.338009 0.222239
Si Si7 0.871403 0.505811 0.421370
O O1 0.497676 0.633570 0.129976
O O2 0.396057 0.820852 0.108209
O O3 0.623510 0.867232 0.105092
O O4 0.549235 0.714836 0.015729
O O5 0.447864 0.436217 0.071913
O O6 0.661751 0.356708 0.100134
O O7 0.630114 0.500000 0.000000
O O8 0.500000 0.915830 0.750000
O O9 0.363664 0.773988 0.826558
O O10 0.318338 0.999185 0.830484
O O11 0.526321 0.924483 0.879046
O O12 0.347078 0.534069 0.811272
O O13 0.260743 0.429519 0.911418
O O14 0.261109 0.310636 0.280843
O O15 0.500000 0.340947 0.250000
O O16 0.901880 0.500000 0.500000
#
# Coordination Sequence:
#
# PCOD9320575 Si02
#       7
#     8   8   8   8   8   8   8
#     4  10  26  42  69 104 139 189 236 300 366 453
#     4  10  23  43  65  99 144 177 234 293 373 441
#     4  10  25  46  69 101 139 186 243 304 375 458
#     4  11  24  44  67 102 140 189 239 297 379 439
#     4  11  24  44  70 104 137 186 246 303 367 452
#     4  11  24  42  71  98 137 192 239 304 370 444
#     4  11  25  44  73 104 142 190 242 301 377 450
#
# _framework density 23.225784000000001
#
# number of rings (size 3 to 8) (size 9 to 14) (size 15 to 20)
#    0.000    1.429    1.429    2.143   12.000    4.571 
#    0.000    2.857    0.000    0.000    0.000    0.000 
#    0.000    0.000    0.000    0.000    0.000    0.000 
#
# Total GULP energy -156321.362998 kJ/mol
# GULP energy per Si atom -5582.905821 kJ/mol
# Density = 2.317292 g / cm^3
# Si number density = 23.225784 Si / 1000 Ang^3
#
#
#
# Elastic Constant Matrix: (Units=GPa)
#
#
# Indices 1 2 3 4 5 6 
#
# 1 50.0392 10.8678 2.1435 0.0000 0.0000 0.0000
# 2 10.8678 106.5715 31.2882 0.0000 0.0000 0.0000
# 3 2.1435 31.2882 71.2317 0.0000 0.0000 0.0000
# 4 0.0000 0.0000 0.0000 23.6369 0.0000 0.0000
# 5 0.0000 0.0000 0.0000 0.0000 25.5315 0.0000
# 6 0.0000 0.0000 0.0000 0.0000 0.0000 11.7895
#
#
#
# Elastic Compliance Matrix: (Units=1/GPa)
#
#
# Indices 1 2 3 4 5 6 
#
# 1 0.020444 -0.002186 0.000345 0.000000 0.000000 0.000000
# 2 -0.002186 0.011006 -0.004769 0.000000 0.000000 0.000000
# 3 0.000345 -0.004769 0.016123 0.000000 0.000000 0.000000
# 4 0.000000 0.000000 0.000000 0.042307 0.000000 0.000000
# 5 0.000000 0.000000 0.000000 0.000000 0.039167 0.000000
# 6 0.000000 0.000000 0.000000 0.000000 0.000000 0.084822
#
#
# Mechanical properties :
#
#
# Convention : Reuss Voigt Hill
#
# Bulk Modulus (GPa) = 29.10864 35.16014 32.13439
# Shear Modulus (GPa) = 20.96082 24.42776 22.69429
#
# Velocity S-wave (km/s) = 3.00739 3.24659 3.12928
# Velocity P-wave (km/s) = 4.96178 5.40602 5.18866
#
# Compressibility (1/GPa) = 0.03435406
#
# Stress axis : x y z
#
# Youngs Moduli (GPa) = 48.91322 90.85665 62.02346
#
# Poissons Ratio (x) = 0.19863 -0.02140
# Poissons Ratio (y) = 0.10693 0.29577
# Poissons Ratio (z) = -0.01688 0.43327
#
# Static dielectric constant tensor:
#      x y z
#    x 1.824650 0.000000 0.000000 
#    y 0.000000 1.987390 0.000000 
#    z 0.000000 0.000000 1.948650 
# 
# From -- ./inp_files/27171.got.cif
#   From: 2010.05.17/outbox.cif.g08.bks.cpg/sg20_14_cif.got.tgz:27171.got - 2010.06.03 22:52:26.
