data_PCOD9320795
_publ_section_title
;
Structure prediction by ZEFSAII (Michael W. Deem and Ramdas Pophale) SiO2 
 PCOD9320795
Probable space group: C 2 2 21
;
_chemical_formula_sum "Si O2"
_cell_formula_units_Z 56
_cell_length_a 15.142570
_cell_length_b 20.875355
_cell_length_c 8.919672
_cell_angle_alpha 90.000000
_cell_angle_beta 90.000000
_cell_angle_gamma 90.000000
_cell_volume 2819.566514
_symmetry_space_group_name_H-M "C 2 2 21"
_symmetry_group_IT_number 20
_symmetry_cell_setting 'orthorhombic'
loop_
_space_group_symop_operation_xyz
x,y,z
-x,-y,1/2+z
x,-y,-z
-x,y,1/2-z
1/2+x,1/2+y,z
1/2-x,1/2-y,1/2+z
1/2+x,1/2-y,-z
1/2-x,1/2+y,1/2-z
loop_
_atom_site_type_symbol
_atom_site_label
_atom_site_fract_x
_atom_site_fract_y
_atom_site_fract_z
Si Si1 0.723266 0.433479 0.090564
Si Si2 0.542382 0.361019 0.098436
Si Si3 0.677865 0.798995 0.084519
Si Si4 0.504985 0.784120 0.913383
Si Si5 0.258166 0.562509 0.950218
Si Si6 0.555520 0.559327 0.399299
Si Si7 0.185854 0.301452 0.440881
O O1 0.630423 0.398306 0.058658
O O2 0.721874 0.444034 0.271326
O O3 0.793421 0.377902 0.046910
O O4 0.732076 0.500000 0.000000
O O5 0.500000 0.388580 0.250000
O O6 0.548274 0.285805 0.119874
O O7 0.474007 0.373287 0.967072
O O8 0.721828 0.866295 0.039597
O O9 0.681604 0.788959 0.262914
O O10 0.577053 0.808110 0.030995
O O11 0.735324 0.741738 0.010343
O O12 0.500000 0.817063 0.750000
O O13 0.406773 0.783552 0.980778
O O14 0.202432 0.500000 0.000000
O O15 0.340044 0.559094 0.068989
O O16 0.523325 0.500000 0.500000
O O17 0.500000 0.551958 0.250000
#
# Coordination Sequence:
#
# PCOD9320795 Si02
#       7
#     8   8   8   8   8   8   8
#     4  11  24  42  65  95 136 174 221 275 330 397
#     4  11  21  38  60  91 129 169 211 265 328 384
#     4  11  23  44  68  97 135 170 225 282 331 400
#     4  11  24  42  68  96 132 171 222 277 333 396
#     4  10  24  41  61  92 129 175 216 273 333 387
#     4  11  23  35  53  85 123 166 209 255 311 393
#     4  11  24  43  69 100 131 179 222 279 339 391
#
# _framework density 19.861208999999999
#
# number of rings (size 3 to 8) (size 9 to 14) (size 15 to 20)
#    0.000    1.143    2.857    3.000   10.000    4.571 
#    0.000    0.714    0.000    0.000    0.000    0.000 
#    0.000    0.000    0.000    0.000    0.000    0.000 
#
# Total GULP energy -155973.492276 kJ/mol
# GULP energy per Si atom -5570.481867 kJ/mol
# Density = 1.981600 g / cm^3
# Si number density = 19.861209 Si / 1000 Ang^3
#
#
#
# Elastic Constant Matrix: (Units=GPa)
#
#
# Indices 1 2 3 4 5 6 
#
# 1 102.5119 24.2624 38.4448 0.0000 0.0000 0.0000
# 2 24.2624 88.6088 33.7077 0.0000 0.0000 0.0000
# 3 38.4448 33.7077 75.1210 0.0000 0.0000 0.0000
# 4 0.0000 0.0000 0.0000 28.9014 0.0000 0.0000
# 5 0.0000 0.0000 0.0000 0.0000 22.9433 0.0000
# 6 0.0000 0.0000 0.0000 0.0000 0.0000 15.3485
#
#
#
# Elastic Compliance Matrix: (Units=1/GPa)
#
#
# Indices 1 2 3 4 5 6 
#
# 1 0.012170 -0.001161 -0.005707 0.000000 0.000000 0.000000
# 2 -0.001161 0.013719 -0.005562 0.000000 0.000000 0.000000
# 3 -0.005707 -0.005562 0.018728 0.000000 0.000000 0.000000
# 4 0.000000 0.000000 0.000000 0.034600 0.000000 0.000000
# 5 0.000000 0.000000 0.000000 0.000000 0.043586 0.000000
# 6 0.000000 0.000000 0.000000 0.000000 0.000000 0.065153
#
#
# Mechanical properties :
#
#
# Convention : Reuss Voigt Hill
#
# Bulk Modulus (GPa) = 50.61436 51.00796 50.81116
# Shear Modulus (GPa) = 22.78911 24.76042 23.77476
#
# Velocity S-wave (km/s) = 3.39103 3.53466 3.46359
# Velocity P-wave (km/s) = 6.39308 6.51125 6.45243
#
# Compressibility (1/GPa) = 0.01975724
#
# Stress axis : x y z
#
# Youngs Moduli (GPa) = 82.16788 72.89020 53.39513
#
# Poissons Ratio (x) = 0.08465 0.30474
# Poissons Ratio (y) = 0.09542 0.29697
# Poissons Ratio (z) = 0.46896 0.40539
#
# Static dielectric constant tensor:
#      x y z
#    x 1.724690 0.000000 0.000000 
#    y 0.000000 1.761070 0.000000 
#    z 0.000000 0.000000 1.754190 
# 
# From -- ./inp_files/8706.got.cif
#   From: 2010.05.17/outbox.cif.g08.bks.cpg/sg20_5_cif.got.tgz:8706.got - 2010.06.03 22:52:26.
