data_PCOD9320412
_publ_section_title
;
Structure prediction by ZEFSAII (Michael W. Deem and Ramdas Pophale) SiO2 
 PCOD9320412
Probable space group: C 2 2 21
;
_chemical_formula_sum "Si O2"
_cell_formula_units_Z 56
_cell_length_a 10.960917
_cell_length_b 10.332129
_cell_length_c 21.112064
_cell_angle_alpha 90.000000
_cell_angle_beta 90.000000
_cell_angle_gamma 90.000000
_cell_volume 2390.932981
_symmetry_space_group_name_H-M "C 2 2 21"
_symmetry_group_IT_number 20
_symmetry_cell_setting 'orthorhombic'
loop_
_space_group_symop_operation_xyz
x,y,z
-x,-y,1/2+z
x,-y,-z
-x,y,1/2-z
1/2+x,1/2+y,z
1/2-x,1/2-y,1/2+z
1/2+x,1/2-y,-z
1/2-x,1/2+y,1/2-z
loop_
_atom_site_type_symbol
_atom_site_label
_atom_site_fract_x
_atom_site_fract_y
_atom_site_fract_z
Si Si1 0.204976 0.281970 0.647687
Si Si2 0.893598 0.045533 0.299107
Si Si3 0.263820 0.814098 0.585611
Si Si4 0.982431 0.924868 0.934067
Si Si5 0.864452 0.463431 0.070153
Si Si6 0.947397 0.239801 0.688786
Si Si7 0.387879 0.160019 0.549929
O O1 0.285839 0.347369 0.704232
O O2 0.166568 0.413787 0.612083
O O3 0.293227 0.193670 0.605279
O O4 0.077627 0.207181 0.656551
O O5 0.000000 0.084361 0.250000
O O6 0.934487 0.043789 0.373353
O O7 0.877558 0.890835 0.288123
O O8 0.153488 0.913426 0.592843
O O9 0.205519 0.668937 0.587485
O O10 0.363050 0.815328 0.640624
O O11 0.318760 0.846414 0.516681
O O12 0.025378 0.784253 0.956203
O O13 0.988859 0.000000 0.000000
O O14 0.010910 0.445367 0.068104
O O15 0.821989 0.500000 0.000000
O O16 0.000000 0.314584 0.750000
#
# Coordination Sequence:
#
# PCOD9320412 Si02
#       7
#     8   8   8   8   8   8   8
#     4  11  23  43  67  89 132 167 207 267 316 379
#     4  10  23  44  67  90 127 173 213 258 326 385
#     4  11  22  38  62  95 131 159 217 264 317 389
#     4  10  23  37  64  95 128 165 211 273 320 381
#     4  11  21  39  65  91 131 170 200 262 330 375
#     4  11  25  43  65  92 125 172 219 261 312 389
#     4  10  23  38  62 100 123 164 212 257 326 384
#
# _framework density 23.421821999999999
#
# number of rings (size 3 to 8) (size 9 to 14) (size 15 to 20)
#    0.000    1.429    2.857    1.714    8.000    1.714 
#    0.000    0.000    0.000    0.000    0.000    0.000 
#    0.000    0.000    0.000    0.000    0.000    0.000 
#
# Total GULP energy -156362.467932 kJ/mol
# GULP energy per Si atom -5584.373855 kJ/mol
# Density = 2.336851 g / cm^3
# Si number density = 23.421822 Si / 1000 Ang^3
#
#
#
# Elastic Constant Matrix: (Units=GPa)
#
#
# Indices 1 2 3 4 5 6 
#
# 1 110.7200 7.5741 12.4731 0.0000 0.0000 0.0000
# 2 7.5741 64.3225 -2.7476 0.0000 0.0000 0.0000
# 3 12.4731 -2.7476 51.8769 0.0000 0.0000 0.0000
# 4 0.0000 0.0000 0.0000 10.5683 0.0000 0.0000
# 5 0.0000 0.0000 0.0000 0.0000 12.9369 0.0000
# 6 0.0000 0.0000 0.0000 0.0000 0.0000 33.3677
#
#
#
# Elastic Compliance Matrix: (Units=1/GPa)
#
#
# Indices 1 2 3 4 5 6 
#
# 1 0.009375 -0.001203 -0.002318 0.000000 0.000000 0.000000
# 2 -0.001203 0.015736 0.001123 0.000000 0.000000 0.000000
# 3 -0.002318 0.001123 0.019893 0.000000 0.000000 0.000000
# 4 0.000000 0.000000 0.000000 0.094622 0.000000 0.000000
# 5 0.000000 0.000000 0.000000 0.000000 0.077298 0.000000
# 6 0.000000 0.000000 0.000000 0.000000 0.000000 0.029969
#
#
# Mechanical properties :
#
#
# Convention : Reuss Voigt Hill
#
# Bulk Modulus (GPa) = 24.87044 29.05762 26.96403
# Shear Modulus (GPa) = 18.86130 25.34925 22.10528
#
# Velocity S-wave (km/s) = 2.84084 3.29339 3.07545
# Velocity P-wave (km/s) = 4.62623 5.18604 4.91412
#
# Compressibility (1/GPa) = 0.04020838
#
# Stress axis : x y z
#
# Youngs Moduli (GPa) = 106.66443 63.54746 50.26857
#
# Poissons Ratio (x) = 0.07644 0.11652
# Poissons Ratio (y) = 0.12831 -0.05644
# Poissons Ratio (z) = 0.24723 -0.07134
#
# Static dielectric constant tensor:
#      x y z
#    x 1.978750 0.000000 0.000000 
#    y 0.000000 2.026290 0.000000 
#    z 0.000000 0.000000 1.924100 
# 
# From -- ./inp_files/27207.got.cif
#   From: 2010.05.17/outbox.cif.g08.bks.cpg/sg20_14_cif.got.tgz:27207.got - 2010.06.03 22:52:26.
