data_PCOD9320779
_publ_section_title
;
Structure prediction by ZEFSAII (Michael W. Deem and Ramdas Pophale) SiO2 
 PCOD9320779
Probable space group: C 2 2 21
;
_chemical_formula_sum "Si O2"
_cell_formula_units_Z 48
_cell_length_a 26.939548
_cell_length_b 5.095824
_cell_length_c 16.004390
_cell_angle_alpha 90.000000
_cell_angle_beta 90.000000
_cell_angle_gamma 90.000000
_cell_volume 2197.069780
_symmetry_space_group_name_H-M "C 2 2 21"
_symmetry_group_IT_number 20
_symmetry_cell_setting 'orthorhombic'
loop_
_space_group_symop_operation_xyz
x,y,z
-x,-y,1/2+z
x,-y,-z
-x,y,1/2-z
1/2+x,1/2+y,z
1/2-x,1/2-y,1/2+z
1/2+x,1/2-y,-z
1/2-x,1/2+y,1/2-z
loop_
_atom_site_type_symbol
_atom_site_label
_atom_site_fract_x
_atom_site_fract_y
_atom_site_fract_z
Si Si1 0.523654 0.318090 0.420629
Si Si2 0.936836 0.500000 0.500000
Si Si3 0.113154 0.194341 0.252504
Si Si4 0.299840 0.000000 0.000000
Si Si5 0.500000 0.621187 0.250000
Si Si6 0.651415 0.694641 0.078305
Si Si7 0.375398 0.822490 0.858923
Si Si8 0.234501 0.500000 0.000000
O O1 0.537546 0.500000 0.500000
O O2 0.510126 0.463384 0.335062
O O3 0.570173 0.131411 0.400141
O O4 0.473570 0.175802 0.446797
O O5 0.900015 0.661411 0.557771
O O6 0.054243 0.247870 0.236908
O O7 0.141696 0.090284 0.170643
O O8 0.132911 0.471895 0.284693
O O9 0.121204 0.973391 0.323790
O O10 0.266695 0.249203 0.972171
O O11 0.334139 0.880381 0.927518
O O12 0.658780 0.500000 0.000000
O O13 0.697451 0.893895 0.071948
#
# Coordination Sequence:
#
# PCOD9320779 Si02
#       8
#     8   4   8   4   4   8   8   4
#     4  11  25  42  63 109 144 202 244 291 345 437
#     4  11  23  36  72  96 146 198 239 289 344 424
#     4  11  26  44  69 110 152 187 241 287 357 428
#     4  12  25  52  77 104 135 190 243 308 378 434
#     4  10  24  40  64 100 156 192 236 280 350 412
#     4  11  25  46  74 107 142 192 238 303 359 438
#     4  11  28  43  75 103 148 189 240 299 358 428
#     4  11  26  46  85 100 135 182 248 301 376 434
#
# _framework density 21.847280999999999
#
# number of rings (size 3 to 8) (size 9 to 14) (size 15 to 20)
#    0.000    1.000    0.833    4.000   22.167    0.667 
#    0.000    3.333    0.000    0.000    0.000    0.000 
#    0.000    0.000    0.000    0.000    0.000    0.000 
#
# Total GULP energy -134093.813599 kJ/mol
# GULP energy per Si atom -5587.242233 kJ/mol
# Density = 2.179756 g / cm^3
# Si number density = 21.847281 Si / 1000 Ang^3
#
#
#
# Elastic Constant Matrix: (Units=GPa)
#
#
# Indices 1 2 3 4 5 6 
#
# 1 114.9797 25.8196 33.8479 0.0000 0.0000 0.0000
# 2 25.8196 71.8907 15.8773 0.0000 0.0000 0.0000
# 3 33.8479 15.8773 110.9329 0.0000 0.0000 0.0000
# 4 0.0000 0.0000 0.0000 14.8372 0.0000 0.0000
# 5 0.0000 0.0000 0.0000 0.0000 23.5296 0.0000
# 6 0.0000 0.0000 0.0000 0.0000 0.0000 48.4308
#
#
#
# Elastic Compliance Matrix: (Units=1/GPa)
#
#
# Indices 1 2 3 4 5 6 
#
# 1 0.010170 -0.003064 -0.002664 0.000000 0.000000 0.000000
# 2 -0.003064 0.015287 -0.001253 0.000000 0.000000 0.000000
# 3 -0.002664 -0.001253 0.010007 0.000000 0.000000 0.000000
# 4 0.000000 0.000000 0.000000 0.067398 0.000000 0.000000
# 5 0.000000 0.000000 0.000000 0.000000 0.042500 0.000000
# 6 0.000000 0.000000 0.000000 0.000000 0.000000 0.020648
#
#
# Mechanical properties :
#
#
# Convention : Reuss Voigt Hill
#
# Bulk Modulus (GPa) = 46.51040 49.87699 48.19370
# Shear Modulus (GPa) = 26.71809 32.17676 29.44743
#
# Velocity S-wave (km/s) = 3.50086 3.84188 3.67533
# Velocity P-wave (km/s) = 6.13812 6.52376 6.33387
#
# Compressibility (1/GPa) = 0.02150057
#
# Stress axis : x y z
#
# Youngs Moduli (GPa) = 98.33247 65.41426 99.93233
#
# Poissons Ratio (x) = 0.20043 0.26626
# Poissons Ratio (y) = 0.30129 0.12522
# Poissons Ratio (z) = 0.26200 0.08197
#
# Static dielectric constant tensor:
#      x y z
#    x 1.794770 0.000000 0.000000 
#    y 0.000000 1.821500 0.000000 
#    z 0.000000 0.000000 1.800060 
# 
# From -- ./inp_files/22269.got.cif
#   From: 2010.05.17/outbox.cif.g08.bks.cpg/sg20_12_cif.got.tgz:22269.got - 2010.06.03 22:52:26.
