data_PCOD9320893
_publ_section_title
;
Structure prediction by ZEFSAII (Michael W. Deem and Ramdas Pophale) SiO2 
 PCOD9320893
Probable space group: C 2 2 21
;
_chemical_formula_sum "Si O2"
_cell_formula_units_Z 32
_cell_length_a 18.132164
_cell_length_b 13.788991
_cell_length_c 5.568844
_cell_angle_alpha 90.000000
_cell_angle_beta 90.000000
_cell_angle_gamma 90.000000
_cell_volume 1392.346023
_symmetry_space_group_name_H-M "C 2 2 21"
_symmetry_group_IT_number 20
_symmetry_cell_setting 'orthorhombic'
loop_
_space_group_symop_operation_xyz
x,y,z
-x,-y,1/2+z
x,-y,-z
-x,y,1/2-z
1/2+x,1/2+y,z
1/2-x,1/2-y,1/2+z
1/2+x,1/2-y,-z
1/2-x,1/2+y,1/2-z
loop_
_atom_site_type_symbol
_atom_site_label
_atom_site_fract_x
_atom_site_fract_y
_atom_site_fract_z
Si Si1 0.681091 0.841538 0.668449
Si Si2 0.029538 0.613132 0.503731
Si Si3 0.545048 0.500000 0.000000
Si Si4 0.237990 0.500000 0.000000
Si Si5 0.173798 0.867189 0.131126
O O1 0.617872 0.881103 0.495457
O O2 0.687487 0.915406 0.889945
O O3 0.762291 0.842582 0.557623
O O4 0.660287 0.732229 0.730169
O O5 0.006473 0.500000 0.500000
O O6 0.000000 0.658091 0.750000
O O7 0.000000 0.654870 0.250000
O O8 0.500000 0.503027 0.250000
O O9 0.599985 0.408297 0.016013
O O10 0.290430 0.550789 0.803010
#
# Coordination Sequence:
#
# PCOD9320893 Si02
#       5
#     8   8   4   4   8
#     4  12  26  45  79 114 150 206 267 341 394 482
#     4  10  24  44  70 103 151 200 241 303 397 474
#     4  12  29  54  84 111 166 224 270 332 411 496
#     4  12  23  46  78 113 156 198 254 348 405 460
#     4  12  26  47  78 117 150 205 279 333 404 478
#
# _framework density 22.982793000000001
#
# number of rings (size 3 to 8) (size 9 to 14) (size 15 to 20)
#    0.000    0.500    5.000    2.250    8.750    1.000 
#    0.000    5.000    0.000    0.000    0.000    0.000 
#    0.000    0.000    0.000    0.000    0.000    0.000 
#
# Total GULP energy -89573.206081 kJ/mol
# GULP energy per Si atom -5598.325380 kJ/mol
# Density = 2.293048 g / cm^3
# Si number density = 22.982793 Si / 1000 Ang^3
#
#
#
# Elastic Constant Matrix: (Units=GPa)
#
#
# Indices 1 2 3 4 5 6 
#
# 1 133.6234 11.6195 65.7265 0.0000 0.0000 0.0000
# 2 11.6195 90.1352 22.6339 0.0000 0.0000 0.0000
# 3 65.7265 22.6339 127.9841 0.0000 0.0000 0.0000
# 4 0.0000 0.0000 0.0000 26.2985 0.0000 0.0000
# 5 0.0000 0.0000 0.0000 0.0000 53.1239 0.0000
# 6 0.0000 0.0000 0.0000 0.0000 0.0000 -25.6094
#
#
#
# Elastic Compliance Matrix: (Units=1/GPa)
#
#
# Indices 1 2 3 4 5 6 
#
# 1 0.010013 0.000000 -0.005142 0.000000 0.000000 0.000000
# 2 0.000000 0.011610 -0.002053 0.000000 0.000000 0.000000
# 3 -0.005142 -0.002053 0.010817 0.000000 0.000000 0.000000
# 4 0.000000 0.000000 0.000000 0.038025 0.000000 0.000000
# 5 0.000000 0.000000 0.000000 0.000000 0.018824 0.000000
# 6 0.000000 0.000000 0.000000 0.000000 0.000000 -0.039048
#
#
# Mechanical properties :
#
#
# Convention : Reuss Voigt Hill
#
# Bulk Modulus (GPa) = 55.40178 61.30029 58.35104
# Shear Modulus (GPa) = 70.77292 27.54680 49.15986
#
# Velocity S-wave (km/s) = 5.55524 3.46581 4.62993
# Velocity P-wave (km/s) = 8.08120 6.53804 7.35023
#
# Compressibility (1/GPa) = 0.01804996
#
# Stress axis : x y z
#
# Youngs Moduli (GPa) = 99.86940 86.13238 92.44300
#
# Poissons Ratio (x) = -0.00004 0.47537
# Poissons Ratio (y) = -0.00005 0.18983
# Poissons Ratio (z) = 0.51356 0.17687
#
# Static dielectric constant tensor:
#      x y z
#    x 1.844650 0.000000 0.000000 
#    y 0.000000 1.846530 0.000000 
#    z 0.000000 0.000000 1.950620 
# 
# From -- ./inp_files/1677.got.cif
#   From: 2010.05.17/outbox.cif.g08.bks.cpg/sg20_1_cif.got.tgz:1677.got - 2010.06.03 22:52:26.
