data_PCOD9320194
_publ_section_title
;
Structure prediction by ZEFSAII (Michael W. Deem and Ramdas Pophale) SiO2 
 PCOD9320194
Probable space group: C 2 2 21
;
_chemical_formula_sum "Si O2"
_cell_formula_units_Z 60
_cell_length_a 8.255248
_cell_length_b 23.972698
_cell_length_c 13.661102
_cell_angle_alpha 90.000000
_cell_angle_beta 90.000000
_cell_angle_gamma 90.000000
_cell_volume 2703.539835
_symmetry_space_group_name_H-M "C 2 2 21"
_symmetry_group_IT_number 20
_symmetry_cell_setting 'orthorhombic'
loop_
_space_group_symop_operation_xyz
x,y,z
-x,-y,1/2+z
x,-y,-z
-x,y,1/2-z
1/2+x,1/2+y,z
1/2-x,1/2-y,1/2+z
1/2+x,1/2-y,-z
1/2-x,1/2+y,1/2-z
loop_
_atom_site_type_symbol
_atom_site_label
_atom_site_fract_x
_atom_site_fract_y
_atom_site_fract_z
Si Si1 0.124957 0.912761 0.621376
Si Si2 0.830685 0.604342 0.196410
Si Si3 0.846807 0.500000 0.500000
Si Si4 0.823144 0.218978 0.119655
Si Si5 0.387792 0.206347 0.550316
Si Si6 0.666031 0.762406 0.693822
Si Si7 0.290675 0.434835 0.508134
Si Si8 0.973360 0.409700 0.131733
O O1 0.185975 0.921550 0.735656
O O2 0.149985 0.846607 0.622176
O O3 0.953292 0.915040 0.563411
O O4 0.237296 0.954566 0.558563
O O5 0.818136 0.670940 0.175746
O O6 0.842069 0.576902 0.091008
O O7 0.000000 0.595932 0.250000
O O8 0.947119 0.535941 0.580078
O O9 0.802388 0.246738 0.224270
O O10 0.970137 0.251401 0.073858
O O11 0.653616 0.218376 0.062071
O O12 0.222511 0.224423 0.605070
O O13 0.441915 0.145084 0.584165
O O14 0.500000 0.750123 0.750000
O O15 0.314068 0.500000 0.500000
O O16 0.214577 0.410330 0.407738
O O17 0.000000 0.410116 0.250000
#
# Coordination Sequence:
#
# PCOD9320194 Si02
#       8
#     8   8   4   8   8   8   8   8
#     4  11  24  46  71 107 143 182 250 314 368 438
#     4  10  23  42  77 106 139 187 245 312 372 440
#     4  12  24  48  74  96 146 192 258 298 366 458
#     4  11  24  41  72 102 139 190 231 299 368 441
#     4  12  25  45  69 107 148 191 239 301 377 448
#     4  10  22  43  70 105 138 178 239 299 364 440
#     4  12  26  43  69 104 141 191 242 303 372 442
#     4  12  29  49  73 105 148 204 252 309 380 462
#
# _framework density 22.193127
#
# number of rings (size 3 to 8) (size 9 to 14) (size 15 to 20)
#    0.000    0.800    2.667    4.000    9.333    2.133 
#    2.400    0.667    0.000    0.000    0.000    0.000 
#    0.000    0.000    0.000    0.000    0.000    0.000 
#
# Total GULP energy -167301.347833 kJ/mol
# GULP energy per Si atom -5576.711594 kJ/mol
# Density = 2.214261 g / cm^3
# Si number density = 22.193127 Si / 1000 Ang^3
#
#
#
# Elastic Constant Matrix: (Units=GPa)
#
#
# Indices 1 2 3 4 5 6 
#
# 1 57.0834 12.7656 19.2822 0.0000 0.0000 0.0000
# 2 12.7656 47.1538 20.8780 0.0000 0.0000 0.0000
# 3 19.2822 20.8780 95.3113 0.0000 0.0000 0.0000
# 4 0.0000 0.0000 0.0000 46.7141 0.0000 0.0000
# 5 0.0000 0.0000 0.0000 0.0000 9.4393 0.0000
# 6 0.0000 0.0000 0.0000 0.0000 0.0000 29.6101
#
#
#
# Elastic Compliance Matrix: (Units=1/GPa)
#
#
# Indices 1 2 3 4 5 6 
#
# 1 0.019429 -0.003898 -0.003077 0.000000 0.000000 0.000000
# 2 -0.003898 0.024267 -0.004527 0.000000 0.000000 0.000000
# 3 -0.003077 -0.004527 0.012106 0.000000 0.000000 0.000000
# 4 0.000000 0.000000 0.000000 0.021407 0.000000 0.000000
# 5 0.000000 0.000000 0.000000 0.000000 0.105940 0.000000
# 6 0.000000 0.000000 0.000000 0.000000 0.000000 0.033772
#
#
# Mechanical properties :
#
#
# Convention : Reuss Voigt Hill
#
# Bulk Modulus (GPa) = 30.48892 33.93337 32.21115
# Shear Modulus (GPa) = 19.93163 26.92755 23.42959
#
# Velocity S-wave (km/s) = 3.00008 3.48707 3.25270
# Velocity P-wave (km/s) = 5.07627 5.61570 5.35278
#
# Compressibility (1/GPa) = 0.03279880
#
# Stress axis : x y z
#
# Youngs Moduli (GPa) = 51.46888 41.20854 82.60302
#
# Poissons Ratio (x) = 0.16061 0.25416
# Poissons Ratio (y) = 0.20060 0.37396
# Poissons Ratio (z) = 0.15837 0.18656
#
# Static dielectric constant tensor:
#      x y z
#    x 1.896890 0.000000 0.000000 
#    y 0.000000 1.766940 0.000000 
#    z 0.000000 0.000000 1.854060 
# 
# From -- ./inp_files/13306.got.cif
#   From: 2010.05.17/outbox.cif.g08.bks.cpg/sg20_7_cif.got.tgz:13306.got - 2010.06.03 22:52:26.
