data_PCOD9320554
_publ_section_title
;
Structure prediction by ZEFSAII (Michael W. Deem and Ramdas Pophale) SiO2 
 PCOD9320554
Probable space group: C 2 2 21
;
_chemical_formula_sum "Si O2"
_cell_formula_units_Z 40
_cell_length_a 7.166207
_cell_length_b 17.903597
_cell_length_c 14.950985
_cell_angle_alpha 90.000000
_cell_angle_beta 90.000000
_cell_angle_gamma 90.000000
_cell_volume 1918.224564
_symmetry_space_group_name_H-M "C 2 2 21"
_symmetry_group_IT_number 20
_symmetry_cell_setting 'orthorhombic'
loop_
_space_group_symop_operation_xyz
x,y,z
-x,-y,1/2+z
x,-y,-z
-x,y,1/2-z
1/2+x,1/2+y,z
1/2-x,1/2-y,1/2+z
1/2+x,1/2-y,-z
1/2-x,1/2+y,1/2-z
loop_
_atom_site_type_symbol
_atom_site_label
_atom_site_fract_x
_atom_site_fract_y
_atom_site_fract_z
Si Si1 0.222024 0.641417 0.761296
Si Si2 0.500000 0.515167 0.750000
Si Si3 0.717987 0.830085 0.032940
Si Si4 0.847616 0.335345 0.932713
Si Si5 0.009008 0.066765 0.429458
Si Si6 0.000000 0.271362 0.750000
O O1 0.329897 0.570049 0.721917
O O2 0.261066 0.640512 0.867794
O O3 0.327059 0.715807 0.726422
O O4 0.000000 0.642950 0.750000
O O5 0.440012 0.464365 0.832489
O O6 0.744837 0.741118 0.037674
O O7 0.509970 0.850112 0.003525
O O8 0.857230 0.867418 0.962954
O O9 0.699073 0.400757 0.926777
O O10 0.940295 0.318297 0.836276
O O11 0.024390 0.000000 0.500000
#
# Coordination Sequence:
#
# PCOD9320554 Si02
#       6
#     8   4   8   8   8   4
#     4  10  23  42  73  98 138 187 230 282 356 417
#     4  11  26  46  66 100 145 178 234 288 345 418
#     4  11  24  44  70 101 133 185 231 283 345 419
#     4  11  25  43  71  98 138 178 233 282 346 410
#     4  12  27  47  69 101 142 184 229 295 347 408
#     4   9  24  42  64 108 135 176 236 290 331 428
#
# _framework density 20.852615
#
# number of rings (size 3 to 8) (size 9 to 14) (size 15 to 20)
#    0.000    1.200    4.000    0.000    8.400    2.400 
#    1.800    0.000    0.000    0.000    0.000    0.000 
#    0.000    0.000    0.000    0.000    0.000    0.000 
#
# Total GULP energy -111883.669320 kJ/mol
# GULP energy per Si atom -5594.183466 kJ/mol
# Density = 2.080515 g / cm^3
# Si number density = 20.852615 Si / 1000 Ang^3
#
#
#
# Elastic Constant Matrix: (Units=GPa)
#
#
# Indices 1 2 3 4 5 6 
#
# 1 85.5316 -12.4289 -30.0726 0.0000 0.0000 0.0000
# 2 -12.4289 33.0874 -0.7844 0.0000 0.0000 0.0000
# 3 -30.0726 -0.7844 42.6285 0.0000 0.0000 0.0000
# 4 0.0000 0.0000 0.0000 -4.6442 0.0000 0.0000
# 5 0.0000 0.0000 0.0000 0.0000 30.0895 0.0000
# 6 0.0000 0.0000 0.0000 0.0000 0.0000 19.5530
#
#
#
# Elastic Compliance Matrix: (Units=1/GPa)
#
#
# Indices 1 2 3 4 5 6 
#
# 1 0.016886 0.006628 0.012034 0.000000 0.000000 0.000000
# 2 0.006628 0.032838 0.005280 0.000000 0.000000 0.000000
# 3 0.012034 0.005280 0.032045 0.000000 0.000000 0.000000
# 4 0.000000 0.000000 0.000000 -0.215322 0.000000 0.000000
# 5 0.000000 0.000000 0.000000 0.000000 0.033234 0.000000
# 6 0.000000 0.000000 0.000000 0.000000 0.000000 0.051143
#
#
# Mechanical properties :
#
#
# Convention : Reuss Voigt Hill
#
# Bulk Modulus (GPa) = 7.71277 8.29730 8.00503
# Shear Modulus (GPa) = -92.86255 22.63522 -35.11366
#
# Velocity S-wave (km/s) = -6.68053 3.29825 -4.10798
# Velocity P-wave (km/s) = 7.46989 4.30026 4.31897
#
# Compressibility (1/GPa) = 0.12965516
#
# Stress axis : x y z
#
# Youngs Moduli (GPa) = 59.22071 30.45251 31.20578
#
# Poissons Ratio (x) = -0.20185 -0.37554
# Poissons Ratio (y) = -0.39254 -0.16477
# Poissons Ratio (z) = -0.71268 -0.16080
#
# Static dielectric constant tensor:
#      x y z
#    x 1.733430 0.000000 0.000000 
#    y 0.000000 1.720120 0.000000 
#    z 0.000000 0.000000 1.743040 
# 
# From -- ./inp_files/22665.got.cif
#   From: 2010.05.17/outbox.cif.g08.bks.cpg/sg20_12_cif.got.tgz:22665.got - 2010.06.03 22:52:26.
