data_PCOD9320275
_publ_section_title
;
Structure prediction by ZEFSAII (Michael W. Deem and Ramdas Pophale) SiO2 
 PCOD9320275
Probable space group: C 2 2 21
;
_chemical_formula_sum "Si O2"
_cell_formula_units_Z 60
_cell_length_a 5.181205
_cell_length_b 27.144100
_cell_length_c 18.058637
_cell_angle_alpha 90.000000
_cell_angle_beta 90.000000
_cell_angle_gamma 90.000000
_cell_volume 2539.751297
_symmetry_space_group_name_H-M "C 2 2 21"
_symmetry_group_IT_number 20
_symmetry_cell_setting 'orthorhombic'
loop_
_space_group_symop_operation_xyz
x,y,z
-x,-y,1/2+z
x,-y,-z
-x,y,1/2-z
1/2+x,1/2+y,z
1/2-x,1/2-y,1/2+z
1/2+x,1/2-y,-z
1/2-x,1/2+y,1/2-z
loop_
_atom_site_type_symbol
_atom_site_label
_atom_site_fract_x
_atom_site_fract_y
_atom_site_fract_z
Si Si1 0.356678 0.611491 0.396382
Si Si2 0.950252 0.508972 0.332635
Si Si3 0.500000 0.613425 0.250000
Si Si4 0.532716 0.260014 0.044904
Si Si5 0.417078 0.816122 0.671120
Si Si6 0.453170 0.439701 0.334181
Si Si7 0.996024 0.444206 0.523610
Si Si8 0.382078 0.632276 0.961126
O O1 0.403518 0.582853 0.319574
O O2 0.544226 0.640822 0.451328
O O3 0.137487 0.649592 0.367199
O O4 0.287506 0.570632 0.459057
O O5 0.695316 0.476313 0.340472
O O6 0.905507 0.553006 0.390794
O O7 0.000000 0.527463 0.250000
O O8 0.191729 0.471526 0.345590
O O9 0.312374 0.648753 0.201729
O O10 0.625615 0.227253 0.113755
O O11 0.399165 0.311745 0.066719
O O12 0.297140 0.232536 0.002002
O O13 0.500000 0.793619 0.750000
O O14 0.500000 0.419855 0.250000
O O15 0.468221 0.398548 0.397742
O O16 0.959645 0.500000 0.500000
O O17 0.870182 0.401997 0.474653
#
# Coordination Sequence:
#
# PCOD9320275 Si02
#       8
#     8   8   4   8   8   8   8   8
#     4  11  23  42  67 102 142 189 240 303 371 437
#     4  10  23  44  69  96 140 190 238 299 365 420
#     4  10  22  44  72 100 146 196 236 306 374 448
#     4  12  26  46  73 107 147 193 239 299 373 444
#     4  10  23  45  72 106 146 187 240 308 368 449
#     4  10  23  46  70 100 141 190 246 306 357 429
#     4  12  25  41  67 102 142 191 249 303 356 437
#     4  12  26  42  74 102 143 193 249 300 371 440
#
# _framework density 23.624359999999999
#
# number of rings (size 3 to 8) (size 9 to 14) (size 15 to 20)
#    0.000    1.067    2.667    3.200    3.733    3.733 
#    1.200    0.000    4.400    0.000    0.000    0.000 
#    0.000    0.000    0.000    0.000    0.000    0.000 
#
# Total GULP energy -167125.506006 kJ/mol
# GULP energy per Si atom -5570.850200 kJ/mol
# Density = 2.357059 g / cm^3
# Si number density = 23.624360 Si / 1000 Ang^3
#
#
#
# Elastic Constant Matrix: (Units=GPa)
#
#
# Indices 1 2 3 4 5 6 
#
# 1 81.1885 14.0513 24.6484 0.0000 0.0000 0.0000
# 2 14.0513 99.7430 50.8309 0.0000 0.0000 0.0000
# 3 24.6484 50.8309 146.1496 0.0000 0.0000 0.0000
# 4 0.0000 0.0000 0.0000 48.2486 0.0000 0.0000
# 5 0.0000 0.0000 0.0000 0.0000 41.6060 0.0000
# 6 0.0000 0.0000 0.0000 0.0000 0.0000 6.0558
#
#
#
# Elastic Compliance Matrix: (Units=1/GPa)
#
#
# Indices 1 2 3 4 5 6 
#
# 1 0.013044 -0.000871 -0.001897 0.000000 0.000000 0.000000
# 2 -0.000871 0.012244 -0.004112 0.000000 0.000000 0.000000
# 3 -0.001897 -0.004112 0.008592 0.000000 0.000000 0.000000
# 4 0.000000 0.000000 0.000000 0.020726 0.000000 0.000000
# 5 0.000000 0.000000 0.000000 0.000000 0.024035 0.000000
# 6 0.000000 0.000000 0.000000 0.000000 0.000000 0.165131
#
#
# Mechanical properties :
#
#
# Convention : Reuss Voigt Hill
#
# Bulk Modulus (GPa) = 49.69923 56.23804 52.96863
# Shear Modulus (GPa) = 18.92238 35.01876 26.97057
#
# Velocity S-wave (km/s) = 2.83321 3.85426 3.38249
# Velocity P-wave (km/s) = 5.63788 6.60787 6.14205
#
# Compressibility (1/GPa) = 0.02012104
#
# Stress axis : x y z
#
# Youngs Moduli (GPa) = 76.66574 81.67428 116.38426
#
# Poissons Ratio (x) = 0.07112 0.22078
# Poissons Ratio (y) = 0.06676 0.47852
# Poissons Ratio (z) = 0.14543 0.33581
#
# Static dielectric constant tensor:
#      x y z
#    x 2.482480 0.000000 0.000000 
#    y 0.000000 2.011140 0.000000 
#    z 0.000000 0.000000 2.070860 
# 
# From -- ./inp_files/22919.got.cif
#   From: 2010.05.17/outbox.cif.g08.bks.cpg/sg20_12_cif.got.tgz:22919.got - 2010.06.03 22:52:26.
