data_PCOD9320775
_publ_section_title
;
Structure prediction by ZEFSAII (Michael W. Deem and Ramdas Pophale) SiO2 
 PCOD9320775
Probable space group: C 2 2 21
;
_chemical_formula_sum "Si O2"
_cell_formula_units_Z 52
_cell_length_a 17.610087
_cell_length_b 5.574937
_cell_length_c 20.473317
_cell_angle_alpha 90.000000
_cell_angle_beta 90.000000
_cell_angle_gamma 90.000000
_cell_volume 2009.970468
_symmetry_space_group_name_H-M "C 2 2 21"
_symmetry_group_IT_number 20
_symmetry_cell_setting 'orthorhombic'
loop_
_space_group_symop_operation_xyz
x,y,z
-x,-y,1/2+z
x,-y,-z
-x,y,1/2-z
1/2+x,1/2+y,z
1/2-x,1/2-y,1/2+z
1/2+x,1/2-y,-z
1/2-x,1/2+y,1/2-z
loop_
_atom_site_type_symbol
_atom_site_label
_atom_site_fract_x
_atom_site_fract_y
_atom_site_fract_z
Si Si1 0.644111 0.000000 0.000000
Si Si2 0.316052 0.622493 0.599985
Si Si3 0.946631 0.805383 0.601253
Si Si4 0.356852 0.851314 0.272572
Si Si5 0.317909 0.648355 0.754352
Si Si6 0.123304 0.791112 0.577895
Si Si7 0.182564 0.291717 0.570926
O O1 0.693027 0.846187 0.948092
O O2 0.588399 0.169103 0.959871
O O3 0.405058 0.561610 0.600852
O O4 0.297380 0.655145 0.675911
O O5 0.268750 0.393540 0.572718
O O6 0.912495 0.674010 0.665587
O O7 0.035311 0.826226 0.591996
O O8 0.363864 0.597603 0.235409
O O9 0.265167 0.843921 0.287672
O O10 0.365260 0.107820 0.238576
O O11 0.144450 0.526312 0.603470
O O12 0.146797 0.750383 0.501320
O O13 0.165351 0.033254 0.601817
#
# Coordination Sequence:
#
# PCOD9320775 Si02
#       7
#     4   8   8   8   8   8   8
#     4  12  24  34  62  96 134 156 210 270 318 376
#     4  11  25  37  62  93 126 167 218 265 317 380
#     4  11  24  38  62  95 125 165 214 269 318 386
#     4   9  18  35  60  88 124 156 203 264 329 371
#     4   9  18  36  57  90 123 158 203 265 324 374
#     4  10  24  40  58  80 124 170 205 243 313 382
#     4  10  24  41  56  82 122 173 203 245 310 384
#
# _framework density 25.871027000000002
#
# number of rings (size 3 to 8) (size 9 to 14) (size 15 to 20)
#    0.000    1.846    1.538    1.385   12.923    0.000 
#    0.000    0.000    0.000    0.923    0.000    4.308 
#    0.000    0.000    0.000    0.000    0.000    0.000 
#
# Total GULP energy -145312.515217 kJ/mol
# GULP energy per Si atom -5588.942893 kJ/mol
# Density = 2.581214 g / cm^3
# Si number density = 25.871027 Si / 1000 Ang^3
#
#
#
# Elastic Constant Matrix: (Units=GPa)
#
#
# Indices 1 2 3 4 5 6 
#
# 1 133.9745 41.9398 19.0062 0.0000 0.0000 0.0000
# 2 41.9398 228.6203 25.9147 0.0000 0.0000 0.0000
# 3 19.0062 25.9147 95.3537 0.0000 0.0000 0.0000
# 4 0.0000 0.0000 0.0000 28.3058 0.0000 0.0000
# 5 0.0000 0.0000 0.0000 0.0000 20.9588 0.0000
# 6 0.0000 0.0000 0.0000 0.0000 0.0000 22.7799
#
#
#
# Elastic Compliance Matrix: (Units=1/GPa)
#
#
# Indices 1 2 3 4 5 6 
#
# 1 0.008059 -0.001338 -0.001243 0.000000 0.000000 0.000000
# 2 -0.001338 0.004735 -0.001020 0.000000 0.000000 0.000000
# 3 -0.001243 -0.001020 0.011012 0.000000 0.000000 0.000000
# 4 0.000000 0.000000 0.000000 0.035328 0.000000 0.000000
# 5 0.000000 0.000000 0.000000 0.000000 0.047713 0.000000
# 6 0.000000 0.000000 0.000000 0.000000 0.000000 0.043898
#
#
# Mechanical properties :
#
#
# Convention : Reuss Voigt Hill
#
# Bulk Modulus (GPa) = 60.22228 70.18554 65.20391
# Shear Modulus (GPa) = 30.58436 39.14809 34.86622
#
# Velocity S-wave (km/s) = 3.44202 3.89421 3.67508
# Velocity P-wave (km/s) = 6.25501 6.88533 6.57772
#
# Compressibility (1/GPa) = 0.01660515
#
# Stress axis : x y z
#
# Youngs Moduli (GPa) = 124.08276 211.18950 90.80764
#
# Poissons Ratio (x) = 0.28248 0.11286
# Poissons Ratio (y) = 0.16597 0.09265
# Poissons Ratio (z) = 0.15422 0.21547
#
# Static dielectric constant tensor:
#      x y z
#    x 1.966420 0.000000 0.000000 
#    y 0.000000 2.166160 0.000000 
#    z 0.000000 0.000000 2.147500 
# 
# From -- ./inp_files/30484.got.cif
#   From: 2010.05.17/outbox.cif.g08.bks.cpg/sg20_16_cif.got.tgz:30484.got - 2010.06.03 22:52:26.
