data_PCOD9320316
_publ_section_title
;
Structure prediction by ZEFSAII (Michael W. Deem and Ramdas Pophale) SiO2 
 PCOD9320316
Probable space group: C 2 2 21
;
_chemical_formula_sum "Si O2"
_cell_formula_units_Z 36
_cell_length_a 10.307077
_cell_length_b 10.226080
_cell_length_c 13.675260
_cell_angle_alpha 90.000000
_cell_angle_beta 90.000000
_cell_angle_gamma 90.000000
_cell_volume 1441.385997
_symmetry_space_group_name_H-M "C 2 2 21"
_symmetry_group_IT_number 20
_symmetry_cell_setting 'orthorhombic'
loop_
_space_group_symop_operation_xyz
x,y,z
-x,-y,1/2+z
x,-y,-z
-x,y,1/2-z
1/2+x,1/2+y,z
1/2-x,1/2-y,1/2+z
1/2+x,1/2-y,-z
1/2-x,1/2+y,1/2-z
loop_
_atom_site_type_symbol
_atom_site_label
_atom_site_fract_x
_atom_site_fract_y
_atom_site_fract_z
Si Si1 0.231432 0.308004 0.796716
Si Si2 0.000000 0.943306 0.750000
Si Si3 0.887579 0.549677 0.606178
Si Si4 0.392620 0.339408 0.120964
Si Si5 0.131887 0.359709 0.453641
O O1 0.366837 0.360128 0.749756
O O2 0.148073 0.434307 0.822585
O O3 0.145104 0.228958 0.721811
O O4 0.260498 0.220624 0.892557
O O5 0.979771 0.036525 0.846740
O O6 0.927453 0.500000 0.500000
O O7 0.750700 0.616598 0.587810
O O8 0.019466 0.623846 0.628937
O O9 0.428265 0.235026 0.037990
O O10 0.178389 0.500000 0.500000
#
# Coordination Sequence:
#
# PCOD9320316 Si02
#       5
#     8   4   8   8   8
#     4  11  24  49  68 103 145 179 239 291 348 422
#     4  10  26  42  72  98 132 188 228 292 342 412
#     4  10  22  45  69  95 138 186 224 298 345 408
#     4  11  25  45  72 104 138 187 238 287 349 427
#     4  11  26  44  71 107 142 189 230 293 362 420
#
# _framework density 24.975961000000002
#
# number of rings (size 3 to 8) (size 9 to 14) (size 15 to 20)
#    0.000    1.333    2.222    1.333   12.444    0.000 
#    4.000    0.000    0.000    0.000    0.000    0.000 
#    0.000    0.000    0.000    0.000    0.000    0.000 
#
# Total GULP energy -100529.933206 kJ/mol
# GULP energy per Si atom -5584.996289 kJ/mol
# Density = 2.491911 g / cm^3
# Si number density = 24.975961 Si / 1000 Ang^3
#
#
#
# Elastic Constant Matrix: (Units=GPa)
#
#
# Indices 1 2 3 4 5 6 
#
# 1 76.6626 38.9524 22.4475 0.0000 0.0000 0.0000
# 2 38.9524 87.7827 25.0319 0.0000 0.0000 0.0000
# 3 22.4475 25.0319 75.9504 0.0000 0.0000 0.0000
# 4 0.0000 0.0000 0.0000 19.1949 0.0000 0.0000
# 5 0.0000 0.0000 0.0000 0.0000 4.7658 0.0000
# 6 0.0000 0.0000 0.0000 0.0000 0.0000 25.4239
#
#
#
# Elastic Compliance Matrix: (Units=1/GPa)
#
#
# Indices 1 2 3 4 5 6 
#
# 1 0.017388 -0.006899 -0.002866 0.000000 0.000000 0.000000
# 2 -0.006899 0.015310 -0.003007 0.000000 0.000000 0.000000
# 3 -0.002866 -0.003007 0.015005 0.000000 0.000000 0.000000
# 4 0.000000 0.000000 0.000000 0.052097 0.000000 0.000000
# 5 0.000000 0.000000 0.000000 0.000000 0.209830 0.000000
# 6 0.000000 0.000000 0.000000 0.000000 0.000000 0.039333
#
#
# Mechanical properties :
#
#
# Convention : Reuss Voigt Hill
#
# Bulk Modulus (GPa) = 45.12500 45.91769 45.52135
# Shear Modulus (GPa) = 13.09265 20.14118 16.61691
#
# Velocity S-wave (km/s) = 2.29205 2.84284 2.58217
# Velocity P-wave (km/s) = 5.01111 5.40373 5.21112
#
# Compressibility (1/GPa) = 0.02216066
#
# Stress axis : x y z
#
# Youngs Moduli (GPa) = 57.50932 65.31471 66.64665
#
# Poissons Ratio (x) = 0.45059 0.19098
# Poissons Ratio (y) = 0.39674 0.20041
# Poissons Ratio (z) = 0.16480 0.19641
#
# Static dielectric constant tensor:
#      x y z
#    x 2.981960 0.000000 0.000000 
#    y 0.000000 2.422500 0.000000 
#    z 0.000000 0.000000 1.593910 
# 
# From -- ./inp_files/19614.got.cif
#   From: 2010.05.17/outbox.cif.g08.bks.cpg/sg20_10_cif.got.tgz:19614.got - 2010.06.03 22:52:26.
