data_PCOD9320662
_publ_section_title
;
Structure prediction by ZEFSAII (Michael W. Deem and Ramdas Pophale) SiO2 
 PCOD9320662
Probable space group: C 2 2 21
;
_chemical_formula_sum "Si O2"
_cell_formula_units_Z 40
_cell_length_a 22.425846
_cell_length_b 9.523365
_cell_length_c 8.943249
_cell_angle_alpha 90.000000
_cell_angle_beta 90.000000
_cell_angle_gamma 90.000000
_cell_volume 1910.005368
_symmetry_space_group_name_H-M "C 2 2 21"
_symmetry_group_IT_number 20
_symmetry_cell_setting 'orthorhombic'
loop_
_space_group_symop_operation_xyz
x,y,z
-x,-y,1/2+z
x,-y,-z
-x,y,1/2-z
1/2+x,1/2+y,z
1/2-x,1/2-y,1/2+z
1/2+x,1/2-y,-z
1/2-x,1/2+y,1/2-z
loop_
_atom_site_type_symbol
_atom_site_label
_atom_site_fract_x
_atom_site_fract_y
_atom_site_fract_z
Si Si1 0.842477 0.633975 0.669584
Si Si2 0.625765 0.638416 0.922172
Si Si3 0.790363 0.917327 0.146204
Si Si4 0.069051 0.387135 0.753555
Si Si5 0.662485 0.845726 0.503480
O O1 0.847031 0.752661 0.543512
O O2 0.779409 0.553081 0.662444
O O3 0.893547 0.514503 0.671513
O O4 0.845254 0.703533 0.834046
O O5 0.672964 0.578797 0.799942
O O6 0.579503 0.739876 0.837707
O O7 0.599849 0.500000 0.000000
O O8 0.796466 0.755647 0.097577
O O9 0.814153 0.000000 0.000000
O O10 0.100304 0.363400 0.592299
O O11 0.000000 0.422882 0.750000
O O12 0.689870 0.000000 0.500000
#
# Coordination Sequence:
#
# PCOD9320662 Si02
#       5
#     8   8   8   8   8
#     4  11  22  38  63  94 124 166 217 266 319 379
#     4  11  24  39  61  93 128 165 209 265 323 382
#     4  11  22  38  59  89 132 171 207 257 322 395
#     4  10  23  45  65  88 124 168 218 265 316 385
#     4   9  21  38  59  88 121 164 208 259 324 383
#
# _framework density 20.942350000000001
#
# number of rings (size 3 to 8) (size 9 to 14) (size 15 to 20)
#    0.000    1.600    0.000    4.200    0.000   16.000 
#    0.000    7.000    0.000    0.000    0.000    0.000 
#    0.000    0.000    0.000    0.000    0.000    0.000 
#
# Total GULP energy -111652.707620 kJ/mol
# GULP energy per Si atom -5582.635381 kJ/mol
# Density = 2.089468 g / cm^3
# Si number density = 20.942350 Si / 1000 Ang^3
#
#
#
# Elastic Constant Matrix: (Units=GPa)
#
#
# Indices 1 2 3 4 5 6 
#
# 1 110.2780 21.3208 16.3440 0.0000 0.0000 0.0000
# 2 21.3208 87.9360 17.8705 0.0000 0.0000 0.0000
# 3 16.3440 17.8705 133.7622 0.0000 0.0000 0.0000
# 4 0.0000 0.0000 0.0000 53.4115 0.0000 0.0000
# 5 0.0000 0.0000 0.0000 0.0000 9.8933 0.0000
# 6 0.0000 0.0000 0.0000 0.0000 0.0000 10.8552
#
#
#
# Elastic Compliance Matrix: (Units=1/GPa)
#
#
# Indices 1 2 3 4 5 6 
#
# 1 0.009615 -0.002151 -0.000888 0.000000 0.000000 0.000000
# 2 -0.002151 0.012170 -0.001363 0.000000 0.000000 0.000000
# 3 -0.000888 -0.001363 0.007767 0.000000 0.000000 0.000000
# 4 0.000000 0.000000 0.000000 0.018723 0.000000 0.000000
# 5 0.000000 0.000000 0.000000 0.000000 0.101078 0.000000
# 6 0.000000 0.000000 0.000000 0.000000 0.000000 0.092122
#
#
# Mechanical properties :
#
#
# Convention : Reuss Voigt Hill
#
# Bulk Modulus (GPa) = 48.19481 49.22740 48.71110
# Shear Modulus (GPa) = 19.44051 33.26140 26.35095
#
# Velocity S-wave (km/s) = 3.05009 3.98959 3.55105
# Velocity P-wave (km/s) = 5.95542 6.69176 6.33430
#
# Compressibility (1/GPa) = 0.02074912
#
# Stress axis : x y z
#
# Youngs Moduli (GPa) = 103.99998 82.16626 128.75796
#
# Poissons Ratio (x) = 0.17674 0.11427
# Poissons Ratio (y) = 0.22370 0.17551
# Poissons Ratio (z) = 0.09230 0.11200
#
# Static dielectric constant tensor:
#      x y z
#    x 1.725330 0.000000 0.000000 
#    y 0.000000 1.761110 0.000000 
#    z 0.000000 0.000000 1.849320 
# 
# From -- ./inp_files/10491.got.cif
#   From: 2010.05.17/outbox.cif.g08.bks.cpg/sg20_6_cif.got.tgz:10491.got - 2010.06.03 22:52:26.
