data_PCOD9320358
_publ_section_title
;
Structure prediction by ZEFSAII (Michael W. Deem and Ramdas Pophale) SiO2 
 PCOD9320358
Probable space group: C 2 2 21
;
_chemical_formula_sum "Si O2"
_cell_formula_units_Z 64
_cell_length_a 33.079675
_cell_length_b 10.443557
_cell_length_c 8.979197
_cell_angle_alpha 90.000000
_cell_angle_beta 90.000000
_cell_angle_gamma 90.000000
_cell_volume 3102.038441
_symmetry_space_group_name_H-M "C 2 2 21"
_symmetry_group_IT_number 20
_symmetry_cell_setting 'orthorhombic'
loop_
_space_group_symop_operation_xyz
x,y,z
-x,-y,1/2+z
x,-y,-z
-x,y,1/2-z
1/2+x,1/2+y,z
1/2-x,1/2-y,1/2+z
1/2+x,1/2-y,-z
1/2-x,1/2+y,1/2-z
loop_
_atom_site_type_symbol
_atom_site_label
_atom_site_fract_x
_atom_site_fract_y
_atom_site_fract_z
Si Si1 0.511747 0.629955 0.576301
Si Si2 0.262513 0.859133 0.927318
Si Si3 0.309382 0.978899 0.674551
Si Si4 0.391909 0.641840 0.944835
Si Si5 0.971506 0.621737 0.395297
Si Si6 0.171530 0.138645 0.073487
Si Si7 0.119183 0.716275 0.150902
Si Si8 0.828921 0.736067 0.865638
O O1 0.497933 0.500000 0.500000
O O2 0.500000 0.621542 0.750000
O O3 0.559548 0.645564 0.554078
O O4 0.489936 0.756385 0.518672
O O5 0.217225 0.812762 0.957302
O O6 0.275351 0.893388 0.758513
O O7 0.294846 0.767998 0.006711
O O8 0.265380 0.000000 0.000000
O O9 0.318791 0.111389 0.763614
O O10 0.300707 0.000000 0.500000
O O11 0.350311 0.897465 0.688661
O O12 0.378653 0.674822 0.777138
O O13 0.380018 0.500000 0.000000
O O14 0.371325 0.750266 0.048351
O O15 0.971107 0.500000 0.500000
O O16 0.926027 0.662342 0.353536
O O17 0.000000 0.601415 0.250000
O O18 0.170517 0.146076 0.251162
O O19 0.136465 0.224997 0.002228
O O20 0.168215 0.000000 0.000000
#
# Coordination Sequence:
#
# PCOD9320358 Si02
#       8
#     8   8   8   8   8   8   8   8
#     4  10  22  46  68  98 131 175 223 277 345 422
#     4   9  22  41  64  95 132 175 235 282 335 405
#     4  11  22  42  66  99 131 185 227 281 347 407
#     4  11  23  43  69  98 135 177 227 274 346 419
#     4  11  25  46  69 106 137 177 227 289 354 420
#     4  11  25  43  63 100 138 183 232 286 346 407
#     4  12  23  44  69  95 144 171 228 288 344 419
#     4  11  23  40  67  97 132 179 227 277 341 405
#
# _framework density 20.631595000000001
#
# number of rings (size 3 to 8) (size 9 to 14) (size 15 to 20)
#    0.000    1.250    5.000    1.125    1.750    2.000 
#    4.500    3.125    0.000    0.000    0.000    0.000 
#    0.000    0.000    0.000    0.000    0.000    0.000 
#
# Total GULP energy -178579.614283 kJ/mol
# GULP energy per Si atom -5580.612946 kJ/mol
# Density = 2.058464 g / cm^3
# Si number density = 20.631595 Si / 1000 Ang^3
#
#
#
# Elastic Constant Matrix: (Units=GPa)
#
#
# Indices 1 2 3 4 5 6 
#
# 1 97.3538 24.3162 44.2964 0.0000 0.0000 0.0000
# 2 24.3162 89.0834 44.5982 0.0000 0.0000 0.0000
# 3 44.2964 44.5982 108.1284 0.0000 0.0000 0.0000
# 4 0.0000 0.0000 0.0000 42.6752 0.0000 0.0000
# 5 0.0000 0.0000 0.0000 0.0000 25.4976 0.0000
# 6 0.0000 0.0000 0.0000 0.0000 0.0000 27.2240
#
#
#
# Elastic Compliance Matrix: (Units=1/GPa)
#
#
# Indices 1 2 3 4 5 6 
#
# 1 0.012708 -0.001087 -0.004758 0.000000 0.000000 0.000000
# 2 -0.001087 0.014240 -0.005428 0.000000 0.000000 0.000000
# 3 -0.004758 -0.005428 0.013436 0.000000 0.000000 0.000000
# 4 0.000000 0.000000 0.000000 0.023433 0.000000 0.000000
# 5 0.000000 0.000000 0.000000 0.000000 0.039219 0.000000
# 6 0.000000 0.000000 0.000000 0.000000 0.000000 0.036732
#
#
# Mechanical properties :
#
#
# Convention : Reuss Voigt Hill
#
# Bulk Modulus (GPa) = 56.05821 57.88745 56.97283
# Shear Modulus (GPa) = 29.71599 31.16968 30.44284
#
# Velocity S-wave (km/s) = 3.79927 3.89108 3.84545
# Velocity P-wave (km/s) = 6.81733 6.95025 6.88411
#
# Compressibility (1/GPa) = 0.01783860
#
# Stress axis : x y z
#
# Youngs Moduli (GPa) = 78.69005 70.22710 74.42624
#
# Poissons Ratio (x) = 0.07633 0.35410
# Poissons Ratio (y) = 0.08553 0.40398
# Poissons Ratio (z) = 0.37439 0.38119
#
# Static dielectric constant tensor:
#      x y z
#    x 1.722830 0.000000 0.000000 
#    y 0.000000 1.758280 0.000000 
#    z 0.000000 0.000000 1.788200 
# 
# From -- ./inp_files/11633.got.cif
#   From: 2010.05.17/outbox.cif.g08.bks.cpg/sg20_6_cif.got.tgz:11633.got - 2010.06.03 22:52:26.
