data_PCOD9320364
_publ_section_title
;
Structure prediction by ZEFSAII (Michael W. Deem and Ramdas Pophale) SiO2 
 PCOD9320364
Probable space group: C 2 2 21
;
_chemical_formula_sum "Si O2"
_cell_formula_units_Z 36
_cell_length_a 13.841093
_cell_length_b 7.160017
_cell_length_c 14.001814
_cell_angle_alpha 90.000000
_cell_angle_beta 90.000000
_cell_angle_gamma 90.000000
_cell_volume 1387.614228
_symmetry_space_group_name_H-M "C 2 2 21"
_symmetry_group_IT_number 20
_symmetry_cell_setting 'orthorhombic'
loop_
_space_group_symop_operation_xyz
x,y,z
-x,-y,1/2+z
x,-y,-z
-x,y,1/2-z
1/2+x,1/2+y,z
1/2-x,1/2-y,1/2+z
1/2+x,1/2-y,-z
1/2-x,1/2+y,1/2-z
loop_
_atom_site_type_symbol
_atom_site_label
_atom_site_fract_x
_atom_site_fract_y
_atom_site_fract_z
Si Si1 0.816477 0.999426 0.660760
Si Si2 0.173341 0.716798 0.997365
Si Si3 0.373688 0.015018 0.246796
Si Si4 0.012407 0.381539 0.413947
Si Si5 0.000000 0.135107 0.750000
O O1 0.803345 0.182171 0.595723
O O2 0.929290 0.003189 0.689150
O O3 0.785522 0.830624 0.591649
O O4 0.740762 0.991637 0.746498
O O5 0.057264 0.746357 0.978632
O O6 0.199611 0.500000 0.000000
O O7 0.419541 0.213919 0.212522
O O8 0.427303 0.973527 0.346418
O O9 0.408297 0.861099 0.168173
O O10 0.059145 0.500000 0.500000
#
# Coordination Sequence:
#
# PCOD9320364 Si02
#       5
#     8   8   8   8   4
#     4  11  25  44  75 109 148 206 255 308 393 462
#     4  10  22  46  71 103 154 193 254 322 369 460
#     4  10  23  42  74 108 149 203 254 314 387 459
#     4   9  19  41  71  95 146 197 236 316 382 429
#     4  10  22  46  70 108 158 182 258 326 358 468
#
# _framework density 25.943809000000002
#
# number of rings (size 3 to 8) (size 9 to 14) (size 15 to 20)
#    0.000    2.222    0.000    5.333    6.222    1.778 
#    0.000    1.111    4.889    0.000    0.000    0.000 
#    0.000    0.000    0.000    0.000    0.000    0.000 
#
# Total GULP energy -100249.147748 kJ/mol
# GULP energy per Si atom -5569.397097 kJ/mol
# Density = 2.588476 g / cm^3
# Si number density = 25.943809 Si / 1000 Ang^3
#
#
#
# Elastic Constant Matrix: (Units=GPa)
#
#
# Indices 1 2 3 4 5 6 
#
# 1 120.0171 33.5065 44.4033 0.0000 0.0000 0.0000
# 2 33.5065 134.5664 38.8923 0.0000 0.0000 0.0000
# 3 44.4033 38.8923 132.5150 0.0000 0.0000 0.0000
# 4 0.0000 0.0000 0.0000 34.2507 0.0000 0.0000
# 5 0.0000 0.0000 0.0000 0.0000 46.5767 0.0000
# 6 0.0000 0.0000 0.0000 0.0000 0.0000 13.7334
#
#
#
# Elastic Compliance Matrix: (Units=1/GPa)
#
#
# Indices 1 2 3 4 5 6 
#
# 1 0.009830 -0.001634 -0.002814 0.000000 0.000000 0.000000
# 2 -0.001634 0.008392 -0.001915 0.000000 0.000000 0.000000
# 3 -0.002814 -0.001915 0.009051 0.000000 0.000000 0.000000
# 4 0.000000 0.000000 0.000000 0.029196 0.000000 0.000000
# 5 0.000000 0.000000 0.000000 0.000000 0.021470 0.000000
# 6 0.000000 0.000000 0.000000 0.000000 0.000000 0.072815
#
#
# Mechanical properties :
#
#
# Convention : Reuss Voigt Hill
#
# Bulk Modulus (GPa) = 68.74989 68.96696 68.85843
# Shear Modulus (GPa) = 29.70358 36.93191 33.31775
#
# Velocity S-wave (km/s) = 3.38734 3.77707 3.58750
# Velocity P-wave (km/s) = 6.46961 6.75741 6.61507
#
# Compressibility (1/GPa) = 0.01454548
#
# Stress axis : x y z
#
# Youngs Moduli (GPa) = 101.73447 119.16465 110.48020
#
# Poissons Ratio (x) = 0.19474 0.31090
# Poissons Ratio (y) = 0.16625 0.21161
# Poissons Ratio (z) = 0.28629 0.22824
#
# Static dielectric constant tensor:
#      x y z
#    x 2.078450 0.000000 0.000000 
#    y 0.000000 2.248650 0.000000 
#    z 0.000000 0.000000 2.055770 
# 
# From -- ./inp_files/20457.got.cif
#   From: 2010.05.17/outbox.cif.g08.bks.cpg/sg20_11_cif.got.tgz:20457.got - 2010.06.03 22:52:26.
