data_PCOD9320821
_publ_section_title
;
Structure prediction by ZEFSAII (Michael W. Deem and Ramdas Pophale) SiO2 
 PCOD9320821
Probable space group: C 2 2 21
;
_chemical_formula_sum "Si O2"
_cell_formula_units_Z 40
_cell_length_a 10.074136
_cell_length_b 9.375465
_cell_length_c 17.582258
_cell_angle_alpha 90.000000
_cell_angle_beta 90.000000
_cell_angle_gamma 90.000000
_cell_volume 1660.639160
_symmetry_space_group_name_H-M "C 2 2 21"
_symmetry_group_IT_number 20
_symmetry_cell_setting 'orthorhombic'
loop_
_space_group_symop_operation_xyz
x,y,z
-x,-y,1/2+z
x,-y,-z
-x,y,1/2-z
1/2+x,1/2+y,z
1/2-x,1/2-y,1/2+z
1/2+x,1/2-y,-z
1/2-x,1/2+y,1/2-z
loop_
_atom_site_type_symbol
_atom_site_label
_atom_site_fract_x
_atom_site_fract_y
_atom_site_fract_z
Si Si1 0.240781 0.207491 0.558922
Si Si2 0.717736 0.501127 0.908667
Si Si3 0.441928 0.233284 0.419180
Si Si4 0.865033 0.339802 0.204179
Si Si5 0.770907 0.544075 0.328999
O O1 0.299192 0.335472 0.612104
O O2 0.334921 0.200420 0.485624
O O3 0.234880 0.057608 0.600939
O O4 0.089082 0.258516 0.547826
O O5 0.598909 0.609222 0.889122
O O6 0.848712 0.574925 0.874786
O O7 0.724216 0.500000 0.000000
O O8 0.410446 0.120628 0.352500
O O9 0.772413 0.437689 0.258030
O O10 0.000000 0.340266 0.250000
O O11 0.820887 0.179369 0.187233
#
# Coordination Sequence:
#
# PCOD9320821 Si02
#       5
#     8   8   8   8   8
#     4  11  23  42  68  99 138 178 225 281 341 407
#     4   9  21  42  66  94 132 175 221 278 339 400
#     4  10  24  42  67 101 138 180 226 280 340 408
#     4  11  24  43  66  95 134 182 230 280 344 412
#     4  11  25  41  65  99 134 179 231 281 339 407
#
# _framework density 24.087112000000001
#
# number of rings (size 3 to 8) (size 9 to 14) (size 15 to 20)
#    0.000    1.600    0.000    3.000    0.000   19.200 
#    0.000    1.000    0.000    0.000    0.000    0.000 
#    0.000    0.000    0.000    0.000    0.000    0.000 
#
# Total GULP energy -111726.415620 kJ/mol
# GULP energy per Si atom -5586.320781 kJ/mol
# Density = 2.403229 g / cm^3
# Si number density = 24.087112 Si / 1000 Ang^3
#
#
#
# Elastic Constant Matrix: (Units=GPa)
#
#
# Indices 1 2 3 4 5 6 
#
# 1 45.2464 0.4010 -6.0107 0.0000 0.0000 0.0000
# 2 0.4010 172.5466 31.0030 0.0000 0.0000 0.0000
# 3 -6.0107 31.0030 54.9602 0.0000 0.0000 0.0000
# 4 0.0000 0.0000 0.0000 52.9287 0.0000 0.0000
# 5 0.0000 0.0000 0.0000 0.0000 28.3249 0.0000
# 6 0.0000 0.0000 0.0000 0.0000 0.0000 24.9090
#
#
#
# Elastic Compliance Matrix: (Units=1/GPa)
#
#
# Indices 1 2 3 4 5 6 
#
# 1 0.022474 -0.000550 0.002768 0.000000 0.000000 0.000000
# 2 -0.000550 0.006463 -0.003706 0.000000 0.000000 0.000000
# 3 0.002768 -0.003706 0.020588 0.000000 0.000000 0.000000
# 4 0.000000 0.000000 0.000000 0.018893 0.000000 0.000000
# 5 0.000000 0.000000 0.000000 0.000000 0.035305 0.000000
# 6 0.000000 0.000000 0.000000 0.000000 0.000000 0.040146
#
#
# Mechanical properties :
#
#
# Convention : Reuss Voigt Hill
#
# Bulk Modulus (GPa) = 21.48243 35.94887 28.71565
# Shear Modulus (GPa) = 30.79580 37.72319 34.25950
#
# Velocity S-wave (km/s) = 3.57952 3.96171 3.77545
# Velocity P-wave (km/s) = 5.10117 5.99031 5.56353
#
# Compressibility (1/GPa) = 0.04654967
#
# Stress axis : x y z
#
# Youngs Moduli (GPa) = 44.49637 154.73545 48.57186
#
# Poissons Ratio (x) = 0.08503 -0.13444
# Poissons Ratio (y) = 0.02445 0.17999
# Poissons Ratio (z) = -0.12316 0.57340
#
# Static dielectric constant tensor:
#      x y z
#    x 1.941140 0.000000 0.000000 
#    y 0.000000 1.979050 0.000000 
#    z 0.000000 0.000000 1.985350 
# 
# From -- ./inp_files/26479.got.cif
#   From: 2010.05.17/outbox.cif.g08.bks.cpg/sg20_14_cif.got.tgz:26479.got - 2010.06.03 22:52:26.
