data_PCOD9320698
_publ_section_title
;
Structure prediction by ZEFSAII (Michael W. Deem and Ramdas Pophale) SiO2 
 PCOD9320698
Probable space group: C 2 2 21
;
_chemical_formula_sum "Si O2"
_cell_formula_units_Z 40
_cell_length_a 13.185461
_cell_length_b 4.920897
_cell_length_c 26.346024
_cell_angle_alpha 90.000000
_cell_angle_beta 90.000000
_cell_angle_gamma 90.000000
_cell_volume 1709.443206
_symmetry_space_group_name_H-M "C 2 2 21"
_symmetry_group_IT_number 20
_symmetry_cell_setting 'orthorhombic'
loop_
_space_group_symop_operation_xyz
x,y,z
-x,-y,1/2+z
x,-y,-z
-x,y,1/2-z
1/2+x,1/2+y,z
1/2-x,1/2-y,1/2+z
1/2+x,1/2-y,-z
1/2-x,1/2+y,1/2-z
loop_
_atom_site_type_symbol
_atom_site_label
_atom_site_fract_x
_atom_site_fract_y
_atom_site_fract_z
Si Si1 0.440907 0.275907 0.655782
Si Si2 0.804090 0.763582 0.034379
Si Si3 0.500000 0.643469 0.750000
Si Si4 0.693200 0.017450 0.767239
Si Si5 0.895088 0.500000 0.500000
Si Si6 0.989408 0.266845 0.905802
O O1 0.490575 0.441514 0.702428
O O2 0.449047 0.505737 0.613100
O O3 0.336392 0.157784 0.679265
O O4 0.495251 0.011542 0.633576
O O5 0.869055 0.765441 0.085209
O O6 0.813609 0.500000 0.000000
O O7 0.850905 0.000000 0.000000
O O8 0.684790 0.833651 0.035340
O O9 0.595746 0.846031 0.748972
O O10 0.775956 0.775405 0.767393
O O11 0.964166 0.656931 0.460398
#
# Coordination Sequence:
#
# PCOD9320698 Si02
#       6
#     8   8   4   8   4   8
#     4  12  27  47  79 114 145 207 249 314 391 442
#     4  10  23  45  74 105 141 198 239 290 385 433
#     4  12  26  54  76 108 162 200 258 318 396 444
#     4  12  25  49  79 107 150 200 252 310 382 451
#     4  10  28  46  78 100 154 196 244 306 386 442
#     4  12  25  47  75 111 155 187 262 316 366 464
#
# _framework density 23.399429999999999
#
# number of rings (size 3 to 8) (size 9 to 14) (size 15 to 20)
#    0.600    0.000    5.000    1.800    2.800    0.000 
#    3.600    6.000    0.000    0.000    0.000    0.000 
#    0.000    0.000    0.000    0.000    0.000    0.000 
#
# Total GULP energy -111677.789890 kJ/mol
# GULP energy per Si atom -5583.889495 kJ/mol
# Density = 2.334617 g / cm^3
# Si number density = 23.399430 Si / 1000 Ang^3
#
#
#
# Elastic Constant Matrix: (Units=GPa)
#
#
# Indices 1 2 3 4 5 6 
#
# 1 99.4209 34.2067 31.3192 0.0000 0.0000 0.0000
# 2 34.2067 162.4136 15.3578 0.0000 0.0000 0.0000
# 3 31.3192 15.3578 60.2393 0.0000 0.0000 0.0000
# 4 0.0000 0.0000 0.0000 64.7310 0.0000 0.0000
# 5 0.0000 0.0000 0.0000 0.0000 28.6127 0.0000
# 6 0.0000 0.0000 0.0000 0.0000 0.0000 51.5091
#
#
#
# Elastic Compliance Matrix: (Units=1/GPa)
#
#
# Indices 1 2 3 4 5 6 
#
# 1 0.012690 -0.002100 -0.006063 0.000000 0.000000 0.000000
# 2 -0.002100 0.006657 -0.000606 0.000000 0.000000 0.000000
# 3 -0.006063 -0.000606 0.019907 0.000000 0.000000 0.000000
# 4 0.000000 0.000000 0.000000 0.015449 0.000000 0.000000
# 5 0.000000 0.000000 0.000000 0.000000 0.034950 0.000000
# 6 0.000000 0.000000 0.000000 0.000000 0.000000 0.019414
#
#
# Mechanical properties :
#
#
# Convention : Reuss Voigt Hill
#
# Bulk Modulus (GPa) = 46.04364 53.76014 49.90189
# Shear Modulus (GPa) = 37.35779 45.04989 41.20384
#
# Velocity S-wave (km/s) = 3.99999 4.39253 4.20085
# Velocity P-wave (km/s) = 6.40728 6.98217 6.70089
#
# Compressibility (1/GPa) = 0.02171853
#
# Stress axis : x y z
#
# Youngs Moduli (GPa) = 78.79941 150.22762 50.23388
#
# Poissons Ratio (x) = 0.31540 0.30455
# Poissons Ratio (y) = 0.16544 0.03042
# Poissons Ratio (z) = 0.47774 0.09096
#
# Static dielectric constant tensor:
#      x y z
#    x 1.958270 0.000000 0.000000 
#    y 0.000000 1.861850 0.000000 
#    z 0.000000 0.000000 1.889150 
# 
# From -- ./inp_files/30370.got.cif
#   From: 2010.05.17/outbox.cif.g08.bks.cpg/sg20_16_cif.got.tgz:30370.got - 2010.06.03 22:52:26.
