data_PCOD9320668
_publ_section_title
;
Structure prediction by ZEFSAII (Michael W. Deem and Ramdas Pophale) SiO2 
 PCOD9320668
Probable space group: C 2 2 21
;
_chemical_formula_sum "Si O2"
_cell_formula_units_Z 64
_cell_length_a 7.699782
_cell_length_b 12.327578
_cell_length_c 27.918983
_cell_angle_alpha 90.000000
_cell_angle_beta 90.000000
_cell_angle_gamma 90.000000
_cell_volume 2650.060463
_symmetry_space_group_name_H-M "C 2 2 21"
_symmetry_group_IT_number 20
_symmetry_cell_setting 'orthorhombic'
loop_
_space_group_symop_operation_xyz
x,y,z
-x,-y,1/2+z
x,-y,-z
-x,y,1/2-z
1/2+x,1/2+y,z
1/2-x,1/2-y,1/2+z
1/2+x,1/2-y,-z
1/2-x,1/2+y,1/2-z
loop_
_atom_site_type_symbol
_atom_site_label
_atom_site_fract_x
_atom_site_fract_y
_atom_site_fract_z
Si Si1 0.536702 0.657773 0.693823
Si Si2 0.609918 0.507419 0.942732
Si Si3 0.005346 0.923811 0.692022
Si Si4 0.145045 0.352562 0.861393
Si Si5 0.881201 0.227755 0.442980
Si Si6 0.013309 0.761993 0.053168
Si Si7 0.049041 0.575126 0.614053
Si Si8 0.072047 0.303988 0.196341
O O1 0.500000 0.672501 0.750000
O O2 0.457877 0.543896 0.674932
O O3 0.469789 0.764273 0.667356
O O4 0.743640 0.639013 0.690495
O O5 0.541932 0.389349 0.927441
O O6 0.486391 0.610470 0.935844
O O7 0.784570 0.542094 0.916155
O O8 0.643259 0.500000 0.000000
O O9 0.887746 0.819961 0.681062
O O10 0.000000 0.933118 0.750000
O O11 0.188630 0.883605 0.670460
O O12 0.158371 0.290807 0.912612
O O13 0.051136 0.465060 0.873607
O O14 0.928876 0.247248 0.498392
O O15 0.674336 0.209920 0.439164
O O16 0.940911 0.333458 0.414699
O O17 0.072607 0.638246 0.664157
O O18 0.000000 0.304151 0.250000
#
# Coordination Sequence:
#
# PCOD9320668 Si02
#       8
#     8   8   8   8   8   8   8   8
#     4  11  24  46  69  93 136 176 222 288 338 400
#     4  10  23  45  67 101 135 179 225 275 341 405
#     4  10  23  45  67  99 135 174 231 285 341 408
#     4  12  25  45  69 104 134 185 229 277 350 411
#     4  11  24  47  67 102 142 179 227 285 341 409
#     4  11  24  45  73  99 142 182 226 284 346 410
#     4  12  25  44  72  98 141 183 222 285 342 411
#     4  11  24  46  67 100 133 173 229 280 338 405
#
# _framework density 24.150390999999999
#
# number of rings (size 3 to 8) (size 9 to 14) (size 15 to 20)
#    0.000    1.000    2.500    4.500    0.000    1.500 
#   18.000    0.000    0.000    0.000    0.000    0.000 
#    0.000    0.000    0.000    0.000    0.000    0.000 
#
# Total GULP energy -179101.315142 kJ/mol
# GULP energy per Si atom -5596.916098 kJ/mol
# Density = 2.409542 g / cm^3
# Si number density = 24.150391 Si / 1000 Ang^3
#
#
#
# Elastic Constant Matrix: (Units=GPa)
#
#
# Indices 1 2 3 4 5 6 
#
# 1 72.7224 25.5222 14.2016 0.0000 0.0000 0.0000
# 2 25.5222 202.0751 61.8427 0.0000 0.0000 0.0000
# 3 14.2016 61.8427 112.2212 0.0000 0.0000 0.0000
# 4 0.0000 0.0000 0.0000 41.1274 0.0000 0.0000
# 5 0.0000 0.0000 0.0000 0.0000 28.3261 0.0000
# 6 0.0000 0.0000 0.0000 0.0000 0.0000 37.5129
#
#
#
# Elastic Compliance Matrix: (Units=1/GPa)
#
#
# Indices 1 2 3 4 5 6 
#
# 1 0.014480 -0.001525 -0.000992 0.000000 0.000000 0.000000
# 2 -0.001525 0.006113 -0.003176 0.000000 0.000000 0.000000
# 3 -0.000992 -0.003176 0.010787 0.000000 0.000000 0.000000
# 4 0.000000 0.000000 0.000000 0.024315 0.000000 0.000000
# 5 0.000000 0.000000 0.000000 0.000000 0.035303 0.000000
# 6 0.000000 0.000000 0.000000 0.000000 0.000000 0.026658
#
#
# Mechanical properties :
#
#
# Convention : Reuss Voigt Hill
#
# Bulk Modulus (GPa) = 50.01558 65.57242 57.79400
# Shear Modulus (GPa) = 36.84441 40.42341 38.63391
#
# Velocity S-wave (km/s) = 3.91016 4.09567 4.00399
# Velocity P-wave (km/s) = 6.41411 7.04107 6.73489
#
# Compressibility (1/GPa) = 0.01999377
#
# Stress axis : x y z
#
# Youngs Moduli (GPa) = 69.06115 163.57974 92.70726
#
# Poissons Ratio (x) = 0.24950 0.09196
# Poissons Ratio (y) = 0.10534 0.29442
# Poissons Ratio (z) = 0.06850 0.51950
#
# Static dielectric constant tensor:
#      x y z
#    x 1.887250 0.000000 0.000000 
#    y 0.000000 1.932410 0.000000 
#    z 0.000000 0.000000 1.954820 
# 
# From -- ./inp_files/31073.got.cif
#   From: 2010.05.17/outbox.cif.g08.bks.cpg/sg20_16_cif.got.tgz:31073.got - 2010.06.03 22:52:26.
