data_PCOD9320927
_publ_section_title
;
Structure prediction by ZEFSAII (Michael W. Deem and Ramdas Pophale) SiO2 
 PCOD9320927
Probable space group: C 2 2 21
;
_chemical_formula_sum "Si O2"
_cell_formula_units_Z 36
_cell_length_a 12.984823
_cell_length_b 24.095802
_cell_length_c 5.062215
_cell_angle_alpha 90.000000
_cell_angle_beta 90.000000
_cell_angle_gamma 90.000000
_cell_volume 1583.864432
_symmetry_space_group_name_H-M "C 2 2 21"
_symmetry_group_IT_number 20
_symmetry_cell_setting 'orthorhombic'
loop_
_space_group_symop_operation_xyz
x,y,z
-x,-y,1/2+z
x,-y,-z
-x,y,1/2-z
1/2+x,1/2+y,z
1/2-x,1/2-y,1/2+z
1/2+x,1/2-y,-z
1/2-x,1/2+y,1/2-z
loop_
_atom_site_type_symbol
_atom_site_label
_atom_site_fract_x
_atom_site_fract_y
_atom_site_fract_z
Si Si1 0.806766 0.893874 0.620084
Si Si2 0.926967 0.000000 0.500000
Si Si3 0.213224 0.717572 0.470413
Si Si4 0.500000 0.250990 0.250000
Si Si5 0.000000 0.829626 0.750000
Si Si6 0.113363 0.459690 0.753436
O O1 0.857048 0.945294 0.465126
O O2 0.758767 0.842464 0.460316
O O3 0.709091 0.918637 0.771643
O O4 0.899786 0.868079 0.791151
O O5 0.000000 0.007373 0.250000
O O6 0.221411 0.755015 0.731189
O O7 0.098456 0.716481 0.348957
O O8 0.478527 0.291709 0.496147
O O9 0.123123 0.500000 0.500000
O O10 0.000000 0.432162 0.750000
O O11 0.115335 0.500000 0.000000
#
# Coordination Sequence:
#
# PCOD9320927 Si02
#       6
#     8   4   8   4   4   8
#     4  12  26  46  73 108 143 189 241 296 359 436
#     4  12  30  46  72 108 150 192 236 292 370 440
#     4  12  26  45  73 102 139 188 238 298 356 418
#     4  12  24  50  65 108 141 184 240 296 358 426
#     4  12  26  42  77  98 149 184 236 296 362 424
#     4  10  24  45  67  96 139 188 236 287 344 418
#
# _framework density 22.729219000000001
#
# number of rings (size 3 to 8) (size 9 to 14) (size 15 to 20)
#    0.000    0.444    6.667    0.000    4.667    5.333 
#    0.000    0.000    0.000    0.000    0.000    0.000 
#    0.000    0.000    0.000    0.000    0.000    0.000 
#
# Total GULP energy -100679.061151 kJ/mol
# GULP energy per Si atom -5593.281175 kJ/mol
# Density = 2.267749 g / cm^3
# Si number density = 22.729219 Si / 1000 Ang^3
#
#
#
# Elastic Constant Matrix: (Units=GPa)
#
#
# Indices 1 2 3 4 5 6 
#
# 1 186.2699 62.5978 16.8871 0.0000 0.0000 0.0000
# 2 62.5978 133.0691 25.2085 0.0000 0.0000 0.0000
# 3 16.8871 25.2085 120.2488 0.0000 0.0000 0.0000
# 4 0.0000 0.0000 0.0000 15.1155 0.0000 0.0000
# 5 0.0000 0.0000 0.0000 0.0000 25.9231 0.0000
# 6 0.0000 0.0000 0.0000 0.0000 0.0000 45.4459
#
#
#
# Elastic Compliance Matrix: (Units=1/GPa)
#
#
# Indices 1 2 3 4 5 6 
#
# 1 0.006386 -0.002951 -0.000278 0.000000 0.000000 0.000000
# 2 -0.002951 0.009190 -0.001512 0.000000 0.000000 0.000000
# 3 -0.000278 -0.001512 0.008672 0.000000 0.000000 0.000000
# 4 0.000000 0.000000 0.000000 0.066157 0.000000 0.000000
# 5 0.000000 0.000000 0.000000 0.000000 0.038576 0.000000
# 6 0.000000 0.000000 0.000000 0.000000 0.000000 0.022004
#
#
# Mechanical properties :
#
#
# Convention : Reuss Voigt Hill
#
# Bulk Modulus (GPa) = 67.72909 72.10828 69.91869
# Shear Modulus (GPa) = 30.23188 39.62321 34.92754
#
# Velocity S-wave (km/s) = 3.65099 4.17978 3.92430
# Velocity P-wave (km/s) = 6.90188 7.42212 7.16672
#
# Compressibility (1/GPa) = 0.01476470
#
# Stress axis : x y z
#
# Youngs Moduli (GPa) = 156.60398 108.81858 115.31204
#
# Poissons Ratio (x) = 0.32114 0.03207
# Poissons Ratio (y) = 0.46217 0.17435
# Poissons Ratio (z) = 0.04355 0.16454
#
# Static dielectric constant tensor:
#      x y z
#    x 1.908360 0.000000 0.000000 
#    y 0.000000 1.846410 0.000000 
#    z 0.000000 0.000000 1.761920 
# 
# From -- ./inp_files/1244.got.cif
#   From: 2010.05.17/outbox.cif.g08.bks.cpg/sg20_1_cif.got.tgz:1244.got - 2010.06.03 22:52:26.
