data_PCOD9320976
_publ_section_title
;
Structure prediction by ZEFSAII (Michael W. Deem and Ramdas Pophale) SiO2 
 PCOD9320976
Probable space group: C 2 2 21
;
_chemical_formula_sum "Si O2"
_cell_formula_units_Z 56
_cell_length_a 10.370175
_cell_length_b 14.735814
_cell_length_c 16.716235
_cell_angle_alpha 90.000000
_cell_angle_beta 90.000000
_cell_angle_gamma 90.000000
_cell_volume 2554.457517
_symmetry_space_group_name_H-M "C 2 2 21"
_symmetry_group_IT_number 20
_symmetry_cell_setting 'orthorhombic'
loop_
_space_group_symop_operation_xyz
x,y,z
-x,-y,1/2+z
x,-y,-z
-x,y,1/2-z
1/2+x,1/2+y,z
1/2-x,1/2-y,1/2+z
1/2+x,1/2-y,-z
1/2-x,1/2+y,1/2-z
loop_
_atom_site_type_symbol
_atom_site_label
_atom_site_fract_x
_atom_site_fract_y
_atom_site_fract_z
Si Si1 0.735970 0.667198 0.705675
Si Si2 0.631371 0.800055 0.831739
Si Si3 0.149275 0.491621 0.748676
Si Si4 0.000000 0.770196 0.750000
Si Si5 0.127239 0.283771 0.571880
Si Si6 0.742902 0.532187 0.078885
Si Si7 0.889980 0.178469 0.080201
Si Si8 0.491376 0.500000 0.000000
O O1 0.646283 0.711281 0.775565
O O2 0.759050 0.560163 0.704279
O O3 0.874398 0.711747 0.727352
O O4 0.685271 0.699486 0.620394
O O5 0.494504 0.813198 0.874161
O O6 0.742274 0.801052 0.897909
O O7 0.659710 0.888368 0.777630
O O8 0.194139 0.500437 0.658488
O O9 0.000000 0.517456 0.750000
O O10 0.962837 0.821353 0.833430
O O11 0.239798 0.359537 0.573770
O O12 0.076948 0.256926 0.484153
O O13 0.817190 0.500000 0.000000
O O14 0.600345 0.489236 0.070093
O O15 0.912786 0.085483 0.031639
#
# Coordination Sequence:
#
# PCOD9320976 Si02
#       8
#     8   8   8   4   8   8   8   4
#     4  11  24  42  75 103 141 192 238 299 368 433
#     4  11  26  48  72 103 149 192 245 306 371 440
#     4  12  23  47  71 108 144 190 245 298 365 449
#     4  10  24  46  72 102 142 188 240 294 370 432
#     4  12  25  48  71 104 147 194 244 306 368 446
#     4  10  25  43  74  97 138 192 241 294 365 432
#     4  11  28  44  73 104 144 191 243 306 366 443
#     4  10  26  48  64 102 142 182 246 292 368 440
#
# _framework density 21.922463
#
# number of rings (size 3 to 8) (size 9 to 14) (size 15 to 20)
#    0.429    0.571    3.571    1.286   14.000    0.000 
#    1.286    0.000    0.000    0.000    0.000    0.000 
#    0.000    0.000    0.000    0.000    0.000    0.000 
#
# Total GULP energy -156224.715391 kJ/mol
# GULP energy per Si atom -5579.454121 kJ/mol
# Density = 2.187257 g / cm^3
# Si number density = 21.922463 Si / 1000 Ang^3
#
#
#
# Elastic Constant Matrix: (Units=GPa)
#
#
# Indices 1 2 3 4 5 6 
#
# 1 50.7215 -5.7349 15.9965 0.0000 0.0000 0.0000
# 2 -5.7349 25.0831 -3.5626 0.0000 0.0000 0.0000
# 3 15.9965 -3.5626 83.9279 0.0000 0.0000 0.0000
# 4 0.0000 0.0000 0.0000 10.0440 0.0000 0.0000
# 5 0.0000 0.0000 0.0000 0.0000 38.5683 0.0000
# 6 0.0000 0.0000 0.0000 0.0000 0.0000 -2.0535
#
#
#
# Elastic Compliance Matrix: (Units=1/GPa)
#
#
# Indices 1 2 3 4 5 6 
#
# 1 0.021437 0.004347 -0.003901 0.000000 0.000000 0.000000
# 2 0.004347 0.040991 0.000911 0.000000 0.000000 0.000000
# 3 -0.003901 0.000911 0.012697 0.000000 0.000000 0.000000
# 4 0.000000 0.000000 0.000000 0.099562 0.000000 0.000000
# 5 0.000000 0.000000 0.000000 0.000000 0.025928 0.000000
# 6 0.000000 0.000000 0.000000 0.000000 0.000000 -0.486978
#
#
# Mechanical properties :
#
#
# Convention : Reuss Voigt Hill
#
# Bulk Modulus (GPa) = 12.84685 19.23672 16.04179
# Shear Modulus (GPa) = -19.00194 19.51401 0.25604
#
# Velocity S-wave (km/s) = -2.94731 2.98675 0.34212
# Velocity P-wave (km/s) = 2.38941 4.54843 2.73669
#
# Compressibility (1/GPa) = 0.07784008
#
# Stress axis : x y z
#
# Youngs Moduli (GPa) = 46.64738 24.39570 78.75705
#
# Poissons Ratio (x) = -0.10605 0.30726
# Poissons Ratio (y) = -0.20279 -0.07178
# Poissons Ratio (z) = 0.18199 -0.02224
#
# Static dielectric constant tensor:
#      x y z
#    x 1.838680 0.000000 0.000000 
#    y 0.000000 1.873600 0.000000 
#    z 0.000000 0.000000 1.914190 
# 
# From -- ./inp_files/20101.got.cif
#   From: 2010.05.17/outbox.cif.g08.bks.cpg/sg20_11_cif.got.tgz:20101.got - 2010.06.03 22:52:26.
