data_PCOD9320541
_publ_section_title
;
Structure prediction by ZEFSAII (Michael W. Deem and Ramdas Pophale) SiO2 
 PCOD9320541
Probable space group: C 2 2 21
;
_chemical_formula_sum "Si O2"
_cell_formula_units_Z 28
_cell_length_a 9.196716
_cell_length_b 23.258158
_cell_length_c 5.229142
_cell_angle_alpha 90.000000
_cell_angle_beta 90.000000
_cell_angle_gamma 90.000000
_cell_volume 1118.506539
_symmetry_space_group_name_H-M "C 2 2 21"
_symmetry_group_IT_number 20
_symmetry_cell_setting 'orthorhombic'
loop_
_space_group_symop_operation_xyz
x,y,z
-x,-y,1/2+z
x,-y,-z
-x,y,1/2-z
1/2+x,1/2+y,z
1/2-x,1/2-y,1/2+z
1/2+x,1/2-y,-z
1/2-x,1/2+y,1/2-z
loop_
_atom_site_type_symbol
_atom_site_label
_atom_site_fract_x
_atom_site_fract_y
_atom_site_fract_z
Si Si1 0.000000 0.459806 0.250000
Si Si2 0.752354 0.889548 0.010873
Si Si3 0.500000 0.534743 0.250000
Si Si4 0.666773 0.265164 0.489973
Si Si5 0.000000 0.675246 0.250000
O O1 0.147531 0.421469 0.215629
O O2 0.008935 0.500000 0.500000
O O3 0.841689 0.832071 0.090726
O O4 0.632210 0.865509 0.816026
O O5 0.866365 0.929856 0.868989
O O6 0.446242 0.500000 0.500000
O O7 0.730328 0.261558 0.771612
O O8 0.533705 0.221024 0.472235
#
# Coordination Sequence:
#
# PCOD9320541 Si02
#       5
#     4   8   4   8   4
#     4  12  27  48  81 116 147 202 279 330 368 448
#     4  11  26  49  79 110 154 202 251 321 391 449
#     4  12  32  53  73 110 159 209 260 320 394 460
#     4  10  23  42  69 109 147 181 234 304 379 456
#     4  10  23  45  78 112 142 191 255 306 374 476
#
# _framework density 25.033380000000001
#
# number of rings (size 3 to 8) (size 9 to 14) (size 15 to 20)
#    0.000    1.143    0.000    3.429    0.000   29.714 
#    0.000    0.000    0.000    0.000    0.000    0.000 
#    0.000    0.000    0.000    0.000    0.000    0.000 
#
# Total GULP energy -78241.508627 kJ/mol
# GULP energy per Si atom -5588.679188 kJ/mol
# Density = 2.497640 g / cm^3
# Si number density = 25.033380 Si / 1000 Ang^3
#
#
#
# Elastic Constant Matrix: (Units=GPa)
#
#
# Indices 1 2 3 4 5 6 
#
# 1 128.1088 48.8527 32.7912 0.0000 0.0000 0.0000
# 2 48.8527 141.6513 33.2265 0.0000 0.0000 0.0000
# 3 32.7912 33.2265 114.7296 0.0000 0.0000 0.0000
# 4 0.0000 0.0000 0.0000 -46.3357 0.0000 0.0000
# 5 0.0000 0.0000 0.0000 0.0000 51.9024 0.0000
# 6 0.0000 0.0000 0.0000 0.0000 0.0000 -90.0200
#
#
#
# Elastic Compliance Matrix: (Units=1/GPa)
#
#
# Indices 1 2 3 4 5 6 
#
# 1 0.009345 -0.002786 -0.001864 0.000000 0.000000 0.000000
# 2 -0.002786 0.008405 -0.001638 0.000000 0.000000 0.000000
# 3 -0.001864 -0.001638 0.009723 0.000000 0.000000 0.000000
# 4 0.000000 0.000000 0.000000 -0.021582 0.000000 0.000000
# 5 0.000000 0.000000 0.000000 0.000000 0.019267 0.000000
# 6 0.000000 0.000000 0.000000 0.000000 0.000000 -0.011109
#
#
# Mechanical properties :
#
#
# Convention : Reuss Voigt Hill
#
# Bulk Modulus (GPa) = 67.12508 68.24784 67.68646
# Shear Modulus (GPa) = 158.27163 1.08396 79.67780
#
# Velocity S-wave (km/s) = 7.95999 0.65875 5.64781
# Velocity P-wave (km/s) = 10.55246 5.28209 8.34431
#
# Compressibility (1/GPa) = 0.01489756
#
# Stress axis : x y z
#
# Youngs Moduli (GPa) = 107.00504 118.98375 102.84584
#
# Poissons Ratio (x) = 0.33146 0.19173
# Poissons Ratio (y) = 0.29809 0.16844
# Poissons Ratio (z) = 0.19948 0.19487
#
# Static dielectric constant tensor:
#      x y z
#    x 2.646320 0.000000 0.000000 
#    y 0.000000 2.019930 0.000000 
#    z 0.000000 0.000000 1.998210 
# 
# From -- ./inp_files/486.got.cif
#   From: 2010.05.17/outbox.cif.g08.bks.cpg/sg20_1_cif.got.tgz:486.got - 2010.06.03 22:52:26.
