data_PCOD9320689
_publ_section_title
;
Structure prediction by ZEFSAII (Michael W. Deem and Ramdas Pophale) SiO2 
 PCOD9320689
Probable space group: C 2 2 21
;
_chemical_formula_sum "Si O2"
_cell_formula_units_Z 32
_cell_length_a 14.468978
_cell_length_b 19.387262
_cell_length_c 5.136861
_cell_angle_alpha 90.000000
_cell_angle_beta 90.000000
_cell_angle_gamma 90.000000
_cell_volume 1440.960745
_symmetry_space_group_name_H-M "C 2 2 21"
_symmetry_group_IT_number 20
_symmetry_cell_setting 'orthorhombic'
loop_
_space_group_symop_operation_xyz
x,y,z
-x,-y,1/2+z
x,-y,-z
-x,y,1/2-z
1/2+x,1/2+y,z
1/2-x,1/2-y,1/2+z
1/2+x,1/2-y,-z
1/2-x,1/2+y,1/2-z
loop_
_atom_site_type_symbol
_atom_site_label
_atom_site_fract_x
_atom_site_fract_y
_atom_site_fract_z
Si Si1 0.557559 0.500000 0.500000
Si Si2 0.500000 0.082069 0.750000
Si Si3 0.843941 0.500000 0.000000
Si Si4 0.231658 0.927456 0.630277
Si Si5 0.203345 0.279879 0.876829
Si Si6 0.000000 0.681676 0.250000
O O1 0.500000 0.522279 0.750000
O O2 0.622132 0.436666 0.600161
O O3 0.586349 0.031632 0.710924
O O4 0.502825 0.131509 0.499811
O O5 0.776010 0.438612 0.912786
O O6 0.273447 0.857494 0.527428
O O7 0.259498 0.000000 0.500000
O O8 0.267004 0.266423 0.622478
O O9 0.096054 0.276615 0.787761
#
# Coordination Sequence:
#
# PCOD9320689 Si02
#       6
#     4   4   4   8   8   4
#     4  10  23  45  72 108 140 188 252 307 363 428
#     4  12  25  38  76 112 152 179 236 300 368 467
#     4  12  23  39  70 118 142 188 228 303 389 434
#     4  10  25  44  77 104 147 188 245 313 363 437
#     4  12  28  50  73 106 149 195 243 306 376 446
#     4  12  25  52  72 104 152 197 250 298 384 461
#
# _framework density 22.207404
#
# number of rings (size 3 to 8) (size 9 to 14) (size 15 to 20)
#    0.750    0.000    2.500    4.500    5.250    0.000 
#    6.750    0.000    0.000    0.000    0.000    0.000 
#    0.000    0.000    0.000    0.000    0.000    0.000 
#
# Total GULP energy -89225.402721 kJ/mol
# GULP energy per Si atom -5576.587670 kJ/mol
# Density = 2.215686 g / cm^3
# Si number density = 22.207404 Si / 1000 Ang^3
#
#
#
# Elastic Constant Matrix: (Units=GPa)
#
#
# Indices 1 2 3 4 5 6 
#
# 1 165.6560 24.5068 56.3914 0.0000 0.0000 0.0000
# 2 24.5068 69.6686 18.7809 0.0000 0.0000 0.0000
# 3 56.3914 18.7809 137.8899 0.0000 0.0000 0.0000
# 4 0.0000 0.0000 0.0000 46.6943 0.0000 0.0000
# 5 0.0000 0.0000 0.0000 0.0000 6.9665 0.0000
# 6 0.0000 0.0000 0.0000 0.0000 0.0000 -2.5637
#
#
#
# Elastic Compliance Matrix: (Units=1/GPa)
#
#
# Indices 1 2 3 4 5 6 
#
# 1 0.007227 -0.001812 -0.002709 0.000000 0.000000 0.000000
# 2 -0.001812 0.015355 -0.001350 0.000000 0.000000 0.000000
# 3 -0.002709 -0.001350 0.008544 0.000000 0.000000 0.000000
# 4 0.000000 0.000000 0.000000 0.021416 0.000000 0.000000
# 5 0.000000 0.000000 0.000000 0.000000 0.143543 0.000000
# 6 0.000000 0.000000 0.000000 0.000000 0.000000 -0.390064
#
#
# Mechanical properties :
#
#
# Convention : Reuss Voigt Hill
#
# Bulk Modulus (GPa) = 51.58975 63.61919 57.60447
# Shear Modulus (GPa) = -28.44529 28.45512 0.00492
#
# Velocity S-wave (km/s) = -3.58284 3.58346 0.04710
# Velocity P-wave (km/s) = 2.48308 6.76990 5.09888
#
# Compressibility (1/GPa) = 0.01938370
#
# Stress axis : x y z
#
# Youngs Moduli (GPa) = 138.37551 65.12509 117.04373
#
# Poissons Ratio (x) = 0.11800 0.31703
# Poissons Ratio (y) = 0.25072 0.15806
# Poissons Ratio (z) = 0.37481 0.08794
#
# Static dielectric constant tensor:
#      x y z
#    x 2.204250 0.000000 0.000000 
#    y 0.000000 1.869100 0.000000 
#    z 0.000000 0.000000 2.173480 
# 
# From -- ./inp_files/1687.got.cif
#   From: 2010.05.17/outbox.cif.g08.bks.cpg/sg20_1_cif.got.tgz:1687.got - 2010.06.03 22:52:26.
