data_PCOD9320151
_publ_section_title
;
Structure prediction by ZEFSAII (Michael W. Deem and Ramdas Pophale) SiO2 
 PCOD9320151
Probable space group: C 2 2 21
;
_chemical_formula_sum "Si O2"
_cell_formula_units_Z 32
_cell_length_a 7.160535
_cell_length_b 36.499463
_cell_length_c 5.471135
_cell_angle_alpha 90.000000
_cell_angle_beta 90.000000
_cell_angle_gamma 90.000000
_cell_volume 1429.912221
_symmetry_space_group_name_H-M "C 2 2 21"
_symmetry_group_IT_number 20
_symmetry_cell_setting 'orthorhombic'
loop_
_space_group_symop_operation_xyz
x,y,z
-x,-y,1/2+z
x,-y,-z
-x,y,1/2-z
1/2+x,1/2+y,z
1/2-x,1/2-y,1/2+z
1/2+x,1/2-y,-z
1/2-x,1/2+y,1/2-z
loop_
_atom_site_type_symbol
_atom_site_label
_atom_site_fract_x
_atom_site_fract_y
_atom_site_fract_z
Si Si1 0.724655 0.910428 0.235623
Si Si2 0.225729 0.369344 0.733315
Si Si3 0.709505 0.209179 0.154609
Si Si4 0.500000 0.227458 0.750000
Si Si5 0.000000 0.023260 0.750000
O O1 0.500000 0.913491 0.250000
O O2 0.781002 0.890187 0.487390
O O3 0.822364 0.949767 0.231688
O O4 0.780439 0.888966 0.986920
O O5 0.284195 0.326801 0.718859
O O6 0.000000 0.367732 0.750000
O O7 0.500000 0.219720 0.250000
O O8 0.849161 0.242922 0.148430
O O9 0.644243 0.200264 0.881605
O O10 0.988464 0.000000 0.500000
#
# Coordination Sequence:
#
# PCOD9320151 Si02
#       5
#     8   8   8   4   4
#     4  10  22  43  65  95 128 165 212 256 309 378
#     4   9  21  39  67  90 125 171 215 269 316 374
#     4  11  24  39  61  88 128 169 224 276 343 390
#     4  12  24  40  59  90 126 174 220 286 344 410
#     4  12  26  42  69 100 134 166 200 254 316 382
#
# _framework density 22.378996000000001
#
# number of rings (size 3 to 8) (size 9 to 14) (size 15 to 20)
#    0.000    1.500    2.500    1.500    8.750    3.000 
#    0.000    0.000    0.000    0.000    0.000    0.000 
#    0.000    0.000    0.000    0.000    0.000    0.000 
#
# Total GULP energy -89185.976424 kJ/mol
# GULP energy per Si atom -5574.123527 kJ/mol
# Density = 2.232806 g / cm^3
# Si number density = 22.378996 Si / 1000 Ang^3
#
#
#
# Elastic Constant Matrix: (Units=GPa)
#
#
# Indices 1 2 3 4 5 6 
#
# 1 108.7072 19.7225 21.7172 0.0000 0.0000 0.0000
# 2 19.7225 104.2124 70.5877 0.0000 0.0000 0.0000
# 3 21.7172 70.5877 150.7921 0.0000 0.0000 0.0000
# 4 0.0000 0.0000 0.0000 47.0515 0.0000 0.0000
# 5 0.0000 0.0000 0.0000 0.0000 9.0152 0.0000
# 6 0.0000 0.0000 0.0000 0.0000 0.0000 42.8892
#
#
#
# Elastic Compliance Matrix: (Units=1/GPa)
#
#
# Indices 1 2 3 4 5 6 
#
# 1 0.009588 -0.001287 -0.000778 0.000000 0.000000 0.000000
# 2 -0.001287 0.014224 -0.006473 0.000000 0.000000 0.000000
# 3 -0.000778 -0.006473 0.009774 0.000000 0.000000 0.000000
# 4 0.000000 0.000000 0.000000 0.021253 0.000000 0.000000
# 5 0.000000 0.000000 0.000000 0.000000 0.110923 0.000000
# 6 0.000000 0.000000 0.000000 0.000000 0.000000 0.023316
#
#
# Mechanical properties :
#
#
# Convention : Reuss Voigt Hill
#
# Bulk Modulus (GPa) = 60.57487 65.30741 62.94114
# Shear Modulus (GPa) = 23.62297 36.57014 30.09656
#
# Velocity S-wave (km/s) = 3.25250 4.04682 3.67121
# Velocity P-wave (km/s) = 6.42118 7.14713 6.79386
#
# Compressibility (1/GPa) = 0.01650849
#
# Stress axis : x y z
#
# Youngs Moduli (GPa) = 104.29631 70.30441 102.31433
#
# Poissons Ratio (x) = 0.09051 0.07962
# Poissons Ratio (y) = 0.13428 0.66228
# Poissons Ratio (z) = 0.08116 0.45508
#
# Static dielectric constant tensor:
#      x y z
#    x 0.735900 0.000000 0.000000 
#    y 0.000000 1.765120 0.000000 
#    z 0.000000 0.000000 3.180690 
# 
# From -- ./inp_files/704.got.cif
#   From: 2010.05.17/outbox.cif.g08.bks.cpg/sg20_1_cif.got.tgz:704.got - 2010.06.03 22:52:26.
