data_PCOD9320063
_publ_section_title
;
Structure prediction by ZEFSAII (Michael W. Deem and Ramdas Pophale) SiO2 
 PCOD9320063
Probable space group: C 2 2 21
;
_chemical_formula_sum "Si O2"
_cell_formula_units_Z 32
_cell_length_a 11.486565
_cell_length_b 11.700928
_cell_length_c 9.727100
_cell_angle_alpha 90.000000
_cell_angle_beta 90.000000
_cell_angle_gamma 90.000000
_cell_volume 1307.355993
_symmetry_space_group_name_H-M "C 2 2 21"
_symmetry_group_IT_number 20
_symmetry_cell_setting 'orthorhombic'
loop_
_space_group_symop_operation_xyz
x,y,z
-x,-y,1/2+z
x,-y,-z
-x,y,1/2-z
1/2+x,1/2+y,z
1/2-x,1/2-y,1/2+z
1/2+x,1/2-y,-z
1/2-x,1/2+y,1/2-z
loop_
_atom_site_type_symbol
_atom_site_label
_atom_site_fract_x
_atom_site_fract_y
_atom_site_fract_z
Si Si1 0.500000 0.062757 0.750000
Si Si2 0.227164 0.818523 0.993608
Si Si3 0.011294 0.750114 0.511862
Si Si4 0.753413 0.011306 0.270659
Si Si5 0.094809 0.000000 0.500000
O O1 0.506153 0.150863 0.624811
O O2 0.384478 0.987195 0.742359
O O3 0.121385 0.738941 0.044328
O O4 0.201370 0.874206 0.844353
O O5 0.354892 0.767457 0.965070
O O6 0.235503 0.913186 0.113198
O O7 0.017716 0.887938 0.528549
O O8 0.825692 0.985327 0.134868
#
# Coordination Sequence:
#
# PCOD9320063 Si02
#       5
#     4   8   8   8   4
#     4  10  22  42  66  96 132 168 218 276 332 394
#     4  10  23  44  67  93 130 171 219 270 327 393
#     4  11  23  41  66  97 133 174 219 271 328 391
#     4  10  23  42  66  96 129 172 219 272 330 390
#     4  12  24  38  64  96 132 172 220 274 330 388
#
# _framework density 24.476883999999998
#
# number of rings (size 3 to 8) (size 9 to 14) (size 15 to 20)
#    0.000    1.500    0.000    4.500    0.000   11.000 
#    0.000    2.500    0.000    0.000    0.000    0.000 
#    0.000    0.000    0.000    0.000    0.000    0.000 
#
# Total GULP energy -89176.053446 kJ/mol
# GULP energy per Si atom -5573.503340 kJ/mol
# Density = 2.442117 g / cm^3
# Si number density = 24.476884 Si / 1000 Ang^3
#
#
#
# Elastic Constant Matrix: (Units=GPa)
#
#
# Indices 1 2 3 4 5 6 
#
# 1 208.8389 27.6782 46.1504 0.0000 0.0000 0.0000
# 2 27.6782 71.0519 26.8914 0.0000 0.0000 0.0000
# 3 46.1504 26.8914 88.2238 0.0000 0.0000 0.0000
# 4 0.0000 0.0000 0.0000 34.0678 0.0000 0.0000
# 5 0.0000 0.0000 0.0000 0.0000 24.9689 0.0000
# 6 0.0000 0.0000 0.0000 0.0000 0.0000 37.4924
#
#
#
# Elastic Compliance Matrix: (Units=1/GPa)
#
#
# Indices 1 2 3 4 5 6 
#
# 1 0.005502 -0.001191 -0.002515 0.000000 0.000000 0.000000
# 2 -0.001191 0.016168 -0.004305 0.000000 0.000000 0.000000
# 3 -0.002515 -0.004305 0.013963 0.000000 0.000000 0.000000
# 4 0.000000 0.000000 0.000000 0.029353 0.000000 0.000000
# 5 0.000000 0.000000 0.000000 0.000000 0.040050 0.000000
# 6 0.000000 0.000000 0.000000 0.000000 0.000000 0.026672
#
#
# Mechanical properties :
#
#
# Convention : Reuss Voigt Hill
#
# Bulk Modulus (GPa) = 50.99499 63.28384 57.13941
# Shear Modulus (GPa) = 32.41149 37.13213 34.77181
#
# Velocity S-wave (km/s) = 3.64286 3.89913 3.77317
# Velocity P-wave (km/s) = 6.21072 6.79571 6.50979
#
# Compressibility (1/GPa) = 0.01960977
#
# Stress axis : x y z
#
# Youngs Moduli (GPa) = 181.74984 61.85217 71.62017
#
# Poissons Ratio (x) = 0.07369 0.18012
# Poissons Ratio (y) = 0.21655 0.30831
# Poissons Ratio (z) = 0.45710 0.26626
#
# Static dielectric constant tensor:
#      x y z
#    x 1.994230 0.000000 0.000000 
#    y 0.000000 1.966060 0.000000 
#    z 0.000000 0.000000 1.920750 
# 
# From -- ./inp_files/6830.got.cif
#   From: 2010.05.17/outbox.cif.g08.bks.cpg/sg20_4_cif.got.tgz:6830.got - 2010.06.03 22:52:26.
