data_PCOD9320865
_publ_section_title
;
Structure prediction by ZEFSAII (Michael W. Deem and Ramdas Pophale) SiO2 
 PCOD9320865
Probable space group: C 2 2 21
;
_chemical_formula_sum "Si O2"
_cell_formula_units_Z 28
_cell_length_a 16.267154
_cell_length_b 8.082875
_cell_length_c 9.221712
_cell_angle_alpha 90.000000
_cell_angle_beta 90.000000
_cell_angle_gamma 90.000000
_cell_volume 1212.520236
_symmetry_space_group_name_H-M "C 2 2 21"
_symmetry_group_IT_number 20
_symmetry_cell_setting 'orthorhombic'
loop_
_space_group_symop_operation_xyz
x,y,z
-x,-y,1/2+z
x,-y,-z
-x,y,1/2-z
1/2+x,1/2+y,z
1/2-x,1/2-y,1/2+z
1/2+x,1/2-y,-z
1/2-x,1/2+y,1/2-z
loop_
_atom_site_type_symbol
_atom_site_label
_atom_site_fract_x
_atom_site_fract_y
_atom_site_fract_z
Si Si1 0.263972 0.316508 0.951988
Si Si2 0.537639 0.500000 0.000000
Si Si3 0.853699 0.801895 0.675214
Si Si4 0.931496 0.674452 0.947602
O O1 0.274500 0.318667 0.778780
O O2 0.337818 0.198106 0.004725
O O3 0.178498 0.269813 0.024614
O O4 0.285784 0.500000 0.000000
O O5 0.597265 0.468639 0.862040
O O6 0.913319 0.690680 0.774433
O O7 0.016699 0.833785 0.500900
O O8 0.965178 0.500000 0.000000
#
# Coordination Sequence:
#
# PCOD9320865 Si02
#       4
#     8   4   8   8
#     4  10  24  43  72 114 145 199 254 312 397 453
#     4  12  24  52  74 114 158 202 256 316 398 462
#     4  10  26  43  77 107 151 202 247 321 382 456
#     4  10  24  46  77 109 149 204 259 315 389 461
#
# _framework density 23.092399
#
# number of rings (size 3 to 8) (size 9 to 14) (size 15 to 20)
#    1.714    0.000    1.429    0.857   10.000    1.143 
#    0.000   11.429    0.000    0.000    0.000    0.000 
#    0.000    0.000    0.000    0.000    0.000    0.000 
#
# Total GULP energy -77956.923014 kJ/mol
# GULP energy per Si atom -5568.351644 kJ/mol
# Density = 2.303984 g / cm^3
# Si number density = 23.092399 Si / 1000 Ang^3
#
#
#
# Elastic Constant Matrix: (Units=GPa)
#
#
# Indices 1 2 3 4 5 6 
#
# 1 98.1687 44.9338 61.9869 0.0000 0.0000 0.0000
# 2 44.9338 163.8052 50.2747 0.0000 0.0000 0.0000
# 3 61.9869 50.2747 87.1872 0.0000 0.0000 0.0000
# 4 0.0000 0.0000 0.0000 35.0841 0.0000 0.0000
# 5 0.0000 0.0000 0.0000 0.0000 0.5295 0.0000
# 6 0.0000 0.0000 0.0000 0.0000 0.0000 28.1288
#
#
#
# Elastic Compliance Matrix: (Units=1/GPa)
#
#
# Indices 1 2 3 4 5 6 
#
# 1 0.018701 -0.001275 -0.012561 0.000000 0.000000 0.000000
# 2 -0.001275 0.007504 -0.003421 0.000000 0.000000 0.000000
# 3 -0.012561 -0.003421 0.022373 0.000000 0.000000 0.000000
# 4 0.000000 0.000000 0.000000 0.028503 0.000000 0.000000
# 5 0.000000 0.000000 0.000000 0.000000 1.888669 0.000000
# 6 0.000000 0.000000 0.000000 0.000000 0.000000 0.035551
#
#
# Mechanical properties :
#
#
# Convention : Reuss Voigt Hill
#
# Bulk Modulus (GPa) = 71.09828 73.72801 72.41315
# Shear Modulus (GPa) = 2.45038 25.54618 13.99828
#
# Velocity S-wave (km/s) = 1.03122 3.32966 2.46475
# Velocity P-wave (km/s) = 5.68096 6.83951 6.28698
#
# Compressibility (1/GPa) = 0.01406504
#
# Stress axis : x y z
#
# Youngs Moduli (GPa) = 53.47179 133.25405 44.69769
#
# Poissons Ratio (x) = 0.16988 0.56144
# Poissons Ratio (y) = 0.06817 0.15291
# Poissons Ratio (z) = 0.67165 0.45585
#
# Static dielectric constant tensor:
#      x y z
#    x 1.933650 0.000000 0.000000 
#    y 0.000000 1.841310 0.000000 
#    z 0.000000 0.000000 1.910440 
# 
# From -- ./inp_files/15479.got.cif
#   From: 2010.05.17/outbox.cif.g08.bks.cpg/sg20_8_cif.got.tgz:15479.got - 2010.06.03 22:52:26.
