data_PCOD9321749
_publ_section_title
;
Structure prediction by ZEFSAII (Michael W. Deem and Ramdas Pophale) SiO2 
 PCOD9321749
Probable space group: C 2 2 21
;
_chemical_formula_sum "Si O2"
_cell_formula_units_Z 56
_cell_length_a 5.002989
_cell_length_b 13.518808
_cell_length_c 32.084964
_cell_angle_alpha 90.000000
_cell_angle_beta 90.000000
_cell_angle_gamma 90.000000
_cell_volume 2170.048820
_symmetry_space_group_name_H-M "C 2 2 21"
_symmetry_group_IT_number 20
_symmetry_cell_setting 'orthorhombic'
loop_
_space_group_symop_operation_xyz
x,y,z
-x,-y,1/2+z
x,-y,-z
-x,y,1/2-z
1/2+x,1/2+y,z
1/2-x,1/2-y,1/2+z
1/2+x,1/2-y,-z
1/2-x,1/2+y,1/2-z
loop_
_atom_site_type_symbol
_atom_site_label
_atom_site_fract_x
_atom_site_fract_y
_atom_site_fract_z
Si Si1 0.164310 0.154821 0.593305
Si Si2 0.020797 0.942220 0.295635
Si Si3 0.481650 0.715236 0.048511
Si Si4 0.675010 0.816260 0.867729
Si Si5 0.733177 0.227671 0.223466
Si Si6 0.028084 0.474299 0.351174
Si Si7 0.342441 0.592293 0.522180
O O1 0.227954 0.242359 0.560338
O O2 0.000052 0.216410 0.627356
O O3 0.997019 0.076601 0.565889
O O4 0.423664 0.104775 0.614296
O O5 0.904152 0.832685 0.287166
O O6 0.000000 0.993445 0.250000
O O7 0.822531 0.976908 0.332073
O O8 0.320219 0.950819 0.313252
O O9 0.368989 0.685025 0.093184
O O10 0.339963 0.813415 0.031349
O O11 0.465969 0.629273 0.015112
O O12 0.801374 0.816778 0.821614
O O13 0.514063 0.917489 0.869680
O O14 0.500000 0.173003 0.250000
O O15 0.000000 0.240123 0.250000
O O16 0.200295 0.500000 0.500000
#
# Coordination Sequence:
#
# PCOD9321749 Si02
#       7
#     8   8   8   8   8   8   8
#     4  11  25  46  72 103 149 195 250 311 382 459
#     4  11  24  46  71 103 145 190 246 313 375 449
#     4  11  24  45  71 102 149 188 251 308 378 452
#     4  11  27  44  72 107 144 195 248 311 375 458
#     4  11  24  44  73 101 140 193 239 300 375 435
#     4  12  26  44  73 106 145 195 251 309 381 448
#     4  11  24  45  71 107 146 194 250 313 382 455
#
# _framework density 25.805869999999999
#
# number of rings (size 3 to 8) (size 9 to 14) (size 15 to 20)
#    0.000    0.857    2.857    3.857    6.000    3.429 
#    0.000    0.000    0.000    0.000    0.000    0.000 
#    0.000    0.000    0.000    0.000    0.000    0.000 
#
# Total GULP energy -156643.188928 kJ/mol
# GULP energy per Si atom -5594.399605 kJ/mol
# Density = 2.574713 g / cm^3
# Si number density = 25.805870 Si / 1000 Ang^3
#
#
#
# Elastic Constant Matrix: (Units=GPa)
#
#
# Indices 1 2 3 4 5 6 
#
# 1 63.3982 -0.8299 26.6898 0.0000 0.0000 0.0000
# 2 -0.8299 73.1466 31.5700 0.0000 0.0000 0.0000
# 3 26.6898 31.5700 164.5508 0.0000 0.0000 0.0000
# 4 0.0000 0.0000 0.0000 24.6864 0.0000 0.0000
# 5 0.0000 0.0000 0.0000 0.0000 40.1130 0.0000
# 6 0.0000 0.0000 0.0000 0.0000 0.0000 22.8415
#
#
#
# Elastic Compliance Matrix: (Units=1/GPa)
#
#
# Indices 1 2 3 4 5 6 
#
# 1 0.017082 0.001515 -0.003061 0.000000 0.000000 0.000000
# 2 0.001515 0.015040 -0.003131 0.000000 0.000000 0.000000
# 3 -0.003061 -0.003131 0.007174 0.000000 0.000000 0.000000
# 4 0.000000 0.000000 0.000000 0.040508 0.000000 0.000000
# 5 0.000000 0.000000 0.000000 0.000000 0.024930 0.000000
# 6 0.000000 0.000000 0.000000 0.000000 0.000000 0.043780
#
#
# Mechanical properties :
#
#
# Convention : Reuss Voigt Hill
#
# Bulk Modulus (GPa) = 33.39878 46.21728 39.80803
# Shear Modulus (GPa) = 29.78863 33.77254 31.78059
#
# Velocity S-wave (km/s) = 3.40124 3.62154 3.51312
# Velocity P-wave (km/s) = 5.32869 5.95281 5.64937
#
# Compressibility (1/GPa) = 0.02994121
#
# Stress axis : x y z
#
# Youngs Moduli (GPa) = 58.54139 66.49023 139.38381
#
# Poissons Ratio (x) = -0.10074 0.42670
# Poissons Ratio (y) = -0.08869 0.43644
# Poissons Ratio (z) = 0.17921 0.20820
#
# Static dielectric constant tensor:
#      x y z
#    x 2.087420 0.000000 0.000000 
#    y 0.000000 2.039090 0.000000 
#    z 0.000000 0.000000 2.117170 
# 
# From -- ./inp_files/30755.got.cif
#   From: 2010.05.17/outbox.cif.g08.bks.cpg/sg20_16_cif.got.tgz:30755.got - 2010.06.03 22:52:26.
