data_PCOD9321464
_publ_section_title
;
Structure prediction by ZEFSAII (Michael W. Deem and Ramdas Pophale) SiO2 
 PCOD9321464
Probable space group: C 2 2 21
;
_chemical_formula_sum "Si O2"
_cell_formula_units_Z 40
_cell_length_a 13.518060
_cell_length_b 8.180899
_cell_length_c 16.006279
_cell_angle_alpha 90.000000
_cell_angle_beta 90.000000
_cell_angle_gamma 90.000000
_cell_volume 1770.132530
_symmetry_space_group_name_H-M "C 2 2 21"
_symmetry_group_IT_number 20
_symmetry_cell_setting 'orthorhombic'
loop_
_space_group_symop_operation_xyz
x,y,z
-x,-y,1/2+z
x,-y,-z
-x,y,1/2-z
1/2+x,1/2+y,z
1/2-x,1/2-y,1/2+z
1/2+x,1/2-y,-z
1/2-x,1/2+y,1/2-z
loop_
_atom_site_type_symbol
_atom_site_label
_atom_site_fract_x
_atom_site_fract_y
_atom_site_fract_z
Si Si1 0.199866 0.312833 0.243963
Si Si2 0.107642 0.963747 0.211882
Si Si3 0.500440 0.640113 0.947350
Si Si4 0.559216 0.927590 0.665298
Si Si5 0.612867 0.882680 0.068157
O O1 0.314751 0.322269 0.266121
O O2 0.145764 0.448335 0.303459
O O3 0.182705 0.351489 0.146492
O O4 0.154697 0.131297 0.247872
O O5 0.079931 0.943716 0.115025
O O6 0.000000 0.958515 0.250000
O O7 0.432392 0.765387 0.893081
O O8 0.445304 0.500000 0.000000
O O9 0.566167 0.738936 0.013701
O O10 0.500000 0.886415 0.750000
O O11 0.483233 0.034055 0.610208
O O12 0.661475 0.000000 0.000000
#
# Coordination Sequence:
#
# PCOD9321464 Si02
#       5
#     8   8   8   8   8
#     4  11  25  46  74 108 142 200 254 296 368 453
#     4  12  28  47  74 110 149 195 257 308 363 451
#     4  11  22  41  72 110 155 188 240 323 368 433
#     4   9  20  41  73 101 140 195 239 295 367 437
#     4   9  19  40  72 103 148 191 238 307 371 436
#
# _framework density 22.597178
#
# number of rings (size 3 to 8) (size 9 to 14) (size 15 to 20)
#    0.000    1.600    2.000    2.400   11.200    0.000 
#    0.000    6.000    0.000    0.000    0.000    0.000 
#    0.000    0.000    0.000    0.000    0.000    0.000 
#
# Total GULP energy -111570.925895 kJ/mol
# GULP energy per Si atom -5578.546295 kJ/mol
# Density = 2.254575 g / cm^3
# Si number density = 22.597178 Si / 1000 Ang^3
#
#
#
# Elastic Constant Matrix: (Units=GPa)
#
#
# Indices 1 2 3 4 5 6 
#
# 1 118.6866 44.1525 33.9300 0.0000 0.0000 0.0000
# 2 44.1525 131.1507 50.8045 0.0000 0.0000 0.0000
# 3 33.9300 50.8045 133.8712 0.0000 0.0000 0.0000
# 4 0.0000 0.0000 0.0000 33.1437 0.0000 0.0000
# 5 0.0000 0.0000 0.0000 0.0000 21.9471 0.0000
# 6 0.0000 0.0000 0.0000 0.0000 0.0000 24.7153
#
#
#
# Elastic Compliance Matrix: (Units=1/GPa)
#
#
# Indices 1 2 3 4 5 6 
#
# 1 0.009867 -0.002759 -0.001454 0.000000 0.000000 0.000000
# 2 -0.002759 0.009710 -0.002986 0.000000 0.000000 0.000000
# 3 -0.001454 -0.002986 0.008972 0.000000 0.000000 0.000000
# 4 0.000000 0.000000 0.000000 0.030172 0.000000 0.000000
# 5 0.000000 0.000000 0.000000 0.000000 0.045564 0.000000
# 6 0.000000 0.000000 0.000000 0.000000 0.000000 0.040461
#
#
# Mechanical properties :
#
#
# Convention : Reuss Voigt Hill
#
# Bulk Modulus (GPa) = 70.66086 71.27583 70.96835
# Shear Modulus (GPa) = 30.51378 32.94929 31.73154
#
# Velocity S-wave (km/s) = 3.67868 3.82267 3.75137
# Velocity P-wave (km/s) = 7.02718 7.14802 7.08785
#
# Compressibility (1/GPa) = 0.01415211
#
# Stress axis : x y z
#
# Youngs Moduli (GPa) = 101.34303 102.98462 111.46376
#
# Poissons Ratio (x) = 0.28410 0.16207
# Poissons Ratio (y) = 0.27957 0.33281
# Poissons Ratio (z) = 0.14735 0.30750
#
# Static dielectric constant tensor:
#      x y z
#    x 1.784770 0.000000 0.000000 
#    y 0.000000 1.990330 0.000000 
#    z 0.000000 0.000000 1.878070 
# 
# From -- ./inp_files/20502.got.cif
#   From: 2010.05.17/outbox.cif.g08.bks.cpg/sg20_11_cif.got.tgz:20502.got - 2010.06.03 22:52:26.
