data_PCOD9321467
_publ_section_title
;
Structure prediction by ZEFSAII (Michael W. Deem and Ramdas Pophale) SiO2 
 PCOD9321467
Probable space group: C 2 2 21
;
_chemical_formula_sum "Si O2"
_cell_formula_units_Z 64
_cell_length_a 12.155527
_cell_length_b 14.895332
_cell_length_c 18.938702
_cell_angle_alpha 90.000000
_cell_angle_beta 90.000000
_cell_angle_gamma 90.000000
_cell_volume 3429.052942
_symmetry_space_group_name_H-M "C 2 2 21"
_symmetry_group_IT_number 20
_symmetry_cell_setting 'orthorhombic'
loop_
_space_group_symop_operation_xyz
x,y,z
-x,-y,1/2+z
x,-y,-z
-x,y,1/2-z
1/2+x,1/2+y,z
1/2-x,1/2-y,1/2+z
1/2+x,1/2-y,-z
1/2-x,1/2+y,1/2-z
loop_
_atom_site_type_symbol
_atom_site_label
_atom_site_fract_x
_atom_site_fract_y
_atom_site_fract_z
Si Si1 0.255746 0.929156 0.395768
Si Si2 0.742142 0.130378 0.053659
Si Si3 0.498292 0.797450 0.574465
Si Si4 0.536392 0.720346 0.417639
Si Si5 0.532117 0.622958 0.668661
Si Si6 0.350625 0.968216 0.919040
Si Si7 0.410883 0.532062 0.418941
Si Si8 0.504493 0.897232 0.166247
O O1 0.253666 0.871912 0.468307
O O2 0.376231 0.926106 0.362667
O O3 0.161313 0.895627 0.343735
O O4 0.231153 0.030712 0.419441
O O5 0.620822 0.156480 0.077802
O O6 0.835046 0.195919 0.082297
O O7 0.511056 0.760767 0.494869
O O8 0.504907 0.714637 0.627697
O O9 0.591013 0.871947 0.589030
O O10 0.466763 0.629114 0.409015
O O11 0.511739 0.795448 0.359982
O O12 0.500000 0.628373 0.750000
O O13 0.466749 0.541729 0.631057
O O14 0.220135 0.963545 0.906313
O O15 0.412368 0.039859 0.869699
O O16 0.367862 0.000000 0.000000
O O17 0.428962 0.500000 0.500000
O O18 0.500000 0.904650 0.250000
#
# Coordination Sequence:
#
# PCOD9321467 Si02
#       8
#     8   8   8   8   8   8   8   8
#     4  11  22  45  70  95 131 186 223 273 326 404
#     4  11  22  41  74  98 131 171 240 275 315 395
#     4  12  24  41  70 104 130 174 228 277 328 396
#     4  12  24  41  70 104 130 174 228 277 328 396
#     4  12  28  45  67 100 141 178 218 276 346 402
#     4  11  24  44  69  99 134 176 226 278 330 393
#     4  11  24  44  69  99 134 176 226 278 330 393
#     4  12  28  45  67 100 141 178 218 276 346 402
#
# _framework density 18.664044000000001
#
# number of rings (size 3 to 8) (size 9 to 14) (size 15 to 20)
#    0.000    0.500    7.500    0.000    7.000    1.000 
#    0.000    0.000    0.000    0.000    0.000    0.000 
#    0.000    0.000    0.000    0.000    0.000    0.000 
#
# Total GULP energy -179000.709569 kJ/mol
# GULP energy per Si atom -5593.772174 kJ/mol
# Density = 1.862156 g / cm^3
# Si number density = 18.664044 Si / 1000 Ang^3
#
#
#
# Elastic Constant Matrix: (Units=GPa)
#
#
# Indices 1 2 3 4 5 6 
#
# 1 74.3624 14.9029 8.4749 0.0000 0.0000 0.0000
# 2 14.9029 104.9306 18.3763 0.0000 0.0000 0.0000
# 3 8.4749 18.3763 76.4142 0.0000 0.0000 0.0000
# 4 0.0000 0.0000 0.0000 25.8430 0.0000 0.0000
# 5 0.0000 0.0000 0.0000 0.0000 8.3466 0.0000
# 6 0.0000 0.0000 0.0000 0.0000 0.0000 23.9513
#
#
#
# Elastic Compliance Matrix: (Units=1/GPa)
#
#
# Indices 1 2 3 4 5 6 
#
# 1 0.013932 -0.001783 -0.001116 0.000000 0.000000 0.000000
# 2 -0.001783 0.010177 -0.002250 0.000000 0.000000 0.000000
# 3 -0.001116 -0.002250 0.013751 0.000000 0.000000 0.000000
# 4 0.000000 0.000000 0.000000 0.038695 0.000000 0.000000
# 5 0.000000 0.000000 0.000000 0.000000 0.119809 0.000000
# 6 0.000000 0.000000 0.000000 0.000000 0.000000 0.041751
#
#
# Mechanical properties :
#
#
# Convention : Reuss Voigt Hill
#
# Bulk Modulus (GPa) = 36.28130 37.69062 36.98596
# Shear Modulus (GPa) = 19.40975 25.89172 22.65074
#
# Velocity S-wave (km/s) = 3.22833 3.72862 3.48746
# Velocity P-wave (km/s) = 5.77733 6.22695 6.00635
#
# Compressibility (1/GPa) = 0.02756241
#
# Stress axis : x y z
#
# Youngs Moduli (GPa) = 71.77589 98.25734 72.71984
#
# Poissons Ratio (x) = 0.17522 0.08118
# Poissons Ratio (y) = 0.12799 0.16360
# Poissons Ratio (z) = 0.08013 0.22105
#
# Static dielectric constant tensor:
#      x y z
#    x 1.633850 0.000000 0.000000 
#    y 0.000000 1.639030 0.000000 
#    z 0.000000 0.000000 1.605460 
# 
# From -- ./inp_files/24462.got.cif
#   From: 2010.05.17/outbox.cif.g08.bks.cpg/sg20_13_cif.got.tgz:24462.got - 2010.06.03 22:52:26.
