data_PCOD9321762
_publ_section_title
;
Structure prediction by ZEFSAII (Michael W. Deem and Ramdas Pophale) SiO2 
 PCOD9321762
Probable space group: C 2 2 21
;
_chemical_formula_sum "Si O2"
_cell_formula_units_Z 16
_cell_length_a 13.021453
_cell_length_b 9.468448
_cell_length_c 4.707940
_cell_angle_alpha 90.000000
_cell_angle_beta 90.000000
_cell_angle_gamma 90.000000
_cell_volume 580.455814
_symmetry_space_group_name_H-M "C 2 2 21"
_symmetry_group_IT_number 20
_symmetry_cell_setting 'orthorhombic'
loop_
_space_group_symop_operation_xyz
x,y,z
-x,-y,1/2+z
x,-y,-z
-x,y,1/2-z
1/2+x,1/2+y,z
1/2-x,1/2-y,1/2+z
1/2+x,1/2-y,-z
1/2-x,1/2+y,1/2-z
loop_
_atom_site_type_symbol
_atom_site_label
_atom_site_fract_x
_atom_site_fract_y
_atom_site_fract_z
Si Si1 0.721988 0.151100 0.902934
Si Si2 0.000000 0.702719 0.750000
Si Si3 0.000000 0.098452 0.750000
O O1 0.771602 0.221190 0.626864
O O2 0.601826 0.124060 0.843665
O O3 0.767882 0.000000 0.000000
O O4 0.044405 0.793613 0.483996
O O5 0.948469 0.000000 0.500000
#
# Coordination Sequence:
#
# PCOD9321762 Si02
#       3
#     8   4   4
#     4  12  29  51  79 116 157 204 261 321 386 463
#     4  11  24  45  76 110 154 208 256 314 388 462
#     4   9  20  37  66 108 148 192 246 306 376 446
#
# _framework density 27.564544999999999
#
# number of rings (size 3 to 8) (size 9 to 14) (size 15 to 20)
#    0.000    1.000    0.000    4.500    0.000   26.000 
#    0.000    0.000    0.000    3.000    0.000    0.000 
#    0.000    0.000    0.000    0.000    0.000    0.000 
#
# Total GULP energy -44587.383877 kJ/mol
# GULP energy per Si atom -5573.422985 kJ/mol
# Density = 2.750181 g / cm^3
# Si number density = 27.564545 Si / 1000 Ang^3
#
#
#
# Elastic Constant Matrix: (Units=GPa)
#
#
# Indices 1 2 3 4 5 6 
#
# 1 86.7510 15.0178 22.2228 0.0000 0.0000 0.0000
# 2 15.0178 151.1731 66.1932 0.0000 0.0000 0.0000
# 3 22.2228 66.1932 205.5721 0.0000 0.0000 0.0000
# 4 0.0000 0.0000 0.0000 42.0208 0.0000 0.0000
# 5 0.0000 0.0000 0.0000 0.0000 44.2485 0.0000
# 6 0.0000 0.0000 0.0000 0.0000 0.0000 -22.7610
#
#
#
# Elastic Compliance Matrix: (Units=1/GPa)
#
#
# Indices 1 2 3 4 5 6 
#
# 1 0.011923 -0.000722 -0.001056 0.000000 0.000000 0.000000
# 2 -0.000722 0.007744 -0.002416 0.000000 0.000000 0.000000
# 3 -0.001056 -0.002416 0.005756 0.000000 0.000000 0.000000
# 4 0.000000 0.000000 0.000000 0.023798 0.000000 0.000000
# 5 0.000000 0.000000 0.000000 0.000000 0.022600 0.000000
# 6 0.000000 0.000000 0.000000 0.000000 0.000000 -0.043935
#
#
# Mechanical properties :
#
#
# Convention : Reuss Voigt Hill
#
# Bulk Modulus (GPa) = 58.69975 72.26264 65.48120
# Shear Modulus (GPa) = 119.18187 35.37248 77.27717
#
# Velocity S-wave (km/s) = 6.58265 3.58615 5.30055
# Velocity P-wave (km/s) = 8.89475 6.58938 7.82741
#
# Compressibility (1/GPa) = 0.01703585
#
# Stress axis : x y z
#
# Youngs Moduli (GPa) = 83.87270 129.12644 173.71693
#
# Poissons Ratio (x) = 0.09321 0.18352
# Poissons Ratio (y) = 0.06054 0.41963
# Poissons Ratio (z) = 0.08861 0.31192
#
# Static dielectric constant tensor:
#      x y z
#    x 2.385760 0.000000 0.000000 
#    y 0.000000 2.100810 0.000000 
#    z 0.000000 0.000000 2.081590 
# 
# From -- ./inp_files/2291.got.cif
#   From: 2010.05.17/outbox.cif.g08.bks.cpg/sg20_2_cif.got.tgz:2291.got - 2010.06.03 22:52:26.
