data_PCOD9321504
_publ_section_title
;
Structure prediction by ZEFSAII (Michael W. Deem and Ramdas Pophale) SiO2 
 PCOD9321504
Probable space group: C 2 2 21
;
_chemical_formula_sum "Si O2"
_cell_formula_units_Z 56
_cell_length_a 8.127793
_cell_length_b 19.358000
_cell_length_c 16.024091
_cell_angle_alpha 90.000000
_cell_angle_beta 90.000000
_cell_angle_gamma 90.000000
_cell_volume 2521.195496
_symmetry_space_group_name_H-M "C 2 2 21"
_symmetry_group_IT_number 20
_symmetry_cell_setting 'orthorhombic'
loop_
_space_group_symop_operation_xyz
x,y,z
-x,-y,1/2+z
x,-y,-z
-x,y,1/2-z
1/2+x,1/2+y,z
1/2-x,1/2-y,1/2+z
1/2+x,1/2-y,-z
1/2-x,1/2+y,1/2-z
loop_
_atom_site_type_symbol
_atom_site_label
_atom_site_fract_x
_atom_site_fract_y
_atom_site_fract_z
Si Si1 0.677513 0.869365 0.778201
Si Si2 0.722944 0.490302 0.332354
Si Si3 0.299314 0.189927 0.453663
Si Si4 0.762334 0.070560 0.655225
Si Si5 0.962656 0.429389 0.454827
Si Si6 0.956896 0.839318 0.465948
Si Si7 0.886610 0.074783 0.369345
O O1 0.743768 0.826989 0.857405
O O2 0.807699 0.877429 0.702768
O O3 0.941913 0.964317 0.845943
O O4 0.650102 0.948266 0.809761
O O5 0.718074 0.438713 0.254130
O O6 0.789495 0.451101 0.412324
O O7 0.000000 0.658590 0.250000
O O8 0.434004 0.133169 0.481576
O O9 0.363163 0.267012 0.461338
O O10 0.145036 0.178312 0.514201
O O11 0.588772 0.094731 0.617259
O O12 0.907042 0.115890 0.614657
O O13 0.772685 0.991872 0.623408
O O14 0.014502 0.500000 0.500000
O O15 0.900508 0.884602 0.545235
#
# Coordination Sequence:
#
# PCOD9321504 Si02
#       7
#     8   8   8   8   8   8   8
#     4  11  23  41  69 101 134 176 235 289 358 425
#     4  11  22  43  71 106 138 178 236 301 361 414
#     4  12  28  45  70  98 146 194 232 296 356 439
#     4  11  24  40  73 106 141 177 235 301 360 420
#     4  12  22  41  70 106 140 183 237 297 356 422
#     4  12  26  47  67 104 143 192 245 291 359 440
#     4  11  23  44  73 103 136 184 237 300 359 427
#
# _framework density 22.211686
#
# number of rings (size 3 to 8) (size 9 to 14) (size 15 to 20)
#    0.000    0.571    2.857    6.857    4.000    0.000 
#    2.571    1.429    0.000    0.000    0.000    0.000 
#    0.000    0.000    0.000    0.000    0.000    0.000 
#
# Total GULP energy -156540.797541 kJ/mol
# GULP energy per Si atom -5590.742769 kJ/mol
# Density = 2.216113 g / cm^3
# Si number density = 22.211686 Si / 1000 Ang^3
#
#
#
# Elastic Constant Matrix: (Units=GPa)
#
#
# Indices 1 2 3 4 5 6 
#
# 1 84.3202 -3.8139 27.1164 0.0000 0.0000 0.0000
# 2 -3.8139 60.8197 35.0097 0.0000 0.0000 0.0000
# 3 27.1164 35.0097 103.4467 0.0000 0.0000 0.0000
# 4 0.0000 0.0000 0.0000 14.8023 0.0000 0.0000
# 5 0.0000 0.0000 0.0000 0.0000 42.4871 0.0000
# 6 0.0000 0.0000 0.0000 0.0000 0.0000 26.0736
#
#
#
# Elastic Compliance Matrix: (Units=1/GPa)
#
#
# Indices 1 2 3 4 5 6 
#
# 1 0.013556 0.003596 -0.004771 0.000000 0.000000 0.000000
# 2 0.003596 0.021374 -0.008176 0.000000 0.000000 0.000000
# 3 -0.004771 -0.008176 0.013684 0.000000 0.000000 0.000000
# 4 0.000000 0.000000 0.000000 0.067557 0.000000 0.000000
# 5 0.000000 0.000000 0.000000 0.000000 0.023537 0.000000
# 6 0.000000 0.000000 0.000000 0.000000 0.000000 0.038353
#
#
# Mechanical properties :
#
#
# Convention : Reuss Voigt Hill
#
# Bulk Modulus (GPa) = 33.42976 40.57900 37.00438
# Shear Modulus (GPa) = 24.18565 29.35757 26.77161
#
# Velocity S-wave (km/s) = 3.30338 3.63949 3.47550
# Velocity P-wave (km/s) = 5.44362 5.99750 5.72726
#
# Compressibility (1/GPa) = 0.02991346
#
# Stress axis : x y z
#
# Youngs Moduli (GPa) = 73.76599 46.78559 73.07559
#
# Poissons Ratio (x) = -0.16825 0.34861
# Poissons Ratio (y) = -0.26528 0.59749
# Poissons Ratio (z) = 0.35191 0.38254
#
# Static dielectric constant tensor:
#      x y z
#    x 1.937400 0.000000 0.000000 
#    y 0.000000 1.759990 0.000000 
#    z 0.000000 0.000000 1.821590 
# 
# From -- ./inp_files/19226.got.cif
#   From: 2010.05.17/outbox.cif.g08.bks.cpg/sg20_10_cif.got.tgz:19226.got - 2010.06.03 22:52:26.
