data_PCOD9321986
_publ_section_title
;
Structure prediction by ZEFSAII (Michael W. Deem and Ramdas Pophale) SiO2 
 PCOD9321986
Probable space group: C 2 2 21
;
_chemical_formula_sum "Si O2"
_cell_formula_units_Z 40
_cell_length_a 25.053181
_cell_length_b 8.941493
_cell_length_c 7.531268
_cell_angle_alpha 90.000000
_cell_angle_beta 90.000000
_cell_angle_gamma 90.000000
_cell_volume 1687.100753
_symmetry_space_group_name_H-M "C 2 2 21"
_symmetry_group_IT_number 20
_symmetry_cell_setting 'orthorhombic'
loop_
_space_group_symop_operation_xyz
x,y,z
-x,-y,1/2+z
x,-y,-z
-x,y,1/2-z
1/2+x,1/2+y,z
1/2-x,1/2-y,1/2+z
1/2+x,1/2-y,-z
1/2-x,1/2+y,1/2-z
loop_
_atom_site_type_symbol
_atom_site_label
_atom_site_fract_x
_atom_site_fract_y
_atom_site_fract_z
Si Si1 0.137316 0.247629 0.778357
Si Si2 0.171852 0.000000 0.000000
Si Si3 0.761613 0.227596 0.285348
Si Si4 0.751964 0.000000 0.000000
Si Si5 0.085249 0.500000 0.000000
Si Si6 0.461866 0.666763 0.924967
Si Si7 0.000000 0.633677 0.750000
O O1 0.197522 0.283136 0.722695
O O2 0.093715 0.245218 0.626086
O O3 0.136719 0.077131 0.850805
O O4 0.119863 0.359035 0.935931
O O5 0.210221 0.131156 0.063849
O O6 0.773908 0.400061 0.339595
O O7 0.780159 0.135094 0.109391
O O8 0.048472 0.462733 0.170461
O O9 0.500000 0.665537 0.750000
O O10 0.454640 0.500000 0.000000
O O11 0.486176 0.763876 0.082771
#
# Coordination Sequence:
#
# PCOD9321986 Si02
#       7
#     8   4   8   4   4   8   4
#     4  12  28  46  77 117 153 214 266 320 408 488
#     4  12  28  48  77 111 165 207 268 334 396 480
#     4  12  25  48  74 109 161 208 259 334 387 472
#     4  12  23  48  72 109 153 216 260 326 411 452
#     4  12  27  48  79 114 154 211 264 326 409 482
#     4  12  27  50  80 121 159 207 262 332 407 483
#     4  12  26  54  78 110 168 202 258 338 400 484
#
# _framework density 23.709312000000001
#
# number of rings (size 3 to 8) (size 9 to 14) (size 15 to 20)
#    0.000    0.000    7.000    1.800    5.600    1.600 
#    0.000    0.000    0.000    0.000    0.000    0.000 
#    0.000    0.000    0.000    0.000    0.000    0.000 
#
# Total GULP energy -111721.999469 kJ/mol
# GULP energy per Si atom -5586.099973 kJ/mol
# Density = 2.365535 g / cm^3
# Si number density = 23.709312 Si / 1000 Ang^3
#
#
#
# Elastic Constant Matrix: (Units=GPa)
#
#
# Indices 1 2 3 4 5 6 
#
# 1 94.4654 26.2725 38.7980 0.0000 0.0000 0.0000
# 2 26.2725 154.6898 49.1765 0.0000 0.0000 0.0000
# 3 38.7980 49.1765 134.7197 0.0000 0.0000 0.0000
# 4 0.0000 0.0000 0.0000 55.4948 0.0000 0.0000
# 5 0.0000 0.0000 0.0000 0.0000 33.7273 0.0000
# 6 0.0000 0.0000 0.0000 0.0000 0.0000 31.9516
#
#
#
# Elastic Compliance Matrix: (Units=1/GPa)
#
#
# Indices 1 2 3 4 5 6 
#
# 1 0.012163 -0.001077 -0.003110 0.000000 0.000000 0.000000
# 2 -0.001077 0.007409 -0.002394 0.000000 0.000000 0.000000
# 3 -0.003110 -0.002394 0.009192 0.000000 0.000000 0.000000
# 4 0.000000 0.000000 0.000000 0.018020 0.000000 0.000000
# 5 0.000000 0.000000 0.000000 0.000000 0.029650 0.000000
# 6 0.000000 0.000000 0.000000 0.000000 0.000000 0.031297
#
#
# Mechanical properties :
#
#
# Convention : Reuss Voigt Hill
#
# Bulk Modulus (GPa) = 64.09515 68.04100 66.06808
# Shear Modulus (GPa) = 39.65351 42.20994 40.93172
#
# Velocity S-wave (km/s) = 4.09404 4.22395 4.15950
# Velocity P-wave (km/s) = 7.03141 7.24909 7.14108
#
# Compressibility (1/GPa) = 0.01560180
#
# Stress axis : x y z
#
# Youngs Moduli (GPa) = 82.21940 134.97831 108.78722
#
# Poissons Ratio (x) = 0.14539 0.33828
# Poissons Ratio (y) = 0.08856 0.26045
# Poissons Ratio (z) = 0.25566 0.32316
#
# Static dielectric constant tensor:
#      x y z
#    x 1.897830 0.000000 0.000000 
#    y 0.000000 1.908260 0.000000 
#    z 0.000000 0.000000 2.125190 
# 
# From -- ./inp_files/11019.got.cif
#   From: 2010.05.17/outbox.cif.g08.bks.cpg/sg20_6_cif.got.tgz:11019.got - 2010.06.03 22:52:26.
