data_PCOD9321692
_publ_section_title
;
Structure prediction by ZEFSAII (Michael W. Deem and Ramdas Pophale) SiO2 
 PCOD9321692
Probable space group: C 2 2 21
;
_chemical_formula_sum "Si O2"
_cell_formula_units_Z 20
_cell_length_a 7.090123
_cell_length_b 19.754088
_cell_length_c 5.849126
_cell_angle_alpha 90.000000
_cell_angle_beta 90.000000
_cell_angle_gamma 90.000000
_cell_volume 819.222233
_symmetry_space_group_name_H-M "C 2 2 21"
_symmetry_group_IT_number 20
_symmetry_cell_setting 'orthorhombic'
loop_
_space_group_symop_operation_xyz
x,y,z
-x,-y,1/2+z
x,-y,-z
-x,y,1/2-z
1/2+x,1/2+y,z
1/2-x,1/2-y,1/2+z
1/2+x,1/2-y,-z
1/2-x,1/2+y,1/2-z
loop_
_atom_site_type_symbol
_atom_site_label
_atom_site_fract_x
_atom_site_fract_y
_atom_site_fract_z
Si Si1 0.795388 0.176628 0.852929
Si Si2 0.500000 0.709032 0.250000
Si Si3 0.271757 0.529234 0.747894
O O1 0.650320 0.237945 0.856145
O O2 0.722756 0.109106 0.739022
O O3 0.000000 0.196681 0.750000
O O4 0.863444 0.160860 0.107962
O O5 0.210946 0.500000 0.500000
O O6 0.500000 0.525473 0.750000
O O7 0.212417 0.500000 0.000000
#
# Coordination Sequence:
#
# PCOD9321692 Si02
#       3
#     8   4   8
#     4  11  24  40  67  95 139 172 227 279 343 409
#     4  12  24  42  64 106 132 184 220 286 348 416
#     4   9  20  37  62  92 127 177 226 276 336 402
#
# _framework density 24.413398999999998
#
# number of rings (size 3 to 8) (size 9 to 14) (size 15 to 20)
#    0.000    1.600    4.000    0.000   14.000    0.000 
#    0.000    2.000    0.000    0.000    0.000    0.000 
#    0.000    0.000    0.000    0.000    0.000    0.000 
#
# Total GULP energy -55693.507221 kJ/mol
# GULP energy per Si atom -5569.350722 kJ/mol
# Density = 2.435783 g / cm^3
# Si number density = 24.413399 Si / 1000 Ang^3
#
#
#
# Elastic Constant Matrix: (Units=GPa)
#
#
# Indices 1 2 3 4 5 6 
#
# 1 111.5592 12.8630 13.9223 0.0000 0.0000 0.0000
# 2 12.8630 99.2549 59.5902 0.0000 0.0000 0.0000
# 3 13.9223 59.5902 132.0328 0.0000 0.0000 0.0000
# 4 0.0000 0.0000 0.0000 34.8799 0.0000 0.0000
# 5 0.0000 0.0000 0.0000 0.0000 4.8366 0.0000
# 6 0.0000 0.0000 0.0000 0.0000 0.0000 41.3942
#
#
#
# Elastic Compliance Matrix: (Units=1/GPa)
#
#
# Indices 1 2 3 4 5 6 
#
# 1 0.009133 -0.000830 -0.000588 0.000000 0.000000 0.000000
# 2 -0.000830 0.013895 -0.006184 0.000000 0.000000 0.000000
# 3 -0.000588 -0.006184 0.010427 0.000000 0.000000 0.000000
# 4 0.000000 0.000000 0.000000 0.028670 0.000000 0.000000
# 5 0.000000 0.000000 0.000000 0.000000 0.206757 0.000000
# 6 0.000000 0.000000 0.000000 0.000000 0.000000 0.024158
#
#
# Mechanical properties :
#
#
# Convention : Reuss Voigt Hill
#
# Bulk Modulus (GPa) = 54.79388 57.28866 56.04127
# Shear Modulus (GPa) = 15.90692 33.32022 24.61357
#
# Velocity S-wave (km/s) = 2.55535 3.69837 3.17866
# Velocity P-wave (km/s) = 5.58563 6.46176 6.03960
#
# Compressibility (1/GPa) = 0.01825021
#
# Stress axis : x y z
#
# Youngs Moduli (GPa) = 109.49293 71.96687 95.90649
#
# Poissons Ratio (x) = 0.05976 0.05642
# Poissons Ratio (y) = 0.09093 0.59306
# Poissons Ratio (z) = 0.06441 0.44503
#
# Static dielectric constant tensor:
#      x y z
#    x 1.877500 0.000000 0.000000 
#    y 0.000000 1.879550 0.000000 
#    z 0.000000 0.000000 2.506450 
# 
# From -- ./inp_files/249.got.cif
#   From: 2010.05.17/outbox.cif.g08.bks.cpg/sg20_1_cif.got.tgz:249.got - 2010.06.03 22:52:26.
