data_PCOD9321689
_publ_section_title
;
Structure prediction by ZEFSAII (Michael W. Deem and Ramdas Pophale) SiO2 
 PCOD9321689
Probable space group: C 2 2 21
;
_chemical_formula_sum "Si O2"
_cell_formula_units_Z 56
_cell_length_a 14.739215
_cell_length_b 24.442262
_cell_length_c 6.756967
_cell_angle_alpha 90.000000
_cell_angle_beta 90.000000
_cell_angle_gamma 90.000000
_cell_volume 2434.263274
_symmetry_space_group_name_H-M "C 2 2 21"
_symmetry_group_IT_number 20
_symmetry_cell_setting 'orthorhombic'
loop_
_space_group_symop_operation_xyz
x,y,z
-x,-y,1/2+z
x,-y,-z
-x,y,1/2-z
1/2+x,1/2+y,z
1/2-x,1/2-y,1/2+z
1/2+x,1/2-y,-z
1/2-x,1/2+y,1/2-z
loop_
_atom_site_type_symbol
_atom_site_label
_atom_site_fract_x
_atom_site_fract_y
_atom_site_fract_z
Si Si1 0.844365 0.746891 0.373972
Si Si2 0.609103 0.162123 0.581361
Si Si3 0.426423 0.862437 0.548232
Si Si4 0.308947 0.636032 0.674665
Si Si5 0.364338 0.719477 0.173566
Si Si6 0.759338 0.437030 0.541454
Si Si7 0.402753 0.600658 0.290886
O O1 0.903700 0.693653 0.337939
O O2 0.843062 0.803818 0.252901
O O3 0.742533 0.723162 0.371766
O O4 0.869610 0.766402 0.593134
O O5 0.595363 0.149199 0.814782
O O6 0.534288 0.127728 0.461320
O O7 0.715634 0.149583 0.551708
O O8 0.592704 0.227732 0.566786
O O9 0.353029 0.907819 0.602469
O O10 0.281110 0.595512 0.850230
O O11 0.381350 0.612318 0.520664
O O12 0.402496 0.658476 0.168632
O O13 0.777156 0.500000 0.500000
O O14 0.682212 0.432244 0.706965
O O15 0.500000 0.574518 0.250000
#
# Coordination Sequence:
#
# PCOD9321689 Si02
#       7
#     8   8   8   8   8   8   8
#     4   9  16  29  56  88 125 161 197 261 311 384
#     4   8  16  30  60  92 134 165 196 259 319 385
#     4   9  16  32  61  93 125 168 216 246 323 385
#     4   9  21  40  64  94 129 163 208 262 331 374
#     4   9  17  29  54  87 124 163 201 250 322 381
#     4  11  24  45  67  88 125 173 216 267 316 378
#     4  11  24  40  63  90 120 162 221 267 319 380
#
# _framework density 23.004905999999998
#
# number of rings (size 3 to 8) (size 9 to 14) (size 15 to 20)
#    0.000    2.571    1.429    0.857    6.000    1.143 
#    2.571    0.714   12.571    0.000    0.000    0.000 
#    0.000    0.000    0.000    0.000    0.000    0.000 
#
# Total GULP energy -156449.613704 kJ/mol
# GULP energy per Si atom -5587.486204 kJ/mol
# Density = 2.295255 g / cm^3
# Si number density = 23.004906 Si / 1000 Ang^3
#
#
#
# Elastic Constant Matrix: (Units=GPa)
#
#
# Indices 1 2 3 4 5 6 
#
# 1 104.1226 24.6701 13.3868 0.0000 0.0000 0.0000
# 2 24.6701 100.4643 26.3582 0.0000 0.0000 0.0000
# 3 13.3868 26.3582 66.2953 0.0000 0.0000 0.0000
# 4 0.0000 0.0000 0.0000 18.6858 0.0000 0.0000
# 5 0.0000 0.0000 0.0000 0.0000 21.4924 0.0000
# 6 0.0000 0.0000 0.0000 0.0000 0.0000 5.0186
#
#
#
# Elastic Compliance Matrix: (Units=1/GPa)
#
#
# Indices 1 2 3 4 5 6 
#
# 1 0.010282 -0.002211 -0.001197 0.000000 0.000000 0.000000
# 2 -0.002211 0.011588 -0.004161 0.000000 0.000000 0.000000
# 3 -0.001197 -0.004161 0.016980 0.000000 0.000000 0.000000
# 4 0.000000 0.000000 0.000000 0.053516 0.000000 0.000000
# 5 0.000000 0.000000 0.000000 0.000000 0.046528 0.000000
# 6 0.000000 0.000000 0.000000 0.000000 0.000000 0.199257
#
#
# Mechanical properties :
#
#
# Convention : Reuss Voigt Hill
#
# Bulk Modulus (GPa) = 42.17194 44.41250 43.29222
# Shear Modulus (GPa) = 13.84299 22.80386 18.32342
#
# Velocity S-wave (km/s) = 2.45570 3.15184 2.82530
# Velocity P-wave (km/s) = 5.13927 5.70903 5.43163
#
# Compressibility (1/GPa) = 0.02371245
#
# Stress axis : x y z
#
# Youngs Moduli (GPa) = 97.25951 86.29369 58.89235
#
# Poissons Ratio (x) = 0.19077 0.07051
# Poissons Ratio (y) = 0.21501 0.24505
# Poissons Ratio (z) = 0.11644 0.35907
#
# Static dielectric constant tensor:
#      x y z
#    x 1.886380 0.000000 0.000000 
#    y 0.000000 1.820990 0.000000 
#    z 0.000000 0.000000 1.985050 
# 
# From -- ./inp_files/8718.got.cif
#   From: 2010.05.17/outbox.cif.g08.bks.cpg/sg20_5_cif.got.tgz:8718.got - 2010.06.03 22:52:26.
