data_PCOD9321101
_publ_section_title
;
Structure prediction by ZEFSAII (Michael W. Deem and Ramdas Pophale) SiO2 
 PCOD9321101
Probable space group: C 2 2 21
;
_chemical_formula_sum "Si O2"
_cell_formula_units_Z 40
_cell_length_a 8.502236
_cell_length_b 21.326898
_cell_length_c 8.205545
_cell_angle_alpha 90.000000
_cell_angle_beta 90.000000
_cell_angle_gamma 90.000000
_cell_volume 1487.881278
_symmetry_space_group_name_H-M "C 2 2 21"
_symmetry_group_IT_number 20
_symmetry_cell_setting 'orthorhombic'
loop_
_space_group_symop_operation_xyz
x,y,z
-x,-y,1/2+z
x,-y,-z
-x,y,1/2-z
1/2+x,1/2+y,z
1/2-x,1/2-y,1/2+z
1/2+x,1/2-y,-z
1/2-x,1/2+y,1/2-z
loop_
_atom_site_type_symbol
_atom_site_label
_atom_site_fract_x
_atom_site_fract_y
_atom_site_fract_z
Si Si1 0.640718 0.601552 0.379344
Si Si2 0.414758 0.787410 0.416285
Si Si3 0.341094 0.070329 0.645593
Si Si4 0.374176 0.432096 0.430834
Si Si5 0.703626 0.173091 0.392039
O O1 0.500000 0.582595 0.250000
O O2 0.785192 0.560348 0.455168
O O3 0.522775 0.612608 0.531594
O O4 0.730015 0.657208 0.286742
O O5 0.500000 0.765526 0.250000
O O6 0.342198 0.853402 0.358272
O O7 0.530321 0.805751 0.562768
O O8 0.304119 0.730367 0.462776
O O9 0.500000 0.051582 0.750000
O O10 0.195288 0.051067 0.756968
O O11 0.415142 0.500000 0.500000
O O12 0.233340 0.393748 0.518343
#
# Coordination Sequence:
#
# PCOD9321101 Si02
#       5
#     8   8   8   8   8
#     4  10  25  45  73 113 153 205 267 325 400 472
#     4  11  24  46  73 111 158 205 262 331 411 490
#     4  11  24  48  76 113 158 208 262 328 415 477
#     4  11  24  50  81 115 156 212 269 327 402 504
#     4  11  25  47  75 117 156 202 270 340 407 480
#
# _framework density 26.883868
#
# number of rings (size 3 to 8) (size 9 to 14) (size 15 to 20)
#    0.000    1.200    4.000    2.400    8.400    5.600 
#    0.000    5.000    0.000    0.000    0.000    0.000 
#    0.000    0.000    0.000    0.000    0.000    0.000 
#
# Total GULP energy -111419.777199 kJ/mol
# GULP energy per Si atom -5570.988860 kJ/mol
# Density = 2.682268 g / cm^3
# Si number density = 26.883868 Si / 1000 Ang^3
#
#
#
# Elastic Constant Matrix: (Units=GPa)
#
#
# Indices 1 2 3 4 5 6 
#
# 1 169.2500 45.1953 87.3245 0.0000 0.0000 0.0000
# 2 45.1953 84.8949 13.7943 0.0000 0.0000 0.0000
# 3 87.3245 13.7943 126.6965 0.0000 0.0000 0.0000
# 4 0.0000 0.0000 0.0000 34.6016 0.0000 0.0000
# 5 0.0000 0.0000 0.0000 0.0000 73.7042 0.0000
# 6 0.0000 0.0000 0.0000 0.0000 0.0000 21.4228
#
#
#
# Elastic Compliance Matrix: (Units=1/GPa)
#
#
# Indices 1 2 3 4 5 6 
#
# 1 0.010662 -0.004563 -0.006852 0.000000 0.000000 0.000000
# 2 -0.004563 0.013944 0.001627 0.000000 0.000000 0.000000
# 3 -0.006852 0.001627 0.012438 0.000000 0.000000 0.000000
# 4 0.000000 0.000000 0.000000 0.028900 0.000000 0.000000
# 5 0.000000 0.000000 0.000000 0.000000 0.013568 0.000000
# 6 0.000000 0.000000 0.000000 0.000000 0.000000 0.046679
#
#
# Mechanical properties :
#
#
# Convention : Reuss Voigt Hill
#
# Bulk Modulus (GPa) = 57.24624 74.82995 66.03810
# Shear Modulus (GPa) = 32.98350 41.58087 37.28218
#
# Velocity S-wave (km/s) = 3.50650 3.93706 3.72800
# Velocity P-wave (km/s) = 6.14281 6.96866 6.56873
#
# Compressibility (1/GPa) = 0.01746840
#
# Stress axis : x y z
#
# Youngs Moduli (GPa) = 93.78999 71.71522 80.39590
#
# Poissons Ratio (x) = 0.32722 0.55087
# Poissons Ratio (y) = 0.42795 -0.13078
# Poissons Ratio (z) = 0.64265 -0.11666
#
# Static dielectric constant tensor:
#      x y z
#    x 2.158110 0.000000 0.000000 
#    y 0.000000 2.024120 0.000000 
#    z 0.000000 0.000000 2.404630 
# 
# From -- ./inp_files/6283.got.cif
#   From: 2010.05.17/outbox.cif.g08.bks.cpg/sg20_4_cif.got.tgz:6283.got - 2010.06.03 22:52:26.
