data_PCOD9321217
_publ_section_title
;
Structure prediction by ZEFSAII (Michael W. Deem and Ramdas Pophale) SiO2 
 PCOD9321217
Probable space group: C 2 2 21
;
_chemical_formula_sum "Si O2"
_cell_formula_units_Z 40
_cell_length_a 9.893052
_cell_length_b 19.896422
_cell_length_c 9.169251
_cell_angle_alpha 90.000000
_cell_angle_beta 90.000000
_cell_angle_gamma 90.000000
_cell_volume 1804.841784
_symmetry_space_group_name_H-M "C 2 2 21"
_symmetry_group_IT_number 20
_symmetry_cell_setting 'orthorhombic'
loop_
_space_group_symop_operation_xyz
x,y,z
-x,-y,1/2+z
x,-y,-z
-x,y,1/2-z
1/2+x,1/2+y,z
1/2-x,1/2-y,1/2+z
1/2+x,1/2-y,-z
1/2-x,1/2+y,1/2-z
loop_
_atom_site_type_symbol
_atom_site_label
_atom_site_fract_x
_atom_site_fract_y
_atom_site_fract_z
Si Si1 0.656131 0.410693 0.210689
Si Si2 0.000000 0.836712 0.750000
Si Si3 0.276993 0.352744 0.977406
Si Si4 0.023576 0.389335 0.601524
Si Si5 0.800542 0.500000 0.000000
Si Si6 0.732683 0.300127 0.962204
O O1 0.500000 0.415844 0.250000
O O2 0.715113 0.388645 0.366047
O O3 0.706137 0.480717 0.137125
O O4 0.685894 0.350531 0.092811
O O5 0.104188 0.874060 0.637081
O O6 0.104866 0.796344 0.853020
O O7 0.284619 0.272012 0.987855
O O8 0.122624 0.364360 0.934905
O O9 0.096950 0.438355 0.493301
O O10 0.137447 0.332276 0.619193
O O11 0.000000 0.429645 0.750000
#
# Coordination Sequence:
#
# PCOD9321217 Si02
#       6
#     8   4   8   8   4   8
#     4  11  25  49  74 108 151 200 254 315 377 449
#     4  12  22  42  66 108 146 192 244 294 360 460
#     4  12  25  42  79 108 150 198 242 308 391 450
#     4  11  25  45  71 104 146 193 240 309 365 436
#     4  10  28  50  70 104 146 192 268 302 358 456
#     4  11  24  43  72 112 155 189 247 303 381 457
#
# _framework density 22.162606
#
# number of rings (size 3 to 8) (size 9 to 14) (size 15 to 20)
#    0.000    0.800    4.000    2.400    2.800    4.000 
#   10.800    0.000    0.000    0.000    0.000    0.000 
#    0.000    0.000    0.000    0.000    0.000    0.000 
#
# Total GULP energy -111420.271688 kJ/mol
# GULP energy per Si atom -5571.013584 kJ/mol
# Density = 2.211216 g / cm^3
# Si number density = 22.162606 Si / 1000 Ang^3
#
#
#
# Elastic Constant Matrix: (Units=GPa)
#
#
# Indices 1 2 3 4 5 6 
#
# 1 181.1592 29.5287 64.6031 0.0000 0.0000 0.0000
# 2 29.5287 50.5000 11.2645 0.0000 0.0000 0.0000
# 3 64.6031 11.2645 110.1599 0.0000 0.0000 0.0000
# 4 0.0000 0.0000 0.0000 31.0712 0.0000 0.0000
# 5 0.0000 0.0000 0.0000 0.0000 39.0110 0.0000
# 6 0.0000 0.0000 0.0000 0.0000 0.0000 26.3793
#
#
#
# Elastic Compliance Matrix: (Units=1/GPa)
#
#
# Indices 1 2 3 4 5 6 
#
# 1 0.007540 -0.003502 -0.004064 0.000000 0.000000 0.000000
# 2 -0.003502 0.021891 -0.000185 0.000000 0.000000 0.000000
# 3 -0.004064 -0.000185 0.011480 0.000000 0.000000 0.000000
# 4 0.000000 0.000000 0.000000 0.032184 0.000000 0.000000
# 5 0.000000 0.000000 0.000000 0.000000 0.025634 0.000000
# 6 0.000000 0.000000 0.000000 0.000000 0.000000 0.037909
#
#
# Mechanical properties :
#
#
# Convention : Reuss Voigt Hill
#
# Bulk Modulus (GPa) = 39.35521 61.40132 50.37826
# Shear Modulus (GPa) = 31.13160 35.05382 33.09271
#
# Velocity S-wave (km/s) = 3.75199 3.98133 3.86836
# Velocity P-wave (km/s) = 6.04697 6.99283 6.53703
#
# Compressibility (1/GPa) = 0.02540960
#
# Stress axis : x y z
#
# Youngs Moduli (GPa) = 132.62510 45.68071 87.10996
#
# Poissons Ratio (x) = 0.15999 0.35399
# Poissons Ratio (y) = 0.46451 0.01607
# Poissons Ratio (z) = 0.53895 0.00843
#
# Static dielectric constant tensor:
#      x y z
#    x 1.792210 0.000000 0.000000 
#    y 0.000000 1.833160 0.000000 
#    z 0.000000 0.000000 2.080190 
# 
# From -- ./inp_files/6128.got.cif
#   From: 2010.05.17/outbox.cif.g08.bks.cpg/sg20_4_cif.got.tgz:6128.got - 2010.06.03 22:52:26.
