data_PCOD9321029
_publ_section_title
;
Structure prediction by ZEFSAII (Michael W. Deem and Ramdas Pophale) SiO2 
 PCOD9321029
Probable space group: C 2 2 21
;
_chemical_formula_sum "Si O2"
_cell_formula_units_Z 36
_cell_length_a 6.168908
_cell_length_b 21.870604
_cell_length_c 11.408042
_cell_angle_alpha 90.000000
_cell_angle_beta 90.000000
_cell_angle_gamma 90.000000
_cell_volume 1539.147290
_symmetry_space_group_name_H-M "C 2 2 21"
_symmetry_group_IT_number 20
_symmetry_cell_setting 'orthorhombic'
loop_
_space_group_symop_operation_xyz
x,y,z
-x,-y,1/2+z
x,-y,-z
-x,y,1/2-z
1/2+x,1/2+y,z
1/2-x,1/2-y,1/2+z
1/2+x,1/2-y,-z
1/2-x,1/2+y,1/2-z
loop_
_atom_site_type_symbol
_atom_site_label
_atom_site_fract_x
_atom_site_fract_y
_atom_site_fract_z
Si Si1 0.000000 0.953600 0.750000
Si Si2 0.500000 0.744393 0.250000
Si Si3 0.293844 0.042019 0.616004
Si Si4 0.396945 0.154447 0.906855
Si Si5 0.500000 0.631509 0.750000
Si Si6 0.700936 0.857940 0.673877
O O1 0.106807 0.907763 0.843228
O O2 0.206351 0.993322 0.711237
O O3 0.464247 0.788616 0.360922
O O4 0.702047 0.698031 0.248476
O O5 0.505019 0.086173 0.618072
O O6 0.109532 0.092261 0.644492
O O7 0.297730 0.000000 0.500000
O O8 0.188432 0.163333 0.823285
O O9 0.366623 0.159853 0.044161
O O10 0.500000 0.882299 0.750000
#
# Coordination Sequence:
#
# PCOD9321029 Si02
#       6
#     4   4   8   8   4   8
#     4  10  24  48  68 110 146 189 247 294 384 440
#     4  11  28  47  68 112 141 199 254 306 376 435
#     4  11  23  41  71 105 153 189 243 307 372 457
#     4  12  26  46  73 107 147 194 254 309 378 445
#     4  11  24  43  68 106 147 194 245 312 368 457
#     4  11  27  48  77 105 151 197 251 313 372 454
#
# _framework density 23.389575000000001
#
# number of rings (size 3 to 8) (size 9 to 14) (size 15 to 20)
#    0.000    0.889    2.222    2.667    4.667   11.556 
#    0.000    0.000    0.000    0.000    0.000    0.000 
#    0.000    0.000    0.000    0.000    0.000    0.000 
#
# Total GULP energy -100222.090956 kJ/mol
# GULP energy per Si atom -5567.893942 kJ/mol
# Density = 2.333634 g / cm^3
# Si number density = 23.389575 Si / 1000 Ang^3
#
#
#
# Elastic Constant Matrix: (Units=GPa)
#
#
# Indices 1 2 3 4 5 6 
#
# 1 77.8270 28.3973 24.3422 0.0000 0.0000 0.0000
# 2 28.3973 101.4754 16.0125 0.0000 0.0000 0.0000
# 3 24.3422 16.0125 95.9697 0.0000 0.0000 0.0000
# 4 0.0000 0.0000 0.0000 16.7566 0.0000 0.0000
# 5 0.0000 0.0000 0.0000 0.0000 28.6883 0.0000
# 6 0.0000 0.0000 0.0000 0.0000 0.0000 36.1455
#
#
#
# Elastic Compliance Matrix: (Units=1/GPa)
#
#
# Indices 1 2 3 4 5 6 
#
# 1 0.015230 -0.003751 -0.003237 0.000000 0.000000 0.000000
# 2 -0.003751 0.011045 -0.000891 0.000000 0.000000 0.000000
# 3 -0.003237 -0.000891 0.011390 0.000000 0.000000 0.000000
# 4 0.000000 0.000000 0.000000 0.059678 0.000000 0.000000
# 5 0.000000 0.000000 0.000000 0.000000 0.034857 0.000000
# 6 0.000000 0.000000 0.000000 0.000000 0.000000 0.027666
#
#
# Mechanical properties :
#
#
# Convention : Reuss Voigt Hill
#
# Bulk Modulus (GPa) = 45.65078 45.86400 45.75739
# Shear Modulus (GPa) = 27.33317 30.08608 28.70962
#
# Velocity S-wave (km/s) = 3.42219 3.59040 3.50730
# Velocity P-wave (km/s) = 5.93087 6.06953 6.00060
#
# Compressibility (1/GPa) = 0.02190543
#
# Stress axis : x y z
#
# Youngs Moduli (GPa) = 65.65869 90.53842 87.79806
#
# Poissons Ratio (x) = 0.33964 0.28422
# Poissons Ratio (y) = 0.24630 0.07826
# Poissons Ratio (z) = 0.21255 0.08070
#
# Static dielectric constant tensor:
#      x y z
#    x 1.940540 0.000000 0.000000 
#    y 0.000000 1.899150 0.000000 
#    z 0.000000 0.000000 1.829330 
# 
# From -- ./inp_files/12084.got.cif
#   From: 2010.05.17/outbox.cif.g08.bks.cpg/sg20_7_cif.got.tgz:12084.got - 2010.06.03 22:52:26.
