data_PCOD9321864
_publ_section_title
;
Structure prediction by ZEFSAII (Michael W. Deem and Ramdas Pophale) SiO2 
 PCOD9321864
Probable space group: C 2 2 21
;
_chemical_formula_sum "Si O2"
_cell_formula_units_Z 28
_cell_length_a 7.134571
_cell_length_b 18.366824
_cell_length_c 9.152429
_cell_angle_alpha 90.000000
_cell_angle_beta 90.000000
_cell_angle_gamma 90.000000
_cell_volume 1199.328895
_symmetry_space_group_name_H-M "C 2 2 21"
_symmetry_group_IT_number 20
_symmetry_cell_setting 'orthorhombic'
loop_
_space_group_symop_operation_xyz
x,y,z
-x,-y,1/2+z
x,-y,-z
-x,y,1/2-z
1/2+x,1/2+y,z
1/2-x,1/2-y,1/2+z
1/2+x,1/2-y,-z
1/2-x,1/2+y,1/2-z
loop_
_atom_site_type_symbol
_atom_site_label
_atom_site_fract_x
_atom_site_fract_y
_atom_site_fract_z
Si Si1 0.779315 0.330567 0.632122
Si Si2 0.643726 0.689547 0.045253
Si Si3 0.842163 0.051615 0.628105
Si Si4 0.500000 0.958500 0.750000
O O1 0.565885 0.338582 0.579089
O O2 0.755548 0.307187 0.802391
O O3 0.864204 0.267022 0.533311
O O4 0.897910 0.404320 0.635142
O O5 0.722620 0.628716 0.936722
O O6 0.000000 0.062411 0.750000
O O7 0.921936 0.000000 0.500000
O O8 0.664062 0.007551 0.686304
#
# Coordination Sequence:
#
# PCOD9321864 Si02
#       4
#     8   8   8   4
#     4  11  25  49  79 112 156 205 265 322 390 470
#     4  11  26  48  78 114 158 205 260 328 386 468
#     4  12  28  51  78 117 157 206 258 327 393 467
#     4  12  26  48  80 112 156 206 254 326 392 464
#
# _framework density 23.346388000000001
#
# number of rings (size 3 to 8) (size 9 to 14) (size 15 to 20)
#    0.000    0.571    2.857    3.429    6.000    5.714 
#    0.000    0.000    0.000    0.000    0.000    0.000 
#    0.000    0.000    0.000    0.000    0.000    0.000 
#
# Total GULP energy -78458.978012 kJ/mol
# GULP energy per Si atom -5604.212715 kJ/mol
# Density = 2.329325 g / cm^3
# Si number density = 23.346388 Si / 1000 Ang^3
#
#
#
# Elastic Constant Matrix: (Units=GPa)
#
#
# Indices 1 2 3 4 5 6 
#
# 1 97.5525 24.8959 45.7327 0.0000 0.0000 0.0000
# 2 24.8959 121.0621 54.2027 0.0000 0.0000 0.0000
# 3 45.7327 54.2027 114.0380 0.0000 0.0000 0.0000
# 4 0.0000 0.0000 0.0000 41.7460 0.0000 0.0000
# 5 0.0000 0.0000 0.0000 0.0000 39.0361 0.0000
# 6 0.0000 0.0000 0.0000 0.0000 0.0000 174.1977
#
#
#
# Elastic Compliance Matrix: (Units=1/GPa)
#
#
# Indices 1 2 3 4 5 6 
#
# 1 0.012641 -0.000419 -0.004870 0.000000 0.000000 0.000000
# 2 -0.000419 0.010507 -0.004826 0.000000 0.000000 0.000000
# 3 -0.004870 -0.004826 0.013016 0.000000 0.000000 0.000000
# 4 0.000000 0.000000 0.000000 0.023954 0.000000 0.000000
# 5 0.000000 0.000000 0.000000 0.000000 0.025617 0.000000
# 6 0.000000 0.000000 0.000000 0.000000 0.000000 0.005741
#
#
# Mechanical properties :
#
#
# Convention : Reuss Voigt Hill
#
# Bulk Modulus (GPa) = 62.76102 64.70168 63.73135
# Shear Modulus (GPa) = 42.72837 64.85071 53.78954
#
# Velocity S-wave (km/s) = 4.28272 5.27617 4.80518
# Velocity P-wave (km/s) = 7.16913 8.05551 7.62521
#
# Compressibility (1/GPa) = 0.01593346
#
# Stress axis : x y z
#
# Youngs Moduli (GPa) = 79.10758 95.17343 76.82867
#
# Poissons Ratio (x) = 0.03988 0.37418
# Poissons Ratio (y) = 0.03315 0.37078
# Poissons Ratio (z) = 0.38528 0.45931
#
# Static dielectric constant tensor:
#      x y z
#    x 1.899420 0.000000 0.000000 
#    y 0.000000 1.835900 0.000000 
#    z 0.000000 0.000000 1.869240 
# 
# From -- ./inp_files/5687.got.cif
#   From: 2010.05.17/outbox.cif.g08.bks.cpg/sg20_3_cif.got.tgz:5687.got - 2010.06.03 22:52:26.
