data_PCOD9321289
_publ_section_title
;
Structure prediction by ZEFSAII (Michael W. Deem and Ramdas Pophale) SiO2 
 PCOD9321289
Probable space group: C 2 2 21
;
_chemical_formula_sum "Si O2"
_cell_formula_units_Z 56
_cell_length_a 5.586643
_cell_length_b 14.375739
_cell_length_c 30.018811
_cell_angle_alpha 90.000000
_cell_angle_beta 90.000000
_cell_angle_gamma 90.000000
_cell_volume 2410.874401
_symmetry_space_group_name_H-M "C 2 2 21"
_symmetry_group_IT_number 20
_symmetry_cell_setting 'orthorhombic'
loop_
_space_group_symop_operation_xyz
x,y,z
-x,-y,1/2+z
x,-y,-z
-x,y,1/2-z
1/2+x,1/2+y,z
1/2-x,1/2-y,1/2+z
1/2+x,1/2-y,-z
1/2-x,1/2+y,1/2-z
loop_
_atom_site_type_symbol
_atom_site_label
_atom_site_fract_x
_atom_site_fract_y
_atom_site_fract_z
Si Si1 0.500000 0.244540 0.750000
Si Si2 0.635731 0.016638 0.131944
Si Si3 0.164933 0.529484 0.452441
Si Si4 0.197812 0.591757 0.216200
Si Si5 0.666025 0.858887 0.324639
Si Si6 0.014974 0.125215 0.904404
Si Si7 0.500000 0.567324 0.750000
Si Si8 0.762880 0.736277 0.026898
O O1 0.711746 0.315875 0.738894
O O2 0.543431 0.195604 0.798152
O O3 0.437673 0.956168 0.158224
O O4 0.853350 0.946774 0.123420
O O5 0.538845 0.042114 0.083949
O O6 0.660012 0.104897 0.164018
O O7 0.063536 0.500000 0.500000
O O8 0.331532 0.443382 0.436515
O O9 0.286021 0.630474 0.457060
O O10 0.379288 0.505827 0.216602
O O11 0.000000 0.555548 0.250000
O O12 0.809572 0.824992 0.368316
O O13 0.831385 0.873028 0.281288
O O14 0.847803 0.194423 0.933229
O O15 0.509285 0.766762 0.003752
#
# Coordination Sequence:
#
# PCOD9321289 Si02
#       8
#     4   8   8   8   8   8   4   8
#     4  11  28  38  66  99 148 184 246 299 380 450
#     4  11  24  45  74 101 145 192 258 313 385 470
#     4  11  25  48  75 111 149 199 252 326 402 478
#     4  11  23  43  64  99 135 188 238 299 371 449
#     4  11  24  44  65 105 135 194 243 310 376 465
#     4  11  26  46  75 108 147 201 260 321 399 472
#     4  11  20  42  70  87 134 182 238 287 364 446
#     4  12  28  52  81 117 159 206 265 331 406 489
#
# _framework density 23.228089000000001
#
# number of rings (size 3 to 8) (size 9 to 14) (size 15 to 20)
#    0.000    0.857    4.286    1.714    7.000    0.571 
#    2.571    0.000    0.000    0.000    0.000    0.000 
#    0.000    0.000    0.000    0.000    0.000    0.000 
#
# Total GULP energy -156148.983108 kJ/mol
# GULP energy per Si atom -5576.749397 kJ/mol
# Density = 2.317522 g / cm^3
# Si number density = 23.228089 Si / 1000 Ang^3
#
#
#
# Elastic Constant Matrix: (Units=GPa)
#
#
# Indices 1 2 3 4 5 6 
#
# 1 46.7205 3.5802 33.1700 0.0000 0.0000 0.0000
# 2 3.5802 72.4557 31.1792 0.0000 0.0000 0.0000
# 3 33.1700 31.1792 165.0906 0.0000 0.0000 0.0000
# 4 0.0000 0.0000 0.0000 14.8631 0.0000 0.0000
# 5 0.0000 0.0000 0.0000 0.0000 31.9829 0.0000
# 6 0.0000 0.0000 0.0000 0.0000 0.0000 4.8496
#
#
#
# Elastic Compliance Matrix: (Units=1/GPa)
#
#
# Indices 1 2 3 4 5 6 
#
# 1 0.025033 0.001009 -0.005220 0.000000 0.000000 0.000000
# 2 0.001009 0.015063 -0.003048 0.000000 0.000000 0.000000
# 3 -0.005220 -0.003048 0.007682 0.000000 0.000000 0.000000
# 4 0.000000 0.000000 0.000000 0.067281 0.000000 0.000000
# 5 0.000000 0.000000 0.000000 0.000000 0.031267 0.000000
# 6 0.000000 0.000000 0.000000 0.000000 0.000000 0.206202
#
#
# Mechanical properties :
#
#
# Convention : Reuss Voigt Hill
#
# Bulk Modulus (GPa) = 30.06550 46.68062 38.37306
# Shear Modulus (GPa) = 13.22293 24.76161 18.99227
#
# Velocity S-wave (km/s) = 2.38851 3.26854 2.86255
# Velocity P-wave (km/s) = 4.53634 5.86385 5.24228
#
# Compressibility (1/GPa) = 0.03326072
#
# Stress axis : x y z
#
# Youngs Moduli (GPa) = 39.94769 66.38730 130.17933
#
# Poissons Ratio (x) = -0.06702 0.67957
# Poissons Ratio (y) = -0.04033 0.39674
# Poissons Ratio (z) = 0.20854 0.20233
#
# Static dielectric constant tensor:
#      x y z
#    x 1.980720 0.000000 0.000000 
#    y 0.000000 1.900230 0.000000 
#    z 0.000000 0.000000 2.179440 
# 
# From -- ./inp_files/30769.got.cif
#   From: 2010.05.17/outbox.cif.g08.bks.cpg/sg20_16_cif.got.tgz:30769.got - 2010.06.03 22:52:26.
