data_PCOD9321805
_publ_section_title
;
Structure prediction by ZEFSAII (Michael W. Deem and Ramdas Pophale) SiO2 
 PCOD9321805
Probable space group: C 2 2 21
;
_chemical_formula_sum "Si O2"
_cell_formula_units_Z 36
_cell_length_a 12.960374
_cell_length_b 4.829241
_cell_length_c 25.621525
_cell_angle_alpha 90.000000
_cell_angle_beta 90.000000
_cell_angle_gamma 90.000000
_cell_volume 1603.619722
_symmetry_space_group_name_H-M "C 2 2 21"
_symmetry_group_IT_number 20
_symmetry_cell_setting 'orthorhombic'
loop_
_space_group_symop_operation_xyz
x,y,z
-x,-y,1/2+z
x,-y,-z
-x,y,1/2-z
1/2+x,1/2+y,z
1/2-x,1/2-y,1/2+z
1/2+x,1/2-y,-z
1/2-x,1/2+y,1/2-z
loop_
_atom_site_type_symbol
_atom_site_label
_atom_site_fract_x
_atom_site_fract_y
_atom_site_fract_z
Si Si1 0.521718 0.956111 0.082455
Si Si2 0.656276 0.000000 0.500000
Si Si3 0.441612 0.440475 0.348684
Si Si4 0.000000 0.300822 0.250000
Si Si5 0.693138 0.000000 0.000000
Si Si6 0.693453 0.186714 0.231149
O O1 0.499954 0.176392 0.128042
O O2 0.420927 0.917894 0.046963
O O3 0.561958 0.670446 0.106642
O O4 0.614801 0.073908 0.046889
O O5 0.731454 0.250332 0.485561
O O6 0.490550 0.602690 0.299968
O O7 0.335482 0.315009 0.325020
O O8 0.096750 0.507344 0.250293
O O9 0.719190 0.451070 0.266891
#
# Coordination Sequence:
#
# PCOD9321805 Si02
#       6
#     8   4   8   4   4   8
#     4  11  25  46  72 103 144 174 235 299 347 429
#     4  11  24  49  76 104 136 181 228 291 378 416
#     4  12  24  47  71 104 142 192 232 292 354 404
#     4  12  26  48  70 100 154 186 246 294 344 410
#     4  11  24  49  70 102 138 179 224 297 358 438
#     4  12  25  46  68  98 143 195 237 290 342 403
#
# _framework density 22.449210999999998
#
# number of rings (size 3 to 8) (size 9 to 14) (size 15 to 20)
#    0.000    0.444    4.444    3.333    0.000    3.556 
#   16.000    0.000    0.000    0.000    0.000    0.000 
#    0.000    0.000    0.000    0.000    0.000    0.000 
#
# Total GULP energy -100633.638133 kJ/mol
# GULP energy per Si atom -5590.757674 kJ/mol
# Density = 2.239812 g / cm^3
# Si number density = 22.449211 Si / 1000 Ang^3
#
#
#
# Elastic Constant Matrix: (Units=GPa)
#
#
# Indices 1 2 3 4 5 6 
#
# 1 104.9230 31.1646 29.3400 0.0000 0.0000 0.0000
# 2 31.1646 143.5012 27.7871 0.0000 0.0000 0.0000
# 3 29.3400 27.7871 73.7535 0.0000 0.0000 0.0000
# 4 0.0000 0.0000 0.0000 49.1735 0.0000 0.0000
# 5 0.0000 0.0000 0.0000 0.0000 19.4291 0.0000
# 6 0.0000 0.0000 0.0000 0.0000 0.0000 46.5836
#
#
#
# Elastic Compliance Matrix: (Units=1/GPa)
#
#
# Indices 1 2 3 4 5 6 
#
# 1 0.011085 -0.001676 -0.003778 0.000000 0.000000 0.000000
# 2 -0.001676 0.007770 -0.002261 0.000000 0.000000 0.000000
# 3 -0.003778 -0.002261 0.015914 0.000000 0.000000 0.000000
# 4 0.000000 0.000000 0.000000 0.020336 0.000000 0.000000
# 5 0.000000 0.000000 0.000000 0.000000 0.051469 0.000000
# 6 0.000000 0.000000 0.000000 0.000000 0.000000 0.021467
#
#
# Mechanical properties :
#
#
# Convention : Reuss Voigt Hill
#
# Bulk Modulus (GPa) = 51.70933 55.41791 53.56362
# Shear Modulus (GPa) = 33.35165 38.62964 35.99064
#
# Velocity S-wave (km/s) = 3.85859 4.15270 4.00835
# Velocity P-wave (km/s) = 6.55252 6.90889 6.73306
#
# Compressibility (1/GPa) = 0.01933887
#
# Stress axis : x y z
#
# Youngs Moduli (GPa) = 90.21104 128.69523 62.83939
#
# Poissons Ratio (x) = 0.21566 0.23744
# Poissons Ratio (y) = 0.15117 0.14207
# Poissons Ratio (z) = 0.34086 0.29096
#
# Static dielectric constant tensor:
#      x y z
#    x 1.835530 0.000000 0.000000 
#    y 0.000000 1.824470 0.000000 
#    z 0.000000 0.000000 1.870240 
# 
# From -- ./inp_files/31118.got.cif
#   From: 2010.05.17/outbox.cif.g08.bks.cpg/sg20_16_cif.got.tgz:31118.got - 2010.06.03 22:52:26.
