data_PCOD9321768
_publ_section_title
;
Structure prediction by ZEFSAII (Michael W. Deem and Ramdas Pophale) SiO2 
 PCOD9321768
Probable space group: C 2 2 21
;
_chemical_formula_sum "Si O2"
_cell_formula_units_Z 52
_cell_length_a 12.758535
_cell_length_b 8.903696
_cell_length_c 20.441539
_cell_angle_alpha 90.000000
_cell_angle_beta 90.000000
_cell_angle_gamma 90.000000
_cell_volume 2322.120340
_symmetry_space_group_name_H-M "C 2 2 21"
_symmetry_group_IT_number 20
_symmetry_cell_setting 'orthorhombic'
loop_
_space_group_symop_operation_xyz
x,y,z
-x,-y,1/2+z
x,-y,-z
-x,y,1/2-z
1/2+x,1/2+y,z
1/2-x,1/2-y,1/2+z
1/2+x,1/2-y,-z
1/2-x,1/2+y,1/2-z
loop_
_atom_site_type_symbol
_atom_site_label
_atom_site_fract_x
_atom_site_fract_y
_atom_site_fract_z
Si Si1 0.176763 0.758799 0.675102
Si Si2 0.500000 0.774993 0.750000
Si Si3 0.657231 0.468499 0.230949
Si Si4 0.119670 0.818378 0.882154
Si Si5 0.914059 0.849260 0.963669
Si Si6 0.662309 0.099166 0.442127
Si Si7 0.498748 0.044656 0.656807
O O1 0.263343 0.632357 0.688592
O O2 0.198154 0.905072 0.719333
O O3 0.156119 0.811007 0.600501
O O4 0.071954 0.665580 0.694824
O O5 0.408517 0.659398 0.768307
O O6 0.470488 0.891574 0.693268
O O7 0.594928 0.568472 0.177756
O O8 0.240662 0.841584 0.900081
O O9 0.033547 0.854265 0.937507
O O10 0.098900 0.644517 0.864637
O O11 0.900268 0.725448 0.019188
O O12 0.882651 0.000000 0.000000
O O13 0.577477 0.005869 0.400966
O O14 0.711389 0.000000 0.500000
#
# Coordination Sequence:
#
# PCOD9321768 Si02
#       7
#     8   4   8   8   8   8   8
#     4  11  24  46  69 105 140 193 240 316 372 443
#     4  12  26  42  68 108 144 192 242 314 382 442
#     4  12  25  43  75 103 145 192 252 305 383 445
#     4  11  24  46  75 102 143 198 244 309 378 443
#     4  11  26  44  70 104 148 188 255 307 366 461
#     4  12  23  48  72 103 148 199 242 313 374 444
#     4  11  24  46  71 105 150 188 250 311 371 458
#
# _framework density 22.393325999999998
#
# number of rings (size 3 to 8) (size 9 to 14) (size 15 to 20)
#    0.000    0.615    4.615    4.154    4.308    1.231 
#    2.769    0.000    0.000    0.000    0.000    0.000 
#    0.000    0.000    0.000    0.000    0.000    0.000 
#
# Total GULP energy -145217.912187 kJ/mol
# GULP energy per Si atom -5585.304315 kJ/mol
# Density = 2.234236 g / cm^3
# Si number density = 22.393326 Si / 1000 Ang^3
#
#
#
# Elastic Constant Matrix: (Units=GPa)
#
#
# Indices 1 2 3 4 5 6 
#
# 1 44.8330 64.4064 27.9788 0.0000 0.0000 0.0000
# 2 64.4064 190.0171 78.8419 0.0000 0.0000 0.0000
# 3 27.9788 78.8419 83.5746 0.0000 0.0000 0.0000
# 4 0.0000 0.0000 0.0000 45.8570 0.0000 0.0000
# 5 0.0000 0.0000 0.0000 0.0000 24.3127 0.0000
# 6 0.0000 0.0000 0.0000 0.0000 0.0000 47.5133
#
#
#
# Elastic Compliance Matrix: (Units=1/GPa)
#
#
# Indices 1 2 3 4 5 6 
#
# 1 0.043532 -0.014310 -0.001074 0.000000 0.000000 0.000000
# 2 -0.014310 0.013351 -0.007805 0.000000 0.000000 0.000000
# 3 -0.001074 -0.007805 0.019688 0.000000 0.000000 0.000000
# 4 0.000000 0.000000 0.000000 0.021807 0.000000 0.000000
# 5 0.000000 0.000000 0.000000 0.000000 0.041131 0.000000
# 6 0.000000 0.000000 0.000000 0.000000 0.000000 0.021047
#
#
# Mechanical properties :
#
#
# Convention : Reuss Voigt Hill
#
# Bulk Modulus (GPa) = 33.11905 73.43099 53.27502
# Shear Modulus (GPa) = 23.04173 33.34977 28.19575
#
# Velocity S-wave (km/s) = 3.21121 3.86330 3.55225
# Velocity P-wave (km/s) = 5.34518 7.26380 6.37706
#
# Compressibility (1/GPa) = 0.03019411
#
# Stress axis : x y z
#
# Youngs Moduli (GPa) = 22.97144 74.89957 50.79302
#
# Poissons Ratio (x) = 1.07178 0.05457
# Poissons Ratio (y) = 0.32871 0.39642
# Poissons Ratio (z) = 0.02468 0.58457
#
# Static dielectric constant tensor:
#      x y z
#    x 1.868610 0.000000 0.000000 
#    y 0.000000 1.830770 0.000000 
#    z 0.000000 0.000000 1.852190 
# 
# From -- ./inp_files/27503.got.cif
#   From: 2010.05.17/outbox.cif.g08.bks.cpg/sg20_14_cif.got.tgz:27503.got - 2010.06.03 22:52:26.
