data_PCOD9321926
_publ_section_title
;
Structure prediction by ZEFSAII (Michael W. Deem and Ramdas Pophale) SiO2 
 PCOD9321926
Probable space group: C 2 2 21
;
_chemical_formula_sum "Si O2"
_cell_formula_units_Z 28
_cell_length_a 22.033817
_cell_length_b 9.750828
_cell_length_c 6.713740
_cell_angle_alpha 90.000000
_cell_angle_beta 90.000000
_cell_angle_gamma 90.000000
_cell_volume 1442.433341
_symmetry_space_group_name_H-M "C 2 2 21"
_symmetry_group_IT_number 20
_symmetry_cell_setting 'orthorhombic'
loop_
_space_group_symop_operation_xyz
x,y,z
-x,-y,1/2+z
x,-y,-z
-x,y,1/2-z
1/2+x,1/2+y,z
1/2-x,1/2-y,1/2+z
1/2+x,1/2-y,-z
1/2-x,1/2+y,1/2-z
loop_
_atom_site_type_symbol
_atom_site_label
_atom_site_fract_x
_atom_site_fract_y
_atom_site_fract_z
Si Si1 0.155729 0.500000 0.500000
Si Si2 0.341968 0.345899 0.425524
Si Si3 0.567839 0.119671 0.167945
Si Si4 0.764506 0.374558 0.344414
O O1 0.111869 0.580600 0.350201
O O2 0.199148 0.585036 0.645632
O O3 0.349992 0.500000 0.500000
O O4 0.403905 0.260115 0.415867
O O5 0.304954 0.350560 0.217581
O O6 0.297357 0.258125 0.567413
O O7 0.500000 0.132144 0.250000
O O8 0.570760 0.000000 0.000000
O O9 0.769728 0.500000 0.500000
#
# Coordination Sequence:
#
# PCOD9321926 Si02
#       4
#     4   8   8   8
#     4  12  20  44  76  98 126 176 238 278 316 410
#     4  12  24  41  66 104 142 170 218 283 349 395
#     4  12  25  46  72  96 129 184 239 274 323 411
#     4  12  23  44  68 103 141 180 224 274 341 419
#
# _framework density 19.411642000000001
#
# number of rings (size 3 to 8) (size 9 to 14) (size 15 to 20)
#    0.000    0.000    8.571    3.429    0.000    0.000 
#    0.000    5.714    0.000    0.000    0.000    0.000 
#    0.000    0.000    0.000    0.000    0.000    0.000 
#
# Total GULP energy -78302.114903 kJ/mol
# GULP energy per Si atom -5593.008207 kJ/mol
# Density = 1.936746 g / cm^3
# Si number density = 19.411642 Si / 1000 Ang^3
#
#
#
# Elastic Constant Matrix: (Units=GPa)
#
#
# Indices 1 2 3 4 5 6 
#
# 1 133.0156 74.4048 47.4933 0.0000 0.0000 0.0000
# 2 74.4048 189.5608 71.9538 0.0000 0.0000 0.0000
# 3 47.4933 71.9538 108.4969 0.0000 0.0000 0.0000
# 4 0.0000 0.0000 0.0000 23.1315 0.0000 0.0000
# 5 0.0000 0.0000 0.0000 0.0000 26.1154 0.0000
# 6 0.0000 0.0000 0.0000 0.0000 0.0000 22.7821
#
#
#
# Elastic Compliance Matrix: (Units=1/GPa)
#
#
# Indices 1 2 3 4 5 6 
#
# 1 0.010076 -0.003048 -0.002389 0.000000 0.000000 0.000000
# 2 -0.003048 0.007972 -0.003953 0.000000 0.000000 0.000000
# 3 -0.002389 -0.003953 0.012884 0.000000 0.000000 0.000000
# 4 0.000000 0.000000 0.000000 0.043231 0.000000 0.000000
# 5 0.000000 0.000000 0.000000 0.000000 0.038292 0.000000
# 6 0.000000 0.000000 0.000000 0.000000 0.000000 0.043894
#
#
# Mechanical properties :
#
#
# Convention : Reuss Voigt Hill
#
# Bulk Modulus (GPa) = 82.28978 90.97523 86.63250
# Shear Modulus (GPa) = 27.90492 30.22056 29.06274
#
# Velocity S-wave (km/s) = 3.79560 3.94994 3.87354
# Velocity P-wave (km/s) = 7.85447 8.23230 8.04561
#
# Compressibility (1/GPa) = 0.01215218
#
# Stress axis : x y z
#
# Youngs Moduli (GPa) = 99.24610 125.43681 77.61479
#
# Poissons Ratio (x) = 0.38233 0.18544
# Poissons Ratio (y) = 0.30250 0.30679
# Poissons Ratio (z) = 0.23712 0.49582
#
# Static dielectric constant tensor:
#      x y z
#    x 1.671850 0.000000 0.000000 
#    y 0.000000 1.709980 0.000000 
#    z 0.000000 0.000000 1.706460 
# 
# From -- ./inp_files/4000.got.cif
#   From: 2010.05.17/outbox.cif.g08.bks.cpg/sg20_2_cif.got.tgz:4000.got - 2010.06.03 22:52:26.
