data_PCOD9321478
_publ_section_title
;
Structure prediction by ZEFSAII (Michael W. Deem and Ramdas Pophale) SiO2 
 PCOD9321478
Probable space group: C 2 2 21
;
_chemical_formula_sum "Si O2"
_cell_formula_units_Z 36
_cell_length_a 5.021257
_cell_length_b 13.148793
_cell_length_c 23.715848
_cell_angle_alpha 90.000000
_cell_angle_beta 90.000000
_cell_angle_gamma 90.000000
_cell_volume 1565.802553
_symmetry_space_group_name_H-M "C 2 2 21"
_symmetry_group_IT_number 20
_symmetry_cell_setting 'orthorhombic'
loop_
_space_group_symop_operation_xyz
x,y,z
-x,-y,1/2+z
x,-y,-z
-x,y,1/2-z
1/2+x,1/2+y,z
1/2-x,1/2-y,1/2+z
1/2+x,1/2-y,-z
1/2-x,1/2+y,1/2-z
loop_
_atom_site_type_symbol
_atom_site_label
_atom_site_fract_x
_atom_site_fract_y
_atom_site_fract_z
Si Si1 0.256038 0.838104 0.435131
Si Si2 0.751920 0.737174 0.391920
Si Si3 0.481526 0.500000 0.500000
Si Si4 0.002226 0.020401 0.119944
Si Si5 0.750840 0.105240 0.710006
O O1 0.546433 0.792443 0.434539
O O2 0.165653 0.900551 0.490151
O O3 0.044598 0.751707 0.417645
O O4 0.205959 0.926445 0.387918
O O5 0.653607 0.624936 0.378509
O O6 0.727147 0.803950 0.335092
O O7 0.339503 0.486493 0.559825
O O8 0.183167 0.994673 0.172756
O O9 0.500000 0.093395 0.750000
O O10 0.000000 0.125919 0.750000
#
# Coordination Sequence:
#
# PCOD9321478 Si02
#       5
#     8   8   4   8   8
#     4   9  22  40  61 101 134 167 211 269 317 405
#     4  11  22  42  68  93 132 171 224 266 335 396
#     4   8  20  46  64 104 138 176 208 284 334 412
#     4   9  22  44  67 101 132 175 221 271 345 393
#     4  11  24  45  68  93 136 174 228 288 326 390
#
# _framework density 22.991403999999999
#
# number of rings (size 3 to 8) (size 9 to 14) (size 15 to 20)
#    1.333    0.889    0.000    2.667    0.000    8.889 
#    0.000    6.667    0.000    0.000    0.000    0.000 
#    0.000    0.000    0.000    0.000    0.000    0.000 
#
# Total GULP energy -100550.575607 kJ/mol
# GULP energy per Si atom -5586.143089 kJ/mol
# Density = 2.293907 g / cm^3
# Si number density = 22.991404 Si / 1000 Ang^3
#
#
#
# Elastic Constant Matrix: (Units=GPa)
#
#
# Indices 1 2 3 4 5 6 
#
# 1 74.6439 22.1024 20.4899 0.0000 0.0000 0.0000
# 2 22.1024 135.0171 27.1458 0.0000 0.0000 0.0000
# 3 20.4899 27.1458 104.7214 0.0000 0.0000 0.0000
# 4 0.0000 0.0000 0.0000 -23.6523 0.0000 0.0000
# 5 0.0000 0.0000 0.0000 0.0000 14.9605 0.0000
# 6 0.0000 0.0000 0.0000 0.0000 0.0000 23.3241
#
#
#
# Elastic Compliance Matrix: (Units=1/GPa)
#
#
# Indices 1 2 3 4 5 6 
#
# 1 0.014613 -0.001917 -0.002362 0.000000 0.000000 0.000000
# 2 -0.001917 0.008065 -0.001716 0.000000 0.000000 0.000000
# 3 -0.002362 -0.001716 0.010456 0.000000 0.000000 0.000000
# 4 0.000000 0.000000 0.000000 -0.042279 0.000000 0.000000
# 5 0.000000 0.000000 0.000000 0.000000 0.066843 0.000000
# 6 0.000000 0.000000 0.000000 0.000000 0.000000 0.042874
#
#
# Mechanical properties :
#
#
# Convention : Reuss Voigt Hill
#
# Bulk Modulus (GPa) = 47.29393 50.42873 48.86133
# Shear Modulus (GPa) = 41.80250 19.23608 30.51929
#
# Velocity S-wave (km/s) = 4.26864 2.89565 3.64733
# Velocity P-wave (km/s) = 6.70149 5.75857 6.24784
#
# Compressibility (1/GPa) = 0.02114436
#
# Stress axis : x y z
#
# Youngs Moduli (GPa) = 68.43187 123.98888 95.63851
#
# Poissons Ratio (x) = 0.23772 0.22592
# Poissons Ratio (y) = 0.13120 0.16407
# Poissons Ratio (z) = 0.16165 0.21271
#
# Static dielectric constant tensor:
#      x y z
#    x 1.853550 0.000000 0.000000 
#    y 0.000000 1.866220 0.000000 
#    z 0.000000 0.000000 1.895970 
# 
# From -- ./inp_files/28231.got.cif
#   From: 2010.05.17/outbox.cif.g08.bks.cpg/sg20_15_cif.got.tgz:28231.got - 2010.06.03 22:52:26.
