data_PCOD9321368
_publ_section_title
;
Structure prediction by ZEFSAII (Michael W. Deem and Ramdas Pophale) SiO2 
 PCOD9321368
Probable space group: C 2 2 21
;
_chemical_formula_sum "Si O2"
_cell_formula_units_Z 40
_cell_length_a 9.397993
_cell_length_b 19.743526
_cell_length_c 9.705317
_cell_angle_alpha 90.000000
_cell_angle_beta 90.000000
_cell_angle_gamma 90.000000
_cell_volume 1800.816902
_symmetry_space_group_name_H-M "C 2 2 21"
_symmetry_group_IT_number 20
_symmetry_cell_setting 'orthorhombic'
loop_
_space_group_symop_operation_xyz
x,y,z
-x,-y,1/2+z
x,-y,-z
-x,y,1/2-z
1/2+x,1/2+y,z
1/2-x,1/2-y,1/2+z
1/2+x,1/2-y,-z
1/2-x,1/2+y,1/2-z
loop_
_atom_site_type_symbol
_atom_site_label
_atom_site_fract_x
_atom_site_fract_y
_atom_site_fract_z
Si Si1 0.870339 0.783629 0.357182
Si Si2 0.734679 0.000000 0.500000
Si Si3 0.988268 0.388363 0.910404
Si Si4 0.058747 0.747319 0.594156
Si Si5 0.213331 0.500000 0.000000
Si Si6 0.160836 0.080214 0.750872
O O1 0.730706 0.737736 0.399554
O O2 0.778769 0.845760 0.288129
O O3 0.000000 0.764745 0.250000
O O4 0.960382 0.797043 0.498171
O O5 0.642545 0.938120 0.558621
O O6 0.819961 0.969971 0.375919
O O7 0.118125 0.439266 0.939731
O O8 0.000000 0.370888 0.750000
O O9 0.972109 0.323567 0.010817
O O10 0.000000 0.747084 0.750000
O O11 0.296276 0.539449 0.882396
O O12 0.000000 0.099773 0.750000
#
# Coordination Sequence:
#
# PCOD9321368 Si02
#       6
#     8   4   8   8   4   8
#     4  11  25  47  72 105 152 199 248 314 380 455
#     4  11  21  42  66 100 143 179 244 302 372 427
#     4  11  23  39  69 101 142 190 241 311 363 444
#     4  12  25  45  73 106 145 200 260 313 373 451
#     4  11  23  40  68 106 139 195 246 304 378 453
#     4  11  23  43  68 100 146 190 236 305 377 450
#
# _framework density 22.212143000000001
#
# number of rings (size 3 to 8) (size 9 to 14) (size 15 to 20)
#    0.000    0.800    4.000    3.600    0.000    1.600 
#    0.000    5.000    0.000    0.000    0.000    0.000 
#    0.000    0.000    0.000    0.000    0.000    0.000 
#
# Total GULP energy -111373.976321 kJ/mol
# GULP energy per Si atom -5568.698816 kJ/mol
# Density = 2.216159 g / cm^3
# Si number density = 22.212143 Si / 1000 Ang^3
#
#
#
# Elastic Constant Matrix: (Units=GPa)
#
#
# Indices 1 2 3 4 5 6 
#
# 1 91.0688 -4.6079 41.2578 0.0000 0.0000 0.0000
# 2 -4.6079 99.0188 34.4896 0.0000 0.0000 0.0000
# 3 41.2578 34.4896 189.4557 0.0000 0.0000 0.0000
# 4 0.0000 0.0000 0.0000 2.9865 0.0000 0.0000
# 5 0.0000 0.0000 0.0000 0.0000 28.7908 0.0000
# 6 0.0000 0.0000 0.0000 0.0000 0.0000 19.3231
#
#
#
# Elastic Compliance Matrix: (Units=1/GPa)
#
#
# Indices 1 2 3 4 5 6 
#
# 1 0.012422 0.001623 -0.003001 0.000000 0.000000 0.000000
# 2 0.001623 0.010995 -0.002355 0.000000 0.000000 0.000000
# 3 -0.003001 -0.002355 0.006360 0.000000 0.000000 0.000000
# 4 0.000000 0.000000 0.000000 0.334843 0.000000 0.000000
# 5 0.000000 0.000000 0.000000 0.000000 0.034733 0.000000
# 6 0.000000 0.000000 0.000000 0.000000 0.000000 0.051751
#
#
# Mechanical properties :
#
#
# Convention : Reuss Voigt Hill
#
# Bulk Modulus (GPa) = 44.81763 57.98025 51.39894
# Shear Modulus (GPa) = 10.72942 30.78033 20.75487
#
# Velocity S-wave (km/s) = 2.20021 3.72660 3.06010
# Velocity P-wave (km/s) = 5.16483 6.68403 5.97293
#
# Compressibility (1/GPa) = 0.02231265
#
# Stress axis : x y z
#
# Youngs Moduli (GPa) = 80.50049 90.95092 157.22089
#
# Poissons Ratio (x) = -0.14764 0.47177
# Poissons Ratio (y) = -0.13067 0.37027
# Poissons Ratio (z) = 0.24156 0.21420
#
# Static dielectric constant tensor:
#      x y z
#    x 1.977150 0.000000 0.000000 
#    y 0.000000 1.929380 0.000000 
#    z 0.000000 0.000000 1.768930 
# 
# From -- ./inp_files/6156.got.cif
#   From: 2010.05.17/outbox.cif.g08.bks.cpg/sg20_4_cif.got.tgz:6156.got - 2010.06.03 22:52:26.
