data_PCOD9321543
_publ_section_title
;
Structure prediction by ZEFSAII (Michael W. Deem and Ramdas Pophale) SiO2 
 PCOD9321543
Probable space group: C 2 2 21
;
_chemical_formula_sum "Si O2"
_cell_formula_units_Z 60
_cell_length_a 8.730218
_cell_length_b 12.272500
_cell_length_c 23.552671
_cell_angle_alpha 90.000000
_cell_angle_beta 90.000000
_cell_angle_gamma 90.000000
_cell_volume 2523.470865
_symmetry_space_group_name_H-M "C 2 2 21"
_symmetry_group_IT_number 20
_symmetry_cell_setting 'orthorhombic'
loop_
_space_group_symop_operation_xyz
x,y,z
-x,-y,1/2+z
x,-y,-z
-x,y,1/2-z
1/2+x,1/2+y,z
1/2-x,1/2-y,1/2+z
1/2+x,1/2-y,-z
1/2-x,1/2+y,1/2-z
loop_
_atom_site_type_symbol
_atom_site_label
_atom_site_fract_x
_atom_site_fract_y
_atom_site_fract_z
Si Si1 0.558852 0.171139 0.378831
Si Si2 0.311792 0.275482 0.448884
Si Si3 0.187726 0.395769 0.039951
Si Si4 0.896548 0.077901 0.382712
Si Si5 0.884370 0.094988 0.845053
Si Si6 0.453911 0.199885 0.872036
Si Si7 0.082649 0.505640 0.805497
Si Si8 0.109484 0.000000 0.000000
O O1 0.477582 0.226292 0.432951
O O2 0.715805 0.103537 0.388536
O O3 0.592374 0.275748 0.338786
O O4 0.439789 0.085502 0.353260
O O5 0.252320 0.198648 0.498637
O O6 0.215844 0.273794 0.391241
O O7 0.309420 0.400046 0.468764
O O8 0.301049 0.415649 0.092918
O O9 0.038077 0.349218 0.071834
O O10 0.161858 0.500000 0.000000
O O11 0.965600 0.187292 0.356787
O O12 0.959377 0.973970 0.348483
O O13 0.964113 0.062342 0.446568
O O14 0.758722 0.043565 0.802876
O O15 0.484048 0.110872 0.824494
O O16 0.000000 0.461545 0.750000
#
# Coordination Sequence:
#
# PCOD9321543 Si02
#       8
#     8   8   8   8   8   8   8   4
#     4  12  25  49  69 106 144 185 240 305 358 432
#     4  12  25  39  66 104 153 194 242 285 349 433
#     4  11  23  37  64  97 150 198 235 282 351 421
#     4  12  24  44  71 102 149 190 241 282 356 424
#     4  11  25  49  69 105 148 184 237 306 354 439
#     4  11  24  43  68 105 144 194 242 303 354 428
#     4  11  26  54  78 101 139 183 244 320 383 430
#     4  12  24  34  64 104 144 204 234 268 334 430
#
# _framework density 23.776776999999999
#
# number of rings (size 3 to 8) (size 9 to 14) (size 15 to 20)
#    0.000    0.533    5.333    4.000    7.467    0.000 
#    4.800    0.667    0.000    0.000    0.000    0.000 
#    0.000    0.000    0.000    0.000    0.000    0.000 
#
# Total GULP energy -167703.774432 kJ/mol
# GULP energy per Si atom -5590.125814 kJ/mol
# Density = 2.372266 g / cm^3
# Si number density = 23.776777 Si / 1000 Ang^3
#
#
#
# Elastic Constant Matrix: (Units=GPa)
#
#
# Indices 1 2 3 4 5 6 
#
# 1 93.0162 30.8818 -7.5496 0.0000 0.0000 0.0000
# 2 30.8818 135.7560 4.3331 0.0000 0.0000 0.0000
# 3 -7.5496 4.3331 8.3134 0.0000 0.0000 0.0000
# 4 0.0000 0.0000 0.0000 12.0834 0.0000 0.0000
# 5 0.0000 0.0000 0.0000 0.0000 7.5350 0.0000
# 6 0.0000 0.0000 0.0000 0.0000 0.0000 37.8818
#
#
#
# Elastic Compliance Matrix: (Units=1/GPa)
#
#
# Indices 1 2 3 4 5 6 
#
# 1 0.012974 -0.003384 0.013545 0.000000 0.000000 0.000000
# 2 -0.003384 0.008373 -0.007437 0.000000 0.000000 0.000000
# 3 0.013545 -0.007437 0.136465 0.000000 0.000000 0.000000
# 4 0.000000 0.000000 0.000000 0.082758 0.000000 0.000000
# 5 0.000000 0.000000 0.000000 0.000000 0.132714 0.000000
# 6 0.000000 0.000000 0.000000 0.000000 0.000000 0.026398
#
#
# Mechanical properties :
#
#
# Convention : Reuss Voigt Hill
#
# Bulk Modulus (GPa) = 6.12516 32.49070 19.30793
# Shear Modulus (GPa) = 11.14446 25.46138 18.30292
#
# Velocity S-wave (km/s) = 2.16732 3.27594 2.77750
# Velocity P-wave (km/s) = 2.97401 5.29184 4.29234
#
# Compressibility (1/GPa) = 0.16326092
#
# Stress axis : x y z
#
# Youngs Moduli (GPa) = 77.07986 119.42818 7.32789
#
# Poissons Ratio (x) = 0.40409 -0.09926
# Poissons Ratio (y) = 0.26081 0.05450
# Poissons Ratio (z) = -1.04406 0.88819
#
# Static dielectric constant tensor:
#      x y z
#    x 1.984540 0.000000 0.000000 
#    y 0.000000 1.923420 0.000000 
#    z 0.000000 0.000000 2.005570 
# 
# From -- ./inp_files/30164.got.cif
#   From: 2010.05.17/outbox.cif.g08.bks.cpg/sg20_16_cif.got.tgz:30164.got - 2010.06.03 22:52:26.
