data_PCOD9321313
_publ_section_title
;
Structure prediction by ZEFSAII (Michael W. Deem and Ramdas Pophale) SiO2 
 PCOD9321313
Probable space group: C 2 2 21
;
_chemical_formula_sum "Si O2"
_cell_formula_units_Z 52
_cell_length_a 13.281717
_cell_length_b 21.255784
_cell_length_c 9.723675
_cell_angle_alpha 90.000000
_cell_angle_beta 90.000000
_cell_angle_gamma 90.000000
_cell_volume 2745.122852
_symmetry_space_group_name_H-M "C 2 2 21"
_symmetry_group_IT_number 20
_symmetry_cell_setting 'orthorhombic'
loop_
_space_group_symop_operation_xyz
x,y,z
-x,-y,1/2+z
x,-y,-z
-x,y,1/2-z
1/2+x,1/2+y,z
1/2-x,1/2-y,1/2+z
1/2+x,1/2-y,-z
1/2-x,1/2+y,1/2-z
loop_
_atom_site_type_symbol
_atom_site_label
_atom_site_fract_x
_atom_site_fract_y
_atom_site_fract_z
Si Si1 0.444317 0.264052 0.489345
Si Si2 0.632042 0.500000 0.000000
Si Si3 0.000000 0.317526 0.250000
Si Si4 0.285858 0.632687 0.415360
Si Si5 0.000000 0.956993 0.250000
Si Si6 0.121162 0.154207 0.624848
Si Si7 0.242880 0.685801 0.134454
Si Si8 0.201671 0.320605 0.326179
O O1 0.491092 0.224116 0.613132
O O2 0.384489 0.323944 0.554786
O O3 0.534374 0.293496 0.398520
O O4 0.362834 0.217857 0.413946
O O5 0.694725 0.436441 0.975052
O O6 0.566711 0.505592 0.859917
O O7 0.894384 0.353317 0.240391
O O8 0.247217 0.636909 0.259608
O O9 0.204390 0.665656 0.513305
O O10 0.066274 0.911356 0.347353
O O11 0.196136 0.159383 0.495467
O O12 0.192795 0.162263 0.756790
O O13 0.303442 0.745905 0.194555
#
# Coordination Sequence:
#
# PCOD9321313 Si02
#       8
#     8   4   4   8   4   8   8   8
#     4  11  21  36  61  90 132 166 201 257 313 382
#     4  12  26  42  64  90 124 170 214 256 310 372
#     4  12  20  35  62  98 124 171 204 250 324 382
#     4  11  23  41  58  92 127 165 207 255 313 370
#     4  12  26  41  62  90 120 167 216 258 308 370
#     4  12  21  40  58  88 133 165 205 260 313 369
#     4  11  22  35  59  91 127 166 202 251 318 378
#     4  11  21  38  59  91 128 166 203 254 317 374
#
# _framework density 18.942686999999999
#
# number of rings (size 3 to 8) (size 9 to 14) (size 15 to 20)
#    0.000    0.615    7.692    1.846    2.154    0.615 
#    0.000    0.000    0.000    0.000    4.000    0.000 
#    0.000    0.000    0.000    0.000    0.000    0.000 
#
# Total GULP energy -144984.226547 kJ/mol
# GULP energy per Si atom -5576.316406 kJ/mol
# Density = 1.889957 g / cm^3
# Si number density = 18.942687 Si / 1000 Ang^3
#
#
#
# Elastic Constant Matrix: (Units=GPa)
#
#
# Indices 1 2 3 4 5 6 
#
# 1 102.7602 3.4915 27.1432 0.0000 0.0000 0.0000
# 2 3.4915 48.5744 9.8395 0.0000 0.0000 0.0000
# 3 27.1432 9.8395 96.2544 0.0000 0.0000 0.0000
# 4 0.0000 0.0000 0.0000 21.5806 0.0000 0.0000
# 5 0.0000 0.0000 0.0000 0.0000 33.2425 0.0000
# 6 0.0000 0.0000 0.0000 0.0000 0.0000 4.7085
#
#
#
# Elastic Compliance Matrix: (Units=1/GPa)
#
#
# Indices 1 2 3 4 5 6 
#
# 1 0.010516 -0.000158 -0.002949 0.000000 0.000000 0.000000
# 2 -0.000158 0.021025 -0.002105 0.000000 0.000000 0.000000
# 3 -0.002949 -0.002105 0.011436 0.000000 0.000000 0.000000
# 4 0.000000 0.000000 0.000000 0.046338 0.000000 0.000000
# 5 0.000000 0.000000 0.000000 0.000000 0.030082 0.000000
# 6 0.000000 0.000000 0.000000 0.000000 0.000000 0.212384
#
#
# Mechanical properties :
#
#
# Convention : Reuss Voigt Hill
#
# Bulk Modulus (GPa) = 30.72008 36.50415 33.61212
# Shear Modulus (GPa) = 14.16209 25.71396 19.93802
#
# Velocity S-wave (km/s) = 2.73725 3.68837 3.24781
# Velocity P-wave (km/s) = 5.12275 6.11976 5.64332
#
# Compressibility (1/GPa) = 0.03255199
#
# Stress axis : x y z
#
# Youngs Moduli (GPa) = 95.09518 47.56319 87.44370
#
# Poissons Ratio (x) = 0.00754 0.25789
# Poissons Ratio (y) = 0.01507 0.18403
# Poissons Ratio (z) = 0.28045 0.10010
#
# Static dielectric constant tensor:
#      x y z
#    x 1.725900 0.000000 0.000000 
#    y 0.000000 1.620260 0.000000 
#    z 0.000000 0.000000 1.733290 
# 
# From -- ./inp_files/8685.got.cif
#   From: 2010.05.17/outbox.cif.g08.bks.cpg/sg20_5_cif.got.tgz:8685.got - 2010.06.03 22:52:26.
