data_PCOD9321112
_publ_section_title
;
Structure prediction by ZEFSAII (Michael W. Deem and Ramdas Pophale) SiO2 
 PCOD9321112
Probable space group: C 2 2 21
;
_chemical_formula_sum "Si O2"
_cell_formula_units_Z 36
_cell_length_a 9.117513
_cell_length_b 21.340312
_cell_length_c 7.886407
_cell_angle_alpha 90.000000
_cell_angle_beta 90.000000
_cell_angle_gamma 90.000000
_cell_volume 1534.462722
_symmetry_space_group_name_H-M "C 2 2 21"
_symmetry_group_IT_number 20
_symmetry_cell_setting 'orthorhombic'
loop_
_space_group_symop_operation_xyz
x,y,z
-x,-y,1/2+z
x,-y,-z
-x,y,1/2-z
1/2+x,1/2+y,z
1/2-x,1/2-y,1/2+z
1/2+x,1/2-y,-z
1/2-x,1/2+y,1/2-z
loop_
_atom_site_type_symbol
_atom_site_label
_atom_site_fract_x
_atom_site_fract_y
_atom_site_fract_z
Si Si1 0.835390 0.963871 0.681687
Si Si2 0.193657 0.330817 0.611303
Si Si3 0.838648 0.500000 0.500000
Si Si4 0.078421 0.633930 0.932021
Si Si5 0.825803 0.801494 0.249078
O O1 0.749288 0.897604 0.677664
O O2 0.000000 0.953399 0.750000
O O3 0.833429 0.000000 0.500000
O O4 0.756355 0.003477 0.828933
O O5 0.227436 0.269780 0.720766
O O6 0.273890 0.323929 0.431564
O O7 0.021112 0.328312 0.563186
O O8 0.930319 0.436875 0.496856
O O9 0.242062 0.658390 0.896578
O O10 0.000000 0.638118 0.750000
O O11 0.000000 0.807630 0.250000
#
# Coordination Sequence:
#
# PCOD9321112 Si02
#       5
#     8   8   4   8   8
#     4  12  28  50  75 116 153 206 264 326 390 467
#     4  11  27  45  75 110 153 198 257 313 397 456
#     4  12  28  46  82 104 158 198 262 318 396 458
#     4  10  25  47  72 112 150 202 256 322 385 465
#     4  11  25  46  74 108 153 196 256 316 384 469
#
# _framework density 23.460979999999999
#
# number of rings (size 3 to 8) (size 9 to 14) (size 15 to 20)
#    0.000    0.889    1.111    4.000   14.000    4.444 
#    0.000    0.000    0.000    0.000    0.000    0.000 
#    0.000    0.000    0.000    0.000    0.000    0.000 
#
# Total GULP energy -100785.586291 kJ/mol
# GULP energy per Si atom -5599.199238 kJ/mol
# Density = 2.340758 g / cm^3
# Si number density = 23.460980 Si / 1000 Ang^3
#
#
#
# Elastic Constant Matrix: (Units=GPa)
#
#
# Indices 1 2 3 4 5 6 
#
# 1 77.8324 5.0425 3.1882 0.0000 0.0000 0.0000
# 2 5.0425 99.2687 10.2980 0.0000 0.0000 0.0000
# 3 3.1882 10.2980 118.4607 0.0000 0.0000 0.0000
# 4 0.0000 0.0000 0.0000 50.4408 0.0000 0.0000
# 5 0.0000 0.0000 0.0000 0.0000 -23.1151 0.0000
# 6 0.0000 0.0000 0.0000 0.0000 0.0000 31.1497
#
#
#
# Elastic Compliance Matrix: (Units=1/GPa)
#
#
# Indices 1 2 3 4 5 6 
#
# 1 0.012901 -0.000625 -0.000293 0.000000 0.000000 0.000000
# 2 -0.000625 0.010196 -0.000870 0.000000 0.000000 0.000000
# 3 -0.000293 -0.000870 0.008525 0.000000 0.000000 0.000000
# 4 0.000000 0.000000 0.000000 0.019825 0.000000 0.000000
# 5 0.000000 0.000000 0.000000 0.000000 -0.043262 0.000000
# 6 0.000000 0.000000 0.000000 0.000000 0.000000 0.032103
#
#
# Mechanical properties :
#
#
# Convention : Reuss Voigt Hill
#
# Bulk Modulus (GPa) = 35.65481 36.95768 36.30624
# Shear Modulus (GPa) = 93.96484 30.16394 62.06439
#
# Velocity S-wave (km/s) = 6.33549 3.58957 5.14895
# Velocity P-wave (km/s) = 8.29147 5.74169 7.13146
#
# Compressibility (1/GPa) = 0.02804671
#
# Stress axis : x y z
#
# Youngs Moduli (GPa) = 77.51575 98.08140 117.30081
#
# Poissons Ratio (x) = 0.06129 0.03435
# Poissons Ratio (y) = 0.04844 0.10199
# Poissons Ratio (z) = 0.02270 0.08528
#
# Static dielectric constant tensor:
#      x y z
#    x 1.896270 0.000000 0.000000 
#    y 0.000000 1.839420 0.000000 
#    z 0.000000 0.000000 1.898600 
# 
# From -- ./inp_files/5898.got.cif
#   From: 2010.05.17/outbox.cif.g08.bks.cpg/sg20_3_cif.got.tgz:5898.got - 2010.06.03 22:52:26.
