data_PCOD9321554
_publ_section_title
;
Structure prediction by ZEFSAII (Michael W. Deem and Ramdas Pophale) SiO2 
 PCOD9321554
Probable space group: C 2 2 21
;
_chemical_formula_sum "Si O2"
_cell_formula_units_Z 40
_cell_length_a 10.508782
_cell_length_b 19.811972
_cell_length_c 8.854066
_cell_angle_alpha 90.000000
_cell_angle_beta 90.000000
_cell_angle_gamma 90.000000
_cell_volume 1843.413838
_symmetry_space_group_name_H-M "C 2 2 21"
_symmetry_group_IT_number 20
_symmetry_cell_setting 'orthorhombic'
loop_
_space_group_symop_operation_xyz
x,y,z
-x,-y,1/2+z
x,-y,-z
-x,y,1/2-z
1/2+x,1/2+y,z
1/2-x,1/2-y,1/2+z
1/2+x,1/2-y,-z
1/2-x,1/2+y,1/2-z
loop_
_atom_site_type_symbol
_atom_site_label
_atom_site_fract_x
_atom_site_fract_y
_atom_site_fract_z
Si Si1 0.233289 0.607051 0.121247
Si Si2 0.138135 0.715006 0.332376
Si Si3 0.867949 0.129871 0.840314
Si Si4 0.212327 0.479820 0.341697
Si Si5 0.017408 0.627327 0.583436
O O1 0.233553 0.672039 0.229671
O O2 0.208821 0.542740 0.228134
O O3 0.355530 0.602533 0.012125
O O4 0.112485 0.617032 0.009462
O O5 0.176600 0.792329 0.351267
O O6 0.111581 0.673972 0.485636
O O7 0.000000 0.714792 0.250000
O O8 0.781422 0.081090 0.741629
O O9 0.000000 0.130138 0.750000
O O10 0.276821 0.500000 0.500000
O O11 0.079563 0.445941 0.390405
O O12 0.000000 0.657251 0.750000
#
# Coordination Sequence:
#
# PCOD9321554 Si02
#       5
#     8   8   8   8   8
#     4  11  24  40  70 100 136 180 223 285 346 398
#     4   9  22  43  66 101 135 176 220 284 339 404
#     4  11  26  46  65  93 141 185 234 269 327 407
#     4  12  26  40  68 101 137 178 224 281 349 400
#     4  11  23  39  69 107 139 165 224 286 357 405
#
# _framework density 21.698871
#
# number of rings (size 3 to 8) (size 9 to 14) (size 15 to 20)
#    0.000    1.200    4.000    0.600    5.600    1.600 
#    0.000    4.000    0.000    1.200    0.000    0.000 
#    0.000    0.000    0.000    0.000    0.000    0.000 
#
# Total GULP energy -111729.703989 kJ/mol
# GULP energy per Si atom -5586.485199 kJ/mol
# Density = 2.164948 g / cm^3
# Si number density = 21.698871 Si / 1000 Ang^3
#
#
#
# Elastic Constant Matrix: (Units=GPa)
#
#
# Indices 1 2 3 4 5 6 
#
# 1 21.5242 18.4217 22.2373 0.0000 0.0000 0.0000
# 2 18.4217 126.5412 68.6590 0.0000 0.0000 0.0000
# 3 22.2373 68.6590 183.3945 0.0000 0.0000 0.0000
# 4 0.0000 0.0000 0.0000 12.3161 0.0000 0.0000
# 5 0.0000 0.0000 0.0000 0.0000 23.2389 0.0000
# 6 0.0000 0.0000 0.0000 0.0000 0.0000 27.4517
#
#
#
# Elastic Compliance Matrix: (Units=1/GPa)
#
#
# Indices 1 2 3 4 5 6 
#
# 1 0.056126 -0.005620 -0.004702 0.000000 0.000000 0.000000
# 2 -0.005620 0.010480 -0.003242 0.000000 0.000000 0.000000
# 3 -0.004702 -0.003242 0.007237 0.000000 0.000000 0.000000
# 4 0.000000 0.000000 0.000000 0.081194 0.000000 0.000000
# 5 0.000000 0.000000 0.000000 0.000000 0.043031 0.000000
# 6 0.000000 0.000000 0.000000 0.000000 0.000000 0.036428
#
#
# Mechanical properties :
#
#
# Convention : Reuss Voigt Hill
#
# Bulk Modulus (GPa) = 21.40598 61.12178 41.26388
# Shear Modulus (GPa) = 18.03786 27.41081 22.72433
#
# Velocity S-wave (km/s) = 2.88632 3.55806 3.23965
# Velocity P-wave (km/s) = 4.58195 6.71633 5.74906
#
# Compressibility (1/GPa) = 0.04671591
#
# Stress axis : x y z
#
# Youngs Moduli (GPa) = 17.81693 95.42241 138.18765
#
# Poissons Ratio (x) = 0.53625 0.64970
# Poissons Ratio (y) = 0.10013 0.44800
# Poissons Ratio (z) = 0.08377 0.30936
#
# Static dielectric constant tensor:
#      x y z
#    x 1.888510 0.000000 0.000000 
#    y 0.000000 1.767440 0.000000 
#    z 0.000000 0.000000 1.847620 
# 
# From -- ./inp_files/7231.got.cif
#   From: 2010.05.17/outbox.cif.g08.bks.cpg/sg20_4_cif.got.tgz:7231.got - 2010.06.03 22:52:26.
