data_PCOD9321983
_publ_section_title
;
Structure prediction by ZEFSAII (Michael W. Deem and Ramdas Pophale) SiO2 
 PCOD9321983
Probable space group: C 2 2 21
;
_chemical_formula_sum "Si O2"
_cell_formula_units_Z 24
_cell_length_a 23.235456
_cell_length_b 8.746889
_cell_length_c 4.869198
_cell_angle_alpha 90.000000
_cell_angle_beta 90.000000
_cell_angle_gamma 90.000000
_cell_volume 989.605842
_symmetry_space_group_name_H-M "C 2 2 21"
_symmetry_group_IT_number 20
_symmetry_cell_setting 'orthorhombic'
loop_
_space_group_symop_operation_xyz
x,y,z
-x,-y,1/2+z
x,-y,-z
-x,y,1/2-z
1/2+x,1/2+y,z
1/2-x,1/2-y,1/2+z
1/2+x,1/2-y,-z
1/2-x,1/2+y,1/2-z
loop_
_atom_site_type_symbol
_atom_site_label
_atom_site_fract_x
_atom_site_fract_y
_atom_site_fract_z
Si Si1 0.260133 0.851806 0.133007
Si Si2 0.939610 0.329755 0.887327
Si Si3 0.642602 0.000000 0.000000
Si Si4 0.500000 0.391590 0.750000
O O1 0.229420 0.765519 0.384164
O O2 0.317488 0.919125 0.272577
O O3 0.229545 0.000000 0.000000
O O4 0.892114 0.364465 0.654974
O O5 0.000000 0.295192 0.750000
O O6 0.945172 0.500000 0.000000
O O7 0.945416 0.208416 0.136010
O O8 0.480823 0.500000 0.500000
#
# Coordination Sequence:
#
# PCOD9321983 Si02
#       4
#     8   8   4   4
#     4  12  25  50  84 118 155 206 267 342 404 473
#     4  12  23  46  81 118 154 218 276 309 379 497
#     4  12  26  46  90 120 156 212 284 318 400 486
#     4  12  26  46  74 114 166 216 256 334 394 442
#
# _framework density 24.252078000000001
#
# number of rings (size 3 to 8) (size 9 to 14) (size 15 to 20)
#    0.000    0.000    8.333    1.000    0.000    0.000 
#    0.000    0.000   25.667    0.000    0.000    0.000 
#    0.000    0.000    0.000    0.000    0.000    0.000 
#
# Total GULP energy -66940.251343 kJ/mol
# GULP energy per Si atom -5578.354279 kJ/mol
# Density = 2.419688 g / cm^3
# Si number density = 24.252078 Si / 1000 Ang^3
#
#
#
# Elastic Constant Matrix: (Units=GPa)
#
#
# Indices 1 2 3 4 5 6 
#
# 1 80.2974 44.2973 58.8622 0.0000 0.0000 0.0000
# 2 44.2973 141.4783 104.4587 0.0000 0.0000 0.0000
# 3 58.8622 104.4587 220.0126 0.0000 0.0000 0.0000
# 4 0.0000 0.0000 0.0000 93.6493 0.0000 0.0000
# 5 0.0000 0.0000 0.0000 0.0000 50.1467 0.0000
# 6 0.0000 0.0000 0.0000 0.0000 0.0000 1.3743
#
#
#
# Elastic Compliance Matrix: (Units=1/GPa)
#
#
# Indices 1 2 3 4 5 6 
#
# 1 0.016223 -0.002887 -0.002970 0.000000 0.000000 0.000000
# 2 -0.002887 0.011397 -0.004639 0.000000 0.000000 0.000000
# 3 -0.002970 -0.004639 0.007542 0.000000 0.000000 0.000000
# 4 0.000000 0.000000 0.000000 0.010678 0.000000 0.000000
# 5 0.000000 0.000000 0.000000 0.000000 0.019942 0.000000
# 6 0.000000 0.000000 0.000000 0.000000 0.000000 0.727647
#
#
# Mechanical properties :
#
#
# Convention : Reuss Voigt Hill
#
# Bulk Modulus (GPa) = 70.56335 95.22498 82.89417
# Shear Modulus (GPa) = 6.10394 44.64539 25.37466
#
# Velocity S-wave (km/s) = 1.58819 4.29521 3.23815
# Velocity P-wave (km/s) = 5.70281 7.99677 6.94516
#
# Compressibility (1/GPa) = 0.01417166
#
# Stress axis : x y z
#
# Youngs Moduli (GPa) = 61.63986 87.74132 132.58806
#
# Poissons Ratio (x) = 0.25330 0.39375
# Poissons Ratio (y) = 0.17795 0.61505
# Poissons Ratio (z) = 0.18305 0.40702
#
# Static dielectric constant tensor:
#      x y z
#    x 1.981600 0.000000 0.000000 
#    y 0.000000 1.945070 0.000000 
#    z 0.000000 0.000000 3.944930 
# 
# From -- ./inp_files/362.got.cif
#   From: 2010.05.17/outbox.cif.g08.bks.cpg/sg20_1_cif.got.tgz:362.got - 2010.06.03 22:52:26.
