data_PCOD9321982
_publ_section_title
;
Structure prediction by ZEFSAII (Michael W. Deem and Ramdas Pophale) SiO2 
 PCOD9321982
Probable space group: C 2 2 21
;
_chemical_formula_sum "Si O2"
_cell_formula_units_Z 24
_cell_length_a 16.599020
_cell_length_b 9.244789
_cell_length_c 5.827742
_cell_angle_alpha 90.000000
_cell_angle_beta 90.000000
_cell_angle_gamma 90.000000
_cell_volume 894.292871
_symmetry_space_group_name_H-M "C 2 2 21"
_symmetry_group_IT_number 20
_symmetry_cell_setting 'orthorhombic'
loop_
_space_group_symop_operation_xyz
x,y,z
-x,-y,1/2+z
x,-y,-z
-x,y,1/2-z
1/2+x,1/2+y,z
1/2-x,1/2-y,1/2+z
1/2+x,1/2-y,-z
1/2-x,1/2+y,1/2-z
loop_
_atom_site_type_symbol
_atom_site_label
_atom_site_fract_x
_atom_site_fract_y
_atom_site_fract_z
Si Si1 0.631355 0.369651 0.654918
Si Si2 0.944000 0.334416 0.535871
Si Si3 0.800329 0.622566 0.157638
O O1 0.595466 0.500000 0.500000
O O2 0.708672 0.420184 0.799545
O O3 0.679423 0.266431 0.479924
O O4 0.573805 0.275127 0.822513
O O5 0.974933 0.500000 0.500000
O O6 0.852917 0.359913 0.618182
O O7 0.000000 0.277224 0.750000
O O8 0.838526 0.500000 0.000000
#
# Coordination Sequence:
#
# PCOD9321982 Si02
#       3
#     8   8   8
#     4  12  26  44  80 130 170 215 282 352 422 496
#     4  12  27  48  80 123 165 225 285 344 418 513
#     4  12  23  46  80 119 166 218 276 345 422 509
#
# _framework density 26.836843999999999
#
# number of rings (size 3 to 8) (size 9 to 14) (size 15 to 20)
#    0.000    0.000    6.667    4.000    0.000    0.000 
#    0.000    0.000    7.333    4.000    0.000    0.000 
#    0.000    0.000    0.000    0.000    0.000    0.000 
#
# Total GULP energy -67013.486352 kJ/mol
# GULP energy per Si atom -5584.457196 kJ/mol
# Density = 2.677576 g / cm^3
# Si number density = 26.836844 Si / 1000 Ang^3
#
#
#
# Elastic Constant Matrix: (Units=GPa)
#
#
# Indices 1 2 3 4 5 6 
#
# 1 179.5202 34.9665 70.1709 0.0000 0.0000 0.0000
# 2 34.9665 159.2852 99.7125 0.0000 0.0000 0.0000
# 3 70.1709 99.7125 160.2871 0.0000 0.0000 0.0000
# 4 0.0000 0.0000 0.0000 86.2325 0.0000 0.0000
# 5 0.0000 0.0000 0.0000 0.0000 -30.9198 0.0000
# 6 0.0000 0.0000 0.0000 0.0000 0.0000 3.5940
#
#
#
# Elastic Compliance Matrix: (Units=1/GPa)
#
#
# Indices 1 2 3 4 5 6 
#
# 1 0.006756 0.000603 -0.003333 0.000000 0.000000 0.000000
# 2 0.000603 0.010336 -0.006694 0.000000 0.000000 0.000000
# 3 -0.003333 -0.006694 0.011862 0.000000 0.000000 0.000000
# 4 0.000000 0.000000 0.000000 0.011597 0.000000 0.000000
# 5 0.000000 0.000000 0.000000 0.000000 -0.032342 0.000000
# 6 0.000000 0.000000 0.000000 0.000000 0.000000 0.278244
#
#
# Mechanical properties :
#
#
# Convention : Reuss Voigt Hill
#
# Bulk Modulus (GPa) = 98.94379 100.97692 99.96035
# Shear Modulus (GPa) = 16.19858 31.39751 23.79805
#
# Velocity S-wave (km/s) = 2.45948 3.42415 2.98110
# Velocity P-wave (km/s) = 6.70925 7.30349 7.01267
#
# Compressibility (1/GPa) = 0.01010675
#
# Stress axis : x y z
#
# Youngs Moduli (GPa) = 148.02481 96.74826 84.30161
#
# Poissons Ratio (x) = -0.05837 0.28096
# Poissons Ratio (y) = -0.08931 0.56432
# Poissons Ratio (z) = 0.49334 0.64764
#
# Static dielectric constant tensor:
#      x y z
#    x 2.054200 0.000000 0.000000 
#    y 0.000000 2.138820 0.000000 
#    z 0.000000 0.000000 2.319560 
# 
# From -- ./inp_files/2335.got.cif
#   From: 2010.05.17/outbox.cif.g08.bks.cpg/sg20_2_cif.got.tgz:2335.got - 2010.06.03 22:52:26.
