data_PCOD9321548
_publ_section_title
;
Structure prediction by ZEFSAII (Michael W. Deem and Ramdas Pophale) SiO2 
 PCOD9321548
Probable space group: C 2 2 21
;
_chemical_formula_sum "Si O2"
_cell_formula_units_Z 64
_cell_length_a 7.801430
_cell_length_b 24.594326
_cell_length_c 14.333107
_cell_angle_alpha 90.000000
_cell_angle_beta 90.000000
_cell_angle_gamma 90.000000
_cell_volume 2750.106322
_symmetry_space_group_name_H-M "C 2 2 21"
_symmetry_group_IT_number 20
_symmetry_cell_setting 'orthorhombic'
loop_
_space_group_symop_operation_xyz
x,y,z
-x,-y,1/2+z
x,-y,-z
-x,y,1/2-z
1/2+x,1/2+y,z
1/2-x,1/2-y,1/2+z
1/2+x,1/2-y,-z
1/2-x,1/2+y,1/2-z
loop_
_atom_site_type_symbol
_atom_site_label
_atom_site_fract_x
_atom_site_fract_y
_atom_site_fract_z
Si Si1 0.696684 0.790786 0.222671
Si Si2 0.176231 0.402244 0.308516
Si Si3 0.112522 0.794345 0.455515
Si Si4 0.606300 0.088953 0.120569
Si Si5 0.166763 0.000066 0.706234
Si Si6 0.334290 0.213732 0.368653
Si Si7 0.905495 0.919838 0.031405
Si Si8 0.785946 0.562833 0.013111
O O1 0.500000 0.786768 0.250000
O O2 0.759444 0.847443 0.268581
O O3 0.724577 0.789709 0.113051
O O4 0.795382 0.742670 0.272071
O O5 0.281806 0.455352 0.282620
O O6 0.160213 0.403512 0.419897
O O7 0.000000 0.407010 0.250000
O O8 0.170945 0.785686 0.561366
O O9 0.058812 0.857214 0.439852
O O10 0.977186 0.749947 0.421045
O O11 0.683434 0.042639 0.186816
O O12 0.625853 0.151140 0.149315
O O13 0.732974 0.081639 0.030310
O O14 0.408220 0.081749 0.095338
O O15 0.000000 0.971760 0.750000
O O16 0.126741 0.036784 0.614041
O O17 0.080645 0.934284 0.976723
O O18 0.832064 0.500000 0.000000
#
# Coordination Sequence:
#
# PCOD9321548 Si02
#       8
#     8   8   8   8   8   8   8   8
#     4  11  24  44  73 104 142 184 245 308 364 427
#     4  11  23  38  71 104 136 175 238 307 357 421
#     4  11  24  44  71 106 144 186 244 306 361 436
#     4  11  27  46  67  99 153 188 234 295 367 455
#     4  12  23  44  70 106 142 185 240 303 373 433
#     4  11  26  43  69 102 141 195 236 293 373 439
#     4  11  23  43  73 105 134 187 239 302 364 426
#     4  12  24  41  68 100 139 185 235 289 362 435
#
# _framework density 23.271826999999998
#
# number of rings (size 3 to 8) (size 9 to 14) (size 15 to 20)
#    0.000    0.750    2.500    5.250    8.750    0.500 
#    0.000    3.750    0.000    0.000    0.000    0.000 
#    0.000    0.000    0.000    0.000    0.000    0.000 
#
# Total GULP energy -179092.893933 kJ/mol
# GULP energy per Si atom -5596.652935 kJ/mol
# Density = 2.321886 g / cm^3
# Si number density = 23.271827 Si / 1000 Ang^3
#
#
#
# Elastic Constant Matrix: (Units=GPa)
#
#
# Indices 1 2 3 4 5 6 
#
# 1 72.0379 16.7993 8.9602 0.0000 0.0000 0.0000
# 2 16.7993 138.2012 17.7648 0.0000 0.0000 0.0000
# 3 8.9602 17.7648 69.6776 0.0000 0.0000 0.0000
# 4 0.0000 0.0000 0.0000 107.1900 0.0000 0.0000
# 5 0.0000 0.0000 0.0000 0.0000 41.8782 0.0000
# 6 0.0000 0.0000 0.0000 0.0000 0.0000 18.5111
#
#
#
# Elastic Compliance Matrix: (Units=1/GPa)
#
#
# Indices 1 2 3 4 5 6 
#
# 1 0.014428 -0.001567 -0.001456 0.000000 0.000000 0.000000
# 2 -0.001567 0.007651 -0.001749 0.000000 0.000000 0.000000
# 3 -0.001456 -0.001749 0.014985 0.000000 0.000000 0.000000
# 4 0.000000 0.000000 0.000000 0.009329 0.000000 0.000000
# 5 0.000000 0.000000 0.000000 0.000000 0.023879 0.000000
# 6 0.000000 0.000000 0.000000 0.000000 0.000000 0.054022
#
#
# Mechanical properties :
#
#
# Convention : Reuss Voigt Hill
#
# Bulk Modulus (GPa) = 36.33658 40.77390 38.55524
# Shear Modulus (GPa) = 34.96235 49.27534 42.11885
#
# Velocity S-wave (km/s) = 3.88022 4.60649 4.25887
# Velocity P-wave (km/s) = 5.97684 6.77140 6.38649
#
# Compressibility (1/GPa) = 0.02752048
#
# Stress axis : x y z
#
# Youngs Moduli (GPa) = 69.30953 130.69982 66.73329
#
# Poissons Ratio (x) = 0.20476 0.09716
# Poissons Ratio (y) = 0.10859 0.11673
# Poissons Ratio (z) = 0.10091 0.22863
#
# Static dielectric constant tensor:
#      x y z
#    x 1.846530 0.000000 0.000000 
#    y 0.000000 1.844550 0.000000 
#    z 0.000000 0.000000 1.926340 
# 
# From -- ./inp_files/19361.got.cif
#   From: 2010.05.17/outbox.cif.g08.bks.cpg/sg20_10_cif.got.tgz:19361.got - 2010.06.03 22:52:26.
