data_PCOD9321909
_publ_section_title
;
Structure prediction by ZEFSAII (Michael W. Deem and Ramdas Pophale) SiO2 
 PCOD9321909
Probable space group: C 2 2 21
;
_chemical_formula_sum "Si O2"
_cell_formula_units_Z 20
_cell_length_a 5.535982
_cell_length_b 14.309919
_cell_length_c 8.792481
_cell_angle_alpha 90.000000
_cell_angle_beta 90.000000
_cell_angle_gamma 90.000000
_cell_volume 696.535544
_symmetry_space_group_name_H-M "C 2 2 21"
_symmetry_group_IT_number 20
_symmetry_cell_setting 'orthorhombic'
loop_
_space_group_symop_operation_xyz
x,y,z
-x,-y,1/2+z
x,-y,-z
-x,y,1/2-z
1/2+x,1/2+y,z
1/2-x,1/2-y,1/2+z
1/2+x,1/2-y,-z
1/2-x,1/2+y,1/2-z
loop_
_atom_site_type_symbol
_atom_site_label
_atom_site_fract_x
_atom_site_fract_y
_atom_site_fract_z
Si Si1 0.694037 0.640030 0.933254
Si Si2 0.803133 0.000000 0.000000
Si Si3 0.500000 0.710187 0.250000
Si Si4 0.500000 0.005351 0.250000
O O1 0.797165 0.727623 0.841067
O O2 0.883883 0.561752 0.877664
O O3 0.446128 0.581923 0.911031
O O4 0.656565 0.665275 0.110527
O O5 0.687526 0.055523 0.142103
#
# Coordination Sequence:
#
# PCOD9321909 Si02
#       4
#     8   4   4   4
#     4  11  29  54  80 121 171 224 278 348 415 502
#     4  12  28  52  86 122 172 220 286 348 412 512
#     4  11  30  54  86 120 173 226 284 339 432 496
#     4  11  28  50  84 128 165 218 290 337 428 484
#
# _framework density 28.713538
#
# number of rings (size 3 to 8) (size 9 to 14) (size 15 to 20)
#    0.000    0.800    0.000    2.400   28.000    0.000 
#    0.000    0.000    0.000    0.000    0.000    0.000 
#    0.000    0.000    0.000    0.000    0.000    0.000 
#
# Total GULP energy -55769.283861 kJ/mol
# GULP energy per Si atom -5576.928386 kJ/mol
# Density = 2.864818 g / cm^3
# Si number density = 28.713538 Si / 1000 Ang^3
#
#
#
# Elastic Constant Matrix: (Units=GPa)
#
#
# Indices 1 2 3 4 5 6 
#
# 1 65.3610 23.0216 105.2270 0.0000 0.0000 0.0000
# 2 23.0216 55.3047 77.0964 0.0000 0.0000 0.0000
# 3 105.2270 77.0964 319.1784 0.0000 0.0000 0.0000
# 4 0.0000 0.0000 0.0000 67.4583 0.0000 0.0000
# 5 0.0000 0.0000 0.0000 0.0000 97.3866 0.0000
# 6 0.0000 0.0000 0.0000 0.0000 0.0000 13.2977
#
#
#
# Elastic Compliance Matrix: (Units=1/GPa)
#
#
# Indices 1 2 3 4 5 6 
#
# 1 0.032773 0.002140 -0.011322 0.000000 0.000000 0.000000
# 2 0.002140 0.027401 -0.007324 0.000000 0.000000 0.000000
# 3 -0.011322 -0.007324 0.008635 0.000000 0.000000 0.000000
# 4 0.000000 0.000000 0.000000 0.014824 0.000000 0.000000
# 5 0.000000 0.000000 0.000000 0.000000 0.010268 0.000000
# 6 0.000000 0.000000 0.000000 0.000000 0.000000 0.075201
#
#
# Mechanical properties :
#
#
# Convention : Reuss Voigt Hill
#
# Bulk Modulus (GPa) = 27.93504 94.50382 61.21943
# Shear Modulus (GPa) = 23.35962 51.26179 37.31070
#
# Velocity S-wave (km/s) = 2.85536 4.22984 3.60865
# Velocity P-wave (km/s) = 4.54101 7.53920 6.22335
#
# Compressibility (1/GPa) = 0.03579734
#
# Stress axis : x y z
#
# Youngs Moduli (GPa) = 30.51317 36.49527 115.81234
#
# Poissons Ratio (x) = -0.07811 1.31117
# Poissons Ratio (y) = -0.06531 0.84823
# Poissons Ratio (z) = 0.34546 0.26730
#
# Static dielectric constant tensor:
#      x y z
#    x 2.679990 0.000000 0.000000 
#    y 0.000000 2.185690 0.000000 
#    z 0.000000 0.000000 2.137810 
# 
# From -- ./inp_files/4927.got.cif
#   From: 2010.05.17/outbox.cif.g08.bks.cpg/sg20_3_cif.got.tgz:4927.got - 2010.06.03 22:52:26.
