data_PCOD9321783
_publ_section_title
;
Structure prediction by ZEFSAII (Michael W. Deem and Ramdas Pophale) SiO2 
 PCOD9321783
Probable space group: C 2 2 21
;
_chemical_formula_sum "Si O2"
_cell_formula_units_Z 48
_cell_length_a 14.837082
_cell_length_b 9.524406
_cell_length_c 15.180690
_cell_angle_alpha 90.000000
_cell_angle_beta 90.000000
_cell_angle_gamma 90.000000
_cell_volume 2145.249990
_symmetry_space_group_name_H-M "C 2 2 21"
_symmetry_group_IT_number 20
_symmetry_cell_setting 'orthorhombic'
loop_
_space_group_symop_operation_xyz
x,y,z
-x,-y,1/2+z
x,-y,-z
-x,y,1/2-z
1/2+x,1/2+y,z
1/2-x,1/2-y,1/2+z
1/2+x,1/2-y,-z
1/2-x,1/2+y,1/2-z
loop_
_atom_site_type_symbol
_atom_site_label
_atom_site_fract_x
_atom_site_fract_y
_atom_site_fract_z
Si Si1 0.768489 0.310870 0.840799
Si Si2 0.198899 0.001922 0.304566
Si Si3 0.121297 0.418427 0.907056
Si Si4 0.126360 0.162543 0.018776
Si Si5 0.928170 0.488099 0.106351
Si Si6 0.459036 0.317276 0.847959
O O1 0.701276 0.409013 0.785060
O O2 0.714362 0.279710 0.930460
O O3 0.856619 0.402274 0.857833
O O4 0.794164 0.164791 0.795235
O O5 0.290199 0.050447 0.352438
O O6 0.110455 0.053918 0.356038
O O7 0.029719 0.475059 0.863608
O O8 0.128230 0.500000 0.000000
O O9 0.112087 0.255470 0.932092
O O10 0.038889 0.179065 0.080681
O O11 0.141511 0.000000 0.000000
O O12 0.907558 0.329869 0.136137
O O13 0.927123 0.500000 0.000000
O O14 0.500000 0.317878 0.750000
#
# Coordination Sequence:
#
# PCOD9321783 Si02
#       6
#     8   8   8   8   8   8
#     4  12  27  47  69 106 138 185 234 289 355 421
#     4  12  28  45  73 101 143 183 235 290 353 422
#     4  11  24  47  70 102 140 188 227 282 352 416
#     4  12  27  47  74 102 146 183 242 295 347 424
#     4  11  25  45  73 102 139 185 235 280 354 421
#     4  12  26  48  71 102 145 188 234 294 360 419
#
# _framework density 22.375015000000001
#
# number of rings (size 3 to 8) (size 9 to 14) (size 15 to 20)
#    0.000    0.333    6.667    1.500   11.667    0.667 
#    0.000    0.000    0.000    0.000    0.000    0.000 
#    0.000    0.000    0.000    0.000    0.000    0.000 
#
# Total GULP energy -134415.206636 kJ/mol
# GULP energy per Si atom -5600.633610 kJ/mol
# Density = 2.232409 g / cm^3
# Si number density = 22.375015 Si / 1000 Ang^3
#
#
#
# Elastic Constant Matrix: (Units=GPa)
#
#
# Indices 1 2 3 4 5 6 
#
# 1 90.7070 11.6987 11.3228 0.0000 0.0000 0.0000
# 2 11.6987 156.5195 6.9071 0.0000 0.0000 0.0000
# 3 11.3228 6.9071 31.3200 0.0000 0.0000 0.0000
# 4 0.0000 0.0000 0.0000 31.9969 0.0000 0.0000
# 5 0.0000 0.0000 0.0000 0.0000 24.8696 0.0000
# 6 0.0000 0.0000 0.0000 0.0000 0.0000 40.0638
#
#
#
# Elastic Compliance Matrix: (Units=1/GPa)
#
#
# Indices 1 2 3 4 5 6 
#
# 1 0.011619 -0.000690 -0.004048 0.000000 0.000000 0.000000
# 2 -0.000690 0.006493 -0.001183 0.000000 0.000000 0.000000
# 3 -0.004048 -0.001183 0.033653 0.000000 0.000000 0.000000
# 4 0.000000 0.000000 0.000000 0.031253 0.000000 0.000000
# 5 0.000000 0.000000 0.000000 0.000000 0.040210 0.000000
# 6 0.000000 0.000000 0.000000 0.000000 0.000000 0.024960
#
#
# Mechanical properties :
#
#
# Convention : Reuss Voigt Hill
#
# Bulk Modulus (GPa) = 25.04809 37.60041 31.32425
# Shear Modulus (GPa) = 28.84567 35.96058 32.40313
#
# Velocity S-wave (km/s) = 3.59443 4.01331 3.80963
# Velocity P-wave (km/s) = 5.33343 6.19004 5.77764
#
# Compressibility (1/GPa) = 0.03992321
#
# Stress axis : x y z
#
# Youngs Moduli (GPa) = 86.06735 154.01865 29.71517
#
# Poissons Ratio (x) = 0.10624 0.12030
# Poissons Ratio (y) = 0.05937 0.03514
# Poissons Ratio (z) = 0.34843 0.18213
#
# Static dielectric constant tensor:
#      x y z
#    x 1.798650 0.000000 0.000000 
#    y 0.000000 1.858220 0.000000 
#    z 0.000000 0.000000 1.874290 
# 
# From -- ./inp_files/24790.got.cif
#   From: 2010.05.17/outbox.cif.g08.bks.cpg/sg20_13_cif.got.tgz:24790.got - 2010.06.03 22:52:26.
