data_PCOD9321295
_publ_section_title
;
Structure prediction by ZEFSAII (Michael W. Deem and Ramdas Pophale) SiO2 
 PCOD9321295
Probable space group: C 2 2 21
;
_chemical_formula_sum "Si O2"
_cell_formula_units_Z 56
_cell_length_a 11.832403
_cell_length_b 14.704677
_cell_length_c 14.768102
_cell_angle_alpha 90.000000
_cell_angle_beta 90.000000
_cell_angle_gamma 90.000000
_cell_volume 2569.526645
_symmetry_space_group_name_H-M "C 2 2 21"
_symmetry_group_IT_number 20
_symmetry_cell_setting 'orthorhombic'
loop_
_space_group_symop_operation_xyz
x,y,z
-x,-y,1/2+z
x,-y,-z
-x,y,1/2-z
1/2+x,1/2+y,z
1/2-x,1/2-y,1/2+z
1/2+x,1/2-y,-z
1/2-x,1/2+y,1/2-z
loop_
_atom_site_type_symbol
_atom_site_label
_atom_site_fract_x
_atom_site_fract_y
_atom_site_fract_z
Si Si1 0.531275 0.542230 0.850335
Si Si2 0.766045 0.223993 0.445180
Si Si3 0.999443 0.832346 0.857000
Si Si4 0.292717 0.790158 0.139571
Si Si5 0.131788 0.670232 0.271845
Si Si6 0.681035 0.580756 0.569574
Si Si7 0.771173 0.467860 0.230700
O O1 0.500000 0.577369 0.750000
O O2 0.484623 0.440291 0.865461
O O3 0.455054 0.599152 0.919998
O O4 0.665047 0.527968 0.839695
O O5 0.761447 0.180561 0.544341
O O6 0.668331 0.196608 0.373891
O O7 0.751982 0.331590 0.457313
O O8 0.883365 0.198151 0.398930
O O9 0.894468 0.774753 0.890381
O O10 0.000000 0.814990 0.750000
O O11 0.206807 0.733040 0.203631
O O12 0.335016 0.878051 0.195289
O O13 0.165971 0.563816 0.264090
O O14 0.000000 0.682801 0.250000
O O15 0.700439 0.500000 0.500000
O O16 0.723088 0.552942 0.669721
#
# Coordination Sequence:
#
# PCOD9321295 Si02
#       7
#     8   8   8   8   8   8   8
#     4   9  19  36  67  94 132 177 229 286 342 414
#     4  12  26  44  71 108 143 183 247 299 367 429
#     4  11  20  45  70  95 141 188 235 296 354 439
#     4  12  27  45  73 104 142 194 237 296 371 431
#     4  12  27  49  71 104 149 187 241 305 365 429
#     4  11  22  39  69 104 138 183 247 294 353 425
#     4  11  23  45  67  99 141 189 234 294 364 424
#
# _framework density 21.793896
#
# number of rings (size 3 to 8) (size 9 to 14) (size 15 to 20)
#    0.000    0.857    4.286    3.429    4.000    3.429 
#    0.000    0.000    0.000    0.000    0.000    0.000 
#    0.000    0.000    0.000    0.000    0.000    0.000 
#
# Total GULP energy -156482.250429 kJ/mol
# GULP energy per Si atom -5588.651801 kJ/mol
# Density = 2.174429 g / cm^3
# Si number density = 21.793896 Si / 1000 Ang^3
#
#
#
# Elastic Constant Matrix: (Units=GPa)
#
#
# Indices 1 2 3 4 5 6 
#
# 1 64.2765 18.0894 18.9388 0.0000 0.0000 0.0000
# 2 18.0894 72.8742 44.6446 0.0000 0.0000 0.0000
# 3 18.9388 44.6446 133.5788 0.0000 0.0000 0.0000
# 4 0.0000 0.0000 0.0000 30.7148 0.0000 0.0000
# 5 0.0000 0.0000 0.0000 0.0000 26.1002 0.0000
# 6 0.0000 0.0000 0.0000 0.0000 0.0000 25.9621
#
#
#
# Elastic Compliance Matrix: (Units=1/GPa)
#
#
# Indices 1 2 3 4 5 6 
#
# 1 0.016890 -0.003427 -0.001249 0.000000 0.000000 0.000000
# 2 -0.003427 0.017951 -0.005514 0.000000 0.000000 0.000000
# 3 -0.001249 -0.005514 0.009506 0.000000 0.000000 0.000000
# 4 0.000000 0.000000 0.000000 0.032558 0.000000 0.000000
# 5 0.000000 0.000000 0.000000 0.000000 0.038314 0.000000
# 6 0.000000 0.000000 0.000000 0.000000 0.000000 0.038518
#
#
# Mechanical properties :
#
#
# Convention : Reuss Voigt Hill
#
# Bulk Modulus (GPa) = 41.72409 48.23057 44.97733
# Shear Modulus (GPa) = 27.45656 29.15919 28.30787
#
# Velocity S-wave (km/s) = 3.55326 3.66177 3.60792
# Velocity P-wave (km/s) = 6.00172 6.32902 6.16754
#
# Compressibility (1/GPa) = 0.02396697
#
# Stress axis : x y z
#
# Youngs Moduli (GPa) = 59.20510 55.70778 105.19580
#
# Poissons Ratio (x) = 0.19093 0.13141
# Poissons Ratio (y) = 0.20292 0.58001
# Poissons Ratio (z) = 0.07396 0.30715
#
# Static dielectric constant tensor:
#      x y z
#    x 1.889690 0.000000 0.000000 
#    y 0.000000 1.792020 0.000000 
#    z 0.000000 0.000000 1.680480 
# 
# From -- ./inp_files/20026.got.cif
#   From: 2010.05.17/outbox.cif.g08.bks.cpg/sg20_11_cif.got.tgz:20026.got - 2010.06.03 22:52:26.
