data_PCOD9321347
_publ_section_title
;
Structure prediction by ZEFSAII (Michael W. Deem and Ramdas Pophale) SiO2 
 PCOD9321347
Probable space group: C 2 2 21
;
_chemical_formula_sum "Si O2"
_cell_formula_units_Z 52
_cell_length_a 25.105105
_cell_length_b 18.087539
_cell_length_c 6.045713
_cell_angle_alpha 90.000000
_cell_angle_beta 90.000000
_cell_angle_gamma 90.000000
_cell_volume 2745.295191
_symmetry_space_group_name_H-M "C 2 2 21"
_symmetry_group_IT_number 20
_symmetry_cell_setting 'orthorhombic'
loop_
_space_group_symop_operation_xyz
x,y,z
-x,-y,1/2+z
x,-y,-z
-x,y,1/2-z
1/2+x,1/2+y,z
1/2-x,1/2-y,1/2+z
1/2+x,1/2-y,-z
1/2-x,1/2+y,1/2-z
loop_
_atom_site_type_symbol
_atom_site_label
_atom_site_fract_x
_atom_site_fract_y
_atom_site_fract_z
Si Si1 0.141494 0.124759 0.169547
Si Si2 0.000000 0.789766 0.250000
Si Si3 0.391017 0.248360 0.379345
Si Si4 0.695348 0.159539 0.875296
Si Si5 0.264685 0.000000 0.500000
Si Si6 0.804053 0.239929 0.008380
Si Si7 0.043079 0.915997 0.566661
Si Si8 0.789176 0.000000 0.500000
O O1 0.177947 0.179918 0.309806
O O2 0.102709 0.082734 0.336772
O O3 0.174471 0.072562 0.008783
O O4 0.105549 0.176677 0.019838
O O5 0.952349 0.735471 0.325496
O O6 0.033859 0.849081 0.396790
O O7 0.360217 0.188715 0.528350
O O8 0.348945 0.261257 0.180546
O O9 0.695704 0.177620 0.613067
O O10 0.705312 0.077721 0.964501
O O11 0.745287 0.212099 0.945082
O O12 0.236781 0.004170 0.250944
O O13 0.000000 0.897204 0.750000
O O14 0.030521 0.000000 0.500000
#
# Coordination Sequence:
#
# PCOD9321347 Si02
#       8
#     8   4   8   8   4   8   8   4
#     4  11  25  38  59  89 132 176 231 270 341 393
#     4  12  24  42  62  86 128 172 242 278 348 398
#     4  11  24  41  63  92 123 176 225 290 337 408
#     4  11  24  40  65  98 132 172 218 283 345 419
#     4  12  28  46  68 101 145 176 224 278 360 428
#     4  11  21  40  65  92 129 171 219 272 340 413
#     4  12  25  38  55  86 127 181 228 286 329 401
#     4  12  28  40  64 101 139 188 216 280 330 426
#
# _framework density 18.941496000000001
#
# number of rings (size 3 to 8) (size 9 to 14) (size 15 to 20)
#    0.000    0.615    6.923    0.923    8.615    0.000 
#    0.000    0.000    0.000    0.000    4.000    0.000 
#    0.000    0.000    0.000    0.000    0.000    0.000 
#
# Total GULP energy -144737.244805 kJ/mol
# GULP energy per Si atom -5566.817108 kJ/mol
# Density = 1.889838 g / cm^3
# Si number density = 18.941496 Si / 1000 Ang^3
#
#
#
# Elastic Constant Matrix: (Units=GPa)
#
#
# Indices 1 2 3 4 5 6 
#
# 1 103.4759 15.5570 19.3532 0.0000 0.0000 0.0000
# 2 15.5570 61.8500 9.7777 0.0000 0.0000 0.0000
# 3 19.3532 9.7777 56.6002 0.0000 0.0000 0.0000
# 4 0.0000 0.0000 0.0000 21.6247 0.0000 0.0000
# 5 0.0000 0.0000 0.0000 0.0000 12.2674 0.0000
# 6 0.0000 0.0000 0.0000 0.0000 0.0000 16.4855
#
#
#
# Elastic Compliance Matrix: (Units=1/GPa)
#
#
# Indices 1 2 3 4 5 6 
#
# 1 0.010596 -0.002151 -0.003251 0.000000 0.000000 0.000000
# 2 -0.002151 0.017059 -0.002211 0.000000 0.000000 0.000000
# 3 -0.003251 -0.002211 0.019162 0.000000 0.000000 0.000000
# 4 0.000000 0.000000 0.000000 0.046243 0.000000 0.000000
# 5 0.000000 0.000000 0.000000 0.000000 0.081517 0.000000
# 6 0.000000 0.000000 0.000000 0.000000 0.000000 0.060659
#
#
# Mechanical properties :
#
#
# Convention : Reuss Voigt Hill
#
# Bulk Modulus (GPa) = 31.65729 34.58909 33.12319
# Shear Modulus (GPa) = 19.15765 21.89142 20.52454
#
# Velocity S-wave (km/s) = 3.18372 3.40330 3.29534
# Velocity P-wave (km/s) = 5.50129 5.80895 5.65722
#
# Compressibility (1/GPa) = 0.03158830
#
# Stress axis : x y z
#
# Youngs Moduli (GPa) = 94.37890 58.62080 52.18794
#
# Poissons Ratio (x) = 0.12610 0.16968
# Poissons Ratio (y) = 0.20302 0.11541
# Poissons Ratio (z) = 0.30686 0.12963
#
# Static dielectric constant tensor:
#      x y z
#    x 1.669210 0.000000 0.000000 
#    y 0.000000 1.722820 0.000000 
#    z 0.000000 0.000000 1.804300 
# 
# From -- ./inp_files/3272.got.cif
#   From: 2010.05.17/outbox.cif.g08.bks.cpg/sg20_2_cif.got.tgz:3272.got - 2010.06.03 22:52:26.
