data_PCOD9321218
_publ_section_title
;
Structure prediction by ZEFSAII (Michael W. Deem and Ramdas Pophale) SiO2 
 PCOD9321218
Probable space group: C 2 2 21
;
_chemical_formula_sum "Si O2"
_cell_formula_units_Z 52
_cell_length_a 11.384058
_cell_length_b 8.716211
_cell_length_c 24.637401
_cell_angle_alpha 90.000000
_cell_angle_beta 90.000000
_cell_angle_gamma 90.000000
_cell_volume 2444.667095
_symmetry_space_group_name_H-M "C 2 2 21"
_symmetry_group_IT_number 20
_symmetry_cell_setting 'orthorhombic'
loop_
_space_group_symop_operation_xyz
x,y,z
-x,-y,1/2+z
x,-y,-z
-x,y,1/2-z
1/2+x,1/2+y,z
1/2-x,1/2-y,1/2+z
1/2+x,1/2-y,-z
1/2-x,1/2+y,1/2-z
loop_
_atom_site_type_symbol
_atom_site_label
_atom_site_fract_x
_atom_site_fract_y
_atom_site_fract_z
Si Si1 0.892406 0.810988 0.404975
Si Si2 0.453305 0.671088 0.195614
Si Si3 0.838207 0.723803 0.080061
Si Si4 0.189776 0.934659 0.831445
Si Si5 0.372860 0.989210 0.253405
Si Si6 0.258061 0.978871 0.631243
Si Si7 0.273632 0.500000 0.500000
O O1 0.816325 0.657911 0.401986
O O2 0.026383 0.763616 0.412563
O O3 0.863697 0.902203 0.349285
O O4 0.852715 0.924539 0.453047
O O5 0.500000 0.584773 0.250000
O O6 0.577991 0.678189 0.164578
O O7 0.398562 0.830496 0.219166
O O8 0.362303 0.583546 0.158232
O O9 0.791789 0.609745 0.126673
O O10 0.805366 0.635763 0.025175
O O11 0.767929 0.879529 0.092114
O O12 0.260664 0.934319 0.775273
O O13 0.500000 0.071429 0.250000
O O14 0.336951 0.978346 0.316220
#
# Coordination Sequence:
#
# PCOD9321218 Si02
#       7
#     8   8   8   8   8   8   4
#     4  11  25  47  71 102 129 174 227 289 345 407
#     4  11  21  39  64  95 141 191 215 264 318 388
#     4  11  25  45  70 101 129 176 221 284 349 399
#     4  11  22  43  67  98 147 179 225 268 331 399
#     4  11  23  39  62 100 144 185 219 263 316 390
#     4  12  24  40  69 105 134 180 231 269 327 404
#     4  10  28  50  70  96 130 168 224 296 358 406
#
# _framework density 21.270789000000001
#
# number of rings (size 3 to 8) (size 9 to 14) (size 15 to 20)
#    0.000    0.923    4.615    2.769    0.000    3.077 
#    0.000    0.000    0.000    0.000    0.000    0.000 
#    0.000    0.000    0.000    0.000    0.000    0.000 
#
# Total GULP energy -145101.046462 kJ/mol
# GULP energy per Si atom -5580.809479 kJ/mol
# Density = 2.122238 g / cm^3
# Si number density = 21.270789 Si / 1000 Ang^3
#
#
#
# Elastic Constant Matrix: (Units=GPa)
#
#
# Indices 1 2 3 4 5 6 
#
# 1 168.2881 44.0468 31.5154 0.0000 0.0000 0.0000
# 2 44.0468 69.9559 16.4454 0.0000 0.0000 0.0000
# 3 31.5154 16.4454 59.2949 0.0000 0.0000 0.0000
# 4 0.0000 0.0000 0.0000 35.0073 0.0000 0.0000
# 5 0.0000 0.0000 0.0000 0.0000 16.4408 0.0000
# 6 0.0000 0.0000 0.0000 0.0000 0.0000 31.1697
#
#
#
# Elastic Compliance Matrix: (Units=1/GPa)
#
#
# Indices 1 2 3 4 5 6 
#
# 1 0.007549 -0.004075 -0.002882 0.000000 0.000000 0.000000
# 2 -0.004075 0.017492 -0.002685 0.000000 0.000000 0.000000
# 3 -0.002882 -0.002685 0.019141 0.000000 0.000000 0.000000
# 4 0.000000 0.000000 0.000000 0.028565 0.000000 0.000000
# 5 0.000000 0.000000 0.000000 0.000000 0.060824 0.000000
# 6 0.000000 0.000000 0.000000 0.000000 0.000000 0.032082
#
#
# Mechanical properties :
#
#
# Convention : Reuss Voigt Hill
#
# Bulk Modulus (GPa) = 40.16567 53.50603 46.83585
# Shear Modulus (GPa) = 25.87485 30.22564 28.05024
#
# Velocity S-wave (km/s) = 3.49155 3.77370 3.63536
# Velocity P-wave (km/s) = 5.93115 6.64808 6.29982
#
# Compressibility (1/GPa) = 0.02489688
#
# Stress axis : x y z
#
# Youngs Moduli (GPa) = 132.47617 57.16901 52.24311
#
# Poissons Ratio (x) = 0.23299 0.15055
# Poissons Ratio (y) = 0.53989 0.14029
# Poissons Ratio (z) = 0.38176 0.15352
#
# Static dielectric constant tensor:
#      x y z
#    x 1.791360 0.000000 0.000000 
#    y 0.000000 1.822820 0.000000 
#    z 0.000000 0.000000 1.820480 
# 
# From -- ./inp_files/30296.got.cif
#   From: 2010.05.17/outbox.cif.g08.bks.cpg/sg20_16_cif.got.tgz:30296.got - 2010.06.03 22:52:26.
