data_PCOD9321662
_publ_section_title
;
Structure prediction by ZEFSAII (Michael W. Deem and Ramdas Pophale) SiO2 
 PCOD9321662
Probable space group: C 2 2 21
;
_chemical_formula_sum "Si O2"
_cell_formula_units_Z 40
_cell_length_a 8.646482
_cell_length_b 17.505582
_cell_length_c 11.447718
_cell_angle_alpha 90.000000
_cell_angle_beta 90.000000
_cell_angle_gamma 90.000000
_cell_volume 1732.746054
_symmetry_space_group_name_H-M "C 2 2 21"
_symmetry_group_IT_number 20
_symmetry_cell_setting 'orthorhombic'
loop_
_space_group_symop_operation_xyz
x,y,z
-x,-y,1/2+z
x,-y,-z
-x,y,1/2-z
1/2+x,1/2+y,z
1/2-x,1/2-y,1/2+z
1/2+x,1/2-y,-z
1/2-x,1/2+y,1/2-z
loop_
_atom_site_type_symbol
_atom_site_label
_atom_site_fract_x
_atom_site_fract_y
_atom_site_fract_z
Si Si1 0.599660 0.790094 0.133789
Si Si2 0.460663 0.960807 0.621489
Si Si3 0.131873 0.925363 0.079011
Si Si4 0.638773 0.185881 0.445253
Si Si5 0.709839 0.560675 0.648751
O O1 0.500000 0.781942 0.250000
O O2 0.484425 0.771398 0.027274
O O3 0.657914 0.877313 0.119758
O O4 0.754870 0.739716 0.133649
O O5 0.500000 0.994501 0.750000
O O6 0.537934 0.878054 0.620328
O O7 0.516015 0.000000 0.500000
O O8 0.276222 0.976473 0.618813
O O9 0.237490 0.858839 0.026462
O O10 0.180777 0.937982 0.212717
O O11 0.947433 0.914327 0.086516
O O12 0.153973 0.000000 0.000000
#
# Coordination Sequence:
#
# PCOD9321662 Si02
#       5
#     8   8   8   8   8
#     4  12  26  49  74 104 153 204 252 311 394 464
#     4  12  24  45  78 108 144 195 251 315 381 447
#     4  11  24  44  73 112 142 189 258 317 383 454
#     4  12  26  46  74 106 151 192 255 315 379 461
#     4  11  23  46  77 102 147 200 244 317 388 459
#
# _framework density 23.084745000000002
#
# number of rings (size 3 to 8) (size 9 to 14) (size 15 to 20)
#    0.000    0.400    4.000    5.400    0.000    1.600 
#   14.400    0.000    0.000    0.000    0.000    0.000 
#    0.000    0.000    0.000    0.000    0.000    0.000 
#
# Total GULP energy -111757.656862 kJ/mol
# GULP energy per Si atom -5587.882843 kJ/mol
# Density = 2.303220 g / cm^3
# Si number density = 23.084745 Si / 1000 Ang^3
#
#
#
# Elastic Constant Matrix: (Units=GPa)
#
#
# Indices 1 2 3 4 5 6 
#
# 1 141.5175 46.4517 32.1841 0.0000 0.0000 0.0000
# 2 46.4517 85.8264 18.5222 0.0000 0.0000 0.0000
# 3 32.1841 18.5222 90.1354 0.0000 0.0000 0.0000
# 4 0.0000 0.0000 0.0000 18.1202 0.0000 0.0000
# 5 0.0000 0.0000 0.0000 0.0000 43.4421 0.0000
# 6 0.0000 0.0000 0.0000 0.0000 0.0000 58.4238
#
#
#
# Elastic Compliance Matrix: (Units=1/GPa)
#
#
# Indices 1 2 3 4 5 6 
#
# 1 0.009035 -0.004389 -0.002324 0.000000 0.000000 0.000000
# 2 -0.004389 0.014324 -0.001376 0.000000 0.000000 0.000000
# 3 -0.002324 -0.001376 0.012207 0.000000 0.000000 0.000000
# 4 0.000000 0.000000 0.000000 0.055187 0.000000 0.000000
# 5 0.000000 0.000000 0.000000 0.000000 0.023019 0.000000
# 6 0.000000 0.000000 0.000000 0.000000 0.000000 0.017116
#
#
# Mechanical properties :
#
#
# Convention : Reuss Voigt Hill
#
# Bulk Modulus (GPa) = 51.57955 56.86615 54.22285
# Shear Modulus (GPa) = 32.56689 38.68530 35.62609
#
# Velocity S-wave (km/s) = 3.76007 4.09809 3.93271
# Velocity P-wave (km/s) = 6.42207 6.86145 6.64539
#
# Compressibility (1/GPa) = 0.01938753
#
# Stress axis : x y z
#
# Youngs Moduli (GPa) = 110.67595 69.81442 81.91875
#
# Poissons Ratio (x) = 0.30639 0.19041
# Poissons Ratio (y) = 0.48571 0.11275
# Poissons Ratio (z) = 0.25725 0.09609
#
# Static dielectric constant tensor:
#      x y z
#    x 1.889720 0.000000 0.000000 
#    y 0.000000 1.867710 0.000000 
#    z 0.000000 0.000000 1.875110 
# 
# From -- ./inp_files/12729.got.cif
#   From: 2010.05.17/outbox.cif.g08.bks.cpg/sg20_7_cif.got.tgz:12729.got - 2010.06.03 22:52:26.
