data_PCOD9321984
_publ_section_title
;
Structure prediction by ZEFSAII (Michael W. Deem and Ramdas Pophale) SiO2 
 PCOD9321984
Probable space group: C 2 2 21
;
_chemical_formula_sum "Si O2"
_cell_formula_units_Z 40
_cell_length_a 4.771427
_cell_length_b 22.212317
_cell_length_c 16.035372
_cell_angle_alpha 90.000000
_cell_angle_beta 90.000000
_cell_angle_gamma 90.000000
_cell_volume 1699.500067
_symmetry_space_group_name_H-M "C 2 2 21"
_symmetry_group_IT_number 20
_symmetry_cell_setting 'orthorhombic'
loop_
_space_group_symop_operation_xyz
x,y,z
-x,-y,1/2+z
x,-y,-z
-x,y,1/2-z
1/2+x,1/2+y,z
1/2-x,1/2-y,1/2+z
1/2+x,1/2-y,-z
1/2-x,1/2+y,1/2-z
loop_
_atom_site_type_symbol
_atom_site_label
_atom_site_fract_x
_atom_site_fract_y
_atom_site_fract_z
Si Si1 0.155603 0.037915 0.161949
Si Si2 0.358657 0.911187 0.096678
Si Si3 0.126207 0.840366 0.341422
Si Si4 0.080569 0.265173 0.944423
Si Si5 0.861369 0.402472 0.580679
O O1 0.407418 0.084842 0.151679
O O2 0.000000 0.035562 0.250000
O O3 0.912998 0.058349 0.098018
O O4 0.299093 0.974360 0.140964
O O5 0.564933 0.867120 0.148505
O O6 0.058215 0.879408 0.094130
O O7 0.493669 0.920051 0.006495
O O8 0.069068 0.772297 0.371099
O O9 0.000000 0.849775 0.250000
O O10 0.190075 0.331019 0.921289
O O11 0.843224 0.270034 0.015884
#
# Coordination Sequence:
#
# PCOD9321984 Si02
#       5
#     8   8   8   8   8
#     4  12  28  48  71 109 154 194 245 310 374 434
#     4  12  25  47  73 105 148 197 250 305 363 445
#     4  12  25  43  73 112 147 191 249 309 378 431
#     4  12  23  47  75 107 151 192 245 310 369 446
#     4  12  25  47  78 106 144 201 253 296 371 454
#
# _framework density 23.536335999999999
#
# number of rings (size 3 to 8) (size 9 to 14) (size 15 to 20)
#    0.000    0.000    4.000    6.000    0.000    4.800 
#    0.000    0.000    0.000    0.000    0.000    0.000 
#    0.000    0.000    0.000    0.000    0.000    0.000 
#
# Total GULP energy -112062.471568 kJ/mol
# GULP energy per Si atom -5603.123578 kJ/mol
# Density = 2.348277 g / cm^3
# Si number density = 23.536336 Si / 1000 Ang^3
#
#
#
# Elastic Constant Matrix: (Units=GPa)
#
#
# Indices 1 2 3 4 5 6 
#
# 1 115.9885 7.7286 24.9248 0.0000 0.0000 0.0000
# 2 7.7286 92.5291 31.1830 0.0000 0.0000 0.0000
# 3 24.9248 31.1830 109.8432 0.0000 0.0000 0.0000
# 4 0.0000 0.0000 0.0000 18.4332 0.0000 0.0000
# 5 0.0000 0.0000 0.0000 0.0000 44.4508 0.0000
# 6 0.0000 0.0000 0.0000 0.0000 0.0000 42.6815
#
#
#
# Elastic Compliance Matrix: (Units=1/GPa)
#
#
# Indices 1 2 3 4 5 6 
#
# 1 0.009064 -0.000071 -0.002037 0.000000 0.000000 0.000000
# 2 -0.000071 0.011951 -0.003377 0.000000 0.000000 0.000000
# 3 -0.002037 -0.003377 0.010525 0.000000 0.000000 0.000000
# 4 0.000000 0.000000 0.000000 0.054250 0.000000 0.000000
# 5 0.000000 0.000000 0.000000 0.000000 0.022497 0.000000
# 6 0.000000 0.000000 0.000000 0.000000 0.000000 0.023429
#
#
# Mechanical properties :
#
#
# Convention : Reuss Voigt Hill
#
# Bulk Modulus (GPa) = 48.61066 49.55930 49.08498
# Shear Modulus (GPa) = 33.43553 38.08138 35.75845
#
# Velocity S-wave (km/s) = 3.77316 4.02678 3.90203
# Velocity P-wave (km/s) = 6.29926 6.53622 6.41883
#
# Compressibility (1/GPa) = 0.02057162
#
# Stress axis : x y z
#
# Youngs Moduli (GPa) = 110.32761 83.67282 95.01500
#
# Poissons Ratio (x) = 0.00592 0.19351
# Poissons Ratio (y) = 0.00780 0.32084
# Poissons Ratio (z) = 0.22470 0.28254
#
# Static dielectric constant tensor:
#      x y z
#    x 1.863550 0.000000 0.000000 
#    y 0.000000 1.905010 0.000000 
#    z 0.000000 0.000000 1.918440 
# 
# From -- ./inp_files/17638.got.cif
#   From: 2010.05.17/outbox.cif.g08.bks.cpg/sg20_9_cif.got.tgz:17638.got - 2010.06.03 22:52:26.
