data_PCOD9321555
_publ_section_title
;
Structure prediction by ZEFSAII (Michael W. Deem and Ramdas Pophale) SiO2 
 PCOD9321555
Probable space group: C 2 2 21
;
_chemical_formula_sum "Si O2"
_cell_formula_units_Z 60
_cell_length_a 5.947290
_cell_length_b 23.011677
_cell_length_c 19.460606
_cell_angle_alpha 90.000000
_cell_angle_beta 90.000000
_cell_angle_gamma 90.000000
_cell_volume 2663.322423
_symmetry_space_group_name_H-M "C 2 2 21"
_symmetry_group_IT_number 20
_symmetry_cell_setting 'orthorhombic'
loop_
_space_group_symop_operation_xyz
x,y,z
-x,-y,1/2+z
x,-y,-z
-x,y,1/2-z
1/2+x,1/2+y,z
1/2-x,1/2-y,1/2+z
1/2+x,1/2-y,-z
1/2-x,1/2+y,1/2-z
loop_
_atom_site_type_symbol
_atom_site_label
_atom_site_fract_x
_atom_site_fract_y
_atom_site_fract_z
Si Si1 0.425598 0.031887 0.065836
Si Si2 0.440236 0.195951 0.667617
Si Si3 0.118866 0.560492 0.824783
Si Si4 0.111860 0.906873 0.833619
Si Si5 0.500000 0.506730 0.750000
Si Si6 0.885348 0.704569 0.177252
Si Si7 0.224615 0.369796 0.911676
Si Si8 0.905008 0.240148 0.035393
O O1 0.237210 0.072224 0.098783
O O2 0.616861 0.078604 0.045228
O O3 0.521075 0.984688 0.119942
O O4 0.335604 0.000000 0.000000
O O5 0.500000 0.203353 0.750000
O O6 0.411201 0.127630 0.654227
O O7 0.215545 0.233876 0.656754
O O8 0.598291 0.224244 0.608281
O O9 0.377625 0.544649 0.807267
O O10 0.000000 0.555641 0.750000
O O11 0.192972 0.843882 0.811502
O O12 0.849718 0.901668 0.849194
O O13 0.167325 0.959844 0.783514
O O14 0.000000 0.711891 0.250000
O O15 0.044350 0.674177 0.121415
O O16 0.399946 0.328613 0.949108
O O17 0.657429 0.249443 0.998008
#
# Coordination Sequence:
#
# PCOD9321555 Si02
#       8
#     8   8   8   8   4   8   8   8
#     4  11  26  45  69 102 146 191 248 311 370 458
#     4  11  26  48  74 109 151 200 254 314 392 469
#     4  11  25  47  68 104 146 195 245 301 377 458
#     4  11  23  40  72 100 138 182 243 310 378 441
#     4  12  22  42  70 102 136 190 238 296 378 450
#     4  11  23  39  71 108 143 184 241 320 375 454
#     4  11  24  46  69 105 139 186 256 306 383 449
#     4  12  28  51  78 112 153 206 258 321 396 467
#
# _framework density 22.528251999999998
#
# number of rings (size 3 to 8) (size 9 to 14) (size 15 to 20)
#    0.000    0.800    4.000    2.400    7.467    0.533 
#    2.400    0.000    0.000    0.000    0.000    0.000 
#    0.000    0.000    0.000    0.000    0.000    0.000 
#
# Total GULP energy -167326.625620 kJ/mol
# GULP energy per Si atom -5577.554187 kJ/mol
# Density = 2.247698 g / cm^3
# Si number density = 22.528252 Si / 1000 Ang^3
#
#
#
# Elastic Constant Matrix: (Units=GPa)
#
#
# Indices 1 2 3 4 5 6 
#
# 1 65.0686 31.1215 25.7020 0.0000 0.0000 0.0000
# 2 31.1215 143.8042 34.4408 0.0000 0.0000 0.0000
# 3 25.7020 34.4408 86.1107 0.0000 0.0000 0.0000
# 4 0.0000 0.0000 0.0000 25.1721 0.0000 0.0000
# 5 0.0000 0.0000 0.0000 0.0000 29.4926 0.0000
# 6 0.0000 0.0000 0.0000 0.0000 0.0000 28.1960
#
#
#
# Elastic Compliance Matrix: (Units=1/GPa)
#
#
# Indices 1 2 3 4 5 6 
#
# 1 0.018499 -0.002965 -0.004336 0.000000 0.000000 0.000000
# 2 -0.002965 0.008166 -0.002381 0.000000 0.000000 0.000000
# 3 -0.004336 -0.002381 0.013859 0.000000 0.000000 0.000000
# 4 0.000000 0.000000 0.000000 0.039726 0.000000 0.000000
# 5 0.000000 0.000000 0.000000 0.000000 0.033907 0.000000
# 6 0.000000 0.000000 0.000000 0.000000 0.000000 0.035466
#
#
# Mechanical properties :
#
#
# Convention : Reuss Voigt Hill
#
# Bulk Modulus (GPa) = 47.25708 53.05690 50.15699
# Shear Modulus (GPa) = 28.40251 30.15342 29.27796
#
# Velocity S-wave (km/s) = 3.55456 3.66248 3.60892
# Velocity P-wave (km/s) = 6.15377 6.44107 6.29906
#
# Compressibility (1/GPa) = 0.02116085
#
# Stress axis : x y z
#
# Youngs Moduli (GPa) = 54.05655 122.46133 72.15355
#
# Poissons Ratio (x) = 0.36311 0.31283
# Poissons Ratio (y) = 0.16029 0.17180
# Poissons Ratio (z) = 0.23437 0.29158
#
# Static dielectric constant tensor:
#      x y z
#    x 1.949900 0.000000 0.000000 
#    y 0.000000 1.786470 0.000000 
#    z 0.000000 0.000000 1.929980 
# 
# From -- ./inp_files/26228.got.cif
#   From: 2010.05.17/outbox.cif.g08.bks.cpg/sg20_14_cif.got.tgz:26228.got - 2010.06.03 22:52:26.
