data_PCOD9321654
_publ_section_title
;
Structure prediction by ZEFSAII (Michael W. Deem and Ramdas Pophale) SiO2 
 PCOD9321654
Probable space group: C 2 2 21
;
_chemical_formula_sum "Si O2"
_cell_formula_units_Z 48
_cell_length_a 8.072408
_cell_length_b 11.525931
_cell_length_c 22.181650
_cell_angle_alpha 90.000000
_cell_angle_beta 90.000000
_cell_angle_gamma 90.000000
_cell_volume 2063.825470
_symmetry_space_group_name_H-M "C 2 2 21"
_symmetry_group_IT_number 20
_symmetry_cell_setting 'orthorhombic'
loop_
_space_group_symop_operation_xyz
x,y,z
-x,-y,1/2+z
x,-y,-z
-x,y,1/2-z
1/2+x,1/2+y,z
1/2-x,1/2-y,1/2+z
1/2+x,1/2-y,-z
1/2-x,1/2+y,1/2-z
loop_
_atom_site_type_symbol
_atom_site_label
_atom_site_fract_x
_atom_site_fract_y
_atom_site_fract_z
Si Si1 0.919768 0.050092 0.404773
Si Si2 0.433163 0.718743 0.185818
Si Si3 0.545919 0.701806 0.593098
Si Si4 0.064336 0.564669 0.597219
Si Si5 0.118014 0.262232 0.018632
Si Si6 0.568049 0.877428 0.815439
O O1 0.962548 0.141410 0.457379
O O2 0.941295 0.127244 0.344997
O O3 0.735037 0.001940 0.414588
O O4 0.031299 0.935894 0.400684
O O5 0.500000 0.757076 0.250000
O O6 0.409965 0.827594 0.142183
O O7 0.257155 0.657882 0.192092
O O8 0.708478 0.731528 0.553965
O O9 0.390890 0.748716 0.552854
O O10 0.533942 0.768349 0.656305
O O11 0.982782 0.624413 0.539196
O O12 0.949990 0.476770 0.634383
O O13 0.500000 0.911854 0.750000
#
# Coordination Sequence:
#
# PCOD9321654 Si02
#       6
#     8   8   8   8   8   8
#     4  11  23  46  69 100 139 182 230 295 361 420
#     4  11  25  43  71  99 137 185 240 287 351 421
#     4  12  25  46  72 104 142 185 237 297 364 424
#     4  11  23  47  72 100 139 184 233 295 355 421
#     4  11  26  44  73 101 141 182 236 297 362 425
#     4  12  26  46  70 101 144 187 235 289 357 429
#
# _framework density 23.25778
#
# number of rings (size 3 to 8) (size 9 to 14) (size 15 to 20)
#    0.000    0.667    3.333    4.000    4.667    1.333 
#    6.000    0.000    0.000    0.000    0.000    0.000 
#    0.000    0.000    0.000    0.000    0.000    0.000 
#
# Total GULP energy -134421.962356 kJ/mol
# GULP energy per Si atom -5600.915098 kJ/mol
# Density = 2.320484 g / cm^3
# Si number density = 23.257780 Si / 1000 Ang^3
#
#
#
# Elastic Constant Matrix: (Units=GPa)
#
#
# Indices 1 2 3 4 5 6 
#
# 1 69.4076 16.6498 -14.2125 0.0000 0.0000 0.0000
# 2 16.6498 138.1102 24.7467 0.0000 0.0000 0.0000
# 3 -14.2125 24.7467 75.9256 0.0000 0.0000 0.0000
# 4 0.0000 0.0000 0.0000 22.8980 0.0000 0.0000
# 5 0.0000 0.0000 0.0000 0.0000 31.4169 0.0000
# 6 0.0000 0.0000 0.0000 0.0000 0.0000 37.4417
#
#
#
# Elastic Compliance Matrix: (Units=1/GPa)
#
#
# Indices 1 2 3 4 5 6 
#
# 1 0.015807 -0.002587 0.003802 0.000000 0.000000 0.000000
# 2 -0.002587 0.008113 -0.003129 0.000000 0.000000 0.000000
# 3 0.003802 -0.003129 0.014902 0.000000 0.000000 0.000000
# 4 0.000000 0.000000 0.000000 0.043672 0.000000 0.000000
# 5 0.000000 0.000000 0.000000 0.000000 0.031830 0.000000
# 6 0.000000 0.000000 0.000000 0.000000 0.000000 0.026708
#
#
# Mechanical properties :
#
#
# Convention : Reuss Voigt Hill
#
# Bulk Modulus (GPa) = 28.57536 37.53458 33.05497
# Shear Modulus (GPa) = 31.94402 35.43528 33.68965
#
# Velocity S-wave (km/s) = 3.71007 3.90755 3.81009
# Velocity P-wave (km/s) = 5.53767 6.04418 5.79646
#
# Compressibility (1/GPa) = 0.03499518
#
# Stress axis : x y z
#
# Youngs Moduli (GPa) = 63.26433 123.25868 67.10429
#
# Poissons Ratio (x) = 0.31885 -0.25513
# Poissons Ratio (y) = 0.16365 0.20994
# Poissons Ratio (z) = -0.24053 0.38562
#
# Static dielectric constant tensor:
#      x y z
#    x 1.914850 0.000000 0.000000 
#    y 0.000000 1.850140 0.000000 
#    z 0.000000 0.000000 1.840140 
# 
# From -- ./inp_files/28719.got.cif
#   From: 2010.05.17/outbox.cif.g08.bks.cpg/sg20_15_cif.got.tgz:28719.got - 2010.06.03 22:52:26.
