data_PCOD9321686
_publ_section_title
;
Structure prediction by ZEFSAII (Michael W. Deem and Ramdas Pophale) SiO2 
 PCOD9321686
Probable space group: C 2 2 21
;
_chemical_formula_sum "Si O2"
_cell_formula_units_Z 40
_cell_length_a 5.150594
_cell_length_b 12.771575
_cell_length_c 26.535644
_cell_angle_alpha 90.000000
_cell_angle_beta 90.000000
_cell_angle_gamma 90.000000
_cell_volume 1745.546440
_symmetry_space_group_name_H-M "C 2 2 21"
_symmetry_group_IT_number 20
_symmetry_cell_setting 'orthorhombic'
loop_
_space_group_symop_operation_xyz
x,y,z
-x,-y,1/2+z
x,-y,-z
-x,y,1/2-z
1/2+x,1/2+y,z
1/2-x,1/2-y,1/2+z
1/2+x,1/2-y,-z
1/2-x,1/2+y,1/2-z
loop_
_atom_site_type_symbol
_atom_site_label
_atom_site_fract_x
_atom_site_fract_y
_atom_site_fract_z
Si Si1 0.063981 0.595030 0.852299
Si Si2 0.590816 0.690124 0.806392
Si Si3 0.275247 0.211941 0.557159
Si Si4 0.497695 0.401477 0.981451
Si Si5 0.360802 0.137582 0.386863
O O1 0.351720 0.627796 0.833259
O O2 0.024954 0.672388 0.900384
O O3 0.037981 0.476391 0.870623
O O4 0.846574 0.619327 0.811206
O O5 0.500000 0.711682 0.750000
O O6 0.673474 0.796660 0.835379
O O7 0.366122 0.290353 0.513993
O O8 0.199595 0.105686 0.528314
O O9 0.062936 0.285908 0.584535
O O10 0.371992 0.391121 0.926087
O O11 0.665155 0.500000 0.000000
#
# Coordination Sequence:
#
# PCOD9321686 Si02
#       5
#     8   8   8   8   8
#     4  11  25  45  71 101 136 179 225 281 345 406
#     4  11  26  47  71 100 134 174 231 292 347 407
#     4  11  24  39  63  99 141 178 223 274 329 407
#     4  12  23  38  63  98 135 182 223 266 336 403
#     4  11  25  42  68  98 136 182 224 282 338 408
#
# _framework density 22.915459999999999
#
# number of rings (size 3 to 8) (size 9 to 14) (size 15 to 20)
#    0.000    0.800    6.000    0.600    2.800    4.000 
#    0.000    0.000    0.000    0.000    0.000    0.000 
#    0.000    0.000    0.000    0.000    0.000    0.000 
#
# Total GULP energy -111444.740358 kJ/mol
# GULP energy per Si atom -5572.237018 kJ/mol
# Density = 2.286330 g / cm^3
# Si number density = 22.915460 Si / 1000 Ang^3
#
#
#
# Elastic Constant Matrix: (Units=GPa)
#
#
# Indices 1 2 3 4 5 6 
#
# 1 59.7343 8.7224 -3.5566 0.0000 0.0000 0.0000
# 2 8.7224 110.5316 42.2550 0.0000 0.0000 0.0000
# 3 -3.5566 42.2550 87.0540 0.0000 0.0000 0.0000
# 4 0.0000 0.0000 0.0000 27.7123 0.0000 0.0000
# 5 0.0000 0.0000 0.0000 0.0000 31.6029 0.0000
# 6 0.0000 0.0000 0.0000 0.0000 0.0000 19.6061
#
#
#
# Elastic Compliance Matrix: (Units=1/GPa)
#
#
# Indices 1 2 3 4 5 6 
#
# 1 0.017130 -0.001988 0.001665 0.000000 0.000000 0.000000
# 2 -0.001988 0.011339 -0.005585 0.000000 0.000000 0.000000
# 3 0.001665 -0.005585 0.014266 0.000000 0.000000 0.000000
# 4 0.000000 0.000000 0.000000 0.036085 0.000000 0.000000
# 5 0.000000 0.000000 0.000000 0.000000 0.031643 0.000000
# 6 0.000000 0.000000 0.000000 0.000000 0.000000 0.051005
#
#
# Mechanical properties :
#
#
# Convention : Reuss Voigt Hill
#
# Bulk Modulus (GPa) = 32.34299 39.12906 35.73602
# Shear Modulus (GPa) = 27.23443 29.77754 28.50599
#
# Velocity S-wave (km/s) = 3.45117 3.60870 3.53081
# Velocity P-wave (km/s) = 5.47954 5.87164 5.67897
#
# Compressibility (1/GPa) = 0.03091860
#
# Stress axis : x y z
#
# Youngs Moduli (GPa) = 58.37625 88.18938 70.09618
#
# Poissons Ratio (x) = 0.17535 -0.11671
# Poissons Ratio (y) = 0.11607 0.39150
# Poissons Ratio (z) = -0.09719 0.49255
#
# Static dielectric constant tensor:
#      x y z
#    x 2.029680 0.000000 0.000000 
#    y 0.000000 1.809600 0.000000 
#    z 0.000000 0.000000 1.895510 
# 
# From -- ./inp_files/29683.got.cif
#   From: 2010.05.17/outbox.cif.g08.bks.cpg/sg20_15_cif.got.tgz:29683.got - 2010.06.03 22:52:26.
