data_PCOD9321932
_publ_section_title
;
Structure prediction by ZEFSAII (Michael W. Deem and Ramdas Pophale) SiO2 
 PCOD9321932
Probable space group: C 2 2 21
;
_chemical_formula_sum "Si O2"
_cell_formula_units_Z 36
_cell_length_a 4.868849
_cell_length_b 24.715627
_cell_length_c 11.676923
_cell_angle_alpha 90.000000
_cell_angle_beta 90.000000
_cell_angle_gamma 90.000000
_cell_volume 1405.161864
_symmetry_space_group_name_H-M "C 2 2 21"
_symmetry_group_IT_number 20
_symmetry_cell_setting 'orthorhombic'
loop_
_space_group_symop_operation_xyz
x,y,z
-x,-y,1/2+z
x,-y,-z
-x,y,1/2-z
1/2+x,1/2+y,z
1/2-x,1/2-y,1/2+z
1/2+x,1/2-y,-z
1/2-x,1/2+y,1/2-z
loop_
_atom_site_type_symbol
_atom_site_label
_atom_site_fract_x
_atom_site_fract_y
_atom_site_fract_z
Si Si1 0.821594 0.882453 0.455452
Si Si2 0.500000 0.254161 0.250000
Si Si3 0.000000 0.510486 0.250000
Si Si4 0.688197 0.837134 0.919868
Si Si5 0.500000 0.829530 0.250000
Si Si6 0.133791 0.500000 0.500000
Si Si7 0.000000 0.084106 0.250000
O O1 0.610180 0.857904 0.547159
O O2 0.672729 0.867510 0.336345
O O3 0.104642 0.850198 0.475037
O O4 0.822692 0.946283 0.479752
O O5 0.371119 0.218946 0.354827
O O6 0.238803 0.288590 0.208140
O O7 0.941895 0.491287 0.383240
O O8 0.264455 0.543703 0.287184
O O9 0.831954 0.876336 0.830436
#
# Coordination Sequence:
#
# PCOD9321932 Si02
#       7
#     8   4   4   8   4   4   4
#     4  12  27  47  81 113 167 208 277 332 424 501
#     4  12  27  50  82 112 161 209 282 347 442 488
#     4  12  26  42  80 107 166 207 276 328 410 490
#     4  12  24  47  79 112 145 213 274 345 389 508
#     4  12  28  52  73 122 167 212 260 362 434 514
#     4  12  26  52  76 128 158 232 264 346 412 514
#     4  12  21  46  69 111 142 198 264 343 374 472
#
# _framework density 25.619824999999999
#
# number of rings (size 3 to 8) (size 9 to 14) (size 15 to 20)
#    0.000    0.000    4.444    6.000    0.000    7.111 
#    0.000    4.444    0.000    0.000    0.000    0.000 
#    0.000    0.000    0.000    0.000    0.000    0.000 
#
# Total GULP energy -100275.370816 kJ/mol
# GULP energy per Si atom -5570.853934 kJ/mol
# Density = 2.556151 g / cm^3
# Si number density = 25.619825 Si / 1000 Ang^3
#
#
#
# Elastic Constant Matrix: (Units=GPa)
#
#
# Indices 1 2 3 4 5 6 
#
# 1 126.0803 66.3396 -6.5454 0.0000 0.0000 0.0000
# 2 66.3396 151.5940 56.5612 0.0000 0.0000 0.0000
# 3 -6.5454 56.5612 100.9898 0.0000 0.0000 0.0000
# 4 0.0000 0.0000 0.0000 -27.9616 0.0000 0.0000
# 5 0.0000 0.0000 0.0000 0.0000 49.4105 0.0000
# 6 0.0000 0.0000 0.0000 0.0000 0.0000 46.6066
#
#
#
# Elastic Compliance Matrix: (Units=1/GPa)
#
#
# Indices 1 2 3 4 5 6 
#
# 1 0.011794 -0.006885 0.004621 0.000000 0.000000 0.000000
# 2 -0.006885 0.012359 -0.007368 0.000000 0.000000 0.000000
# 3 0.004621 -0.007368 0.014328 0.000000 0.000000 0.000000
# 4 0.000000 0.000000 0.000000 -0.035763 0.000000 0.000000
# 5 0.000000 0.000000 0.000000 0.000000 0.020239 0.000000
# 6 0.000000 0.000000 0.000000 0.000000 0.000000 0.021456
#
#
# Mechanical properties :
#
#
# Convention : Reuss Voigt Hill
#
# Bulk Modulus (GPa) = 52.04088 67.93054 59.98571
# Shear Modulus (GPa) = 71.34412 31.09836 51.22124
#
# Velocity S-wave (km/s) = 5.28277 3.48780 4.47618
# Velocity P-wave (km/s) = 7.58730 6.54156 7.08375
#
# Compressibility (1/GPa) = 0.01921566
#
# Stress axis : x y z
#
# Youngs Moduli (GPa) = 84.78775 80.91446 69.79319
#
# Poissons Ratio (x) = 0.55712 -0.32249
# Poissons Ratio (y) = 0.58379 0.51424
# Poissons Ratio (z) = -0.39177 0.59618
#
# Static dielectric constant tensor:
#      x y z
#    x 2.079680 0.000000 0.000000 
#    y 0.000000 2.040270 0.000000 
#    z 0.000000 0.000000 2.693880 
# 
# From -- ./inp_files/12107.got.cif
#   From: 2010.05.17/outbox.cif.g08.bks.cpg/sg20_7_cif.got.tgz:12107.got - 2010.06.03 22:52:26.
