data_PCOD9321180
_publ_section_title
;
Structure prediction by ZEFSAII (Michael W. Deem and Ramdas Pophale) SiO2 
 PCOD9321180
Probable space group: C 2 2 21
;
_chemical_formula_sum "Si O2"
_cell_formula_units_Z 40
_cell_length_a 25.656012
_cell_length_b 11.432187
_cell_length_c 5.244912
_cell_angle_alpha 90.000000
_cell_angle_beta 90.000000
_cell_angle_gamma 90.000000
_cell_volume 1538.355384
_symmetry_space_group_name_H-M "C 2 2 21"
_symmetry_group_IT_number 20
_symmetry_cell_setting 'orthorhombic'
loop_
_space_group_symop_operation_xyz
x,y,z
-x,-y,1/2+z
x,-y,-z
-x,y,1/2-z
1/2+x,1/2+y,z
1/2-x,1/2-y,1/2+z
1/2+x,1/2-y,-z
1/2-x,1/2+y,1/2-z
loop_
_atom_site_type_symbol
_atom_site_label
_atom_site_fract_x
_atom_site_fract_y
_atom_site_fract_z
Si Si1 0.859803 0.100618 0.158611
Si Si2 0.718954 0.222629 0.803449
Si Si3 0.000000 0.577477 0.750000
Si Si4 0.591181 0.822056 0.583220
Si Si5 0.500000 0.701320 0.750000
Si Si6 0.173408 0.500000 0.500000
Si Si7 0.950194 0.000000 0.500000
O O1 0.826274 0.179808 0.351727
O O2 0.908971 0.035136 0.281653
O O3 0.879199 0.203073 0.975572
O O4 0.830383 0.000000 0.000000
O O5 0.751132 0.282479 0.570571
O O6 0.701966 0.095976 0.682111
O O7 0.988007 0.500000 0.500000
O O8 0.052626 0.643318 0.652446
O O9 0.548823 0.784184 0.783863
O O10 0.632855 0.918739 0.656290
O O11 0.489049 0.608387 0.530913
#
# Coordination Sequence:
#
# PCOD9321180 Si02
#       7
#     8   8   4   8   4   4   4
#     4  11  25  46  73 107 147 188 253 315 387 447
#     4  11  29  52  81 111 144 191 246 319 396 469
#     4  12  25  45  72 102 150 209 257 300 358 444
#     4  11  23  46  67 108 149 201 249 306 367 440
#     4  12  23  41  76 106 160 209 263 302 372 442
#     4  10  26  49  74 110 146 192 246 313 374 460
#     4  12  24  43  72 112 156 206 260 319 364 452
#
# _framework density 26.001795999999999
#
# number of rings (size 3 to 8) (size 9 to 14) (size 15 to 20)
#    0.000    0.800    3.000    3.000    5.600    0.000 
#    7.200    0.000    0.000    0.000    0.000    0.000 
#    0.000    0.000    0.000    0.000    0.000    0.000 
#
# Total GULP energy -111602.798039 kJ/mol
# GULP energy per Si atom -5580.139902 kJ/mol
# Density = 2.594261 g / cm^3
# Si number density = 26.001796 Si / 1000 Ang^3
#
#
#
# Elastic Constant Matrix: (Units=GPa)
#
#
# Indices 1 2 3 4 5 6 
#
# 1 68.5458 25.9914 6.7819 0.0000 0.0000 0.0000
# 2 25.9914 159.1723 24.4958 0.0000 0.0000 0.0000
# 3 6.7819 24.4958 81.7656 0.0000 0.0000 0.0000
# 4 0.0000 0.0000 0.0000 28.7670 0.0000 0.0000
# 5 0.0000 0.0000 0.0000 0.0000 35.0079 0.0000
# 6 0.0000 0.0000 0.0000 0.0000 0.0000 -24.3192
#
#
#
# Elastic Compliance Matrix: (Units=1/GPa)
#
#
# Indices 1 2 3 4 5 6 
#
# 1 0.015576 -0.002458 -0.000556 0.000000 0.000000 0.000000
# 2 -0.002458 0.006974 -0.001885 0.000000 0.000000 0.000000
# 3 -0.000556 -0.001885 0.012841 0.000000 0.000000 0.000000
# 4 0.000000 0.000000 0.000000 0.034762 0.000000 0.000000
# 5 0.000000 0.000000 0.000000 0.000000 0.028565 0.000000
# 6 0.000000 0.000000 0.000000 0.000000 0.000000 -0.041120
#
#
# Mechanical properties :
#
#
# Convention : Reuss Voigt Hill
#
# Bulk Modulus (GPa) = 39.07318 47.11354 43.09336
# Shear Modulus (GPa) = 65.85291 24.70545 45.27918
#
# Velocity S-wave (km/s) = 5.03798 3.08578 4.17752
# Velocity P-wave (km/s) = 6.99296 5.55471 6.31491
#
# Compressibility (1/GPa) = 0.02559300
#
# Stress axis : x y z
#
# Youngs Moduli (GPa) = 64.20244 143.38949 77.87547
#
# Poissons Ratio (x) = 0.35243 0.04326
# Poissons Ratio (y) = 0.15780 0.14683
# Poissons Ratio (z) = 0.03567 0.27035
#
# Static dielectric constant tensor:
#      x y z
#    x 2.362070 0.000000 0.000000 
#    y 0.000000 2.040200 0.000000 
#    z 0.000000 0.000000 2.249900 
# 
# From -- ./inp_files/4591.got.cif
#   From: 2010.05.17/outbox.cif.g08.bks.cpg/sg20_3_cif.got.tgz:4591.got - 2010.06.03 22:52:26.
