data_PCOD9321778
_publ_section_title
;
Structure prediction by ZEFSAII (Michael W. Deem and Ramdas Pophale) SiO2 
 PCOD9321778
Probable space group: C 2 2 21
;
_chemical_formula_sum "Si O2"
_cell_formula_units_Z 36
_cell_length_a 13.664886
_cell_length_b 5.543589
_cell_length_c 18.930124
_cell_angle_alpha 90.000000
_cell_angle_beta 90.000000
_cell_angle_gamma 90.000000
_cell_volume 1434.004440
_symmetry_space_group_name_H-M "C 2 2 21"
_symmetry_group_IT_number 20
_symmetry_cell_setting 'orthorhombic'
loop_
_space_group_symop_operation_xyz
x,y,z
-x,-y,1/2+z
x,-y,-z
-x,y,1/2-z
1/2+x,1/2+y,z
1/2-x,1/2-y,1/2+z
1/2+x,1/2-y,-z
1/2-x,1/2+y,1/2-z
loop_
_atom_site_type_symbol
_atom_site_label
_atom_site_fract_x
_atom_site_fract_y
_atom_site_fract_z
Si Si1 0.946444 0.500000 0.000000
Si Si2 0.789779 0.543215 0.720497
Si Si3 0.000000 0.698546 0.750000
Si Si4 0.514840 0.601087 0.402629
Si Si5 0.857248 0.000000 0.500000
Si Si6 0.205242 0.825980 0.429816
O O1 0.009659 0.331938 0.049876
O O2 0.876275 0.618756 0.059496
O O3 0.749381 0.272661 0.733009
O O4 0.904760 0.539797 0.735952
O O5 0.762207 0.636357 0.642725
O O6 0.986325 0.860223 0.819897
O O7 0.426997 0.437067 0.432512
O O8 0.625599 0.544021 0.428523
O O9 0.785987 0.772006 0.515428
#
# Coordination Sequence:
#
# PCOD9321778 Si02
#       6
#     4   8   4   8   4   8
#     4  11  24  46  77 108 158 205 260 350 395 488
#     4  12  27  50  78 117 164 215 272 338 414 492
#     4  12  26  50  82 116 164 220 272 342 422 502
#     4  12  24  52  77 116 158 207 279 333 415 502
#     4  11  24  48  77 112 144 217 258 322 411 480
#     4  11  24  46  75 112 160 208 268 335 398 491
#
# _framework density 25.104524000000001
#
# number of rings (size 3 to 8) (size 9 to 14) (size 15 to 20)
#    0.000    0.444    6.667    1.333    0.000    0.889 
#   16.000    0.000    0.000    0.000    0.000    0.000 
#    0.000    0.000    0.000    0.000    0.000    0.000 
#
# Total GULP energy -100377.762218 kJ/mol
# GULP energy per Si atom -5576.542345 kJ/mol
# Density = 2.504739 g / cm^3
# Si number density = 25.104524 Si / 1000 Ang^3
#
#
#
# Elastic Constant Matrix: (Units=GPa)
#
#
# Indices 1 2 3 4 5 6 
#
# 1 183.8180 24.6557 27.0496 0.0000 0.0000 0.0000
# 2 24.6557 66.5154 15.4161 0.0000 0.0000 0.0000
# 3 27.0496 15.4161 140.9378 0.0000 0.0000 0.0000
# 4 0.0000 0.0000 0.0000 15.9866 0.0000 0.0000
# 5 0.0000 0.0000 0.0000 0.0000 38.5389 0.0000
# 6 0.0000 0.0000 0.0000 0.0000 0.0000 -17.8479
#
#
#
# Elastic Compliance Matrix: (Units=1/GPa)
#
#
# Indices 1 2 3 4 5 6 
#
# 1 0.005835 -0.001953 -0.000906 0.000000 0.000000 0.000000
# 2 -0.001953 0.016079 -0.001384 0.000000 0.000000 0.000000
# 3 -0.000906 -0.001384 0.007421 0.000000 0.000000 0.000000
# 4 0.000000 0.000000 0.000000 0.062553 0.000000 0.000000
# 5 0.000000 0.000000 0.000000 0.000000 0.025948 0.000000
# 6 0.000000 0.000000 0.000000 0.000000 0.000000 -0.056029
#
#
# Mechanical properties :
#
#
# Convention : Reuss Voigt Hill
#
# Bulk Modulus (GPa) = 47.96532 58.39044 53.17788
# Shear Modulus (GPa) = 64.73147 28.94552 46.83849
#
# Velocity S-wave (km/s) = 5.08338 3.39927 4.32411
# Velocity P-wave (km/s) = 7.32134 6.22223 6.79405
#
# Compressibility (1/GPa) = 0.02084839
#
# Stress axis : x y z
#
# Youngs Moduli (GPa) = 171.36493 62.19375 134.75900
#
# Poissons Ratio (x) = 0.12147 0.12214
# Poissons Ratio (y) = 0.33468 0.18649
# Poissons Ratio (z) = 0.15532 0.08607
#
# Static dielectric constant tensor:
#      x y z
#    x 1.991020 0.000000 0.000000 
#    y 0.000000 2.148900 0.000000 
#    z 0.000000 0.000000 2.083590 
# 
# From -- ./inp_files/27402.got.cif
#   From: 2010.05.17/outbox.cif.g08.bks.cpg/sg20_14_cif.got.tgz:27402.got - 2010.06.03 22:52:26.
