data_PCOD9321877
_publ_section_title
;
Structure prediction by ZEFSAII (Michael W. Deem and Ramdas Pophale) SiO2 
 PCOD9321877
Probable space group: C 2 2 21
;
_chemical_formula_sum "Si O2"
_cell_formula_units_Z 40
_cell_length_a 13.845375
_cell_length_b 5.200501
_cell_length_c 22.513681
_cell_angle_alpha 90.000000
_cell_angle_beta 90.000000
_cell_angle_gamma 90.000000
_cell_volume 1621.050018
_symmetry_space_group_name_H-M "C 2 2 21"
_symmetry_group_IT_number 20
_symmetry_cell_setting 'orthorhombic'
loop_
_space_group_symop_operation_xyz
x,y,z
-x,-y,1/2+z
x,-y,-z
-x,y,1/2-z
1/2+x,1/2+y,z
1/2-x,1/2-y,1/2+z
1/2+x,1/2-y,-z
1/2-x,1/2+y,1/2-z
loop_
_atom_site_type_symbol
_atom_site_label
_atom_site_fract_x
_atom_site_fract_y
_atom_site_fract_z
Si Si1 0.932609 0.751493 0.462554
Si Si2 0.661151 0.312187 0.329682
Si Si3 0.938816 0.315725 0.673222
Si Si4 0.649063 0.317004 0.764434
Si Si5 0.166551 0.755427 0.463352
O O1 0.910579 0.500000 0.500000
O O2 0.901133 0.714622 0.394409
O O3 0.049604 0.770710 0.459146
O O4 0.900273 0.000000 0.500000
O O5 0.555280 0.187075 0.327797
O O6 0.649456 0.606605 0.305520
O O7 0.740618 0.188808 0.286703
O O8 0.700925 0.277867 0.395903
O O9 0.901460 0.568728 0.706885
O O10 0.904323 0.062061 0.707132
O O11 0.188840 0.500000 0.500000
O O12 0.199660 0.000000 0.500000
#
# Coordination Sequence:
#
# PCOD9321877 Si02
#       5
#     8   8   8   8   8
#     4   9  17  36  65  95 131 176 224 282 346 406
#     4  11  27  48  72 101 146 184 230 299 346 415
#     4  11  26  46  70 102 140 184 235 287 349 419
#     4  12  27  45  70 105 139 185 237 280 354 426
#     4   9  20  39  67  97 128 177 230 280 350 412
#
# _framework density 24.675362
#
# number of rings (size 3 to 8) (size 9 to 14) (size 15 to 20)
#    0.000    1.600    0.000    3.000    0.000   17.600 
#    0.000    6.000    0.000    0.000    0.000    0.000 
#    0.000    0.000    0.000    0.000    0.000    0.000 
#
# Total GULP energy -112049.534132 kJ/mol
# GULP energy per Si atom -5602.476707 kJ/mol
# Density = 2.461920 g / cm^3
# Si number density = 24.675362 Si / 1000 Ang^3
#
#
#
# Elastic Constant Matrix: (Units=GPa)
#
#
# Indices 1 2 3 4 5 6 
#
# 1 86.2861 -17.3057 13.1189 0.0000 0.0000 0.0000
# 2 -17.3057 176.0334 96.0974 0.0000 0.0000 0.0000
# 3 13.1189 96.0974 217.9867 0.0000 0.0000 0.0000
# 4 0.0000 0.0000 0.0000 31.6142 0.0000 0.0000
# 5 0.0000 0.0000 0.0000 0.0000 17.3682 0.0000
# 6 0.0000 0.0000 0.0000 0.0000 0.0000 -471.6727
#
#
#
# Elastic Compliance Matrix: (Units=1/GPa)
#
#
# Indices 1 2 3 4 5 6 
#
# 1 0.012269 0.002119 -0.001673 0.000000 0.000000 0.000000
# 2 0.002119 0.007847 -0.003587 0.000000 0.000000 0.000000
# 3 -0.001673 -0.003587 0.006269 0.000000 0.000000 0.000000
# 4 0.000000 0.000000 0.000000 0.031631 0.000000 0.000000
# 5 0.000000 0.000000 0.000000 0.000000 0.057577 0.000000
# 6 0.000000 0.000000 0.000000 0.000000 0.000000 -0.002120
#
#
# Mechanical properties :
#
#
# Convention : Reuss Voigt Hill
#
# Bulk Modulus (GPa) = 49.73975 73.79193 61.76584
# Shear Modulus (GPa) = 39.53970 -58.64502 -9.55266
#
# Velocity S-wave (km/s) = 4.00734 -4.88039 -1.96971
# Velocity P-wave (km/s) = 6.45082 1.33701 4.46237
#
# Compressibility (1/GPa) = 0.02010465
#
# Stress axis : x y z
#
# Youngs Moduli (GPa) = 81.50833 127.43435 159.50628
#
# Poissons Ratio (x) = -0.27006 0.26679
# Poissons Ratio (y) = -0.17273 0.57213
# Poissons Ratio (z) = 0.13633 0.45709
#
# Static dielectric constant tensor:
#      x y z
#    x 1.992620 0.000000 0.000000 
#    y 0.000000 2.002000 0.000000 
#    z 0.000000 0.000000 2.225860 
# 
# From -- ./inp_files/27694.got.cif
#   From: 2010.05.17/outbox.cif.g08.bks.cpg/sg20_14_cif.got.tgz:27694.got - 2010.06.03 22:52:26.
