data_PCOD9321483
_publ_section_title
;
Structure prediction by ZEFSAII (Michael W. Deem and Ramdas Pophale) SiO2 
 PCOD9321483
Probable space group: C 2 2 21
;
_chemical_formula_sum "Si O2"
_cell_formula_units_Z 60
_cell_length_a 17.200218
_cell_length_b 20.596021
_cell_length_c 8.199211
_cell_angle_alpha 90.000000
_cell_angle_beta 90.000000
_cell_angle_gamma 90.000000
_cell_volume 2904.620111
_symmetry_space_group_name_H-M "C 2 2 21"
_symmetry_group_IT_number 20
_symmetry_cell_setting 'orthorhombic'
loop_
_space_group_symop_operation_xyz
x,y,z
-x,-y,1/2+z
x,-y,-z
-x,y,1/2-z
1/2+x,1/2+y,z
1/2-x,1/2-y,1/2+z
1/2+x,1/2-y,-z
1/2-x,1/2+y,1/2-z
loop_
_atom_site_type_symbol
_atom_site_label
_atom_site_fract_x
_atom_site_fract_y
_atom_site_fract_z
Si Si1 0.921628 0.379053 0.153547
Si Si2 0.157382 0.727095 0.870303
Si Si3 0.669516 0.000000 0.500000
Si Si4 0.429029 0.224106 0.130961
Si Si5 0.762979 0.961791 0.826110
Si Si6 0.479909 0.312223 0.562965
Si Si7 0.075515 0.045716 0.150189
Si Si8 0.729240 0.812270 0.817165
O O1 0.867320 0.339260 0.281205
O O2 0.000000 0.398754 0.250000
O O3 0.882791 0.438176 0.054154
O O4 0.938284 0.323603 0.021800
O O5 0.087903 0.760701 0.969970
O O6 0.192139 0.782088 0.753778
O O7 0.222680 0.713101 0.000932
O O8 0.721105 0.990847 0.664200
O O9 0.500000 0.207819 0.250000
O O10 0.345352 0.211547 0.211992
O O11 0.449482 0.295860 0.058562
O O12 0.853213 0.953150 0.776137
O O13 0.728780 0.889424 0.831727
O O14 0.753812 0.000000 0.000000
O O15 0.500000 0.297073 0.750000
O O16 0.447055 0.384689 0.571236
O O17 0.000000 0.023146 0.250000
O O18 0.095412 0.000000 0.000000
#
# Coordination Sequence:
#
# PCOD9321483 Si02
#       8
#     8   8   4   8   8   8   8   8
#     4  12  24  47  72 102 141 189 245 299 371 440
#     4  12  23  43  69 104 137 184 234 302 362 433
#     4  12  28  48  74 104 152 202 244 310 376 450
#     4  12  22  41  69 104 141 180 235 300 357 437
#     4  12  26  49  74 107 151 199 251 308 369 454
#     4  11  22  42  70  95 137 183 226 294 362 409
#     4  11  25  46  71 103 147 194 247 304 369 449
#     4  12  26  42  71 107 145 184 242 297 374 441
#
# _framework density 20.656745999999998
#
# number of rings (size 3 to 8) (size 9 to 14) (size 15 to 20)
#    0.000    0.267    7.333    2.000    0.000    1.067 
#    6.000    0.000    0.000    0.000    0.000    0.000 
#    0.000    0.000    0.000    0.000    0.000    0.000 
#
# Total GULP energy -167424.508345 kJ/mol
# GULP energy per Si atom -5580.816945 kJ/mol
# Density = 2.060973 g / cm^3
# Si number density = 20.656746 Si / 1000 Ang^3
#
#
#
# Elastic Constant Matrix: (Units=GPa)
#
#
# Indices 1 2 3 4 5 6 
#
# 1 92.3053 22.8015 39.5621 0.0000 0.0000 0.0000
# 2 22.8015 73.7942 41.0848 0.0000 0.0000 0.0000
# 3 39.5621 41.0848 110.5943 0.0000 0.0000 0.0000
# 4 0.0000 0.0000 0.0000 21.2024 0.0000 0.0000
# 5 0.0000 0.0000 0.0000 0.0000 37.7242 0.0000
# 6 0.0000 0.0000 0.0000 0.0000 0.0000 28.4379
#
#
#
# Elastic Compliance Matrix: (Units=1/GPa)
#
#
# Indices 1 2 3 4 5 6 
#
# 1 0.012982 -0.001798 -0.003976 0.000000 0.000000 0.000000
# 2 -0.001798 0.017334 -0.005796 0.000000 0.000000 0.000000
# 3 -0.003976 -0.005796 0.012618 0.000000 0.000000 0.000000
# 4 0.000000 0.000000 0.000000 0.047164 0.000000 0.000000
# 5 0.000000 0.000000 0.000000 0.000000 0.026508 0.000000
# 6 0.000000 0.000000 0.000000 0.000000 0.000000 0.035164
#
#
# Mechanical properties :
#
#
# Convention : Reuss Voigt Hill
#
# Bulk Modulus (GPa) = 50.52217 53.73229 52.12723
# Shear Modulus (GPa) = 27.54703 29.02260 28.28482
#
# Velocity S-wave (km/s) = 3.65576 3.75239 3.70439
# Velocity P-wave (km/s) = 6.50619 6.69644 6.60200
#
# Compressibility (1/GPa) = 0.01979329
#
# Stress axis : x y z
#
# Youngs Moduli (GPa) = 77.03085 57.69107 79.25385
#
# Poissons Ratio (x) = 0.10370 0.31512
# Poissons Ratio (y) = 0.13847 0.45938
# Poissons Ratio (z) = 0.30628 0.33440
#
# Static dielectric constant tensor:
#      x y z
#    x 1.776390 0.000000 0.000000 
#    y 0.000000 1.768830 0.000000 
#    z 0.000000 0.000000 1.777500 
# 
# From -- ./inp_files/9605.got.cif
#   From: 2010.05.17/outbox.cif.g08.bks.cpg/sg20_5_cif.got.tgz:9605.got - 2010.06.03 22:52:26.
