data_PCOD9321097
_publ_section_title
;
Structure prediction by ZEFSAII (Michael W. Deem and Ramdas Pophale) SiO2 
 PCOD9321097
Probable space group: C 2 2 21
;
_chemical_formula_sum "Si O2"
_cell_formula_units_Z 40
_cell_length_a 24.606782
_cell_length_b 14.316489
_cell_length_c 5.296226
_cell_angle_alpha 90.000000
_cell_angle_beta 90.000000
_cell_angle_gamma 90.000000
_cell_volume 1865.768921
_symmetry_space_group_name_H-M "C 2 2 21"
_symmetry_group_IT_number 20
_symmetry_cell_setting 'orthorhombic'
loop_
_space_group_symop_operation_xyz
x,y,z
-x,-y,1/2+z
x,-y,-z
-x,y,1/2-z
1/2+x,1/2+y,z
1/2-x,1/2-y,1/2+z
1/2+x,1/2-y,-z
1/2-x,1/2+y,1/2-z
loop_
_atom_site_type_symbol
_atom_site_label
_atom_site_fract_x
_atom_site_fract_y
_atom_site_fract_z
Si Si1 0.955205 0.600867 0.073047
Si Si2 0.280522 0.778100 0.948170
Si Si3 0.342446 0.093514 0.356498
Si Si4 0.886687 0.738424 0.761126
Si Si5 0.434472 0.442827 0.746279
O O1 0.899584 0.576921 0.218339
O O2 0.934516 0.669182 0.854761
O O3 0.000000 0.648605 0.250000
O O4 0.978773 0.500000 0.000000
O O5 0.253788 0.726446 0.706943
O O6 0.294934 0.879762 0.837204
O O7 0.355780 0.819338 0.457879
O O8 0.340925 0.255362 0.975765
O O9 0.327862 0.000000 0.500000
O O10 0.910825 0.839356 0.711708
O O11 0.417928 0.500000 0.500000
O O12 0.500000 0.435464 0.750000
O O13 0.418526 0.500000 0.000000
#
# Coordination Sequence:
#
# PCOD9321097 Si02
#       5
#     8   8   8   8   8
#     4  11  24  36  61 106 155 192 229 272 335 435
#     4  11  24  46  73  97 136 181 236 290 351 416
#     4  11  23  43  71 103 143 185 227 284 356 426
#     4  11  25  43  74  98 142 184 235 292 351 420
#     4  10  25  45  70 100 138 184 238 290 345 406
#
# _framework density 21.438884000000002
#
# number of rings (size 3 to 8) (size 9 to 14) (size 15 to 20)
#    0.000    1.200    4.000    0.600    8.400    0.800 
#    0.000    1.000    8.800    0.000    0.000    0.000 
#    0.000    0.000    0.000    0.000    0.000    0.000 
#
# Total GULP energy -111657.120175 kJ/mol
# GULP energy per Si atom -5582.856009 kJ/mol
# Density = 2.139009 g / cm^3
# Si number density = 21.438884 Si / 1000 Ang^3
#
#
#
# Elastic Constant Matrix: (Units=GPa)
#
#
# Indices 1 2 3 4 5 6 
#
# 1 42.0297 14.4418 29.4548 0.0000 0.0000 0.0000
# 2 14.4418 141.7004 56.9128 0.0000 0.0000 0.0000
# 3 29.4548 56.9128 137.9343 0.0000 0.0000 0.0000
# 4 0.0000 0.0000 0.0000 37.4584 0.0000 0.0000
# 5 0.0000 0.0000 0.0000 0.0000 47.3566 0.0000
# 6 0.0000 0.0000 0.0000 0.0000 0.0000 83.0689
#
#
#
# Elastic Compliance Matrix: (Units=1/GPa)
#
#
# Indices 1 2 3 4 5 6 
#
# 1 0.028015 -0.000542 -0.005759 0.000000 0.000000 0.000000
# 2 -0.000542 0.008469 -0.003379 0.000000 0.000000 0.000000
# 3 -0.005759 -0.003379 0.009874 0.000000 0.000000 0.000000
# 4 0.000000 0.000000 0.000000 0.026696 0.000000 0.000000
# 5 0.000000 0.000000 0.000000 0.000000 0.021116 0.000000
# 6 0.000000 0.000000 0.000000 0.000000 0.000000 0.012038
#
#
# Mechanical properties :
#
#
# Convention : Reuss Voigt Hill
#
# Bulk Modulus (GPa) = 37.03908 58.14258 47.59083
# Shear Modulus (GPa) = 37.15610 48.30045 42.72827
#
# Velocity S-wave (km/s) = 4.16759 4.75166 4.46918
# Velocity P-wave (km/s) = 6.36180 7.56858 6.99128
#
# Compressibility (1/GPa) = 0.02699851
#
# Stress axis : x y z
#
# Youngs Moduli (GPa) = 35.69556 118.07112 101.27987
#
# Poissons Ratio (x) = 0.06403 0.58323
# Poissons Ratio (y) = 0.01936 0.34220
# Poissons Ratio (z) = 0.20555 0.39893
#
# Static dielectric constant tensor:
#      x y z
#    x 1.762440 0.000000 0.000000 
#    y 0.000000 1.906310 0.000000 
#    z 0.000000 0.000000 1.647210 
# 
# From -- ./inp_files/3645.got.cif
#   From: 2010.05.17/outbox.cif.g08.bks.cpg/sg20_2_cif.got.tgz:3645.got - 2010.06.03 22:52:26.
