data_PCOD9321803
_publ_section_title
;
Structure prediction by ZEFSAII (Michael W. Deem and Ramdas Pophale) SiO2 
 PCOD9321803
Probable space group: C 2 2 21
;
_chemical_formula_sum "Si O2"
_cell_formula_units_Z 40
_cell_length_a 16.879554
_cell_length_b 11.597678
_cell_length_c 8.544590
_cell_angle_alpha 90.000000
_cell_angle_beta 90.000000
_cell_angle_gamma 90.000000
_cell_volume 1672.719973
_symmetry_space_group_name_H-M "C 2 2 21"
_symmetry_group_IT_number 20
_symmetry_cell_setting 'orthorhombic'
loop_
_space_group_symop_operation_xyz
x,y,z
-x,-y,1/2+z
x,-y,-z
-x,y,1/2-z
1/2+x,1/2+y,z
1/2-x,1/2-y,1/2+z
1/2+x,1/2-y,-z
1/2-x,1/2+y,1/2-z
loop_
_atom_site_type_symbol
_atom_site_label
_atom_site_fract_x
_atom_site_fract_y
_atom_site_fract_z
Si Si1 0.174384 0.000000 0.500000
Si Si2 0.044147 0.828335 0.584487
Si Si3 0.337521 0.150312 0.217561
Si Si4 0.717501 0.816493 0.070902
Si Si5 0.500000 0.705519 0.750000
Si Si6 0.088492 0.404884 0.296869
O O1 0.119439 0.089718 0.410688
O O2 0.225891 0.076668 0.617264
O O3 0.000109 0.857194 0.420333
O O4 0.071940 0.694068 0.575864
O O5 0.000000 0.839236 0.750000
O O6 0.298703 0.161322 0.389675
O O7 0.270345 0.205012 0.105612
O O8 0.418552 0.222933 0.242068
O O9 0.362631 0.020517 0.174663
O O10 0.635799 0.833991 0.162933
O O11 0.000000 0.443250 0.250000
#
# Coordination Sequence:
#
# PCOD9321803 Si02
#       6
#     4   8   8   8   4   8
#     4  12  24  48  72 114 160 210 262 328 396 488
#     4  11  27  49  79 115 158 213 269 323 402 483
#     4  12  25  48  77 112 157 205 265 331 406 473
#     4  12  26  47  77 112 160 205 263 338 405 476
#     4  12  26  48  78 118 154 204 276 326 390 488
#     4  11  24  48  80 112 153 207 267 330 400 474
#
# _framework density 23.913150000000002
#
# number of rings (size 3 to 8) (size 9 to 14) (size 15 to 20)
#    0.000    0.400    5.000    3.600    1.400    0.800 
#    0.000    0.000    4.400    0.000    0.000    0.000 
#    0.000    0.000    0.000    0.000    0.000    0.000 
#
# Total GULP energy -111781.904465 kJ/mol
# GULP energy per Si atom -5589.095223 kJ/mol
# Density = 2.385872 g / cm^3
# Si number density = 23.913150 Si / 1000 Ang^3
#
#
#
# Elastic Constant Matrix: (Units=GPa)
#
#
# Indices 1 2 3 4 5 6 
#
# 1 148.0944 56.7393 59.7554 0.0000 0.0000 0.0000
# 2 56.7393 95.8545 24.4865 0.0000 0.0000 0.0000
# 3 59.7554 24.4865 144.5087 0.0000 0.0000 0.0000
# 4 0.0000 0.0000 0.0000 25.2911 0.0000 0.0000
# 5 0.0000 0.0000 0.0000 0.0000 31.4820 0.0000
# 6 0.0000 0.0000 0.0000 0.0000 0.0000 56.4731
#
#
#
# Elastic Compliance Matrix: (Units=1/GPa)
#
#
# Indices 1 2 3 4 5 6 
#
# 1 0.010031 -0.005099 -0.003284 0.000000 0.000000 0.000000
# 2 -0.005099 0.013496 -0.000179 0.000000 0.000000 0.000000
# 3 -0.003284 -0.000179 0.008308 0.000000 0.000000 0.000000
# 4 0.000000 0.000000 0.000000 0.039540 0.000000 0.000000
# 5 0.000000 0.000000 0.000000 0.000000 0.031764 0.000000
# 6 0.000000 0.000000 0.000000 0.000000 0.000000 0.017708
#
#
# Mechanical properties :
#
#
# Convention : Reuss Voigt Hill
#
# Bulk Modulus (GPa) = 67.96720 74.49109 71.22914
# Shear Modulus (GPa) = 34.99600 39.14765 37.07183
#
# Velocity S-wave (km/s) = 3.82967 4.05047 3.94162
# Velocity P-wave (km/s) = 6.93105 7.28652 7.11101
#
# Compressibility (1/GPa) = 0.01471298
#
# Stress axis : x y z
#
# Youngs Moduli (GPa) = 99.69113 74.09492 120.36345
#
# Poissons Ratio (x) = 0.37779 0.39526
# Poissons Ratio (y) = 0.50830 0.02149
# Poissons Ratio (z) = 0.32738 0.01323
#
# Static dielectric constant tensor:
#      x y z
#    x 1.944420 0.000000 0.000000 
#    y 0.000000 1.925560 0.000000 
#    z 0.000000 0.000000 1.988610 
# 
# From -- ./inp_files/9148.got.cif
#   From: 2010.05.17/outbox.cif.g08.bks.cpg/sg20_5_cif.got.tgz:9148.got - 2010.06.03 22:52:26.
