data_PCOD9321978
_publ_section_title
;
Structure prediction by ZEFSAII (Michael W. Deem and Ramdas Pophale) SiO2 
 PCOD9321978
Probable space group: C 2 2 21
;
_chemical_formula_sum "Si O2"
_cell_formula_units_Z 56
_cell_length_a 5.377192
_cell_length_b 31.883467
_cell_length_c 13.884013
_cell_angle_alpha 90.000000
_cell_angle_beta 90.000000
_cell_angle_gamma 90.000000
_cell_volume 2380.324112
_symmetry_space_group_name_H-M "C 2 2 21"
_symmetry_group_IT_number 20
_symmetry_cell_setting 'orthorhombic'
loop_
_space_group_symop_operation_xyz
x,y,z
-x,-y,1/2+z
x,-y,-z
-x,y,1/2-z
1/2+x,1/2+y,z
1/2-x,1/2-y,1/2+z
1/2+x,1/2-y,-z
1/2-x,1/2+y,1/2-z
loop_
_atom_site_type_symbol
_atom_site_label
_atom_site_fract_x
_atom_site_fract_y
_atom_site_fract_z
Si Si1 0.076679 0.973906 0.899517
Si Si2 0.500000 0.153274 0.750000
Si Si3 0.085595 0.602716 0.936501
Si Si4 0.090905 0.119340 0.040853
Si Si5 0.080378 0.484659 0.150660
Si Si6 0.648136 0.298028 0.593804
Si Si7 0.298745 0.776597 0.376273
Si Si8 0.000000 0.713193 0.250000
O O1 0.036921 0.924137 0.904293
O O2 0.357212 0.983244 0.867214
O O3 0.847247 0.994009 0.842098
O O4 0.059327 0.000000 0.000000
O O5 0.463580 0.123387 0.841146
O O6 0.691612 0.185876 0.799358
O O7 0.086670 0.552477 0.926874
O O8 0.369591 0.616491 0.958799
O O9 0.880368 0.615792 0.013711
O O10 0.054641 0.165338 0.084241
O O11 0.000000 0.463360 0.250000
O O12 0.546967 0.251797 0.620900
O O13 0.756788 0.292202 0.485467
O O14 0.808866 0.312418 0.685461
O O15 0.106308 0.743432 0.333704
#
# Coordination Sequence:
#
# PCOD9321978 Si02
#       8
#     8   4   8   8   8   8   8   4
#     4  12  23  45  73 102 143 195 244 291 367 448
#     4  12  26  44  70 117 148 184 247 316 386 444
#     4  12  25  44  72 113 146 186 239 315 374 445
#     4  12  28  44  74 106 145 197 252 302 369 445
#     4  12  24  45  71 107 148 188 241 303 378 438
#     4  12  27  47  74 106 148 196 256 309 376 458
#     4  12  26  46  73 106 146 196 241 313 386 450
#     4  12  26  48  76 103 142 198 249 310 374 452
#
# _framework density 23.526205999999998
#
# number of rings (size 3 to 8) (size 9 to 14) (size 15 to 20)
#    0.000    0.000    7.857    1.714    6.000    0.571 
#    1.286    1.429    0.000    0.000    0.000    0.000 
#    0.000    0.000    0.000    0.000    0.000    0.000 
#
# Total GULP energy -156208.169790 kJ/mol
# GULP energy per Si atom -5578.863207 kJ/mol
# Density = 2.347266 g / cm^3
# Si number density = 23.526206 Si / 1000 Ang^3
#
#
#
# Elastic Constant Matrix: (Units=GPa)
#
#
# Indices 1 2 3 4 5 6 
#
# 1 91.6040 10.3461 20.1312 0.0000 0.0000 0.0000
# 2 10.3461 102.6852 9.6223 0.0000 0.0000 0.0000
# 3 20.1312 9.6223 51.5790 0.0000 0.0000 0.0000
# 4 0.0000 0.0000 0.0000 27.9823 0.0000 0.0000
# 5 0.0000 0.0000 0.0000 0.0000 34.1309 0.0000
# 6 0.0000 0.0000 0.0000 0.0000 0.0000 20.5655
#
#
#
# Elastic Compliance Matrix: (Units=1/GPa)
#
#
# Indices 1 2 3 4 5 6 
#
# 1 0.012002 -0.000784 -0.004538 0.000000 0.000000 0.000000
# 2 -0.000784 0.009963 -0.001553 0.000000 0.000000 0.000000
# 3 -0.004538 -0.001553 0.021449 0.000000 0.000000 0.000000
# 4 0.000000 0.000000 0.000000 0.035737 0.000000 0.000000
# 5 0.000000 0.000000 0.000000 0.000000 0.029299 0.000000
# 6 0.000000 0.000000 0.000000 0.000000 0.000000 0.048625
#
#
# Mechanical properties :
#
#
# Convention : Reuss Voigt Hill
#
# Bulk Modulus (GPa) = 33.71066 36.22973 34.97019
# Shear Modulus (GPa) = 27.66819 30.25366 28.96092
#
# Velocity S-wave (km/s) = 3.43309 3.58991 3.51238
# Velocity P-wave (km/s) = 5.48406 5.71108 5.59872
#
# Compressibility (1/GPa) = 0.02966421
#
# Stress axis : x y z
#
# Youngs Moduli (GPa) = 83.31634 100.37147 46.62297
#
# Poissons Ratio (x) = 0.07870 0.21159
# Poissons Ratio (y) = 0.06532 0.07239
# Poissons Ratio (z) = 0.37811 0.15584
#
# Static dielectric constant tensor:
#      x y z
#    x 1.925400 0.000000 0.000000 
#    y 0.000000 1.853130 0.000000 
#    z 0.000000 0.000000 1.985780 
# 
# From -- ./inp_files/18017.got.cif
#   From: 2010.05.17/outbox.cif.g08.bks.cpg/sg20_10_cif.got.tgz:18017.got - 2010.06.03 22:52:26.
