data_PCOD9321850
_publ_section_title
;
Structure prediction by ZEFSAII (Michael W. Deem and Ramdas Pophale) SiO2 
 PCOD9321850
Probable space group: C 2 2 21
;
_chemical_formula_sum "Si O2"
_cell_formula_units_Z 40
_cell_length_a 22.089977
_cell_length_b 7.837516
_cell_length_c 9.581936
_cell_angle_alpha 90.000000
_cell_angle_beta 90.000000
_cell_angle_gamma 90.000000
_cell_volume 1658.925832
_symmetry_space_group_name_H-M "C 2 2 21"
_symmetry_group_IT_number 20
_symmetry_cell_setting 'orthorhombic'
loop_
_space_group_symop_operation_xyz
x,y,z
-x,-y,1/2+z
x,-y,-z
-x,y,1/2-z
1/2+x,1/2+y,z
1/2-x,1/2-y,1/2+z
1/2+x,1/2-y,-z
1/2-x,1/2+y,1/2-z
loop_
_atom_site_type_symbol
_atom_site_label
_atom_site_fract_x
_atom_site_fract_y
_atom_site_fract_z
Si Si1 0.898607 0.187030 0.036496
Si Si2 0.490684 0.127224 0.395721
Si Si3 0.337616 0.336542 0.676943
Si Si4 0.370217 0.730070 0.631033
Si Si5 0.799603 0.643749 0.125119
O O1 0.880473 0.218432 0.196022
O O2 0.835117 0.208011 0.955801
O O3 0.948410 0.312630 0.971454
O O4 0.922088 0.000000 0.000000
O O5 0.500000 0.034053 0.250000
O O6 0.442929 0.273519 0.357251
O O7 0.458382 0.000000 0.500000
O O8 0.345770 0.541964 0.667975
O O9 0.354600 0.251369 0.530707
O O10 0.265571 0.310251 0.687105
O O11 0.342082 0.870592 0.736394
O O12 0.795281 0.500000 0.000000
#
# Coordination Sequence:
#
# PCOD9321850 Si02
#       5
#     8   8   8   8   8
#     4  12  26  47  80 107 149 210 254 318 405 463
#     4  12  28  50  72 108 153 196 263 323 390 471
#     4  11  25  47  75 116 148 197 267 314 390 463
#     4  11  25  48  72 111 153 194 255 325 374 465
#     4  12  24  47  76 111 161 197 247 328 382 474
#
# _framework density 24.111988
#
# number of rings (size 3 to 8) (size 9 to 14) (size 15 to 20)
#    0.000    0.400    6.000    1.800    5.600    0.000 
#    0.000    0.000    0.000    0.000    0.000    0.000 
#    0.000    0.000    0.000    0.000    0.000    0.000 
#
# Total GULP energy -111696.682960 kJ/mol
# GULP energy per Si atom -5584.834148 kJ/mol
# Density = 2.405711 g / cm^3
# Si number density = 24.111988 Si / 1000 Ang^3
#
#
#
# Elastic Constant Matrix: (Units=GPa)
#
#
# Indices 1 2 3 4 5 6 
#
# 1 141.4126 16.3720 53.8179 0.0000 0.0000 0.0000
# 2 16.3720 51.0346 17.5264 0.0000 0.0000 0.0000
# 3 53.8179 17.5264 220.4489 0.0000 0.0000 0.0000
# 4 0.0000 0.0000 0.0000 31.8817 0.0000 0.0000
# 5 0.0000 0.0000 0.0000 0.0000 34.7986 0.0000
# 6 0.0000 0.0000 0.0000 0.0000 0.0000 28.4756
#
#
#
# Elastic Compliance Matrix: (Units=1/GPa)
#
#
# Indices 1 2 3 4 5 6 
#
# 1 0.007979 -0.001944 -0.001793 0.000000 0.000000 0.000000
# 2 -0.001944 0.020618 -0.001165 0.000000 0.000000 0.000000
# 3 -0.001793 -0.001165 0.005067 0.000000 0.000000 0.000000
# 4 0.000000 0.000000 0.000000 0.031366 0.000000 0.000000
# 5 0.000000 0.000000 0.000000 0.000000 0.028737 0.000000
# 6 0.000000 0.000000 0.000000 0.000000 0.000000 0.035118
#
#
# Mechanical properties :
#
#
# Convention : Reuss Voigt Hill
#
# Bulk Modulus (GPa) = 41.91105 65.36984 53.64045
# Shear Modulus (GPa) = 34.09682 40.70985 37.40334
#
# Velocity S-wave (km/s) = 3.76453 4.11343 3.94284
# Velocity P-wave (km/s) = 6.02621 7.05196 6.55917
#
# Compressibility (1/GPa) = 0.02386006
#
# Stress axis : x y z
#
# Youngs Moduli (GPa) = 125.32804 48.50111 197.37069
#
# Poissons Ratio (x) = 0.09428 0.35396
# Poissons Ratio (y) = 0.24361 0.22987
# Poissons Ratio (z) = 0.22476 0.05649
#
# Static dielectric constant tensor:
#      x y z
#    x 1.910650 0.000000 0.000000 
#    y 0.000000 1.919390 0.000000 
#    z 0.000000 0.000000 1.685490 
# 
# From -- ./inp_files/10500.got.cif
#   From: 2010.05.17/outbox.cif.g08.bks.cpg/sg20_6_cif.got.tgz:10500.got - 2010.06.03 22:52:26.
