data_PCOD9321200
_publ_section_title
;
Structure prediction by ZEFSAII (Michael W. Deem and Ramdas Pophale) SiO2 
 PCOD9321200
Probable space group: C 2 2 21
;
_chemical_formula_sum "Si O2"
_cell_formula_units_Z 40
_cell_length_a 26.374284
_cell_length_b 5.840828
_cell_length_c 11.788892
_cell_angle_alpha 90.000000
_cell_angle_beta 90.000000
_cell_angle_gamma 90.000000
_cell_volume 1816.051185
_symmetry_space_group_name_H-M "C 2 2 21"
_symmetry_group_IT_number 20
_symmetry_cell_setting 'orthorhombic'
loop_
_space_group_symop_operation_xyz
x,y,z
-x,-y,1/2+z
x,-y,-z
-x,y,1/2-z
1/2+x,1/2+y,z
1/2-x,1/2-y,1/2+z
1/2+x,1/2-y,-z
1/2-x,1/2+y,1/2-z
loop_
_atom_site_type_symbol
_atom_site_label
_atom_site_fract_x
_atom_site_fract_y
_atom_site_fract_z
Si Si1 0.914842 0.744510 0.768569
Si Si2 0.255791 0.170488 0.606260
Si Si3 0.005772 0.750084 0.936919
Si Si4 0.847233 0.972791 0.382755
Si Si5 0.678473 0.917971 0.731603
O O1 0.951984 0.779559 0.872844
O O2 0.879508 0.950778 0.725853
O O3 0.873301 0.549093 0.791912
O O4 0.951275 0.709098 0.659559
O O5 0.300033 0.358812 0.594395
O O6 0.200385 0.274431 0.627634
O O7 0.254439 0.000000 0.500000
O O8 0.273122 0.066457 0.727786
O O9 0.004486 0.500000 0.000000
O O10 0.012925 0.000000 0.000000
O O11 0.877184 0.000000 0.500000
O O12 0.831333 0.721976 0.347470
#
# Coordination Sequence:
#
# PCOD9321200 Si02
#       5
#     8   8   8   8   8
#     4  10  27  44  73 108 138 184 243 302 364 446
#     4  11  22  40  63  98 141 198 240 298 359 424
#     4  11  27  51  79 107 146 187 235 304 382 444
#     4  11  22  39  70  97 138 184 247 294 351 425
#     4  11  23  41  66 101 144 187 245 303 359 434
#
# _framework density 22.02581
#
# number of rings (size 3 to 8) (size 9 to 14) (size 15 to 20)
#    0.000    1.200    4.000    0.600    8.400    1.600 
#    3.600    0.000    0.000    0.000    0.000    0.000 
#    0.000    0.000    0.000    0.000    0.000    0.000 
#
# Total GULP energy -111420.790388 kJ/mol
# GULP energy per Si atom -5571.039519 kJ/mol
# Density = 2.197568 g / cm^3
# Si number density = 22.025810 Si / 1000 Ang^3
#
#
#
# Elastic Constant Matrix: (Units=GPa)
#
#
# Indices 1 2 3 4 5 6 
#
# 1 148.1601 48.7409 52.6393 0.0000 0.0000 0.0000
# 2 48.7409 78.1368 34.7049 0.0000 0.0000 0.0000
# 3 52.6393 34.7049 63.5105 0.0000 0.0000 0.0000
# 4 0.0000 0.0000 0.0000 39.5048 0.0000 0.0000
# 5 0.0000 0.0000 0.0000 0.0000 37.1798 0.0000
# 6 0.0000 0.0000 0.0000 0.0000 0.0000 1.7269
#
#
#
# Elastic Compliance Matrix: (Units=1/GPa)
#
#
# Indices 1 2 3 4 5 6 
#
# 1 0.010226 -0.003452 -0.006589 0.000000 0.000000 0.000000
# 2 -0.003452 0.018065 -0.007010 0.000000 0.000000 0.000000
# 3 -0.006589 -0.007010 0.025038 0.000000 0.000000 0.000000
# 4 0.000000 0.000000 0.000000 0.025313 0.000000 0.000000
# 5 0.000000 0.000000 0.000000 0.000000 0.026896 0.000000
# 6 0.000000 0.000000 0.000000 0.000000 0.000000 0.579069
#
#
# Mechanical properties :
#
#
# Convention : Reuss Voigt Hill
#
# Bulk Modulus (GPa) = 52.01492 62.44197 57.22844
# Shear Modulus (GPa) = 6.89541 25.93046 16.41293
#
# Velocity S-wave (km/s) = 1.77127 3.43487 2.73274
# Velocity P-wave (km/s) = 5.27730 6.64395 5.99967
#
# Compressibility (1/GPa) = 0.01922525
#
# Stress axis : x y z
#
# Youngs Moduli (GPa) = 97.78720 55.35492 39.94003
#
# Poissons Ratio (x) = 0.19110 0.26318
# Poissons Ratio (y) = 0.33760 0.27999
# Poissons Ratio (z) = 0.64435 0.38805
#
# Static dielectric constant tensor:
#      x y z
#    x 1.809840 0.000000 0.000000 
#    y 0.000000 1.893270 0.000000 
#    z 0.000000 0.000000 1.864730 
# 
# From -- ./inp_files/16862.got.cif
#   From: 2010.05.17/outbox.cif.g08.bks.cpg/sg20_9_cif.got.tgz:16862.got - 2010.06.03 22:52:26.
