data_PCOD9321038
_publ_section_title
;
Structure prediction by ZEFSAII (Michael W. Deem and Ramdas Pophale) SiO2 
 PCOD9321038
Probable space group: C 2 2 21
;
_chemical_formula_sum "Si O2"
_cell_formula_units_Z 36
_cell_length_a 10.657667
_cell_length_b 18.268112
_cell_length_c 7.888117
_cell_angle_alpha 90.000000
_cell_angle_beta 90.000000
_cell_angle_gamma 90.000000
_cell_volume 1535.780524
_symmetry_space_group_name_H-M "C 2 2 21"
_symmetry_group_IT_number 20
_symmetry_cell_setting 'orthorhombic'
loop_
_space_group_symop_operation_xyz
x,y,z
-x,-y,1/2+z
x,-y,-z
-x,y,1/2-z
1/2+x,1/2+y,z
1/2-x,1/2-y,1/2+z
1/2+x,1/2-y,-z
1/2-x,1/2+y,1/2-z
loop_
_atom_site_type_symbol
_atom_site_label
_atom_site_fract_x
_atom_site_fract_y
_atom_site_fract_z
Si Si1 0.768045 0.464725 0.313209
Si Si2 0.336279 0.891951 0.853336
Si Si3 0.909912 0.339661 0.487689
Si Si4 0.430709 0.331205 0.576502
Si Si5 0.500000 0.590451 0.750000
O O1 0.760033 0.500000 0.500000
O O2 0.839878 0.522629 0.195946
O O3 0.838963 0.388875 0.349135
O O4 0.627096 0.455744 0.245920
O O5 0.345296 0.849210 0.672771
O O6 0.450954 0.869340 0.971849
O O7 0.204095 0.869745 0.930893
O O8 0.913534 0.255735 0.434542
O O9 0.500000 0.350979 0.750000
O O10 0.508502 0.359337 0.416114
#
# Coordination Sequence:
#
# PCOD9321038 Si02
#       5
#     8   8   8   8   4
#     4  10  24  48  75 108 153 201 259 317 390 470
#     4  10  24  48  75 108 153 201 259 317 390 470
#     4  10  24  48  75 108 153 201 259 317 390 470
#     4  12  28  48  78 112 152 200 258 324 390 462
#     4  12  28  48  78 112 152 200 258 324 390 462
#
# _framework density 23.440849
#
# number of rings (size 3 to 8) (size 9 to 14) (size 15 to 20)
#    0.000    1.333    0.000    4.000   14.000    0.000 
#   36.000    0.000    0.000    0.000    0.000    0.000 
#    0.000    0.000    0.000    0.000    0.000    0.000 
#
# Total GULP energy -100926.553144 kJ/mol
# GULP energy per Si atom -5607.030730 kJ/mol
# Density = 2.338750 g / cm^3
# Si number density = 23.440849 Si / 1000 Ang^3
#
#
#
# Elastic Constant Matrix: (Units=GPa)
#
#
# Indices 1 2 3 4 5 6 
#
# 1 88.5328 6.5839 9.2600 0.0000 0.0000 0.0000
# 2 6.5839 77.3579 5.4273 0.0000 0.0000 0.0000
# 3 9.2600 5.4273 108.7810 0.0000 0.0000 0.0000
# 4 0.0000 0.0000 0.0000 13.5249 0.0000 0.0000
# 5 0.0000 0.0000 0.0000 0.0000 43.8816 0.0000
# 6 0.0000 0.0000 0.0000 0.0000 0.0000 41.0720
#
#
#
# Elastic Compliance Matrix: (Units=1/GPa)
#
#
# Indices 1 2 3 4 5 6 
#
# 1 0.011460 -0.000910 -0.000930 0.000000 0.000000 0.000000
# 2 -0.000910 0.013045 -0.000573 0.000000 0.000000 0.000000
# 3 -0.000930 -0.000573 0.009301 0.000000 0.000000 0.000000
# 4 0.000000 0.000000 0.000000 0.073938 0.000000 0.000000
# 5 0.000000 0.000000 0.000000 0.000000 0.022789 0.000000
# 6 0.000000 0.000000 0.000000 0.000000 0.000000 0.024347
#
#
# Mechanical properties :
#
#
# Convention : Reuss Voigt Hill
#
# Bulk Modulus (GPa) = 34.50873 35.24602 34.87738
# Shear Modulus (GPa) = 29.52188 36.58906 33.05547
#
# Velocity S-wave (km/s) = 3.55268 3.95512 3.75929
# Velocity P-wave (km/s) = 5.61981 5.99384 5.80984
#
# Compressibility (1/GPa) = 0.02897817
#
# Stress axis : x y z
#
# Youngs Moduli (GPa) = 87.25841 76.65999 107.52038
#
# Poissons Ratio (x) = 0.06977 0.10001
# Poissons Ratio (y) = 0.07942 0.06165
# Poissons Ratio (z) = 0.08116 0.04395
#
# Static dielectric constant tensor:
#      x y z
#    x 1.858200 0.000000 0.000000 
#    y 0.000000 1.833180 0.000000 
#    z 0.000000 0.000000 1.909770 
# 
# From -- ./inp_files/5905.got.cif
#   From: 2010.05.17/outbox.cif.g08.bks.cpg/sg20_3_cif.got.tgz:5905.got - 2010.06.03 22:52:26.
