data_PCOD9321804
_publ_section_title
;
Structure prediction by ZEFSAII (Michael W. Deem and Ramdas Pophale) SiO2 
 PCOD9321804
Probable space group: C 2 2 21
;
_chemical_formula_sum "Si O2"
_cell_formula_units_Z 48
_cell_length_a 25.499421
_cell_length_b 6.684088
_cell_length_c 14.092998
_cell_angle_alpha 90.000000
_cell_angle_beta 90.000000
_cell_angle_gamma 90.000000
_cell_volume 2402.015849
_symmetry_space_group_name_H-M "C 2 2 21"
_symmetry_group_IT_number 20
_symmetry_cell_setting 'orthorhombic'
loop_
_space_group_symop_operation_xyz
x,y,z
-x,-y,1/2+z
x,-y,-z
-x,y,1/2-z
1/2+x,1/2+y,z
1/2-x,1/2-y,1/2+z
1/2+x,1/2-y,-z
1/2-x,1/2+y,1/2-z
loop_
_atom_site_type_symbol
_atom_site_label
_atom_site_fract_x
_atom_site_fract_y
_atom_site_fract_z
Si Si1 0.500000 0.854297 0.250000
Si Si2 0.222435 0.035946 0.108206
Si Si3 0.869229 0.780063 0.318667
Si Si4 0.953268 0.000000 0.000000
Si Si5 0.523475 0.146996 0.085803
Si Si6 0.400333 0.378595 0.811611
Si Si7 0.694257 0.112857 0.761889
O O1 0.551387 0.714648 0.250891
O O2 0.495207 0.003921 0.161684
O O3 0.166044 0.929524 0.119112
O O4 0.260442 0.935580 0.186368
O O5 0.215468 0.262153 0.147391
O O6 0.240432 0.000000 0.000000
O O7 0.922333 0.720205 0.370117
O O8 0.834296 0.588263 0.294992
O O9 0.886087 0.900900 0.225026
O O10 0.989076 0.165548 0.947917
O O11 0.918847 0.891837 0.919725
O O12 0.535631 0.000000 0.000000
O O13 0.349554 0.245812 0.790874
#
# Coordination Sequence:
#
# PCOD9321804 Si02
#       7
#     4   8   8   4   8   8   8
#     4  12  22  48  64  98 144 186 222 294 344 404
#     4  11  26  45  74 101 137 180 233 298 357 429
#     4  11  25  44  71  99 140 181 227 294 353 417
#     4  12  26  44  66 108 144 184 244 282 346 432
#     4  12  26  41  70 101 135 182 235 282 339 418
#     4  11  25  43  69  99 144 185 229 284 353 418
#     4  11  24  49  69 104 140 181 237 291 364 427
#
# _framework density 19.983215999999999
#
# number of rings (size 3 to 8) (size 9 to 14) (size 15 to 20)
#    0.000    0.667    5.000    2.000    3.500    1.333 
#    0.000    0.000    0.000    0.000    0.000    0.000 
#    0.000    0.000    0.000    0.000    0.000    0.000 
#
# Total GULP energy -134184.298853 kJ/mol
# GULP energy per Si atom -5591.012452 kJ/mol
# Density = 1.993773 g / cm^3
# Si number density = 19.983216 Si / 1000 Ang^3
#
#
#
# Elastic Constant Matrix: (Units=GPa)
#
#
# Indices 1 2 3 4 5 6 
#
# 1 56.8516 27.2242 12.7616 0.0000 0.0000 0.0000
# 2 27.2242 114.2356 46.1628 0.0000 0.0000 0.0000
# 3 12.7616 46.1628 99.2430 0.0000 0.0000 0.0000
# 4 0.0000 0.0000 0.0000 36.9107 0.0000 0.0000
# 5 0.0000 0.0000 0.0000 0.0000 -1.9762 0.0000
# 6 0.0000 0.0000 0.0000 0.0000 0.0000 50.7434
#
#
#
# Elastic Compliance Matrix: (Units=1/GPa)
#
#
# Indices 1 2 3 4 5 6 
#
# 1 0.019871 -0.004560 -0.000434 0.000000 0.000000 0.000000
# 2 -0.004560 0.011827 -0.004915 0.000000 0.000000 0.000000
# 3 -0.000434 -0.004915 0.012418 0.000000 0.000000 0.000000
# 4 0.000000 0.000000 0.000000 0.027092 0.000000 0.000000
# 5 0.000000 0.000000 0.000000 0.000000 -0.506023 0.000000
# 6 0.000000 0.000000 0.000000 0.000000 0.000000 0.019707
#
#
# Mechanical properties :
#
#
# Convention : Reuss Voigt Hill
#
# Bulk Modulus (GPa) = 41.15610 49.18083 45.16846
# Shear Modulus (GPa) = -12.91354 29.41436 8.25041
#
# Velocity S-wave (km/s) = -2.54484 3.84077 2.03412
# Velocity P-wave (km/s) = 3.46483 6.65831 5.30746
#
# Compressibility (1/GPa) = 0.02429774
#
# Stress axis : x y z
#
# Youngs Moduli (GPa) = 50.32520 84.55481 80.52708
#
# Poissons Ratio (x) = 0.38558 0.03495
# Poissons Ratio (y) = 0.22949 0.39577
# Poissons Ratio (z) = 0.02184 0.41557
#
# Static dielectric constant tensor:
#      x y z
#    x 1.650000 0.000000 0.000000 
#    y 0.000000 1.726090 0.000000 
#    z 0.000000 0.000000 1.687490 
# 
# From -- ./inp_files/22170.got.cif
#   From: 2010.05.17/outbox.cif.g08.bks.cpg/sg20_12_cif.got.tgz:22170.got - 2010.06.03 22:52:26.
