data_PCOD9321782
_publ_section_title
;
Structure prediction by ZEFSAII (Michael W. Deem and Ramdas Pophale) SiO2 
 PCOD9321782
Probable space group: C 2 2 21
;
_chemical_formula_sum "Si O2"
_cell_formula_units_Z 32
_cell_length_a 21.397602
_cell_length_b 5.040004
_cell_length_c 10.707031
_cell_angle_alpha 90.000000
_cell_angle_beta 90.000000
_cell_angle_gamma 90.000000
_cell_volume 1154.689048
_symmetry_space_group_name_H-M "C 2 2 21"
_symmetry_group_IT_number 20
_symmetry_cell_setting 'orthorhombic'
loop_
_space_group_symop_operation_xyz
x,y,z
-x,-y,1/2+z
x,-y,-z
-x,y,1/2-z
1/2+x,1/2+y,z
1/2-x,1/2-y,1/2+z
1/2+x,1/2-y,-z
1/2-x,1/2+y,1/2-z
loop_
_atom_site_type_symbol
_atom_site_label
_atom_site_fract_x
_atom_site_fract_y
_atom_site_fract_z
Si Si1 0.549515 0.500000 0.000000
Si Si2 0.236511 0.726794 0.826333
Si Si3 0.106770 0.576983 0.135302
Si Si4 0.668864 0.500000 0.500000
Si Si5 0.063278 0.692645 0.619137
O O1 0.597676 0.614136 0.893870
O O2 0.498080 0.366225 0.905664
O O3 0.265892 0.525146 0.723122
O O4 0.172576 0.573850 0.860012
O O5 0.285257 0.713274 0.939381
O O6 0.070520 0.484667 0.257660
O O7 0.076918 0.500000 0.000000
O O8 0.623765 0.379687 0.604600
O O9 0.067417 0.500000 0.500000
#
# Coordination Sequence:
#
# PCOD9321782 Si02
#       5
#     4   8   8   4   8
#     4  11  30  50  84 118 166 219 284 344 418 495
#     4  12  27  48  80 124 171 215 278 344 426 509
#     4  12  28  49  81 121 165 214 278 342 418 496
#     4  11  24  46  84 116 162 219 272 342 432 497
#     4  11  26  53  80 116 161 217 275 347 418 502
#
# _framework density 27.713090999999999
#
# number of rings (size 3 to 8) (size 9 to 14) (size 15 to 20)
#    0.000    0.500    3.750    2.250    3.500   10.000 
#    0.000    0.000    0.000    0.000    0.000    0.000 
#    0.000    0.000    0.000    0.000    0.000    0.000 
#
# Total GULP energy -89503.121324 kJ/mol
# GULP energy per Si atom -5593.945083 kJ/mol
# Density = 2.765001 g / cm^3
# Si number density = 27.713091 Si / 1000 Ang^3
#
#
#
# Elastic Constant Matrix: (Units=GPa)
#
#
# Indices 1 2 3 4 5 6 
#
# 1 144.9578 22.7402 41.5860 0.0000 0.0000 0.0000
# 2 22.7402 76.8316 47.5238 0.0000 0.0000 0.0000
# 3 41.5860 47.5238 197.8450 0.0000 0.0000 0.0000
# 4 0.0000 0.0000 0.0000 78.1608 0.0000 0.0000
# 5 0.0000 0.0000 0.0000 0.0000 46.1226 0.0000
# 6 0.0000 0.0000 0.0000 0.0000 0.0000 15.2606
#
#
#
# Elastic Compliance Matrix: (Units=1/GPa)
#
#
# Indices 1 2 3 4 5 6 
#
# 1 0.007478 -0.001458 -0.001222 0.000000 0.000000 0.000000
# 2 -0.001458 0.015571 -0.003434 0.000000 0.000000 0.000000
# 3 -0.001222 -0.003434 0.006136 0.000000 0.000000 0.000000
# 4 0.000000 0.000000 0.000000 0.012794 0.000000 0.000000
# 5 0.000000 0.000000 0.000000 0.000000 0.021681 0.000000
# 6 0.000000 0.000000 0.000000 0.000000 0.000000 0.065528
#
#
# Mechanical properties :
#
#
# Convention : Reuss Voigt Hill
#
# Bulk Modulus (GPa) = 58.96753 71.48162 65.22457
# Shear Modulus (GPa) = 33.99802 48.42775 41.21288
#
# Velocity S-wave (km/s) = 3.50635 4.18481 3.86051
# Velocity P-wave (km/s) = 6.14139 7.01424 6.59228
#
# Compressibility (1/GPa) = 0.01695849
#
# Stress axis : x y z
#
# Youngs Moduli (GPa) = 133.73120 64.22248 162.97028
#
# Poissons Ratio (x) = 0.09361 0.19909
# Poissons Ratio (y) = 0.19492 0.55962
# Poissons Ratio (z) = 0.16337 0.22053
#
# Static dielectric constant tensor:
#      x y z
#    x 2.121970 0.000000 0.000000 
#    y 0.000000 0.152050 0.000000 
#    z 0.000000 0.000000 2.177330 
# 
# From -- ./inp_files/16073.got.cif
#   From: 2010.05.17/outbox.cif.g08.bks.cpg/sg20_9_cif.got.tgz:16073.got - 2010.06.03 22:52:26.
