data_PCOD9321594
_publ_section_title
;
Structure prediction by ZEFSAII (Michael W. Deem and Ramdas Pophale) SiO2 
 PCOD9321594
Probable space group: C 2 2 21
;
_chemical_formula_sum "Si O2"
_cell_formula_units_Z 48
_cell_length_a 28.373912
_cell_length_b 8.629794
_cell_length_c 9.207399
_cell_angle_alpha 90.000000
_cell_angle_beta 90.000000
_cell_angle_gamma 90.000000
_cell_volume 2254.533070
_symmetry_space_group_name_H-M "C 2 2 21"
_symmetry_group_IT_number 20
_symmetry_cell_setting 'orthorhombic'
loop_
_space_group_symop_operation_xyz
x,y,z
-x,-y,1/2+z
x,-y,-z
-x,y,1/2-z
1/2+x,1/2+y,z
1/2-x,1/2-y,1/2+z
1/2+x,1/2-y,-z
1/2-x,1/2+y,1/2-z
loop_
_atom_site_type_symbol
_atom_site_label
_atom_site_fract_x
_atom_site_fract_y
_atom_site_fract_z
Si Si1 0.896979 0.818319 0.536463
Si Si2 0.292927 0.667448 0.924651
Si Si3 0.447015 0.823358 0.706132
Si Si4 0.445754 0.819681 0.211879
Si Si5 0.795730 0.831292 0.427904
Si Si6 0.897643 0.820225 0.045000
O O1 0.936774 0.713517 0.460138
O O2 0.907579 0.786529 0.704184
O O3 0.846022 0.762063 0.479568
O O4 0.902377 0.000000 0.500000
O O5 0.291071 0.663291 0.747821
O O6 0.343832 0.736339 0.968478
O O7 0.293016 0.500000 0.000000
O O8 0.248530 0.750655 0.996225
O O9 0.500000 0.787267 0.750000
O O10 0.412561 0.706280 0.789688
O O11 0.437680 0.000967 0.748183
O O12 0.500000 0.780926 0.250000
O O13 0.434003 0.783587 0.045662
O O14 0.796955 0.000000 0.500000
O O15 0.901161 0.000000 0.000000
#
# Coordination Sequence:
#
# PCOD9321594 Si02
#       6
#     8   8   8   8   8   8
#     4  11  24  42  67  96 132 172 224 273 334 396
#     4  11  25  45  70 100 135 175 222 279 340 404
#     4  11  23  43  64  93 134 173 220 277 332 399
#     4  11  25  41  64  97 134 179 222 277 336 397
#     4  11  25  45  70 100 135 175 222 279 340 404
#     4  11  24  42  67  96 132 172 224 273 334 396
#
# _framework density 21.290438000000002
#
# number of rings (size 3 to 8) (size 9 to 14) (size 15 to 20)
#    0.000    1.000    1.667    4.000    9.333    9.333 
#    0.000    0.000    0.000    0.000    0.000    0.000 
#    0.000    0.000    0.000    0.000    0.000    0.000 
#
# Total GULP energy -134084.128149 kJ/mol
# GULP energy per Si atom -5586.838673 kJ/mol
# Density = 2.124198 g / cm^3
# Si number density = 21.290438 Si / 1000 Ang^3
#
#
#
# Elastic Constant Matrix: (Units=GPa)
#
#
# Indices 1 2 3 4 5 6 
#
# 1 138.1122 39.8496 32.4553 0.0000 0.0000 0.0000
# 2 39.8496 39.9830 5.5103 0.0000 0.0000 0.0000
# 3 32.4553 5.5103 99.1088 0.0000 0.0000 0.0000
# 4 0.0000 0.0000 0.0000 40.0523 0.0000 0.0000
# 5 0.0000 0.0000 0.0000 0.0000 41.5792 0.0000
# 6 0.0000 0.0000 0.0000 0.0000 0.0000 30.2822
#
#
#
# Elastic Compliance Matrix: (Units=1/GPa)
#
#
# Indices 1 2 3 4 5 6 
#
# 1 0.010989 -0.010537 -0.003013 0.000000 0.000000 0.000000
# 2 -0.010537 0.035307 0.001487 0.000000 0.000000 0.000000
# 3 -0.003013 0.001487 0.010994 0.000000 0.000000 0.000000
# 4 0.000000 0.000000 0.000000 0.024967 0.000000 0.000000
# 5 0.000000 0.000000 0.000000 0.000000 0.024050 0.000000
# 6 0.000000 0.000000 0.000000 0.000000 0.000000 0.033023
#
#
# Mechanical properties :
#
#
# Convention : Reuss Voigt Hill
#
# Bulk Modulus (GPa) = 30.15161 48.09271 39.12216
# Shear Modulus (GPa) = 28.65180 35.67533 32.16356
#
# Velocity S-wave (km/s) = 3.67244 4.09791 3.89099
# Velocity P-wave (km/s) = 5.67232 6.71032 6.21304
#
# Compressibility (1/GPa) = 0.03316572
#
# Stress axis : x y z
#
# Youngs Moduli (GPa) = 91.00343 28.32287 90.96058
#
# Poissons Ratio (x) = 0.29843 0.27403
# Poissons Ratio (y) = 0.95888 -0.13530
# Poissons Ratio (z) = 0.27416 -0.04213
#
# Static dielectric constant tensor:
#      x y z
#    x 1.787850 0.000000 0.000000 
#    y 0.000000 1.813350 0.000000 
#    z 0.000000 0.000000 1.708340 
# 
# From -- ./inp_files/6490.got.cif
#   From: 2010.05.17/outbox.cif.g08.bks.cpg/sg20_4_cif.got.tgz:6490.got - 2010.06.03 22:52:26.
