data_PCOD9321898
_publ_section_title
;
Structure prediction by ZEFSAII (Michael W. Deem and Ramdas Pophale) SiO2 
 PCOD9321898
Probable space group: C 2 2 21
;
_chemical_formula_sum "Si O2"
_cell_formula_units_Z 40
_cell_length_a 15.670240
_cell_length_b 5.376171
_cell_length_c 17.922624
_cell_angle_alpha 90.000000
_cell_angle_beta 90.000000
_cell_angle_gamma 90.000000
_cell_volume 1509.907407
_symmetry_space_group_name_H-M "C 2 2 21"
_symmetry_group_IT_number 20
_symmetry_cell_setting 'orthorhombic'
loop_
_space_group_symop_operation_xyz
x,y,z
-x,-y,1/2+z
x,-y,-z
-x,y,1/2-z
1/2+x,1/2+y,z
1/2-x,1/2-y,1/2+z
1/2+x,1/2-y,-z
1/2-x,1/2+y,1/2-z
loop_
_atom_site_type_symbol
_atom_site_label
_atom_site_fract_x
_atom_site_fract_y
_atom_site_fract_z
Si Si1 0.704785 0.969842 0.827942
Si Si2 0.757328 0.241879 0.456813
Si Si3 0.626520 0.221834 0.698724
Si Si4 0.559194 0.875360 0.574978
Si Si5 0.947024 0.884889 0.315967
O O1 0.694348 0.209447 0.879632
O O2 0.686040 0.023783 0.741688
O O3 0.801713 0.888765 0.840389
O O4 0.635539 0.761524 0.844007
O O5 0.769588 0.500000 0.500000
O O6 0.656400 0.198646 0.443963
O O7 0.789065 0.000000 0.500000
O O8 0.582676 0.380928 0.764841
O O9 0.567577 0.090191 0.638228
O O10 0.510386 0.642728 0.613247
O O11 0.521150 0.000000 0.500000
O O12 0.000000 0.740573 0.250000
#
# Coordination Sequence:
#
# PCOD9321898 Si02
#       5
#     8   8   8   8   8
#     4  12  24  46  79 112 151 212 271 333 399 475
#     4  11  26  50  82 115 160 213 277 338 416 496
#     4  12  25  48  80 113 156 211 276 336 402 493
#     4  11  26  53  78 117 159 215 267 343 423 492
#     4  12  27  45  74 112 159 205 266 332 409 489
#
# _framework density 26.491692
#
# number of rings (size 3 to 8) (size 9 to 14) (size 15 to 20)
#    0.000    0.400    4.000    4.800    5.600    0.800 
#    0.000    0.000    0.000    0.000    0.000    0.000 
#    0.000    0.000    0.000    0.000    0.000    0.000 
#
# Total GULP energy -111883.692319 kJ/mol
# GULP energy per Si atom -5594.184616 kJ/mol
# Density = 2.643140 g / cm^3
# Si number density = 26.491692 Si / 1000 Ang^3
#
#
#
# Elastic Constant Matrix: (Units=GPa)
#
#
# Indices 1 2 3 4 5 6 
#
# 1 82.0148 28.9397 26.0395 0.0000 0.0000 0.0000
# 2 28.9397 132.1887 55.1226 0.0000 0.0000 0.0000
# 3 26.0395 55.1226 139.2724 0.0000 0.0000 0.0000
# 4 0.0000 0.0000 0.0000 66.4732 0.0000 0.0000
# 5 0.0000 0.0000 0.0000 0.0000 46.3925 0.0000
# 6 0.0000 0.0000 0.0000 0.0000 0.0000 29.8818
#
#
#
# Elastic Compliance Matrix: (Units=1/GPa)
#
#
# Indices 1 2 3 4 5 6 
#
# 1 0.013513 -0.002281 -0.001624 0.000000 0.000000 0.000000
# 2 -0.002281 0.009445 -0.003312 0.000000 0.000000 0.000000
# 3 -0.001624 -0.003312 0.008795 0.000000 0.000000 0.000000
# 4 0.000000 0.000000 0.000000 0.015044 0.000000 0.000000
# 5 0.000000 0.000000 0.000000 0.000000 0.021555 0.000000
# 6 0.000000 0.000000 0.000000 0.000000 0.000000 0.033465
#
#
# Mechanical properties :
#
#
# Convention : Reuss Voigt Hill
#
# Bulk Modulus (GPa) = 57.73794 63.74217 60.74006
# Shear Modulus (GPa) = 40.97539 44.77443 42.87491
#
# Velocity S-wave (km/s) = 3.93711 4.11558 4.02733
# Velocity P-wave (km/s) = 6.51996 6.83355 6.67859
#
# Compressibility (1/GPa) = 0.01731963
#
# Stress axis : x y z
#
# Youngs Moduli (GPa) = 74.00047 105.87103 113.70681
#
# Poissons Ratio (x) = 0.24153 0.18462
# Poissons Ratio (y) = 0.16882 0.37658
# Poissons Ratio (z) = 0.12015 0.35063
#
# Static dielectric constant tensor:
#      x y z
#    x 2.076100 0.000000 0.000000 
#    y 0.000000 2.185940 0.000000 
#    z 0.000000 0.000000 2.136340 
# 
# From -- ./inp_files/25081.got.cif
#   From: 2010.05.17/outbox.cif.g08.bks.cpg/sg20_13_cif.got.tgz:25081.got - 2010.06.03 22:52:26.
