data_PCOD9321990
_publ_section_title
;
Structure prediction by ZEFSAII (Michael W. Deem and Ramdas Pophale) SiO2 
 PCOD9321990
Probable space group: C 2 2 21
;
_chemical_formula_sum "Si O2"
_cell_formula_units_Z 32
_cell_length_a 14.029966
_cell_length_b 8.168934
_cell_length_c 11.219967
_cell_angle_alpha 90.000000
_cell_angle_beta 90.000000
_cell_angle_gamma 90.000000
_cell_volume 1285.918917
_symmetry_space_group_name_H-M "C 2 2 21"
_symmetry_group_IT_number 20
_symmetry_cell_setting 'orthorhombic'
loop_
_space_group_symop_operation_xyz
x,y,z
-x,-y,1/2+z
x,-y,-z
-x,y,1/2-z
1/2+x,1/2+y,z
1/2-x,1/2-y,1/2+z
1/2+x,1/2-y,-z
1/2-x,1/2+y,1/2-z
loop_
_atom_site_type_symbol
_atom_site_label
_atom_site_fract_x
_atom_site_fract_y
_atom_site_fract_z
Si Si1 0.067454 0.242688 0.152323
Si Si2 0.394812 0.249568 0.192285
Si Si3 0.235505 0.963020 0.750822
Si Si4 0.667229 0.000000 0.000000
Si Si5 0.549215 0.500000 0.500000
O O1 0.161794 0.179440 0.216740
O O2 0.099480 0.354620 0.043698
O O3 0.000000 0.325072 0.250000
O O4 0.012294 0.086332 0.102072
O O5 0.500000 0.230097 0.250000
O O6 0.333378 0.083016 0.180927
O O7 0.326622 0.372373 0.270196
O O8 0.401810 0.348449 0.068119
O O9 0.268901 0.958666 0.613786
#
# Coordination Sequence:
#
# PCOD9321990 Si02
#       5
#     8   8   8   4   4
#     4  12  27  46  76 111 151 200 258 310 382 460
#     4  12  25  48  77 109 157 200 252 312 379 449
#     4  12  25  49  74 109 149 201 255 313 372 456
#     4  12  29  46  74 109 154 196 257 320 385 444
#     4  12  23  48  78 111 154 208 237 316 387 450
#
# _framework density 24.884927000000001
#
# number of rings (size 3 to 8) (size 9 to 14) (size 15 to 20)
#    0.000    0.000    7.500    2.250    0.000    3.000 
#    0.000    0.000    0.000    1.500    0.000    0.000 
#    0.000    0.000    0.000    0.000    0.000    0.000 
#
# Total GULP energy -89507.867017 kJ/mol
# GULP energy per Si atom -5594.241689 kJ/mol
# Density = 2.482829 g / cm^3
# Si number density = 24.884927 Si / 1000 Ang^3
#
#
#
# Elastic Constant Matrix: (Units=GPa)
#
#
# Indices 1 2 3 4 5 6 
#
# 1 153.3004 39.1705 19.8735 0.0000 0.0000 0.0000
# 2 39.1705 67.3921 11.3360 0.0000 0.0000 0.0000
# 3 19.8735 11.3360 74.6826 0.0000 0.0000 0.0000
# 4 0.0000 0.0000 0.0000 44.9985 0.0000 0.0000
# 5 0.0000 0.0000 0.0000 0.0000 50.3813 0.0000
# 6 0.0000 0.0000 0.0000 0.0000 0.0000 2.3341
#
#
#
# Elastic Compliance Matrix: (Units=1/GPa)
#
#
# Indices 1 2 3 4 5 6 
#
# 1 0.007806 -0.004297 -0.001425 0.000000 0.000000 0.000000
# 2 -0.004297 0.017593 -0.001527 0.000000 0.000000 0.000000
# 3 -0.001425 -0.001527 0.014001 0.000000 0.000000 0.000000
# 4 0.000000 0.000000 0.000000 0.022223 0.000000 0.000000
# 5 0.000000 0.000000 0.000000 0.000000 0.019849 0.000000
# 6 0.000000 0.000000 0.000000 0.000000 0.000000 0.428423
#
#
# Mechanical properties :
#
#
# Convention : Reuss Voigt Hill
#
# Bulk Modulus (GPa) = 40.15793 48.45944 44.30868
# Shear Modulus (GPa) = 9.38627 34.54246 21.96436
#
# Velocity S-wave (km/s) = 1.94424 3.72975 2.97414
# Velocity P-wave (km/s) = 4.60571 6.16958 5.44409
#
# Compressibility (1/GPa) = 0.02490168
#
# Stress axis : x y z
#
# Youngs Moduli (GPa) = 128.10826 56.84035 71.42373
#
# Poissons Ratio (x) = 0.24426 0.10177
# Poissons Ratio (y) = 0.55053 0.10906
# Poissons Ratio (z) = 0.18254 0.08679
#
# Static dielectric constant tensor:
#      x y z
#    x 2.027970 0.000000 0.000000 
#    y 0.000000 2.005770 0.000000 
#    z 0.000000 0.000000 1.948170 
# 
# From -- ./inp_files/14689.got.cif
#   From: 2010.05.17/outbox.cif.g08.bks.cpg/sg20_8_cif.got.tgz:14689.got - 2010.06.03 22:52:26.
