data_PCOD9321521
_publ_section_title
;
Structure prediction by ZEFSAII (Michael W. Deem and Ramdas Pophale) SiO2 
 PCOD9321521
Probable space group: C 2 2 21
;
_chemical_formula_sum "Si O2"
_cell_formula_units_Z 40
_cell_length_a 26.870791
_cell_length_b 12.816779
_cell_length_c 5.114738
_cell_angle_alpha 90.000000
_cell_angle_beta 90.000000
_cell_angle_gamma 90.000000
_cell_volume 1761.500371
_symmetry_space_group_name_H-M "C 2 2 21"
_symmetry_group_IT_number 20
_symmetry_cell_setting 'orthorhombic'
loop_
_space_group_symop_operation_xyz
x,y,z
-x,-y,1/2+z
x,-y,-z
-x,y,1/2-z
1/2+x,1/2+y,z
1/2-x,1/2-y,1/2+z
1/2+x,1/2-y,-z
1/2-x,1/2+y,1/2-z
loop_
_atom_site_type_symbol
_atom_site_label
_atom_site_fract_x
_atom_site_fract_y
_atom_site_fract_z
Si Si1 0.556736 0.799605 0.198234
Si Si2 0.619858 0.164396 0.324271
Si Si3 0.185420 0.790921 0.673952
Si Si4 0.903937 0.928937 0.742802
Si Si5 0.210679 0.611178 0.061055
O O1 0.500000 0.829093 0.250000
O O2 0.589045 0.858488 0.417005
O O3 0.563129 0.675917 0.259997
O O4 0.581187 0.816909 0.912738
O O5 0.655347 0.264327 0.405349
O O6 0.663319 0.086456 0.242502
O O7 0.151419 0.880716 0.799143
O O8 0.187235 0.683237 0.835042
O O9 0.242315 0.824587 0.663137
O O10 0.918823 0.000000 0.500000
O O11 0.905588 0.000000 0.000000
O O12 0.233381 0.500000 0.000000
#
# Coordination Sequence:
#
# PCOD9321521 Si02
#       5
#     8   8   8   8   8
#     4  11  24  43  71  99 133 183 230 290 354 405
#     4  11  22  45  68  98 140 180 225 283 343 408
#     4  11  24  43  67 101 151 182 224 275 348 410
#     4  11  23  39  66  99 139 181 223 277 342 414
#     4  12  25  42  72 106 140 190 233 279 335 420
#
# _framework density 22.707915
#
# number of rings (size 3 to 8) (size 9 to 14) (size 15 to 20)
#    0.000    0.800    6.000    3.600    0.000    3.200 
#    0.000    0.000    0.000    2.400    0.000    0.000 
#    0.000    0.000    0.000    0.000    0.000    0.000 
#
# Total GULP energy -111634.758088 kJ/mol
# GULP energy per Si atom -5581.737904 kJ/mol
# Density = 2.265623 g / cm^3
# Si number density = 22.707915 Si / 1000 Ang^3
#
#
#
# Elastic Constant Matrix: (Units=GPa)
#
#
# Indices 1 2 3 4 5 6 
#
# 1 164.1431 -19.4171 30.0556 0.0000 0.0000 0.0000
# 2 -19.4171 22.0220 11.9756 0.0000 0.0000 0.0000
# 3 30.0556 11.9756 104.3218 0.0000 0.0000 0.0000
# 4 0.0000 0.0000 0.0000 16.9406 0.0000 0.0000
# 5 0.0000 0.0000 0.0000 0.0000 33.0441 0.0000
# 6 0.0000 0.0000 0.0000 0.0000 0.0000 16.7861
#
#
#
# Elastic Compliance Matrix: (Units=1/GPa)
#
#
# Indices 1 2 3 4 5 6 
#
# 1 0.007683 0.008509 -0.003190 0.000000 0.000000 0.000000
# 2 0.008509 0.057857 -0.009093 0.000000 0.000000 0.000000
# 3 -0.003190 -0.009093 0.011549 0.000000 0.000000 0.000000
# 4 0.000000 0.000000 0.000000 0.059030 0.000000 0.000000
# 5 0.000000 0.000000 0.000000 0.000000 0.030263 0.000000
# 6 0.000000 0.000000 0.000000 0.000000 0.000000 0.059573
#
#
# Mechanical properties :
#
#
# Convention : Reuss Voigt Hill
#
# Bulk Modulus (GPa) = 14.38028 37.30165 25.84097
# Shear Modulus (GPa) = 19.47932 31.21234 25.34583
#
# Velocity S-wave (km/s) = 2.93204 3.71147 3.34453
# Velocity P-wave (km/s) = 4.22006 5.90161 5.13020
#
# Compressibility (1/GPa) = 0.06953965
#
# Stress axis : x y z
#
# Youngs Moduli (GPa) = 130.15772 17.28410 86.58975
#
# Poissons Ratio (x) = -0.14707 0.27625
# Poissons Ratio (y) = -1.10753 0.78737
# Poissons Ratio (z) = 0.41524 0.15717
#
# Static dielectric constant tensor:
#      x y z
#    x 1.857370 0.000000 0.000000 
#    y 0.000000 1.853530 0.000000 
#    z 0.000000 0.000000 1.964570 
# 
# From -- ./inp_files/4043.got.cif
#   From: 2010.05.17/outbox.cif.g08.bks.cpg/sg20_3_cif.got.tgz:4043.got - 2010.06.03 22:52:26.
