data_PCOD9321233
_publ_section_title
;
Structure prediction by ZEFSAII (Michael W. Deem and Ramdas Pophale) SiO2 
 PCOD9321233
Probable space group: C 2 2 21
;
_chemical_formula_sum "Si O2"
_cell_formula_units_Z 64
_cell_length_a 22.437504
_cell_length_b 18.881508
_cell_length_c 9.523729
_cell_angle_alpha 90.000000
_cell_angle_beta 90.000000
_cell_angle_gamma 90.000000
_cell_volume 4034.765041
_symmetry_space_group_name_H-M "C 2 2 21"
_symmetry_group_IT_number 20
_symmetry_cell_setting 'orthorhombic'
loop_
_space_group_symop_operation_xyz
x,y,z
-x,-y,1/2+z
x,-y,-z
-x,y,1/2-z
1/2+x,1/2+y,z
1/2-x,1/2-y,1/2+z
1/2+x,1/2-y,-z
1/2-x,1/2+y,1/2-z
loop_
_atom_site_type_symbol
_atom_site_label
_atom_site_fract_x
_atom_site_fract_y
_atom_site_fract_z
Si Si1 0.739808 0.578436 0.833037
Si Si2 0.239870 0.081529 0.170757
Si Si3 0.133074 0.641020 0.716623
Si Si4 0.068601 0.416741 0.534872
Si Si5 0.365010 0.138801 0.288262
Si Si6 0.567196 0.081860 0.962736
Si Si7 0.809194 0.777273 0.328247
Si Si8 0.309417 0.726691 0.333744
O O1 0.724422 0.498816 0.789543
O O2 0.802905 0.602519 0.767087
O O3 0.690326 0.638478 0.803308
O O4 0.749738 0.580579 0.001982
O O5 0.301453 0.104770 0.245541
O O6 0.190636 0.142425 0.196612
O O7 0.112770 0.631783 0.556947
O O8 0.083306 0.598918 0.803533
O O9 0.140446 0.721185 0.771708
O O10 0.078944 0.500000 0.500000
O O11 0.085497 0.399175 0.693678
O O12 0.000413 0.399196 0.500410
O O13 0.384153 0.123552 0.446476
O O14 0.359182 0.223576 0.272476
O O15 0.574322 0.000000 0.000000
O O16 0.749835 0.752613 0.246991
O O17 0.803998 0.765521 0.497120
#
# Coordination Sequence:
#
# PCOD9321233 Si02
#       8
#     8   8   8   8   8   8   8   8
#     4   9  16  28  48  69  91 120 153 181 217 278
#     4   9  16  28  48  69  91 120 153 181 217 278
#     4  11  19  32  47  65  93 124 156 192 230 272
#     4  11  22  34  47  64  87 127 170 195 226 270
#     4  11  19  32  47  65  93 124 156 192 230 272
#     4  11  22  32  45  66  93 119 158 207 234 258
#     4   9  18  30  46  69  92 119 152 186 225 274
#     4   9  18  30  46  69  92 119 152 186 225 274
#
# _framework density 15.862138
#
# number of rings (size 3 to 8) (size 9 to 14) (size 15 to 20)
#    0.000    2.000    2.500    3.000    1.750    2.000 
#    0.000    0.000    0.000    0.000    0.000    0.000 
#    0.000    6.000    0.000    0.000    0.000    0.000 
#
# Total GULP energy -178173.712052 kJ/mol
# GULP energy per Si atom -5567.928502 kJ/mol
# Density = 1.582604 g / cm^3
# Si number density = 15.862138 Si / 1000 Ang^3
#
#
#
# Elastic Constant Matrix: (Units=GPa)
#
#
# Indices 1 2 3 4 5 6 
#
# 1 29.7736 26.6773 -4.8325 0.0000 0.0000 0.0000
# 2 26.6773 129.1861 7.8452 0.0000 0.0000 0.0000
# 3 -4.8325 7.8452 28.1731 0.0000 0.0000 0.0000
# 4 0.0000 0.0000 0.0000 22.8750 0.0000 0.0000
# 5 0.0000 0.0000 0.0000 0.0000 11.7641 0.0000
# 6 0.0000 0.0000 0.0000 0.0000 0.0000 16.3545
#
#
#
# Elastic Compliance Matrix: (Units=1/GPa)
#
#
# Indices 1 2 3 4 5 6 
#
# 1 0.043934 -0.009694 0.010235 0.000000 0.000000 0.000000
# 2 -0.009694 0.010013 -0.004451 0.000000 0.000000 0.000000
# 3 0.010235 -0.004451 0.038490 0.000000 0.000000 0.000000
# 4 0.000000 0.000000 0.000000 0.043716 0.000000 0.000000
# 5 0.000000 0.000000 0.000000 0.000000 0.085004 0.000000
# 6 0.000000 0.000000 0.000000 0.000000 0.000000 0.061145
#
#
# Mechanical properties :
#
#
# Convention : Reuss Voigt Hill
#
# Bulk Modulus (GPa) = 11.81788 27.39032 19.60410
# Shear Modulus (GPa) = 15.70710 20.69492 18.20101
#
# Velocity S-wave (km/s) = 3.15020 3.61595 3.39108
# Velocity P-wave (km/s) = 4.54953 5.89395 5.26483
#
# Compressibility (1/GPa) = 0.08461758
#
# Stress axis : x y z
#
# Youngs Moduli (GPa) = 22.76140 99.87084 25.98076
#
# Poissons Ratio (x) = 0.96816 -0.26593
# Poissons Ratio (y) = 0.22065 0.11564
# Poissons Ratio (z) = -0.23297 0.44453
#
# Static dielectric constant tensor:
#      x y z
#    x 1.508800 0.000000 0.000000 
#    y 0.000000 1.574080 0.000000 
#    z 0.000000 0.000000 1.530950 
# 
# From -- ./inp_files/9717.got.cif
#   From: 2010.05.17/outbox.cif.g08.bks.cpg/sg20_5_cif.got.tgz:9717.got - 2010.06.03 22:52:26.
