data_PCOD9321641
_publ_section_title
;
Structure prediction by ZEFSAII (Michael W. Deem and Ramdas Pophale) SiO2 
 PCOD9321641
Probable space group: C 2 2 21
;
_chemical_formula_sum "Si O2"
_cell_formula_units_Z 40
_cell_length_a 11.770999
_cell_length_b 14.727222
_cell_length_c 10.675511
_cell_angle_alpha 90.000000
_cell_angle_beta 90.000000
_cell_angle_gamma 90.000000
_cell_volume 1850.643766
_symmetry_space_group_name_H-M "C 2 2 21"
_symmetry_group_IT_number 20
_symmetry_cell_setting 'orthorhombic'
loop_
_space_group_symop_operation_xyz
x,y,z
-x,-y,1/2+z
x,-y,-z
-x,y,1/2-z
1/2+x,1/2+y,z
1/2-x,1/2-y,1/2+z
1/2+x,1/2-y,-z
1/2-x,1/2+y,1/2-z
loop_
_atom_site_type_symbol
_atom_site_label
_atom_site_fract_x
_atom_site_fract_y
_atom_site_fract_z
Si Si1 0.662154 0.211814 0.736570
Si Si2 0.377621 0.172768 0.313712
Si Si3 0.957247 0.933704 0.108422
Si Si4 0.519363 0.255927 0.957778
Si Si5 0.808180 0.522339 0.637808
O O1 0.789932 0.248375 0.725665
O O2 0.598547 0.276058 0.837814
O O3 0.596917 0.220596 0.604708
O O4 0.646516 0.109104 0.786081
O O5 0.500000 0.177622 0.250000
O O6 0.405887 0.188151 0.459430
O O7 0.323267 0.073710 0.291696
O O8 0.823090 0.951989 0.116194
O O9 0.000000 0.945779 0.250000
O O10 0.987273 0.836190 0.051566
O O11 0.004707 0.000000 0.000000
O O12 0.857900 0.500000 0.500000
#
# Coordination Sequence:
#
# PCOD9321641 Si02
#       5
#     8   8   8   8   8
#     4  11  25  46  74 107 149 199 255 316 383 465
#     4  12  27  44  76 106 149 194 248 315 388 460
#     4  11  25  45  75 110 149 200 256 317 380 457
#     4  11  25  45  74 104 150 199 257 310 382 456
#     4  11  23  45  71 104 152 197 243 314 389 446
#
# _framework density 21.614101000000002
#
# number of rings (size 3 to 8) (size 9 to 14) (size 15 to 20)
#    0.000    0.800    2.000    5.400   11.200    0.000 
#    0.000    0.000    0.000    0.000    0.000    0.000 
#    0.000    0.000    0.000    0.000    0.000    0.000 
#
# Total GULP energy -111640.722625 kJ/mol
# GULP energy per Si atom -5582.036131 kJ/mol
# Density = 2.156491 g / cm^3
# Si number density = 21.614101 Si / 1000 Ang^3
#
#
#
# Elastic Constant Matrix: (Units=GPa)
#
#
# Indices 1 2 3 4 5 6 
#
# 1 84.1224 39.6205 15.7078 0.0000 0.0000 0.0000
# 2 39.6205 150.7177 53.3420 0.0000 0.0000 0.0000
# 3 15.7078 53.3420 124.3378 0.0000 0.0000 0.0000
# 4 0.0000 0.0000 0.0000 39.8419 0.0000 0.0000
# 5 0.0000 0.0000 0.0000 0.0000 40.0613 0.0000
# 6 0.0000 0.0000 0.0000 0.0000 0.0000 12.1781
#
#
#
# Elastic Compliance Matrix: (Units=1/GPa)
#
#
# Indices 1 2 3 4 5 6 
#
# 1 0.013572 -0.003491 -0.000217 0.000000 0.000000 0.000000
# 2 -0.003491 0.008721 -0.003300 0.000000 0.000000 0.000000
# 3 -0.000217 -0.003300 0.009486 0.000000 0.000000 0.000000
# 4 0.000000 0.000000 0.000000 0.025099 0.000000 0.000000
# 5 0.000000 0.000000 0.000000 0.000000 0.024962 0.000000
# 6 0.000000 0.000000 0.000000 0.000000 0.000000 0.082115
#
#
# Mechanical properties :
#
#
# Convention : Reuss Voigt Hill
#
# Bulk Modulus (GPa) = 56.29895 64.05762 60.17828
# Shear Modulus (GPa) = 27.18996 35.11677 31.15336
#
# Velocity S-wave (km/s) = 3.55064 4.03515 3.80062
# Velocity P-wave (km/s) = 6.55082 7.17016 6.86748
#
# Compressibility (1/GPa) = 0.01776232
#
# Stress axis : x y z
#
# Youngs Moduli (GPa) = 73.68008 114.67021 105.42049
#
# Poissons Ratio (x) = 0.40032 0.02286
# Poissons Ratio (y) = 0.25722 0.34791
# Poissons Ratio (z) = 0.01598 0.37844
#
# Static dielectric constant tensor:
#      x y z
#    x 1.776820 0.000000 0.000000 
#    y 0.000000 1.875670 0.000000 
#    z 0.000000 0.000000 1.869660 
# 
# From -- ./inp_files/13874.got.cif
#   From: 2010.05.17/outbox.cif.g08.bks.cpg/sg20_7_cif.got.tgz:13874.got - 2010.06.03 22:52:26.
