data_PCOD9321763
_publ_section_title
;
Structure prediction by ZEFSAII (Michael W. Deem and Ramdas Pophale) SiO2 
 PCOD9321763
Probable space group: C 2 2 21
;
_chemical_formula_sum "Si O2"
_cell_formula_units_Z 20
_cell_length_a 18.113558
_cell_length_b 8.445026
_cell_length_c 5.100654
_cell_angle_alpha 90.000000
_cell_angle_beta 90.000000
_cell_angle_gamma 90.000000
_cell_volume 780.244330
_symmetry_space_group_name_H-M "C 2 2 21"
_symmetry_group_IT_number 20
_symmetry_cell_setting 'orthorhombic'
loop_
_space_group_symop_operation_xyz
x,y,z
-x,-y,1/2+z
x,-y,-z
-x,y,1/2-z
1/2+x,1/2+y,z
1/2-x,1/2-y,1/2+z
1/2+x,1/2-y,-z
1/2-x,1/2+y,1/2-z
loop_
_atom_site_type_symbol
_atom_site_label
_atom_site_fract_x
_atom_site_fract_y
_atom_site_fract_z
Si Si1 0.235690 0.609496 0.749115
Si Si2 0.500000 0.904339 0.250000
Si Si3 0.622245 0.677678 0.484815
O O1 0.219604 0.500000 0.500000
O O2 0.320640 0.667104 0.771656
O O3 0.183021 0.761299 0.725558
O O4 0.221498 0.500000 0.000000
O O5 0.557233 0.797820 0.417080
O O6 0.464804 0.000000 0.500000
O O7 0.590839 0.500000 0.500000
#
# Coordination Sequence:
#
# PCOD9321763 Si02
#       3
#     8   4   8
#     4  11  24  45  77 115 151 189 241 308 379 443
#     4  12  30  52  74 104 154 206 246 302 376 446
#     4  11  25  47  78 111 148 193 251 309 365 440
#
# _framework density 25.632997
#
# number of rings (size 3 to 8) (size 9 to 14) (size 15 to 20)
#    0.000    0.800    0.000    7.200    0.000   11.200 
#    0.000    6.000    0.000    0.000    0.000    0.000 
#    0.000    0.000    0.000    0.000    0.000    0.000 
#
# Total GULP energy -55692.764246 kJ/mol
# GULP energy per Si atom -5569.276425 kJ/mol
# Density = 2.557466 g / cm^3
# Si number density = 25.632997 Si / 1000 Ang^3
#
#
#
# Elastic Constant Matrix: (Units=GPa)
#
#
# Indices 1 2 3 4 5 6 
#
# 1 94.1688 31.4393 -0.5698 0.0000 0.0000 0.0000
# 2 31.4393 150.0225 79.7527 0.0000 0.0000 0.0000
# 3 -0.5698 79.7527 217.4746 0.0000 0.0000 0.0000
# 4 0.0000 0.0000 0.0000 55.8013 0.0000 0.0000
# 5 0.0000 0.0000 0.0000 0.0000 24.5564 0.0000
# 6 0.0000 0.0000 0.0000 0.0000 0.0000 80.6471
#
#
#
# Elastic Compliance Matrix: (Units=1/GPa)
#
#
# Indices 1 2 3 4 5 6 
#
# 1 0.011645 -0.003051 0.001150 0.000000 0.000000 0.000000
# 2 -0.003051 0.009079 -0.003338 0.000000 0.000000 0.000000
# 3 0.001150 -0.003338 0.005825 0.000000 0.000000 0.000000
# 4 0.000000 0.000000 0.000000 0.017921 0.000000 0.000000
# 5 0.000000 0.000000 0.000000 0.000000 0.040723 0.000000
# 6 0.000000 0.000000 0.000000 0.000000 0.000000 0.012400
#
#
# Mechanical properties :
#
#
# Convention : Reuss Voigt Hill
#
# Bulk Modulus (GPa) = 62.22569 75.87893 69.05231
# Shear Modulus (GPa) = 44.08059 55.60388 49.84223
#
# Velocity S-wave (km/s) = 4.15140 4.66255 4.41438
# Velocity P-wave (km/s) = 6.87802 7.65847 7.27871
#
# Compressibility (1/GPa) = 0.01607053
#
# Stress axis : x y z
#
# Youngs Moduli (GPa) = 85.87418 110.13893 171.66706
#
# Poissons Ratio (x) = 0.33609 -0.19734
# Poissons Ratio (y) = 0.26204 0.57296
# Poissons Ratio (z) = -0.09872 0.36760
#
# Static dielectric constant tensor:
#      x y z
#    x 2.040320 0.000000 0.000000 
#    y 0.000000 2.189540 0.000000 
#    z 0.000000 0.000000 1.990290 
# 
# From -- ./inp_files/2308.got.cif
#   From: 2010.05.17/outbox.cif.g08.bks.cpg/sg20_2_cif.got.tgz:2308.got - 2010.06.03 22:52:26.
