data_PCOD9321090
_publ_section_title
;
Structure prediction by ZEFSAII (Michael W. Deem and Ramdas Pophale) SiO2 
 PCOD9321090
Probable space group: C 2 2 21
;
_chemical_formula_sum "Si O2"
_cell_formula_units_Z 32
_cell_length_a 11.661505
_cell_length_b 7.862002
_cell_length_c 15.068029
_cell_angle_alpha 90.000000
_cell_angle_beta 90.000000
_cell_angle_gamma 90.000000
_cell_volume 1381.478722
_symmetry_space_group_name_H-M "C 2 2 21"
_symmetry_group_IT_number 20
_symmetry_cell_setting 'orthorhombic'
loop_
_space_group_symop_operation_xyz
x,y,z
-x,-y,1/2+z
x,-y,-z
-x,y,1/2-z
1/2+x,1/2+y,z
1/2-x,1/2-y,1/2+z
1/2+x,1/2-y,-z
1/2-x,1/2+y,1/2-z
loop_
_atom_site_type_symbol
_atom_site_label
_atom_site_fract_x
_atom_site_fract_y
_atom_site_fract_z
Si Si1 0.193699 0.665308 0.839150
Si Si2 0.005677 0.302602 0.477745
Si Si3 0.554092 0.694883 0.661489
Si Si4 0.167358 0.846039 0.657389
O O1 0.315949 0.758201 0.857148
O O2 0.169509 0.712030 0.736949
O O3 0.219108 0.463223 0.851057
O O4 0.094657 0.719254 0.905674
O O5 0.016094 0.500000 0.500000
O O6 0.984281 0.211454 0.571335
O O7 0.122308 0.234430 0.432995
O O8 0.500000 0.772223 0.750000
O O9 0.578300 0.496797 0.679548
#
# Coordination Sequence:
#
# PCOD9321090 Si02
#       4
#     8   8   8   8
#     4  10  26  46  76 106 146 199 240 306 374 428
#     4  12  27  42  74 107 151 189 248 301 366 446
#     4  10  25  44  73 107 145 194 246 304 363 438
#     4  10  25  48  72 108 144 189 249 299 366 437
#
# _framework density 23.163585999999999
#
# number of rings (size 3 to 8) (size 9 to 14) (size 15 to 20)
#    1.500    0.000    0.000    3.000   10.500    0.000 
#    0.000    2.500    0.000    0.000    0.000    0.000 
#    0.000    0.000    0.000    0.000    0.000    0.000 
#
# Total GULP energy -89291.656424 kJ/mol
# GULP energy per Si atom -5580.728527 kJ/mol
# Density = 2.311086 g / cm^3
# Si number density = 23.163586 Si / 1000 Ang^3
#
#
#
# Elastic Constant Matrix: (Units=GPa)
#
#
# Indices 1 2 3 4 5 6 
#
# 1 59.1080 45.1727 65.1620 0.0000 0.0000 0.0000
# 2 45.1727 13.1322 -7.3692 0.0000 0.0000 0.0000
# 3 65.1620 -7.3692 151.6381 0.0000 0.0000 0.0000
# 4 0.0000 0.0000 0.0000 37.5812 0.0000 0.0000
# 5 0.0000 0.0000 0.0000 0.0000 25.3087 0.0000
# 6 0.0000 0.0000 0.0000 0.0000 0.0000 23.1687
#
#
#
# Elastic Compliance Matrix: (Units=1/GPa)
#
#
# Indices 1 2 3 4 5 6 
#
# 1 -0.006587 0.024926 0.004042 0.000000 0.000000 0.000000
# 2 0.024926 -0.016040 -0.011491 0.000000 0.000000 0.000000
# 3 0.004042 -0.011491 0.004299 0.000000 0.000000 0.000000
# 4 0.000000 0.000000 0.000000 0.026609 0.000000 0.000000
# 5 0.000000 0.000000 0.000000 0.000000 0.039512 0.000000
# 6 0.000000 0.000000 0.000000 0.000000 0.000000 0.043162
#
#
# Mechanical properties :
#
#
# Convention : Reuss Voigt Hill
#
# Bulk Modulus (GPa) = 60.14423 47.75659 53.95041
# Shear Modulus (GPa) = 81.24234 25.27256 53.25745
#
# Velocity S-wave (km/s) = 5.92870 3.30668 4.80019
# Velocity P-wave (km/s) = 8.53740 5.93639 7.35282
#
# Compressibility (1/GPa) = 0.01662670
#
# Stress axis : x y z
#
# Youngs Moduli (GPa) = -151.81942 -62.34530 232.59061
#
# Poissons Ratio (x) = 1.55400 -0.94008
# Poissons Ratio (y) = 3.78420 2.67259
# Poissons Ratio (z) = 0.61362 -0.71638
#
# Static dielectric constant tensor:
#      x y z
#    x 1.934910 0.000000 0.000000 
#    y 0.000000 1.919570 0.000000 
#    z 0.000000 0.000000 1.843670 
# 
# From -- ./inp_files/14669.got.cif
#   From: 2010.05.17/outbox.cif.g08.bks.cpg/sg20_8_cif.got.tgz:14669.got - 2010.06.03 22:52:26.
