data_PCOD9321831
_publ_section_title
;
Structure prediction by ZEFSAII (Michael W. Deem and Ramdas Pophale) SiO2 
 PCOD9321831
Probable space group: C 2 2 21
;
_chemical_formula_sum "Si O2"
_cell_formula_units_Z 20
_cell_length_a 7.117535
_cell_length_b 14.211942
_cell_length_c 7.455508
_cell_angle_alpha 90.000000
_cell_angle_beta 90.000000
_cell_angle_gamma 90.000000
_cell_volume 754.154416
_symmetry_space_group_name_H-M "C 2 2 21"
_symmetry_group_IT_number 20
_symmetry_cell_setting 'orthorhombic'
loop_
_space_group_symop_operation_xyz
x,y,z
-x,-y,1/2+z
x,-y,-z
-x,y,1/2-z
1/2+x,1/2+y,z
1/2-x,1/2-y,1/2+z
1/2+x,1/2-y,-z
1/2-x,1/2+y,1/2-z
loop_
_atom_site_type_symbol
_atom_site_label
_atom_site_fract_x
_atom_site_fract_y
_atom_site_fract_z
Si Si1 0.742262 0.854682 0.609263
Si Si2 0.574998 0.000000 0.000000
Si Si3 0.139985 0.140901 0.524839
O O1 0.806280 0.864609 0.814247
O O2 0.683581 0.746094 0.586044
O O3 0.917322 0.875983 0.476678
O O4 0.568507 0.921812 0.571186
O O5 0.722677 0.064066 0.886076
#
# Coordination Sequence:
#
# PCOD9321831 Si02
#       3
#     8   4   8
#     4  11  25  45  72 106 143 185 236 294 354 419
#     4  12  24  44  72 102 142 192 234 280 358 426
#     4  11  25  45  72 106 143 185 236 294 354 419
#
# _framework density 26.519769
#
# number of rings (size 3 to 8) (size 9 to 14) (size 15 to 20)
#    0.000    0.800    4.000    2.400    0.000    6.400 
#    0.000    0.000    0.000    0.000    0.000    0.000 
#    0.000    0.000    0.000    0.000    0.000    0.000 
#
# Total GULP energy -56045.915027 kJ/mol
# GULP energy per Si atom -5604.591503 kJ/mol
# Density = 2.645941 g / cm^3
# Si number density = 26.519769 Si / 1000 Ang^3
#
#
#
# Elastic Constant Matrix: (Units=GPa)
#
#
# Indices 1 2 3 4 5 6 
#
# 1 253.9174 103.5495 40.1792 0.0000 0.0000 0.0000
# 2 103.5495 253.9902 35.6876 0.0000 0.0000 0.0000
# 3 40.1792 35.6876 50.0073 0.0000 0.0000 0.0000
# 4 0.0000 0.0000 0.0000 13.2894 0.0000 0.0000
# 5 0.0000 0.0000 0.0000 0.0000 36.8616 0.0000
# 6 0.0000 0.0000 0.0000 0.0000 0.0000 45.2342
#
#
#
# Elastic Compliance Matrix: (Units=1/GPa)
#
#
# Indices 1 2 3 4 5 6 
#
# 1 0.005074 -0.001662 -0.002890 0.000000 0.000000 0.000000
# 2 -0.001662 0.004921 -0.002176 0.000000 0.000000 0.000000
# 3 -0.002890 -0.002176 0.023872 0.000000 0.000000 0.000000
# 4 0.000000 0.000000 0.000000 0.075248 0.000000 0.000000
# 5 0.000000 0.000000 0.000000 0.000000 0.027129 0.000000
# 6 0.000000 0.000000 0.000000 0.000000 0.000000 0.022107
#
#
# Mechanical properties :
#
#
# Convention : Reuss Voigt Hill
#
# Bulk Modulus (GPa) = 48.99695 101.86081 75.42888
# Shear Modulus (GPa) = 27.99402 44.31028 36.15215
#
# Velocity S-wave (km/s) = 3.25251 4.09202 3.69618
# Velocity P-wave (km/s) = 5.71147 7.79865 6.83520
#
# Compressibility (1/GPa) = 0.02040943
#
# Stress axis : x y z
#
# Youngs Moduli (GPa) = 197.10159 203.22626 41.89003
#
# Poissons Ratio (x) = 0.33783 0.12107
# Poissons Ratio (y) = 0.32765 0.09115
# Poissons Ratio (z) = 0.56964 0.44221
#
# Static dielectric constant tensor:
#      x y z
#    x 2.078800 0.000000 0.000000 
#    y 0.000000 1.999020 0.000000 
#    z 0.000000 0.000000 2.209300 
# 
# From -- ./inp_files/5403.got.cif
#   From: 2010.05.17/outbox.cif.g08.bks.cpg/sg20_3_cif.got.tgz:5403.got - 2010.06.03 22:52:26.
