data_PCOD9321596
_publ_section_title
;
Structure prediction by ZEFSAII (Michael W. Deem and Ramdas Pophale) SiO2 
 PCOD9321596
Probable space group: C 2 2 21
;
_chemical_formula_sum "Si O2"
_cell_formula_units_Z 56
_cell_length_a 16.239991
_cell_length_b 11.105501
_cell_length_c 14.947321
_cell_angle_alpha 90.000000
_cell_angle_beta 90.000000
_cell_angle_gamma 90.000000
_cell_volume 2695.797716
_symmetry_space_group_name_H-M "C 2 2 21"
_symmetry_group_IT_number 20
_symmetry_cell_setting 'orthorhombic'
loop_
_space_group_symop_operation_xyz
x,y,z
-x,-y,1/2+z
x,-y,-z
-x,y,1/2-z
1/2+x,1/2+y,z
1/2-x,1/2-y,1/2+z
1/2+x,1/2-y,-z
1/2-x,1/2+y,1/2-z
loop_
_atom_site_type_symbol
_atom_site_label
_atom_site_fract_x
_atom_site_fract_y
_atom_site_fract_z
Si Si1 0.804956 0.241200 0.374256
Si Si2 0.572293 0.677214 0.513238
Si Si3 0.274782 0.528135 0.904305
Si Si4 0.233714 0.286657 0.811174
Si Si5 0.943176 0.814688 0.337970
Si Si6 0.705447 0.135803 0.536259
Si Si7 0.035424 0.908931 0.849762
O O1 0.788901 0.382004 0.359396
O O2 0.749565 0.191929 0.293233
O O3 0.771169 0.202694 0.471070
O O4 0.895578 0.191284 0.363964
O O5 0.639889 0.599306 0.571688
O O6 0.499118 0.716271 0.577751
O O7 0.620814 0.793950 0.480397
O O8 0.531861 0.608109 0.428550
O O9 0.278853 0.401015 0.856053
O O10 0.237494 0.500000 0.000000
O O11 0.136869 0.267245 0.827394
O O12 0.270711 0.168195 0.861542
O O13 0.000000 0.807788 0.250000
O O14 0.924216 0.957496 0.353117
O O15 0.703296 0.000000 0.500000
O O16 0.000000 0.896770 0.750000
#
# Coordination Sequence:
#
# PCOD9321596 Si02
#       7
#     8   8   8   8   8   8   8
#     4  11  25  42  68  99 134 176 234 275 346 410
#     4  11  23  43  68  95 134 175 226 284 344 406
#     4  11  23  44  70  93 137 185 227 274 347 416
#     4  12  25  43  72  98 137 180 232 282 346 415
#     4  11  24  40  66  98 132 175 228 286 343 402
#     4  11  24  43  66  97 132 178 227 284 342 412
#     4  11  24  40  67  98 134 173 232 289 340 400
#
# _framework density 20.773071000000002
#
# number of rings (size 3 to 8) (size 9 to 14) (size 15 to 20)
#    0.000    0.857    2.857    5.571    8.000    0.000 
#    2.571    0.714    0.000    0.000    0.000    0.000 
#    0.000    0.000    0.000    0.000    0.000    0.000 
#
# Total GULP energy -156277.848713 kJ/mol
# GULP energy per Si atom -5581.351740 kJ/mol
# Density = 2.072579 g / cm^3
# Si number density = 20.773071 Si / 1000 Ang^3
#
#
#
# Elastic Constant Matrix: (Units=GPa)
#
#
# Indices 1 2 3 4 5 6 
#
# 1 108.3047 30.1548 8.3668 0.0000 0.0000 0.0000
# 2 30.1548 58.3987 -24.2523 0.0000 0.0000 0.0000
# 3 8.3668 -24.2523 50.8420 0.0000 0.0000 0.0000
# 4 0.0000 0.0000 0.0000 22.2713 0.0000 0.0000
# 5 0.0000 0.0000 0.0000 0.0000 11.0687 0.0000
# 6 0.0000 0.0000 0.0000 0.0000 0.0000 17.1143
#
#
#
# Elastic Compliance Matrix: (Units=1/GPa)
#
#
# Indices 1 2 3 4 5 6 
#
# 1 0.012191 -0.008889 -0.006246 0.000000 0.000000 0.000000
# 2 -0.008889 0.027835 0.014740 0.000000 0.000000 0.000000
# 3 -0.006246 0.014740 0.027728 0.000000 0.000000 0.000000
# 4 0.000000 0.000000 0.000000 0.044901 0.000000 0.000000
# 5 0.000000 0.000000 0.000000 0.000000 0.090345 0.000000
# 6 0.000000 0.000000 0.000000 0.000000 0.000000 0.058431
#
#
# Mechanical properties :
#
#
# Convention : Reuss Voigt Hill
#
# Bulk Modulus (GPa) = 14.93322 27.34266 21.13794
# Shear Modulus (GPa) = 17.57218 23.64260 20.60739
#
# Velocity S-wave (km/s) = 2.91161 3.37729 3.15306
# Velocity P-wave (km/s) = 4.30205 5.32909 4.84288
#
# Compressibility (1/GPa) = 0.06696478
#
# Stress axis : x y z
#
# Youngs Moduli (GPa) = 82.03050 35.92600 36.06451
#
# Poissons Ratio (x) = 0.31934 0.22527
# Poissons Ratio (y) = 0.72915 -0.53161
# Poissons Ratio (z) = 0.51238 -0.52957
#
# Static dielectric constant tensor:
#      x y z
#    x 1.734970 0.000000 0.000000 
#    y 0.000000 7.986780 0.000000 
#    z 0.000000 0.000000 1.841690 
# 
# From -- ./inp_files/20713.got.cif
#   From: 2010.05.17/outbox.cif.g08.bks.cpg/sg20_11_cif.got.tgz:20713.got - 2010.06.03 22:52:26.
