data_PCOD9321920
_publ_section_title
;
Structure prediction by ZEFSAII (Michael W. Deem and Ramdas Pophale) SiO2 
 PCOD9321920
Probable space group: C 2 2 21
;
_chemical_formula_sum "Si O2"
_cell_formula_units_Z 56
_cell_length_a 14.096347
_cell_length_b 14.381209
_cell_length_c 12.266057
_cell_angle_alpha 90.000000
_cell_angle_beta 90.000000
_cell_angle_gamma 90.000000
_cell_volume 2486.605892
_symmetry_space_group_name_H-M "C 2 2 21"
_symmetry_group_IT_number 20
_symmetry_cell_setting 'orthorhombic'
loop_
_space_group_symop_operation_xyz
x,y,z
-x,-y,1/2+z
x,-y,-z
-x,y,1/2-z
1/2+x,1/2+y,z
1/2-x,1/2-y,1/2+z
1/2+x,1/2-y,-z
1/2-x,1/2+y,1/2-z
loop_
_atom_site_type_symbol
_atom_site_label
_atom_site_fract_x
_atom_site_fract_y
_atom_site_fract_z
Si Si1 0.284508 0.500000 0.500000
Si Si2 0.191813 0.509231 0.260927
Si Si3 0.195326 0.272083 0.745995
Si Si4 0.156396 0.056724 0.398204
Si Si5 0.897189 0.320481 0.210759
Si Si6 0.000000 0.011233 0.250000
Si Si7 0.885453 0.231290 0.991378
Si Si8 0.418846 0.357283 0.414703
O O1 0.230048 0.500589 0.384820
O O2 0.348360 0.406832 0.498729
O O3 0.174830 0.618194 0.239118
O O4 0.269610 0.492655 0.165876
O O5 0.116343 0.427219 0.251219
O O6 0.305027 0.237768 0.748706
O O7 0.155248 0.252391 0.626052
O O8 0.137661 0.213469 0.836468
O O9 0.182283 0.154806 0.450402
O O10 0.117188 0.000000 0.500000
O O11 0.076223 0.073400 0.309797
O O12 0.000000 0.286972 0.250000
O O13 0.893152 0.313275 0.078936
O O14 0.046657 0.941805 0.162691
O O15 0.990204 0.188815 0.970918
#
# Coordination Sequence:
#
# PCOD9321920 Si02
#       8
#     4   8   8   8   8   4   8   8
#     4  12  24  44  78 112 152 190 250 324 400 444
#     4  12  27  48  76 103 151 205 256 311 381 461
#     4  12  26  50  77 106 155 208 258 311 389 473
#     4  12  23  41  72 108 149 184 243 314 387 447
#     4  12  29  51  73 111 155 202 258 318 380 459
#     4  12  20  38  66 108 140 178 230 306 376 444
#     4  12  26  44  77 114 151 194 259 318 389 461
#     4  12  23  43  73 113 149 192 249 320 388 460
#
# _framework density 22.520658000000001
#
# number of rings (size 3 to 8) (size 9 to 14) (size 15 to 20)
#    0.000    0.000    7.143    2.571    3.000    1.143 
#    2.571    0.000    0.000    0.000    0.000    0.000 
#    0.000    0.000    0.000    0.000    0.000    0.000 
#
# Total GULP energy -156536.034349 kJ/mol
# GULP energy per Si atom -5590.572655 kJ/mol
# Density = 2.246940 g / cm^3
# Si number density = 22.520658 Si / 1000 Ang^3
#
#
#
# Elastic Constant Matrix: (Units=GPa)
#
#
# Indices 1 2 3 4 5 6 
#
# 1 76.7997 28.1380 36.1201 0.0000 0.0000 0.0000
# 2 28.1380 114.1175 28.7540 0.0000 0.0000 0.0000
# 3 36.1201 28.7540 88.0509 0.0000 0.0000 0.0000
# 4 0.0000 0.0000 0.0000 38.2879 0.0000 0.0000
# 5 0.0000 0.0000 0.0000 0.0000 28.9739 0.0000
# 6 0.0000 0.0000 0.0000 0.0000 0.0000 19.9879
#
#
#
# Elastic Compliance Matrix: (Units=1/GPa)
#
#
# Indices 1 2 3 4 5 6 
#
# 1 0.016826 -0.002626 -0.006045 0.000000 0.000000 0.000000
# 2 -0.002626 0.009958 -0.002175 0.000000 0.000000 0.000000
# 3 -0.006045 -0.002175 0.014547 0.000000 0.000000 0.000000
# 4 0.000000 0.000000 0.000000 0.026118 0.000000 0.000000
# 5 0.000000 0.000000 0.000000 0.000000 0.034514 0.000000
# 6 0.000000 0.000000 0.000000 0.000000 0.000000 0.050030
#
#
# Mechanical properties :
#
#
# Convention : Reuss Voigt Hill
#
# Bulk Modulus (GPa) = 50.91550 51.66581 51.29065
# Shear Modulus (GPa) = 27.74220 29.84700 28.79460
#
# Velocity S-wave (km/s) = 3.51359 3.64444 3.57961
# Velocity P-wave (km/s) = 6.25443 6.37970 6.31737
#
# Compressibility (1/GPa) = 0.01964039
#
# Stress axis : x y z
#
# Youngs Moduli (GPa) = 59.43236 100.41859 68.74269
#
# Poissons Ratio (x) = 0.26366 0.41554
# Poissons Ratio (y) = 0.15605 0.14951
# Poissons Ratio (z) = 0.35926 0.21840
#
# Static dielectric constant tensor:
#      x y z
#    x 1.871680 0.000000 0.000000 
#    y 0.000000 1.893410 0.000000 
#    z 0.000000 0.000000 1.788560 
# 
# From -- ./inp_files/15171.got.cif
#   From: 2010.05.17/outbox.cif.g08.bks.cpg/sg20_8_cif.got.tgz:15171.got - 2010.06.03 22:52:26.
