data_PCOD9321383
_publ_section_title
;
Structure prediction by ZEFSAII (Michael W. Deem and Ramdas Pophale) SiO2 
 PCOD9321383
Probable space group: C 2 2 21
;
_chemical_formula_sum "Si O2"
_cell_formula_units_Z 48
_cell_length_a 16.770145
_cell_length_b 9.661290
_cell_length_c 14.855377
_cell_angle_alpha 90.000000
_cell_angle_beta 90.000000
_cell_angle_gamma 90.000000
_cell_volume 2406.886516
_symmetry_space_group_name_H-M "C 2 2 21"
_symmetry_group_IT_number 20
_symmetry_cell_setting 'orthorhombic'
loop_
_space_group_symop_operation_xyz
x,y,z
-x,-y,1/2+z
x,-y,-z
-x,y,1/2-z
1/2+x,1/2+y,z
1/2-x,1/2-y,1/2+z
1/2+x,1/2-y,-z
1/2-x,1/2+y,1/2-z
loop_
_atom_site_type_symbol
_atom_site_label
_atom_site_fract_x
_atom_site_fract_y
_atom_site_fract_z
Si Si1 0.681179 0.840189 0.252643
Si Si2 0.405491 0.880176 0.745640
Si Si3 0.424071 0.590529 0.307928
Si Si4 0.196292 0.000000 0.500000
Si Si5 0.613642 0.500000 0.000000
Si Si6 0.295708 0.758902 0.588899
Si Si7 0.846089 0.881640 0.175081
O O1 0.642381 0.708149 0.205128
O O2 0.726520 0.793935 0.343129
O O3 0.752513 0.900868 0.192683
O O4 0.618141 0.962091 0.264488
O O5 0.500000 0.861547 0.750000
O O6 0.363796 0.830362 0.652031
O O7 0.366677 0.779142 0.820091
O O8 0.500000 0.637001 0.250000
O O9 0.434424 0.553946 0.412499
O O10 0.393009 0.454377 0.255961
O O11 0.253118 0.871621 0.526118
O O12 0.139932 0.956446 0.417889
O O13 0.667025 0.628833 0.964146
#
# Coordination Sequence:
#
# PCOD9321383 Si02
#       7
#     8   8   8   4   4   8   8
#     4  11  21  45  68  97 133 180 225 281 335 407
#     4  11  23  43  67  97 140 179 219 281 348 402
#     4  12  25  45  68 101 140 177 224 284 348 400
#     4  12  22  43  70  99 134 176 238 282 328 403
#     4  12  26  43  74  99 138 182 234 278 346 415
#     4  11  25  41  71 102 128 183 231 280 339 405
#     4  11  22  41  70  95 130 178 229 275 332 400
#
# _framework density 19.942777
#
# number of rings (size 3 to 8) (size 9 to 14) (size 15 to 20)
#    0.000    0.667    6.667    3.000    2.333    0.667 
#    0.000    0.000    0.000    0.000    0.000    0.000 
#    0.000    0.000    0.000    0.000    0.000    0.000 
#
# Total GULP energy -134075.354563 kJ/mol
# GULP energy per Si atom -5586.473107 kJ/mol
# Density = 1.989739 g / cm^3
# Si number density = 19.942777 Si / 1000 Ang^3
#
#
#
# Elastic Constant Matrix: (Units=GPa)
#
#
# Indices 1 2 3 4 5 6 
#
# 1 72.0033 3.8007 25.8314 0.0000 0.0000 0.0000
# 2 3.8007 84.3725 25.7036 0.0000 0.0000 0.0000
# 3 25.8314 25.7036 136.4035 0.0000 0.0000 0.0000
# 4 0.0000 0.0000 0.0000 24.2326 0.0000 0.0000
# 5 0.0000 0.0000 0.0000 0.0000 11.0735 0.0000
# 6 0.0000 0.0000 0.0000 0.0000 0.0000 29.2050
#
#
#
# Elastic Compliance Matrix: (Units=1/GPa)
#
#
# Indices 1 2 3 4 5 6 
#
# 1 0.014904 0.000200 -0.002860 0.000000 0.000000 0.000000
# 2 0.000200 0.012577 -0.002408 0.000000 0.000000 0.000000
# 3 -0.002860 -0.002408 0.008327 0.000000 0.000000 0.000000
# 4 0.000000 0.000000 0.000000 0.041267 0.000000 0.000000
# 5 0.000000 0.000000 0.000000 0.000000 0.090305 0.000000
# 6 0.000000 0.000000 0.000000 0.000000 0.000000 0.034241
#
#
# Mechanical properties :
#
#
# Convention : Reuss Voigt Hill
#
# Bulk Modulus (GPa) = 38.95424 44.82787 41.89105
# Shear Modulus (GPa) = 22.69500 28.73180 25.71340
#
# Velocity S-wave (km/s) = 3.37709 3.79979 3.59466
# Velocity P-wave (km/s) = 5.89761 6.46361 6.18708
#
# Compressibility (1/GPa) = 0.02567114
#
# Stress axis : x y z
#
# Youngs Moduli (GPa) = 67.09718 79.51198 120.09791
#
# Poissons Ratio (x) = -0.01590 0.34349
# Poissons Ratio (y) = -0.01342 0.28917
# Poissons Ratio (z) = 0.19190 0.19145
#
# Static dielectric constant tensor:
#      x y z
#    x 1.689030 0.000000 0.000000 
#    y 0.000000 1.687800 0.000000 
#    z 0.000000 0.000000 1.741780 
# 
# From -- ./inp_files/21340.got.cif
#   From: 2010.05.17/outbox.cif.g08.bks.cpg/sg20_11_cif.got.tgz:21340.got - 2010.06.03 22:52:26.
