data_PCOD9321125
_publ_section_title
;
Structure prediction by ZEFSAII (Michael W. Deem and Ramdas Pophale) SiO2 
 PCOD9321125
Probable space group: C 2 2 21
;
_chemical_formula_sum "Si O2"
_cell_formula_units_Z 56
_cell_length_a 32.419111
_cell_length_b 5.310621
_cell_length_c 14.826751
_cell_angle_alpha 90.000000
_cell_angle_beta 90.000000
_cell_angle_gamma 90.000000
_cell_volume 2552.656655
_symmetry_space_group_name_H-M "C 2 2 21"
_symmetry_group_IT_number 20
_symmetry_cell_setting 'orthorhombic'
loop_
_space_group_symop_operation_xyz
x,y,z
-x,-y,1/2+z
x,-y,-z
-x,y,1/2-z
1/2+x,1/2+y,z
1/2-x,1/2-y,1/2+z
1/2+x,1/2-y,-z
1/2-x,1/2+y,1/2-z
loop_
_atom_site_type_symbol
_atom_site_label
_atom_site_fract_x
_atom_site_fract_y
_atom_site_fract_z
Si Si1 0.960917 0.580122 0.812911
Si Si2 0.660397 0.751238 0.438808
Si Si3 0.582786 0.394883 0.102837
Si Si4 0.014250 0.101365 0.600130
Si Si5 0.245393 0.244974 0.940337
Si Si6 0.336378 0.068681 0.394643
Si Si7 0.620357 0.222954 0.753946
O O1 0.966661 0.871779 0.841829
O O2 0.917684 0.534242 0.764256
O O3 0.000000 0.528420 0.750000
O O4 0.963988 0.369297 0.889503
O O5 0.656827 0.500000 0.500000
O O6 0.707976 0.789234 0.406313
O O7 0.634497 0.713592 0.347348
O O8 0.650018 0.000000 0.500000
O O9 0.534380 0.352519 0.119319
O O10 0.617953 0.184995 0.104152
O O11 0.598652 0.576346 0.181388
O O12 0.584994 0.500000 0.000000
O O13 0.017224 0.000000 0.500000
O O14 0.205592 0.276549 0.876295
O O15 0.248930 0.500000 0.000000
O O16 0.236031 0.000000 0.000000
O O17 0.331438 0.000000 0.500000
O O18 0.341394 0.868748 0.314738
#
# Coordination Sequence:
#
# PCOD9321125 Si02
#       7
#     8   8   8   8   8   8   8
#     4  12  25  45  65  97 135 177 229 283 346 415
#     4  10  25  50  72 100 141 190 244 290 338 406
#     4  11  23  42  68 103 142 177 226 291 357 428
#     4  11  26  45  70  94 131 180 234 289 350 413
#     4   9  20  43  71  98 139 185 224 284 344 408
#     4  11  23  41  69 105 142 179 225 283 357 431
#     4  12  27  43  72 103 139 189 230 296 353 415
#
# _framework density 21.937926999999998
#
# number of rings (size 3 to 8) (size 9 to 14) (size 15 to 20)
#    0.000    1.143    2.857    2.143    6.000    1.714 
#    2.571    0.000    0.000    0.000    0.000    0.000 
#    0.000    0.000    0.000    0.000    0.000    0.000 
#
# Total GULP energy -156060.568050 kJ/mol
# GULP energy per Si atom -5573.591716 kJ/mol
# Density = 2.188800 g / cm^3
# Si number density = 21.937927 Si / 1000 Ang^3
#
#
#
# Elastic Constant Matrix: (Units=GPa)
#
#
# Indices 1 2 3 4 5 6 
#
# 1 83.3688 4.2865 53.4144 0.0000 0.0000 0.0000
# 2 4.2865 67.8905 30.1618 0.0000 0.0000 0.0000
# 3 53.4144 30.1618 128.0487 0.0000 0.0000 0.0000
# 4 0.0000 0.0000 0.0000 32.6455 0.0000 0.0000
# 5 0.0000 0.0000 0.0000 0.0000 59.0184 0.0000
# 6 0.0000 0.0000 0.0000 0.0000 0.0000 33.2030
#
#
#
# Elastic Compliance Matrix: (Units=1/GPa)
#
#
# Indices 1 2 3 4 5 6 
#
# 1 0.016679 0.002276 -0.007494 0.000000 0.000000 0.000000
# 2 0.002276 0.016762 -0.004898 0.000000 0.000000 0.000000
# 3 -0.007494 -0.004898 0.012089 0.000000 0.000000 0.000000
# 4 0.000000 0.000000 0.000000 0.030632 0.000000 0.000000
# 5 0.000000 0.000000 0.000000 0.000000 0.016944 0.000000
# 6 0.000000 0.000000 0.000000 0.000000 0.000000 0.030118
#
#
# Mechanical properties :
#
#
# Convention : Reuss Voigt Hill
#
# Bulk Modulus (GPa) = 39.52649 50.55925 45.04287
# Shear Modulus (GPa) = 32.91915 37.73640 35.32777
#
# Velocity S-wave (km/s) = 3.87791 4.15196 4.01727
# Velocity P-wave (km/s) = 6.17312 6.78834 6.48803
#
# Compressibility (1/GPa) = 0.02529949
#
# Stress axis : x y z
#
# Youngs Moduli (GPa) = 59.95542 59.65946 82.71925
#
# Poissons Ratio (x) = -0.13579 0.61987
# Poissons Ratio (y) = -0.13647 0.40513
# Poissons Ratio (z) = 0.44929 0.29219
#
# Static dielectric constant tensor:
#      x y z
#    x 1.916610 0.000000 0.000000 
#    y 0.000000 1.882030 0.000000 
#    z 0.000000 0.000000 1.738670 
# 
# From -- ./inp_files/22307.got.cif
#   From: 2010.05.17/outbox.cif.g08.bks.cpg/sg20_12_cif.got.tgz:22307.got - 2010.06.03 22:52:26.
