data_PCOD9321296
_publ_section_title
;
Structure prediction by ZEFSAII (Michael W. Deem and Ramdas Pophale) SiO2 
 PCOD9321296
Probable space group: C 2 2 21
;
_chemical_formula_sum "Si O2"
_cell_formula_units_Z 40
_cell_length_a 18.339522
_cell_length_b 26.842773
_cell_length_c 4.926296
_cell_angle_alpha 90.000000
_cell_angle_beta 90.000000
_cell_angle_gamma 90.000000
_cell_volume 2425.134858
_symmetry_space_group_name_H-M "C 2 2 21"
_symmetry_group_IT_number 20
_symmetry_cell_setting 'orthorhombic'
loop_
_space_group_symop_operation_xyz
x,y,z
-x,-y,1/2+z
x,-y,-z
-x,y,1/2-z
1/2+x,1/2+y,z
1/2-x,1/2-y,1/2+z
1/2+x,1/2-y,-z
1/2-x,1/2+y,1/2-z
loop_
_atom_site_type_symbol
_atom_site_label
_atom_site_fract_x
_atom_site_fract_y
_atom_site_fract_z
Si Si1 0.048358 0.922097 0.514386
Si Si2 0.642953 0.667391 0.401719
Si Si3 0.297398 0.235801 0.768149
Si Si4 0.697080 0.467254 0.267364
Si Si5 0.735908 0.360604 0.098036
O O1 0.075697 0.869344 0.634324
O O2 0.122008 0.948820 0.411217
O O3 0.000000 0.947818 0.750000
O O4 0.000000 0.914802 0.250000
O O5 0.637655 0.725582 0.327279
O O6 0.671068 0.660617 0.708369
O O7 0.706780 0.645784 0.206393
O O8 0.267299 0.243662 0.466054
O O9 0.301731 0.177571 0.840942
O O10 0.735027 0.500000 0.500000
O O11 0.741086 0.418146 0.176863
O O12 0.681708 0.500000 0.000000
#
# Coordination Sequence:
#
# PCOD9321296 Si02
#       5
#     8   8   8   8   8
#     4  11  21  32  42  53  73 102 136 170 195 216
#     4   9  16  28  42  57  73  90 118 157 198 235
#     4   8  14  24  42  60  72  86 108 148 198 242
#     4  11  21  32  42  53  73 102 136 170 195 216
#     4   9  16  28  42  57  73  90 118 157 198 235
#
# _framework density 16.493928
#
# number of rings (size 3 to 8) (size 9 to 14) (size 15 to 20)
#    0.000    2.400    0.000    6.000    0.000    1.600 
#    0.000    2.000    0.000    0.000    0.000    0.000 
#    0.000    0.000    0.000    0.000    0.000    4.000 
#
# Total GULP energy -111342.927886 kJ/mol
# GULP energy per Si atom -5567.146394 kJ/mol
# Density = 1.645639 g / cm^3
# Si number density = 16.493928 Si / 1000 Ang^3
#
#
#
# Elastic Constant Matrix: (Units=GPa)
#
#
# Indices 1 2 3 4 5 6 
#
# 1 6.5462 23.1765 2.9394 0.0000 0.0000 0.0000
# 2 23.1765 137.8998 23.8316 0.0000 0.0000 0.0000
# 3 2.9394 23.8316 81.6494 0.0000 0.0000 0.0000
# 4 0.0000 0.0000 0.0000 30.0366 0.0000 0.0000
# 5 0.0000 0.0000 0.0000 0.0000 13.1214 0.0000
# 6 0.0000 0.0000 0.0000 0.0000 0.0000 10.6425
#
#
#
# Elastic Compliance Matrix: (Units=1/GPa)
#
#
# Indices 1 2 3 4 5 6 
#
# 1 0.379317 -0.064652 0.005215 0.000000 0.000000 0.000000
# 2 -0.064652 0.018656 -0.003118 0.000000 0.000000 0.000000
# 3 0.005215 -0.003118 0.012970 0.000000 0.000000 0.000000
# 4 0.000000 0.000000 0.000000 0.033293 0.000000 0.000000
# 5 0.000000 0.000000 0.000000 0.000000 0.076211 0.000000
# 6 0.000000 0.000000 0.000000 0.000000 0.000000 0.093963
#
#
# Mechanical properties :
#
#
# Convention : Reuss Voigt Hill
#
# Bulk Modulus (GPa) = 3.49855 36.22117 19.85986
# Shear Modulus (GPa) = 5.98947 22.50328 14.24637
#
# Velocity S-wave (km/s) = 1.90767 3.69770 2.94212
# Velocity P-wave (km/s) = 2.64159 6.34339 4.85884
#
# Compressibility (1/GPa) = 0.28583306
#
# Stress axis : x y z
#
# Youngs Moduli (GPa) = 2.63632 53.60086 77.10231
#
# Poissons Ratio (x) = 3.46541 -0.40208
# Poissons Ratio (y) = 0.17044 0.24040
# Poissons Ratio (z) = -0.01375 0.16712
#
# Static dielectric constant tensor:
#      x y z
#    x 1.509500 0.000000 0.000000 
#    y 0.000000 1.685040 0.000000 
#    z 0.000000 0.000000 1.579050 
# 
# From -- ./inp_files/2786.got.cif
#   From: 2010.05.17/outbox.cif.g08.bks.cpg/sg20_2_cif.got.tgz:2786.got - 2010.06.03 22:52:26.
