data_PCOD9321195
_publ_section_title
;
Structure prediction by ZEFSAII (Michael W. Deem and Ramdas Pophale) SiO2 
 PCOD9321195
Probable space group: C 2 2 21
;
_chemical_formula_sum "Si O2"
_cell_formula_units_Z 56
_cell_length_a 13.069356
_cell_length_b 6.412987
_cell_length_c 27.684395
_cell_angle_alpha 90.000000
_cell_angle_beta 90.000000
_cell_angle_gamma 90.000000
_cell_volume 2320.329089
_symmetry_space_group_name_H-M "C 2 2 21"
_symmetry_group_IT_number 20
_symmetry_cell_setting 'orthorhombic'
loop_
_space_group_symop_operation_xyz
x,y,z
-x,-y,1/2+z
x,-y,-z
-x,y,1/2-z
1/2+x,1/2+y,z
1/2-x,1/2-y,1/2+z
1/2+x,1/2-y,-z
1/2-x,1/2+y,1/2-z
loop_
_atom_site_type_symbol
_atom_site_label
_atom_site_fract_x
_atom_site_fract_y
_atom_site_fract_z
Si Si1 0.802927 0.131805 0.958149
Si Si2 0.703325 0.471533 0.055254
Si Si3 0.796002 0.825472 0.201468
Si Si4 0.508356 0.191695 0.033783
Si Si5 0.835962 0.175770 0.125874
Si Si6 0.398767 0.951260 0.720175
Si Si7 0.453064 0.942564 0.859726
O O1 0.721562 0.286057 0.932142
O O2 0.902591 0.217660 0.986265
O O3 0.850184 0.995102 0.915326
O O4 0.748761 0.000000 0.000000
O O5 0.595272 0.362516 0.044672
O O6 0.759447 0.334381 0.096508
O O7 0.747433 0.500000 0.000000
O O8 0.676351 0.851637 0.214054
O O9 0.847717 0.742978 0.251133
O O10 0.853970 0.666448 0.164885
O O11 0.808002 0.048913 0.174301
O O12 0.470096 0.109540 0.085178
O O13 0.538471 0.000000 0.000000
O O14 0.932862 0.311754 0.140709
O O15 0.500000 0.013218 0.750000
O O16 0.445704 0.880789 0.669329
#
# Coordination Sequence:
#
# PCOD9321195 Si02
#       7
#     8   8   8   8   8   8   8
#     4  12  24  49  75 110 162 216 272 344 410 482
#     4  12  26  45  75 111 164 221 276 338 406 488
#     4  11  25  52  83 117 158 214 269 344 432 503
#     4  12  26  49  77 121 164 221 290 338 410 503
#     4  12  24  48  82 111 160 216 272 339 417 497
#     4  10  26  52  80 117 158 197 273 343 421 512
#     4  11  25  54  76 122 164 212 280 343 418 514
#
# _framework density 24.134505999999998
#
# number of rings (size 3 to 8) (size 9 to 14) (size 15 to 20)
#    0.000    0.571    4.286    2.571    6.000    0.000 
#   18.000    0.000    0.000    0.000    0.000    0.000 
#    0.000    0.000    0.000    0.000    0.000    0.000 
#
# Total GULP energy -156046.176503 kJ/mol
# GULP energy per Si atom -5573.077732 kJ/mol
# Density = 2.407957 g / cm^3
# Si number density = 24.134506 Si / 1000 Ang^3
#
#
#
# Elastic Constant Matrix: (Units=GPa)
#
#
# Indices 1 2 3 4 5 6 
#
# 1 147.5428 70.2233 26.6129 0.0000 0.0000 0.0000
# 2 70.2233 112.4368 32.1248 0.0000 0.0000 0.0000
# 3 26.6129 32.1248 108.4188 0.0000 0.0000 0.0000
# 4 0.0000 0.0000 0.0000 52.4283 0.0000 0.0000
# 5 0.0000 0.0000 0.0000 0.0000 24.3164 0.0000
# 6 0.0000 0.0000 0.0000 0.0000 0.0000 38.6462
#
#
#
# Elastic Compliance Matrix: (Units=1/GPa)
#
#
# Indices 1 2 3 4 5 6 
#
# 1 0.009685 -0.005866 -0.000639 0.000000 0.000000 0.000000
# 2 -0.005866 0.013270 -0.002492 0.000000 0.000000 0.000000
# 3 -0.000639 -0.002492 0.010119 0.000000 0.000000 0.000000
# 4 0.000000 0.000000 0.000000 0.019074 0.000000 0.000000
# 5 0.000000 0.000000 0.000000 0.000000 0.041125 0.000000
# 6 0.000000 0.000000 0.000000 0.000000 0.000000 0.025876
#
#
# Mechanical properties :
#
#
# Convention : Reuss Voigt Hill
#
# Bulk Modulus (GPa) = 66.31795 69.59116 67.95455
# Shear Modulus (GPa) = 35.16960 39.04068 37.10514
#
# Velocity S-wave (km/s) = 3.82151 4.02634 3.92526
# Velocity P-wave (km/s) = 6.85639 7.10722 6.98293
#
# Compressibility (1/GPa) = 0.01507887
#
# Stress axis : x y z
#
# Youngs Moduli (GPa) = 103.25205 75.35985 98.82669
#
# Poissons Ratio (x) = 0.44208 0.06316
# Poissons Ratio (y) = 0.60570 0.24626
# Poissons Ratio (z) = 0.06599 0.18779
#
# Static dielectric constant tensor:
#      x y z
#    x 1.976620 0.000000 0.000000 
#    y 0.000000 2.291400 0.000000 
#    z 0.000000 0.000000 2.038420 
# 
# From -- ./inp_files/31298.got.cif
#   From: 2010.05.17/outbox.cif.g08.bks.cpg/sg20_16_cif.got.tgz:31298.got - 2010.06.03 22:52:26.
