data_PCOD9321965
_publ_section_title
;
Structure prediction by ZEFSAII (Michael W. Deem and Ramdas Pophale) SiO2 
 PCOD9321965
Probable space group: C 2 2 21
;
_chemical_formula_sum "Si O2"
_cell_formula_units_Z 32
_cell_length_a 9.085085
_cell_length_b 9.997627
_cell_length_c 15.313906
_cell_angle_alpha 90.000000
_cell_angle_beta 90.000000
_cell_angle_gamma 90.000000
_cell_volume 1390.951226
_symmetry_space_group_name_H-M "C 2 2 21"
_symmetry_group_IT_number 20
_symmetry_cell_setting 'orthorhombic'
loop_
_space_group_symop_operation_xyz
x,y,z
-x,-y,1/2+z
x,-y,-z
-x,y,1/2-z
1/2+x,1/2+y,z
1/2-x,1/2-y,1/2+z
1/2+x,1/2-y,-z
1/2-x,1/2+y,1/2-z
loop_
_atom_site_type_symbol
_atom_site_label
_atom_site_fract_x
_atom_site_fract_y
_atom_site_fract_z
Si Si1 0.650204 0.038702 0.403741
Si Si2 0.853431 0.606625 0.617868
Si Si3 0.365922 0.811341 0.569050
Si Si4 0.834040 0.095073 0.716497
O O1 0.527613 0.926029 0.374514
O O2 0.768726 0.039262 0.327664
O O3 0.705809 0.000000 0.500000
O O4 0.541029 0.163595 0.416484
O O5 0.796441 0.455744 0.593735
O O6 0.837198 0.702302 0.534051
O O7 0.769406 0.642012 0.704804
O O8 0.324702 0.698021 0.635956
O O9 0.000000 0.082597 0.750000
#
# Coordination Sequence:
#
# PCOD9321965 Si02
#       4
#     8   8   8   8
#     4   8  19  43  65  82 130 175 212 258 313 384
#     4   8  19  43  64  85 130 178 216 251 318 390
#     4   8  20  42  67  84 132 172 208 267 308 372
#     4  12  23  34  66 104 124 164 217 267 331 375
#
# _framework density 23.005838000000001
#
# number of rings (size 3 to 8) (size 9 to 14) (size 15 to 20)
#    1.500    1.500    0.000    0.750    3.500    4.000 
#    4.500    2.500    0.000    0.000    0.000    0.000 
#    0.000    0.000    0.000    0.000    0.000    0.000 
#
# Total GULP energy -89160.943009 kJ/mol
# GULP energy per Si atom -5572.558938 kJ/mol
# Density = 2.295348 g / cm^3
# Si number density = 23.005838 Si / 1000 Ang^3
#
#
#
# Elastic Constant Matrix: (Units=GPa)
#
#
# Indices 1 2 3 4 5 6 
#
# 1 103.1644 20.5097 91.0745 0.0000 0.0000 0.0000
# 2 20.5097 37.4318 34.6446 0.0000 0.0000 0.0000
# 3 91.0745 34.6446 199.3116 0.0000 0.0000 0.0000
# 4 0.0000 0.0000 0.0000 39.6257 0.0000 0.0000
# 5 0.0000 0.0000 0.0000 0.0000 34.3419 0.0000
# 6 0.0000 0.0000 0.0000 0.0000 0.0000 22.3916
#
#
#
# Elastic Compliance Matrix: (Units=1/GPa)
#
#
# Indices 1 2 3 4 5 6 
#
# 1 0.016434 -0.002448 -0.007084 0.000000 0.000000 0.000000
# 2 -0.002448 0.032202 -0.004479 0.000000 0.000000 0.000000
# 3 -0.007084 -0.004479 0.009033 0.000000 0.000000 0.000000
# 4 0.000000 0.000000 0.000000 0.025236 0.000000 0.000000
# 5 0.000000 0.000000 0.000000 0.000000 0.029119 0.000000
# 6 0.000000 0.000000 0.000000 0.000000 0.000000 0.044660
#
#
# Mechanical properties :
#
#
# Convention : Reuss Voigt Hill
#
# Bulk Modulus (GPa) = 33.73019 70.26283 51.99651
# Shear Modulus (GPa) = 25.69557 32.18377 28.93967
#
# Velocity S-wave (km/s) = 3.34565 3.74430 3.55057
# Velocity P-wave (km/s) = 5.44224 7.02144 6.28166
#
# Compressibility (1/GPa) = 0.02964703
#
# Stress axis : x y z
#
# Youngs Moduli (GPa) = 60.85130 31.05412 110.70967
#
# Poissons Ratio (x) = 0.07602 0.78423
# Poissons Ratio (y) = 0.14897 0.49584
# Poissons Ratio (z) = 0.43105 0.13908
#
# Static dielectric constant tensor:
#      x y z
#    x 1.862630 0.000000 0.000000 
#    y 0.000000 1.969000 0.000000 
#    z 0.000000 0.000000 1.829190 
# 
# From -- ./inp_files/12571.got.cif
#   From: 2010.05.17/outbox.cif.g08.bks.cpg/sg20_7_cif.got.tgz:12571.got - 2010.06.03 22:52:26.
