data_PCOD9321503
_publ_section_title
;
Structure prediction by ZEFSAII (Michael W. Deem and Ramdas Pophale) SiO2 
 PCOD9321503
Probable space group: C 2 2 21
;
_chemical_formula_sum "Si O2"
_cell_formula_units_Z 28
_cell_length_a 12.511055
_cell_length_b 7.191832
_cell_length_c 14.831869
_cell_angle_alpha 90.000000
_cell_angle_beta 90.000000
_cell_angle_gamma 90.000000
_cell_volume 1334.533094
_symmetry_space_group_name_H-M "C 2 2 21"
_symmetry_group_IT_number 20
_symmetry_cell_setting 'orthorhombic'
loop_
_space_group_symop_operation_xyz
x,y,z
-x,-y,1/2+z
x,-y,-z
-x,y,1/2-z
1/2+x,1/2+y,z
1/2-x,1/2-y,1/2+z
1/2+x,1/2-y,-z
1/2-x,1/2+y,1/2-z
loop_
_atom_site_type_symbol
_atom_site_label
_atom_site_fract_x
_atom_site_fract_y
_atom_site_fract_z
Si Si1 0.736544 0.721011 0.128684
Si Si2 0.540888 0.010118 0.850870
Si Si3 0.388216 0.379274 0.285588
Si Si4 0.365853 0.000000 0.000000
O O1 0.642144 0.868502 0.122055
O O2 0.684292 0.530730 0.165981
O O3 0.822171 0.794412 0.201658
O O4 0.793694 0.668955 0.035491
O O5 0.500000 0.052152 0.750000
O O6 0.443357 0.047634 0.917477
O O7 0.576755 0.794091 0.848035
O O8 0.500000 0.463523 0.250000
#
# Coordination Sequence:
#
# PCOD9321503 Si02
#       4
#     8   8   8   4
#     4  12  24  42  71  98 131 185 222 274 345 394
#     4  11  24  49  66  98 144 173 223 288 333 401
#     4  11  22  43  70  96 130 178 226 272 338 401
#     4  12  26  44  66 106 138 172 236 282 322 414
#
# _framework density 20.981120000000001
#
# number of rings (size 3 to 8) (size 9 to 14) (size 15 to 20)
#    0.000    0.571    8.571    0.857    4.000    0.000 
#    0.000    2.857    0.000    0.000    0.000    0.000 
#    0.000    0.000    0.000    0.000    0.000    0.000 
#
# Total GULP energy -78342.461004 kJ/mol
# GULP energy per Si atom -5595.890072 kJ/mol
# Density = 2.093337 g / cm^3
# Si number density = 20.981120 Si / 1000 Ang^3
#
#
#
# Elastic Constant Matrix: (Units=GPa)
#
#
# Indices 1 2 3 4 5 6 
#
# 1 123.1936 14.7618 31.6491 0.0000 0.0000 0.0000
# 2 14.7618 40.0123 4.4205 0.0000 0.0000 0.0000
# 3 31.6491 4.4205 85.8808 0.0000 0.0000 0.0000
# 4 0.0000 0.0000 0.0000 -9.7599 0.0000 0.0000
# 5 0.0000 0.0000 0.0000 0.0000 56.3377 0.0000
# 6 0.0000 0.0000 0.0000 0.0000 0.0000 114.4877
#
#
#
# Elastic Compliance Matrix: (Units=1/GPa)
#
#
# Indices 1 2 3 4 5 6 
#
# 1 0.009329 -0.003079 -0.003279 0.000000 0.000000 0.000000
# 2 -0.003079 0.026152 -0.000211 0.000000 0.000000 0.000000
# 3 -0.003279 -0.000211 0.012863 0.000000 0.000000 0.000000
# 4 0.000000 0.000000 0.000000 -0.102460 0.000000 0.000000
# 5 0.000000 0.000000 0.000000 0.000000 0.017750 0.000000
# 6 0.000000 0.000000 0.000000 0.000000 0.000000 0.008735
#
#
# Mechanical properties :
#
#
# Convention : Reuss Voigt Hill
#
# Bulk Modulus (GPa) = 28.40595 38.97217 33.68906
# Shear Modulus (GPa) = -1813.56536 45.43013 -884.06761
#
# Velocity S-wave (km/s) = -29.43223 4.65831 -20.54941
# Velocity P-wave (km/s) = 33.78520 6.89553 23.38687
#
# Compressibility (1/GPa) = 0.03520389
#
# Stress axis : x y z
#
# Youngs Moduli (GPa) = 107.19517 38.23843 77.73967
#
# Poissons Ratio (x) = 0.11775 0.25494
# Poissons Ratio (y) = 0.33009 0.01642
# Poissons Ratio (z) = 0.35153 0.00808
#
# Static dielectric constant tensor:
#      x y z
#    x 1.747740 0.000000 0.000000 
#    y 0.000000 1.737600 0.000000 
#    z 0.000000 0.000000 1.740590 
# 
# From -- ./inp_files/18094.got.cif
#   From: 2010.05.17/outbox.cif.g08.bks.cpg/sg20_10_cif.got.tgz:18094.got - 2010.06.03 22:52:26.
