data_PCOD9321137
_publ_section_title
;
Structure prediction by ZEFSAII (Michael W. Deem and Ramdas Pophale) SiO2 
 PCOD9321137
Probable space group: C 2 2 21
;
_chemical_formula_sum "Si O2"
_cell_formula_units_Z 48
_cell_length_a 16.525340
_cell_length_b 6.449150
_cell_length_c 23.914208
_cell_angle_alpha 90.000000
_cell_angle_beta 90.000000
_cell_angle_gamma 90.000000
_cell_volume 2548.642284
_symmetry_space_group_name_H-M "C 2 2 21"
_symmetry_group_IT_number 20
_symmetry_cell_setting 'orthorhombic'
loop_
_space_group_symop_operation_xyz
x,y,z
-x,-y,1/2+z
x,-y,-z
-x,y,1/2-z
1/2+x,1/2+y,z
1/2-x,1/2-y,1/2+z
1/2+x,1/2-y,-z
1/2-x,1/2+y,1/2-z
loop_
_atom_site_type_symbol
_atom_site_label
_atom_site_fract_x
_atom_site_fract_y
_atom_site_fract_z
Si Si1 0.000812 0.879950 0.054568
Si Si2 0.242421 0.594103 0.327549
Si Si3 0.638927 0.236787 0.734605
Si Si4 0.414374 0.374879 0.168534
Si Si5 0.911252 0.500000 0.500000
Si Si6 0.500000 0.919688 0.750000
Si Si7 0.667394 0.616321 0.056561
O O1 0.937622 0.884983 0.104072
O O2 0.032299 0.653377 0.036274
O O3 0.082186 0.004935 0.071341
O O4 0.969107 0.000000 0.000000
O O5 0.313514 0.653849 0.284776
O O6 0.202112 0.380932 0.306087
O O7 0.172313 0.766678 0.323287
O O8 0.274709 0.592794 0.390743
O O9 0.589632 0.404334 0.698725
O O10 0.577615 0.065044 0.758255
O O11 0.480359 0.228323 0.198122
O O12 0.856200 0.649942 0.538458
O O13 0.696859 0.500000 0.000000
#
# Coordination Sequence:
#
# PCOD9321137 Si02
#       7
#     8   8   8   8   4   4   8
#     4   9  21  39  63  92 121 159 209 257 306 369
#     4  11  24  41  63  90 132 163 205 260 318 377
#     4  11  24  43  61  95 128 165 206 263 316 373
#     4  11  24  42  61  96 124 167 208 257 321 373
#     4   8  18  40  64  92 122 152 210 258 314 358
#     4  10  26  38  66  94 116 166 218 252 308 378
#     4   9  21  39  62  93 119 167 210 253 309 374
#
# _framework density 18.833556000000002
#
# number of rings (size 3 to 8) (size 9 to 14) (size 15 to 20)
#    0.000    2.333    1.667    0.500    7.000    6.667 
#    6.000    0.000    0.000    0.000    0.000    0.000 
#    0.000    0.000    0.000    0.000    0.000    0.000 
#
# Total GULP energy -133967.482135 kJ/mol
# GULP energy per Si atom -5581.978422 kJ/mol
# Density = 1.879069 g / cm^3
# Si number density = 18.833556 Si / 1000 Ang^3
#
#
#
# Elastic Constant Matrix: (Units=GPa)
#
#
# Indices 1 2 3 4 5 6 
#
# 1 50.6708 33.9751 46.5882 0.0000 0.0000 0.0000
# 2 33.9751 123.3426 49.3168 0.0000 0.0000 0.0000
# 3 46.5882 49.3168 117.8751 0.0000 0.0000 0.0000
# 4 0.0000 0.0000 0.0000 10.7905 0.0000 0.0000
# 5 0.0000 0.0000 0.0000 0.0000 50.2596 0.0000
# 6 0.0000 0.0000 0.0000 0.0000 0.0000 13.4026
#
#
#
# Elastic Compliance Matrix: (Units=1/GPa)
#
#
# Indices 1 2 3 4 5 6 
#
# 1 0.033096 -0.004667 -0.011128 0.000000 0.000000 0.000000
# 2 -0.004667 0.010394 -0.002504 0.000000 0.000000 0.000000
# 3 -0.011128 -0.002504 0.013929 0.000000 0.000000 0.000000
# 4 0.000000 0.000000 0.000000 0.092674 0.000000 0.000000
# 5 0.000000 0.000000 0.000000 0.000000 0.019897 0.000000
# 6 0.000000 0.000000 0.000000 0.000000 0.000000 0.074613
#
#
# Mechanical properties :
#
#
# Convention : Reuss Voigt Hill
#
# Bulk Modulus (GPa) = 48.02805 61.29430 54.66118
# Shear Modulus (GPa) = 17.35256 25.69109 21.52183
#
# Velocity S-wave (km/s) = 3.03869 3.69740 3.38411
# Velocity P-wave (km/s) = 6.15371 7.13047 6.66002
#
# Compressibility (1/GPa) = 0.02082116
#
# Stress axis : x y z
#
# Youngs Moduli (GPa) = 30.21520 96.20631 71.79023
#
# Poissons Ratio (x) = 0.44899 0.79888
# Poissons Ratio (y) = 0.14101 0.17978
# Poissons Ratio (z) = 0.33624 0.24093
#
# Static dielectric constant tensor:
#      x y z
#    x 1.646210 0.000000 0.000000 
#    y 0.000000 1.658910 0.000000 
#    z 0.000000 0.000000 1.652200 
# 
# From -- ./inp_files/30424.got.cif
#   From: 2010.05.17/outbox.cif.g08.bks.cpg/sg20_16_cif.got.tgz:30424.got - 2010.06.03 22:52:26.
