data_PCOD9321801
_publ_section_title
;
Structure prediction by ZEFSAII (Michael W. Deem and Ramdas Pophale) SiO2 
 PCOD9321801
Probable space group: C 2 2 21
;
_chemical_formula_sum "Si O2"
_cell_formula_units_Z 32
_cell_length_a 7.393039
_cell_length_b 13.925776
_cell_length_c 12.122027
_cell_angle_alpha 90.000000
_cell_angle_beta 90.000000
_cell_angle_gamma 90.000000
_cell_volume 1248.008805
_symmetry_space_group_name_H-M "C 2 2 21"
_symmetry_group_IT_number 20
_symmetry_cell_setting 'orthorhombic'
loop_
_space_group_symop_operation_xyz
x,y,z
-x,-y,1/2+z
x,-y,-z
-x,y,1/2-z
1/2+x,1/2+y,z
1/2-x,1/2-y,1/2+z
1/2+x,1/2-y,-z
1/2-x,1/2+y,1/2-z
loop_
_atom_site_type_symbol
_atom_site_label
_atom_site_fract_x
_atom_site_fract_y
_atom_site_fract_z
Si Si1 0.633795 0.926813 0.909828
Si Si2 0.766030 0.924945 0.669190
Si Si3 0.761768 0.248939 0.985095
Si Si4 0.067769 0.125235 0.872174
O O1 0.757016 0.917090 0.801488
O O2 0.435294 0.955678 0.868681
O O3 0.610500 0.826500 0.972156
O O4 0.701846 0.000000 0.000000
O O5 0.790165 0.819928 0.615379
O O6 0.893884 0.011309 0.629079
O O7 0.753082 0.322334 0.089430
O O8 0.914795 0.171427 0.950990
O O9 0.000000 0.151125 0.750000
#
# Coordination Sequence:
#
# PCOD9321801 Si02
#       4
#     8   8   8   8
#     4  11  24  48  79 116 167 233 274 351 430 503
#     4  11  26  49  79 118 173 220 285 350 427 514
#     4  12  25  48  82 120 165 218 279 357 423 518
#     4  12  27  51  82 125 170 221 288 353 437 520
#
# _framework density 25.640846
#
# number of rings (size 3 to 8) (size 9 to 14) (size 15 to 20)
#    0.000    0.500    2.500    5.250    0.000    6.000 
#    0.000    2.500    0.000    0.000    0.000    0.000 
#    0.000    0.000    0.000    0.000    0.000    0.000 
#
# Total GULP energy -89351.590836 kJ/mol
# GULP energy per Si atom -5584.474427 kJ/mol
# Density = 2.558249 g / cm^3
# Si number density = 25.640846 Si / 1000 Ang^3
#
#
#
# Elastic Constant Matrix: (Units=GPa)
#
#
# Indices 1 2 3 4 5 6 
#
# 1 96.5957 56.9151 51.3535 0.0000 0.0000 0.0000
# 2 56.9151 219.4891 91.0564 0.0000 0.0000 0.0000
# 3 51.3535 91.0564 195.3443 0.0000 0.0000 0.0000
# 4 0.0000 0.0000 0.0000 23.1956 0.0000 0.0000
# 5 0.0000 0.0000 0.0000 0.0000 52.7545 0.0000
# 6 0.0000 0.0000 0.0000 0.0000 0.0000 51.6678
#
#
#
# Elastic Compliance Matrix: (Units=1/GPa)
#
#
# Indices 1 2 3 4 5 6 
#
# 1 0.012995 -0.002421 -0.002288 0.000000 0.000000 0.000000
# 2 -0.002421 0.006099 -0.002207 0.000000 0.000000 0.000000
# 3 -0.002288 -0.002207 0.006749 0.000000 0.000000 0.000000
# 4 0.000000 0.000000 0.000000 0.043112 0.000000 0.000000
# 5 0.000000 0.000000 0.000000 0.000000 0.018956 0.000000
# 6 0.000000 0.000000 0.000000 0.000000 0.000000 0.019354
#
#
# Mechanical properties :
#
#
# Convention : Reuss Voigt Hill
#
# Bulk Modulus (GPa) = 83.24265 101.11992 92.18129
# Shear Modulus (GPa) = 39.96813 46.33054 43.14934
#
# Velocity S-wave (km/s) = 3.95241 4.25538 4.10669
# Velocity P-wave (km/s) = 7.30507 7.97916 7.64954
#
# Compressibility (1/GPa) = 0.01201307
#
# Stress axis : x y z
#
# Youngs Moduli (GPa) = 76.95293 163.95719 148.16482
#
# Poissons Ratio (x) = 0.39686 0.33899
# Poissons Ratio (y) = 0.18627 0.32695
# Poissons Ratio (z) = 0.17606 0.36180
#
# Static dielectric constant tensor:
#      x y z
#    x 2.204530 0.000000 0.000000 
#    y 0.000000 2.006240 0.000000 
#    z 0.000000 0.000000 2.003010 
# 
# From -- ./inp_files/12449.got.cif
#   From: 2010.05.17/outbox.cif.g08.bks.cpg/sg20_7_cif.got.tgz:12449.got - 2010.06.03 22:52:26.
