data_PCOD9321018
_publ_section_title
;
Structure prediction by ZEFSAII (Michael W. Deem and Ramdas Pophale) SiO2 
 PCOD9321018
Probable space group: C 2 2 21
;
_chemical_formula_sum "Si O2"
_cell_formula_units_Z 40
_cell_length_a 16.414039
_cell_length_b 7.666574
_cell_length_c 13.978278
_cell_angle_alpha 90.000000
_cell_angle_beta 90.000000
_cell_angle_gamma 90.000000
_cell_volume 1759.018740
_symmetry_space_group_name_H-M "C 2 2 21"
_symmetry_group_IT_number 20
_symmetry_cell_setting 'orthorhombic'
loop_
_space_group_symop_operation_xyz
x,y,z
-x,-y,1/2+z
x,-y,-z
-x,y,1/2-z
1/2+x,1/2+y,z
1/2-x,1/2-y,1/2+z
1/2+x,1/2-y,-z
1/2-x,1/2+y,1/2-z
loop_
_atom_site_type_symbol
_atom_site_label
_atom_site_fract_x
_atom_site_fract_y
_atom_site_fract_z
Si Si1 0.275151 0.317992 0.446826
Si Si2 0.500000 0.970612 0.750000
Si Si3 0.821443 0.485734 0.223359
Si Si4 0.452989 0.818330 0.555833
Si Si5 0.443203 0.500000 0.000000
Si Si6 0.806390 0.863392 0.125698
O O1 0.292308 0.500000 0.500000
O O2 0.215073 0.366182 0.360853
O O3 0.362324 0.242666 0.418878
O O4 0.233618 0.196673 0.525766
O O5 0.498266 0.855366 0.654768
O O6 0.586599 0.069377 0.749996
O O7 0.823272 0.683937 0.183598
O O8 0.758943 0.467639 0.311247
O O9 0.500372 0.671281 0.496025
O O10 0.450368 0.000000 0.500000
O O11 0.385971 0.530488 0.907094
#
# Coordination Sequence:
#
# PCOD9321018 Si02
#       6
#     8   4   8   8   4   8
#     4  10  24  47  74 107 154 205 253 316 392 469
#     4  12  26  44  72 116 152 192 266 328 372 466
#     4  11  25  47  74 110 155 206 258 326 384 471
#     4  12  27  50  78 113 158 201 262 323 387 465
#     4  12  28  48  76 116 152 216 252 330 380 474
#     4  11  26  46  74 108 154 205 262 316 397 467
#
# _framework density 22.739951000000001
#
# number of rings (size 3 to 8) (size 9 to 14) (size 15 to 20)
#    0.000    0.800    3.000    2.400    9.800    0.000 
#    0.000    1.000    0.000    0.000    0.000    0.000 
#    0.000    0.000    0.000    0.000    0.000    0.000 
#
# Total GULP energy -111996.257271 kJ/mol
# GULP energy per Si atom -5599.812864 kJ/mol
# Density = 2.268819 g / cm^3
# Si number density = 22.739951 Si / 1000 Ang^3
#
#
#
# Elastic Constant Matrix: (Units=GPa)
#
#
# Indices 1 2 3 4 5 6 
#
# 1 185.5858 69.6626 57.4027 0.0000 0.0000 0.0000
# 2 69.6626 130.2313 49.4800 0.0000 0.0000 0.0000
# 3 57.4027 49.4800 107.7218 0.0000 0.0000 0.0000
# 4 0.0000 0.0000 0.0000 37.3620 0.0000 0.0000
# 5 0.0000 0.0000 0.0000 0.0000 40.9443 0.0000
# 6 0.0000 0.0000 0.0000 0.0000 0.0000 -8.8881
#
#
#
# Elastic Compliance Matrix: (Units=1/GPa)
#
#
# Indices 1 2 3 4 5 6 
#
# 1 0.007270 -0.002928 -0.002529 0.000000 0.000000 0.000000
# 2 -0.002928 0.010481 -0.003254 0.000000 0.000000 0.000000
# 3 -0.002529 -0.003254 0.012126 0.000000 0.000000 0.000000
# 4 0.000000 0.000000 0.000000 0.026765 0.000000 0.000000
# 5 0.000000 0.000000 0.000000 0.000000 0.024423 0.000000
# 6 0.000000 0.000000 0.000000 0.000000 0.000000 -0.112510
#
#
# Mechanical properties :
#
#
# Convention : Reuss Voigt Hill
#
# Bulk Modulus (GPa) = 80.29271 86.29215 83.29243
# Shear Modulus (GPa) = -506.47337 30.34989 -238.06174
#
# Velocity S-wave (km/s) = -14.94013 3.65725 -10.24285
# Velocity P-wave (km/s) = 16.19334 7.47420 10.15777
#
# Compressibility (1/GPa) = 0.01245443
#
# Stress axis : x y z
#
# Youngs Moduli (GPa) = 137.56033 95.40964 82.47036
#
# Poissons Ratio (x) = 0.27933 0.20857
# Poissons Ratio (y) = 0.40274 0.26837
# Poissons Ratio (z) = 0.34789 0.31048
#
# Static dielectric constant tensor:
#      x y z
#    x 1.851640 0.000000 0.000000 
#    y 0.000000 1.869460 0.000000 
#    z 0.000000 0.000000 1.829780 
# 
# From -- ./inp_files/20523.got.cif
#   From: 2010.05.17/outbox.cif.g08.bks.cpg/sg20_11_cif.got.tgz:20523.got - 2010.06.03 22:52:26.
