data_PCOD9321343
_publ_section_title
;
Structure prediction by ZEFSAII (Michael W. Deem and Ramdas Pophale) SiO2 
 PCOD9321343
Probable space group: C 2 2 21
;
_chemical_formula_sum "Si O2"
_cell_formula_units_Z 64
_cell_length_a 12.083494
_cell_length_b 8.071195
_cell_length_c 27.501926
_cell_angle_alpha 90.000000
_cell_angle_beta 90.000000
_cell_angle_gamma 90.000000
_cell_volume 2682.214339
_symmetry_space_group_name_H-M "C 2 2 21"
_symmetry_group_IT_number 20
_symmetry_cell_setting 'orthorhombic'
loop_
_space_group_symop_operation_xyz
x,y,z
-x,-y,1/2+z
x,-y,-z
-x,y,1/2-z
1/2+x,1/2+y,z
1/2-x,1/2-y,1/2+z
1/2+x,1/2-y,-z
1/2-x,1/2+y,1/2-z
loop_
_atom_site_type_symbol
_atom_site_label
_atom_site_fract_x
_atom_site_fract_y
_atom_site_fract_z
Si Si1 0.245340 0.145438 0.945868
Si Si2 0.497175 0.535362 0.942225
Si Si3 0.266742 0.346767 0.038068
Si Si4 0.734697 0.670890 0.298421
Si Si5 0.507559 0.684789 0.349150
Si Si6 0.919668 0.462266 0.883449
Si Si7 0.157784 0.553480 0.110644
Si Si8 0.230998 0.934462 0.811533
O O1 0.125725 0.073169 0.934112
O O2 0.347589 0.038793 0.927013
O O3 0.241575 0.314633 0.914095
O O4 0.249287 0.192862 0.002546
O O5 0.388306 0.652843 0.938491
O O6 0.475976 0.394476 0.902379
O O7 0.492483 0.500000 0.000000
O O8 0.179161 0.385188 0.080438
O O9 0.255552 0.500000 0.000000
O O10 0.607942 0.633253 0.313536
O O11 0.809818 0.556999 0.333267
O O12 0.763678 0.863617 0.310086
O O13 0.752522 0.632867 0.242272
O O14 0.525600 0.880804 0.354867
O O15 0.388815 0.627903 0.329119
O O16 0.830163 0.380779 0.847746
O O17 0.034575 0.378247 0.898018
#
# Coordination Sequence:
#
# PCOD9321343 Si02
#       8
#     8   8   8   8   8   8   8   8
#     4  11  22  45  62  97 147 170 229 287 333 410
#     4  11  21  39  69  96 131 182 225 276 340 407
#     4   9  20  37  65  91 124 182 221 264 340 406
#     4  11  24  47  71 101 137 180 231 290 348 417
#     4  11  21  46  72  93 138 183 221 280 349 408
#     4  11  24  43  71  95 141 176 223 288 347 402
#     4  11  22  44  67  94 133 183 221 278 349 404
#     4  11  25  47  71 103 136 178 231 288 346 413
#
# _framework density 23.860882
#
# number of rings (size 3 to 8) (size 9 to 14) (size 15 to 20)
#    0.000    1.250    5.000    1.875    5.250    0.500 
#   11.250    0.000    0.000    0.000    0.000    0.000 
#    0.000    0.000    0.000    0.000    0.000    0.000 
#
# Total GULP energy -178931.601525 kJ/mol
# GULP energy per Si atom -5591.612548 kJ/mol
# Density = 2.380657 g / cm^3
# Si number density = 23.860882 Si / 1000 Ang^3
#
#
#
# Elastic Constant Matrix: (Units=GPa)
#
#
# Indices 1 2 3 4 5 6 
#
# 1 207.8542 37.8964 41.1484 0.0000 0.0000 0.0000
# 2 37.8964 40.9119 31.2713 0.0000 0.0000 0.0000
# 3 41.1484 31.2713 105.2288 0.0000 0.0000 0.0000
# 4 0.0000 0.0000 0.0000 37.9317 0.0000 0.0000
# 5 0.0000 0.0000 0.0000 0.0000 33.7348 0.0000
# 6 0.0000 0.0000 0.0000 0.0000 0.0000 47.1895
#
#
#
# Elastic Compliance Matrix: (Units=1/GPa)
#
#
# Indices 1 2 3 4 5 6 
#
# 1 0.005850 -0.004749 -0.000876 0.000000 0.000000 0.000000
# 2 -0.004749 0.035482 -0.008687 0.000000 0.000000 0.000000
# 3 -0.000876 -0.008687 0.012427 0.000000 0.000000 0.000000
# 4 0.000000 0.000000 0.000000 0.026363 0.000000 0.000000
# 5 0.000000 0.000000 0.000000 0.000000 0.029643 0.000000
# 6 0.000000 0.000000 0.000000 0.000000 0.000000 0.021191
#
#
# Mechanical properties :
#
#
# Convention : Reuss Voigt Hill
#
# Bulk Modulus (GPa) = 39.78648 63.84745 51.81697
# Shear Modulus (GPa) = 29.76875 40.01646 34.89260
#
# Velocity S-wave (km/s) = 3.53596 4.09965 3.82820
# Velocity P-wave (km/s) = 5.77765 7.01611 6.42678
#
# Compressibility (1/GPa) = 0.02513417
#
# Stress axis : x y z
#
# Youngs Moduli (GPa) = 170.92621 28.18311 80.46738
#
# Poissons Ratio (x) = 0.13385 0.07052
# Poissons Ratio (y) = 0.81180 0.69904
# Poissons Ratio (z) = 0.14979 0.24483
#
# Static dielectric constant tensor:
#      x y z
#    x 1.901540 0.000000 0.000000 
#    y 0.000000 2.359560 0.000000 
#    z 0.000000 0.000000 1.895090 
# 
# From -- ./inp_files/31206.got.cif
#   From: 2010.05.17/outbox.cif.g08.bks.cpg/sg20_16_cif.got.tgz:31206.got - 2010.06.03 22:52:26.
