data_PCOD9321143
_publ_section_title
;
Structure prediction by ZEFSAII (Michael W. Deem and Ramdas Pophale) SiO2 
 PCOD9321143
Probable space group: C 2 2 21
;
_chemical_formula_sum "Si O2"
_cell_formula_units_Z 44
_cell_length_a 13.493885
_cell_length_b 18.617636
_cell_length_c 8.008181
_cell_angle_alpha 90.000000
_cell_angle_beta 90.000000
_cell_angle_gamma 90.000000
_cell_volume 2011.849179
_symmetry_space_group_name_H-M "C 2 2 21"
_symmetry_group_IT_number 20
_symmetry_cell_setting 'orthorhombic'
loop_
_space_group_symop_operation_xyz
x,y,z
-x,-y,1/2+z
x,-y,-z
-x,y,1/2-z
1/2+x,1/2+y,z
1/2-x,1/2-y,1/2+z
1/2+x,1/2-y,-z
1/2-x,1/2+y,1/2-z
loop_
_atom_site_type_symbol
_atom_site_label
_atom_site_fract_x
_atom_site_fract_y
_atom_site_fract_z
Si Si1 0.188650 0.786191 0.046833
Si Si2 0.280587 0.345528 0.809177
Si Si3 0.229522 0.946792 0.151958
Si Si4 0.390323 0.964654 0.685063
Si Si5 0.581405 0.427465 0.461688
Si Si6 0.000000 0.803587 0.250000
O O1 0.176428 0.805385 0.852836
O O2 0.259895 0.717876 0.059404
O O3 0.230806 0.862657 0.108579
O O4 0.096506 0.766049 0.171069
O O5 0.181572 0.394942 0.795548
O O6 0.360346 0.400602 0.878397
O O7 0.158090 0.948245 0.313820
O O8 0.337137 0.974853 0.203422
O O9 0.199005 0.000000 0.000000
O O10 0.500000 0.948615 0.750000
O O11 0.391740 0.000000 0.500000
O O12 0.522946 0.500000 0.500000
O O13 0.523006 0.359206 0.398552
#
# Coordination Sequence:
#
# PCOD9321143 Si02
#       6
#     8   8   8   8   8   4
#     4  11  25  42  68  99 135 184 228 277 356 412
#     4  12  24  46  71  94 140 183 222 291 357 423
#     4  11  19  41  67  95 132 174 223 274 344 415
#     4  12  25  43  71 105 135 177 237 295 346 421
#     4  11  21  42  65  96 131 174 223 273 337 403
#     4  10  26  40  64 100 132 168 230 278 318 424
#
# _framework density 21.870425999999998
#
# number of rings (size 3 to 8) (size 9 to 14) (size 15 to 20)
#    0.000    0.727    5.455    2.727    1.273    5.091 
#    0.000    0.000    0.000    0.000    0.000    0.000 
#    0.000    0.000    0.000    0.000    0.000    0.000 
#
# Total GULP energy -122751.482303 kJ/mol
# GULP energy per Si atom -5579.612832 kJ/mol
# Density = 2.182065 g / cm^3
# Si number density = 21.870426 Si / 1000 Ang^3
#
#
#
# Elastic Constant Matrix: (Units=GPa)
#
#
# Indices 1 2 3 4 5 6 
#
# 1 64.0556 2.1399 6.1086 0.0000 0.0000 0.0000
# 2 2.1399 86.3848 5.7375 0.0000 0.0000 0.0000
# 3 6.1086 5.7375 93.4873 0.0000 0.0000 0.0000
# 4 0.0000 0.0000 0.0000 37.6914 0.0000 0.0000
# 5 0.0000 0.0000 0.0000 0.0000 17.9349 0.0000
# 6 0.0000 0.0000 0.0000 0.0000 0.0000 -12.3880
#
#
#
# Elastic Compliance Matrix: (Units=1/GPa)
#
#
# Indices 1 2 3 4 5 6 
#
# 1 0.015718 -0.000322 -0.001007 0.000000 0.000000 0.000000
# 2 -0.000322 0.011630 -0.000693 0.000000 0.000000 0.000000
# 3 -0.001007 -0.000693 0.010805 0.000000 0.000000 0.000000
# 4 0.000000 0.000000 0.000000 0.026531 0.000000 0.000000
# 5 0.000000 0.000000 0.000000 0.000000 0.055757 0.000000
# 6 0.000000 0.000000 0.000000 0.000000 0.000000 -0.080723
#
#
# Mechanical properties :
#
#
# Convention : Reuss Voigt Hill
#
# Bulk Modulus (GPa) = 29.31819 30.21106 29.76462
# Shear Modulus (GPa) = 90.69018 23.97712 57.33365
#
# Velocity S-wave (km/s) = 6.44648 3.31467 5.12563
# Velocity P-wave (km/s) = 8.29722 5.33789 6.97628
#
# Compressibility (1/GPa) = 0.03410852
#
# Stress axis : x y z
#
# Youngs Moduli (GPa) = 63.62021 85.98372 92.55006
#
# Poissons Ratio (x) = 0.02773 0.09322
# Poissons Ratio (y) = 0.02052 0.06411
# Poissons Ratio (z) = 0.06408 0.05956
#
# Static dielectric constant tensor:
#      x y z
#    x 1.842460 0.000000 0.000000 
#    y 0.000000 1.813890 0.000000 
#    z 0.000000 0.000000 1.914610 
# 
# From -- ./inp_files/8296.got.cif
#   From: 2010.05.17/outbox.cif.g08.bks.cpg/sg20_5_cif.got.tgz:8296.got - 2010.06.03 22:52:26.
