data_PCOD9321817
_publ_section_title
;
Structure prediction by ZEFSAII (Michael W. Deem and Ramdas Pophale) SiO2 
 PCOD9321817
Probable space group: C 2 2 21
;
_chemical_formula_sum "Si O2"
_cell_formula_units_Z 56
_cell_length_a 14.818217
_cell_length_b 18.840361
_cell_length_c 9.615402
_cell_angle_alpha 90.000000
_cell_angle_beta 90.000000
_cell_angle_gamma 90.000000
_cell_volume 2684.433292
_symmetry_space_group_name_H-M "C 2 2 21"
_symmetry_group_IT_number 20
_symmetry_cell_setting 'orthorhombic'
loop_
_space_group_symop_operation_xyz
x,y,z
-x,-y,1/2+z
x,-y,-z
-x,y,1/2-z
1/2+x,1/2+y,z
1/2-x,1/2-y,1/2+z
1/2+x,1/2-y,-z
1/2-x,1/2+y,1/2-z
loop_
_atom_site_type_symbol
_atom_site_label
_atom_site_fract_x
_atom_site_fract_y
_atom_site_fract_z
Si Si1 0.840069 0.777776 0.000327
Si Si2 0.233974 0.901241 0.310716
Si Si3 0.902988 0.166902 0.263833
Si Si4 0.058967 0.567331 0.892421
Si Si5 0.580478 0.491129 0.658684
Si Si6 0.520344 0.200118 0.093502
Si Si7 0.822434 0.189303 0.545406
O O1 0.838169 0.787249 0.833172
O O2 0.764682 0.720252 0.032265
O O3 0.808848 0.850036 0.072341
O O4 0.937585 0.751757 0.050414
O O5 0.338010 0.917348 0.343276
O O6 0.175504 0.972420 0.312453
O O7 0.212191 0.861058 0.166932
O O8 0.878653 0.153448 0.422173
O O9 0.000000 0.203880 0.250000
O O10 0.911727 0.091350 0.191452
O O11 0.000000 0.557986 0.750000
O O12 0.055163 0.500000 0.000000
O O13 0.028338 0.636369 0.982423
O O14 0.555385 0.500000 0.500000
O O15 0.500000 0.523520 0.750000
O O16 0.500000 0.173745 0.250000
O O17 0.612375 0.246735 0.095820
#
# Coordination Sequence:
#
# PCOD9321817 Si02
#       7
#     8   8   8   8   8   8   8
#     4  12  24  44  71 105 143 189 243 300 374 431
#     4  12  26  46  74 105 147 190 244 305 370 443
#     4  11  25  43  69 100 145 189 237 299 365 440
#     4  12  29  56  80 106 148 204 261 316 376 447
#     4  11  26  44  69 101 143 188 232 291 363 442
#     4  12  26  45  76 109 152 191 244 311 371 454
#     4  12  26  42  69 112 141 189 242 295 373 436
#
# _framework density 20.861013
#
# number of rings (size 3 to 8) (size 9 to 14) (size 15 to 20)
#    0.000    0.286    5.714    2.571    8.000    0.000 
#    5.143    0.000    0.000    0.000    0.000    0.000 
#    0.000    0.000    0.000    0.000    0.000    0.000 
#
# Total GULP energy -156477.643448 kJ/mol
# GULP energy per Si atom -5588.487266 kJ/mol
# Density = 2.081353 g / cm^3
# Si number density = 20.861013 Si / 1000 Ang^3
#
#
#
# Elastic Constant Matrix: (Units=GPa)
#
#
# Indices 1 2 3 4 5 6 
#
# 1 139.2636 31.0664 46.0138 0.0000 0.0000 0.0000
# 2 31.0664 49.0181 46.2429 0.0000 0.0000 0.0000
# 3 46.0138 46.2429 150.3887 0.0000 0.0000 0.0000
# 4 0.0000 0.0000 0.0000 32.2302 0.0000 0.0000
# 5 0.0000 0.0000 0.0000 0.0000 34.5666 0.0000
# 6 0.0000 0.0000 0.0000 0.0000 0.0000 34.8807
#
#
#
# Elastic Compliance Matrix: (Units=1/GPa)
#
#
# Indices 1 2 3 4 5 6 
#
# 1 0.008550 -0.004157 -0.001338 0.000000 0.000000 0.000000
# 2 -0.004157 0.030757 -0.008186 0.000000 0.000000 0.000000
# 3 -0.001338 -0.008186 0.009576 0.000000 0.000000 0.000000
# 4 0.000000 0.000000 0.000000 0.031027 0.000000 0.000000
# 5 0.000000 0.000000 0.000000 0.000000 0.028930 0.000000
# 6 0.000000 0.000000 0.000000 0.000000 0.000000 0.028669
#
#
# Mechanical properties :
#
#
# Convention : Reuss Voigt Hill
#
# Bulk Modulus (GPa) = 46.46284 65.03519 55.74902
# Shear Modulus (GPa) = 29.06245 34.69199 31.87722
#
# Velocity S-wave (km/s) = 3.73654 4.08242 3.91330
# Velocity P-wave (km/s) = 6.39817 7.31196 6.87027
#
# Compressibility (1/GPa) = 0.02152257
#
# Stress axis : x y z
#
# Youngs Moduli (GPa) = 116.96033 32.51258 104.42977
#
# Poissons Ratio (x) = 0.13514 0.13971
# Poissons Ratio (y) = 0.48616 0.85484
# Poissons Ratio (z) = 0.15648 0.26614
#
# Static dielectric constant tensor:
#      x y z
#    x 1.809660 0.000000 0.000000 
#    y 0.000000 1.739490 0.000000 
#    z 0.000000 0.000000 1.798520 
# 
# From -- ./inp_files/8731.got.cif
#   From: 2010.05.17/outbox.cif.g08.bks.cpg/sg20_5_cif.got.tgz:8731.got - 2010.06.03 22:52:26.
