data_PCOD9321934
_publ_section_title
;
Structure prediction by ZEFSAII (Michael W. Deem and Ramdas Pophale) SiO2 
 PCOD9321934
Probable space group: C 2 2 21
;
_chemical_formula_sum "Si O2"
_cell_formula_units_Z 40
_cell_length_a 17.589980
_cell_length_b 17.291141
_cell_length_c 5.915432
_cell_angle_alpha 90.000000
_cell_angle_beta 90.000000
_cell_angle_gamma 90.000000
_cell_volume 1799.183519
_symmetry_space_group_name_H-M "C 2 2 21"
_symmetry_group_IT_number 20
_symmetry_cell_setting 'orthorhombic'
loop_
_space_group_symop_operation_xyz
x,y,z
-x,-y,1/2+z
x,-y,-z
-x,y,1/2-z
1/2+x,1/2+y,z
1/2-x,1/2-y,1/2+z
1/2+x,1/2-y,-z
1/2-x,1/2+y,1/2-z
loop_
_atom_site_type_symbol
_atom_site_label
_atom_site_fract_x
_atom_site_fract_y
_atom_site_fract_z
Si Si1 0.000000 0.925258 0.250000
Si Si2 0.905412 0.195239 0.953112
Si Si3 0.275475 0.416291 0.875661
Si Si4 0.500000 0.959890 0.750000
Si Si5 0.362770 0.500000 0.500000
Si Si6 0.000000 0.694933 0.750000
Si Si7 0.610825 0.841233 0.855191
O O1 0.025955 0.866386 0.441419
O O2 0.924045 0.970105 0.315488
O O3 0.893363 0.253214 0.739775
O O4 0.833192 0.143350 0.006781
O O5 0.934485 0.253712 0.137877
O O6 0.309897 0.437500 0.626985
O O7 0.195512 0.372053 0.884726
O O8 0.270524 0.500000 0.000000
O O9 0.572409 0.905222 0.694822
O O10 0.486136 0.000000 0.500000
O O11 0.947269 0.654159 0.564951
#
# Coordination Sequence:
#
# PCOD9321934 Si02
#       7
#     4   8   8   4   4   4   8
#     4  12  21  47  74 108 138 194 248 306 385 479
#     4  12  25  46  75 109 146 195 256 317 393 471
#     4  12  29  48  72 111 156 197 251 324 402 471
#     4  12  26  50  82 114 154 218 278 338 402 486
#     4  12  26  46  74 108 154 194 246 316 394 474
#     4  12  23  49  76 104 146 202 264 320 391 475
#     4  12  28  47  74 113 149 204 263 328 398 481
#
# _framework density 22.232308
#
# number of rings (size 3 to 8) (size 9 to 14) (size 15 to 20)
#    0.000    0.000    6.000    3.600    4.200    1.600 
#    0.000    0.000    0.000    0.000    0.000    0.000 
#    0.000    0.000    0.000    0.000    0.000    0.000 
#
# Total GULP energy -111422.090284 kJ/mol
# GULP energy per Si atom -5571.104514 kJ/mol
# Density = 2.218171 g / cm^3
# Si number density = 22.232308 Si / 1000 Ang^3
#
#
#
# Elastic Constant Matrix: (Units=GPa)
#
#
# Indices 1 2 3 4 5 6 
#
# 1 158.9322 58.1178 34.1425 0.0000 0.0000 0.0000
# 2 58.1178 110.5716 40.9953 0.0000 0.0000 0.0000
# 3 34.1425 40.9953 80.6669 0.0000 0.0000 0.0000
# 4 0.0000 0.0000 0.0000 45.7465 0.0000 0.0000
# 5 0.0000 0.0000 0.0000 0.0000 19.5866 0.0000
# 6 0.0000 0.0000 0.0000 0.0000 0.0000 -13.4597
#
#
#
# Elastic Compliance Matrix: (Units=1/GPa)
#
#
# Indices 1 2 3 4 5 6 
#
# 1 0.007939 -0.003607 -0.001527 0.000000 0.000000 0.000000
# 2 -0.003607 0.012782 -0.004969 0.000000 0.000000 0.000000
# 3 -0.001527 -0.004969 0.015569 0.000000 0.000000 0.000000
# 4 0.000000 0.000000 0.000000 0.021860 0.000000 0.000000
# 5 0.000000 0.000000 0.000000 0.000000 0.051055 0.000000
# 6 0.000000 0.000000 0.000000 0.000000 0.000000 -0.074296
#
#
# Mechanical properties :
#
#
# Convention : Reuss Voigt Hill
#
# Bulk Modulus (GPa) = 62.17747 68.52022 65.34884
# Shear Modulus (GPa) = 82.67727 24.83568 53.75647
#
# Velocity S-wave (km/s) = 6.10480 3.34593 4.92259
# Velocity P-wave (km/s) = 8.81586 6.76860 7.85918
#
# Compressibility (1/GPa) = 0.01608300
#
# Stress axis : x y z
#
# Youngs Moduli (GPa) = 125.96173 78.23510 64.23195
#
# Poissons Ratio (x) = 0.28216 0.09810
# Poissons Ratio (y) = 0.45428 0.31919
# Poissons Ratio (z) = 0.19238 0.38878
#
# Static dielectric constant tensor:
#      x y z
#    x 1.705760 0.000000 0.000000 
#    y 0.000000 1.879890 0.000000 
#    z 0.000000 0.000000 1.974960 
# 
# From -- ./inp_files/2564.got.cif
#   From: 2010.05.17/outbox.cif.g08.bks.cpg/sg20_2_cif.got.tgz:2564.got - 2010.06.03 22:52:26.
