data_PCOD9321127
_publ_section_title
;
Structure prediction by ZEFSAII (Michael W. Deem and Ramdas Pophale) SiO2 
 PCOD9321127
Probable space group: C 2 2 21
;
_chemical_formula_sum "Si O2"
_cell_formula_units_Z 40
_cell_length_a 10.936581
_cell_length_b 10.397512
_cell_length_c 15.383149
_cell_angle_alpha 90.000000
_cell_angle_beta 90.000000
_cell_angle_gamma 90.000000
_cell_volume 1749.267594
_symmetry_space_group_name_H-M "C 2 2 21"
_symmetry_group_IT_number 20
_symmetry_cell_setting 'orthorhombic'
loop_
_space_group_symop_operation_xyz
x,y,z
-x,-y,1/2+z
x,-y,-z
-x,y,1/2-z
1/2+x,1/2+y,z
1/2-x,1/2-y,1/2+z
1/2+x,1/2-y,-z
1/2-x,1/2+y,1/2-z
loop_
_atom_site_type_symbol
_atom_site_label
_atom_site_fract_x
_atom_site_fract_y
_atom_site_fract_z
Si Si1 0.202650 0.000000 0.000000
Si Si2 0.000000 0.648290 0.750000
Si Si3 0.000000 0.955727 0.250000
Si Si4 0.744655 0.127548 0.674779
Si Si5 0.971286 0.233688 0.442116
Si Si6 0.125086 0.500000 0.000000
Si Si7 0.822931 0.901080 0.881710
O O1 0.124463 0.122471 0.034293
O O2 0.272491 0.942076 0.082291
O O3 0.871227 0.578227 0.769196
O O4 0.972908 0.727101 0.660607
O O5 0.074431 0.028535 0.325678
O O6 0.116029 0.891350 0.203506
O O7 0.729066 0.280925 0.671228
O O8 0.947120 0.366405 0.492266
O O9 0.102856 0.168687 0.459996
O O10 0.215921 0.487905 0.918109
#
# Coordination Sequence:
#
# PCOD9321127 Si02
#       7
#     4   4   4   8   8   4   8
#     4  12  23  45  80 112 148 196 262 304 386 442
#     4  10  25  50  73 106 163 196 245 316 391 428
#     4  12  25  46  79 102 155 198 253 302 387 442
#     4  11  25  46  75 112 142 204 246 311 372 456
#     4  11  24  47  74 105 149 200 240 315 368 448
#     4  12  25  45  72 106 144 190 258 300 380 446
#     4  11  24  43  72 104 147 191 246 318 371 440
#
# _framework density 22.866712
#
# number of rings (size 3 to 8) (size 9 to 14) (size 15 to 20)
#    0.000    0.800    4.000    4.200    0.000    3.200 
#    0.000    6.000    0.000    0.000    0.000    0.000 
#    0.000    0.000    0.000    0.000    0.000    0.000 
#
# Total GULP energy -111578.119683 kJ/mol
# GULP energy per Si atom -5578.905984 kJ/mol
# Density = 2.281467 g / cm^3
# Si number density = 22.866712 Si / 1000 Ang^3
#
#
#
# Elastic Constant Matrix: (Units=GPa)
#
#
# Indices 1 2 3 4 5 6 
#
# 1 133.7275 45.3973 45.2115 0.0000 0.0000 0.0000
# 2 45.3973 83.4278 16.3316 0.0000 0.0000 0.0000
# 3 45.2115 16.3316 91.1616 0.0000 0.0000 0.0000
# 4 0.0000 0.0000 0.0000 13.1676 0.0000 0.0000
# 5 0.0000 0.0000 0.0000 0.0000 37.6304 0.0000
# 6 0.0000 0.0000 0.0000 0.0000 0.0000 59.9532
#
#
#
# Elastic Compliance Matrix: (Units=1/GPa)
#
#
# Indices 1 2 3 4 5 6 
#
# 1 0.010636 -0.004928 -0.004392 0.000000 0.000000 0.000000
# 2 -0.004928 0.014705 -0.000191 0.000000 0.000000 0.000000
# 3 -0.004392 -0.000191 0.013182 0.000000 0.000000 0.000000
# 4 0.000000 0.000000 0.000000 0.075944 0.000000 0.000000
# 5 0.000000 0.000000 0.000000 0.000000 0.026574 0.000000
# 6 0.000000 0.000000 0.000000 0.000000 0.000000 0.016680
#
#
# Mechanical properties :
#
#
# Convention : Reuss Voigt Hill
#
# Bulk Modulus (GPa) = 51.27603 58.02197 54.64900
# Shear Modulus (GPa) = 27.28645 35.57534 31.43090
#
# Velocity S-wave (km/s) = 3.45814 3.94860 3.71148
# Velocity P-wave (km/s) = 6.19819 6.79836 6.50520
#
# Compressibility (1/GPa) = 0.01950229
#
# Stress axis : x y z
#
# Youngs Moduli (GPa) = 94.02434 68.00375 75.86195
#
# Poissons Ratio (x) = 0.33509 0.33318
# Poissons Ratio (y) = 0.46331 0.01446
# Poissons Ratio (z) = 0.41295 0.01296
#
# Static dielectric constant tensor:
#      x y z
#    x 1.906470 0.000000 0.000000 
#    y 0.000000 1.888230 0.000000 
#    z 0.000000 0.000000 1.899140 
# 
# From -- ./inp_files/23229.got.cif
#   From: 2010.05.17/outbox.cif.g08.bks.cpg/sg20_12_cif.got.tgz:23229.got - 2010.06.03 22:52:26.
