data_PCOD9321033
_publ_section_title
;
Structure prediction by ZEFSAII (Michael W. Deem and Ramdas Pophale) SiO2 
 PCOD9321033
Probable space group: C 2 2 21
;
_chemical_formula_sum "Si O2"
_cell_formula_units_Z 52
_cell_length_a 5.410735
_cell_length_b 21.879831
_cell_length_c 18.522873
_cell_angle_alpha 90.000000
_cell_angle_beta 90.000000
_cell_angle_gamma 90.000000
_cell_volume 2192.848239
_symmetry_space_group_name_H-M "C 2 2 21"
_symmetry_group_IT_number 20
_symmetry_cell_setting 'orthorhombic'
loop_
_space_group_symop_operation_xyz
x,y,z
-x,-y,1/2+z
x,-y,-z
-x,y,1/2-z
1/2+x,1/2+y,z
1/2-x,1/2-y,1/2+z
1/2+x,1/2-y,-z
1/2-x,1/2+y,1/2-z
loop_
_atom_site_type_symbol
_atom_site_label
_atom_site_fract_x
_atom_site_fract_y
_atom_site_fract_z
Si Si1 0.689010 0.653253 0.444235
Si Si2 0.647601 0.118442 0.820765
Si Si3 0.000000 0.703862 0.250000
Si Si4 0.465437 0.385687 0.414098
Si Si5 0.307073 0.115036 0.130241
Si Si6 0.344324 0.225360 0.866782
Si Si7 0.911991 0.484110 0.079363
O O1 0.661192 0.635894 0.526957
O O2 0.470725 0.617339 0.401375
O O3 0.611218 0.721739 0.424008
O O4 0.969803 0.642066 0.419292
O O5 0.500000 0.102703 0.750000
O O6 0.937567 0.112298 0.832064
O O7 0.580658 0.189796 0.835191
O O8 0.560700 0.067203 0.877907
O O9 0.831878 0.657246 0.201594
O O10 0.828991 0.744438 0.304110
O O11 0.278871 0.329706 0.410435
O O12 0.345687 0.449283 0.435521
O O13 0.377772 0.043443 0.129296
O O14 0.016696 0.500000 0.000000
#
# Coordination Sequence:
#
# PCOD9321033 Si02
#       7
#     8   8   4   8   8   8   8
#     4  11  26  44  74 110 141 190 246 306 370 439
#     4  11  26  43  72 104 144 199 244 307 379 450
#     4  10  24  48  72 104 148 192 236 306 370 440
#     4  11  25  44  72 102 143 196 242 311 372 442
#     4  11  26  46  75 109 140 193 244 300 371 434
#     4  10  25  41  70 101 146 185 242 298 368 447
#     4  11  24  47  71 102 143 190 249 307 365 442
#
# _framework density 23.713449000000001
#
# number of rings (size 3 to 8) (size 9 to 14) (size 15 to 20)
#    0.000    1.231    1.538    1.846   14.000    4.308 
#    0.000    3.077    0.000    0.000    0.000    0.000 
#    0.000    0.000    0.000    0.000    0.000    0.000 
#
# Total GULP energy -145139.808659 kJ/mol
# GULP energy per Si atom -5582.300333 kJ/mol
# Density = 2.365948 g / cm^3
# Si number density = 23.713449 Si / 1000 Ang^3
#
#
#
# Elastic Constant Matrix: (Units=GPa)
#
#
# Indices 1 2 3 4 5 6 
#
# 1 19.4662 -10.9534 5.3763 0.0000 0.0000 0.0000
# 2 -10.9534 146.9460 23.9647 0.0000 0.0000 0.0000
# 3 5.3763 23.9647 79.1912 0.0000 0.0000 0.0000
# 4 0.0000 0.0000 0.0000 23.2496 0.0000 0.0000
# 5 0.0000 0.0000 0.0000 0.0000 26.8852 0.0000
# 6 0.0000 0.0000 0.0000 0.0000 0.0000 29.8964
#
#
#
# Elastic Compliance Matrix: (Units=1/GPa)
#
#
# Indices 1 2 3 4 5 6 
#
# 1 0.055654 0.005012 -0.005295 0.000000 0.000000 0.000000
# 2 0.005012 0.007610 -0.002643 0.000000 0.000000 0.000000
# 3 -0.005295 -0.002643 0.013787 0.000000 0.000000 0.000000
# 4 0.000000 0.000000 0.000000 0.043012 0.000000 0.000000
# 5 0.000000 0.000000 0.000000 0.000000 0.037195 0.000000
# 6 0.000000 0.000000 0.000000 0.000000 0.000000 0.033449
#
#
# Mechanical properties :
#
#
# Convention : Reuss Voigt Hill
#
# Bulk Modulus (GPa) = 14.04530 31.37540 22.71035
# Shear Modulus (GPa) = 22.69721 31.15395 26.92558
#
# Velocity S-wave (km/s) = 3.09713 3.62852 3.37331
# Velocity P-wave (km/s) = 4.32729 5.55110 4.97695
#
# Compressibility (1/GPa) = 0.07119820
#
# Stress axis : x y z
#
# Youngs Moduli (GPa) = 17.96825 131.40827 72.53208
#
# Poissons Ratio (x) = -0.65861 0.38406
# Poissons Ratio (y) = -0.09006 0.19171
# Poissons Ratio (z) = 0.09514 0.34733
#
# Static dielectric constant tensor:
#      x y z
#    x 2.138580 0.000000 0.000000 
#    y 0.000000 1.847560 0.000000 
#    z 0.000000 0.000000 2.028530 
# 
# From -- ./inp_files/26123.got.cif
#   From: 2010.05.17/outbox.cif.g08.bks.cpg/sg20_14_cif.got.tgz:26123.got - 2010.06.03 22:52:26.
