data_PCOD9321088
_publ_section_title
;
Structure prediction by ZEFSAII (Michael W. Deem and Ramdas Pophale) SiO2 
 PCOD9321088
Probable space group: C 2 2 21
;
_chemical_formula_sum "Si O2"
_cell_formula_units_Z 48
_cell_length_a 13.819781
_cell_length_b 5.049661
_cell_length_c 26.971858
_cell_angle_alpha 90.000000
_cell_angle_beta 90.000000
_cell_angle_gamma 90.000000
_cell_volume 1882.236752
_symmetry_space_group_name_H-M "C 2 2 21"
_symmetry_group_IT_number 20
_symmetry_cell_setting 'orthorhombic'
loop_
_space_group_symop_operation_xyz
x,y,z
-x,-y,1/2+z
x,-y,-z
-x,y,1/2-z
1/2+x,1/2+y,z
1/2-x,1/2-y,1/2+z
1/2+x,1/2-y,-z
1/2-x,1/2+y,1/2-z
loop_
_atom_site_type_symbol
_atom_site_label
_atom_site_fract_x
_atom_site_fract_y
_atom_site_fract_z
Si Si1 0.077390 0.657254 0.050395
Si Si2 0.218424 0.263306 0.466658
Si Si3 0.190211 0.682178 0.760291
Si Si4 0.450937 0.793792 0.797144
Si Si5 0.087818 0.644341 0.855273
Si Si6 0.580453 0.483548 0.390458
O O1 0.171139 0.844975 0.046087
O O2 0.117794 0.449340 0.090901
O O3 0.981961 0.804087 0.070893
O O4 0.056950 0.500000 0.000000
O O5 0.176252 0.500000 0.500000
O O6 0.225388 0.000000 0.500000
O O7 0.155533 0.168687 0.419711
O O8 0.269472 0.448980 0.763381
O O9 0.106010 0.539803 0.728133
O O10 0.160044 0.761203 0.815760
O O11 0.500000 0.639418 0.750000
O O12 0.385927 0.684325 0.842680
O O13 0.545215 0.889435 0.827148
O O14 0.997990 0.831091 0.864613
#
# Coordination Sequence:
#
# PCOD9321088 Si02
#       6
#     8   8   8   8   8   8
#     4  10  26  49  74 109 154 199 253 325 380 457
#     4  11  29  49  73 112 149 194 258 316 377 457
#     4  11  27  46  75 109 152 197 245 313 380 453
#     4   9  23  46  70 107 147 194 247 313 368 455
#     4  10  25  44  72 109 142 200 253 303 387 453
#     4  11  26  46  83 105 153 202 257 311 389 458
#
# _framework density 25.501573
#
# number of rings (size 3 to 8) (size 9 to 14) (size 15 to 20)
#    0.000    1.667    0.000    0.000   23.333    0.667 
#    0.000    0.000    0.000    0.000    0.000    0.000 
#    0.000    0.000    0.000    0.000    0.000    0.000 
#
# Total GULP energy -134168.205163 kJ/mol
# GULP energy per Si atom -5590.341882 kJ/mol
# Density = 2.544353 g / cm^3
# Si number density = 25.501573 Si / 1000 Ang^3
#
#
#
# Elastic Constant Matrix: (Units=GPa)
#
#
# Indices 1 2 3 4 5 6 
#
# 1 98.6969 13.9966 58.2747 0.0000 0.0000 0.0000
# 2 13.9966 75.4124 55.0411 0.0000 0.0000 0.0000
# 3 58.2747 55.0411 186.3113 0.0000 0.0000 0.0000
# 4 0.0000 0.0000 0.0000 50.7539 0.0000 0.0000
# 5 0.0000 0.0000 0.0000 0.0000 13.7657 0.0000
# 6 0.0000 0.0000 0.0000 0.0000 0.0000 34.3305
#
#
#
# Elastic Compliance Matrix: (Units=1/GPa)
#
#
# Indices 1 2 3 4 5 6 
#
# 1 0.012454 0.000678 -0.004096 0.000000 0.000000 0.000000
# 2 0.000678 0.016943 -0.005217 0.000000 0.000000 0.000000
# 3 -0.004096 -0.005217 0.008190 0.000000 0.000000 0.000000
# 4 0.000000 0.000000 0.000000 0.019703 0.000000 0.000000
# 5 0.000000 0.000000 0.000000 0.000000 0.072645 0.000000
# 6 0.000000 0.000000 0.000000 0.000000 0.000000 0.029129
#
#
# Mechanical properties :
#
#
# Convention : Reuss Voigt Hill
#
# Bulk Modulus (GPa) = 49.22196 68.33839 58.78018
# Shear Modulus (GPa) = 27.30678 35.31057 31.30868
#
# Velocity S-wave (km/s) = 3.27584 3.72512 3.50768
# Velocity P-wave (km/s) = 5.80100 6.73483 6.28528
#
# Compressibility (1/GPa) = 0.02031614
#
# Stress axis : x y z
#
# Youngs Moduli (GPa) = 80.29453 59.02310 122.10438
#
# Poissons Ratio (x) = -0.04001 0.50010
# Poissons Ratio (y) = -0.05442 0.63705
# Poissons Ratio (z) = 0.32886 0.30794
#
# Static dielectric constant tensor:
#      x y z
#    x 2.097440 0.000000 0.000000 
#    y 0.000000 2.141190 0.000000 
#    z 0.000000 0.000000 2.142120 
# 
# From -- ./inp_files/30414.got.cif
#   From: 2010.05.17/outbox.cif.g08.bks.cpg/sg20_16_cif.got.tgz:30414.got - 2010.06.03 22:52:26.
