data_PCOD9321002
_publ_section_title
;
Structure prediction by ZEFSAII (Michael W. Deem and Ramdas Pophale) SiO2 
 PCOD9321002
Probable space group: C 2 2 21
;
_chemical_formula_sum "Si O2"
_cell_formula_units_Z 40
_cell_length_a 9.295002
_cell_length_b 10.752618
_cell_length_c 16.510491
_cell_angle_alpha 90.000000
_cell_angle_beta 90.000000
_cell_angle_gamma 90.000000
_cell_volume 1650.151025
_symmetry_space_group_name_H-M "C 2 2 21"
_symmetry_group_IT_number 20
_symmetry_cell_setting 'orthorhombic'
loop_
_space_group_symop_operation_xyz
x,y,z
-x,-y,1/2+z
x,-y,-z
-x,y,1/2-z
1/2+x,1/2+y,z
1/2-x,1/2-y,1/2+z
1/2+x,1/2-y,-z
1/2-x,1/2+y,1/2-z
loop_
_atom_site_type_symbol
_atom_site_label
_atom_site_fract_x
_atom_site_fract_y
_atom_site_fract_z
Si Si1 0.094504 0.401427 0.937163
Si Si2 0.415838 0.286042 0.678382
Si Si3 0.853572 0.572100 0.866738
Si Si4 0.606372 0.367010 0.001802
Si Si5 0.668609 0.128218 0.238241
O O1 0.049363 0.267433 0.971280
O O2 0.191769 0.384723 0.857505
O O3 0.949481 0.467917 0.909927
O O4 0.161739 0.500000 0.000000
O O5 0.500000 0.360811 0.750000
O O6 0.526978 0.175350 0.658070
O O7 0.370356 0.345868 0.593769
O O8 0.263875 0.263991 0.722484
O O9 0.736182 0.614255 0.932891
O O10 0.798610 0.499203 0.786936
O O11 0.525695 0.500000 0.000000
O O12 0.500000 0.154023 0.250000
#
# Coordination Sequence:
#
# PCOD9321002 Si02
#       5
#     8   8   8   8   8
#     4  11  23  43  78 113 140 209 275 320 402 501
#     4  12  25  46  80 119 164 213 268 346 422 491
#     4  11  24  49  83 106 158 218 270 339 420 488
#     4  12  26  46  80 113 161 213 269 339 411 489
#     4  10  24  46  82 113 155 217 270 335 423 498
#
# _framework density 24.240205
#
# number of rings (size 3 to 8) (size 9 to 14) (size 15 to 20)
#    0.000    0.800    4.000    3.600    2.800    0.000 
#    0.000    7.000    8.800    0.000    0.000    0.000 
#    0.000    0.000    0.000    0.000    0.000    0.000 
#
# Total GULP energy -111542.511202 kJ/mol
# GULP energy per Si atom -5577.125560 kJ/mol
# Density = 2.418503 g / cm^3
# Si number density = 24.240205 Si / 1000 Ang^3
#
#
#
# Elastic Constant Matrix: (Units=GPa)
#
#
# Indices 1 2 3 4 5 6 
#
# 1 72.8388 38.4784 27.3073 0.0000 0.0000 0.0000
# 2 38.4784 162.2451 60.9443 0.0000 0.0000 0.0000
# 3 27.3073 60.9443 180.2502 0.0000 0.0000 0.0000
# 4 0.0000 0.0000 0.0000 32.7528 0.0000 0.0000
# 5 0.0000 0.0000 0.0000 0.0000 34.9631 0.0000
# 6 0.0000 0.0000 0.0000 0.0000 0.0000 34.5655
#
#
#
# Elastic Compliance Matrix: (Units=1/GPa)
#
#
# Indices 1 2 3 4 5 6 
#
# 1 0.015958 -0.003295 -0.001304 0.000000 0.000000 0.000000
# 2 -0.003295 0.007741 -0.002118 0.000000 0.000000 0.000000
# 3 -0.001304 -0.002118 0.006461 0.000000 0.000000 0.000000
# 4 0.000000 0.000000 0.000000 0.030532 0.000000 0.000000
# 5 0.000000 0.000000 0.000000 0.000000 0.028602 0.000000
# 6 0.000000 0.000000 0.000000 0.000000 0.000000 0.028931
#
#
# Mechanical properties :
#
#
# Convention : Reuss Voigt Hill
#
# Bulk Modulus (GPa) = 59.78296 74.31044 67.04670
# Shear Modulus (GPa) = 36.43437 39.69655 38.06546
#
# Velocity S-wave (km/s) = 3.88113 4.05116 3.96706
# Velocity P-wave (km/s) = 6.69332 7.25292 6.97873
#
# Compressibility (1/GPa) = 0.01672717
#
# Stress axis : x y z
#
# Youngs Moduli (GPa) = 62.66326 129.18980 154.76450
#
# Poissons Ratio (x) = 0.42569 0.20174
# Poissons Ratio (y) = 0.20648 0.32779
# Poissons Ratio (z) = 0.08168 0.27362
#
# Static dielectric constant tensor:
#      x y z
#    x 1.974910 0.000000 0.000000 
#    y 0.000000 2.036410 0.000000 
#    z 0.000000 0.000000 2.121460 
# 
# From -- ./inp_files/23140.got.cif
#   From: 2010.05.17/outbox.cif.g08.bks.cpg/sg20_12_cif.got.tgz:23140.got - 2010.06.03 22:52:26.
