data_PCOD9321442
_publ_section_title
;
Structure prediction by ZEFSAII (Michael W. Deem and Ramdas Pophale) SiO2 
 PCOD9321442
Probable space group: C 2 2 21
;
_chemical_formula_sum "Si O2"
_cell_formula_units_Z 32
_cell_length_a 22.956764
_cell_length_b 10.110166
_cell_length_c 5.218478
_cell_angle_alpha 90.000000
_cell_angle_beta 90.000000
_cell_angle_gamma 90.000000
_cell_volume 1211.191496
_symmetry_space_group_name_H-M "C 2 2 21"
_symmetry_group_IT_number 20
_symmetry_cell_setting 'orthorhombic'
loop_
_space_group_symop_operation_xyz
x,y,z
-x,-y,1/2+z
x,-y,-z
-x,y,1/2-z
1/2+x,1/2+y,z
1/2-x,1/2-y,1/2+z
1/2+x,1/2-y,-z
1/2-x,1/2+y,1/2-z
loop_
_atom_site_type_symbol
_atom_site_label
_atom_site_fract_x
_atom_site_fract_y
_atom_site_fract_z
Si Si1 0.080843 0.412807 0.727488
Si Si2 0.952560 0.845798 0.957177
Si Si3 0.800581 0.629596 0.334442
Si Si4 0.669011 0.366808 0.833181
O O1 0.052534 0.500000 0.500000
O O2 0.055821 0.262753 0.685179
O O3 0.148525 0.393778 0.633479
O O4 0.079181 0.500000 0.000000
O O5 0.887352 0.863858 0.842349
O O6 0.000000 0.794601 0.750000
O O7 0.970686 0.000000 0.000000
O O8 0.796683 0.500000 0.500000
O O9 0.733363 0.656755 0.282473
O O10 0.833296 0.744009 0.482669
O O11 0.670854 0.500000 0.000000
#
# Coordination Sequence:
#
# PCOD9321442 Si02
#       4
#     8   8   8   8
#     4  11  25  50  81 115 155 204 268 339 411 483
#     4  12  27  49  77 115 163 220 278 341 410 498
#     4  11  22  40  70 109 152 200 256 328 405 479
#     4  12  23  41  70 111 160 212 269 334 408 490
#
# _framework density 26.420265000000001
#
# number of rings (size 3 to 8) (size 9 to 14) (size 15 to 20)
#    0.000    0.500    0.000    9.750    0.000    2.000 
#    0.000    6.250    0.000    1.500    0.000    0.000 
#    0.000    0.000    0.000    0.000    0.000    0.000 
#
# Total GULP energy -89213.805855 kJ/mol
# GULP energy per Si atom -5575.862866 kJ/mol
# Density = 2.636013 g / cm^3
# Si number density = 26.420265 Si / 1000 Ang^3
#
#
#
# Elastic Constant Matrix: (Units=GPa)
#
#
# Indices 1 2 3 4 5 6 
#
# 1 190.2736 -36.6726 30.9635 0.0000 0.0000 0.0000
# 2 -36.6726 162.9686 52.3681 0.0000 0.0000 0.0000
# 3 30.9635 52.3681 93.1064 0.0000 0.0000 0.0000
# 4 0.0000 0.0000 0.0000 458.4565 0.0000 0.0000
# 5 0.0000 0.0000 0.0000 0.0000 59.7766 0.0000
# 6 0.0000 0.0000 0.0000 0.0000 0.0000 162.0843
#
#
#
# Elastic Compliance Matrix: (Units=1/GPa)
#
#
# Indices 1 2 3 4 5 6 
#
# 1 0.006327 0.002563 -0.003545 0.000000 0.000000 0.000000
# 2 0.002563 0.008528 -0.005649 0.000000 0.000000 0.000000
# 3 -0.003545 -0.005649 0.015097 0.000000 0.000000 0.000000
# 4 0.000000 0.000000 0.000000 0.002181 0.000000 0.000000
# 5 0.000000 0.000000 0.000000 0.000000 0.016729 0.000000
# 6 0.000000 0.000000 0.000000 0.000000 0.000000 0.006170
#
#
# Mechanical properties :
#
#
# Convention : Reuss Voigt Hill
#
# Bulk Modulus (GPa) = 59.92208 59.96296 59.94252
# Shear Modulus (GPa) = 67.69819 162.70945 115.20382
#
# Velocity S-wave (km/s) = 5.06747 7.85613 6.61052
# Velocity P-wave (km/s) = 7.54775 10.24875 9.00015
#
# Compressibility (1/GPa) = 0.01668834
#
# Stress axis : x y z
#
# Youngs Moduli (GPa) = 158.06456 117.25890 66.23915
#
# Poissons Ratio (x) = -0.30053 0.23485
# Poissons Ratio (y) = -0.40511 0.37419
# Poissons Ratio (z) = 0.56042 0.66240
#
# Static dielectric constant tensor:
#      x y z
#    x 2.102560 0.000000 0.000000 
#    y 0.000000 2.157640 0.000000 
#    z 0.000000 0.000000 2.540810 
# 
# From -- ./inp_files/4468.got.cif
#   From: 2010.05.17/outbox.cif.g08.bks.cpg/sg20_3_cif.got.tgz:4468.got - 2010.06.03 22:52:26.
