data_PCOD9321606
_publ_section_title
;
Structure prediction by ZEFSAII (Michael W. Deem and Ramdas Pophale) SiO2 
 PCOD9321606
Probable space group: C 2 2 21
;
_chemical_formula_sum "Si O2"
_cell_formula_units_Z 40
_cell_length_a 11.079689
_cell_length_b 13.805495
_cell_length_c 12.182496
_cell_angle_alpha 90.000000
_cell_angle_beta 90.000000
_cell_angle_gamma 90.000000
_cell_volume 1863.441789
_symmetry_space_group_name_H-M "C 2 2 21"
_symmetry_group_IT_number 20
_symmetry_cell_setting 'orthorhombic'
loop_
_space_group_symop_operation_xyz
x,y,z
-x,-y,1/2+z
x,-y,-z
-x,y,1/2-z
1/2+x,1/2+y,z
1/2-x,1/2-y,1/2+z
1/2+x,1/2-y,-z
1/2-x,1/2+y,1/2-z
loop_
_atom_site_type_symbol
_atom_site_label
_atom_site_fract_x
_atom_site_fract_y
_atom_site_fract_z
Si Si1 0.917262 0.251495 0.142958
Si Si2 0.013762 0.682261 0.085020
Si Si3 0.232320 0.886138 0.519525
Si Si4 0.736231 0.887361 0.223180
Si Si5 0.000000 0.139905 0.750000
Si Si6 0.000000 0.477119 0.750000
O O1 0.880717 0.150909 0.087669
O O2 0.800678 0.308422 0.187046
O O3 0.000000 0.242509 0.250000
O O4 0.971554 0.310975 0.040605
O O5 0.151268 0.647475 0.084963
O O6 0.001138 0.784505 0.147385
O O7 0.954208 0.595207 0.154062
O O8 0.249659 0.842072 0.398140
O O9 0.228842 0.000000 0.500000
O O10 0.874183 0.919684 0.248761
O O11 0.618369 0.957950 0.221009
#
# Coordination Sequence:
#
# PCOD9321606 Si02
#       6
#     8   8   8   8   4   4
#     4  12  25  43  75 108 141 193 244 297 369 447
#     4  11  23  43  73 104 140 191 247 294 358 434
#     4  12  24  45  70 100 144 188 243 305 361 425
#     4  12  23  42  72 105 139 186 240 296 361 431
#     4  11  24  42  70 101 144 190 233 302 368 424
#     4  11  24  44  78 109 138 194 247 302 348 440
#
# _framework density 21.465657
#
# number of rings (size 3 to 8) (size 9 to 14) (size 15 to 20)
#    0.000    0.400    9.000    0.000    0.000    0.000 
#    1.800    0.000    8.800    0.000    0.000    0.000 
#    0.000    0.000    0.000    0.000    0.000    0.000 
#
# Total GULP energy -111534.841633 kJ/mol
# GULP energy per Si atom -5576.742082 kJ/mol
# Density = 2.141680 g / cm^3
# Si number density = 21.465657 Si / 1000 Ang^3
#
#
#
# Elastic Constant Matrix: (Units=GPa)
#
#
# Indices 1 2 3 4 5 6 
#
# 1 133.9734 34.6981 37.3909 0.0000 0.0000 0.0000
# 2 34.6981 71.9424 36.2228 0.0000 0.0000 0.0000
# 3 37.3909 36.2228 148.9660 0.0000 0.0000 0.0000
# 4 0.0000 0.0000 0.0000 25.3366 0.0000 0.0000
# 5 0.0000 0.0000 0.0000 0.0000 27.1928 0.0000
# 6 0.0000 0.0000 0.0000 0.0000 0.0000 20.0685
#
#
#
# Elastic Compliance Matrix: (Units=1/GPa)
#
#
# Indices 1 2 3 4 5 6 
#
# 1 0.008756 -0.003551 -0.001334 0.000000 0.000000 0.000000
# 2 -0.003551 0.017280 -0.003310 0.000000 0.000000 0.000000
# 3 -0.001334 -0.003310 0.007853 0.000000 0.000000 0.000000
# 4 0.000000 0.000000 0.000000 0.039469 0.000000 0.000000
# 5 0.000000 0.000000 0.000000 0.000000 0.036774 0.000000
# 6 0.000000 0.000000 0.000000 0.000000 0.000000 0.049829
#
#
# Mechanical properties :
#
#
# Convention : Reuss Voigt Hill
#
# Bulk Modulus (GPa) = 57.15364 63.50057 60.32711
# Shear Modulus (GPa) = 27.44455 30.95757 29.20106
#
# Velocity S-wave (km/s) = 3.57954 3.80174 3.69231
# Velocity P-wave (km/s) = 6.61570 6.99411 6.80754
#
# Compressibility (1/GPa) = 0.01749670
#
# Stress axis : x y z
#
# Youngs Moduli (GPa) = 114.20285 57.87170 127.34319
#
# Poissons Ratio (x) = 0.20553 0.16991
# Poissons Ratio (y) = 0.40558 0.42155
# Poissons Ratio (z) = 0.15238 0.19157
#
# Static dielectric constant tensor:
#      x y z
#    x 1.837340 0.000000 0.000000 
#    y 0.000000 1.803020 0.000000 
#    z 0.000000 0.000000 1.839810 
# 
# From -- ./inp_files/13909.got.cif
#   From: 2010.05.17/outbox.cif.g08.bks.cpg/sg20_7_cif.got.tgz:13909.got - 2010.06.03 22:52:26.
