data_PCOD9321389
_publ_section_title
;
Structure prediction by ZEFSAII (Michael W. Deem and Ramdas Pophale) SiO2 
 PCOD9321389
Probable space group: C 2 2 21
;
_chemical_formula_sum "Si O2"
_cell_formula_units_Z 48
_cell_length_a 6.635713
_cell_length_b 25.745276
_cell_length_c 12.480595
_cell_angle_alpha 90.000000
_cell_angle_beta 90.000000
_cell_angle_gamma 90.000000
_cell_volume 2132.163167
_symmetry_space_group_name_H-M "C 2 2 21"
_symmetry_group_IT_number 20
_symmetry_cell_setting 'orthorhombic'
loop_
_space_group_symop_operation_xyz
x,y,z
-x,-y,1/2+z
x,-y,-z
-x,y,1/2-z
1/2+x,1/2+y,z
1/2-x,1/2-y,1/2+z
1/2+x,1/2-y,-z
1/2-x,1/2+y,1/2-z
loop_
_atom_site_type_symbol
_atom_site_label
_atom_site_fract_x
_atom_site_fract_y
_atom_site_fract_z
Si Si1 0.000000 0.290165 0.750000
Si Si2 0.500000 0.975810 0.750000
Si Si3 0.000000 0.350853 0.250000
Si Si4 0.045080 0.564168 0.571864
Si Si5 0.858122 0.183996 0.104171
Si Si6 0.196623 0.930252 0.611295
Si Si7 0.287375 0.770074 0.384339
Si Si8 0.094414 0.000000 0.000000
O O1 0.803209 0.316886 0.701050
O O2 0.916903 0.257310 0.849287
O O3 0.310529 0.939545 0.723486
O O4 0.504883 0.014598 0.648997
O O5 0.058568 0.386748 0.349974
O O6 0.170396 0.312605 0.206925
O O7 0.260321 0.548291 0.524592
O O8 0.871127 0.571190 0.482509
O O9 0.921862 0.123860 0.099736
O O10 0.033825 0.227046 0.115779
O O11 0.742669 0.200844 0.996061
O O12 0.053126 0.979477 0.591953
#
# Coordination Sequence:
#
# PCOD9321389 Si02
#       8
#     4   4   4   8   8   8   8   4
#     4  12  25  46  73  98 150 191 230 307 364 414
#     4  11  21  48  68  96 146 176 232 302 352 414
#     4  11  24  48  75 102 144 187 244 289 370 424
#     4  11  24  46  71 101 141 183 233 307 352 422
#     4  12  26  45  72 105 147 189 247 294 368 433
#     4  12  25  45  70 103 139 193 236 294 365 431
#     4  12  25  46  74 108 143 188 244 306 350 438
#     4  12  24  46  70 100 144 178 248 296 356 418
#
# _framework density 22.512349
#
# number of rings (size 3 to 8) (size 9 to 14) (size 15 to 20)
#    0.000    0.333    8.333    0.500    0.000    4.667 
#    6.000    0.000    0.000    0.000    0.000    0.000 
#    0.000    0.000    0.000    0.000    0.000    0.000 
#
# Total GULP energy -134026.856266 kJ/mol
# GULP energy per Si atom -5584.452344 kJ/mol
# Density = 2.246111 g / cm^3
# Si number density = 22.512349 Si / 1000 Ang^3
#
#
#
# Elastic Constant Matrix: (Units=GPa)
#
#
# Indices 1 2 3 4 5 6 
#
# 1 73.9504 23.3379 6.8332 0.0000 0.0000 0.0000
# 2 23.3379 109.4376 3.5030 0.0000 0.0000 0.0000
# 3 6.8332 3.5030 56.9066 0.0000 0.0000 0.0000
# 4 0.0000 0.0000 0.0000 33.8855 0.0000 0.0000
# 5 0.0000 0.0000 0.0000 0.0000 42.7947 0.0000
# 6 0.0000 0.0000 0.0000 0.0000 0.0000 7.9236
#
#
#
# Elastic Compliance Matrix: (Units=1/GPa)
#
#
# Indices 1 2 3 4 5 6 
#
# 1 0.014637 -0.003071 -0.001568 0.000000 0.000000 0.000000
# 2 -0.003071 0.009800 -0.000234 0.000000 0.000000 0.000000
# 3 -0.001568 -0.000234 0.017775 0.000000 0.000000 0.000000
# 4 0.000000 0.000000 0.000000 0.029511 0.000000 0.000000
# 5 0.000000 0.000000 0.000000 0.000000 0.023367 0.000000
# 6 0.000000 0.000000 0.000000 0.000000 0.000000 0.126206
#
#
# Mechanical properties :
#
#
# Convention : Reuss Voigt Hill
#
# Bulk Modulus (GPa) = 30.80335 34.18254 32.49295
# Shear Modulus (GPa) = 20.67262 30.69546 25.68404
#
# Velocity S-wave (km/s) = 3.03360 3.69656 3.38137
# Velocity P-wave (km/s) = 5.09734 5.78241 5.45065
#
# Compressibility (1/GPa) = 0.03246400
#
# Stress axis : x y z
#
# Youngs Moduli (GPa) = 68.32134 102.04020 56.25742
#
# Poissons Ratio (x) = 0.31338 0.08824
# Poissons Ratio (y) = 0.20982 0.01319
# Poissons Ratio (z) = 0.10716 0.02393
#
# Static dielectric constant tensor:
#      x y z
#    x 1.862930 0.000000 0.000000 
#    y 0.000000 1.835790 0.000000 
#    z 0.000000 0.000000 1.888890 
# 
# From -- ./inp_files/17860.got.cif
#   From: 2010.05.17/outbox.cif.g08.bks.cpg/sg20_9_cif.got.tgz:17860.got - 2010.06.03 22:52:26.
