data_PCOD9321882
_publ_section_title
;
Structure prediction by ZEFSAII (Michael W. Deem and Ramdas Pophale) SiO2 
 PCOD9321882
Probable space group: C 2 2 21
;
_chemical_formula_sum "Si O2"
_cell_formula_units_Z 40
_cell_length_a 13.223817
_cell_length_b 14.247177
_cell_length_c 8.498034
_cell_angle_alpha 90.000000
_cell_angle_beta 90.000000
_cell_angle_gamma 90.000000
_cell_volume 1601.047124
_symmetry_space_group_name_H-M "C 2 2 21"
_symmetry_group_IT_number 20
_symmetry_cell_setting 'orthorhombic'
loop_
_space_group_symop_operation_xyz
x,y,z
-x,-y,1/2+z
x,-y,-z
-x,y,1/2-z
1/2+x,1/2+y,z
1/2-x,1/2-y,1/2+z
1/2+x,1/2-y,-z
1/2-x,1/2+y,1/2-z
loop_
_atom_site_type_symbol
_atom_site_label
_atom_site_fract_x
_atom_site_fract_y
_atom_site_fract_z
Si Si1 0.604745 0.017687 0.183498
Si Si2 0.649948 0.352913 0.092136
Si Si3 0.340316 0.483120 0.813434
Si Si4 0.819812 0.696642 0.150425
Si Si5 0.955108 0.205505 0.102540
O O1 0.500000 0.977994 0.250000
O O2 0.721231 0.990893 0.219082
O O3 0.614361 0.123382 0.249781
O O4 0.595752 0.000000 0.000000
O O5 0.615560 0.447134 0.183621
O O6 0.696198 0.281501 0.224542
O O7 0.728782 0.355389 0.945078
O O8 0.546834 0.317898 0.013481
O O9 0.394600 0.381316 0.816048
O O10 0.351406 0.500000 0.000000
O O11 0.879453 0.739631 0.006128
O O12 0.000000 0.261222 0.250000
#
# Coordination Sequence:
#
# PCOD9321882 Si02
#       5
#     8   8   8   8   8
#     4  11  27  51  76 108 154 209 272 332 405 490
#     4  12  27  48  82 119 162 216 268 342 412 493
#     4  11  26  47  77 119 160 207 271 336 404 491
#     4  12  27  50  76 118 160 210 275 336 409 495
#     4  12  27  48  79 120 163 214 270 343 419 491
#
# _framework density 24.983650999999998
#
# number of rings (size 3 to 8) (size 9 to 14) (size 15 to 20)
#    0.000    0.400    2.000    5.400    8.400    1.600 
#    7.200    0.000    0.000    0.000    0.000    0.000 
#    0.000    0.000    0.000    0.000    0.000    0.000 
#
# Total GULP energy -111550.263981 kJ/mol
# GULP energy per Si atom -5577.513199 kJ/mol
# Density = 2.492679 g / cm^3
# Si number density = 24.983651 Si / 1000 Ang^3
#
#
#
# Elastic Constant Matrix: (Units=GPa)
#
#
# Indices 1 2 3 4 5 6 
#
# 1 126.6722 22.3039 65.7227 0.0000 0.0000 0.0000
# 2 22.3039 106.3691 73.1407 0.0000 0.0000 0.0000
# 3 65.7227 73.1407 155.6465 0.0000 0.0000 0.0000
# 4 0.0000 0.0000 0.0000 79.3245 0.0000 0.0000
# 5 0.0000 0.0000 0.0000 0.0000 25.1613 0.0000
# 6 0.0000 0.0000 0.0000 0.0000 0.0000 149.0949
#
#
#
# Elastic Compliance Matrix: (Units=1/GPa)
#
#
# Indices 1 2 3 4 5 6 
#
# 1 0.010215 0.001217 -0.004885 0.000000 0.000000 0.000000
# 2 0.001217 0.014034 -0.007109 0.000000 0.000000 0.000000
# 3 -0.004885 -0.007109 0.011828 0.000000 0.000000 0.000000
# 4 0.000000 0.000000 0.000000 0.012606 0.000000 0.000000
# 5 0.000000 0.000000 0.000000 0.000000 0.039744 0.000000
# 6 0.000000 0.000000 0.000000 0.000000 0.000000 0.006707
#
#
# Mechanical properties :
#
#
# Convention : Reuss Voigt Hill
#
# Bulk Modulus (GPa) = 68.85435 79.00250 73.92843
# Shear Modulus (GPa) = 41.14246 65.88419 53.51333
#
# Velocity S-wave (km/s) = 4.06245 5.14083 4.63312
# Velocity P-wave (km/s) = 7.04445 8.18095 7.63388
#
# Compressibility (1/GPa) = 0.01452341
#
# Stress axis : x y z
#
# Youngs Moduli (GPa) = 97.89783 71.25494 84.54364
#
# Poissons Ratio (x) = -0.08674 0.41302
# Poissons Ratio (y) = -0.11917 0.60101
# Poissons Ratio (z) = 0.47826 0.50654
#
# Static dielectric constant tensor:
#      x y z
#    x 1.997120 0.000000 0.000000 
#    y 0.000000 2.139980 0.000000 
#    z 0.000000 0.000000 1.657840 
# 
# From -- ./inp_files/8103.got.cif
#   From: 2010.05.17/outbox.cif.g08.bks.cpg/sg20_5_cif.got.tgz:8103.got - 2010.06.03 22:52:26.
