data_PCOD9321737
_publ_section_title
;
Structure prediction by ZEFSAII (Michael W. Deem and Ramdas Pophale) SiO2 
 PCOD9321737
Probable space group: C 2 2 21
;
_chemical_formula_sum "Si O2"
_cell_formula_units_Z 40
_cell_length_a 20.950311
_cell_length_b 11.200733
_cell_length_c 8.167909
_cell_angle_alpha 90.000000
_cell_angle_beta 90.000000
_cell_angle_gamma 90.000000
_cell_volume 1916.672049
_symmetry_space_group_name_H-M "C 2 2 21"
_symmetry_group_IT_number 20
_symmetry_cell_setting 'orthorhombic'
loop_
_space_group_symop_operation_xyz
x,y,z
-x,-y,1/2+z
x,-y,-z
-x,y,1/2-z
1/2+x,1/2+y,z
1/2-x,1/2-y,1/2+z
1/2+x,1/2-y,-z
1/2-x,1/2+y,1/2-z
loop_
_atom_site_type_symbol
_atom_site_label
_atom_site_fract_x
_atom_site_fract_y
_atom_site_fract_z
Si Si1 0.429877 0.877343 0.293110
Si Si2 0.774534 0.373106 0.899552
Si Si3 0.331768 0.305022 0.849490
Si Si4 0.100664 0.636444 0.177997
Si Si5 0.426470 0.500000 0.000000
Si Si6 0.500000 0.338510 0.250000
O O1 0.500000 0.828835 0.250000
O O2 0.377820 0.803876 0.196487
O O3 0.407534 0.871506 0.481981
O O4 0.429608 0.016378 0.246706
O O5 0.708622 0.354918 0.802668
O O6 0.829675 0.364942 0.759911
O O7 0.776752 0.500000 0.000000
O O8 0.785965 0.258230 0.016754
O O9 0.378190 0.409097 0.910985
O O10 0.059981 0.752295 0.219639
O O11 0.474231 0.577121 0.891024
#
# Coordination Sequence:
#
# PCOD9321737 Si02
#       6
#     8   8   8   8   4   4
#     4  11  24  43  77 112 143 189 249 318 375 440
#     4  12  27  49  78 104 148 202 258 314 371 444
#     4  12  28  48  72 109 149 198 251 308 376 453
#     4  11  24  45  76 106 144 192 257 313 369 443
#     4  12  30  46  74 104 158 194 242 302 386 458
#     4  12  26  50  70 108 148 200 244 304 382 450
#
# _framework density 20.869506000000001
#
# number of rings (size 3 to 8) (size 9 to 14) (size 15 to 20)
#    0.000    0.400    5.000    2.400    7.000    3.200 
#    0.000    0.000    0.000    0.000    0.000    0.000 
#    0.000    0.000    0.000    0.000    0.000    0.000 
#
# Total GULP energy -111704.947637 kJ/mol
# GULP energy per Si atom -5585.247382 kJ/mol
# Density = 2.082201 g / cm^3
# Si number density = 20.869506 Si / 1000 Ang^3
#
#
#
# Elastic Constant Matrix: (Units=GPa)
#
#
# Indices 1 2 3 4 5 6 
#
# 1 125.3492 56.2506 56.9748 0.0000 0.0000 0.0000
# 2 56.2506 147.0167 56.1456 0.0000 0.0000 0.0000
# 3 56.9748 56.1456 81.4048 0.0000 0.0000 0.0000
# 4 0.0000 0.0000 0.0000 37.2470 0.0000 0.0000
# 5 0.0000 0.0000 0.0000 0.0000 45.3199 0.0000
# 6 0.0000 0.0000 0.0000 0.0000 0.0000 56.5110
#
#
#
# Elastic Compliance Matrix: (Units=1/GPa)
#
#
# Indices 1 2 3 4 5 6 
#
# 1 0.012075 -0.001890 -0.007147 0.000000 0.000000 0.000000
# 2 -0.001890 0.009530 -0.005250 0.000000 0.000000 0.000000
# 3 -0.007147 -0.005250 0.020907 0.000000 0.000000 0.000000
# 4 0.000000 0.000000 0.000000 0.026848 0.000000 0.000000
# 5 0.000000 0.000000 0.000000 0.000000 0.022065 0.000000
# 6 0.000000 0.000000 0.000000 0.000000 0.000000 0.017696
#
#
# Mechanical properties :
#
#
# Convention : Reuss Voigt Hill
#
# Bulk Modulus (GPa) = 71.75008 76.94585 74.34797
# Shear Modulus (GPa) = 35.12669 40.10889 37.61779
#
# Velocity S-wave (km/s) = 4.10708 4.38869 4.25022
# Velocity P-wave (km/s) = 7.54625 7.91397 7.73229
#
# Compressibility (1/GPa) = 0.01393727
#
# Stress axis : x y z
#
# Youngs Moduli (GPa) = 82.81838 104.92940 47.82982
#
# Poissons Ratio (x) = 0.19836 0.34184
# Poissons Ratio (y) = 0.15656 0.25111
# Poissons Ratio (z) = 0.59191 0.55088
#
# Static dielectric constant tensor:
#      x y z
#    x 1.797040 0.000000 0.000000 
#    y 0.000000 1.691280 0.000000 
#    z 0.000000 0.000000 1.572710 
# 
# From -- ./inp_files/10002.got.cif
#   From: 2010.05.17/outbox.cif.g08.bks.cpg/sg20_6_cif.got.tgz:10002.got - 2010.06.03 22:52:26.
