data_PCOD9321364
_publ_section_title
;
Structure prediction by ZEFSAII (Michael W. Deem and Ramdas Pophale) SiO2 
 PCOD9321364
Probable space group: C 2 2 21
;
_chemical_formula_sum "Si O2"
_cell_formula_units_Z 48
_cell_length_a 8.759381
_cell_length_b 26.117638
_cell_length_c 9.216444
_cell_angle_alpha 90.000000
_cell_angle_beta 90.000000
_cell_angle_gamma 90.000000
_cell_volume 2108.485912
_symmetry_space_group_name_H-M "C 2 2 21"
_symmetry_group_IT_number 20
_symmetry_cell_setting 'orthorhombic'
loop_
_space_group_symop_operation_xyz
x,y,z
-x,-y,1/2+z
x,-y,-z
-x,y,1/2-z
1/2+x,1/2+y,z
1/2-x,1/2-y,1/2+z
1/2+x,1/2-y,-z
1/2-x,1/2+y,1/2-z
loop_
_atom_site_type_symbol
_atom_site_label
_atom_site_fract_x
_atom_site_fract_y
_atom_site_fract_z
Si Si1 0.641421 0.782634 0.168227
Si Si2 0.416533 0.102734 0.604016
Si Si3 0.060056 0.888959 0.411811
Si Si4 0.876117 0.389922 0.861496
Si Si5 0.114910 0.962630 0.871270
Si Si6 0.676389 0.692238 0.956027
O O1 0.500000 0.755897 0.250000
O O2 0.574421 0.834945 0.101985
O O3 0.760903 0.799273 0.292847
O O4 0.692331 0.744793 0.043124
O O5 0.500000 0.085751 0.750000
O O6 0.236898 0.096544 0.593356
O O7 0.514047 0.081061 0.473648
O O8 0.000000 0.898812 0.250000
O O9 0.984947 0.922739 0.536139
O O10 0.994425 0.831782 0.447434
O O11 0.753839 0.430542 0.801194
O O12 0.000000 0.366823 0.750000
O O13 0.778584 0.348821 0.954228
O O14 0.000000 0.984839 0.750000
O O15 0.170503 0.000000 0.000000
#
# Coordination Sequence:
#
# PCOD9321364 Si02
#       6
#     8   8   8   8   8   8
#     4  11  24  39  58  94 133 175 241 279 335 388
#     4  11  21  42  62  90 134 176 226 275 334 395
#     4  11  22  42  70  95 130 180 224 275 340 400
#     4  11  24  44  69  98 137 178 223 280 341 403
#     4  11  25  48  74 107 134 167 218 273 340 421
#     4  11  25  40  62  95 134 186 234 285 330 393
#
# _framework density 22.765149000000001
#
# number of rings (size 3 to 8) (size 9 to 14) (size 15 to 20)
#    0.000    1.000    5.000    2.500    4.667    2.667 
#    0.000    5.833    0.000    0.000    0.000    0.000 
#    0.000    0.000    0.000    0.000    0.000    0.000 
#
# Total GULP energy -133947.912579 kJ/mol
# GULP energy per Si atom -5581.163024 kJ/mol
# Density = 2.271333 g / cm^3
# Si number density = 22.765149 Si / 1000 Ang^3
#
#
#
# Elastic Constant Matrix: (Units=GPa)
#
#
# Indices 1 2 3 4 5 6 
#
# 1 128.4156 2.2519 18.0606 0.0000 0.0000 0.0000
# 2 2.2519 35.3587 3.6292 0.0000 0.0000 0.0000
# 3 18.0606 3.6292 74.6328 0.0000 0.0000 0.0000
# 4 0.0000 0.0000 0.0000 27.1143 0.0000 0.0000
# 5 0.0000 0.0000 0.0000 0.0000 46.6231 0.0000
# 6 0.0000 0.0000 0.0000 0.0000 0.0000 25.4504
#
#
#
# Elastic Compliance Matrix: (Units=1/GPa)
#
#
# Indices 1 2 3 4 5 6 
#
# 1 0.008065 -0.000315 -0.001936 0.000000 0.000000 0.000000
# 2 -0.000315 0.028436 -0.001307 0.000000 0.000000 0.000000
# 3 -0.001936 -0.001307 0.013931 0.000000 0.000000 0.000000
# 4 0.000000 0.000000 0.000000 0.036881 0.000000 0.000000
# 5 0.000000 0.000000 0.000000 0.000000 0.021449 0.000000
# 6 0.000000 0.000000 0.000000 0.000000 0.000000 0.039292
#
#
# Mechanical properties :
#
#
# Convention : Reuss Voigt Hill
#
# Bulk Modulus (GPa) = 23.08602 31.81005 27.44804
# Shear Modulus (GPa) = 29.47977 34.13526 31.80751
#
# Velocity S-wave (km/s) = 3.60245 3.87648 3.74197
# Velocity P-wave (km/s) = 5.24085 5.83434 5.54554
#
# Compressibility (1/GPa) = 0.04331626
#
# Stress axis : x y z
#
# Youngs Moduli (GPa) = 123.99142 35.16698 71.78206
#
# Poissons Ratio (x) = 0.01107 0.13900
# Poissons Ratio (y) = 0.03904 0.09379
# Poissons Ratio (z) = 0.24009 0.04595
#
# Static dielectric constant tensor:
#      x y z
#    x 1.961710 0.000000 0.000000 
#    y 0.000000 1.849190 0.000000 
#    z 0.000000 0.000000 1.934240 
# 
# From -- ./inp_files/6458.got.cif
#   From: 2010.05.17/outbox.cif.g08.bks.cpg/sg20_4_cif.got.tgz:6458.got - 2010.06.03 22:52:26.
