data_PCOD9321190
_publ_section_title
;
Structure prediction by ZEFSAII (Michael W. Deem and Ramdas Pophale) SiO2 
 PCOD9321190
Probable space group: C 2 2 21
;
_chemical_formula_sum "Si O2"
_cell_formula_units_Z 20
_cell_length_a 7.518953
_cell_length_b 19.045127
_cell_length_c 5.281877
_cell_angle_alpha 90.000000
_cell_angle_beta 90.000000
_cell_angle_gamma 90.000000
_cell_volume 756.361695
_symmetry_space_group_name_H-M "C 2 2 21"
_symmetry_group_IT_number 20
_symmetry_cell_setting 'orthorhombic'
loop_
_space_group_symop_operation_xyz
x,y,z
-x,-y,1/2+z
x,-y,-z
-x,y,1/2-z
1/2+x,1/2+y,z
1/2-x,1/2-y,1/2+z
1/2+x,1/2-y,-z
1/2-x,1/2+y,1/2-z
loop_
_atom_site_type_symbol
_atom_site_label
_atom_site_fract_x
_atom_site_fract_y
_atom_site_fract_z
Si Si1 0.288601 0.544611 0.751832
Si Si2 0.362948 0.840985 0.953444
Si Si3 0.000000 0.788126 0.750000
O O1 0.249235 0.500000 0.500000
O O2 0.500000 0.559120 0.750000
O O3 0.181112 0.615753 0.707534
O O4 0.246001 0.500000 0.000000
O O5 0.500000 0.871877 0.750000
O O6 0.169451 0.833439 0.825669
O O7 0.435647 0.764440 0.029447
#
# Coordination Sequence:
#
# PCOD9321190 Si02
#       3
#     8   8   4
#     4  10  26  50  84 117 161 221 281 346 414 489
#     4  12  28  49  83 119 170 218 282 345 424 505
#     4  12  28  48  78 124 164 218 272 350 420 504
#
# _framework density 26.442378000000001
#
# number of rings (size 3 to 8) (size 9 to 14) (size 15 to 20)
#    0.000    0.800    4.000    0.000   19.600    0.000 
#    3.600    0.000    0.000    0.000    0.000    0.000 
#    0.000    0.000    0.000    0.000    0.000    0.000 
#
# Total GULP energy -56168.421673 kJ/mol
# GULP energy per Si atom -5616.842167 kJ/mol
# Density = 2.638219 g / cm^3
# Si number density = 26.442378 Si / 1000 Ang^3
#
#
#
# Elastic Constant Matrix: (Units=GPa)
#
#
# Indices 1 2 3 4 5 6 
#
# 1 195.7227 58.1923 72.9332 0.0000 0.0000 0.0000
# 2 58.1923 87.9877 55.5067 0.0000 0.0000 0.0000
# 3 72.9332 55.5067 192.1633 0.0000 0.0000 0.0000
# 4 0.0000 0.0000 0.0000 57.3492 0.0000 0.0000
# 5 0.0000 0.0000 0.0000 0.0000 41.8270 0.0000
# 6 0.0000 0.0000 0.0000 0.0000 0.0000 16.2292
#
#
#
# Elastic Compliance Matrix: (Units=1/GPa)
#
#
# Indices 1 2 3 4 5 6 
#
# 1 0.006717 -0.003465 -0.001548 0.000000 0.000000 0.000000
# 2 -0.003465 0.015686 -0.003216 0.000000 0.000000 0.000000
# 3 -0.001548 -0.003216 0.006720 0.000000 0.000000 0.000000
# 4 0.000000 0.000000 0.000000 0.017437 0.000000 0.000000
# 5 0.000000 0.000000 0.000000 0.000000 0.023908 0.000000
# 6 0.000000 0.000000 0.000000 0.000000 0.000000 0.061617
#
#
# Mechanical properties :
#
#
# Convention : Reuss Voigt Hill
#
# Bulk Modulus (GPa) = 78.96298 94.34867 86.65583
# Shear Modulus (GPa) = 32.73012 42.36386 37.54699
#
# Velocity S-wave (km/s) = 3.52204 4.00699 3.77232
# Velocity P-wave (km/s) = 6.81666 7.56084 7.19837
#
# Compressibility (1/GPa) = 0.01266416
#
# Stress axis : x y z
#
# Youngs Moduli (GPa) = 148.88675 63.75242 148.80239
#
# Poissons Ratio (x) = 0.22093 0.23037
# Poissons Ratio (y) = 0.51596 0.47848
# Poissons Ratio (z) = 0.23050 0.20500
#
# Static dielectric constant tensor:
#      x y z
#    x 2.000770 0.000000 0.000000 
#    y 0.000000 2.101230 0.000000 
#    z 0.000000 0.000000 2.091930 
# 
# From -- ./inp_files/254.got.cif
#   From: 2010.05.17/outbox.cif.g08.bks.cpg/sg20_1_cif.got.tgz:254.got - 2010.06.03 22:52:26.
