data_PCOD9321597
_publ_section_title
;
Structure prediction by ZEFSAII (Michael W. Deem and Ramdas Pophale) SiO2 
 PCOD9321597
Probable space group: C 2 2 21
;
_chemical_formula_sum "Si O2"
_cell_formula_units_Z 56
_cell_length_a 5.669484
_cell_length_b 14.104262
_cell_length_c 31.271096
_cell_angle_alpha 90.000000
_cell_angle_beta 90.000000
_cell_angle_gamma 90.000000
_cell_volume 2500.558410
_symmetry_space_group_name_H-M "C 2 2 21"
_symmetry_group_IT_number 20
_symmetry_cell_setting 'orthorhombic'
loop_
_space_group_symop_operation_xyz
x,y,z
-x,-y,1/2+z
x,-y,-z
-x,y,1/2-z
1/2+x,1/2+y,z
1/2-x,1/2-y,1/2+z
1/2+x,1/2-y,-z
1/2-x,1/2+y,1/2-z
loop_
_atom_site_type_symbol
_atom_site_label
_atom_site_fract_x
_atom_site_fract_y
_atom_site_fract_z
Si Si1 0.012568 0.249973 0.608209
Si Si2 0.803612 0.891013 0.550685
Si Si3 0.721882 0.116617 0.547636
Si Si4 0.951156 0.955912 0.793493
Si Si5 0.937974 0.433485 0.205816
Si Si6 0.620999 0.107839 0.880913
Si Si7 0.665056 0.398146 0.619536
O O1 0.906150 0.175943 0.574670
O O2 0.822400 0.309697 0.633503
O O3 0.133584 0.333089 0.581163
O O4 0.190377 0.185039 0.633922
O O5 0.755457 0.861269 0.502090
O O6 0.055238 0.874208 0.573234
O O7 0.762238 0.003950 0.552829
O O8 0.478622 0.137190 0.572628
O O9 0.004869 0.911091 0.839866
O O10 0.000000 0.896918 0.750000
O O11 0.675175 0.994406 0.795457
O O12 0.169057 0.029912 0.788938
O O13 0.000000 0.379188 0.250000
O O14 0.937353 0.392989 0.157865
O O15 0.717706 0.001386 0.885837
#
# Coordination Sequence:
#
# PCOD9321597 Si02
#       7
#     8   8   8   8   8   8   8
#     4  12  26  42  70  99 134 184 225 292 354 420
#     4  11  25  45  67  95 136 181 236 290 350 416
#     4  11  25  45  67  95 136 181 236 290 350 416
#     4   9  19  37  70 108 138 184 235 284 354 427
#     4   9  19  37  70 108 138 184 235 284 354 427
#     4  11  23  43  69 101 140 180 234 292 353 422
#     4  11  23  43  69 101 140 180 234 292 353 422
#
# _framework density 22.394997
#
# number of rings (size 3 to 8) (size 9 to 14) (size 15 to 20)
#    0.000    1.429    2.857    1.714    8.000    0.000 
#    0.000    0.000    0.000    5.143    0.000    0.000 
#    0.000    0.000    0.000    0.000    0.000    0.000 
#
# Total GULP energy -155880.306956 kJ/mol
# GULP energy per Si atom -5567.153820 kJ/mol
# Density = 2.234403 g / cm^3
# Si number density = 22.394997 Si / 1000 Ang^3
#
#
#
# Elastic Constant Matrix: (Units=GPa)
#
#
# Indices 1 2 3 4 5 6 
#
# 1 78.2976 10.9378 11.1940 0.0000 0.0000 0.0000
# 2 10.9378 50.8018 7.2390 0.0000 0.0000 0.0000
# 3 11.1940 7.2390 103.6713 0.0000 0.0000 0.0000
# 4 0.0000 0.0000 0.0000 -12.8662 0.0000 0.0000
# 5 0.0000 0.0000 0.0000 0.0000 22.4108 0.0000
# 6 0.0000 0.0000 0.0000 0.0000 0.0000 33.5775
#
#
#
# Elastic Compliance Matrix: (Units=1/GPa)
#
#
# Indices 1 2 3 4 5 6 
#
# 1 0.013327 -0.002691 -0.001251 0.000000 0.000000 0.000000
# 2 -0.002691 0.020426 -0.001136 0.000000 0.000000 0.000000
# 3 -0.001251 -0.001136 0.009860 0.000000 0.000000 0.000000
# 4 0.000000 0.000000 0.000000 -0.077723 0.000000 0.000000
# 5 0.000000 0.000000 0.000000 0.000000 0.044621 0.000000
# 6 0.000000 0.000000 0.000000 0.000000 0.000000 0.029782
#
#
# Mechanical properties :
#
#
# Convention : Reuss Voigt Hill
#
# Bulk Modulus (GPa) = 29.88917 32.39026 31.13971
# Shear Modulus (GPa) = 81.16823 22.18441 51.67632
#
# Velocity S-wave (km/s) = 6.02682 3.15079 4.80885
# Velocity P-wave (km/s) = 7.86164 5.26604 6.69091
#
# Compressibility (1/GPa) = 0.03345694
#
# Stress axis : x y z
#
# Youngs Moduli (GPa) = 75.03813 48.95830 101.41728
#
# Poissons Ratio (x) = 0.13175 0.12688
# Poissons Ratio (y) = 0.20193 0.11518
# Poissons Ratio (z) = 0.09388 0.05560
#
# Static dielectric constant tensor:
#      x y z
#    x 2.012570 0.000000 0.000000 
#    y 0.000000 1.803290 0.000000 
#    z 0.000000 0.000000 1.825120 
# 
# From -- ./inp_files/30739.got.cif
#   From: 2010.05.17/outbox.cif.g08.bks.cpg/sg20_16_cif.got.tgz:30739.got - 2010.06.03 22:52:26.
