data_PCOD9321977
_publ_section_title
;
Structure prediction by ZEFSAII (Michael W. Deem and Ramdas Pophale) SiO2 
 PCOD9321977
Probable space group: C 2 2 21
;
_chemical_formula_sum "Si O2"
_cell_formula_units_Z 64
_cell_length_a 17.969062
_cell_length_b 14.659878
_cell_length_c 10.936019
_cell_angle_alpha 90.000000
_cell_angle_beta 90.000000
_cell_angle_gamma 90.000000
_cell_volume 2880.812676
_symmetry_space_group_name_H-M "C 2 2 21"
_symmetry_group_IT_number 20
_symmetry_cell_setting 'orthorhombic'
loop_
_space_group_symop_operation_xyz
x,y,z
-x,-y,1/2+z
x,-y,-z
-x,y,1/2-z
1/2+x,1/2+y,z
1/2-x,1/2-y,1/2+z
1/2+x,1/2-y,-z
1/2-x,1/2+y,1/2-z
loop_
_atom_site_type_symbol
_atom_site_label
_atom_site_fract_x
_atom_site_fract_y
_atom_site_fract_z
Si Si1 0.092073 0.250899 0.872420
Si Si2 0.939309 0.696781 0.990365
Si Si3 0.673181 0.209461 0.895354
Si Si4 0.642953 0.907127 0.682885
Si Si5 0.190222 0.111577 0.242890
Si Si6 0.672481 0.363449 0.474511
Si Si7 0.576886 0.912917 0.250833
Si Si8 0.586528 0.446312 0.257946
O O1 0.109367 0.334489 0.780798
O O2 0.090659 0.153112 0.806105
O O3 0.157579 0.249963 0.971755
O O4 0.014454 0.269011 0.943611
O O5 0.943277 0.663085 0.851634
O O6 0.904524 0.612027 0.062941
O O7 0.878330 0.775447 0.002759
O O8 0.661188 0.289078 0.796737
O O9 0.754607 0.164259 0.896303
O O10 0.610324 0.134015 0.868537
O O11 0.730375 0.889310 0.676732
O O12 0.637127 0.012633 0.715102
O O13 0.198533 0.105328 0.390520
O O14 0.136854 0.028189 0.204595
O O15 0.619857 0.428473 0.393429
O O16 0.500000 0.968549 0.250000
O O17 0.500000 0.473998 0.250000
#
# Coordination Sequence:
#
# PCOD9321977 Si02
#       8
#     8   8   8   8   8   8   8   8
#     4  12  24  47  75 105 145 196 242 297 377 444
#     4  12  23  44  77 100 141 191 244 299 371 434
#     4  12  26  45  74 101 146 196 238 299 376 443
#     4  12  25  45  72 105 145 187 244 305 366 438
#     4  12  27  47  73 108 145 192 246 308 366 443
#     4  12  24  48  76 101 143 198 245 299 374 436
#     4  12  26  44  69 106 144 183 239 307 367 435
#     4  12  26  47  75 107 145 196 250 302 365 445
#
# _framework density 22.215952999999999
#
# number of rings (size 3 to 8) (size 9 to 14) (size 15 to 20)
#    0.000    0.000    7.500    2.625    0.000    3.500 
#    4.500    0.000    0.000    0.000    0.000    0.000 
#    0.000    0.000    0.000    0.000    0.000    0.000 
#
# Total GULP energy -178798.566065 kJ/mol
# GULP energy per Si atom -5587.455190 kJ/mol
# Density = 2.216539 g / cm^3
# Si number density = 22.215953 Si / 1000 Ang^3
#
#
#
# Elastic Constant Matrix: (Units=GPa)
#
#
# Indices 1 2 3 4 5 6 
#
# 1 109.3933 25.0434 13.4471 0.0000 0.0000 0.0000
# 2 25.0434 71.5868 5.1915 0.0000 0.0000 0.0000
# 3 13.4471 5.1915 74.7492 0.0000 0.0000 0.0000
# 4 0.0000 0.0000 0.0000 15.3145 0.0000 0.0000
# 5 0.0000 0.0000 0.0000 0.0000 27.1443 0.0000
# 6 0.0000 0.0000 0.0000 0.0000 0.0000 34.1112
#
#
#
# Elastic Compliance Matrix: (Units=1/GPa)
#
#
# Indices 1 2 3 4 5 6 
#
# 1 0.010120 -0.003426 -0.001583 0.000000 0.000000 0.000000
# 2 -0.003426 0.015199 -0.000439 0.000000 0.000000 0.000000
# 3 -0.001583 -0.000439 0.013693 0.000000 0.000000 0.000000
# 4 0.000000 0.000000 0.000000 0.065297 0.000000 0.000000
# 5 0.000000 0.000000 0.000000 0.000000 0.036840 0.000000
# 6 0.000000 0.000000 0.000000 0.000000 0.000000 0.029316
#
#
# Mechanical properties :
#
#
# Convention : Reuss Voigt Hill
#
# Bulk Modulus (GPa) = 35.56505 38.12148 36.84327
# Shear Modulus (GPa) = 26.21454 29.45050 27.83252
#
# Velocity S-wave (km/s) = 3.43882 3.64489 3.54336
# Velocity P-wave (km/s) = 5.64011 5.90850 5.77587
#
# Compressibility (1/GPa) = 0.02811749
#
# Stress axis : x y z
#
# Youngs Moduli (GPa) = 98.81335 65.79257 73.02841
#
# Poissons Ratio (x) = 0.22538 0.11558
# Poissons Ratio (y) = 0.33849 0.03209
# Poissons Ratio (z) = 0.15639 0.02891
#
# Static dielectric constant tensor:
#      x y z
#    x 1.844850 0.000000 0.000000 
#    y 0.000000 1.790910 0.000000 
#    z 0.000000 0.000000 1.868620 
# 
# From -- ./inp_files/15907.got.cif
#   From: 2010.05.17/outbox.cif.g08.bks.cpg/sg20_8_cif.got.tgz:15907.got - 2010.06.03 22:52:26.
