data_PCOD9321169
_publ_section_title
;
Structure prediction by ZEFSAII (Michael W. Deem and Ramdas Pophale) SiO2 
 PCOD9321169
Probable space group: C 2 2 21
;
_chemical_formula_sum "Si O2"
_cell_formula_units_Z 40
_cell_length_a 29.218678
_cell_length_b 5.481689
_cell_length_c 11.596907
_cell_angle_alpha 90.000000
_cell_angle_beta 90.000000
_cell_angle_gamma 90.000000
_cell_volume 1857.449988
_symmetry_space_group_name_H-M "C 2 2 21"
_symmetry_group_IT_number 20
_symmetry_cell_setting 'orthorhombic'
loop_
_space_group_symop_operation_xyz
x,y,z
-x,-y,1/2+z
x,-y,-z
-x,y,1/2-z
1/2+x,1/2+y,z
1/2-x,1/2-y,1/2+z
1/2+x,1/2-y,-z
1/2-x,1/2+y,1/2-z
loop_
_atom_site_type_symbol
_atom_site_label
_atom_site_fract_x
_atom_site_fract_y
_atom_site_fract_z
Si Si1 0.722656 0.888681 0.227111
Si Si2 0.046363 0.337466 0.699838
Si Si3 0.871571 0.720930 0.803876
Si Si4 0.395831 0.397986 0.381654
Si Si5 0.328989 0.000000 0.500000
Si Si6 0.576358 0.500000 0.500000
O O1 0.749438 0.639231 0.255237
O O2 0.677978 0.898227 0.309647
O O3 0.703901 0.881811 0.095793
O O4 0.088529 0.522667 0.705810
O O5 0.061239 0.153573 0.800272
O O6 0.000000 0.451975 0.750000
O O7 0.047448 0.194817 0.577297
O O8 0.869338 0.901255 0.693782
O O9 0.889304 0.871454 0.911799
O O10 0.414535 0.500000 0.500000
O O11 0.361778 0.182851 0.425602
#
# Coordination Sequence:
#
# PCOD9321169 Si02
#       6
#     8   8   8   8   4   4
#     4  12  28  47  75 112 148 198 259 312 380 451
#     4  11  25  46  74 107 146 192 251 300 376 456
#     4  11  24  48  70 102 153 190 241 311 378 445
#     4  11  21  42  77 103 142 192 243 307 375 431
#     4  12  24  49  72 108 144 198 252 321 366 452
#     4  10  26  47  70 102 154 194 240 309 380 440
#
# _framework density 21.5349
#
# number of rings (size 3 to 8) (size 9 to 14) (size 15 to 20)
#    0.000    0.800    4.000    1.800    4.200    4.000 
#   10.800    0.000    0.000    0.000    0.000    0.000 
#    0.000    0.000    0.000    0.000    0.000    0.000 
#
# Total GULP energy -111569.150953 kJ/mol
# GULP energy per Si atom -5578.457548 kJ/mol
# Density = 2.148589 g / cm^3
# Si number density = 21.534900 Si / 1000 Ang^3
#
#
#
# Elastic Constant Matrix: (Units=GPa)
#
#
# Indices 1 2 3 4 5 6 
#
# 1 79.2915 21.3825 -13.8670 0.0000 0.0000 0.0000
# 2 21.3825 76.0113 12.1743 0.0000 0.0000 0.0000
# 3 -13.8670 12.1743 109.8193 0.0000 0.0000 0.0000
# 4 0.0000 0.0000 0.0000 35.8287 0.0000 0.0000
# 5 0.0000 0.0000 0.0000 0.0000 8.9636 0.0000
# 6 0.0000 0.0000 0.0000 0.0000 0.0000 45.2346
#
#
#
# Elastic Compliance Matrix: (Units=1/GPa)
#
#
# Indices 1 2 3 4 5 6 
#
# 1 0.014183 -0.004354 0.002274 0.000000 0.000000 0.000000
# 2 -0.004354 0.014730 -0.002183 0.000000 0.000000 0.000000
# 3 0.002274 -0.002183 0.009635 0.000000 0.000000 0.000000
# 4 0.000000 0.000000 0.000000 0.027911 0.000000 0.000000
# 5 0.000000 0.000000 0.000000 0.000000 0.111562 0.000000
# 6 0.000000 0.000000 0.000000 0.000000 0.000000 0.022107
#
#
# Mechanical properties :
#
#
# Convention : Reuss Voigt Hill
#
# Bulk Modulus (GPa) = 33.30846 33.83352 33.57099
# Shear Modulus (GPa) = 22.86634 34.36754 28.61694
#
# Velocity S-wave (km/s) = 3.26210 3.99921 3.64931
# Velocity P-wave (km/s) = 5.44878 6.08851 5.77751
#
# Compressibility (1/GPa) = 0.03002241
#
# Stress axis : x y z
#
# Youngs Moduli (GPa) = 70.50456 67.88692 103.78894
#
# Poissons Ratio (x) = 0.29558 -0.23598
# Poissons Ratio (y) = 0.30698 0.22655
# Poissons Ratio (z) = -0.16030 0.14818
#
# Static dielectric constant tensor:
#      x y z
#    x 1.827160 0.000000 0.000000 
#    y 0.000000 2.142570 0.000000 
#    z 0.000000 0.000000 1.704690 
# 
# From -- ./inp_files/16917.got.cif
#   From: 2010.05.17/outbox.cif.g08.bks.cpg/sg20_9_cif.got.tgz:16917.got - 2010.06.03 22:52:26.
