data_PCOD9321516
_publ_section_title
;
Structure prediction by ZEFSAII (Michael W. Deem and Ramdas Pophale) SiO2 
 PCOD9321516
Probable space group: C 2 2 21
;
_chemical_formula_sum "Si O2"
_cell_formula_units_Z 40
_cell_length_a 4.660181
_cell_length_b 13.870883
_cell_length_c 23.392471
_cell_angle_alpha 90.000000
_cell_angle_beta 90.000000
_cell_angle_gamma 90.000000
_cell_volume 1512.108634
_symmetry_space_group_name_H-M "C 2 2 21"
_symmetry_group_IT_number 20
_symmetry_cell_setting 'orthorhombic'
loop_
_space_group_symop_operation_xyz
x,y,z
-x,-y,1/2+z
x,-y,-z
-x,y,1/2-z
1/2+x,1/2+y,z
1/2-x,1/2-y,1/2+z
1/2+x,1/2-y,-z
1/2-x,1/2+y,1/2-z
loop_
_atom_site_type_symbol
_atom_site_label
_atom_site_fract_x
_atom_site_fract_y
_atom_site_fract_z
Si Si1 0.686544 0.180663 0.985048
Si Si2 0.727977 0.744837 0.356475
Si Si3 0.500000 0.991894 0.250000
Si Si4 0.725361 0.419000 0.066651
Si Si5 0.000000 0.152438 0.750000
Si Si6 0.702477 0.893105 0.638357
O O1 0.908135 0.122665 0.943889
O O2 0.950504 0.230449 0.021942
O O3 0.937547 0.401501 0.012999
O O4 0.646117 0.844152 0.386783
O O5 0.461913 0.676447 0.345686
O O6 0.879836 0.779930 0.299116
O O7 0.960838 0.677141 0.388635
O O8 0.247587 0.920443 0.269852
O O9 0.410393 0.056374 0.196059
O O10 0.709081 0.522589 0.095420
#
# Coordination Sequence:
#
# PCOD9321516 Si02
#       6
#     8   8   4   8   4   8
#     4   9  20  40  73 102 124 172 211 264 354 417
#     4  12  26  43  67  98 135 183 230 277 331 389
#     4  12  25  44  67  92 142 188 235 284 333 380
#     4  11  22  44  71  94 138 168 221 280 330 401
#     4  12  25  44  67  92 142 188 235 284 333 380
#     4  12  26  43  67  98 135 183 230 277 331 389
#
# _framework density 26.453126999999999
#
# number of rings (size 3 to 8) (size 9 to 14) (size 15 to 20)
#    0.000    0.800    2.000    5.400    2.800    1.600 
#    0.000    0.000    0.000   84.000    0.000    0.000 
#    0.000    0.000    0.000    0.000    0.000    0.000 
#
# Total GULP energy -111704.895528 kJ/mol
# GULP energy per Si atom -5585.244776 kJ/mol
# Density = 2.639292 g / cm^3
# Si number density = 26.453127 Si / 1000 Ang^3
#
#
#
# Elastic Constant Matrix: (Units=GPa)
#
#
# Indices 1 2 3 4 5 6 
#
# 1 218.8310 81.6823 33.3160 0.0000 0.0000 0.0000
# 2 81.6823 201.6094 51.5886 0.0000 0.0000 0.0000
# 3 33.3160 51.5886 79.2117 0.0000 0.0000 0.0000
# 4 0.0000 0.0000 0.0000 11.8699 0.0000 0.0000
# 5 0.0000 0.0000 0.0000 0.0000 35.4573 0.0000
# 6 0.0000 0.0000 0.0000 0.0000 0.0000 36.0775
#
#
#
# Elastic Compliance Matrix: (Units=1/GPa)
#
#
# Indices 1 2 3 4 5 6 
#
# 1 0.005452 -0.001947 -0.001025 0.000000 0.000000 0.000000
# 2 -0.001947 0.006647 -0.003510 0.000000 0.000000 0.000000
# 3 -0.001025 -0.003510 0.015342 0.000000 0.000000 0.000000
# 4 0.000000 0.000000 0.000000 0.084247 0.000000 0.000000
# 5 0.000000 0.000000 0.000000 0.000000 0.028203 0.000000
# 6 0.000000 0.000000 0.000000 0.000000 0.000000 0.027718
#
#
# Mechanical properties :
#
#
# Convention : Reuss Voigt Hill
#
# Bulk Modulus (GPa) = 69.07734 92.53622 80.80678
# Shear Modulus (GPa) = 26.96883 38.88529 32.92706
#
# Velocity S-wave (km/s) = 3.19642 3.83818 3.53190
# Velocity P-wave (km/s) = 6.30814 7.39590 6.87357
#
# Compressibility (1/GPa) = 0.01447653
#
# Stress axis : x y z
#
# Youngs Moduli (GPa) = 183.40237 150.44363 65.18118
#
# Poissons Ratio (x) = 0.29287 0.06684
# Poissons Ratio (y) = 0.35703 0.22880
# Poissons Ratio (z) = 0.18807 0.52810
#
# Static dielectric constant tensor:
#      x y z
#    x 2.095330 0.000000 0.000000 
#    y 0.000000 2.018920 0.000000 
#    z 0.000000 0.000000 2.278390 
# 
# From -- ./inp_files/29759.got.cif
#   From: 2010.05.17/outbox.cif.g08.bks.cpg/sg20_15_cif.got.tgz:29759.got - 2010.06.03 22:52:26.
