data_PCOD9321500
_publ_section_title
;
Structure prediction by ZEFSAII (Michael W. Deem and Ramdas Pophale) SiO2 
 PCOD9321500
Probable space group: C 2 2 21
;
_chemical_formula_sum "Si O2"
_cell_formula_units_Z 40
_cell_length_a 5.326388
_cell_length_b 18.082985
_cell_length_c 18.162407
_cell_angle_alpha 90.000000
_cell_angle_beta 90.000000
_cell_angle_gamma 90.000000
_cell_volume 1749.348452
_symmetry_space_group_name_H-M "C 2 2 21"
_symmetry_group_IT_number 20
_symmetry_cell_setting 'orthorhombic'
loop_
_space_group_symop_operation_xyz
x,y,z
-x,-y,1/2+z
x,-y,-z
-x,y,1/2-z
1/2+x,1/2+y,z
1/2-x,1/2-y,1/2+z
1/2+x,1/2-y,-z
1/2-x,1/2+y,1/2-z
loop_
_atom_site_type_symbol
_atom_site_label
_atom_site_fract_x
_atom_site_fract_y
_atom_site_fract_z
Si Si1 0.011548 0.984748 0.587131
Si Si2 0.796095 0.806010 0.057104
Si Si3 0.541523 0.311026 0.607608
Si Si4 0.819249 0.186202 0.680692
Si Si5 0.000853 0.431470 0.120022
O O1 0.018995 0.898422 0.608310
O O2 0.064103 0.000000 0.500000
O O3 0.242151 0.023058 0.631187
O O4 0.731060 0.015470 0.600690
O O5 0.719578 0.732628 0.101581
O O6 0.585303 0.869892 0.059746
O O7 0.029490 0.833652 0.105356
O O8 0.846343 0.790989 0.972707
O O9 0.698767 0.267205 0.668852
O O10 0.605657 0.123855 0.681482
O O11 0.000000 0.182673 0.750000
#
# Coordination Sequence:
#
# PCOD9321500 Si02
#       5
#     8   8   8   8   8
#     4  12  24  39  68 107 142 180 225 298 356 420
#     4  11  22  43  69 102 134 186 235 291 344 426
#     4  11  24  38  72 104 144 175 238 290 353 420
#     4  11  25  47  73 100 140 192 244 293 352 429
#     4  11  24  43  66  99 139 182 232 279 359 414
#
# _framework density 22.865658
#
# number of rings (size 3 to 8) (size 9 to 14) (size 15 to 20)
#    0.000    0.800    6.000    0.600    5.600    3.200 
#    0.000    2.000    0.000    0.000    0.000    0.000 
#    0.000    0.000    0.000    0.000    0.000    0.000 
#
# Total GULP energy -111691.106876 kJ/mol
# GULP energy per Si atom -5584.555344 kJ/mol
# Density = 2.281361 g / cm^3
# Si number density = 22.865658 Si / 1000 Ang^3
#
#
#
# Elastic Constant Matrix: (Units=GPa)
#
#
# Indices 1 2 3 4 5 6 
#
# 1 127.8157 56.3356 15.9091 0.0000 0.0000 0.0000
# 2 56.3356 181.7808 -9.0137 0.0000 0.0000 0.0000
# 3 15.9091 -9.0137 42.3127 0.0000 0.0000 0.0000
# 4 0.0000 0.0000 0.0000 -18.1312 0.0000 0.0000
# 5 0.0000 0.0000 0.0000 0.0000 36.7997 0.0000
# 6 0.0000 0.0000 0.0000 0.0000 0.0000 38.9100
#
#
#
# Elastic Compliance Matrix: (Units=1/GPa)
#
#
# Indices 1 2 3 4 5 6 
#
# 1 0.009804 -0.003255 -0.004380 0.000000 0.000000 0.000000
# 2 -0.003255 0.006641 0.002639 0.000000 0.000000 0.000000
# 3 -0.004380 0.002639 0.025842 0.000000 0.000000 0.000000
# 4 0.000000 0.000000 0.000000 -0.055154 0.000000 0.000000
# 5 0.000000 0.000000 0.000000 0.000000 0.027174 0.000000
# 6 0.000000 0.000000 0.000000 0.000000 0.000000 0.025700
#
#
# Mechanical properties :
#
#
# Convention : Reuss Voigt Hill
#
# Bulk Modulus (GPa) = 30.96525 53.15236 42.05881
# Shear Modulus (GPa) = 82.28386 30.76091 56.52239
#
# Velocity S-wave (km/s) = 6.00532 3.67180 4.97725
# Velocity P-wave (km/s) = 7.85219 6.42434 7.17387
#
# Compressibility (1/GPa) = 0.03229427
#
# Stress axis : x y z
#
# Youngs Moduli (GPa) = 102.00178 150.58282 38.69617
#
# Poissons Ratio (x) = 0.49021 0.16947
# Poissons Ratio (y) = 0.33206 -0.10211
# Poissons Ratio (z) = 0.44673 -0.39734
#
# Static dielectric constant tensor:
#      x y z
#    x 1.995960 0.000000 0.000000 
#    y 0.000000 1.893760 0.000000 
#    z 0.000000 0.000000 1.822710 
# 
# From -- ./inp_files/22596.got.cif
#   From: 2010.05.17/outbox.cif.g08.bks.cpg/sg20_12_cif.got.tgz:22596.got - 2010.06.03 22:52:26.
