data_PCOD9321905
_publ_section_title
;
Structure prediction by ZEFSAII (Michael W. Deem and Ramdas Pophale) SiO2 
 PCOD9321905
Probable space group: C 2 2 21
;
_chemical_formula_sum "Si O2"
_cell_formula_units_Z 40
_cell_length_a 8.609809
_cell_length_b 23.997960
_cell_length_c 8.252817
_cell_angle_alpha 90.000000
_cell_angle_beta 90.000000
_cell_angle_gamma 90.000000
_cell_volume 1705.179321
_symmetry_space_group_name_H-M "C 2 2 21"
_symmetry_group_IT_number 20
_symmetry_cell_setting 'orthorhombic'
loop_
_space_group_symop_operation_xyz
x,y,z
-x,-y,1/2+z
x,-y,-z
-x,y,1/2-z
1/2+x,1/2+y,z
1/2-x,1/2-y,1/2+z
1/2+x,1/2-y,-z
1/2-x,1/2+y,1/2-z
loop_
_atom_site_type_symbol
_atom_site_label
_atom_site_fract_x
_atom_site_fract_y
_atom_site_fract_z
Si Si1 0.177380 0.493466 0.306154
Si Si2 0.627571 0.588855 0.375666
Si Si3 0.388726 0.396581 0.378117
Si Si4 0.324894 0.812594 0.462925
Si Si5 0.179713 0.303649 0.428442
O O1 0.178133 0.500000 0.500000
O O2 0.269839 0.541522 0.210479
O O3 0.267610 0.435531 0.285753
O O4 0.000000 0.490918 0.250000
O O5 0.500000 0.612236 0.250000
O O6 0.509050 0.567764 0.515479
O O7 0.737288 0.635828 0.453587
O O8 0.500000 0.365725 0.250000
O O9 0.294388 0.352641 0.483957
O O10 0.245429 0.756240 0.525872
O O11 0.508617 0.812465 0.499309
O O12 0.319815 0.811134 0.266824
#
# Coordination Sequence:
#
# PCOD9321905 Si02
#       5
#     8   8   8   8   8
#     4  12  31  50  75 110 153 204 260 317 383 457
#     4  12  27  52  78 111 152 202 255 316 382 453
#     4  12  27  49  79 110 154 200 256 314 381 454
#     4  11  27  48  81 114 156 201 251 316 376 455
#     4  11  27  49  77 117 155 200 255 309 383 449
#
# _framework density 23.457943
#
# number of rings (size 3 to 8) (size 9 to 14) (size 15 to 20)
#    0.000    0.400    4.000    1.800   14.000    0.000 
#    0.000    0.000    0.000    0.000    0.000    0.000 
#    0.000    0.000    0.000    0.000    0.000    0.000 
#
# Total GULP energy -111939.377826 kJ/mol
# GULP energy per Si atom -5596.968891 kJ/mol
# Density = 2.340455 g / cm^3
# Si number density = 23.457943 Si / 1000 Ang^3
#
#
#
# Elastic Constant Matrix: (Units=GPa)
#
#
# Indices 1 2 3 4 5 6 
#
# 1 222.4956 91.8848 43.5370 0.0000 0.0000 0.0000
# 2 91.8848 160.9127 25.9996 0.0000 0.0000 0.0000
# 3 43.5370 25.9996 46.5716 0.0000 0.0000 0.0000
# 4 0.0000 0.0000 0.0000 36.3790 0.0000 0.0000
# 5 0.0000 0.0000 0.0000 0.0000 44.3136 0.0000
# 6 0.0000 0.0000 0.0000 0.0000 0.0000 46.6905
#
#
#
# Elastic Compliance Matrix: (Units=1/GPa)
#
#
# Indices 1 2 3 4 5 6 
#
# 1 0.006640 -0.003065 -0.004496 0.000000 0.000000 0.000000
# 2 -0.003065 0.008246 -0.001738 0.000000 0.000000 0.000000
# 3 -0.004496 -0.001738 0.026646 0.000000 0.000000 0.000000
# 4 0.000000 0.000000 0.000000 0.027488 0.000000 0.000000
# 5 0.000000 0.000000 0.000000 0.000000 0.022566 0.000000
# 6 0.000000 0.000000 0.000000 0.000000 0.000000 0.021418
#
#
# Mechanical properties :
#
#
# Convention : Reuss Voigt Hill
#
# Bulk Modulus (GPa) = 43.60530 83.64696 63.62613
# Shear Modulus (GPa) = 35.90744 43.38052 39.64398
#
# Velocity S-wave (km/s) = 3.91668 4.30500 4.11542
# Velocity P-wave (km/s) = 6.25163 7.77473 7.05441
#
# Compressibility (1/GPa) = 0.02293299
#
# Stress axis : x y z
#
# Youngs Moduli (GPa) = 150.59991 121.27635 37.52937
#
# Poissons Ratio (x) = 0.37173 0.16874
# Poissons Ratio (y) = 0.46161 0.06522
# Poissons Ratio (z) = 0.67713 0.21076
#
# Static dielectric constant tensor:
#      x y z
#    x 1.853550 0.000000 0.000000 
#    y 0.000000 1.837980 0.000000 
#    z 0.000000 0.000000 2.012380 
# 
# From -- ./inp_files/6125.got.cif
#   From: 2010.05.17/outbox.cif.g08.bks.cpg/sg20_4_cif.got.tgz:6125.got - 2010.06.03 22:52:26.
