data_PCOD9321258
_publ_section_title
;
Structure prediction by ZEFSAII (Michael W. Deem and Ramdas Pophale) SiO2 
 PCOD9321258
Probable space group: C 2 2 21
;
_chemical_formula_sum "Si O2"
_cell_formula_units_Z 64
_cell_length_a 15.743765
_cell_length_b 7.949513
_cell_length_c 23.832712
_cell_angle_alpha 90.000000
_cell_angle_beta 90.000000
_cell_angle_gamma 90.000000
_cell_volume 2982.789375
_symmetry_space_group_name_H-M "C 2 2 21"
_symmetry_group_IT_number 20
_symmetry_cell_setting 'orthorhombic'
loop_
_space_group_symop_operation_xyz
x,y,z
-x,-y,1/2+z
x,-y,-z
-x,y,1/2-z
1/2+x,1/2+y,z
1/2-x,1/2-y,1/2+z
1/2+x,1/2-y,-z
1/2-x,1/2+y,1/2-z
loop_
_atom_site_type_symbol
_atom_site_label
_atom_site_fract_x
_atom_site_fract_y
_atom_site_fract_z
Si Si1 0.421241 0.283340 0.120908
Si Si2 0.105433 0.207817 0.896310
Si Si3 0.428403 0.695401 0.120374
Si Si4 0.756148 0.813719 0.824938
Si Si5 0.382090 0.682523 0.367361
Si Si6 0.774202 0.797693 0.203586
Si Si7 0.359997 0.295251 0.998581
Si Si8 0.665646 0.800549 0.008980
O O1 0.517565 0.224067 0.128677
O O2 0.424181 0.489476 0.120715
O O3 0.353380 0.228525 0.167380
O O4 0.392550 0.232849 0.058496
O O5 0.187485 0.305889 0.874428
O O6 0.103882 0.214036 0.963857
O O7 0.115968 0.017175 0.876554
O O8 0.346854 0.757231 0.155070
O O9 0.521156 0.741153 0.142985
O O10 0.413988 0.752705 0.056043
O O11 0.719294 0.727526 0.769689
O O12 0.770871 0.005774 0.809088
O O13 0.313885 0.723597 0.319877
O O14 0.352696 0.759654 0.426701
O O15 0.360684 0.500000 0.000000
O O16 0.261539 0.244497 0.994154
O O17 0.659305 0.000000 0.000000
#
# Coordination Sequence:
#
# PCOD9321258 Si02
#       8
#     8   8   8   8   8   8   8   8
#     4   9  19  36  61  86 115 157 197 231 286 364
#     4  11  22  38  62  91 118 151 199 246 288 346
#     4   9  19  36  61  86 115 157 197 231 286 364
#     4  11  23  42  63  85 116 157 201 246 297 351
#     4  11  22  38  62  91 118 151 199 246 288 346
#     4  11  23  42  63  85 116 157 201 246 297 351
#     4   9  15  31  59  86 111 151 194 228 275 350
#     4  11  20  35  61  90 123 159 192 234 295 354
#
# _framework density 21.456423999999998
#
# number of rings (size 3 to 8) (size 9 to 14) (size 15 to 20)
#    0.000    1.750    2.500    2.625    0.000    3.000 
#    0.000   10.000    0.000    0.000    0.000    0.000 
#    0.000    0.000    0.000    0.000    0.000    0.000 
#
# Total GULP energy -178842.386487 kJ/mol
# GULP energy per Si atom -5588.824578 kJ/mol
# Density = 2.140759 g / cm^3
# Si number density = 21.456424 Si / 1000 Ang^3
#
#
#
# Elastic Constant Matrix: (Units=GPa)
#
#
# Indices 1 2 3 4 5 6 
#
# 1 111.8675 -5.0028 15.9162 0.0000 0.0000 0.0000
# 2 -5.0028 20.5372 -2.5372 0.0000 0.0000 0.0000
# 3 15.9162 -2.5372 76.1681 0.0000 0.0000 0.0000
# 4 0.0000 0.0000 0.0000 31.4976 0.0000 0.0000
# 5 0.0000 0.0000 0.0000 0.0000 13.1982 0.0000
# 6 0.0000 0.0000 0.0000 0.0000 0.0000 14.0590
#
#
#
# Elastic Compliance Matrix: (Units=1/GPa)
#
#
# Indices 1 2 3 4 5 6 
#
# 1 0.009297 0.002033 -0.001875 0.000000 0.000000 0.000000
# 2 0.002033 0.049338 0.001219 0.000000 0.000000 0.000000
# 3 -0.001875 0.001219 0.013561 0.000000 0.000000 0.000000
# 4 0.000000 0.000000 0.000000 0.031748 0.000000 0.000000
# 5 0.000000 0.000000 0.000000 0.000000 0.075768 0.000000
# 6 0.000000 0.000000 0.000000 0.000000 0.000000 0.071129
#
#
# Mechanical properties :
#
#
# Convention : Reuss Voigt Hill
#
# Bulk Modulus (GPa) = 13.34231 25.03613 19.18922
# Shear Modulus (GPa) = 18.31026 25.09740 21.70383
#
# Velocity S-wave (km/s) = 2.92442 3.42379 3.18391
# Velocity P-wave (km/s) = 4.19938 5.22718 4.74121
#
# Compressibility (1/GPa) = 0.07494952
#
# Stress axis : x y z
#
# Youngs Moduli (GPa) = 107.56357 20.26836 73.73960
#
# Poissons Ratio (x) = -0.04121 0.13826
# Poissons Ratio (y) = -0.21868 -0.08986
# Poissons Ratio (z) = 0.20168 -0.02470
#
# Static dielectric constant tensor:
#      x y z
#    x 1.798330 0.000000 0.000000 
#    y 0.000000 1.790610 0.000000 
#    z 0.000000 0.000000 1.747780 
# 
# From -- ./inp_files/29369.got.cif
#   From: 2010.05.17/outbox.cif.g08.bks.cpg/sg20_15_cif.got.tgz:29369.got - 2010.06.03 22:52:26.
