data_PCOD9321551
_publ_section_title
;
Structure prediction by ZEFSAII (Michael W. Deem and Ramdas Pophale) SiO2 
 PCOD9321551
Probable space group: C 2 2 21
;
_chemical_formula_sum "Si O2"
_cell_formula_units_Z 40
_cell_length_a 17.574376
_cell_length_b 11.613133
_cell_length_c 8.220115
_cell_angle_alpha 90.000000
_cell_angle_beta 90.000000
_cell_angle_gamma 90.000000
_cell_volume 1677.672582
_symmetry_space_group_name_H-M "C 2 2 21"
_symmetry_group_IT_number 20
_symmetry_cell_setting 'orthorhombic'
loop_
_space_group_symop_operation_xyz
x,y,z
-x,-y,1/2+z
x,-y,-z
-x,y,1/2-z
1/2+x,1/2+y,z
1/2-x,1/2-y,1/2+z
1/2+x,1/2-y,-z
1/2-x,1/2+y,1/2-z
loop_
_atom_site_type_symbol
_atom_site_label
_atom_site_fract_x
_atom_site_fract_y
_atom_site_fract_z
Si Si1 0.763007 0.376621 0.495514
Si Si2 0.387178 0.659830 0.175720
Si Si3 0.967246 0.834186 0.489555
Si Si4 0.345598 0.284038 0.274458
Si Si5 0.928139 0.364273 0.990973
O O1 0.802865 0.500000 0.500000
O O2 0.694284 0.385632 0.627621
O O3 0.719792 0.346486 0.328276
O O4 0.812973 0.272326 0.561817
O O5 0.449216 0.620803 0.039930
O O6 0.417915 0.635793 0.352812
O O7 0.391105 0.799137 0.146937
O O8 0.917593 0.860717 0.331586
O O9 0.989555 0.697865 0.476410
O O10 0.377792 0.183169 0.158420
O O11 0.931031 0.500000 0.000000
#
# Coordination Sequence:
#
# PCOD9321551 Si02
#       5
#     8   8   8   8   8
#     4  11  25  43  62  91 129 174 218 252 323 386
#     4   8  19  38  58  84 128 155 204 263 309 376
#     4   9  18  37  62  89 123 157 203 264 325 357
#     4  11  23  39  63  87 131 167 211 274 310 371
#     4   9  19  33  58  91 123 160 209 260 327 378
#
# _framework density 23.842554
#
# number of rings (size 3 to 8) (size 9 to 14) (size 15 to 20)
#    1.200    1.200    0.000    1.800    0.000    8.800 
#    0.000    7.000    0.000    0.000    0.000    0.000 
#    0.000    0.000    0.000    0.000    0.000    0.000 
#
# Total GULP energy -111532.967174 kJ/mol
# GULP energy per Si atom -5576.648359 kJ/mol
# Density = 2.378829 g / cm^3
# Si number density = 23.842554 Si / 1000 Ang^3
#
#
#
# Elastic Constant Matrix: (Units=GPa)
#
#
# Indices 1 2 3 4 5 6 
#
# 1 68.9036 -2.0209 13.1679 0.0000 0.0000 0.0000
# 2 -2.0209 137.7605 16.7369 0.0000 0.0000 0.0000
# 3 13.1679 16.7369 62.1925 0.0000 0.0000 0.0000
# 4 0.0000 0.0000 0.0000 0.3014 0.0000 0.0000
# 5 0.0000 0.0000 0.0000 0.0000 53.6188 0.0000
# 6 0.0000 0.0000 0.0000 0.0000 0.0000 5.3243
#
#
#
# Elastic Compliance Matrix: (Units=1/GPa)
#
#
# Indices 1 2 3 4 5 6 
#
# 1 0.015178 0.000634 -0.003384 0.000000 0.000000 0.000000
# 2 0.000634 0.007531 -0.002161 0.000000 0.000000 0.000000
# 3 -0.003384 -0.002161 0.017377 0.000000 0.000000 0.000000
# 4 0.000000 0.000000 0.000000 3.317553 0.000000 0.000000
# 5 0.000000 0.000000 0.000000 0.000000 0.018650 0.000000
# 6 0.000000 0.000000 0.000000 0.000000 0.000000 0.187818
#
#
# Mechanical properties :
#
#
# Convention : Reuss Voigt Hill
#
# Bulk Modulus (GPa) = 33.04280 36.06938 34.55609
# Shear Modulus (GPa) = 1.39508 27.91374 14.65441
#
# Velocity S-wave (km/s) = 0.76576 3.42534 2.48187
# Velocity P-wave (km/s) = 3.83023 5.55022 4.76842
#
# Compressibility (1/GPa) = 0.03026378
#
# Stress axis : x y z
#
# Youngs Moduli (GPa) = 65.88321 132.78793 57.54672
#
# Poissons Ratio (x) = -0.08417 0.19475
# Poissons Ratio (y) = -0.04176 0.12435
# Poissons Ratio (z) = 0.22297 0.28694
#
# Static dielectric constant tensor:
#      x y z
#    x 1.937180 0.000000 0.000000 
#    y 0.000000 2.029250 0.000000 
#    z 0.000000 0.000000 1.920860 
# 
# From -- ./inp_files/9108.got.cif
#   From: 2010.05.17/outbox.cif.g08.bks.cpg/sg20_5_cif.got.tgz:9108.got - 2010.06.03 22:52:26.
