data_PCOD9321975
_publ_section_title
;
Structure prediction by ZEFSAII (Michael W. Deem and Ramdas Pophale) SiO2 
 PCOD9321975
Probable space group: C 2 2 21
;
_chemical_formula_sum "Si O2"
_cell_formula_units_Z 40
_cell_length_a 27.201444
_cell_length_b 10.585177
_cell_length_c 5.990589
_cell_angle_alpha 90.000000
_cell_angle_beta 90.000000
_cell_angle_gamma 90.000000
_cell_volume 1724.882867
_symmetry_space_group_name_H-M "C 2 2 21"
_symmetry_group_IT_number 20
_symmetry_cell_setting 'orthorhombic'
loop_
_space_group_symop_operation_xyz
x,y,z
-x,-y,1/2+z
x,-y,-z
-x,y,1/2-z
1/2+x,1/2+y,z
1/2-x,1/2-y,1/2+z
1/2+x,1/2-y,-z
1/2-x,1/2+y,1/2-z
loop_
_atom_site_type_symbol
_atom_site_label
_atom_site_fract_x
_atom_site_fract_y
_atom_site_fract_z
Si Si1 0.391151 0.381443 0.159398
Si Si2 0.635433 0.141242 0.600694
Si Si3 0.000000 0.195399 0.750000
Si Si4 0.225772 0.230597 0.198193
Si Si5 0.044776 0.382174 0.112790
Si Si6 0.824226 0.000000 0.500000
O O1 0.450367 0.376669 0.180962
O O2 0.362161 0.406098 0.384594
O O3 0.379503 0.500000 0.000000
O O4 0.367505 0.249308 0.084889
O O5 0.680758 0.172751 0.760391
O O6 0.584741 0.173204 0.726139
O O7 0.635682 0.000000 0.500000
O O8 0.979847 0.282807 0.550308
O O9 0.252238 0.239732 0.446435
O O10 0.208259 0.085133 0.165278
O O11 0.000000 0.442191 0.250000
O O12 0.071241 0.500000 0.000000
#
# Coordination Sequence:
#
# PCOD9321975 Si02
#       6
#     8   8   4   8   8   4
#     4  12  27  49  77 116 167 217 267 328 415 491
#     4  12  27  54  83 121 160 212 281 344 410 500
#     4  12  26  38  74 116 156 220 280 318 386 502
#     4  12  30  56  89 124 162 219 280 352 426 503
#     4  12  23  44  71 111 164 210 262 336 406 473
#     4  12  28  58  82 112 174 214 266 348 430 494
#
# _framework density 23.189978
#
# number of rings (size 3 to 8) (size 9 to 14) (size 15 to 20)
#    0.000    0.000    5.000    4.200    2.800    1.600 
#    3.600    0.000    0.000    0.000    0.000    0.000 
#    0.000    0.000    0.000    0.000    0.000    0.000 
#
# Total GULP energy -111652.605114 kJ/mol
# GULP energy per Si atom -5582.630256 kJ/mol
# Density = 2.313720 g / cm^3
# Si number density = 23.189978 Si / 1000 Ang^3
#
#
#
# Elastic Constant Matrix: (Units=GPa)
#
#
# Indices 1 2 3 4 5 6 
#
# 1 104.2006 38.7961 55.5122 0.0000 0.0000 0.0000
# 2 38.7961 123.5216 56.9296 0.0000 0.0000 0.0000
# 3 55.5122 56.9296 119.2486 0.0000 0.0000 0.0000
# 4 0.0000 0.0000 0.0000 52.6693 0.0000 0.0000
# 5 0.0000 0.0000 0.0000 0.0000 47.1723 0.0000
# 6 0.0000 0.0000 0.0000 0.0000 0.0000 176.0210
#
#
#
# Elastic Compliance Matrix: (Units=1/GPa)
#
#
# Indices 1 2 3 4 5 6 
#
# 1 0.013023 -0.001662 -0.005269 0.000000 0.000000 0.000000
# 2 -0.001662 0.010592 -0.004283 0.000000 0.000000 0.000000
# 3 -0.005269 -0.004283 0.012883 0.000000 0.000000 0.000000
# 4 0.000000 0.000000 0.000000 0.018986 0.000000 0.000000
# 5 0.000000 0.000000 0.000000 0.000000 0.021199 0.000000
# 6 0.000000 0.000000 0.000000 0.000000 0.000000 0.005681
#
#
# Mechanical properties :
#
#
# Convention : Reuss Voigt Hill
#
# Bulk Modulus (GPa) = 71.07156 72.16074 71.61615
# Shear Modulus (GPa) = 45.67002 68.22139 56.94570
#
# Velocity S-wave (km/s) = 4.44259 5.42976 4.96079
# Velocity P-wave (km/s) = 7.55179 8.39610 7.98511
#
# Compressibility (1/GPa) = 0.01407033
#
# Stress axis : x y z
#
# Youngs Moduli (GPa) = 76.78987 94.41423 77.62023
#
# Poissons Ratio (x) = 0.15690 0.40897
# Poissons Ratio (y) = 0.12761 0.33244
# Poissons Ratio (z) = 0.40460 0.40436
#
# Static dielectric constant tensor:
#      x y z
#    x 1.878580 0.000000 0.000000 
#    y 0.000000 1.849810 0.000000 
#    z 0.000000 0.000000 1.884230 
# 
# From -- ./inp_files/4108.got.cif
#   From: 2010.05.17/outbox.cif.g08.bks.cpg/sg20_3_cif.got.tgz:4108.got - 2010.06.03 22:52:26.
