data_PCOD9321722
_publ_section_title
;
Structure prediction by ZEFSAII (Michael W. Deem and Ramdas Pophale) SiO2 
 PCOD9321722
Probable space group: C 2 2 21
;
_chemical_formula_sum "Si O2"
_cell_formula_units_Z 40
_cell_length_a 9.733794
_cell_length_b 9.824509
_cell_length_c 17.424520
_cell_angle_alpha 90.000000
_cell_angle_beta 90.000000
_cell_angle_gamma 90.000000
_cell_volume 1666.302435
_symmetry_space_group_name_H-M "C 2 2 21"
_symmetry_group_IT_number 20
_symmetry_cell_setting 'orthorhombic'
loop_
_space_group_symop_operation_xyz
x,y,z
-x,-y,1/2+z
x,-y,-z
-x,y,1/2-z
1/2+x,1/2+y,z
1/2-x,1/2-y,1/2+z
1/2+x,1/2-y,-z
1/2-x,1/2+y,1/2-z
loop_
_atom_site_type_symbol
_atom_site_label
_atom_site_fract_x
_atom_site_fract_y
_atom_site_fract_z
Si Si1 0.213551 0.027865 0.228848
Si Si2 0.656472 0.769074 0.832587
Si Si3 0.110344 0.133267 0.073973
Si Si4 0.578915 0.405192 0.377432
Si Si5 0.824111 0.227296 0.017027
O O1 0.228896 0.875630 0.193158
O O2 0.119513 0.989411 0.302744
O O3 0.331905 0.112408 0.270596
O O4 0.157656 0.133005 0.163923
O O5 0.500305 0.729403 0.850760
O O6 0.736281 0.813250 0.909180
O O7 0.983932 0.230780 0.044898
O O8 0.243632 0.147024 0.020953
O O9 0.035803 0.988597 0.077410
O O10 0.687219 0.371825 0.442841
#
# Coordination Sequence:
#
# PCOD9321722 Si02
#       5
#     8   8   8   8   8
#     4  11  25  47  82 107 154 203 260 311 391 446
#     4  11  24  42  80 110 142 207 250 318 376 459
#     4  11  24  44  76 105 144 204 245 312 378 455
#     4  11  24  48  79 104 152 206 257 318 380 458
#     4  12  24  42  79 108 149 199 257 304 390 454
#
# _framework density 24.005244999999999
#
# number of rings (size 3 to 8) (size 9 to 14) (size 15 to 20)
#    0.000    0.800    4.000    4.200    2.800    0.000 
#    0.000    0.000   83.600    0.000    0.000    0.000 
#    0.000    0.000    0.000    0.000    0.000    0.000 
#
# Total GULP energy -111390.997091 kJ/mol
# GULP energy per Si atom -5569.549855 kJ/mol
# Density = 2.395061 g / cm^3
# Si number density = 24.005245 Si / 1000 Ang^3
#
#
#
# Elastic Constant Matrix: (Units=GPa)
#
#
# Indices 1 2 3 4 5 6 
#
# 1 71.7647 34.9043 51.5869 0.0000 0.0000 0.0000
# 2 34.9043 72.2621 41.6080 0.0000 0.0000 0.0000
# 3 51.5869 41.6080 182.5690 0.0000 0.0000 0.0000
# 4 0.0000 0.0000 0.0000 60.3211 0.0000 0.0000
# 5 0.0000 0.0000 0.0000 0.0000 49.2938 0.0000
# 6 0.0000 0.0000 0.0000 0.0000 0.0000 37.7520
#
#
#
# Elastic Compliance Matrix: (Units=1/GPa)
#
#
# Indices 1 2 3 4 5 6 
#
# 1 0.020554 -0.007578 -0.004081 0.000000 0.000000 0.000000
# 2 -0.007578 0.018723 -0.002126 0.000000 0.000000 0.000000
# 3 -0.004081 -0.002126 0.007115 0.000000 0.000000 0.000000
# 4 0.000000 0.000000 0.000000 0.016578 0.000000 0.000000
# 5 0.000000 0.000000 0.000000 0.000000 0.020287 0.000000
# 6 0.000000 0.000000 0.000000 0.000000 0.000000 0.026489
#
#
# Mechanical properties :
#
#
# Convention : Reuss Voigt Hill
#
# Bulk Modulus (GPa) = 53.12841 64.75491 58.94166
# Shear Modulus (GPa) = 34.82197 42.70648 38.76422
#
# Velocity S-wave (km/s) = 3.81280 4.22245 4.02285
# Velocity P-wave (km/s) = 6.44696 7.12783 6.79593
#
# Compressibility (1/GPa) = 0.01882232
#
# Stress axis : x y z
#
# Youngs Moduli (GPa) = 48.65351 53.41033 140.55159
#
# Poissons Ratio (x) = 0.40476 0.57352
# Poissons Ratio (y) = 0.36871 0.29877
# Poissons Ratio (z) = 0.19853 0.11353
#
# Static dielectric constant tensor:
#      x y z
#    x 1.935880 0.000000 0.000000 
#    y 0.000000 1.945050 0.000000 
#    z 0.000000 0.000000 2.047090 
# 
# From -- ./inp_files/23186.got.cif
#   From: 2010.05.17/outbox.cif.g08.bks.cpg/sg20_12_cif.got.tgz:23186.got - 2010.06.03 22:52:26.
