data_PCOD9321466
_publ_section_title
;
Structure prediction by ZEFSAII (Michael W. Deem and Ramdas Pophale) SiO2 
 PCOD9321466
Probable space group: C 2 2 21
;
_chemical_formula_sum "Si O2"
_cell_formula_units_Z 56
_cell_length_a 30.848255
_cell_length_b 14.305424
_cell_length_c 6.006178
_cell_angle_alpha 90.000000
_cell_angle_beta 90.000000
_cell_angle_gamma 90.000000
_cell_volume 2650.510540
_symmetry_space_group_name_H-M "C 2 2 21"
_symmetry_group_IT_number 20
_symmetry_cell_setting 'orthorhombic'
loop_
_space_group_symop_operation_xyz
x,y,z
-x,-y,1/2+z
x,-y,-z
-x,y,1/2-z
1/2+x,1/2+y,z
1/2-x,1/2-y,1/2+z
1/2+x,1/2-y,-z
1/2-x,1/2+y,1/2-z
loop_
_atom_site_type_symbol
_atom_site_label
_atom_site_fract_x
_atom_site_fract_y
_atom_site_fract_z
Si Si1 0.949652 0.028840 0.746401
Si Si2 0.047227 0.404448 0.138925
Si Si3 0.300910 0.217921 0.717165
Si Si4 0.322989 0.083779 0.334648
Si Si5 0.385288 0.849199 0.027896
Si Si6 0.049523 0.251756 0.781106
Si Si7 0.759747 0.098773 0.457519
O O1 0.949648 0.140534 0.717371
O O2 0.000000 0.994010 0.750000
O O3 0.930868 0.000000 0.500000
O O4 0.932971 0.000000 0.000000
O O5 0.085890 0.413224 0.314419
O O6 0.000000 0.388349 0.250000
O O7 0.043865 0.500000 0.000000
O O8 0.061598 0.313205 0.996327
O O9 0.311949 0.174963 0.477451
O O10 0.344943 0.202701 0.855325
O O11 0.262736 0.156806 0.837662
O O12 0.286428 0.324188 0.680648
O O13 0.331131 0.000000 0.500000
O O14 0.362644 0.097415 0.172743
O O15 0.280608 0.064593 0.190537
O O16 0.419942 0.779917 0.921041
O O17 0.000000 0.282469 0.750000
O O18 0.783845 0.000000 0.500000
#
# Coordination Sequence:
#
# PCOD9321466 Si02
#       7
#     8   8   8   8   8   8   8
#     4   9  20  37  67 102 127 165 234 307 372 437
#     4  12  27  47  68 100 145 195 253 305 371 441
#     4  11  23  42  70 103 145 179 238 289 352 438
#     4  11  23  43  68 105 137 184 238 292 354 434
#     4  11  27  44  67  99 146 189 243 302 362 434
#     4  11  23  43  71  96 135 190 239 306 369 433
#     4  11  22  41  74 106 139 186 230 285 357 436
#
# _framework density 21.128007
#
# number of rings (size 3 to 8) (size 9 to 14) (size 15 to 20)
#    0.000    1.143    4.286    1.286    2.000    4.000 
#    0.000    0.000    6.286    0.000    0.000    0.000 
#    0.000    0.000    0.000    0.000    0.000    0.000 
#
# Total GULP energy -156280.672832 kJ/mol
# GULP energy per Si atom -5581.452601 kJ/mol
# Density = 2.107992 g / cm^3
# Si number density = 21.128007 Si / 1000 Ang^3
#
#
#
# Elastic Constant Matrix: (Units=GPa)
#
#
# Indices 1 2 3 4 5 6 
#
# 1 79.6230 39.6504 33.4270 0.0000 0.0000 0.0000
# 2 39.6504 123.5397 53.2072 0.0000 0.0000 0.0000
# 3 33.4270 53.2072 125.3177 0.0000 0.0000 0.0000
# 4 0.0000 0.0000 0.0000 29.8266 0.0000 0.0000
# 5 0.0000 0.0000 0.0000 0.0000 24.8185 0.0000
# 6 0.0000 0.0000 0.0000 0.0000 0.0000 7.8157
#
#
#
# Elastic Compliance Matrix: (Units=1/GPa)
#
#
# Indices 1 2 3 4 5 6 
#
# 1 0.015555 -0.003923 -0.002484 0.000000 0.000000 0.000000
# 2 -0.003923 0.010895 -0.003580 0.000000 0.000000 0.000000
# 3 -0.002484 -0.003580 0.010162 0.000000 0.000000 0.000000
# 4 0.000000 0.000000 0.000000 0.033527 0.000000 0.000000
# 5 0.000000 0.000000 0.000000 0.000000 0.040293 0.000000
# 6 0.000000 0.000000 0.000000 0.000000 0.000000 0.127947
#
#
# Mechanical properties :
#
#
# Convention : Reuss Voigt Hill
#
# Bulk Modulus (GPa) = 60.09409 64.56106 62.32758
# Shear Modulus (GPa) = 18.94671 25.97188 22.45930
#
# Velocity S-wave (km/s) = 2.99784 3.50989 3.26392
# Velocity P-wave (km/s) = 6.36297 6.85924 6.61576
#
# Compressibility (1/GPa) = 0.01664057
#
# Stress axis : x y z
#
# Youngs Moduli (GPa) = 64.28654 91.78283 98.40588
#
# Poissons Ratio (x) = 0.36005 0.24441
# Poissons Ratio (y) = 0.25219 0.35225
# Poissons Ratio (z) = 0.15966 0.32854
#
# Static dielectric constant tensor:
#      x y z
#    x 1.755620 0.000000 0.000000 
#    y 0.000000 1.839690 0.000000 
#    z 0.000000 0.000000 1.861460 
# 
# From -- ./inp_files/4677.got.cif
#   From: 2010.05.17/outbox.cif.g08.bks.cpg/sg20_3_cif.got.tgz:4677.got - 2010.06.03 22:52:26.
