data_PCOD9321344
_publ_section_title
;
Structure prediction by ZEFSAII (Michael W. Deem and Ramdas Pophale) SiO2 
 PCOD9321344
Probable space group: C 2 2 21
;
_chemical_formula_sum "Si O2"
_cell_formula_units_Z 44
_cell_length_a 23.446114
_cell_length_b 8.783724
_cell_length_c 10.601469
_cell_angle_alpha 90.000000
_cell_angle_beta 90.000000
_cell_angle_gamma 90.000000
_cell_volume 2183.310991
_symmetry_space_group_name_H-M "C 2 2 21"
_symmetry_group_IT_number 20
_symmetry_cell_setting 'orthorhombic'
loop_
_space_group_symop_operation_xyz
x,y,z
-x,-y,1/2+z
x,-y,-z
-x,y,1/2-z
1/2+x,1/2+y,z
1/2-x,1/2-y,1/2+z
1/2+x,1/2-y,-z
1/2-x,1/2+y,1/2-z
loop_
_atom_site_type_symbol
_atom_site_label
_atom_site_fract_x
_atom_site_fract_y
_atom_site_fract_z
Si Si1 0.000000 0.380827 0.250000
Si Si2 0.791472 0.385114 0.117340
Si Si3 0.583355 0.892689 0.879391
Si Si4 0.506093 0.624312 0.606864
Si Si5 0.288668 0.090890 0.366980
Si Si6 0.078800 0.673465 0.539388
O O1 0.051212 0.495050 0.215255
O O2 0.029968 0.285018 0.359046
O O3 0.753778 0.233102 0.124077
O O4 0.781380 0.478041 0.247359
O O5 0.857369 0.331690 0.094169
O O6 0.778471 0.500000 0.000000
O O7 0.542894 0.751476 0.903669
O O8 0.647115 0.847231 0.846129
O O9 0.588164 0.000000 0.000000
O O10 0.498655 0.500000 0.500000
O O11 0.500000 0.567379 0.750000
O O12 0.565797 0.713129 0.576731
O O13 0.285077 0.000000 0.500000
O O14 0.065441 0.500000 0.500000
#
# Coordination Sequence:
#
# PCOD9321344 Si02
#       6
#     4   8   8   8   8   8
#     4  12  16  38  70 102 116 162 232 282 322 398
#     4  11  25  45  72 103 137 187 241 296 348 413
#     4  11  21  39  71  95 130 176 229 277 335 426
#     4  12  26  42  61 103 148 176 215 286 362 410
#     4  11  25  46  69 103 137 188 240 288 356 419
#     4  11  22  40  73  98 129 180 236 280 339 420
#
# _framework density 20.152878999999999
#
# number of rings (size 3 to 8) (size 9 to 14) (size 15 to 20)
#    0.000    0.727    6.364    1.091    3.818    1.455 
#    3.273    0.000    0.000    0.000    0.000    0.000 
#    0.000    0.000    0.000    0.000    0.000    0.000 
#
# Total GULP energy -122787.874653 kJ/mol
# GULP energy per Si atom -5581.267030 kJ/mol
# Density = 2.010701 g / cm^3
# Si number density = 20.152879 Si / 1000 Ang^3
#
#
#
# Elastic Constant Matrix: (Units=GPa)
#
#
# Indices 1 2 3 4 5 6 
#
# 1 123.3524 51.7602 55.6039 0.0000 0.0000 0.0000
# 2 51.7602 100.6316 65.1482 0.0000 0.0000 0.0000
# 3 55.6039 65.1482 160.0337 0.0000 0.0000 0.0000
# 4 0.0000 0.0000 0.0000 37.0840 0.0000 0.0000
# 5 0.0000 0.0000 0.0000 0.0000 30.5657 0.0000
# 6 0.0000 0.0000 0.0000 0.0000 0.0000 20.5938
#
#
#
# Elastic Compliance Matrix: (Units=1/GPa)
#
#
# Indices 1 2 3 4 5 6 
#
# 1 0.010801 -0.004245 -0.002025 0.000000 0.000000 0.000000
# 2 -0.004245 0.015161 -0.004697 0.000000 0.000000 0.000000
# 3 -0.002025 -0.004697 0.008864 0.000000 0.000000 0.000000
# 4 0.000000 0.000000 0.000000 0.026966 0.000000 0.000000
# 5 0.000000 0.000000 0.000000 0.000000 0.032716 0.000000
# 6 0.000000 0.000000 0.000000 0.000000 0.000000 0.048558
#
#
# Mechanical properties :
#
#
# Convention : Reuss Voigt Hill
#
# Bulk Modulus (GPa) = 77.55993 81.00472 79.28232
# Shear Modulus (GPa) = 29.53373 31.74906 30.64140
#
# Velocity S-wave (km/s) = 3.83232 3.97345 3.90352
# Velocity P-wave (km/s) = 7.62572 7.83157 7.72933
#
# Compressibility (1/GPa) = 0.01289326
#
# Stress axis : x y z
#
# Youngs Moduli (GPa) = 92.58731 65.95688 112.81033
#
# Poissons Ratio (x) = 0.27995 0.22842
# Poissons Ratio (y) = 0.39299 0.52991
# Poissons Ratio (z) = 0.18747 0.30982
#
# Static dielectric constant tensor:
#      x y z
#    x 1.725110 0.000000 0.000000 
#    y 0.000000 1.681480 0.000000 
#    z 0.000000 0.000000 1.837200 
# 
# From -- ./inp_files/16590.got.cif
#   From: 2010.05.17/outbox.cif.g08.bks.cpg/sg20_9_cif.got.tgz:16590.got - 2010.06.03 22:52:26.
