data_PCOD9321265
_publ_section_title
;
Structure prediction by ZEFSAII (Michael W. Deem and Ramdas Pophale) SiO2 
 PCOD9321265
Probable space group: C 2 2 21
;
_chemical_formula_sum "Si O2"
_cell_formula_units_Z 40
_cell_length_a 12.473910
_cell_length_b 8.432876
_cell_length_c 16.451693
_cell_angle_alpha 90.000000
_cell_angle_beta 90.000000
_cell_angle_gamma 90.000000
_cell_volume 1730.568990
_symmetry_space_group_name_H-M "C 2 2 21"
_symmetry_group_IT_number 20
_symmetry_cell_setting 'orthorhombic'
loop_
_space_group_symop_operation_xyz
x,y,z
-x,-y,1/2+z
x,-y,-z
-x,y,1/2-z
1/2+x,1/2+y,z
1/2-x,1/2-y,1/2+z
1/2+x,1/2-y,-z
1/2-x,1/2+y,1/2-z
loop_
_atom_site_type_symbol
_atom_site_label
_atom_site_fract_x
_atom_site_fract_y
_atom_site_fract_z
Si Si1 0.198275 0.834802 0.453680
Si Si2 0.016701 0.297359 0.914019
Si Si3 0.399953 0.304551 0.591361
Si Si4 0.219846 0.139514 0.890811
Si Si5 0.946001 0.400393 0.169310
O O1 0.303220 0.820564 0.398293
O O2 0.222029 0.705540 0.526253
O O3 0.093178 0.798579 0.401659
O O4 0.190019 0.000000 0.500000
O O5 0.125669 0.260317 0.865439
O O6 0.981007 0.477575 0.901631
O O7 0.051537 0.235411 0.003078
O O8 0.344971 0.475391 0.597386
O O9 0.496085 0.266769 0.651837
O O10 0.318788 0.115495 0.830560
O O11 0.000000 0.466621 0.250000
#
# Coordination Sequence:
#
# PCOD9321265 Si02
#       5
#     8   8   8   8   8
#     4  11  20  37  70 107 131 166 222 294 351 394
#     4  11  22  40  71  97 133 174 230 288 347 393
#     4  11  22  40  71 101 132 174 229 295 337 399
#     4  11  24  43  68 102 139 168 228 292 344 407
#     4  12  27  46  66  95 146 190 225 278 345 419
#
# _framework density 23.113783999999999
#
# number of rings (size 3 to 8) (size 9 to 14) (size 15 to 20)
#    0.000    0.800    4.000    6.600    0.000    1.600 
#    0.000    1.000    0.000    0.000    0.000    0.000 
#    0.000    0.000    0.000    0.000    0.000    0.000 
#
# Total GULP energy -111635.246588 kJ/mol
# GULP energy per Si atom -5581.762329 kJ/mol
# Density = 2.306118 g / cm^3
# Si number density = 23.113784 Si / 1000 Ang^3
#
#
#
# Elastic Constant Matrix: (Units=GPa)
#
#
# Indices 1 2 3 4 5 6 
#
# 1 138.7523 40.3473 -13.8987 0.0000 0.0000 0.0000
# 2 40.3473 116.0597 4.6303 0.0000 0.0000 0.0000
# 3 -13.8987 4.6303 23.4763 0.0000 0.0000 0.0000
# 4 0.0000 0.0000 0.0000 5.7692 0.0000 0.0000
# 5 0.0000 0.0000 0.0000 0.0000 10.6408 0.0000
# 6 0.0000 0.0000 0.0000 0.0000 0.0000 38.9216
#
#
#
# Elastic Compliance Matrix: (Units=1/GPa)
#
#
# Indices 1 2 3 4 5 6 
#
# 1 0.008741 -0.003271 0.005820 0.000000 0.000000 0.000000
# 2 -0.003271 0.009909 -0.003891 0.000000 0.000000 0.000000
# 3 0.005820 -0.003891 0.046809 0.000000 0.000000 0.000000
# 4 0.000000 0.000000 0.000000 0.173333 0.000000 0.000000
# 5 0.000000 0.000000 0.000000 0.000000 0.093978 0.000000
# 6 0.000000 0.000000 0.000000 0.000000 0.000000 0.025693
#
#
# Mechanical properties :
#
#
# Convention : Reuss Voigt Hill
#
# Bulk Modulus (GPa) = 15.92967 37.82736 26.87851
# Shear Modulus (GPa) = 13.08655 27.54693 20.31674
#
# Velocity S-wave (km/s) = 2.38203 3.45599 2.96799
# Velocity P-wave (km/s) = 3.80424 5.68563 4.83728
#
# Compressibility (1/GPa) = 0.06277593
#
# Stress axis : x y z
#
# Youngs Moduli (GPa) = 114.39980 100.92202 21.36325
#
# Poissons Ratio (x) = 0.33012 -0.12434
# Poissons Ratio (y) = 0.37421 0.08312
# Poissons Ratio (z) = -0.66584 0.39268
#
# Static dielectric constant tensor:
#      x y z
#    x 1.938760 0.000000 0.000000 
#    y 0.000000 1.923900 0.000000 
#    z 0.000000 0.000000 1.954640 
# 
# From -- ./inp_files/20498.got.cif
#   From: 2010.05.17/outbox.cif.g08.bks.cpg/sg20_11_cif.got.tgz:20498.got - 2010.06.03 22:52:26.
