data_PCOD9321680
_publ_section_title
;
Structure prediction by ZEFSAII (Michael W. Deem and Ramdas Pophale) SiO2 
 PCOD9321680
Probable space group: C 2 2 21
;
_chemical_formula_sum "Si O2"
_cell_formula_units_Z 32
_cell_length_a 29.324045
_cell_length_b 10.365522
_cell_length_c 4.916999
_cell_angle_alpha 90.000000
_cell_angle_beta 90.000000
_cell_angle_gamma 90.000000
_cell_volume 1494.566264
_symmetry_space_group_name_H-M "C 2 2 21"
_symmetry_group_IT_number 20
_symmetry_cell_setting 'orthorhombic'
loop_
_space_group_symop_operation_xyz
x,y,z
-x,-y,1/2+z
x,-y,-z
-x,y,1/2-z
1/2+x,1/2+y,z
1/2-x,1/2-y,1/2+z
1/2+x,1/2-y,-z
1/2-x,1/2+y,1/2-z
loop_
_atom_site_type_symbol
_atom_site_label
_atom_site_fract_x
_atom_site_fract_y
_atom_site_fract_z
Si Si1 0.968373 0.500000 0.000000
Si Si2 0.388283 0.124544 0.710026
Si Si3 0.240650 0.831858 0.630178
Si Si4 0.362230 0.410777 0.758583
Si Si5 0.694485 0.000000 0.500000
O O1 0.933570 0.607176 0.890036
O O2 0.000000 0.457974 0.750000
O O3 0.385118 0.277019 0.651012
O O4 0.390059 0.000000 0.500000
O O5 0.341843 0.099860 0.874732
O O6 0.253164 0.792218 0.325996
O O7 0.188893 0.876569 0.644058
O O8 0.274896 0.932226 0.771569
O O9 0.357630 0.500000 0.500000
O O10 0.383496 0.500000 0.000000
#
# Coordination Sequence:
#
# PCOD9321680 Si02
#       5
#     4   8   8   8   4
#     4  11  24  46  80 116 132 166 228 302 366 435
#     4  11  25  45  75 104 142 180 239 294 358 423
#     4  12  24  39  58  87 137 190 251 295 336 394
#     4  12  27  43  65 100 146 195 238 290 357 423
#     4  11  24  34  64  92 134 188 246 286 332 385
#
# _framework density 21.410893999999999
#
# number of rings (size 3 to 8) (size 9 to 14) (size 15 to 20)
#    0.000    0.500    5.000    3.000    7.000    0.000 
#    0.000    0.000    0.000    3.000    0.000    0.000 
#    0.000    0.000    0.000    0.000    0.000    0.000 
#
# Total GULP energy -89352.887761 kJ/mol
# GULP energy per Si atom -5584.555485 kJ/mol
# Density = 2.136216 g / cm^3
# Si number density = 21.410894 Si / 1000 Ang^3
#
#
#
# Elastic Constant Matrix: (Units=GPa)
#
#
# Indices 1 2 3 4 5 6 
#
# 1 104.3079 37.6622 13.6028 0.0000 0.0000 0.0000
# 2 37.6622 163.0816 33.0794 0.0000 0.0000 0.0000
# 3 13.6028 33.0794 80.2402 0.0000 0.0000 0.0000
# 4 0.0000 0.0000 0.0000 50.8940 0.0000 0.0000
# 5 0.0000 0.0000 0.0000 0.0000 19.4661 0.0000
# 6 0.0000 0.0000 0.0000 0.0000 0.0000 -7.7520
#
#
#
# Elastic Compliance Matrix: (Units=1/GPa)
#
#
# Indices 1 2 3 4 5 6 
#
# 1 0.010512 -0.002255 -0.000853 0.000000 0.000000 0.000000
# 2 -0.002255 0.007175 -0.002576 0.000000 0.000000 0.000000
# 3 -0.000853 -0.002576 0.013669 0.000000 0.000000 0.000000
# 4 0.000000 0.000000 0.000000 0.019649 0.000000 0.000000
# 5 0.000000 0.000000 0.000000 0.000000 0.051371 0.000000
# 6 0.000000 0.000000 0.000000 0.000000 0.000000 -0.129000
#
#
# Mechanical properties :
#
#
# Convention : Reuss Voigt Hill
#
# Bulk Modulus (GPa) = 50.02445 57.36871 53.69658
# Shear Modulus (GPa) = -581.81037 30.07400 -275.86818
#
# Velocity S-wave (km/s) = -16.50229 3.75188 -11.36330
# Velocity P-wave (km/s) = 18.43057 6.75434 12.12569
#
# Compressibility (1/GPa) = 0.01999023
#
# Stress axis : x y z
#
# Youngs Moduli (GPa) = 95.12648 139.37138 73.15846
#
# Poissons Ratio (x) = 0.31425 0.06237
# Poissons Ratio (y) = 0.21449 0.18843
# Poissons Ratio (z) = 0.08110 0.35898
#
# Static dielectric constant tensor:
#      x y z
#    x 1.725320 0.000000 0.000000 
#    y 0.000000 1.956570 0.000000 
#    z 0.000000 0.000000 2.034370 
# 
# From -- ./inp_files/633.got.cif
#   From: 2010.05.17/outbox.cif.g08.bks.cpg/sg20_1_cif.got.tgz:633.got - 2010.06.03 22:52:26.
