data_PCOD9321175
_publ_section_title
;
Structure prediction by ZEFSAII (Michael W. Deem and Ramdas Pophale) SiO2 
 PCOD9321175
Probable space group: C 2 2 21
;
_chemical_formula_sum "Si O2"
_cell_formula_units_Z 48
_cell_length_a 11.692743
_cell_length_b 8.292637
_cell_length_c 23.219179
_cell_angle_alpha 90.000000
_cell_angle_beta 90.000000
_cell_angle_gamma 90.000000
_cell_volume 2251.416885
_symmetry_space_group_name_H-M "C 2 2 21"
_symmetry_group_IT_number 20
_symmetry_cell_setting 'orthorhombic'
loop_
_space_group_symop_operation_xyz
x,y,z
-x,-y,1/2+z
x,-y,-z
-x,y,1/2-z
1/2+x,1/2+y,z
1/2-x,1/2-y,1/2+z
1/2+x,1/2-y,-z
1/2-x,1/2+y,1/2-z
loop_
_atom_site_type_symbol
_atom_site_label
_atom_site_fract_x
_atom_site_fract_y
_atom_site_fract_z
Si Si1 0.396716 0.968286 0.209454
Si Si2 0.515163 0.963017 0.409557
Si Si3 0.401642 0.745234 0.645597
Si Si4 0.000000 0.957014 0.250000
Si Si5 0.271554 0.341182 0.761340
Si Si6 0.254407 0.644057 0.541039
Si Si7 0.679435 0.000000 0.000000
O O1 0.500000 0.016328 0.250000
O O2 0.453589 0.890765 0.153153
O O3 0.315628 0.840494 0.240590
O O4 0.308024 0.115877 0.206603
O O5 0.625181 0.910612 0.445385
O O6 0.402970 0.937119 0.448035
O O7 0.492921 0.147594 0.389329
O O8 0.465031 0.643624 0.693952
O O9 0.308441 0.851003 0.681625
O O10 0.328644 0.645180 0.599563
O O11 0.112305 0.059685 0.264011
O O12 0.300276 0.500000 0.500000
O O13 0.258449 0.832340 0.519336
#
# Coordination Sequence:
#
# PCOD9321175 Si02
#       7
#     8   8   8   4   8   8   4
#     4  12  24  41  65  98 139 184 225 287 356 427
#     4  11  22  46  72  93 141 185 232 299 361 421
#     4  11  24  43  67 103 144 186 233 299 362 439
#     4  12  24  40  68 110 146 182 246 282 364 450
#     4  12  23  39  64  99 140 182 230 282 353 428
#     4  11  24  50  72 101 141 187 245 306 365 426
#     4  10  26  48  72 104 134 180 246 300 362 436
#
# _framework density 21.319906
#
# number of rings (size 3 to 8) (size 9 to 14) (size 15 to 20)
#    0.000    0.667    6.667    1.000    0.000    1.333 
#   10.500    0.000    0.000    0.000    0.000    0.000 
#    0.000    0.000    0.000    0.000    0.000    0.000 
#
# Total GULP energy -133709.198518 kJ/mol
# GULP energy per Si atom -5571.216605 kJ/mol
# Density = 2.127138 g / cm^3
# Si number density = 21.319906 Si / 1000 Ang^3
#
#
#
# Elastic Constant Matrix: (Units=GPa)
#
#
# Indices 1 2 3 4 5 6 
#
# 1 131.9981 57.5897 46.2387 0.0000 0.0000 0.0000
# 2 57.5897 86.2638 37.3950 0.0000 0.0000 0.0000
# 3 46.2387 37.3950 86.1434 0.0000 0.0000 0.0000
# 4 0.0000 0.0000 0.0000 33.8251 0.0000 0.0000
# 5 0.0000 0.0000 0.0000 0.0000 24.1803 0.0000
# 6 0.0000 0.0000 0.0000 0.0000 0.0000 44.5590
#
#
#
# Elastic Compliance Matrix: (Units=1/GPa)
#
#
# Indices 1 2 3 4 5 6 
#
# 1 0.011484 -0.006152 -0.003493 0.000000 0.000000 0.000000
# 2 -0.006152 0.017575 -0.004327 0.000000 0.000000 0.000000
# 3 -0.003493 -0.004327 0.015362 0.000000 0.000000 0.000000
# 4 0.000000 0.000000 0.000000 0.029564 0.000000 0.000000
# 5 0.000000 0.000000 0.000000 0.000000 0.041356 0.000000
# 6 0.000000 0.000000 0.000000 0.000000 0.000000 0.022442
#
#
# Mechanical properties :
#
#
# Convention : Reuss Voigt Hill
#
# Bulk Modulus (GPa) = 60.69563 65.20580 62.95072
# Shear Modulus (GPa) = 29.20208 31.39169 30.29688
#
# Velocity S-wave (km/s) = 3.70497 3.84136 3.77379
# Velocity P-wave (km/s) = 6.84348 7.09406 6.96990
#
# Compressibility (1/GPa) = 0.01647565
#
# Stress axis : x y z
#
# Youngs Moduli (GPa) = 87.07967 56.89780 65.09508
#
# Poissons Ratio (x) = 0.35004 0.22740
# Poissons Ratio (y) = 0.53573 0.28168
# Poissons Ratio (z) = 0.30420 0.24621
#
# Static dielectric constant tensor:
#      x y z
#    x 1.783940 0.000000 0.000000 
#    y 0.000000 1.830630 0.000000 
#    z 0.000000 0.000000 1.871970 
# 
# From -- ./inp_files/29113.got.cif
#   From: 2010.05.17/outbox.cif.g08.bks.cpg/sg20_15_cif.got.tgz:29113.got - 2010.06.03 22:52:26.
