data_PCOD9321772
_publ_section_title
;
Structure prediction by ZEFSAII (Michael W. Deem and Ramdas Pophale) SiO2 
 PCOD9321772
Probable space group: C 2 2 21
;
_chemical_formula_sum "Si O2"
_cell_formula_units_Z 32
_cell_length_a 7.420492
_cell_length_b 35.463806
_cell_length_c 5.311535
_cell_angle_alpha 90.000000
_cell_angle_beta 90.000000
_cell_angle_gamma 90.000000
_cell_volume 1397.777648
_symmetry_space_group_name_H-M "C 2 2 21"
_symmetry_group_IT_number 20
_symmetry_cell_setting 'orthorhombic'
loop_
_space_group_symop_operation_xyz
x,y,z
-x,-y,1/2+z
x,-y,-z
-x,y,1/2-z
1/2+x,1/2+y,z
1/2-x,1/2-y,1/2+z
1/2+x,1/2-y,-z
1/2-x,1/2+y,1/2-z
loop_
_atom_site_type_symbol
_atom_site_label
_atom_site_fract_x
_atom_site_fract_y
_atom_site_fract_z
Si Si1 0.802382 0.915086 0.325214
Si Si2 0.211602 0.370587 0.820766
Si Si3 0.703810 0.209733 0.333274
Si Si4 0.500000 0.226941 0.750000
Si Si5 0.500000 0.976257 0.250000
O O1 0.804647 0.893049 0.590966
O O2 0.663063 0.949296 0.334141
O O3 0.000000 0.928747 0.250000
O O4 0.742349 0.888561 0.092188
O O5 0.266610 0.326578 0.814882
O O6 0.000000 0.371209 0.750000
O O7 0.500000 0.222778 0.250000
O O8 0.639089 0.198931 0.611198
O O9 0.848220 0.242644 0.341336
O O10 0.450549 0.000000 0.500000
#
# Coordination Sequence:
#
# PCOD9321772 Si02
#       5
#     8   8   8   4   4
#     4  12  26  47  74 109 142 182 235 284 336 414
#     4  11  24  46  72 100 141 187 237 292 350 410
#     4  11  26  41  65  94 131 180 234 293 361 415
#     4  12  24  45  60  94 134 178 234 302 360 426
#     4  12  26  47  76 108 148 186 220 276 346 412
#
# _framework density 22.893481999999999
#
# number of rings (size 3 to 8) (size 9 to 14) (size 15 to 20)
#    0.000    0.500    5.000    2.250   10.500    1.000 
#    0.000    0.000    0.000    0.000    0.000    0.000 
#    0.000    0.000    0.000    0.000    0.000    0.000 
#
# Total GULP energy -89251.317164 kJ/mol
# GULP energy per Si atom -5578.207323 kJ/mol
# Density = 2.284138 g / cm^3
# Si number density = 22.893482 Si / 1000 Ang^3
#
#
#
# Elastic Constant Matrix: (Units=GPa)
#
#
# Indices 1 2 3 4 5 6 
#
# 1 86.3867 8.7814 -9.1951 0.0000 0.0000 0.0000
# 2 8.7814 71.1483 42.6652 0.0000 0.0000 0.0000
# 3 -9.1951 42.6652 102.8913 0.0000 0.0000 0.0000
# 4 0.0000 0.0000 0.0000 40.7543 0.0000 0.0000
# 5 0.0000 0.0000 0.0000 0.0000 34.6870 0.0000
# 6 0.0000 0.0000 0.0000 0.0000 0.0000 6.8732
#
#
#
# Elastic Compliance Matrix: (Units=1/GPa)
#
#
# Indices 1 2 3 4 5 6 
#
# 1 0.012107 -0.002852 0.002265 0.000000 0.000000 0.000000
# 2 -0.002852 0.019379 -0.008291 0.000000 0.000000 0.000000
# 3 0.002265 -0.008291 0.013359 0.000000 0.000000 0.000000
# 4 0.000000 0.000000 0.000000 0.024537 0.000000 0.000000
# 5 0.000000 0.000000 0.000000 0.000000 0.028829 0.000000
# 6 0.000000 0.000000 0.000000 0.000000 0.000000 0.145493
#
#
# Mechanical properties :
#
#
# Convention : Reuss Voigt Hill
#
# Bulk Modulus (GPa) = 36.91615 38.32549 37.62082
# Shear Modulus (GPa) = 18.48493 31.00789 24.74641
#
# Velocity S-wave (km/s) = 2.84462 3.68427 3.29133
# Velocity P-wave (km/s) = 5.19127 5.90555 5.55990
#
# Compressibility (1/GPa) = 0.02708841
#
# Stress axis : x y z
#
# Youngs Moduli (GPa) = 82.59778 51.60287 74.85487
#
# Poissons Ratio (x) = 0.14719 -0.16953
# Poissons Ratio (y) = 0.23560 0.62059
# Poissons Ratio (z) = -0.18706 0.42782
#
# Static dielectric constant tensor:
#      x y z
#    x 1.754080 0.000000 0.000000 
#    y 0.000000 1.833880 0.000000 
#    z 0.000000 0.000000 2.091750 
# 
# From -- ./inp_files/707.got.cif
#   From: 2010.05.17/outbox.cif.g08.bks.cpg/sg20_1_cif.got.tgz:707.got - 2010.06.03 22:52:26.
