data_PCOD9321342
_publ_section_title
;
Structure prediction by ZEFSAII (Michael W. Deem and Ramdas Pophale) SiO2 
 PCOD9321342
Probable space group: C 2 2 21
;
_chemical_formula_sum "Si O2"
_cell_formula_units_Z 56
_cell_length_a 13.815714
_cell_length_b 19.481400
_cell_length_c 9.546282
_cell_angle_alpha 90.000000
_cell_angle_beta 90.000000
_cell_angle_gamma 90.000000
_cell_volume 2569.376557
_symmetry_space_group_name_H-M "C 2 2 21"
_symmetry_group_IT_number 20
_symmetry_cell_setting 'orthorhombic'
loop_
_space_group_symop_operation_xyz
x,y,z
-x,-y,1/2+z
x,-y,-z
-x,y,1/2-z
1/2+x,1/2+y,z
1/2-x,1/2-y,1/2+z
1/2+x,1/2-y,-z
1/2-x,1/2+y,1/2-z
loop_
_atom_site_type_symbol
_atom_site_label
_atom_site_fract_x
_atom_site_fract_y
_atom_site_fract_z
Si Si1 0.086708 0.829863 0.494241
Si Si2 0.442681 0.442346 0.390376
Si Si3 0.826717 0.774916 0.282198
Si Si4 0.019818 0.568362 0.586035
Si Si5 0.745735 0.895036 0.450790
Si Si6 0.670601 0.670344 0.209837
Si Si7 0.953120 0.720453 0.528665
O O1 0.145442 0.822397 0.349985
O O2 0.131716 0.855809 0.640084
O O3 0.990915 0.872953 0.453980
O O4 0.059887 0.751532 0.529600
O O5 0.465972 0.500000 0.500000
O O6 0.500000 0.455841 0.250000
O O7 0.327313 0.438581 0.368301
O O8 0.758475 0.820055 0.382265
O O9 0.769951 0.709635 0.231273
O O10 0.910726 0.743053 0.378376
O O11 0.991304 0.500000 0.500000
O O12 0.135224 0.581194 0.556615
O O13 0.000000 0.556120 0.750000
O O14 0.960884 0.639049 0.550752
O O15 0.798991 0.888881 0.601672
O O16 0.603099 0.730928 0.141540
#
# Coordination Sequence:
#
# PCOD9321342 Si02
#       7
#     8   8   8   8   8   8   8
#     4  12  21  40  67 102 139 172 231 283 352 420
#     4  12  26  45  69 100 142 186 230 288 354 428
#     4  11  21  39  67 103 136 178 227 293 349 406
#     4  12  28  50  72 101 141 192 243 299 364 432
#     4  11  24  46  67  98 144 182 228 290 350 423
#     4  11  23  36  71 106 136 177 230 286 356 419
#     4  11  22  41  68  97 137 178 227 293 348 422
#
# _framework density 21.795171
#
# number of rings (size 3 to 8) (size 9 to 14) (size 15 to 20)
#    0.000    0.571    4.286    6.429    2.000    2.286 
#    0.000    0.714    0.000    0.000    0.000    0.000 
#    0.000    0.000    0.000    0.000    0.000    0.000 
#
# Total GULP energy -156198.111116 kJ/mol
# GULP energy per Si atom -5578.503968 kJ/mol
# Density = 2.174556 g / cm^3
# Si number density = 21.795171 Si / 1000 Ang^3
#
#
#
# Elastic Constant Matrix: (Units=GPa)
#
#
# Indices 1 2 3 4 5 6 
#
# 1 80.1596 15.9876 47.5425 0.0000 0.0000 0.0000
# 2 15.9876 99.8280 36.2833 0.0000 0.0000 0.0000
# 3 47.5425 36.2833 151.9579 0.0000 0.0000 0.0000
# 4 0.0000 0.0000 0.0000 13.0198 0.0000 0.0000
# 5 0.0000 0.0000 0.0000 0.0000 33.4183 0.0000
# 6 0.0000 0.0000 0.0000 0.0000 0.0000 54.6945
#
#
#
# Elastic Compliance Matrix: (Units=1/GPa)
#
#
# Indices 1 2 3 4 5 6 
#
# 1 0.015373 -0.000782 -0.004623 0.000000 0.000000 0.000000
# 2 -0.000782 0.011009 -0.002384 0.000000 0.000000 0.000000
# 3 -0.004623 -0.002384 0.008596 0.000000 0.000000 0.000000
# 4 0.000000 0.000000 0.000000 0.076806 0.000000 0.000000
# 5 0.000000 0.000000 0.000000 0.000000 0.029924 0.000000
# 6 0.000000 0.000000 0.000000 0.000000 0.000000 0.018283
#
#
# Mechanical properties :
#
#
# Convention : Reuss Voigt Hill
#
# Bulk Modulus (GPa) = 51.54459 59.06357 55.30408
# Shear Modulus (GPa) = 27.46710 35.70199 31.58455
#
# Velocity S-wave (km/s) = 3.55383 4.05170 3.81090
# Velocity P-wave (km/s) = 6.36715 7.00332 6.69280
#
# Compressibility (1/GPa) = 0.01940068
#
# Stress axis : x y z
#
# Youngs Moduli (GPa) = 65.04945 90.83534 116.32780
#
# Poissons Ratio (x) = 0.07101 0.53778
# Poissons Ratio (y) = 0.05085 0.27733
# Poissons Ratio (z) = 0.30072 0.21656
#
# Static dielectric constant tensor:
#      x y z
#    x 1.850100 0.000000 0.000000 
#    y 0.000000 1.808460 0.000000 
#    z 0.000000 0.000000 0.708740 
# 
# From -- ./inp_files/8701.got.cif
#   From: 2010.05.17/outbox.cif.g08.bks.cpg/sg20_5_cif.got.tgz:8701.got - 2010.06.03 22:52:26.
