data_PCOD9321830
_publ_section_title
;
Structure prediction by ZEFSAII (Michael W. Deem and Ramdas Pophale) SiO2 
 PCOD9321830
Probable space group: C 2 2 21
;
_chemical_formula_sum "Si O2"
_cell_formula_units_Z 48
_cell_length_a 9.112650
_cell_length_b 27.984485
_cell_length_c 9.085452
_cell_angle_alpha 90.000000
_cell_angle_beta 90.000000
_cell_angle_gamma 90.000000
_cell_volume 2316.906710
_symmetry_space_group_name_H-M "C 2 2 21"
_symmetry_group_IT_number 20
_symmetry_cell_setting 'orthorhombic'
loop_
_space_group_symop_operation_xyz
x,y,z
-x,-y,1/2+z
x,-y,-z
-x,y,1/2-z
1/2+x,1/2+y,z
1/2-x,1/2-y,1/2+z
1/2+x,1/2-y,-z
1/2-x,1/2+y,1/2-z
loop_
_atom_site_type_symbol
_atom_site_label
_atom_site_fract_x
_atom_site_fract_y
_atom_site_fract_z
Si Si1 0.168198 0.287831 0.217249
Si Si2 0.352843 0.644784 0.994910
Si Si3 0.845889 0.485878 0.829363
Si Si4 0.325684 0.121998 0.213535
Si Si5 0.671186 0.694524 0.017115
Si Si6 0.873037 0.038281 0.868715
O O1 0.247719 0.326004 0.113438
O O2 0.264819 0.285347 0.364955
O O3 0.000000 0.301393 0.250000
O O4 0.165096 0.237348 0.133668
O O5 0.510363 0.670929 0.002455
O O6 0.371692 0.591131 0.934469
O O7 0.271996 0.640992 0.151448
O O8 0.778030 0.432806 0.816506
O O9 0.767055 0.525135 0.729414
O O10 0.000000 0.480150 0.750000
O O11 0.854534 0.500000 0.000000
O O12 0.500000 0.124753 0.250000
O O13 0.283643 0.154404 0.075090
O O14 0.000000 0.032979 0.750000
O O15 0.886329 0.000000 0.000000
#
# Coordination Sequence:
#
# PCOD9321830 Si02
#       6
#     8   8   8   8   8   8
#     4  12  26  46  74 105 142 191 240 304 372 441
#     4  12  27  47  73 107 149 189 248 309 371 454
#     4  11  26  45  73 104 149 198 250 308 373 449
#     4  11  25  45  71 104 143 193 241 302 373 441
#     4  12  26  47  73 107 144 190 243 308 371 450
#     4  12  26  45  70 107 147 198 250 307 375 452
#
# _framework density 20.717276999999999
#
# number of rings (size 3 to 8) (size 9 to 14) (size 15 to 20)
#    0.000    0.333    1.667    7.000    9.333    2.000 
#    0.000    0.000    0.000    0.000    0.000    0.000 
#    0.000    0.000    0.000    0.000    0.000    0.000 
#
# Total GULP energy -134338.046094 kJ/mol
# GULP energy per Si atom -5597.418587 kJ/mol
# Density = 2.067012 g / cm^3
# Si number density = 20.717277 Si / 1000 Ang^3
#
#
#
# Elastic Constant Matrix: (Units=GPa)
#
#
# Indices 1 2 3 4 5 6 
#
# 1 183.7624 -63.9377 170.2808 0.0000 0.0000 0.0000
# 2 -63.9377 372.0578 -130.6808 0.0000 0.0000 0.0000
# 3 170.2808 -130.6808 350.6261 0.0000 0.0000 0.0000
# 4 0.0000 0.0000 0.0000 49.1719 0.0000 0.0000
# 5 0.0000 0.0000 0.0000 0.0000 39.5912 0.0000
# 6 0.0000 0.0000 0.0000 0.0000 0.0000 36.3306
#
#
#
# Elastic Compliance Matrix: (Units=1/GPa)
#
#
# Indices 1 2 3 4 5 6 
#
# 1 0.009895 0.000014 -0.004800 0.000000 0.000000 0.000000
# 2 0.000014 0.003093 0.001146 0.000000 0.000000 0.000000
# 3 -0.004800 0.001146 0.005610 0.000000 0.000000 0.000000
# 4 0.000000 0.000000 0.000000 0.020337 0.000000 0.000000
# 5 0.000000 0.000000 0.000000 0.000000 0.025258 0.000000
# 6 0.000000 0.000000 0.000000 0.000000 0.000000 0.027525
#
#
# Mechanical properties :
#
#
# Convention : Reuss Voigt Hill
#
# Bulk Modulus (GPa) = 88.35731 95.30786 91.83259
# Shear Modulus (GPa) = 48.65259 87.07101 67.86180
#
# Velocity S-wave (km/s) = 4.85129 6.48995 5.72951
# Velocity P-wave (km/s) = 8.60940 10.11253 9.39108
#
# Compressibility (1/GPa) = 0.01131768
#
# Stress axis : x y z
#
# Youngs Moduli (GPa) = 101.06513 323.34990 178.25046
#
# Poissons Ratio (x) = -0.00468 0.85559
# Poissons Ratio (y) = -0.00146 -0.20421
# Poissons Ratio (z) = 0.48510 -0.37043
#
# Static dielectric constant tensor:
#      x y z
#    x 1.701830 0.000000 0.000000 
#    y 0.000000 1.731530 0.000000 
#    z 0.000000 0.000000 1.716300 
# 
# From -- ./inp_files/6530.got.cif
#   From: 2010.05.17/outbox.cif.g08.bks.cpg/sg20_4_cif.got.tgz:6530.got - 2010.06.03 22:52:26.
