data_PCOD9321789
_publ_section_title
;
Structure prediction by ZEFSAII (Michael W. Deem and Ramdas Pophale) SiO2 
 PCOD9321789
Probable space group: C 2 2 21
;
_chemical_formula_sum "Si O2"
_cell_formula_units_Z 40
_cell_length_a 7.837493
_cell_length_b 15.132661
_cell_length_c 15.300486
_cell_angle_alpha 90.000000
_cell_angle_beta 90.000000
_cell_angle_gamma 90.000000
_cell_volume 1814.670148
_symmetry_space_group_name_H-M "C 2 2 21"
_symmetry_group_IT_number 20
_symmetry_cell_setting 'orthorhombic'
loop_
_space_group_symop_operation_xyz
x,y,z
-x,-y,1/2+z
x,-y,-z
-x,y,1/2-z
1/2+x,1/2+y,z
1/2-x,1/2-y,1/2+z
1/2+x,1/2-y,-z
1/2-x,1/2+y,1/2-z
loop_
_atom_site_type_symbol
_atom_site_label
_atom_site_fract_x
_atom_site_fract_y
_atom_site_fract_z
Si Si1 0.000000 0.712337 0.750000
Si Si2 0.348032 0.683302 0.821417
Si Si3 0.503838 0.492350 0.142436
Si Si4 0.350643 0.323252 0.905185
Si Si5 0.543639 0.815101 0.548165
Si Si6 0.792683 0.500000 0.000000
O O1 0.158318 0.659111 0.789927
O O2 0.098355 0.775335 0.683675
O O3 0.500000 0.692531 0.750000
O O4 0.410490 0.599974 0.877683
O O5 0.341660 0.775526 0.873228
O O6 0.500000 0.499950 0.250000
O O7 0.411419 0.576773 0.102033
O O8 0.681240 0.488855 0.089122
O O9 0.149765 0.319941 0.920662
O O10 0.441342 0.261438 0.976262
O O11 0.603978 0.909353 0.513178
#
# Coordination Sequence:
#
# PCOD9321789 Si02
#       6
#     4   8   8   8   8   4
#     4  12  24  44  74 106 152 194 248 302 378 448
#     4  11  24  47  74 109 150 198 247 313 377 457
#     4  11  25  48  76 110 153 198 250 316 385 459
#     4  12  25  47  75 109 149 201 246 315 378 454
#     4  12  27  47  77 108 152 198 260 310 384 452
#     4  12  28  48  76 112 152 202 262 322 382 462
#
# _framework density 22.042573000000001
#
# number of rings (size 3 to 8) (size 9 to 14) (size 15 to 20)
#    0.000    0.400    3.000    6.000    2.800    4.000 
#    0.000    0.000    2.200    0.000    0.000    0.000 
#    0.000    0.000    0.000    0.000    0.000    0.000 
#
# Total GULP energy -111813.730803 kJ/mol
# GULP energy per Si atom -5590.686540 kJ/mol
# Density = 2.199240 g / cm^3
# Si number density = 22.042573 Si / 1000 Ang^3
#
#
#
# Elastic Constant Matrix: (Units=GPa)
#
#
# Indices 1 2 3 4 5 6 
#
# 1 149.8987 48.5303 55.0997 0.0000 0.0000 0.0000
# 2 48.5303 157.7304 53.1883 0.0000 0.0000 0.0000
# 3 55.0997 53.1883 107.8941 0.0000 0.0000 0.0000
# 4 0.0000 0.0000 0.0000 -19.1085 0.0000 0.0000
# 5 0.0000 0.0000 0.0000 0.0000 33.1425 0.0000
# 6 0.0000 0.0000 0.0000 0.0000 0.0000 41.0319
#
#
#
# Elastic Compliance Matrix: (Units=1/GPa)
#
#
# Indices 1 2 3 4 5 6 
#
# 1 0.008454 -0.001374 -0.003640 0.000000 0.000000 0.000000
# 2 -0.001374 0.007827 -0.003157 0.000000 0.000000 0.000000
# 3 -0.003640 -0.003157 0.012684 0.000000 0.000000 0.000000
# 4 0.000000 0.000000 0.000000 -0.052333 0.000000 0.000000
# 5 0.000000 0.000000 0.000000 0.000000 0.030173 0.000000
# 6 0.000000 0.000000 0.000000 0.000000 0.000000 0.024371
#
#
# Mechanical properties :
#
#
# Convention : Reuss Voigt Hill
#
# Bulk Modulus (GPa) = 79.21973 81.01775 80.11874
# Shear Modulus (GPa) = 96.66446 28.26016 62.46231
#
# Velocity S-wave (km/s) = 6.62938 3.58449 5.32904
# Velocity P-wave (km/s) = 9.72706 7.34618 8.61922
#
# Compressibility (1/GPa) = 0.01262312
#
# Stress axis : x y z
#
# Youngs Moduli (GPa) = 118.28840 127.76038 78.84180
#
# Poissons Ratio (x) = 0.17549 0.28699
# Poissons Ratio (y) = 0.16248 0.24891
# Poissons Ratio (z) = 0.43058 0.40335
#
# Static dielectric constant tensor:
#      x y z
#    x 2.075810 0.000000 0.000000 
#    y 0.000000 1.762070 0.000000 
#    z 0.000000 0.000000 1.966360 
# 
# From -- ./inp_files/18577.got.cif
#   From: 2010.05.17/outbox.cif.g08.bks.cpg/sg20_10_cif.got.tgz:18577.got - 2010.06.03 22:52:26.
