data_PCOD9321266
_publ_section_title
;
Structure prediction by ZEFSAII (Michael W. Deem and Ramdas Pophale) SiO2 
 PCOD9321266
Probable space group: C 2 2 21
;
_chemical_formula_sum "Si O2"
_cell_formula_units_Z 48
_cell_length_a 14.443886
_cell_length_b 24.208993
_cell_length_c 6.326571
_cell_angle_alpha 90.000000
_cell_angle_beta 90.000000
_cell_angle_gamma 90.000000
_cell_volume 2212.224324
_symmetry_space_group_name_H-M "C 2 2 21"
_symmetry_group_IT_number 20
_symmetry_cell_setting 'orthorhombic'
loop_
_space_group_symop_operation_xyz
x,y,z
-x,-y,1/2+z
x,-y,-z
-x,y,1/2-z
1/2+x,1/2+y,z
1/2-x,1/2-y,1/2+z
1/2+x,1/2-y,-z
1/2-x,1/2+y,1/2-z
loop_
_atom_site_type_symbol
_atom_site_label
_atom_site_fract_x
_atom_site_fract_y
_atom_site_fract_z
Si Si1 0.273590 0.108124 0.510984
Si Si2 0.104188 0.136185 0.270721
Si Si3 0.912617 0.362924 0.859229
Si Si4 0.203674 0.186560 0.881618
Si Si5 0.381296 0.747464 0.962264
Si Si6 0.606684 0.043178 0.683181
O O1 0.172638 0.098313 0.409279
O O2 0.334490 0.135169 0.321913
O O3 0.251918 0.153263 0.691441
O O4 0.327992 0.056697 0.615584
O O5 0.097862 0.197371 0.380558
O O6 0.000000 0.115260 0.250000
O O7 0.155844 0.146749 0.049676
O O8 0.000000 0.390484 0.750000
O O9 0.940590 0.302931 0.948130
O O10 0.888860 0.399379 0.057952
O O11 0.279926 0.226629 0.984261
O O12 0.124387 0.222313 0.770992
O O13 0.500000 0.031905 0.750000
O O14 0.636070 0.000000 0.500000
#
# Coordination Sequence:
#
# PCOD9321266 Si02
#       6
#     8   8   8   8   8   8
#     4  11  23  42  64  89 136 180 223 286 346 408
#     4  11  25  39  60  93 138 186 245 285 339 408
#     4  12  24  39  61  95 137 182 226 275 346 416
#     4  11  20  38  58  87 131 180 230 282 330 401
#     4  11  21  33  58  86 130 180 233 280 329 398
#     4  12  26  44  68 100 139 174 226 286 359 436
#
# _framework density 21.697617999999999
#
# number of rings (size 3 to 8) (size 9 to 14) (size 15 to 20)
#    0.000    0.667    6.667    1.500    2.333    2.667 
#    0.000    0.000    0.000    0.000    0.000    0.000 
#   70.000    0.000    0.000    0.000    0.000    0.000 
#
# Total GULP energy -133984.625801 kJ/mol
# GULP energy per Si atom -5582.692742 kJ/mol
# Density = 2.164823 g / cm^3
# Si number density = 21.697618 Si / 1000 Ang^3
#
#
#
# Elastic Constant Matrix: (Units=GPa)
#
#
# Indices 1 2 3 4 5 6 
#
# 1 121.4258 10.3568 32.5758 0.0000 0.0000 0.0000
# 2 10.3568 58.6253 11.6670 0.0000 0.0000 0.0000
# 3 32.5758 11.6670 71.2848 0.0000 0.0000 0.0000
# 4 0.0000 0.0000 0.0000 32.6872 0.0000 0.0000
# 5 0.0000 0.0000 0.0000 0.0000 39.9667 0.0000
# 6 0.0000 0.0000 0.0000 0.0000 0.0000 8.8575
#
#
#
# Elastic Compliance Matrix: (Units=1/GPa)
#
#
# Indices 1 2 3 4 5 6 
#
# 1 0.009426 -0.000835 -0.004171 0.000000 0.000000 0.000000
# 2 -0.000835 0.017706 -0.002516 0.000000 0.000000 0.000000
# 3 -0.004171 -0.002516 0.016346 0.000000 0.000000 0.000000
# 4 0.000000 0.000000 0.000000 0.030593 0.000000 0.000000
# 5 0.000000 0.000000 0.000000 0.000000 0.025021 0.000000
# 6 0.000000 0.000000 0.000000 0.000000 0.000000 0.112899
#
#
# Mechanical properties :
#
#
# Convention : Reuss Voigt Hill
#
# Bulk Modulus (GPa) = 35.16995 40.05944 37.61469
# Shear Modulus (GPa) = 21.14061 29.41805 25.27933
#
# Velocity S-wave (km/s) = 3.12481 3.68614 3.41702
# Velocity P-wave (km/s) = 5.40958 6.05141 5.73947
#
# Compressibility (1/GPa) = 0.02843337
#
# Stress axis : x y z
#
# Youngs Moduli (GPa) = 106.09409 56.47874 61.17722
#
# Poissons Ratio (x) = 0.04717 0.25515
# Poissons Ratio (y) = 0.08860 0.15394
# Poissons Ratio (z) = 0.44248 0.14211
#
# Static dielectric constant tensor:
#      x y z
#    x 1.838120 0.000000 0.000000 
#    y 0.000000 1.789660 0.000000 
#    z 0.000000 0.000000 1.850240 
# 
# From -- ./inp_files/2016.got.cif
#   From: 2010.05.17/outbox.cif.g08.bks.cpg/sg20_2_cif.got.tgz:2016.got - 2010.06.03 22:52:26.
