data_PCOD9321166
_publ_section_title
;
Structure prediction by ZEFSAII (Michael W. Deem and Ramdas Pophale) SiO2 
 PCOD9321166
Probable space group: C 2 2 21
;
_chemical_formula_sum "Si O2"
_cell_formula_units_Z 40
_cell_length_a 17.370443
_cell_length_b 10.109698
_cell_length_c 9.759407
_cell_angle_alpha 90.000000
_cell_angle_beta 90.000000
_cell_angle_gamma 90.000000
_cell_volume 1713.848808
_symmetry_space_group_name_H-M "C 2 2 21"
_symmetry_group_IT_number 20
_symmetry_cell_setting 'orthorhombic'
loop_
_space_group_symop_operation_xyz
x,y,z
-x,-y,1/2+z
x,-y,-z
-x,y,1/2-z
1/2+x,1/2+y,z
1/2-x,1/2-y,1/2+z
1/2+x,1/2-y,-z
1/2-x,1/2+y,1/2-z
loop_
_atom_site_type_symbol
_atom_site_label
_atom_site_fract_x
_atom_site_fract_y
_atom_site_fract_z
Si Si1 0.392437 0.821104 0.632603
Si Si2 0.300209 0.500000 0.500000
Si Si3 0.585027 0.876906 0.191734
Si Si4 0.274400 0.242207 0.867962
Si Si5 0.840326 0.000000 0.000000
Si Si6 0.578636 0.454387 0.226730
O O1 0.398785 0.842388 0.468178
O O2 0.309527 0.775211 0.693855
O O3 0.439896 0.687398 0.659213
O O4 0.411301 0.962200 0.698718
O O5 0.247454 0.374331 0.472806
O O6 0.357221 0.481067 0.629145
O O7 0.500000 0.840761 0.250000
O O8 0.655034 0.810262 0.276760
O O9 0.293167 0.379559 0.939399
O O10 0.888820 0.940338 0.122630
O O11 0.500000 0.533149 0.250000
#
# Coordination Sequence:
#
# PCOD9321166 Si02
#       6
#     8   4   8   8   4   8
#     4  10  26  46  77 114 159 203 260 331 393 477
#     4  10  27  46  80 107 152 212 262 316 393 468
#     4  11  26  49  82 116 156 206 272 324 398 466
#     4  11  28  46  77 108 157 199 265 317 394 469
#     4  12  29  42  74 107 150 204 258 318 391 458
#     4  11  26  47  73 109 159 201 260 324 395 460
#
# _framework density 23.339281
#
# number of rings (size 3 to 8) (size 9 to 14) (size 15 to 20)
#    0.000    1.200    0.000    2.400   22.400    2.400 
#    0.000    0.000    0.000    0.000    0.000    0.000 
#    0.000    0.000    0.000    0.000    0.000    0.000 
#
# Total GULP energy -111743.998485 kJ/mol
# GULP energy per Si atom -5587.199924 kJ/mol
# Density = 2.328616 g / cm^3
# Si number density = 23.339281 Si / 1000 Ang^3
#
#
#
# Elastic Constant Matrix: (Units=GPa)
#
#
# Indices 1 2 3 4 5 6 
#
# 1 152.3670 40.7022 54.6143 0.0000 0.0000 0.0000
# 2 40.7022 182.1022 38.3338 0.0000 0.0000 0.0000
# 3 54.6143 38.3338 104.5634 0.0000 0.0000 0.0000
# 4 0.0000 0.0000 0.0000 37.6838 0.0000 0.0000
# 5 0.0000 0.0000 0.0000 0.0000 19.3612 0.0000
# 6 0.0000 0.0000 0.0000 0.0000 0.0000 -5.0740
#
#
#
# Elastic Compliance Matrix: (Units=1/GPa)
#
#
# Indices 1 2 3 4 5 6 
#
# 1 0.008244 -0.001015 -0.003934 0.000000 0.000000 0.000000
# 2 -0.001015 0.006076 -0.001697 0.000000 0.000000 0.000000
# 3 -0.003934 -0.001697 0.012241 0.000000 0.000000 0.000000
# 4 0.000000 0.000000 0.000000 0.026537 0.000000 0.000000
# 5 0.000000 0.000000 0.000000 0.000000 0.051650 0.000000
# 6 0.000000 0.000000 0.000000 0.000000 0.000000 -0.197084
#
#
# Mechanical properties :
#
#
# Convention : Reuss Voigt Hill
#
# Bulk Modulus (GPa) = 75.36759 78.48145 76.92452
# Shear Modulus (GPa) = -67.00358 30.75304 -18.12527
#
# Velocity S-wave (km/s) = -5.36384 3.63389 -2.78978
# Velocity P-wave (km/s) = 2.44925 7.16283 4.75959
#
# Compressibility (1/GPa) = 0.01326830
#
# Stress axis : x y z
#
# Youngs Moduli (GPa) = 121.29664 164.59538 81.69489
#
# Poissons Ratio (x) = 0.16699 0.32140
# Poissons Ratio (y) = 0.12306 0.13867
# Poissons Ratio (z) = 0.47719 0.27939
#
# Static dielectric constant tensor:
#      x y z
#    x 0.934970 0.000000 0.000000 
#    y 0.000000 1.906360 0.000000 
#    z 0.000000 0.000000 2.084800 
# 
# From -- ./inp_files/9159.got.cif
#   From: 2010.05.17/outbox.cif.g08.bks.cpg/sg20_5_cif.got.tgz:9159.got - 2010.06.03 22:52:26.
