data_PCOD9321889
_publ_section_title
;
Structure prediction by ZEFSAII (Michael W. Deem and Ramdas Pophale) SiO2 
 PCOD9321889
Probable space group: C 2 2 21
;
_chemical_formula_sum "Si O2"
_cell_formula_units_Z 32
_cell_length_a 9.479329
_cell_length_b 14.051236
_cell_length_c 9.721906
_cell_angle_alpha 90.000000
_cell_angle_beta 90.000000
_cell_angle_gamma 90.000000
_cell_volume 1294.921800
_symmetry_space_group_name_H-M "C 2 2 21"
_symmetry_group_IT_number 20
_symmetry_cell_setting 'orthorhombic'
loop_
_space_group_symop_operation_xyz
x,y,z
-x,-y,1/2+z
x,-y,-z
-x,y,1/2-z
1/2+x,1/2+y,z
1/2-x,1/2-y,1/2+z
1/2+x,1/2-y,-z
1/2-x,1/2+y,1/2-z
loop_
_atom_site_type_symbol
_atom_site_label
_atom_site_fract_x
_atom_site_fract_y
_atom_site_fract_z
Si Si1 0.668610 0.858178 0.235069
Si Si2 0.192284 0.247077 0.976907
Si Si3 0.834360 0.573587 0.276676
Si Si4 0.929032 0.912486 0.599305
O O1 0.500000 0.848368 0.250000
O O2 0.729048 0.829275 0.382119
O O3 0.699642 0.964673 0.183280
O O4 0.735934 0.786695 0.125268
O O5 0.188544 0.342685 0.885731
O O6 0.050484 0.187248 0.019170
O O7 0.736140 0.585697 0.142893
O O8 0.000000 0.575455 0.250000
O O9 0.000000 0.915050 0.750000
O O10 0.965072 0.000000 0.500000
#
# Coordination Sequence:
#
# PCOD9321889 Si02
#       4
#     8   8   8   8
#     4  11  26  48  76 113 158 204 266 328 393 473
#     4  12  25  46  77 113 153 202 263 323 393 469
#     4  11  27  48  80 114 152 205 265 328 391 463
#     4  12  28  51  77 116 166 211 264 326 402 478
#
# _framework density 24.711917
#
# number of rings (size 3 to 8) (size 9 to 14) (size 15 to 20)
#    0.000    0.500    5.000    1.500    3.500    3.000 
#    0.000    0.000    0.000    0.000    0.000    0.000 
#    0.000    0.000    0.000    0.000    0.000    0.000 
#
# Total GULP energy -89367.992514 kJ/mol
# GULP energy per Si atom -5585.499532 kJ/mol
# Density = 2.465567 g / cm^3
# Si number density = 24.711917 Si / 1000 Ang^3
#
#
#
# Elastic Constant Matrix: (Units=GPa)
#
#
# Indices 1 2 3 4 5 6 
#
# 1 67.3360 22.1712 44.9701 0.0000 0.0000 0.0000
# 2 22.1712 171.5733 90.6008 0.0000 0.0000 0.0000
# 3 44.9701 90.6008 195.8870 0.0000 0.0000 0.0000
# 4 0.0000 0.0000 0.0000 55.9161 0.0000 0.0000
# 5 0.0000 0.0000 0.0000 0.0000 27.3879 0.0000
# 6 0.0000 0.0000 0.0000 0.0000 0.0000 25.6184
#
#
#
# Elastic Compliance Matrix: (Units=1/GPa)
#
#
# Indices 1 2 3 4 5 6 
#
# 1 0.017545 -0.000186 -0.003942 0.000000 0.000000 0.000000
# 2 -0.000186 0.007714 -0.003525 0.000000 0.000000 0.000000
# 3 -0.003942 -0.003525 0.007640 0.000000 0.000000 0.000000
# 4 0.000000 0.000000 0.000000 0.017884 0.000000 0.000000
# 5 0.000000 0.000000 0.000000 0.000000 0.036512 0.000000
# 6 0.000000 0.000000 0.000000 0.000000 0.000000 0.039034
#
#
# Mechanical properties :
#
#
# Convention : Reuss Voigt Hill
#
# Bulk Modulus (GPa) = 56.83921 83.36450 70.10185
# Shear Modulus (GPa) = 33.89840 40.25476 37.07658
#
# Velocity S-wave (km/s) = 3.70772 4.04042 3.87764
# Velocity P-wave (km/s) = 6.43275 7.45482 6.96257
#
# Compressibility (1/GPa) = 0.01759349
#
# Stress axis : x y z
#
# Youngs Moduli (GPa) = 56.99768 129.63598 130.88338
#
# Poissons Ratio (x) = 0.02406 0.51593
# Poissons Ratio (y) = 0.01058 0.46139
# Poissons Ratio (z) = 0.22468 0.45699
#
# Static dielectric constant tensor:
#      x y z
#    x 2.029470 0.000000 0.000000 
#    y 0.000000 2.072370 0.000000 
#    z 0.000000 0.000000 1.932880 
# 
# From -- ./inp_files/6768.got.cif
#   From: 2010.05.17/outbox.cif.g08.bks.cpg/sg20_4_cif.got.tgz:6768.got - 2010.06.03 22:52:26.
