data_PCOD9321699
_publ_section_title
;
Structure prediction by ZEFSAII (Michael W. Deem and Ramdas Pophale) SiO2 
 PCOD9321699
Probable space group: C 2 2 21
;
_chemical_formula_sum "Si O2"
_cell_formula_units_Z 48
_cell_length_a 14.757217
_cell_length_b 27.807637
_cell_length_c 5.230741
_cell_angle_alpha 90.000000
_cell_angle_beta 90.000000
_cell_angle_gamma 90.000000
_cell_volume 2146.504313
_symmetry_space_group_name_H-M "C 2 2 21"
_symmetry_group_IT_number 20
_symmetry_cell_setting 'orthorhombic'
loop_
_space_group_symop_operation_xyz
x,y,z
-x,-y,1/2+z
x,-y,-z
-x,y,1/2-z
1/2+x,1/2+y,z
1/2-x,1/2-y,1/2+z
1/2+x,1/2-y,-z
1/2-x,1/2+y,1/2-z
loop_
_atom_site_type_symbol
_atom_site_label
_atom_site_fract_x
_atom_site_fract_y
_atom_site_fract_z
Si Si1 0.555353 0.500000 0.000000
Si Si2 0.649273 0.344175 0.648383
Si Si3 0.500000 0.734741 0.250000
Si Si4 0.000000 0.297392 0.750000
Si Si5 0.350267 0.861489 0.614792
Si Si6 0.338456 0.943491 0.993427
Si Si7 0.500000 0.899408 0.250000
Si Si8 0.158426 0.904724 0.165080
O O1 0.500000 0.516022 0.250000
O O2 0.612213 0.454845 0.097869
O O3 0.584090 0.298829 0.666301
O O4 0.755015 0.334736 0.579409
O O5 0.621032 0.380924 0.422733
O O6 0.645837 0.369331 0.925245
O O7 0.477551 0.765760 0.501332
O O8 0.087726 0.330533 0.690007
O O9 0.326761 0.914073 0.730375
O O10 0.423499 0.868845 0.392542
O O11 0.441811 0.933507 0.066711
O O12 0.265443 0.917363 0.177576
O O13 0.320169 0.000000 0.000000
#
# Coordination Sequence:
#
# PCOD9321699 Si02
#       8
#     4   8   4   4   8   8   4   8
#     4  12  26  42  68 108 138 204 248 306 370 428
#     4  11  26  47  73 104 141 196 237 306 377 431
#     4  12  29  48  76 107 133 184 252 316 367 448
#     4  12  26  47  76 107 143 176 242 313 374 446
#     4  11  25  44  72 102 149 192 231 300 379 440
#     4  11  24  41  66 107 147 196 238 286 348 447
#     4  12  21  41  66 104 142 200 234 287 359 432
#     4  11  24  46  69 101 153 185 244 299 355 443
#
# _framework density 22.361941999999999
#
# number of rings (size 3 to 8) (size 9 to 14) (size 15 to 20)
#    0.000    0.667    4.167    2.500    5.833    1.333 
#    0.000    0.000    0.000    0.000    0.000    0.000 
#    0.000    0.000    0.000    0.000    0.000    0.000 
#
# Total GULP energy -134140.561700 kJ/mol
# GULP energy per Si atom -5589.190071 kJ/mol
# Density = 2.231105 g / cm^3
# Si number density = 22.361942 Si / 1000 Ang^3
#
#
#
# Elastic Constant Matrix: (Units=GPa)
#
#
# Indices 1 2 3 4 5 6 
#
# 1 93.7889 39.8137 29.5351 0.0000 0.0000 0.0000
# 2 39.8137 113.6519 36.3174 0.0000 0.0000 0.0000
# 3 29.5351 36.3174 114.2311 0.0000 0.0000 0.0000
# 4 0.0000 0.0000 0.0000 38.7319 0.0000 0.0000
# 5 0.0000 0.0000 0.0000 0.0000 28.0695 0.0000
# 6 0.0000 0.0000 0.0000 0.0000 0.0000 15.8461
#
#
#
# Elastic Compliance Matrix: (Units=1/GPa)
#
#
# Indices 1 2 3 4 5 6 
#
# 1 0.012972 -0.003865 -0.002125 0.000000 0.000000 0.000000
# 2 -0.003865 0.010945 -0.002481 0.000000 0.000000 0.000000
# 3 -0.002125 -0.002481 0.010092 0.000000 0.000000 0.000000
# 4 0.000000 0.000000 0.000000 0.025819 0.000000 0.000000
# 5 0.000000 0.000000 0.000000 0.000000 0.035626 0.000000
# 6 0.000000 0.000000 0.000000 0.000000 0.000000 0.063107
#
#
# Mechanical properties :
#
#
# Convention : Reuss Voigt Hill
#
# Bulk Modulus (GPa) = 58.58854 59.22269 58.90561
# Shear Modulus (GPa) = 27.59489 30.92987 29.26238
#
# Velocity S-wave (km/s) = 3.51666 3.72310 3.62135
# Velocity P-wave (km/s) = 6.53806 6.70993 6.62455
#
# Compressibility (1/GPa) = 0.01706819
#
# Stress axis : x y z
#
# Youngs Moduli (GPa) = 77.08731 91.36187 99.08559
#
# Poissons Ratio (x) = 0.35314 0.21057
# Poissons Ratio (y) = 0.29796 0.24578
# Poissons Ratio (z) = 0.16382 0.22662
#
# Static dielectric constant tensor:
#      x y z
#    x 1.863020 0.000000 0.000000 
#    y 0.000000 1.823910 0.000000 
#    z 0.000000 0.000000 1.858920 
# 
# From -- ./inp_files/2114.got.cif
#   From: 2010.05.17/outbox.cif.g08.bks.cpg/sg20_2_cif.got.tgz:2114.got - 2010.06.03 22:52:26.
