data_PCOD9321796
_publ_section_title
;
Structure prediction by ZEFSAII (Michael W. Deem and Ramdas Pophale) SiO2 
 PCOD9321796
Probable space group: C 2 2 21
;
_chemical_formula_sum "Si O2"
_cell_formula_units_Z 32
_cell_length_a 22.847611
_cell_length_b 4.910585
_cell_length_c 11.386286
_cell_angle_alpha 90.000000
_cell_angle_beta 90.000000
_cell_angle_gamma 90.000000
_cell_volume 1277.485905
_symmetry_space_group_name_H-M "C 2 2 21"
_symmetry_group_IT_number 20
_symmetry_cell_setting 'orthorhombic'
loop_
_space_group_symop_operation_xyz
x,y,z
-x,-y,1/2+z
x,-y,-z
-x,y,1/2-z
1/2+x,1/2+y,z
1/2-x,1/2-y,1/2+z
1/2+x,1/2-y,-z
1/2-x,1/2+y,1/2-z
loop_
_atom_site_type_symbol
_atom_site_label
_atom_site_fract_x
_atom_site_fract_y
_atom_site_fract_z
Si Si1 0.358093 0.500000 0.000000
Si Si2 0.025280 0.867882 0.132702
Si Si3 0.057799 0.500000 0.500000
Si Si4 0.644675 0.236234 0.076290
Si Si5 0.244908 0.918183 0.320771
O O1 0.399648 0.249524 0.965720
O O2 0.313185 0.411938 0.102189
O O3 0.093186 0.816145 0.164029
O O4 0.000000 0.007620 0.250000
O O5 0.983398 0.609902 0.104988
O O6 0.026248 0.000000 0.000000
O O7 0.701631 0.083055 0.122073
O O8 0.659170 0.500000 0.000000
O O9 0.613912 0.000000 0.000000
O O10 0.234234 0.116929 0.210353
#
# Coordination Sequence:
#
# PCOD9321796 Si02
#       5
#     4   8   4   8   8
#     4  12  28  47  74 111 158 196 256 310 394 466
#     4  11  27  51  81 116 157 209 263 329 392 467
#     4  12  26  51  72 113 154 212 250 330 386 472
#     4  11  24  48  74 106 146 198 255 317 383 462
#     4  12  27  46  75 110 148 201 251 315 383 461
#
# _framework density 25.049198000000001
#
# number of rings (size 3 to 8) (size 9 to 14) (size 15 to 20)
#    0.000    0.500    3.750    3.000    8.750    1.000 
#    0.000    0.000    0.000    0.000    0.000    0.000 
#    0.000    0.000    0.000    0.000    0.000    0.000 
#
# Total GULP energy -89434.881271 kJ/mol
# GULP energy per Si atom -5589.680079 kJ/mol
# Density = 2.499219 g / cm^3
# Si number density = 25.049198 Si / 1000 Ang^3
#
#
#
# Elastic Constant Matrix: (Units=GPa)
#
#
# Indices 1 2 3 4 5 6 
#
# 1 148.8585 -2.5926 39.0746 0.0000 0.0000 0.0000
# 2 -2.5926 93.8759 21.0421 0.0000 0.0000 0.0000
# 3 39.0746 21.0421 90.1210 0.0000 0.0000 0.0000
# 4 0.0000 0.0000 0.0000 36.5856 0.0000 0.0000
# 5 0.0000 0.0000 0.0000 0.0000 27.1033 0.0000
# 6 0.0000 0.0000 0.0000 0.0000 0.0000 58.5050
#
#
#
# Elastic Compliance Matrix: (Units=1/GPa)
#
#
# Indices 1 2 3 4 5 6 
#
# 1 0.007670 0.001010 -0.003562 0.000000 0.000000 0.000000
# 2 0.001010 0.011374 -0.003094 0.000000 0.000000 0.000000
# 3 -0.003562 -0.003094 0.013363 0.000000 0.000000 0.000000
# 4 0.000000 0.000000 0.000000 0.027333 0.000000 0.000000
# 5 0.000000 0.000000 0.000000 0.000000 0.036896 0.000000
# 6 0.000000 0.000000 0.000000 0.000000 0.000000 0.017093
#
#
# Mechanical properties :
#
#
# Convention : Reuss Voigt Hill
#
# Bulk Modulus (GPa) = 47.35583 49.76705 48.56144
# Shear Modulus (GPa) = 37.86240 42.79420 40.32830
#
# Velocity S-wave (km/s) = 3.89205 4.13777 4.01679
# Velocity P-wave (km/s) = 6.25648 6.53751 6.39854
#
# Compressibility (1/GPa) = 0.02111672
#
# Stress axis : x y z
#
# Youngs Moduli (GPa) = 130.37363 87.92226 74.83511
#
# Poissons Ratio (x) = -0.08881 0.26653
# Poissons Ratio (y) = -0.13170 0.23151
# Poissons Ratio (z) = 0.46433 0.27200
#
# Static dielectric constant tensor:
#      x y z
#    x 1.958280 0.000000 0.000000 
#    y 0.000000 1.989660 0.000000 
#    z 0.000000 0.000000 2.066990 
# 
# From -- ./inp_files/16086.got.cif
#   From: 2010.05.17/outbox.cif.g08.bks.cpg/sg20_9_cif.got.tgz:16086.got - 2010.06.03 22:52:26.
