data_PCOD9321888
_publ_section_title
;
Structure prediction by ZEFSAII (Michael W. Deem and Ramdas Pophale) SiO2 
 PCOD9321888
Probable space group: C 2 2 21
;
_chemical_formula_sum "Si O2"
_cell_formula_units_Z 24
_cell_length_a 17.785887
_cell_length_b 5.026502
_cell_length_c 10.445670
_cell_angle_alpha 90.000000
_cell_angle_beta 90.000000
_cell_angle_gamma 90.000000
_cell_volume 933.851219
_symmetry_space_group_name_H-M "C 2 2 21"
_symmetry_group_IT_number 20
_symmetry_cell_setting 'orthorhombic'
loop_
_space_group_symop_operation_xyz
x,y,z
-x,-y,1/2+z
x,-y,-z
-x,y,1/2-z
1/2+x,1/2+y,z
1/2-x,1/2-y,1/2+z
1/2+x,1/2-y,-z
1/2-x,1/2+y,1/2-z
loop_
_atom_site_type_symbol
_atom_site_label
_atom_site_fract_x
_atom_site_fract_y
_atom_site_fract_z
Si Si1 0.385844 0.222547 0.349087
Si Si2 0.977531 0.500000 0.000000
Si Si3 0.634491 0.287385 0.678368
Si Si4 0.735641 0.000000 0.000000
O O1 0.394401 0.500154 0.279358
O O2 0.466684 0.130170 0.398080
O O3 0.354071 0.993744 0.252053
O O4 0.326865 0.224812 0.466963
O O5 0.924263 0.287655 0.068358
O O6 0.706187 0.430564 0.613991
#
# Coordination Sequence:
#
# PCOD9321888 Si02
#       4
#     8   4   8   4
#     4  11  28  49  73 108 152 198 250 312 378 450
#     4  11  28  48  76 113 156 202 254 315 382 456
#     4  12  26  46  75 110 147 197 253 310 376 450
#     4  11  26  48  76 107 146 194 250 309 374 446
#
# _framework density 25.700026999999999
#
# number of rings (size 3 to 8) (size 9 to 14) (size 15 to 20)
#    0.000    0.667    0.000    5.000    0.000   24.000 
#    0.000    0.000    0.000    0.000    0.000    0.000 
#    0.000    0.000    0.000    0.000    0.000    0.000 
#
# Total GULP energy -67120.672912 kJ/mol
# GULP energy per Si atom -5593.389409 kJ/mol
# Density = 2.564153 g / cm^3
# Si number density = 25.700027 Si / 1000 Ang^3
#
#
#
# Elastic Constant Matrix: (Units=GPa)
#
#
# Indices 1 2 3 4 5 6 
#
# 1 170.7299 47.4456 67.5763 0.0000 0.0000 0.0000
# 2 47.4456 171.0525 64.8901 0.0000 0.0000 0.0000
# 3 67.5763 64.8901 100.8785 0.0000 0.0000 0.0000
# 4 0.0000 0.0000 0.0000 69.6040 0.0000 0.0000
# 5 0.0000 0.0000 0.0000 0.0000 18.9587 0.0000
# 6 0.0000 0.0000 0.0000 0.0000 0.0000 -48.4545
#
#
#
# Elastic Compliance Matrix: (Units=1/GPa)
#
#
# Indices 1 2 3 4 5 6 
#
# 1 0.007978 -0.000245 -0.005187 0.000000 0.000000 0.000000
# 2 -0.000245 0.007741 -0.004815 0.000000 0.000000 0.000000
# 3 -0.005187 -0.004815 0.016485 0.000000 0.000000 0.000000
# 4 0.000000 0.000000 0.000000 0.014367 0.000000 0.000000
# 5 0.000000 0.000000 0.000000 0.000000 0.052746 0.000000
# 6 0.000000 0.000000 0.000000 0.000000 0.000000 -0.020638
#
#
# Mechanical properties :
#
#
# Convention : Reuss Voigt Hill
#
# Bulk Modulus (GPa) = 85.39875 89.16498 87.28187
# Shear Modulus (GPa) = 48.50787 25.53824 37.02306
#
# Velocity S-wave (km/s) = 4.34921 3.15573 3.79962
# Velocity P-wave (km/s) = 7.64997 6.93167 7.29966
#
# Compressibility (1/GPa) = 0.01170977
#
# Stress axis : x y z
#
# Youngs Moduli (GPa) = 125.33970 129.18584 60.66297
#
# Poissons Ratio (x) = 0.03170 0.31464
# Poissons Ratio (y) = 0.03076 0.29209
# Poissons Ratio (z) = 0.65009 0.62202
#
# Static dielectric constant tensor:
#      x y z
#    x 1.967410 0.000000 0.000000 
#    y 0.000000 1.975140 0.000000 
#    z 0.000000 0.000000 2.140420 
# 
# From -- ./inp_files/11791.got.cif
#   From: 2010.05.17/outbox.cif.g08.bks.cpg/sg20_6_cif.got.tgz:11791.got - 2010.06.03 22:52:26.
