data_PCOD9321709
_publ_section_title
;
Structure prediction by ZEFSAII (Michael W. Deem and Ramdas Pophale) SiO2 
 PCOD9321709
Probable space group: C 2 2 21
;
_chemical_formula_sum "Si O2"
_cell_formula_units_Z 48
_cell_length_a 9.173985
_cell_length_b 9.819902
_cell_length_c 25.540343
_cell_angle_alpha 90.000000
_cell_angle_beta 90.000000
_cell_angle_gamma 90.000000
_cell_volume 2300.869063
_symmetry_space_group_name_H-M "C 2 2 21"
_symmetry_group_IT_number 20
_symmetry_cell_setting 'orthorhombic'
loop_
_space_group_symop_operation_xyz
x,y,z
-x,-y,1/2+z
x,-y,-z
-x,y,1/2-z
1/2+x,1/2+y,z
1/2-x,1/2-y,1/2+z
1/2+x,1/2-y,-z
1/2-x,1/2+y,1/2-z
loop_
_atom_site_type_symbol
_atom_site_label
_atom_site_fract_x
_atom_site_fract_y
_atom_site_fract_z
Si Si1 0.666817 0.145349 0.267395
Si Si2 0.165758 0.507753 0.380266
Si Si3 0.333474 0.255922 0.038903
Si Si4 0.500920 0.786875 0.063854
Si Si5 0.362819 0.443957 0.210819
Si Si6 0.505456 0.474832 0.098536
O O1 0.500000 0.152530 0.250000
O O2 0.674320 0.059821 0.320948
O O3 0.715471 0.300235 0.277689
O O4 0.759393 0.069828 0.223438
O O5 0.144694 0.638316 0.417784
O O6 0.040845 0.398650 0.392922
O O7 0.323687 0.445260 0.394021
O O8 0.435725 0.382767 0.053611
O O9 0.164983 0.300901 0.041917
O O10 0.385391 0.199624 0.983238
O O11 0.490685 0.634500 0.086354
O O12 0.500000 0.456297 0.250000
O O13 0.421560 0.442389 0.152097
#
# Coordination Sequence:
#
# PCOD9321709 Si02
#       6
#     8   8   8   8   8   8
#     4  11  26  41  66  98 129 168 218 262 323 386
#     4  11  24  44  65  96 132 170 212 272 322 383
#     4  11  24  46  64  97 131 169 222 269 325 389
#     4  11  26  41  69  96 127 174 215 271 327 386
#     4  11  24  45  66  95 132 172 210 269 322 386
#     4  11  24  42  68  94 131 168 217 263 327 385
#
# _framework density 20.861682999999999
#
# number of rings (size 3 to 8) (size 9 to 14) (size 15 to 20)
#    0.000    1.000    3.333    2.000    4.667    7.333 
#    0.000    0.000    0.000    0.000    0.000    0.000 
#    0.000    0.000    0.000    0.000    0.000    0.000 
#
# Total GULP energy -134307.535706 kJ/mol
# GULP energy per Si atom -5596.147321 kJ/mol
# Density = 2.081420 g / cm^3
# Si number density = 20.861683 Si / 1000 Ang^3
#
#
#
# Elastic Constant Matrix: (Units=GPa)
#
#
# Indices 1 2 3 4 5 6 
#
# 1 64.4958 31.1484 -16.4620 0.0000 0.0000 0.0000
# 2 31.1484 57.5327 -13.4966 0.0000 0.0000 0.0000
# 3 -16.4620 -13.4966 37.8236 0.0000 0.0000 0.0000
# 4 0.0000 0.0000 0.0000 33.7390 0.0000 0.0000
# 5 0.0000 0.0000 0.0000 0.0000 34.3278 0.0000
# 6 0.0000 0.0000 0.0000 0.0000 0.0000 17.6538
#
#
#
# Elastic Compliance Matrix: (Units=1/GPa)
#
#
# Indices 1 2 3 4 5 6 
#
# 1 0.022117 -0.010604 0.005842 0.000000 0.000000 0.000000
# 2 -0.010604 0.024053 0.003968 0.000000 0.000000 0.000000
# 3 0.005842 0.003968 0.030397 0.000000 0.000000 0.000000
# 4 0.000000 0.000000 0.000000 0.029639 0.000000 0.000000
# 5 0.000000 0.000000 0.000000 0.000000 0.029131 0.000000
# 6 0.000000 0.000000 0.000000 0.000000 0.000000 0.056645
#
#
# Mechanical properties :
#
#
# Convention : Reuss Voigt Hill
#
# Bulk Modulus (GPa) = 13.33684 18.02574 15.68129
# Shear Modulus (GPa) = 22.87665 27.72160 25.29913
#
# Velocity S-wave (km/s) = 3.31507 3.64926 3.48617
# Velocity P-wave (km/s) = 4.58909 5.13960 4.87213
#
# Compressibility (1/GPa) = 0.07498026
#
# Stress axis : x y z
#
# Youngs Moduli (GPa) = 45.21372 41.57462 32.89783
#
# Poissons Ratio (x) = 0.44085 -0.19220
# Poissons Ratio (y) = 0.47944 -0.13053
# Poissons Ratio (z) = -0.26415 -0.16496
#
# Static dielectric constant tensor:
#      x y z
#    x 1.726940 0.000000 0.000000 
#    y 0.000000 1.742170 0.000000 
#    z 0.000000 0.000000 1.720320 
# 
# From -- ./inp_files/30957.got.cif
#   From: 2010.05.17/outbox.cif.g08.bks.cpg/sg20_16_cif.got.tgz:30957.got - 2010.06.03 22:52:26.
