data_PCOD9321627
_publ_section_title
;
Structure prediction by ZEFSAII (Michael W. Deem and Ramdas Pophale) SiO2 
 PCOD9321627
Probable space group: C 2 2 21
;
_chemical_formula_sum "Si O2"
_cell_formula_units_Z 56
_cell_length_a 12.248739
_cell_length_b 11.964569
_cell_length_c 18.241350
_cell_angle_alpha 90.000000
_cell_angle_beta 90.000000
_cell_angle_gamma 90.000000
_cell_volume 2673.285948
_symmetry_space_group_name_H-M "C 2 2 21"
_symmetry_group_IT_number 20
_symmetry_cell_setting 'orthorhombic'
loop_
_space_group_symop_operation_xyz
x,y,z
-x,-y,1/2+z
x,-y,-z
-x,y,1/2-z
1/2+x,1/2+y,z
1/2-x,1/2-y,1/2+z
1/2+x,1/2-y,-z
1/2-x,1/2+y,1/2-z
loop_
_atom_site_type_symbol
_atom_site_label
_atom_site_fract_x
_atom_site_fract_y
_atom_site_fract_z
Si Si1 0.145334 0.762603 0.406524
Si Si2 0.501482 0.370604 0.520908
Si Si3 0.726087 0.628790 0.985544
Si Si4 0.930886 0.132830 0.181419
Si Si5 0.264305 0.962361 0.322955
Si Si6 0.766676 0.324025 0.181247
Si Si7 0.562973 0.847329 0.823781
O O1 0.213462 0.663796 0.440889
O O2 0.224536 0.846999 0.362110
O O3 0.106402 0.822612 0.481122
O O4 0.036399 0.712966 0.368289
O O5 0.504964 0.500000 0.500000
O O6 0.393366 0.315587 0.486870
O O7 0.500713 0.353978 0.607545
O O8 0.775383 0.647553 0.905109
O O9 0.708805 0.500000 0.000000
O O10 0.869552 0.246900 0.201507
O O11 0.000000 0.092467 0.250000
O O12 0.837275 0.044113 0.163766
O O13 0.267857 0.928226 0.236814
O O14 0.369693 0.038585 0.346634
O O15 0.657114 0.247304 0.189629
O O16 0.500000 0.879474 0.750000
#
# Coordination Sequence:
#
# PCOD9321627 Si02
#       7
#     8   8   8   8   8   8   8
#     4  12  24  49  72 102 145 192 228 308 370 415
#     4  11  23  44  72  99 133 180 234 290 355 430
#     4  11  27  43  70 101 142 183 241 289 363 448
#     4  11  26  42  69 102 133 180 241 292 351 435
#     4  11  27  43  75 104 140 187 245 290 363 450
#     4  11  24  46  66 104 139 186 237 296 360 433
#     4  11  25  46  72 106 144 192 244 297 367 436
#
# _framework density 20.948003
#
# number of rings (size 3 to 8) (size 9 to 14) (size 15 to 20)
#    0.000    0.857    5.714    0.000   10.000    0.571 
#    2.571    0.000    0.000    0.000    0.000    0.000 
#    0.000    0.000    0.000    0.000    0.000    0.000 
#
# Total GULP energy -155997.732193 kJ/mol
# GULP energy per Si atom -5571.347578 kJ/mol
# Density = 2.090032 g / cm^3
# Si number density = 20.948003 Si / 1000 Ang^3
#
#
#
# Elastic Constant Matrix: (Units=GPa)
#
#
# Indices 1 2 3 4 5 6 
#
# 1 49.6859 21.4242 5.2014 0.0000 0.0000 0.0000
# 2 21.4242 61.2167 8.9553 0.0000 0.0000 0.0000
# 3 5.2014 8.9553 73.4971 0.0000 0.0000 0.0000
# 4 0.0000 0.0000 0.0000 28.6567 0.0000 0.0000
# 5 0.0000 0.0000 0.0000 0.0000 16.7906 0.0000
# 6 0.0000 0.0000 0.0000 0.0000 0.0000 14.6329
#
#
#
# Elastic Compliance Matrix: (Units=1/GPa)
#
#
# Indices 1 2 3 4 5 6 
#
# 1 0.023737 -0.008208 -0.000680 0.000000 0.000000 0.000000
# 2 -0.008208 0.019470 -0.001791 0.000000 0.000000 0.000000
# 3 -0.000680 -0.001791 0.013872 0.000000 0.000000 0.000000
# 4 0.000000 0.000000 0.000000 0.034896 0.000000 0.000000
# 5 0.000000 0.000000 0.000000 0.000000 0.059557 0.000000
# 6 0.000000 0.000000 0.000000 0.000000 0.000000 0.068339
#
#
# Mechanical properties :
#
#
# Convention : Reuss Voigt Hill
#
# Bulk Modulus (GPa) = 27.99469 28.39572 28.19520
# Shear Modulus (GPa) = 19.75221 21.93730 20.84476
#
# Velocity S-wave (km/s) = 3.07403 3.23960 3.15790
# Velocity P-wave (km/s) = 5.09828 5.25148 5.17545
#
# Compressibility (1/GPa) = 0.03572106
#
# Stress axis : x y z
#
# Youngs Moduli (GPa) = 42.12883 51.36116 72.08578
#
# Poissons Ratio (x) = 0.42156 0.04900
# Poissons Ratio (y) = 0.34578 0.12914
# Poissons Ratio (z) = 0.02864 0.09201
#
# Static dielectric constant tensor:
#      x y z
#    x 1.852210 0.000000 0.000000 
#    y 0.000000 1.771020 0.000000 
#    z 0.000000 0.000000 1.757980 
# 
# From -- ./inp_files/27180.got.cif
#   From: 2010.05.17/outbox.cif.g08.bks.cpg/sg20_14_cif.got.tgz:27180.got - 2010.06.03 22:52:26.
