data_PCOD9321327
_publ_section_title
;
Structure prediction by ZEFSAII (Michael W. Deem and Ramdas Pophale) SiO2 
 PCOD9321327
Probable space group: C 2 2 21
;
_chemical_formula_sum "Si O2"
_cell_formula_units_Z 56
_cell_length_a 5.223499
_cell_length_b 31.283078
_cell_length_c 15.183145
_cell_angle_alpha 90.000000
_cell_angle_beta 90.000000
_cell_angle_gamma 90.000000
_cell_volume 2481.034098
_symmetry_space_group_name_H-M "C 2 2 21"
_symmetry_group_IT_number 20
_symmetry_cell_setting 'orthorhombic'
loop_
_space_group_symop_operation_xyz
x,y,z
-x,-y,1/2+z
x,-y,-z
-x,y,1/2-z
1/2+x,1/2+y,z
1/2-x,1/2-y,1/2+z
1/2+x,1/2-y,-z
1/2-x,1/2+y,1/2-z
loop_
_atom_site_type_symbol
_atom_site_label
_atom_site_fract_x
_atom_site_fract_y
_atom_site_fract_z
Si Si1 0.172115 0.507564 0.327698
Si Si2 0.017145 0.741540 0.351500
Si Si3 0.192067 0.701027 0.977492
Si Si4 0.324168 0.469541 0.921171
Si Si5 0.151676 0.412120 0.360914
Si Si6 0.679990 0.179452 0.671948
Si Si7 0.861819 0.892725 0.033521
O O1 0.451814 0.525288 0.348970
O O2 0.198603 0.456697 0.313335
O O3 0.000000 0.527459 0.250000
O O4 0.960463 0.513050 0.403470
O O5 0.852161 0.714493 0.421502
O O6 0.912632 0.789149 0.335727
O O7 0.000000 0.723460 0.250000
O O8 0.248183 0.756198 0.418424
O O9 0.368111 0.658431 0.977025
O O10 0.952395 0.682293 0.923163
O O11 0.422493 0.500000 0.000000
O O12 0.296971 0.420222 0.947739
O O13 0.226815 0.369789 0.306351
O O14 0.360191 0.409510 0.438282
O O15 0.861718 0.406181 0.396653
O O16 0.500000 0.196752 0.750000
#
# Coordination Sequence:
#
# PCOD9321327 Si02
#       7
#     8   8   8   8   8   8   8
#     4  12  24  40  63  99 139 175 222 282 342 402
#     4  12  23  41  69  97 134 176 227 283 351 423
#     4  11  24  41  63  98 134 176 227 284 348 419
#     4  12  22  41  66  92 130 181 230 271 327 407
#     4  11  21  38  62  99 135 173 215 278 345 407
#     4  11  22  37  61  95 137 173 216 280 347 416
#     4  11  23  39  66  95 129 176 228 279 334 402
#
# _framework density 22.571231999999998
#
# number of rings (size 3 to 8) (size 9 to 14) (size 15 to 20)
#    0.000    0.571    7.143    2.143    0.000    0.000 
#    0.000    2.143    0.000    5.143    0.000    0.000 
#    0.000    0.000    0.000    0.000    0.000    0.000 
#
# Total GULP energy -155959.359260 kJ/mol
# GULP energy per Si atom -5569.977116 kJ/mol
# Density = 2.251986 g / cm^3
# Si number density = 22.571232 Si / 1000 Ang^3
#
#
#
# Elastic Constant Matrix: (Units=GPa)
#
#
# Indices 1 2 3 4 5 6 
#
# 1 70.1757 7.2898 12.3909 0.0000 0.0000 0.0000
# 2 7.2898 62.6384 10.8041 0.0000 0.0000 0.0000
# 3 12.3909 10.8041 126.6728 0.0000 0.0000 0.0000
# 4 0.0000 0.0000 0.0000 9.8384 0.0000 0.0000
# 5 0.0000 0.0000 0.0000 0.0000 34.1900 0.0000
# 6 0.0000 0.0000 0.0000 0.0000 0.0000 29.3039
#
#
#
# Elastic Compliance Matrix: (Units=1/GPa)
#
#
# Indices 1 2 3 4 5 6 
#
# 1 0.014634 -0.001478 -0.001305 0.000000 0.000000 0.000000
# 2 -0.001478 0.016352 -0.001250 0.000000 0.000000 0.000000
# 3 -0.001305 -0.001250 0.008129 0.000000 0.000000 0.000000
# 4 0.000000 0.000000 0.000000 0.101643 0.000000 0.000000
# 5 0.000000 0.000000 0.000000 0.000000 0.029248 0.000000
# 6 0.000000 0.000000 0.000000 0.000000 0.000000 0.034125
#
#
# Mechanical properties :
#
#
# Convention : Reuss Voigt Hill
#
# Bulk Modulus (GPa) = 32.20826 35.60630 33.90728
# Shear Modulus (GPa) = 22.46711 29.93326 26.20019
#
# Velocity S-wave (km/s) = 3.15840 3.64561 3.41072
# Velocity P-wave (km/s) = 5.25369 5.79051 5.52862
#
# Compressibility (1/GPa) = 0.03104794
#
# Stress axis : x y z
#
# Youngs Moduli (GPa) = 68.33419 61.15354 123.02131
#
# Poissons Ratio (x) = 0.09038 0.16059
# Poissons Ratio (y) = 0.10099 0.15379
# Poissons Ratio (z) = 0.08920 0.07645
#
# Static dielectric constant tensor:
#      x y z
#    x 2.000010 0.000000 0.000000 
#    y 0.000000 1.840170 0.000000 
#    z 0.000000 0.000000 2.020600 
# 
# From -- ./inp_files/17947.got.cif
#   From: 2010.05.17/outbox.cif.g08.bks.cpg/sg20_9_cif.got.tgz:17947.got - 2010.06.03 22:52:26.
