data_PCOD9321486
_publ_section_title
;
Structure prediction by ZEFSAII (Michael W. Deem and Ramdas Pophale) SiO2 
 PCOD9321486
Probable space group: C 2 2 21
;
_chemical_formula_sum "Si O2"
_cell_formula_units_Z 60
_cell_length_a 25.267063
_cell_length_b 7.863378
_cell_length_c 14.336374
_cell_angle_alpha 90.000000
_cell_angle_beta 90.000000
_cell_angle_gamma 90.000000
_cell_volume 2848.414831
_symmetry_space_group_name_H-M "C 2 2 21"
_symmetry_group_IT_number 20
_symmetry_cell_setting 'orthorhombic'
loop_
_space_group_symop_operation_xyz
x,y,z
-x,-y,1/2+z
x,-y,-z
-x,y,1/2-z
1/2+x,1/2+y,z
1/2-x,1/2-y,1/2+z
1/2+x,1/2-y,-z
1/2-x,1/2+y,1/2-z
loop_
_atom_site_type_symbol
_atom_site_label
_atom_site_fract_x
_atom_site_fract_y
_atom_site_fract_z
Si Si1 0.436808 0.500000 0.000000
Si Si2 0.139614 0.817113 0.630575
Si Si3 0.520274 0.350894 0.145104
Si Si4 0.442027 0.695458 0.297347
Si Si5 0.412050 0.970008 0.602443
Si Si6 0.261029 0.176812 0.951136
Si Si7 0.219067 0.867129 0.359373
Si Si8 0.693789 0.877511 0.802795
O O1 0.399961 0.643433 0.045776
O O2 0.473005 0.419680 0.080603
O O3 0.103775 0.785461 0.720525
O O4 0.182912 0.676255 0.603714
O O5 0.173880 0.989119 0.644713
O O6 0.500000 0.312950 0.250000
O O7 0.560683 0.510148 0.154649
O O8 0.546302 0.183523 0.102654
O O9 0.500000 0.698668 0.250000
O O10 0.437794 0.853163 0.366317
O O11 0.366302 0.917639 0.673791
O O12 0.388460 0.000000 0.500000
O O13 0.217166 0.245627 0.879911
O O14 0.269441 0.309652 0.035595
O O15 0.247808 0.000000 0.000000
O O16 0.202508 0.708095 0.296776
O O17 0.271111 0.954094 0.316168
#
# Coordination Sequence:
#
# PCOD9321486 Si02
#       8
#     4   8   8   8   8   8   8   8
#     4  12  20  44  74  98 134 182 224 280 342 390
#     4  11  22  42  71  97 132 176 223 286 337 390
#     4  11  24  45  70  99 143 184 230 279 339 407
#     4  11  24  45  69 100 139 180 228 280 339 403
#     4  12  27  45  67 102 141 184 227 281 339 418
#     4  11  24  44  65 104 129 171 230 280 338 413
#     4  11  23  42  70  94 132 171 223 280 341 405
#     4  11  25  44  67  98 135 174 218 283 342 410
#
# _framework density 21.064347000000001
#
# number of rings (size 3 to 8) (size 9 to 14) (size 15 to 20)
#    0.000    0.800    4.000    4.800    5.600    0.000 
#   10.800    0.000    0.000    0.000    0.000    0.000 
#    0.000    0.000    0.000    0.000    0.000    0.000 
#
# Total GULP energy -167877.633873 kJ/mol
# GULP energy per Si atom -5595.921129 kJ/mol
# Density = 2.101640 g / cm^3
# Si number density = 21.064347 Si / 1000 Ang^3
#
#
#
# Elastic Constant Matrix: (Units=GPa)
#
#
# Indices 1 2 3 4 5 6 
#
# 1 39.2252 -6.4100 1.2379 0.0000 0.0000 0.0000
# 2 -6.4100 82.2982 10.0147 0.0000 0.0000 0.0000
# 3 1.2379 10.0147 60.7435 0.0000 0.0000 0.0000
# 4 0.0000 0.0000 0.0000 21.1725 0.0000 0.0000
# 5 0.0000 0.0000 0.0000 0.0000 30.2403 0.0000
# 6 0.0000 0.0000 0.0000 0.0000 0.0000 17.8870
#
#
#
# Elastic Compliance Matrix: (Units=1/GPa)
#
#
# Indices 1 2 3 4 5 6 
#
# 1 0.025868 0.002122 -0.000877 0.000000 0.000000 0.000000
# 2 0.002122 0.012574 -0.002116 0.000000 0.000000 0.000000
# 3 -0.000877 -0.002116 0.016829 0.000000 0.000000 0.000000
# 4 0.000000 0.000000 0.000000 0.047231 0.000000 0.000000
# 5 0.000000 0.000000 0.000000 0.000000 0.033068 0.000000
# 6 0.000000 0.000000 0.000000 0.000000 0.000000 0.055907
#
#
# Mechanical properties :
#
#
# Convention : Reuss Voigt Hill
#
# Bulk Modulus (GPa) = 18.68181 21.32800 20.00491
# Shear Modulus (GPa) = 23.68955 25.68823 24.68889
#
# Velocity S-wave (km/s) = 3.35719 3.49594 3.42727
# Velocity P-wave (km/s) = 4.89038 5.14224 5.01789
#
# Compressibility (1/GPa) = 0.05352801
#
# Stress axis : x y z
#
# Youngs Moduli (GPa) = 38.65751 79.53104 59.41967
#
# Poissons Ratio (x) = -0.16873 0.05211
# Poissons Ratio (y) = -0.08201 0.12575
# Poissons Ratio (z) = 0.03390 0.16831
#
# Static dielectric constant tensor:
#      x y z
#    x 1.734460 0.000000 0.000000 
#    y 0.000000 1.753730 0.000000 
#    z 0.000000 0.000000 1.756060 
# 
# From -- ./inp_files/22022.got.cif
#   From: 2010.05.17/outbox.cif.g08.bks.cpg/sg20_12_cif.got.tgz:22022.got - 2010.06.03 22:52:26.
