data_PCOD9321010
_publ_section_title
;
Structure prediction by ZEFSAII (Michael W. Deem and Ramdas Pophale) SiO2 
 PCOD9321010
Probable space group: C 2 2 21
;
_chemical_formula_sum "Si O2"
_cell_formula_units_Z 64
_cell_length_a 8.935704
_cell_length_b 11.652468
_cell_length_c 26.011528
_cell_angle_alpha 90.000000
_cell_angle_beta 90.000000
_cell_angle_gamma 90.000000
_cell_volume 2708.398458
_symmetry_space_group_name_H-M "C 2 2 21"
_symmetry_group_IT_number 20
_symmetry_cell_setting 'orthorhombic'
loop_
_space_group_symop_operation_xyz
x,y,z
-x,-y,1/2+z
x,-y,-z
-x,y,1/2-z
1/2+x,1/2+y,z
1/2-x,1/2-y,1/2+z
1/2+x,1/2-y,-z
1/2-x,1/2+y,1/2-z
loop_
_atom_site_type_symbol
_atom_site_label
_atom_site_fract_x
_atom_site_fract_y
_atom_site_fract_z
Si Si1 0.483023 0.006800 0.104867
Si Si2 0.270866 0.191253 0.141410
Si Si3 0.055405 0.281489 0.055586
Si Si4 0.824398 0.030720 0.263197
Si Si5 0.663730 0.634374 0.505556
Si Si6 0.217293 0.088147 0.347430
Si Si7 0.519181 0.615433 0.616343
Si Si8 0.211771 0.646618 0.665121
O O1 0.490156 0.909886 0.061545
O O2 0.431891 0.930609 0.153834
O O3 0.356747 0.103282 0.103059
O O4 0.642880 0.064610 0.115026
O O5 0.138331 0.247780 0.108536
O O6 0.219780 0.121451 0.191851
O O7 0.394059 0.290451 0.151372
O O8 0.185491 0.294107 0.013449
O O9 0.933943 0.189135 0.039342
O O10 0.738662 0.051017 0.210204
O O11 0.000000 0.041999 0.250000
O O12 0.785535 0.903726 0.283591
O O13 0.696463 0.500000 0.500000
O O14 0.570794 0.641467 0.558710
O O15 0.178372 0.220654 0.340381
O O16 0.083131 0.007492 0.366552
O O17 0.342808 0.621507 0.623641
#
# Coordination Sequence:
#
# PCOD9321010 Si02
#       8
#     8   8   8   8   8   8   8   8
#     4  11  25  44  72 104 139 192 235 294 367 425
#     4  10  24  47  71 103 152 188 240 306 358 432
#     4  11  27  47  72 108 144 187 247 302 369 444
#     4  11  26  43  71 111 144 192 244 299 359 436
#     4  11  28  44  74 106 140 187 242 302 367 439
#     4  12  25  45  74 102 146 193 235 300 357 432
#     4  11  24  49  70 101 147 186 240 299 362 427
#     4  11  27  43  72 101 139 193 235 288 364 423
#
# _framework density 23.630201
#
# number of rings (size 3 to 8) (size 9 to 14) (size 15 to 20)
#    0.000    1.000    5.000    0.000   10.500    4.000 
#    0.000    0.000    0.000    0.000    0.000    0.000 
#    0.000    0.000    0.000    0.000    0.000    0.000 
#
# Total GULP energy -179093.506836 kJ/mol
# GULP energy per Si atom -5596.672089 kJ/mol
# Density = 2.357642 g / cm^3
# Si number density = 23.630201 Si / 1000 Ang^3
#
#
#
# Elastic Constant Matrix: (Units=GPa)
#
#
# Indices 1 2 3 4 5 6 
#
# 1 66.7801 19.7869 1.0063 0.0000 0.0000 0.0000
# 2 19.7869 132.7217 -2.9457 0.0000 0.0000 0.0000
# 3 1.0063 -2.9457 46.4007 0.0000 0.0000 0.0000
# 4 0.0000 0.0000 0.0000 36.3319 0.0000 0.0000
# 5 0.0000 0.0000 0.0000 0.0000 27.4085 0.0000
# 6 0.0000 0.0000 0.0000 0.0000 0.0000 34.4646
#
#
#
# Elastic Compliance Matrix: (Units=1/GPa)
#
#
# Indices 1 2 3 4 5 6 
#
# 1 0.015678 -0.002348 -0.000489 0.000000 0.000000 0.000000
# 2 -0.002348 0.007897 0.000552 0.000000 0.000000 0.000000
# 3 -0.000489 0.000552 0.021597 0.000000 0.000000 0.000000
# 4 0.000000 0.000000 0.000000 0.027524 0.000000 0.000000
# 5 0.000000 0.000000 0.000000 0.000000 0.036485 0.000000
# 6 0.000000 0.000000 0.000000 0.000000 0.000000 0.029015
#
#
# Mechanical properties :
#
#
# Convention : Reuss Voigt Hill
#
# Bulk Modulus (GPa) = 24.62954 31.28860 27.95907
# Shear Modulus (GPa) = 31.98980 34.84466 33.41723
#
# Velocity S-wave (km/s) = 3.68335 3.84419 3.76463
# Velocity P-wave (km/s) = 5.34181 5.74225 5.54565
#
# Compressibility (1/GPa) = 0.04060166
#
# Stress axis : x y z
#
# Youngs Moduli (GPa) = 63.78506 126.63196 46.30255
#
# Poissons Ratio (x) = 0.29735 0.02265
# Poissons Ratio (y) = 0.14978 -0.02557
# Poissons Ratio (z) = 0.03120 -0.06993
#
# Static dielectric constant tensor:
#      x y z
#    x 1.879890 0.000000 0.000000 
#    y 0.000000 1.898120 0.000000 
#    z 0.000000 0.000000 1.927320 
# 
# From -- ./inp_files/31066.got.cif
#   From: 2010.05.17/outbox.cif.g08.bks.cpg/sg20_16_cif.got.tgz:31066.got - 2010.06.03 22:52:26.
