data_PCOD9321583
_publ_section_title
;
Structure prediction by ZEFSAII (Michael W. Deem and Ramdas Pophale) SiO2 
 PCOD9321583
Probable space group: C 2 2 21
;
_chemical_formula_sum "Si O2"
_cell_formula_units_Z 40
_cell_length_a 5.448894
_cell_length_b 26.355404
_cell_length_c 12.407752
_cell_angle_alpha 90.000000
_cell_angle_beta 90.000000
_cell_angle_gamma 90.000000
_cell_volume 1781.850001
_symmetry_space_group_name_H-M "C 2 2 21"
_symmetry_group_IT_number 20
_symmetry_cell_setting 'orthorhombic'
loop_
_space_group_symop_operation_xyz
x,y,z
-x,-y,1/2+z
x,-y,-z
-x,y,1/2-z
1/2+x,1/2+y,z
1/2-x,1/2-y,1/2+z
1/2+x,1/2-y,-z
1/2-x,1/2+y,1/2-z
loop_
_atom_site_type_symbol
_atom_site_label
_atom_site_fract_x
_atom_site_fract_y
_atom_site_fract_z
Si Si1 0.820789 0.376871 0.070998
Si Si2 0.289387 0.655515 0.332730
Si Si3 0.135792 0.476738 0.100746
Si Si4 0.500000 0.580202 0.750000
Si Si5 0.500000 0.758369 0.750000
Si Si6 0.000000 0.436297 0.750000
Si Si7 0.500000 0.806251 0.250000
O O1 0.605421 0.386115 0.155583
O O2 0.001402 0.339547 0.139171
O O3 0.962184 0.430744 0.063447
O O4 0.698863 0.359669 0.958574
O O5 0.500000 0.675564 0.250000
O O6 0.081401 0.699777 0.338999
O O7 0.215253 0.603885 0.270469
O O8 0.296529 0.454839 0.196647
O O9 0.006386 0.525946 0.149850
O O10 0.284005 0.500000 0.000000
O O11 0.255222 0.724846 0.737915
#
# Coordination Sequence:
#
# PCOD9321583 Si02
#       7
#     8   8   8   4   4   4   4
#     4  12  26  46  78 112 159 199 267 325 403 480
#     4  11  27  49  75 116 155 210 261 331 402 489
#     4  12  25  44  68 110 152 206 257 320 393 474
#     4  12  25  42  68 116 152 204 268 323 386 484
#     4  11  27  54  81 114 153 200 274 328 412 476
#     4  11  23  42  69 100 160 199 261 313 384 460
#     4  12  25  52  84 116 149 205 263 344 402 474
#
# _framework density 22.448581000000001
#
# number of rings (size 3 to 8) (size 9 to 14) (size 15 to 20)
#    0.000    0.400    7.000    0.600    4.200    2.400 
#    0.000    0.000    0.000    0.000    0.000    0.000 
#    0.000    0.000    0.000    0.000    0.000    0.000 
#
# Total GULP energy -111366.725713 kJ/mol
# GULP energy per Si atom -5568.336286 kJ/mol
# Density = 2.239749 g / cm^3
# Si number density = 22.448581 Si / 1000 Ang^3
#
#
#
# Elastic Constant Matrix: (Units=GPa)
#
#
# Indices 1 2 3 4 5 6 
#
# 1 103.0939 52.5830 44.3719 0.0000 0.0000 0.0000
# 2 52.5830 139.0251 47.6124 0.0000 0.0000 0.0000
# 3 44.3719 47.6124 158.6684 0.0000 0.0000 0.0000
# 4 0.0000 0.0000 0.0000 7.3887 0.0000 0.0000
# 5 0.0000 0.0000 0.0000 0.0000 21.6618 0.0000
# 6 0.0000 0.0000 0.0000 0.0000 0.0000 25.0870
#
#
#
# Elastic Compliance Matrix: (Units=1/GPa)
#
#
# Indices 1 2 3 4 5 6 
#
# 1 0.012768 -0.004019 -0.002364 0.000000 0.000000 0.000000
# 2 -0.004019 0.009282 -0.001661 0.000000 0.000000 0.000000
# 3 -0.002364 -0.001661 0.007462 0.000000 0.000000 0.000000
# 4 0.000000 0.000000 0.000000 0.135342 0.000000 0.000000
# 5 0.000000 0.000000 0.000000 0.000000 0.046164 0.000000
# 6 0.000000 0.000000 0.000000 0.000000 0.000000 0.039861
#
#
# Mechanical properties :
#
#
# Convention : Reuss Voigt Hill
#
# Bulk Modulus (GPa) = 74.50537 76.65799 75.58168
# Shear Modulus (GPa) = 18.42004 27.90884 23.16444
#
# Velocity S-wave (km/s) = 2.86762 3.52978 3.21579
# Velocity P-wave (km/s) = 6.65024 7.12985 6.89422
#
# Compressibility (1/GPa) = 0.01342185
#
# Stress axis : x y z
#
# Youngs Moduli (GPa) = 78.32341 107.73416 134.00908
#
# Poissons Ratio (x) = 0.43302 0.31685
# Poissons Ratio (y) = 0.31480 0.22263
# Poissons Ratio (z) = 0.18519 0.17898
#
# Static dielectric constant tensor:
#      x y z
#    x 1.927620 0.000000 0.000000 
#    y 0.000000 1.879340 0.000000 
#    z 0.000000 0.000000 1.831530 
# 
# From -- ./inp_files/12129.got.cif
#   From: 2010.05.17/outbox.cif.g08.bks.cpg/sg20_7_cif.got.tgz:12129.got - 2010.06.03 22:52:26.
