data_PCOD9321890
_publ_section_title
;
Structure prediction by ZEFSAII (Michael W. Deem and Ramdas Pophale) SiO2 
 PCOD9321890
Probable space group: C 2 2 21
;
_chemical_formula_sum "Si O2"
_cell_formula_units_Z 24
_cell_length_a 7.660781
_cell_length_b 12.278878
_cell_length_c 11.242106
_cell_angle_alpha 90.000000
_cell_angle_beta 90.000000
_cell_angle_gamma 90.000000
_cell_volume 1057.497642
_symmetry_space_group_name_H-M "C 2 2 21"
_symmetry_group_IT_number 20
_symmetry_cell_setting 'orthorhombic'
loop_
_space_group_symop_operation_xyz
x,y,z
-x,-y,1/2+z
x,-y,-z
-x,y,1/2-z
1/2+x,1/2+y,z
1/2-x,1/2-y,1/2+z
1/2+x,1/2-y,-z
1/2-x,1/2+y,1/2-z
loop_
_atom_site_type_symbol
_atom_site_label
_atom_site_fract_x
_atom_site_fract_y
_atom_site_fract_z
Si Si1 0.292755 0.604907 0.439000
Si Si2 0.677394 0.346360 0.469056
Si Si3 0.192593 0.530473 0.194039
O O1 0.204219 0.500000 0.500000
O O2 0.479200 0.621441 0.501603
O O3 0.193195 0.718045 0.452727
O O4 0.310170 0.574956 0.301259
O O5 0.788974 0.388796 0.581950
O O6 0.745165 0.413719 0.355334
O O7 0.000000 0.526093 0.250000
#
# Coordination Sequence:
#
# PCOD9321890 Si02
#       3
#     8   8   8
#     4  12  27  48  79 107 154 193 252 307 375 442
#     4  11  27  50  75 113 150 198 255 304 379 445
#     4  11  26  48  77 111 152 196 250 308 376 444
#
# _framework density 22.695087000000001
#
# number of rings (size 3 to 8) (size 9 to 14) (size 15 to 20)
#    0.000    0.667    3.333    3.000   14.000    0.000 
#    0.000    0.000    0.000    0.000    0.000    0.000 
#    0.000    0.000    0.000    0.000    0.000    0.000 
#
# Total GULP energy -67215.309544 kJ/mol
# GULP energy per Si atom -5601.275795 kJ/mol
# Density = 2.264343 g / cm^3
# Si number density = 22.695087 Si / 1000 Ang^3
#
#
#
# Elastic Constant Matrix: (Units=GPa)
#
#
# Indices 1 2 3 4 5 6 
#
# 1 34.2403 11.7562 -14.5715 0.0000 0.0000 0.0000
# 2 11.7562 231.9766 62.4176 0.0000 0.0000 0.0000
# 3 -14.5715 62.4176 84.5238 0.0000 0.0000 0.0000
# 4 0.0000 0.0000 0.0000 15.3446 0.0000 0.0000
# 5 0.0000 0.0000 0.0000 0.0000 42.6087 0.0000
# 6 0.0000 0.0000 0.0000 0.0000 0.0000 18.7256
#
#
#
# Elastic Compliance Matrix: (Units=1/GPa)
#
#
# Indices 1 2 3 4 5 6 
#
# 1 0.034482 -0.004177 0.009029 0.000000 0.000000 0.000000
# 2 -0.004177 0.005886 -0.005066 0.000000 0.000000 0.000000
# 3 0.009029 -0.005066 0.017129 0.000000 0.000000 0.000000
# 4 0.000000 0.000000 0.000000 0.065170 0.000000 0.000000
# 5 0.000000 0.000000 0.000000 0.000000 0.023469 0.000000
# 6 0.000000 0.000000 0.000000 0.000000 0.000000 0.053403
#
#
# Mechanical properties :
#
#
# Convention : Reuss Voigt Hill
#
# Bulk Modulus (GPa) = 17.52301 52.21614 34.86958
# Shear Modulus (GPa) = 22.83213 34.74499 28.78856
#
# Velocity S-wave (km/s) = 3.17525 3.91698 3.56545
# Velocity P-wave (km/s) = 4.60226 6.59656 5.68750
#
# Compressibility (1/GPa) = 0.05706781
#
# Stress axis : x y z
#
# Youngs Moduli (GPa) = 29.00073 169.90404 58.38083
#
# Poissons Ratio (x) = 0.70967 -0.52712
# Poissons Ratio (y) = 0.12113 0.29578
# Poissons Ratio (z) = -0.26185 0.86081
#
# Static dielectric constant tensor:
#      x y z
#    x 1.932250 0.000000 0.000000 
#    y 0.000000 1.812320 0.000000 
#    z 0.000000 0.000000 1.829710 
# 
# From -- ./inp_files/12277.got.cif
#   From: 2010.05.17/outbox.cif.g08.bks.cpg/sg20_7_cif.got.tgz:12277.got - 2010.06.03 22:52:26.
