data_PCOD9321025
_publ_section_title
;
Structure prediction by ZEFSAII (Michael W. Deem and Ramdas Pophale) SiO2 
 PCOD9321025
Probable space group: C 2 2 21
;
_chemical_formula_sum "Si O2"
_cell_formula_units_Z 48
_cell_length_a 13.580743
_cell_length_b 24.760864
_cell_length_c 6.062924
_cell_angle_alpha 90.000000
_cell_angle_beta 90.000000
_cell_angle_gamma 90.000000
_cell_volume 2038.785095
_symmetry_space_group_name_H-M "C 2 2 21"
_symmetry_group_IT_number 20
_symmetry_cell_setting 'orthorhombic'
loop_
_space_group_symop_operation_xyz
x,y,z
-x,-y,1/2+z
x,-y,-z
-x,y,1/2-z
1/2+x,1/2+y,z
1/2-x,1/2-y,1/2+z
1/2+x,1/2-y,-z
1/2-x,1/2+y,1/2-z
loop_
_atom_site_type_symbol
_atom_site_label
_atom_site_fract_x
_atom_site_fract_y
_atom_site_fract_z
Si Si1 0.573921 0.555222 0.080844
Si Si2 0.187842 0.867998 0.254544
Si Si3 0.754804 0.948546 0.881905
Si Si4 0.587715 0.839342 0.402865
Si Si5 0.305638 0.748677 0.850909
Si Si6 0.586367 0.947209 0.607177
O O1 0.500000 0.583081 0.250000
O O2 0.664817 0.530269 0.214759
O O3 0.521379 0.500000 0.000000
O O4 0.622925 0.599620 0.923234
O O5 0.192556 0.908276 0.456988
O O6 0.304122 0.856145 0.197172
O O7 0.146341 0.809770 0.316580
O O8 0.669372 0.919119 0.752815
O O9 0.708485 0.000000 0.000000
O O10 0.500000 0.815425 0.250000
O O11 0.619378 0.797042 0.592942
O O12 0.544339 0.897377 0.473900
O O13 0.253222 0.756937 0.599755
O O14 0.500000 0.972009 0.750000
O O15 0.634256 0.000000 0.500000
#
# Coordination Sequence:
#
# PCOD9321025 Si02
#       6
#     8   8   8   8   8   8
#     4  12  26  46  73 108 151 198 260 325 405 477
#     4  11  24  45  76 105 147 205 257 324 402 478
#     4  12  22  40  70 102 151 197 250 318 392 471
#     4  11  23  45  75 110 154 201 263 326 404 477
#     4  10  24  47  79 110 154 208 267 327 395 470
#     4  12  23  38  64 108 154 197 254 312 394 486
#
# _framework density 23.543433
#
# number of rings (size 3 to 8) (size 9 to 14) (size 15 to 20)
#    0.000    0.667    3.333    5.000    2.333    1.333 
#    0.000    0.833   18.333    0.000    0.000    0.000 
#    0.000    0.000    0.000    0.000    0.000    0.000 
#
# Total GULP energy -133636.663440 kJ/mol
# GULP energy per Si atom -5568.194310 kJ/mol
# Density = 2.348985 g / cm^3
# Si number density = 23.543433 Si / 1000 Ang^3
#
#
#
# Elastic Constant Matrix: (Units=GPa)
#
#
# Indices 1 2 3 4 5 6 
#
# 1 83.7983 17.2875 51.7507 0.0000 0.0000 0.0000
# 2 17.2875 155.9362 42.7208 0.0000 0.0000 0.0000
# 3 51.7507 42.7208 112.9466 0.0000 0.0000 0.0000
# 4 0.0000 0.0000 0.0000 40.8240 0.0000 0.0000
# 5 0.0000 0.0000 0.0000 0.0000 45.0703 0.0000
# 6 0.0000 0.0000 0.0000 0.0000 0.0000 32.7784
#
#
#
# Elastic Compliance Matrix: (Units=1/GPa)
#
#
# Indices 1 2 3 4 5 6 
#
# 1 0.016653 0.000272 -0.007733 0.000000 0.000000 0.000000
# 2 0.000272 0.007159 -0.002833 0.000000 0.000000 0.000000
# 3 -0.007733 -0.002833 0.013468 0.000000 0.000000 0.000000
# 4 0.000000 0.000000 0.000000 0.024495 0.000000 0.000000
# 5 0.000000 0.000000 0.000000 0.000000 0.022188 0.000000
# 6 0.000000 0.000000 0.000000 0.000000 0.000000 0.030508
#
#
# Mechanical properties :
#
#
# Convention : Reuss Voigt Hill
#
# Bulk Modulus (GPa) = 59.90390 64.02210 61.96300
# Shear Modulus (GPa) = 35.55632 39.79600 37.67616
#
# Velocity S-wave (km/s) = 3.89040 4.11581 4.00469
# Velocity P-wave (km/s) = 6.75866 7.05966 6.91080
#
# Compressibility (1/GPa) = 0.01669341
#
# Stress axis : x y z
#
# Youngs Moduli (GPa) = 60.04939 139.69049 74.24803
#
# Poissons Ratio (x) = -0.03805 0.57418
# Poissons Ratio (y) = -0.01636 0.21031
# Poissons Ratio (z) = 0.46437 0.39567
#
# Static dielectric constant tensor:
#      x y z
#    x 1.926900 0.000000 0.000000 
#    y 0.000000 1.834660 0.000000 
#    z 0.000000 0.000000 2.070790 
# 
# From -- ./inp_files/2043.got.cif
#   From: 2010.05.17/outbox.cif.g08.bks.cpg/sg20_2_cif.got.tgz:2043.got - 2010.06.03 22:52:26.
