data_PCOD9321024
_publ_section_title
;
Structure prediction by ZEFSAII (Michael W. Deem and Ramdas Pophale) SiO2 
 PCOD9321024
Probable space group: C 2 2 21
;
_chemical_formula_sum "Si O2"
_cell_formula_units_Z 48
_cell_length_a 27.454651
_cell_length_b 10.068338
_cell_length_c 7.620329
_cell_angle_alpha 90.000000
_cell_angle_beta 90.000000
_cell_angle_gamma 90.000000
_cell_volume 2106.431962
_symmetry_space_group_name_H-M "C 2 2 21"
_symmetry_group_IT_number 20
_symmetry_cell_setting 'orthorhombic'
loop_
_space_group_symop_operation_xyz
x,y,z
-x,-y,1/2+z
x,-y,-z
-x,y,1/2-z
1/2+x,1/2+y,z
1/2-x,1/2-y,1/2+z
1/2+x,1/2-y,-z
1/2-x,1/2+y,1/2-z
loop_
_atom_site_type_symbol
_atom_site_label
_atom_site_fract_x
_atom_site_fract_y
_atom_site_fract_z
Si Si1 0.425321 0.500000 0.500000
Si Si2 0.941938 0.614646 0.871657
Si Si3 0.198661 0.000000 0.500000
Si Si4 0.000000 0.148086 0.250000
Si Si5 0.838987 0.731758 0.867170
Si Si6 0.644082 0.256410 0.048241
Si Si7 0.735165 0.395446 0.147809
Si Si8 0.084594 0.500000 0.000000
O O1 0.460068 0.562848 0.352197
O O2 0.391520 0.617977 0.576150
O O3 0.886376 0.650465 0.920991
O O4 0.942162 0.565161 0.668065
O O5 0.971731 0.751384 0.879895
O O6 0.959478 0.500000 0.000000
O O7 0.165445 0.873957 0.542531
O O8 0.232122 0.966339 0.334231
O O9 0.844247 0.754719 0.658974
O O10 0.788228 0.657493 0.896474
O O11 0.694766 0.279482 0.146899
O O12 0.617360 0.117840 0.082615
O O13 0.719495 0.500000 0.000000
#
# Coordination Sequence:
#
# PCOD9321024 Si02
#       8
#     4   8   4   4   8   8   8   4
#     4  12  24  51  76 109 161 200 259 326 394 476
#     4  11  27  49  74 112 148 187 257 319 379 463
#     4  12  26  40  70 100 144 194 253 296 371 446
#     4  12  28  48  78 114 146 208 266 314 410 466
#     4  11  24  46  70 106 146 196 249 304 381 463
#     4  11  23  49  73 108 155 202 246 317 386 456
#     4  12  25  43  69 106 150 197 248 309 373 463
#     4  10  24  47  78 103 149 200 236 312 395 438
#
# _framework density 22.78735
#
# number of rings (size 3 to 8) (size 9 to 14) (size 15 to 20)
#    0.000    0.667    5.833    1.500    3.500    8.000 
#    0.000    0.000    0.000    0.000    0.000    0.000 
#    0.000    0.000    0.000    0.000    0.000    0.000 
#
# Total GULP energy -134437.394182 kJ/mol
# GULP energy per Si atom -5601.558091 kJ/mol
# Density = 2.273549 g / cm^3
# Si number density = 22.787350 Si / 1000 Ang^3
#
#
#
# Elastic Constant Matrix: (Units=GPa)
#
#
# Indices 1 2 3 4 5 6 
#
# 1 123.8128 45.3811 -5.9320 0.0000 0.0000 0.0000
# 2 45.3811 119.5395 9.9227 0.0000 0.0000 0.0000
# 3 -5.9320 9.9227 50.7268 0.0000 0.0000 0.0000
# 4 0.0000 0.0000 0.0000 46.7759 0.0000 0.0000
# 5 0.0000 0.0000 0.0000 0.0000 20.8226 0.0000
# 6 0.0000 0.0000 0.0000 0.0000 0.0000 17.2437
#
#
#
# Elastic Compliance Matrix: (Units=1/GPa)
#
#
# Indices 1 2 3 4 5 6 
#
# 1 0.009551 -0.003780 0.001856 0.000000 0.000000 0.000000
# 2 -0.003780 0.010000 -0.002398 0.000000 0.000000 0.000000
# 3 0.001856 -0.002398 0.020400 0.000000 0.000000 0.000000
# 4 0.000000 0.000000 0.000000 0.021379 0.000000 0.000000
# 5 0.000000 0.000000 0.000000 0.000000 0.048025 0.000000
# 6 0.000000 0.000000 0.000000 0.000000 0.000000 0.057992
#
#
# Mechanical properties :
#
#
# Convention : Reuss Voigt Hill
#
# Bulk Modulus (GPa) = 31.94195 43.64696 37.79446
# Shear Modulus (GPa) = 26.82045 33.28225 30.05135
#
# Velocity S-wave (km/s) = 3.43445 3.82587 3.63543
# Velocity P-wave (km/s) = 5.45665 6.22190 5.85180
#
# Compressibility (1/GPa) = 0.03130680
#
# Stress axis : x y z
#
# Youngs Moduli (GPa) = 104.69958 100.00489 49.02054
#
# Poissons Ratio (x) = 0.37802 -0.09100
# Poissons Ratio (y) = 0.39577 0.11755
# Poissons Ratio (z) = -0.19436 0.23982
#
# Static dielectric constant tensor:
#      x y z
#    x 1.869930 0.000000 0.000000 
#    y 0.000000 1.844550 0.000000 
#    z 0.000000 0.000000 1.817090 
# 
# From -- ./inp_files/11540.got.cif
#   From: 2010.05.17/outbox.cif.g08.bks.cpg/sg20_6_cif.got.tgz:11540.got - 2010.06.03 22:52:26.
