data_PCOD9321837
_publ_section_title
;
Structure prediction by ZEFSAII (Michael W. Deem and Ramdas Pophale) SiO2 
 PCOD9321837
Probable space group: C 2 2 21
;
_chemical_formula_sum "Si O2"
_cell_formula_units_Z 48
_cell_length_a 9.889477
_cell_length_b 10.039906
_cell_length_c 24.002452
_cell_angle_alpha 90.000000
_cell_angle_beta 90.000000
_cell_angle_gamma 90.000000
_cell_volume 2383.189525
_symmetry_space_group_name_H-M "C 2 2 21"
_symmetry_group_IT_number 20
_symmetry_cell_setting 'orthorhombic'
loop_
_space_group_symop_operation_xyz
x,y,z
-x,-y,1/2+z
x,-y,-z
-x,y,1/2-z
1/2+x,1/2+y,z
1/2-x,1/2-y,1/2+z
1/2+x,1/2-y,-z
1/2-x,1/2+y,1/2-z
loop_
_atom_site_type_symbol
_atom_site_label
_atom_site_fract_x
_atom_site_fract_y
_atom_site_fract_z
Si Si1 0.529692 0.872517 0.465319
Si Si2 0.031482 0.498207 0.657028
Si Si3 0.234123 0.961419 0.650141
Si Si4 0.600957 0.288956 0.303252
Si Si5 0.760257 0.132984 0.025162
Si Si6 0.145617 0.722864 0.726131
O O1 0.530999 0.924052 0.401710
O O2 0.378490 0.840875 0.489980
O O3 0.634092 0.752682 0.473695
O O4 0.577439 0.000000 0.500000
O O5 0.063123 0.340820 0.660366
O O6 0.132476 0.578644 0.697044
O O7 0.876231 0.506422 0.677122
O O8 0.126559 0.080638 0.658675
O O9 0.271233 0.914206 0.587967
O O10 0.180206 0.831233 0.679939
O O11 0.500000 0.308217 0.250000
O O12 0.742338 0.263368 0.272947
O O13 0.826188 0.000000 0.000000
O O14 0.000000 0.755394 0.750000
#
# Coordination Sequence:
#
# PCOD9321837 Si02
#       6
#     8   8   8   8   8   8
#     4  11  25  46  73 102 139 183 228 289 352 410
#     4  12  24  46  70 102 143 180 229 293 346 403
#     4  12  24  45  69 103 138 180 233 286 339 412
#     4  12  26  43  72 103 141 189 231 281 342 412
#     4  11  25  46  72 102 138 178 232 287 348 412
#     4  12  24  45  70  99 143 185 229 283 343 405
#
# _framework density 20.141076000000002
#
# number of rings (size 3 to 8) (size 9 to 14) (size 15 to 20)
#    0.000    0.333    8.333    2.000    2.333    0.667 
#    0.000    3.333    0.000    0.000    0.000    0.000 
#    0.000    0.000    0.000    0.000    0.000    0.000 
#
# Total GULP energy -133950.924708 kJ/mol
# GULP energy per Si atom -5581.288529 kJ/mol
# Density = 2.009523 g / cm^3
# Si number density = 20.141076 Si / 1000 Ang^3
#
#
#
# Elastic Constant Matrix: (Units=GPa)
#
#
# Indices 1 2 3 4 5 6 
#
# 1 104.2512 51.2169 32.1487 0.0000 0.0000 0.0000
# 2 51.2169 145.4185 23.6099 0.0000 0.0000 0.0000
# 3 32.1487 23.6099 88.1511 0.0000 0.0000 0.0000
# 4 0.0000 0.0000 0.0000 30.1348 0.0000 0.0000
# 5 0.0000 0.0000 0.0000 0.0000 28.5804 0.0000
# 6 0.0000 0.0000 0.0000 0.0000 0.0000 43.9038
#
#
#
# Elastic Compliance Matrix: (Units=1/GPa)
#
#
# Indices 1 2 3 4 5 6 
#
# 1 0.012582 -0.003854 -0.003557 0.000000 0.000000 0.000000
# 2 -0.003854 0.008370 -0.000836 0.000000 0.000000 0.000000
# 3 -0.003557 -0.000836 0.012865 0.000000 0.000000 0.000000
# 4 0.000000 0.000000 0.000000 0.033184 0.000000 0.000000
# 5 0.000000 0.000000 0.000000 0.000000 0.034989 0.000000
# 6 0.000000 0.000000 0.000000 0.000000 0.000000 0.022777
#
#
# Mechanical properties :
#
#
# Convention : Reuss Voigt Hill
#
# Bulk Modulus (GPa) = 57.72383 61.30795 59.51589
# Shear Modulus (GPa) = 34.00525 35.91350 34.95938
#
# Velocity S-wave (km/s) = 4.11342 4.22725 4.17072
# Velocity P-wave (km/s) = 7.16116 7.37100 7.26684
#
# Compressibility (1/GPa) = 0.01732387
#
# Stress axis : x y z
#
# Youngs Moduli (GPa) = 79.47580 119.47574 77.72927
#
# Poissons Ratio (x) = 0.46048 0.27645
# Poissons Ratio (y) = 0.30631 0.06499
# Poissons Ratio (z) = 0.28266 0.09990
#
# Static dielectric constant tensor:
#      x y z
#    x 1.704990 0.000000 0.000000 
#    y 0.000000 1.718060 0.000000 
#    z 0.000000 0.000000 1.887470 
# 
# From -- ./inp_files/29091.got.cif
#   From: 2010.05.17/outbox.cif.g08.bks.cpg/sg20_15_cif.got.tgz:29091.got - 2010.06.03 22:52:26.
