data_PCOD9321611
_publ_section_title
;
Structure prediction by ZEFSAII (Michael W. Deem and Ramdas Pophale) SiO2 
 PCOD9321611
Probable space group: C 2 2 21
;
_chemical_formula_sum "Si O2"
_cell_formula_units_Z 56
_cell_length_a 8.899791
_cell_length_b 15.890634
_cell_length_c 18.414202
_cell_angle_alpha 90.000000
_cell_angle_beta 90.000000
_cell_angle_gamma 90.000000
_cell_volume 2604.197609
_symmetry_space_group_name_H-M "C 2 2 21"
_symmetry_group_IT_number 20
_symmetry_cell_setting 'orthorhombic'
loop_
_space_group_symop_operation_xyz
x,y,z
-x,-y,1/2+z
x,-y,-z
-x,y,1/2-z
1/2+x,1/2+y,z
1/2-x,1/2-y,1/2+z
1/2+x,1/2-y,-z
1/2-x,1/2+y,1/2-z
loop_
_atom_site_type_symbol
_atom_site_label
_atom_site_fract_x
_atom_site_fract_y
_atom_site_fract_z
Si Si1 0.210094 0.319406 0.568024
Si Si2 0.044247 0.813287 0.335798
Si Si3 0.485623 0.279102 0.641897
Si Si4 0.248505 0.531469 0.815131
Si Si5 0.454271 0.936920 0.566582
Si Si6 0.215646 0.262221 0.925102
Si Si7 0.500000 0.128437 0.750000
Si Si8 0.500000 0.586624 0.250000
O O1 0.388126 0.300636 0.571941
O O2 0.184451 0.280764 0.487946
O O3 0.141681 0.264618 0.633979
O O4 0.128973 0.409158 0.575471
O O5 0.894661 0.803508 0.384886
O O6 0.000000 0.809850 0.250000
O O7 0.150111 0.893853 0.349698
O O8 0.661068 0.294030 0.631980
O O9 0.476944 0.188515 0.680088
O O10 0.421812 0.349745 0.695067
O O11 0.130545 0.483604 0.867283
O O12 0.373595 0.469162 0.785983
O O13 0.148938 0.572297 0.750767
O O14 0.374152 0.846361 0.552257
O O15 0.440194 0.000000 0.500000
#
# Coordination Sequence:
#
# PCOD9321611 Si02
#       8
#     8   8   8   8   8   8   4   4
#     4  11  25  44  71  99 138 189 244 288 347 444
#     4  11  23  43  74 105 138 186 243 294 357 434
#     4  11  23  45  66 101 133 183 235 285 348 429
#     4  12  24  46  67 106 142 183 227 306 368 425
#     4  11  26  46  67  99 139 185 234 295 358 421
#     4  11  24  46  73  97 138 194 235 292 355 436
#     4  11  26  40  76  95 138 186 226 295 352 440
#     4  11  26  42  64 101 148 174 232 291 374 412
#
# _framework density 21.503743
#
# number of rings (size 3 to 8) (size 9 to 14) (size 15 to 20)
#    0.000    0.857    3.571    3.429    6.000    0.000 
#    3.857    0.714    0.000    0.000    0.000    0.000 
#    0.000    0.000    0.000    0.000    0.000    0.000 
#
# Total GULP energy -156103.000812 kJ/mol
# GULP energy per Si atom -5575.107172 kJ/mol
# Density = 2.145480 g / cm^3
# Si number density = 21.503743 Si / 1000 Ang^3
#
#
#
# Elastic Constant Matrix: (Units=GPa)
#
#
# Indices 1 2 3 4 5 6 
#
# 1 121.4422 42.9001 33.3200 0.0000 0.0000 0.0000
# 2 42.9001 102.3199 46.2854 0.0000 0.0000 0.0000
# 3 33.3200 46.2854 66.4956 0.0000 0.0000 0.0000
# 4 0.0000 0.0000 0.0000 5.9819 0.0000 0.0000
# 5 0.0000 0.0000 0.0000 0.0000 35.8496 0.0000
# 6 0.0000 0.0000 0.0000 0.0000 0.0000 92.1785
#
#
#
# Elastic Compliance Matrix: (Units=1/GPa)
#
#
# Indices 1 2 3 4 5 6 
#
# 1 0.010080 -0.002834 -0.003079 0.000000 0.000000 0.000000
# 2 -0.002834 0.015062 -0.009064 0.000000 0.000000 0.000000
# 3 -0.003079 -0.009064 0.022890 0.000000 0.000000 0.000000
# 4 0.000000 0.000000 0.000000 0.167172 0.000000 0.000000
# 5 0.000000 0.000000 0.000000 0.000000 0.027894 0.000000
# 6 0.000000 0.000000 0.000000 0.000000 0.000000 0.010849
#
#
# Mechanical properties :
#
#
# Convention : Reuss Voigt Hill
#
# Bulk Modulus (GPa) = 55.31096 59.47429 57.39263
# Shear Modulus (GPa) = 17.24583 37.98548 27.61566
#
# Velocity S-wave (km/s) = 2.83502 4.20749 3.58750
# Velocity P-wave (km/s) = 6.04101 7.16391 6.62629
#
# Compressibility (1/GPa) = 0.01807960
#
# Stress axis : x y z
#
# Youngs Moduli (GPa) = 99.20597 66.39444 43.68666
#
# Poissons Ratio (x) = 0.18814 0.13449
# Poissons Ratio (y) = 0.28112 0.39597
# Poissons Ratio (z) = 0.30541 0.60179
#
# Static dielectric constant tensor:
#      x y z
#    x 2.040120 0.000000 0.000000 
#    y 0.000000 1.753690 0.000000 
#    z 0.000000 0.000000 1.251470 
# 
# From -- ./inp_files/26778.got.cif
#   From: 2010.05.17/outbox.cif.g08.bks.cpg/sg20_14_cif.got.tgz:26778.got - 2010.06.03 22:52:26.
