data_PCOD9321559
_publ_section_title
;
Structure prediction by ZEFSAII (Michael W. Deem and Ramdas Pophale) SiO2 
 PCOD9321559
Probable space group: C 2 2 21
;
_chemical_formula_sum "Si O2"
_cell_formula_units_Z 36
_cell_length_a 5.326918
_cell_length_b 22.860697
_cell_length_c 13.935485
_cell_angle_alpha 90.000000
_cell_angle_beta 90.000000
_cell_angle_gamma 90.000000
_cell_volume 1697.022370
_symmetry_space_group_name_H-M "C 2 2 21"
_symmetry_group_IT_number 20
_symmetry_cell_setting 'orthorhombic'
loop_
_space_group_symop_operation_xyz
x,y,z
-x,-y,1/2+z
x,-y,-z
-x,y,1/2-z
1/2+x,1/2+y,z
1/2-x,1/2-y,1/2+z
1/2+x,1/2-y,-z
1/2-x,1/2+y,1/2-z
loop_
_atom_site_type_symbol
_atom_site_label
_atom_site_fract_x
_atom_site_fract_y
_atom_site_fract_z
Si Si1 0.652354 0.827113 0.398497
Si Si2 0.932372 0.894890 0.858869
Si Si3 0.661210 0.720583 0.098175
Si Si4 0.000000 0.764766 0.250000
Si Si5 0.068220 0.432420 0.526184
O O1 0.404405 0.788374 0.397364
O O2 0.792400 0.799540 0.490704
O O3 0.584884 0.892587 0.429556
O O4 0.806259 0.808134 0.304960
O O5 0.669304 0.914190 0.906786
O O6 0.000000 0.912628 0.750000
O O7 0.952925 0.824156 0.863795
O O8 0.168316 0.919211 0.920522
O O9 0.891442 0.720343 0.170345
O O10 0.045617 0.500000 0.500000
#
# Coordination Sequence:
#
# PCOD9321559 Si02
#       5
#     8   8   8   4   8
#     4  11  23  41  69  98 147 184 236 290 360 429
#     4  11  24  43  74 102 134 179 243 292 353 424
#     4  11  23  40  68 103 140 183 225 298 357 434
#     4  12  24  40  66 110 146 186 234 280 376 432
#     4  11  26  47  71  99 142 191 236 295 351 411
#
# _framework density 21.213625
#
# number of rings (size 3 to 8) (size 9 to 14) (size 15 to 20)
#    0.000    0.889    2.222    4.667   12.444    0.000 
#    2.000    2.222    0.000    0.000    0.000    0.000 
#    0.000    0.000    0.000    0.000    0.000    0.000 
#
# Total GULP energy -100458.529259 kJ/mol
# GULP energy per Si atom -5581.029403 kJ/mol
# Density = 2.116534 g / cm^3
# Si number density = 21.213625 Si / 1000 Ang^3
#
#
#
# Elastic Constant Matrix: (Units=GPa)
#
#
# Indices 1 2 3 4 5 6 
#
# 1 94.1913 23.2990 25.1680 0.0000 0.0000 0.0000
# 2 23.2990 142.4785 35.0819 0.0000 0.0000 0.0000
# 3 25.1680 35.0819 92.1631 0.0000 0.0000 0.0000
# 4 0.0000 0.0000 0.0000 13.2864 0.0000 0.0000
# 5 0.0000 0.0000 0.0000 0.0000 39.8140 0.0000
# 6 0.0000 0.0000 0.0000 0.0000 0.0000 25.2095
#
#
#
# Elastic Compliance Matrix: (Units=1/GPa)
#
#
# Indices 1 2 3 4 5 6 
#
# 1 0.011647 -0.001237 -0.002709 0.000000 0.000000 0.000000
# 2 -0.001237 0.007876 -0.002660 0.000000 0.000000 0.000000
# 3 -0.002709 -0.002660 0.012603 0.000000 0.000000 0.000000
# 4 0.000000 0.000000 0.000000 0.075265 0.000000 0.000000
# 5 0.000000 0.000000 0.000000 0.000000 0.025117 0.000000
# 6 0.000000 0.000000 0.000000 0.000000 0.000000 0.039668
#
#
# Mechanical properties :
#
#
# Convention : Reuss Voigt Hill
#
# Bulk Modulus (GPa) = 52.87771 55.10340 53.99056
# Shear Modulus (GPa) = 26.08348 32.01427 29.04887
#
# Velocity S-wave (km/s) = 3.51032 3.88898 3.70449
# Velocity P-wave (km/s) = 6.43507 6.79687 6.61844
#
# Compressibility (1/GPa) = 0.01891156
#
# Stress axis : x y z
#
# Youngs Moduli (GPa) = 85.86087 126.96919 79.34751
#
# Poissons Ratio (x) = 0.15711 0.21499
# Poissons Ratio (y) = 0.10624 0.21107
# Poissons Ratio (z) = 0.23264 0.33775
#
# Static dielectric constant tensor:
#      x y z
#    x 1.910910 0.000000 0.000000 
#    y 0.000000 1.760320 0.000000 
#    z 0.000000 0.000000 1.867840 
# 
# From -- ./inp_files/17590.got.cif
#   From: 2010.05.17/outbox.cif.g08.bks.cpg/sg20_9_cif.got.tgz:17590.got - 2010.06.03 22:52:26.
