data_PCOD9321111
_publ_section_title
;
Structure prediction by ZEFSAII (Michael W. Deem and Ramdas Pophale) SiO2 
 PCOD9321111
Probable space group: C 2 2 21
;
_chemical_formula_sum "Si O2"
_cell_formula_units_Z 40
_cell_length_a 19.065665
_cell_length_b 16.467977
_cell_length_c 5.754556
_cell_angle_alpha 90.000000
_cell_angle_beta 90.000000
_cell_angle_gamma 90.000000
_cell_volume 1806.774824
_symmetry_space_group_name_H-M "C 2 2 21"
_symmetry_group_IT_number 20
_symmetry_cell_setting 'orthorhombic'
loop_
_space_group_symop_operation_xyz
x,y,z
-x,-y,1/2+z
x,-y,-z
-x,y,1/2-z
1/2+x,1/2+y,z
1/2-x,1/2-y,1/2+z
1/2+x,1/2-y,-z
1/2-x,1/2+y,1/2-z
loop_
_atom_site_type_symbol
_atom_site_label
_atom_site_fract_x
_atom_site_fract_y
_atom_site_fract_z
Si Si1 0.683806 0.176084 0.907766
Si Si2 0.933397 0.089531 0.406116
Si Si3 0.578886 0.742691 0.753633
Si Si4 0.580981 0.953317 0.252478
Si Si5 0.175647 0.166315 0.375740
O O1 0.637916 0.118147 0.746886
O O2 0.702050 0.263525 0.797886
O O3 0.632334 0.196239 0.122404
O O4 0.758088 0.138611 0.976901
O O5 0.927177 0.159951 0.596105
O O6 0.862517 0.094467 0.257733
O O7 0.000000 0.110302 0.250000
O O8 0.944178 0.000000 0.500000
O O9 0.500000 0.777204 0.750000
O O10 0.614709 0.712381 0.518711
O O11 0.500000 0.923721 0.250000
O O12 0.588683 0.000000 0.500000
O O13 0.590732 0.000000 0.000000
#
# Coordination Sequence:
#
# PCOD9321111 Si02
#       5
#     8   8   8   8   8
#     4  11  25  43  70  98 137 180 224 305 351 420
#     4  11  24  42  68  99 139 184 228 286 341 424
#     4  11  23  41  69 101 131 180 235 282 347 419
#     4  10  25  47  72 104 138 182 240 295 358 432
#     4  11  24  44  66 101 138 177 235 282 355 418
#
# _framework density 22.138895999999999
#
# number of rings (size 3 to 8) (size 9 to 14) (size 15 to 20)
#    0.000    1.200    4.000    0.600    5.600    0.800 
#    3.600    0.000    0.000    0.000    0.000    0.000 
#    0.000    0.000    0.000    0.000    0.000    0.000 
#
# Total GULP energy -111772.759116 kJ/mol
# GULP energy per Si atom -5588.637956 kJ/mol
# Density = 2.208851 g / cm^3
# Si number density = 22.138896 Si / 1000 Ang^3
#
#
#
# Elastic Constant Matrix: (Units=GPa)
#
#
# Indices 1 2 3 4 5 6 
#
# 1 123.5536 14.0763 18.2784 0.0000 0.0000 0.0000
# 2 14.0763 28.9172 1.0223 0.0000 0.0000 0.0000
# 3 18.2784 1.0223 61.8708 0.0000 0.0000 0.0000
# 4 0.0000 0.0000 0.0000 28.0338 0.0000 0.0000
# 5 0.0000 0.0000 0.0000 0.0000 42.0665 0.0000
# 6 0.0000 0.0000 0.0000 0.0000 0.0000 21.4467
#
#
#
# Elastic Compliance Matrix: (Units=1/GPa)
#
#
# Indices 1 2 3 4 5 6 
#
# 1 0.008961 -0.004271 -0.002577 0.000000 0.000000 0.000000
# 2 -0.004271 0.036637 0.000656 0.000000 0.000000 0.000000
# 3 -0.002577 0.000656 0.016913 0.000000 0.000000 0.000000
# 4 0.000000 0.000000 0.000000 0.035671 0.000000 0.000000
# 5 0.000000 0.000000 0.000000 0.000000 0.023772 0.000000
# 6 0.000000 0.000000 0.000000 0.000000 0.000000 0.046627
#
#
# Mechanical properties :
#
#
# Convention : Reuss Voigt Hill
#
# Bulk Modulus (GPa) = 19.94860 31.23284 25.59072
# Shear Modulus (GPa) = 25.29401 30.37370 27.83386
#
# Velocity S-wave (km/s) = 3.38378 3.70802 3.54960
# Velocity P-wave (km/s) = 4.92918 5.69832 5.32765
#
# Compressibility (1/GPa) = 0.05012884
#
# Stress axis : x y z
#
# Youngs Moduli (GPa) = 111.58861 27.29450 59.12552
#
# Poissons Ratio (x) = 0.11658 0.15236
# Poissons Ratio (y) = 0.47661 -0.03881
# Poissons Ratio (z) = 0.28755 -0.01792
#
# Static dielectric constant tensor:
#      x y z
#    x 1.807170 0.000000 0.000000 
#    y 0.000000 1.777690 0.000000 
#    z 0.000000 0.000000 1.868980 
# 
# From -- ./inp_files/2471.got.cif
#   From: 2010.05.17/outbox.cif.g08.bks.cpg/sg20_2_cif.got.tgz:2471.got - 2010.06.03 22:52:26.
