data_PCOD9321518
_publ_section_title
;
Structure prediction by ZEFSAII (Michael W. Deem and Ramdas Pophale) SiO2 
 PCOD9321518
Probable space group: C 2 2 21
;
_chemical_formula_sum "Si O2"
_cell_formula_units_Z 36
_cell_length_a 5.872225
_cell_length_b 20.419852
_cell_length_c 13.599330
_cell_angle_alpha 90.000000
_cell_angle_beta 90.000000
_cell_angle_gamma 90.000000
_cell_volume 1630.695190
_symmetry_space_group_name_H-M "C 2 2 21"
_symmetry_group_IT_number 20
_symmetry_cell_setting 'orthorhombic'
loop_
_space_group_symop_operation_xyz
x,y,z
-x,-y,1/2+z
x,-y,-z
-x,y,1/2-z
1/2+x,1/2+y,z
1/2-x,1/2-y,1/2+z
1/2+x,1/2-y,-z
1/2-x,1/2+y,1/2-z
loop_
_atom_site_type_symbol
_atom_site_label
_atom_site_fract_x
_atom_site_fract_y
_atom_site_fract_z
Si Si1 0.710387 0.056477 0.676772
Si Si2 0.060627 0.261538 0.553987
Si Si3 0.616677 0.106993 0.143423
Si Si4 0.979035 0.500000 0.000000
Si Si5 0.000000 0.934898 0.750000
Si Si6 0.000000 0.823135 0.250000
O O1 0.500000 0.051822 0.750000
O O2 0.821867 0.124851 0.705599
O O3 0.656768 0.053382 0.562073
O O4 0.846429 0.988591 0.693645
O O5 0.813874 0.242533 0.498893
O O6 0.002536 0.335517 0.585481
O O7 0.077078 0.220215 0.656551
O O8 0.500000 0.102667 0.250000
O O9 0.613148 0.040253 0.081506
O O10 0.879844 0.112703 0.172408
#
# Coordination Sequence:
#
# PCOD9321518 Si02
#       6
#     8   8   8   4   4   4
#     4  11  24  45  71 110 155 198 254 325 391 463
#     4  12  31  53  80 117 154 213 272 319 394 472
#     4  12  26  47  74 110 155 201 251 330 385 469
#     4  12  22  44  74 108 152 192 262 312 400 472
#     4  11  22  44  72 106 146 197 246 312 408 431
#     4  11  28  48  80 108 162 209 260 332 386 467
#
# _framework density 22.076474999999999
#
# number of rings (size 3 to 8) (size 9 to 14) (size 15 to 20)
#    0.000    0.444    5.556    1.333    9.333    2.667 
#    0.000    0.000    0.000    0.000    0.000    0.000 
#    0.000    0.000    0.000    0.000    0.000    0.000 
#
# Total GULP energy -100220.181100 kJ/mol
# GULP energy per Si atom -5567.787839 kJ/mol
# Density = 2.202623 g / cm^3
# Si number density = 22.076475 Si / 1000 Ang^3
#
#
#
# Elastic Constant Matrix: (Units=GPa)
#
#
# Indices 1 2 3 4 5 6 
#
# 1 65.1168 13.4858 43.4210 0.0000 0.0000 0.0000
# 2 13.4858 94.0726 40.4483 0.0000 0.0000 0.0000
# 3 43.4210 40.4483 140.1211 0.0000 0.0000 0.0000
# 4 0.0000 0.0000 0.0000 1143.9171 0.0000 0.0000
# 5 0.0000 0.0000 0.0000 0.0000 35.8742 0.0000
# 6 0.0000 0.0000 0.0000 0.0000 0.0000 -26.3181
#
#
#
# Elastic Compliance Matrix: (Units=1/GPa)
#
#
# Indices 1 2 3 4 5 6 
#
# 1 0.019361 -0.000224 -0.005935 0.000000 0.000000 0.000000
# 2 -0.000224 0.012139 -0.003435 0.000000 0.000000 0.000000
# 3 -0.005935 -0.003435 0.009967 0.000000 0.000000 0.000000
# 4 0.000000 0.000000 0.000000 0.000874 0.000000 0.000000
# 5 0.000000 0.000000 0.000000 0.000000 0.027875 0.000000
# 6 0.000000 0.000000 0.000000 0.000000 0.000000 -0.037997
#
#
# Mechanical properties :
#
#
# Convention : Reuss Voigt Hill
#
# Bulk Modulus (GPa) = 44.88265 54.89118 49.88692
# Shear Modulus (GPa) = 84.98516 244.15833 164.57174
#
# Velocity S-wave (km/s) = 6.21123 10.52790 8.64338
# Velocity P-wave (km/s) = 8.47430 13.14155 11.05699
#
# Compressibility (1/GPa) = 0.02228033
#
# Stress axis : x y z
#
# Youngs Moduli (GPa) = 51.65041 82.37902 100.32741
#
# Poissons Ratio (x) = 0.01842 0.59545
# Poissons Ratio (y) = 0.01155 0.34461
# Poissons Ratio (z) = 0.30655 0.28296
#
# Static dielectric constant tensor:
#      x y z
#    x 0.858750 0.000000 0.000000 
#    y 0.000000 1.805730 0.000000 
#    z 0.000000 0.000000 1.712670 
# 
# From -- ./inp_files/17557.got.cif
#   From: 2010.05.17/outbox.cif.g08.bks.cpg/sg20_9_cif.got.tgz:17557.got - 2010.06.03 22:52:26.
