data_PCOD9321701
_publ_section_title
;
Structure prediction by ZEFSAII (Michael W. Deem and Ramdas Pophale) SiO2 
 PCOD9321701
Probable space group: C 2 2 21
;
_chemical_formula_sum "Si O2"
_cell_formula_units_Z 40
_cell_length_a 10.714738
_cell_length_b 17.941556
_cell_length_c 9.250252
_cell_angle_alpha 90.000000
_cell_angle_beta 90.000000
_cell_angle_gamma 90.000000
_cell_volume 1778.259859
_symmetry_space_group_name_H-M "C 2 2 21"
_symmetry_group_IT_number 20
_symmetry_cell_setting 'orthorhombic'
loop_
_space_group_symop_operation_xyz
x,y,z
-x,-y,1/2+z
x,-y,-z
-x,y,1/2-z
1/2+x,1/2+y,z
1/2-x,1/2-y,1/2+z
1/2+x,1/2-y,-z
1/2-x,1/2+y,1/2-z
loop_
_atom_site_type_symbol
_atom_site_label
_atom_site_fract_x
_atom_site_fract_y
_atom_site_fract_z
Si Si1 0.249619 0.480499 0.148101
Si Si2 0.216392 0.759151 0.974081
Si Si3 0.355419 0.335022 0.236011
Si Si4 0.133873 0.616015 0.328580
Si Si5 0.531739 0.133100 0.915048
O O1 0.327188 0.422594 0.243597
O O2 0.193854 0.548474 0.240041
O O3 0.135474 0.430821 0.086802
O O4 0.321761 0.500000 0.000000
O O5 0.312113 0.695325 0.920747
O O6 0.257380 0.823233 0.859424
O O7 0.087309 0.712724 0.965333
O O8 0.218148 0.793967 0.133706
O O9 0.500000 0.319984 0.250000
O O10 0.000000 0.637236 0.250000
O O11 0.081208 0.603200 0.489253
O O12 0.500000 0.144151 0.750000
#
# Coordination Sequence:
#
# PCOD9321701 Si02
#       5
#     8   8   8   8   8
#     4  11  25  44  68 102 139 183 245 296 343 427
#     4  11  24  43  70 104 138 181 235 287 351 436
#     4  11  26  48  71 102 148 186 233 295 359 420
#     4  12  23  42  73 100 139 190 234 293 357 412
#     4  11  24  41  67 104 141 176 232 295 362 417
#
# _framework density 22.493901999999999
#
# number of rings (size 3 to 8) (size 9 to 14) (size 15 to 20)
#    0.000    0.800    2.000    6.000    2.800    4.000 
#    3.600    0.000    0.000    0.000    0.000    0.000 
#    0.000    0.000    0.000    0.000    0.000    0.000 
#
# Total GULP energy -111535.589302 kJ/mol
# GULP energy per Si atom -5576.779465 kJ/mol
# Density = 2.244270 g / cm^3
# Si number density = 22.493902 Si / 1000 Ang^3
#
#
#
# Elastic Constant Matrix: (Units=GPa)
#
#
# Indices 1 2 3 4 5 6 
#
# 1 56.4484 32.9764 41.5864 0.0000 0.0000 0.0000
# 2 32.9764 133.0197 46.3566 0.0000 0.0000 0.0000
# 3 41.5864 46.3566 119.2422 0.0000 0.0000 0.0000
# 4 0.0000 0.0000 0.0000 30.4090 0.0000 0.0000
# 5 0.0000 0.0000 0.0000 0.0000 24.7552 0.0000
# 6 0.0000 0.0000 0.0000 0.0000 0.0000 22.0682
#
#
#
# Elastic Compliance Matrix: (Units=1/GPa)
#
#
# Indices 1 2 3 4 5 6 
#
# 1 0.025324 -0.003702 -0.007393 0.000000 0.000000 0.000000
# 2 -0.003702 0.009237 -0.002300 0.000000 0.000000 0.000000
# 3 -0.007393 -0.002300 0.011859 0.000000 0.000000 0.000000
# 4 0.000000 0.000000 0.000000 0.032885 0.000000 0.000000
# 5 0.000000 0.000000 0.000000 0.000000 0.040396 0.000000
# 6 0.000000 0.000000 0.000000 0.000000 0.000000 0.045314
#
#
# Mechanical properties :
#
#
# Convention : Reuss Voigt Hill
#
# Bulk Modulus (GPa) = 50.94037 61.17213 56.05625
# Shear Modulus (GPa) = 25.20833 27.96586 26.58709
#
# Velocity S-wave (km/s) = 3.35128 3.52982 3.44171
# Velocity P-wave (km/s) = 6.13761 6.62321 6.38502
#
# Compressibility (1/GPa) = 0.01963080
#
# Stress axis : x y z
#
# Youngs Moduli (GPa) = 39.48789 108.26180 84.32594
#
# Poissons Ratio (x) = 0.40075 0.62342
# Poissons Ratio (y) = 0.14617 0.19395
# Poissons Ratio (z) = 0.29193 0.24900
#
# Static dielectric constant tensor:
#      x y z
#    x 1.854260 0.000000 0.000000 
#    y 0.000000 1.947660 0.000000 
#    z 0.000000 0.000000 1.913370 
# 
# From -- ./inp_files/7084.got.cif
#   From: 2010.05.17/outbox.cif.g08.bks.cpg/sg20_4_cif.got.tgz:7084.got - 2010.06.03 22:52:26.
