data_PCOD9321356
_publ_section_title
;
Structure prediction by ZEFSAII (Michael W. Deem and Ramdas Pophale) SiO2 
 PCOD9321356
Probable space group: C 2 2 21
;
_chemical_formula_sum "Si O2"
_cell_formula_units_Z 48
_cell_length_a 8.542591
_cell_length_b 18.867152
_cell_length_c 11.803609
_cell_angle_alpha 90.000000
_cell_angle_beta 90.000000
_cell_angle_gamma 90.000000
_cell_volume 1902.439160
_symmetry_space_group_name_H-M "C 2 2 21"
_symmetry_group_IT_number 20
_symmetry_cell_setting 'orthorhombic'
loop_
_space_group_symop_operation_xyz
x,y,z
-x,-y,1/2+z
x,-y,-z
-x,y,1/2-z
1/2+x,1/2+y,z
1/2-x,1/2-y,1/2+z
1/2+x,1/2-y,-z
1/2-x,1/2+y,1/2-z
loop_
_atom_site_type_symbol
_atom_site_label
_atom_site_fract_x
_atom_site_fract_y
_atom_site_fract_z
Si Si1 0.056950 0.404576 0.473904
Si Si2 0.290490 0.345040 0.292180
Si Si3 0.769872 0.035194 0.883749
Si Si4 0.824778 0.583243 0.210234
Si Si5 0.662740 0.725484 0.157199
Si Si6 0.016363 0.754311 0.455232
O O1 0.191889 0.389334 0.383135
O O2 0.143513 0.439801 0.581046
O O3 0.988115 0.329466 0.522742
O O4 0.905545 0.440830 0.419775
O O5 0.339528 0.398103 0.188369
O O6 0.164693 0.289256 0.243785
O O7 0.583790 0.294984 0.141095
O O8 0.750872 0.973885 0.791513
O O9 0.840120 0.000000 0.000000
O O10 0.722364 0.653634 0.211294
O O11 0.000000 0.600126 0.250000
O O12 0.801976 0.752312 0.074316
O O13 0.480317 0.710118 0.424845
#
# Coordination Sequence:
#
# PCOD9321356 Si02
#       6
#     8   8   8   8   8   8
#     4  11  23  41  66 108 140 181 241 292 367 427
#     4  12  24  41  69 105 138 187 232 293 363 429
#     4  12  26  39  67 105 148 184 236 306 364 424
#     4  11  21  41  65  98 140 182 233 297 354 414
#     4  11  24  41  73 104 142 182 235 294 358 426
#     4  11  22  45  66 105 139 182 235 293 348 426
#
# _framework density 25.230768000000001
#
# number of rings (size 3 to 8) (size 9 to 14) (size 15 to 20)
#    0.000    0.667    6.667    4.000    0.000    0.000 
#    0.000    0.000    0.000    4.000    0.000    0.000 
#    0.000    0.000    0.000    0.000    0.000    0.000 
#
# Total GULP energy -134246.225146 kJ/mol
# GULP energy per Si atom -5593.592714 kJ/mol
# Density = 2.517334 g / cm^3
# Si number density = 25.230768 Si / 1000 Ang^3
#
#
#
# Elastic Constant Matrix: (Units=GPa)
#
#
# Indices 1 2 3 4 5 6 
#
# 1 55.1163 24.1949 26.5322 0.0000 0.0000 0.0000
# 2 24.1949 138.1649 71.3595 0.0000 0.0000 0.0000
# 3 26.5322 71.3595 169.3518 0.0000 0.0000 0.0000
# 4 0.0000 0.0000 0.0000 65.4718 0.0000 0.0000
# 5 0.0000 0.0000 0.0000 0.0000 46.8175 0.0000
# 6 0.0000 0.0000 0.0000 0.0000 0.0000 30.2280
#
#
#
# Elastic Compliance Matrix: (Units=1/GPa)
#
#
# Indices 1 2 3 4 5 6 
#
# 1 0.020246 -0.002438 -0.002145 0.000000 0.000000 0.000000
# 2 -0.002438 0.009545 -0.003640 0.000000 0.000000 0.000000
# 3 -0.002145 -0.003640 0.007775 0.000000 0.000000 0.000000
# 4 0.000000 0.000000 0.000000 0.015274 0.000000 0.000000
# 5 0.000000 0.000000 0.000000 0.000000 0.021360 0.000000
# 6 0.000000 0.000000 0.000000 0.000000 0.000000 0.033082
#
#
# Mechanical properties :
#
#
# Convention : Reuss Voigt Hill
#
# Bulk Modulus (GPa) = 47.34724 67.42290 57.38507
# Shear Modulus (GPa) = 38.23648 44.53986 41.38817
#
# Velocity S-wave (km/s) = 3.89713 4.20610 4.05456
# Velocity P-wave (km/s) = 6.24952 7.09711 6.68676
#
# Compressibility (1/GPa) = 0.02112055
#
# Stress axis : x y z
#
# Youngs Moduli (GPa) = 49.39242 104.77225 128.62391
#
# Poissons Ratio (x) = 0.25540 0.27587
# Poissons Ratio (y) = 0.12040 0.46817
# Poissons Ratio (z) = 0.10594 0.38135
#
# Static dielectric constant tensor:
#      x y z
#    x 1.973290 0.000000 0.000000 
#    y 0.000000 2.055130 0.000000 
#    z 0.000000 0.000000 2.067260 
# 
# From -- ./inp_files/15195.got.cif
#   From: 2010.05.17/outbox.cif.g08.bks.cpg/sg20_8_cif.got.tgz:15195.got - 2010.06.03 22:52:26.
