data_PCOD9321998
_publ_section_title
;
Structure prediction by ZEFSAII (Michael W. Deem and Ramdas Pophale) SiO2 
 PCOD9321998
Probable space group: C 2 2 21
;
_chemical_formula_sum "Si O2"
_cell_formula_units_Z 28
_cell_length_a 11.854789
_cell_length_b 8.402163
_cell_length_c 11.762051
_cell_angle_alpha 90.000000
_cell_angle_beta 90.000000
_cell_angle_gamma 90.000000
_cell_volume 1171.569317
_symmetry_space_group_name_H-M "C 2 2 21"
_symmetry_group_IT_number 20
_symmetry_cell_setting 'orthorhombic'
loop_
_space_group_symop_operation_xyz
x,y,z
-x,-y,1/2+z
x,-y,-z
-x,y,1/2-z
1/2+x,1/2+y,z
1/2-x,1/2-y,1/2+z
1/2+x,1/2-y,-z
1/2-x,1/2+y,1/2-z
loop_
_atom_site_type_symbol
_atom_site_label
_atom_site_fract_x
_atom_site_fract_y
_atom_site_fract_z
Si Si1 0.376883 0.317838 0.204830
Si Si2 0.476845 0.500000 0.000000
Si Si3 0.531619 0.786100 0.132736
Si Si4 0.824360 0.536005 0.807401
O O1 0.500000 0.275621 0.250000
O O2 0.396700 0.436976 0.100845
O O3 0.299477 0.393840 0.302029
O O4 0.320945 0.150312 0.173581
O O5 0.548955 0.653017 0.039735
O O6 0.500000 0.693238 0.250000
O O7 0.622846 0.911894 0.181661
O O8 0.415655 0.882174 0.110097
#
# Coordination Sequence:
#
# PCOD9321998 Si02
#       4
#     8   4   8   8
#     4  12  24  46  72 100 137 186 220 292 337 412
#     4  12  24  38  72 110 134 172 250 268 342 410
#     4   8  20  47  63  99 139 178 222 282 333 405
#     4   9  22  47  69  91 142 184 222 274 356 392
#
# _framework density 23.899567999999999
#
# number of rings (size 3 to 8) (size 9 to 14) (size 15 to 20)
#    1.714    0.000    2.857    2.571    4.000    1.143 
#   10.286    0.000    0.000    0.000    0.000    0.000 
#    0.000    0.000    0.000    0.000    0.000    0.000 
#
# Total GULP energy -78059.195837 kJ/mol
# GULP energy per Si atom -5575.656846 kJ/mol
# Density = 2.384517 g / cm^3
# Si number density = 23.899568 Si / 1000 Ang^3
#
#
#
# Elastic Constant Matrix: (Units=GPa)
#
#
# Indices 1 2 3 4 5 6 
#
# 1 56.9448 4.9766 -9.0171 0.0000 0.0000 0.0000
# 2 4.9766 130.0220 25.5784 0.0000 0.0000 0.0000
# 3 -9.0171 25.5784 47.1392 0.0000 0.0000 0.0000
# 4 0.0000 0.0000 0.0000 33.3789 0.0000 0.0000
# 5 0.0000 0.0000 0.0000 0.0000 0.2328 0.0000
# 6 0.0000 0.0000 0.0000 0.0000 0.0000 31.7801
#
#
#
# Elastic Compliance Matrix: (Units=1/GPa)
#
#
# Indices 1 2 3 4 5 6 
#
# 1 0.018389 -0.001563 0.004365 0.000000 0.000000 0.000000
# 2 -0.001563 0.008743 -0.005043 0.000000 0.000000 0.000000
# 3 0.004365 -0.005043 0.024785 0.000000 0.000000 0.000000
# 4 0.000000 0.000000 0.000000 0.029959 0.000000 0.000000
# 5 0.000000 0.000000 0.000000 0.000000 4.295499 0.000000
# 6 0.000000 0.000000 0.000000 0.000000 0.000000 0.031466
#
#
# Mechanical properties :
#
#
# Convention : Reuss Voigt Hill
#
# Bulk Modulus (GPa) = 21.08083 30.79799 25.93941
# Shear Modulus (GPa) = 1.12889 27.24958 14.18924
#
# Velocity S-wave (km/s) = 0.68802 3.38030 2.43924
# Velocity P-wave (km/s) = 3.07748 5.30563 4.33708
#
# Compressibility (1/GPa) = 0.04743646
#
# Stress axis : x y z
#
# Youngs Moduli (GPa) = 54.38132 114.37888 40.34670
#
# Poissons Ratio (x) = 0.17873 -0.17613
# Poissons Ratio (y) = 0.08498 0.20346
# Poissons Ratio (z) = -0.23740 0.57680
#
# Static dielectric constant tensor:
#      x y z
#    x 1.936280 0.000000 0.000000 
#    y 0.000000 1.856050 0.000000 
#    z 0.000000 0.000000 1.973850 
# 
# From -- ./inp_files/19467.got.cif
#   From: 2010.05.17/outbox.cif.g08.bks.cpg/sg20_10_cif.got.tgz:19467.got - 2010.06.03 22:52:26.
