data_PCOD9321832
_publ_section_title
;
Structure prediction by ZEFSAII (Michael W. Deem and Ramdas Pophale) SiO2 
 PCOD9321832
Probable space group: C 2 2 21
;
_chemical_formula_sum "Si O2"
_cell_formula_units_Z 36
_cell_length_a 22.333534
_cell_length_b 9.021964
_cell_length_c 7.884375
_cell_angle_alpha 90.000000
_cell_angle_beta 90.000000
_cell_angle_gamma 90.000000
_cell_volume 1588.641166
_symmetry_space_group_name_H-M "C 2 2 21"
_symmetry_group_IT_number 20
_symmetry_cell_setting 'orthorhombic'
loop_
_space_group_symop_operation_xyz
x,y,z
-x,-y,1/2+z
x,-y,-z
-x,y,1/2-z
1/2+x,1/2+y,z
1/2-x,1/2-y,1/2+z
1/2+x,1/2-y,-z
1/2-x,1/2+y,1/2-z
loop_
_atom_site_type_symbol
_atom_site_label
_atom_site_fract_x
_atom_site_fract_y
_atom_site_fract_z
Si Si1 0.806440 0.550895 0.268913
Si Si2 0.564054 0.426559 0.319340
Si Si3 0.564100 0.925583 0.679727
Si Si4 0.853334 0.000000 0.500000
Si Si5 0.735652 0.236294 0.916321
O O1 0.877583 0.540700 0.294137
O O2 0.794734 0.665810 0.115479
O O3 0.778279 0.386943 0.270852
O O4 0.771101 0.637306 0.416707
O O5 0.579732 0.500000 0.500000
O O6 0.500000 0.483951 0.250000
O O7 0.559312 0.250534 0.344262
O O8 0.609091 0.453053 0.164530
O O9 0.500000 0.979105 0.750000
O O10 0.575773 0.000000 0.500000
O O11 0.814469 0.861962 0.564704
#
# Coordination Sequence:
#
# PCOD9321832 Si02
#       5
#     8   8   8   4   8
#     4  11  26  47  74 110 145 205 244 315 379 459
#     4  11  25  45  73 110 147 204 255 313 384 457
#     4  11  28  48  75 108 152 195 258 309 387 456
#     4  12  24  46  72 108 158 194 254 326 374 466
#     4  11  26  46  74 104 152 187 257 306 388 447
#
# _framework density 22.660874
#
# number of rings (size 3 to 8) (size 9 to 14) (size 15 to 20)
#    0.000    0.889    3.333    1.333   10.889    0.889 
#    0.000    0.000    0.000    0.000    0.000    0.000 
#    0.000    0.000    0.000    0.000    0.000    0.000 
#
# Total GULP energy -100583.465938 kJ/mol
# GULP energy per Si atom -5587.970330 kJ/mol
# Density = 2.260930 g / cm^3
# Si number density = 22.660874 Si / 1000 Ang^3
#
#
#
# Elastic Constant Matrix: (Units=GPa)
#
#
# Indices 1 2 3 4 5 6 
#
# 1 121.2456 39.5267 20.1205 0.0000 0.0000 0.0000
# 2 39.5267 139.0931 32.5455 0.0000 0.0000 0.0000
# 3 20.1205 32.5455 112.4835 0.0000 0.0000 0.0000
# 4 0.0000 0.0000 0.0000 36.4319 0.0000 0.0000
# 5 0.0000 0.0000 0.0000 0.0000 20.2566 0.0000
# 6 0.0000 0.0000 0.0000 0.0000 0.0000 38.3067
#
#
#
# Elastic Compliance Matrix: (Units=1/GPa)
#
#
# Indices 1 2 3 4 5 6 
#
# 1 0.009184 -0.002387 -0.000952 0.000000 0.000000 0.000000
# 2 -0.002387 0.008332 -0.001984 0.000000 0.000000 0.000000
# 3 -0.000952 -0.001984 0.009634 0.000000 0.000000 0.000000
# 4 0.000000 0.000000 0.000000 0.027448 0.000000 0.000000
# 5 0.000000 0.000000 0.000000 0.000000 0.049367 0.000000
# 6 0.000000 0.000000 0.000000 0.000000 0.000000 0.026105
#
#
# Mechanical properties :
#
#
# Convention : Reuss Voigt Hill
#
# Bulk Modulus (GPa) = 60.58953 61.91194 61.25073
# Shear Modulus (GPa) = 34.19554 37.70768 35.95161
#
# Velocity S-wave (km/s) = 3.88882 4.08364 3.98742
# Velocity P-wave (km/s) = 6.85269 7.04381 6.94891
#
# Compressibility (1/GPa) = 0.01650450
#
# Stress axis : x y z
#
# Youngs Moduli (GPa) = 108.88606 120.02019 103.79395
#
# Poissons Ratio (x) = 0.28649 0.09882
# Poissons Ratio (y) = 0.25992 0.20590
# Poissons Ratio (z) = 0.10367 0.23809
#
# Static dielectric constant tensor:
#      x y z
#    x 1.860350 0.000000 0.000000 
#    y 0.000000 1.783730 0.000000 
#    z 0.000000 0.000000 1.858120 
# 
# From -- ./inp_files/9853.got.cif
#   From: 2010.05.17/outbox.cif.g08.bks.cpg/sg20_5_cif.got.tgz:9853.got - 2010.06.03 22:52:26.
