data_PCOD9321572
_publ_section_title
;
Structure prediction by ZEFSAII (Michael W. Deem and Ramdas Pophale) SiO2 
 PCOD9321572
Probable space group: C 2 2 21
;
_chemical_formula_sum "Si O2"
_cell_formula_units_Z 56
_cell_length_a 14.974102
_cell_length_b 12.051116
_cell_length_c 15.920240
_cell_angle_alpha 90.000000
_cell_angle_beta 90.000000
_cell_angle_gamma 90.000000
_cell_volume 2872.881181
_symmetry_space_group_name_H-M "C 2 2 21"
_symmetry_group_IT_number 20
_symmetry_cell_setting 'orthorhombic'
loop_
_space_group_symop_operation_xyz
x,y,z
-x,-y,1/2+z
x,-y,-z
-x,y,1/2-z
1/2+x,1/2+y,z
1/2-x,1/2-y,1/2+z
1/2+x,1/2-y,-z
1/2-x,1/2+y,1/2-z
loop_
_atom_site_type_symbol
_atom_site_label
_atom_site_fract_x
_atom_site_fract_y
_atom_site_fract_z
Si Si1 0.321061 0.168455 0.743888
Si Si2 0.859625 0.590428 0.568735
Si Si3 0.132364 0.860123 0.176903
Si Si4 0.300543 0.000000 0.000000
Si Si5 0.586711 0.609618 0.195549
Si Si6 0.053852 0.530663 0.641392
Si Si7 0.000000 0.322851 0.750000
Si Si8 0.639072 0.339618 0.983275
O O1 0.306311 0.101348 0.656545
O O2 0.236169 0.161497 0.804165
O O3 0.341839 0.295837 0.720238
O O4 0.407142 0.111962 0.787173
O O5 0.832879 0.500000 0.500000
O O6 0.852239 0.708675 0.524591
O O7 0.962278 0.569611 0.597665
O O8 0.076176 0.759773 0.216452
O O9 0.112210 0.982378 0.212900
O O10 0.110574 0.866014 0.077899
O O11 0.366350 0.028357 0.924873
O O12 0.233667 0.901886 0.972762
O O13 0.500000 0.635107 0.250000
O O14 0.577132 0.623141 0.094559
O O15 0.036077 0.408425 0.679607
#
# Coordination Sequence:
#
# PCOD9321572 Si02
#       8
#     8   8   8   4   8   8   4   8
#     4  11  24  41  70  94 133 185 228 277 345 415
#     4  11  23  41  67  98 136 172 226 288 335 397
#     4  12  25  43  67  98 133 177 224 286 343 403
#     4  12  24  42  68 102 132 182 226 282 346 412
#     4  11  23  45  66  95 137 178 226 278 344 409
#     4  12  23  44  68 100 133 178 234 279 340 411
#     4  12  28  42  68  98 140 174 230 288 342 404
#     4  11  23  42  67  95 131 177 225 276 339 407
#
# _framework density 19.492626999999999
#
# number of rings (size 3 to 8) (size 9 to 14) (size 15 to 20)
#    0.000    0.571    5.714    2.571    6.000    0.000 
#    0.000    0.000    3.143    0.000    0.000    0.000 
#    0.000    0.000    0.000    0.000    0.000    0.000 
#
# Total GULP energy -156335.857986 kJ/mol
# GULP energy per Si atom -5583.423499 kJ/mol
# Density = 1.944826 g / cm^3
# Si number density = 19.492627 Si / 1000 Ang^3
#
#
#
# Elastic Constant Matrix: (Units=GPa)
#
#
# Indices 1 2 3 4 5 6 
#
# 1 75.2496 28.2954 37.4610 0.0000 0.0000 0.0000
# 2 28.2954 137.2064 41.9307 0.0000 0.0000 0.0000
# 3 37.4610 41.9307 100.7573 0.0000 0.0000 0.0000
# 4 0.0000 0.0000 0.0000 36.3323 0.0000 0.0000
# 5 0.0000 0.0000 0.0000 0.0000 28.5973 0.0000
# 6 0.0000 0.0000 0.0000 0.0000 0.0000 19.2214
#
#
#
# Elastic Compliance Matrix: (Units=1/GPa)
#
#
# Indices 1 2 3 4 5 6 
#
# 1 0.016674 -0.001769 -0.005463 0.000000 0.000000 0.000000
# 2 -0.001769 0.008538 -0.002895 0.000000 0.000000 0.000000
# 3 -0.005463 -0.002895 0.013161 0.000000 0.000000 0.000000
# 4 0.000000 0.000000 0.000000 0.027524 0.000000 0.000000
# 5 0.000000 0.000000 0.000000 0.000000 0.034968 0.000000
# 6 0.000000 0.000000 0.000000 0.000000 0.000000 0.052025
#
#
# Mechanical properties :
#
#
# Convention : Reuss Voigt Hill
#
# Bulk Modulus (GPa) = 55.19439 58.73192 56.96316
# Shear Modulus (GPa) = 27.90421 30.53196 29.21808
#
# Velocity S-wave (km/s) = 3.78766 3.96199 3.87580
# Velocity P-wave (km/s) = 6.89242 7.15021 7.02250
#
# Compressibility (1/GPa) = 0.01811778
#
# Stress axis : x y z
#
# Youngs Moduli (GPa) = 59.97375 117.12408 75.98255
#
# Poissons Ratio (x) = 0.20720 0.41510
# Poissons Ratio (y) = 0.10610 0.22000
# Poissons Ratio (z) = 0.32764 0.33912
#
# Static dielectric constant tensor:
#      x y z
#    x 1.651000 0.000000 0.000000 
#    y 0.000000 1.677290 0.000000 
#    z 0.000000 0.000000 1.732650 
# 
# From -- ./inp_files/20763.got.cif
#   From: 2010.05.17/outbox.cif.g08.bks.cpg/sg20_11_cif.got.tgz:20763.got - 2010.06.03 22:52:26.
