data_PCOD9321922
_publ_section_title
;
Structure prediction by ZEFSAII (Michael W. Deem and Ramdas Pophale) SiO2 
 PCOD9321922
Probable space group: C 2 2 21
;
_chemical_formula_sum "Si O2"
_cell_formula_units_Z 48
_cell_length_a 5.329783
_cell_length_b 23.084281
_cell_length_c 13.952779
_cell_angle_alpha 90.000000
_cell_angle_beta 90.000000
_cell_angle_gamma 90.000000
_cell_volume 1716.669120
_symmetry_space_group_name_H-M "C 2 2 21"
_symmetry_group_IT_number 20
_symmetry_cell_setting 'orthorhombic'
loop_
_space_group_symop_operation_xyz
x,y,z
-x,-y,1/2+z
x,-y,-z
-x,y,1/2-z
1/2+x,1/2+y,z
1/2-x,1/2-y,1/2+z
1/2+x,1/2-y,-z
1/2-x,1/2+y,1/2-z
loop_
_atom_site_type_symbol
_atom_site_label
_atom_site_fract_x
_atom_site_fract_y
_atom_site_fract_z
Si Si1 0.329608 0.622940 0.911925
Si Si2 0.500000 0.794991 0.750000
Si Si3 0.861501 0.770178 0.441172
Si Si4 0.500000 0.403609 0.750000
Si Si5 0.328311 0.016361 0.141699
Si Si6 0.500000 0.093925 0.750000
Si Si7 0.114482 0.621064 0.105389
Si Si8 0.410373 0.500000 0.000000
O O1 0.577636 0.661189 0.926674
O O2 0.200789 0.630288 0.809283
O O3 0.338414 0.553898 0.930361
O O4 0.148363 0.641955 0.998622
O O5 0.635250 0.754951 0.830571
O O6 0.587753 0.843553 0.668996
O O7 0.609823 0.752547 0.499119
O O8 0.270733 0.448313 0.731918
O O9 0.626594 0.368513 0.663285
O O10 0.557214 0.052039 0.095349
O O11 0.369423 0.951237 0.175048
O O12 0.107191 0.031616 0.070191
#
# Coordination Sequence:
#
# PCOD9321922 Si02
#       8
#     8   4   8   4   8   4   8   4
#     4  12  28  51  79 119 168 216 283 342 431 515
#     4  12  27  52  89 118 158 230 282 368 422 496
#     4  12  32  57  88 128 172 221 289 361 428 505
#     4  12  20  38  72 106 150 196 268 342 392 476
#     4  12  23  41  68 112 162 207 268 329 416 503
#     4  12  25  48  69 112 172 218 258 344 440 510
#     4  12  24  46  77 116 154 212 287 343 402 506
#     4  12  26  42  80 116 164 224 262 348 422 512
#
# _framework density 27.961127000000001
#
# number of rings (size 3 to 8) (size 9 to 14) (size 15 to 20)
#    0.000    0.000    6.667    3.000    4.667    4.667 
#    0.000    0.000    0.000    0.000    0.000    0.000 
#    0.000    0.000    0.000    0.000    0.000    0.000 
#
# Total GULP energy -133727.662571 kJ/mol
# GULP energy per Si atom -5571.985940 kJ/mol
# Density = 2.789749 g / cm^3
# Si number density = 27.961127 Si / 1000 Ang^3
#
#
#
# Elastic Constant Matrix: (Units=GPa)
#
#
# Indices 1 2 3 4 5 6 
#
# 1 116.3148 12.9793 12.5556 0.0000 0.0000 0.0000
# 2 12.9793 147.8499 1.4000 0.0000 0.0000 0.0000
# 3 12.5556 1.4000 91.4929 0.0000 0.0000 0.0000
# 4 0.0000 0.0000 0.0000 34.7470 0.0000 0.0000
# 5 0.0000 0.0000 0.0000 0.0000 -26.3299 0.0000
# 6 0.0000 0.0000 0.0000 0.0000 0.0000 -25.2039
#
#
#
# Elastic Compliance Matrix: (Units=1/GPa)
#
#
# Indices 1 2 3 4 5 6 
#
# 1 0.008812 -0.000762 -0.001198 0.000000 0.000000 0.000000
# 2 -0.000762 0.006831 0.000000 0.000000 0.000000 0.000000
# 3 -0.001198 0.000000 0.011094 0.000000 0.000000 0.000000
# 4 0.000000 0.000000 0.000000 0.028779 0.000000 0.000000
# 5 0.000000 0.000000 0.000000 0.000000 -0.037980 0.000000
# 6 0.000000 0.000000 0.000000 0.000000 0.000000 -0.039676
#
#
# Mechanical properties :
#
#
# Convention : Reuss Voigt Hill
#
# Bulk Modulus (GPa) = 43.82706 45.50307 44.66506
# Shear Modulus (GPa) = -471.02411 18.55749 -226.23331
#
# Velocity S-wave (km/s) = -12.99317 2.57901 -9.00475
# Velocity P-wave (km/s) = 14.47026 5.01771 9.59716
#
# Compressibility (1/GPa) = 0.02281695
#
# Stress axis : x y z
#
# Youngs Moduli (GPa) = 113.48565 146.40160 90.13763
#
# Poissons Ratio (x) = 0.11159 0.10795
# Poissons Ratio (y) = 0.08650 -0.00001
# Poissons Ratio (z) = 0.13591 -0.00001
#
# Static dielectric constant tensor:
#      x y z
#    x 2.327640 0.000000 0.000000 
#    y 0.000000 2.762570 0.000000 
#    z 0.000000 0.000000 18.258880 
# 
# From -- ./inp_files/17853.got.cif
#   From: 2010.05.17/outbox.cif.g08.bks.cpg/sg20_9_cif.got.tgz:17853.got - 2010.06.03 22:52:26.
