data_PCOD9321156
_publ_section_title
;
Structure prediction by ZEFSAII (Michael W. Deem and Ramdas Pophale) SiO2 
 PCOD9321156
Probable space group: C 2 2 21
;
_chemical_formula_sum "Si O2"
_cell_formula_units_Z 60
_cell_length_a 9.157348
_cell_length_b 17.030517
_cell_length_c 17.041844
_cell_angle_alpha 90.000000
_cell_angle_beta 90.000000
_cell_angle_gamma 90.000000
_cell_volume 2657.750058
_symmetry_space_group_name_H-M "C 2 2 21"
_symmetry_group_IT_number 20
_symmetry_cell_setting 'orthorhombic'
loop_
_space_group_symop_operation_xyz
x,y,z
-x,-y,1/2+z
x,-y,-z
-x,y,1/2-z
1/2+x,1/2+y,z
1/2-x,1/2-y,1/2+z
1/2+x,1/2-y,-z
1/2-x,1/2+y,1/2-z
loop_
_atom_site_type_symbol
_atom_site_label
_atom_site_fract_x
_atom_site_fract_y
_atom_site_fract_z
Si Si1 0.982679 0.640037 0.343638
Si Si2 0.000000 0.711316 0.750000
Si Si3 0.527537 0.457719 0.838784
Si Si4 0.341423 0.316449 0.875220
Si Si5 0.546437 0.259201 0.478566
Si Si6 0.573066 0.137498 0.903524
Si Si7 0.880141 0.930034 0.061654
Si Si8 0.837412 0.494119 0.092521
O O1 0.054830 0.706773 0.400080
O O2 0.050744 0.559405 0.375030
O O3 0.000000 0.650726 0.250000
O O4 0.809816 0.641425 0.358616
O O5 0.109209 0.761845 0.696197
O O6 0.906057 0.663629 0.686303
O O7 0.500000 0.434572 0.750000
O O8 0.470283 0.380563 0.884423
O O9 0.423876 0.530851 0.856943
O O10 0.688219 0.486562 0.861779
O O11 0.324779 0.269082 0.956332
O O12 0.442097 0.211917 0.538816
O O13 0.530658 0.349357 0.450746
O O14 0.708635 0.088605 0.936385
O O15 0.422909 0.088087 0.900632
O O16 0.911925 0.000000 0.000000
O O17 0.805907 0.500000 0.000000
#
# Coordination Sequence:
#
# PCOD9321156 Si02
#       8
#     8   4   8   8   8   8   8   8
#     4  12  28  48  81 118 159 206 264 334 402 477
#     4  10  26  44  76 110 154 200 252 330 394 468
#     4  12  27  46  75 110 154 204 251 327 393 471
#     4  11  24  50  76 108 159 206 262 317 407 471
#     4  11  26  46  76 112 148 203 257 320 385 478
#     4  11  26  48  79 110 156 200 261 324 394 474
#     4  12  26  47  79 109 151 204 261 312 394 469
#     4  12  27  48  77 115 154 205 270 328 397 481
#
# _framework density 22.575485
#
# number of rings (size 3 to 8) (size 9 to 14) (size 15 to 20)
#    0.000    0.533    3.333    3.200    4.667    5.867 
#    0.000    0.000    0.000    0.000    0.000    0.000 
#    0.000    0.000    0.000    0.000    0.000    0.000 
#
# Total GULP energy -167444.558019 kJ/mol
# GULP energy per Si atom -5581.485267 kJ/mol
# Density = 2.252410 g / cm^3
# Si number density = 22.575485 Si / 1000 Ang^3
#
#
#
# Elastic Constant Matrix: (Units=GPa)
#
#
# Indices 1 2 3 4 5 6 
#
# 1 105.6990 26.1437 12.0380 0.0000 0.0000 0.0000
# 2 26.1437 126.4766 43.2096 0.0000 0.0000 0.0000
# 3 12.0380 43.2096 151.2312 0.0000 0.0000 0.0000
# 4 0.0000 0.0000 0.0000 41.1215 0.0000 0.0000
# 5 0.0000 0.0000 0.0000 0.0000 8.9278 0.0000
# 6 0.0000 0.0000 0.0000 0.0000 0.0000 28.4769
#
#
#
# Elastic Compliance Matrix: (Units=1/GPa)
#
#
# Indices 1 2 3 4 5 6 
#
# 1 0.009978 -0.001985 -0.000227 0.000000 0.000000 0.000000
# 2 -0.001985 0.009157 -0.002458 0.000000 0.000000 0.000000
# 3 -0.000227 -0.002458 0.007333 0.000000 0.000000 0.000000
# 4 0.000000 0.000000 0.000000 0.024318 0.000000 0.000000
# 5 0.000000 0.000000 0.000000 0.000000 0.112010 0.000000
# 6 0.000000 0.000000 0.000000 0.000000 0.000000 0.035116
#
#
# Mechanical properties :
#
#
# Convention : Reuss Voigt Hill
#
# Bulk Modulus (GPa) = 58.38819 60.68770 59.53795
# Shear Modulus (GPa) = 23.47849 35.83961 29.65905
#
# Velocity S-wave (km/s) = 3.22840 3.98872 3.62853
# Velocity P-wave (km/s) = 6.31003 6.93929 6.63212
#
# Compressibility (1/GPa) = 0.01712675
#
# Stress axis : x y z
#
# Youngs Moduli (GPa) = 100.22419 109.20933 136.37283
#
# Poissons Ratio (x) = 0.21677 0.03097
# Poissons Ratio (y) = 0.19893 0.33524
# Poissons Ratio (z) = 0.02276 0.26846
#
# Static dielectric constant tensor:
#      x y z
#    x 1.865130 0.000000 0.000000 
#    y 0.000000 1.836390 0.000000 
#    z 0.000000 0.000000 1.929530 
# 
# From -- ./inp_files/23776.got.cif
#   From: 2010.05.17/outbox.cif.g08.bks.cpg/sg20_12_cif.got.tgz:23776.got - 2010.06.03 22:52:26.
