data_PCOD9321119
_publ_section_title
;
Structure prediction by ZEFSAII (Michael W. Deem and Ramdas Pophale) SiO2 
 PCOD9321119
Probable space group: C 2 2 21
;
_chemical_formula_sum "Si O2"
_cell_formula_units_Z 28
_cell_length_a 11.522959
_cell_length_b 10.920442
_cell_length_c 9.140833
_cell_angle_alpha 90.000000
_cell_angle_beta 90.000000
_cell_angle_gamma 90.000000
_cell_volume 1150.244083
_symmetry_space_group_name_H-M "C 2 2 21"
_symmetry_group_IT_number 20
_symmetry_cell_setting 'orthorhombic'
loop_
_space_group_symop_operation_xyz
x,y,z
-x,-y,1/2+z
x,-y,-z
-x,y,1/2-z
1/2+x,1/2+y,z
1/2-x,1/2-y,1/2+z
1/2+x,1/2-y,-z
1/2-x,1/2+y,1/2-z
loop_
_atom_site_type_symbol
_atom_site_label
_atom_site_fract_x
_atom_site_fract_y
_atom_site_fract_z
Si Si1 0.500000 0.525715 0.250000
Si Si2 0.920485 0.580663 0.118342
Si Si3 0.726009 0.390026 0.233645
Si Si4 0.670181 0.683799 0.452212
O O1 0.599858 0.438474 0.185536
O O2 0.571541 0.608109 0.365955
O O3 0.817020 0.490678 0.172990
O O4 0.000000 0.613770 0.250000
O O5 0.988791 0.500000 0.000000
O O6 0.883862 0.702224 0.037862
O O7 0.729550 0.385272 0.410820
O O8 0.751522 0.255393 0.167400
#
# Coordination Sequence:
#
# PCOD9321119 Si02
#       4
#     4   8   8   8
#     4  12  28  52  78 116 156 206 256 322 386 460
#     4  10  25  48  73 113 153 202 257 318 387 464
#     4  11  27  51  77 118 153 202 263 320 388 465
#     4  11  27  50  79 114 156 205 254 329 383 463
#
# _framework density 24.342658
#
# number of rings (size 3 to 8) (size 9 to 14) (size 15 to 20)
#    0.000    1.143    0.000    2.571   10.000   16.000 
#    5.143    0.000    0.000    0.000    0.000    0.000 
#    0.000    0.000    0.000    0.000    0.000    0.000 
#
# Total GULP energy -78334.159927 kJ/mol
# GULP energy per Si atom -5595.297138 kJ/mol
# Density = 2.428725 g / cm^3
# Si number density = 24.342658 Si / 1000 Ang^3
#
#
#
# Elastic Constant Matrix: (Units=GPa)
#
#
# Indices 1 2 3 4 5 6 
#
# 1 118.6896 49.7514 54.4552 0.0000 0.0000 0.0000
# 2 49.7514 117.4120 63.2890 0.0000 0.0000 0.0000
# 3 54.4552 63.2890 173.9713 0.0000 0.0000 0.0000
# 4 0.0000 0.0000 0.0000 54.2852 0.0000 0.0000
# 5 0.0000 0.0000 0.0000 0.0000 50.7159 0.0000
# 6 0.0000 0.0000 0.0000 0.0000 0.0000 45.3311
#
#
#
# Elastic Compliance Matrix: (Units=1/GPa)
#
#
# Indices 1 2 3 4 5 6 
#
# 1 0.010852 -0.003442 -0.002145 0.000000 0.000000 0.000000
# 2 -0.003442 0.011687 -0.003174 0.000000 0.000000 0.000000
# 3 -0.002145 -0.003174 0.007574 0.000000 0.000000 0.000000
# 4 0.000000 0.000000 0.000000 0.018421 0.000000 0.000000
# 5 0.000000 0.000000 0.000000 0.000000 0.019718 0.000000
# 6 0.000000 0.000000 0.000000 0.000000 0.000000 0.022060
#
#
# Mechanical properties :
#
#
# Convention : Reuss Voigt Hill
#
# Bulk Modulus (GPa) = 79.42240 82.78491 81.10365
# Shear Modulus (GPa) = 44.63068 46.23823 45.43446
#
# Velocity S-wave (km/s) = 4.28651 4.36302 4.32493
# Velocity P-wave (km/s) = 7.56284 7.71124 7.63740
#
# Compressibility (1/GPa) = 0.01259091
#
# Stress axis : x y z
#
# Youngs Moduli (GPa) = 92.14667 85.56834 132.03083
#
# Poissons Ratio (x) = 0.29457 0.28315
# Poissons Ratio (y) = 0.31721 0.41905
# Poissons Ratio (z) = 0.19761 0.27159
#
# Static dielectric constant tensor:
#      x y z
#    x 1.909870 0.000000 0.000000 
#    y 0.000000 1.970110 0.000000 
#    z 0.000000 0.000000 2.004120 
# 
# From -- ./inp_files/6712.got.cif
#   From: 2010.05.17/outbox.cif.g08.bks.cpg/sg20_4_cif.got.tgz:6712.got - 2010.06.03 22:52:26.
