data_PCOD9321000
_publ_section_title
;
Structure prediction by ZEFSAII (Michael W. Deem and Ramdas Pophale) SiO2 
 PCOD9321000
Probable space group: C 2 2 21
;
_chemical_formula_sum "Si O2"
_cell_formula_units_Z 56
_cell_length_a 5.626879
_cell_length_b 14.325481
_cell_length_c 30.702182
_cell_angle_alpha 90.000000
_cell_angle_beta 90.000000
_cell_angle_gamma 90.000000
_cell_volume 2474.833756
_symmetry_space_group_name_H-M "C 2 2 21"
_symmetry_group_IT_number 20
_symmetry_cell_setting 'orthorhombic'
loop_
_space_group_symop_operation_xyz
x,y,z
-x,-y,1/2+z
x,-y,-z
-x,y,1/2-z
1/2+x,1/2+y,z
1/2-x,1/2-y,1/2+z
1/2+x,1/2-y,-z
1/2-x,1/2+y,1/2-z
loop_
_atom_site_type_symbol
_atom_site_label
_atom_site_fract_x
_atom_site_fract_y
_atom_site_fract_z
Si Si1 0.141537 0.690791 0.338798
Si Si2 0.187786 0.602376 0.574805
Si Si3 0.525222 0.407107 0.344791
Si Si4 0.855196 0.459166 0.605587
Si Si5 0.000000 0.601305 0.250000
Si Si6 0.991752 0.190995 0.405668
Si Si7 0.000000 0.988734 0.250000
Si Si8 0.741636 0.302006 0.991724
O O1 0.075080 0.797242 0.348453
O O2 0.412054 0.680551 0.355515
O O3 0.007808 0.614562 0.367512
O O4 0.074011 0.665829 0.290259
O O5 0.341219 0.570093 0.616363
O O6 0.299608 0.617029 0.527345
O O7 0.984547 0.525646 0.571664
O O8 0.099586 0.706343 0.588081
O O9 0.749476 0.468658 0.359046
O O10 0.457874 0.432588 0.295292
O O11 0.662994 0.393473 0.583029
O O12 0.752453 0.543498 0.257349
O O13 0.779152 0.181041 0.440304
O O14 0.509266 0.236252 0.000461
#
# Coordination Sequence:
#
# PCOD9321000 Si02
#       8
#     8   8   8   8   4   8   4   8
#     4  12  25  47  74 110 150 203 247 318 380 452
#     4  11  24  46  80 107 154 202 255 313 389 448
#     4  12  25  47  74 110 150 203 247 318 380 452
#     4  12  24  46  75 108 148 196 250 309 380 448
#     4  12  27  48  75 112 156 196 259 316 373 456
#     4  11  24  46  80 107 154 202 255 313 389 448
#     4  12  27  48  75 112 156 196 259 316 373 456
#     4  10  24  46  79 113 152 202 256 317 380 455
#
# _framework density 22.627780999999999
#
# number of rings (size 3 to 8) (size 9 to 14) (size 15 to 20)
#    0.000    0.571    4.286    3.857    4.000    0.000 
#    0.000    5.714    0.000    0.000    0.000    0.000 
#    0.000    0.000    0.000    0.000    0.000    0.000 
#
# Total GULP energy -156315.588058 kJ/mol
# GULP energy per Si atom -5582.699573 kJ/mol
# Density = 2.257628 g / cm^3
# Si number density = 22.627781 Si / 1000 Ang^3
#
#
#
# Elastic Constant Matrix: (Units=GPa)
#
#
# Indices 1 2 3 4 5 6 
#
# 1 59.7003 39.3518 3.9225 0.0000 0.0000 0.0000
# 2 39.3518 135.5329 8.6491 0.0000 0.0000 0.0000
# 3 3.9225 8.6491 72.6590 0.0000 0.0000 0.0000
# 4 0.0000 0.0000 0.0000 -277.1961 0.0000 0.0000
# 5 0.0000 0.0000 0.0000 0.0000 30.0422 0.0000
# 6 0.0000 0.0000 0.0000 0.0000 0.0000 38.1558
#
#
#
# Elastic Compliance Matrix: (Units=1/GPa)
#
#
# Indices 1 2 3 4 5 6 
#
# 1 0.020727 -0.005992 -0.000406 0.000000 0.000000 0.000000
# 2 -0.005992 0.009167 -0.000768 0.000000 0.000000 0.000000
# 3 -0.000406 -0.000768 0.013876 0.000000 0.000000 0.000000
# 4 0.000000 0.000000 0.000000 -0.003608 0.000000 0.000000
# 5 0.000000 0.000000 0.000000 0.000000 0.033286 0.000000
# 6 0.000000 0.000000 0.000000 0.000000 0.000000 0.026208
#
#
# Mechanical properties :
#
#
# Convention : Reuss Voigt Hill
#
# Bulk Modulus (GPa) = 33.96849 41.30433 37.63641
# Shear Modulus (GPa) = 40.38735 -27.40168 6.49284
#
# Velocity S-wave (km/s) = 4.22934 -3.48368 1.69577
# Velocity P-wave (km/s) = 6.23652 1.45329 4.52804
#
# Compressibility (1/GPa) = 0.02943905
#
# Stress axis : x y z
#
# Youngs Moduli (GPa) = 48.24698 109.08615 72.06578
#
# Poissons Ratio (x) = 0.65365 0.02923
# Poissons Ratio (y) = 0.28910 0.05533
# Poissons Ratio (z) = 0.01957 0.08375
#
# Static dielectric constant tensor:
#      x y z
#    x 2.103750 0.000000 0.000000 
#    y 0.000000 1.804970 0.000000 
#    z 0.000000 0.000000 1.825470 
# 
# From -- ./inp_files/30768.got.cif
#   From: 2010.05.17/outbox.cif.g08.bks.cpg/sg20_16_cif.got.tgz:30768.got - 2010.06.03 22:52:26.
