data_PCOD9321795
_publ_section_title
;
Structure prediction by ZEFSAII (Michael W. Deem and Ramdas Pophale) SiO2 
 PCOD9321795
Probable space group: C 2 2 21
;
_chemical_formula_sum "Si O2"
_cell_formula_units_Z 44
_cell_length_a 14.196168
_cell_length_b 17.713813
_cell_length_c 7.850584
_cell_angle_alpha 90.000000
_cell_angle_beta 90.000000
_cell_angle_gamma 90.000000
_cell_volume 1974.172740
_symmetry_space_group_name_H-M "C 2 2 21"
_symmetry_group_IT_number 20
_symmetry_cell_setting 'orthorhombic'
loop_
_space_group_symop_operation_xyz
x,y,z
-x,-y,1/2+z
x,-y,-z
-x,y,1/2-z
1/2+x,1/2+y,z
1/2-x,1/2-y,1/2+z
1/2+x,1/2-y,-z
1/2-x,1/2+y,1/2-z
loop_
_atom_site_type_symbol
_atom_site_label
_atom_site_fract_x
_atom_site_fract_y
_atom_site_fract_z
Si Si1 0.903067 0.049203 0.831745
Si Si2 0.709974 0.012417 0.203780
Si Si3 0.533184 0.842032 0.055909
Si Si4 0.716967 0.816375 0.865938
Si Si5 0.610766 0.277301 0.417299
Si Si6 0.439988 0.000000 0.000000
O O1 0.914089 0.137039 0.873148
O O2 0.000000 0.022364 0.750000
O O3 0.803082 0.034228 0.740837
O O4 0.891483 0.000000 0.000000
O O5 0.730179 0.101700 0.219241
O O6 0.625011 0.992562 0.330860
O O7 0.692473 0.000000 0.000000
O O8 0.500000 0.839520 0.250000
O O9 0.643807 0.830261 0.021889
O O10 0.477038 0.775120 0.962180
O O11 0.499703 0.923169 0.983804
O O12 0.666008 0.761156 0.736708
O O13 0.815144 0.783341 0.928375
#
# Coordination Sequence:
#
# PCOD9321795 Si02
#       6
#     8   8   8   8   8   4
#     4  11  25  46  71 101 140 191 247 300 359 426
#     4  11  24  48  71 106 145 190 242 301 358 428
#     4  12  28  45  72 109 142 191 241 297 370 442
#     4  12  25  48  72 101 149 186 240 303 361 432
#     4  12  26  48  71 105 142 193 235 304 366 426
#     4  12  28  44  76 110 146 192 240 294 380 438
#
# _framework density 22.287817
#
# number of rings (size 3 to 8) (size 9 to 14) (size 15 to 20)
#    0.000    0.364    5.455    3.818    7.636    0.727 
#    3.273    0.000    0.000    0.000    0.000    0.000 
#    0.000    0.000    0.000    0.000    0.000    0.000 
#
# Total GULP energy -123185.220429 kJ/mol
# GULP energy per Si atom -5599.328201 kJ/mol
# Density = 2.223709 g / cm^3
# Si number density = 22.287817 Si / 1000 Ang^3
#
#
#
# Elastic Constant Matrix: (Units=GPa)
#
#
# Indices 1 2 3 4 5 6 
#
# 1 100.5037 26.1952 -1.8668 0.0000 0.0000 0.0000
# 2 26.1952 138.1689 5.2803 0.0000 0.0000 0.0000
# 3 -1.8668 5.2803 45.1923 0.0000 0.0000 0.0000
# 4 0.0000 0.0000 0.0000 27.7879 0.0000 0.0000
# 5 0.0000 0.0000 0.0000 0.0000 42.9657 0.0000
# 6 0.0000 0.0000 0.0000 0.0000 0.0000 16.6513
#
#
#
# Elastic Compliance Matrix: (Units=1/GPa)
#
#
# Indices 1 2 3 4 5 6 
#
# 1 0.010487 -0.002014 0.000668 0.000000 0.000000 0.000000
# 2 -0.002014 0.007657 -0.000978 0.000000 0.000000 0.000000
# 3 0.000668 -0.000978 0.022270 0.000000 0.000000 0.000000
# 4 0.000000 0.000000 0.000000 0.035987 0.000000 0.000000
# 5 0.000000 0.000000 0.000000 0.000000 0.023274 0.000000
# 6 0.000000 0.000000 0.000000 0.000000 0.000000 0.060056
#
#
# Mechanical properties :
#
#
# Convention : Reuss Voigt Hill
#
# Bulk Modulus (GPa) = 27.95860 38.12026 33.03943
# Shear Modulus (GPa) = 28.36095 34.43138 31.39616
#
# Velocity S-wave (km/s) = 3.57106 3.93472 3.75730
# Velocity P-wave (km/s) = 5.43828 6.14683 5.80338
#
# Compressibility (1/GPa) = 0.03576717
#
# Stress axis : x y z
#
# Youngs Moduli (GPa) = 95.35459 130.60490 44.90446
#
# Poissons Ratio (x) = 0.26301 -0.03002
# Poissons Ratio (y) = 0.19202 0.04391
# Poissons Ratio (z) = -0.06374 0.12771
#
# Static dielectric constant tensor:
#      x y z
#    x 1.868890 0.000000 0.000000 
#    y 0.000000 1.792640 0.000000 
#    z 0.000000 0.000000 1.812670 
# 
# From -- ./inp_files/8315.got.cif
#   From: 2010.05.17/outbox.cif.g08.bks.cpg/sg20_5_cif.got.tgz:8315.got - 2010.06.03 22:52:26.
