data_PCOD9321489
_publ_section_title
;
Structure prediction by ZEFSAII (Michael W. Deem and Ramdas Pophale) SiO2 
 PCOD9321489
Probable space group: C 2 2 21
;
_chemical_formula_sum "Si O2"
_cell_formula_units_Z 56
_cell_length_a 11.170416
_cell_length_b 15.452412
_cell_length_c 14.753739
_cell_angle_alpha 90.000000
_cell_angle_beta 90.000000
_cell_angle_gamma 90.000000
_cell_volume 2546.640974
_symmetry_space_group_name_H-M "C 2 2 21"
_symmetry_group_IT_number 20
_symmetry_cell_setting 'orthorhombic'
loop_
_space_group_symop_operation_xyz
x,y,z
-x,-y,1/2+z
x,-y,-z
-x,y,1/2-z
1/2+x,1/2+y,z
1/2-x,1/2-y,1/2+z
1/2+x,1/2-y,-z
1/2-x,1/2+y,1/2-z
loop_
_atom_site_type_symbol
_atom_site_label
_atom_site_fract_x
_atom_site_fract_y
_atom_site_fract_z
Si Si1 0.504201 0.172950 0.356262
Si Si2 0.394217 0.173319 0.641868
Si Si3 0.147415 0.242817 0.318452
Si Si4 0.157707 0.225426 0.971526
Si Si5 0.265243 0.928852 0.927846
Si Si6 0.637775 0.542276 0.257130
Si Si7 0.662100 0.008423 0.106493
O O1 0.500000 0.194599 0.250000
O O2 0.464824 0.252572 0.419320
O O3 0.627609 0.131178 0.390430
O O4 0.404829 0.097455 0.370871
O O5 0.321972 0.198601 0.731389
O O6 0.516959 0.226876 0.648737
O O7 0.329450 0.205003 0.551943
O O8 0.420276 0.072178 0.636106
O O9 0.239549 0.259684 0.397985
O O10 0.141632 0.144498 0.283824
O O11 0.172643 0.132878 0.018575
O O12 0.202207 0.968866 0.839693
O O13 0.309485 0.000000 0.000000
O O14 0.500000 0.515140 0.250000
O O15 0.717204 0.499495 0.335467
O O16 0.683891 0.000000 0.000000
#
# Coordination Sequence:
#
# PCOD9321489 Si02
#       7
#     8   8   8   8   8   8   8
#     4  12  25  46  76 112 151 189 247 324 369 434
#     4  11  24  42  71 104 139 191 249 286 368 450
#     4  11  22  42  73  99 134 197 242 289 361 451
#     4  12  24  44  69 108 147 190 236 308 374 439
#     4  12  28  46  74 111 148 194 252 304 371 445
#     4  12  24  49  72 101 150 198 244 305 376 441
#     4  12  25  45  74 114 146 189 244 315 375 436
#
# _framework density 21.989749
#
# number of rings (size 3 to 8) (size 9 to 14) (size 15 to 20)
#    0.000    0.286    7.143    1.286    6.000    0.571 
#    0.000    3.571    0.000    0.000    0.000    0.000 
#    0.000    0.000    0.000    0.000    0.000    0.000 
#
# Total GULP energy -156722.808418 kJ/mol
# GULP energy per Si atom -5597.243158 kJ/mol
# Density = 2.193970 g / cm^3
# Si number density = 21.989749 Si / 1000 Ang^3
#
#
#
# Elastic Constant Matrix: (Units=GPa)
#
#
# Indices 1 2 3 4 5 6 
#
# 1 86.7903 -14.6731 43.7834 0.0000 0.0000 0.0000
# 2 -14.6731 39.9046 8.1419 0.0000 0.0000 0.0000
# 3 43.7834 8.1419 171.9716 0.0000 0.0000 0.0000
# 4 0.0000 0.0000 0.0000 23.2337 0.0000 0.0000
# 5 0.0000 0.0000 0.0000 0.0000 34.3361 0.0000
# 6 0.0000 0.0000 0.0000 0.0000 0.0000 -11.6722
#
#
#
# Elastic Compliance Matrix: (Units=1/GPa)
#
#
# Indices 1 2 3 4 5 6 
#
# 1 0.014588 0.006182 -0.004007 0.000000 0.000000 0.000000
# 2 0.006182 0.027924 -0.002896 0.000000 0.000000 0.000000
# 3 -0.004007 -0.002896 0.006972 0.000000 0.000000 0.000000
# 4 0.000000 0.000000 0.000000 0.043041 0.000000 0.000000
# 5 0.000000 0.000000 0.000000 0.000000 0.029124 0.000000
# 6 0.000000 0.000000 0.000000 0.000000 0.000000 -0.085674
#
#
# Mechanical properties :
#
#
# Convention : Reuss Voigt Hill
#
# Bulk Modulus (GPa) = 20.81491 41.46343 31.13917
# Shear Modulus (GPa) = 93.57825 26.60715 60.09270
#
# Velocity S-wave (km/s) = 6.53053 3.48225 5.23325
# Velocity P-wave (km/s) = 8.14555 5.92156 7.12091
#
# Compressibility (1/GPa) = 0.04804247
#
# Stress axis : x y z
#
# Youngs Moduli (GPa) = 68.54715 35.81182 143.42767
#
# Poissons Ratio (x) = -0.22138 0.57469
# Poissons Ratio (y) = -0.42375 0.41535
# Poissons Ratio (z) = 0.27466 0.10371
#
# Static dielectric constant tensor:
#      x y z
#    x 1.817820 0.000000 0.000000 
#    y 0.000000 1.834020 0.000000 
#    z 0.000000 0.000000 1.798230 
# 
# From -- ./inp_files/20036.got.cif
#   From: 2010.05.17/outbox.cif.g08.bks.cpg/sg20_11_cif.got.tgz:20036.got - 2010.06.03 22:52:26.
