data_PCOD9321785
_publ_section_title
;
Structure prediction by ZEFSAII (Michael W. Deem and Ramdas Pophale) SiO2 
 PCOD9321785
Probable space group: C 2 2 21
;
_chemical_formula_sum "Si O2"
_cell_formula_units_Z 16
_cell_length_a 10.691602
_cell_length_b 9.490422
_cell_length_c 6.517208
_cell_angle_alpha 90.000000
_cell_angle_beta 90.000000
_cell_angle_gamma 90.000000
_cell_volume 661.286855
_symmetry_space_group_name_H-M "C 2 2 21"
_symmetry_group_IT_number 20
_symmetry_cell_setting 'orthorhombic'
loop_
_space_group_symop_operation_xyz
x,y,z
-x,-y,1/2+z
x,-y,-z
-x,y,1/2-z
1/2+x,1/2+y,z
1/2-x,1/2-y,1/2+z
1/2+x,1/2-y,-z
1/2-x,1/2+y,1/2-z
loop_
_atom_site_type_symbol
_atom_site_label
_atom_site_fract_x
_atom_site_fract_y
_atom_site_fract_z
Si Si1 0.672520 0.562719 0.297805
Si Si2 0.379552 0.718686 0.599994
O O1 0.602163 0.500000 0.500000
O O2 0.697232 0.416286 0.183402
O O3 0.794490 0.644176 0.375312
O O4 0.608412 0.670947 0.137373
O O5 0.500000 0.734553 0.750000
#
# Coordination Sequence:
#
# PCOD9321785 Si02
#       2
#     8   8
#     4  11  24  47  73 111 152 190 256 310 360 457
#     4  11  26  46  75 108 153 201 246 308 381 442
#
# _framework density 24.195250000000001
#
# number of rings (size 3 to 8) (size 9 to 14) (size 15 to 20)
#    0.000    1.000    5.000    0.000    7.000    0.000 
#    9.000    2.500    0.000    0.000    0.000    0.000 
#    0.000    0.000    0.000    0.000    0.000    0.000 
#
# Total GULP energy -44557.558434 kJ/mol
# GULP energy per Si atom -5569.694804 kJ/mol
# Density = 2.414018 g / cm^3
# Si number density = 24.195250 Si / 1000 Ang^3
#
#
#
# Elastic Constant Matrix: (Units=GPa)
#
#
# Indices 1 2 3 4 5 6 
#
# 1 130.1806 83.6852 82.5758 0.0000 0.0000 0.0000
# 2 83.6852 127.6893 34.9452 0.0000 0.0000 0.0000
# 3 82.5758 34.9452 192.5916 0.0000 0.0000 0.0000
# 4 0.0000 0.0000 0.0000 48.3253 0.0000 0.0000
# 5 0.0000 0.0000 0.0000 0.0000 35.3312 0.0000
# 6 0.0000 0.0000 0.0000 0.0000 0.0000 32.1402
#
#
#
# Elastic Compliance Matrix: (Units=1/GPa)
#
#
# Indices 1 2 3 4 5 6 
#
# 1 0.017896 -0.010132 -0.005835 0.000000 0.000000 0.000000
# 2 -0.010132 0.013977 0.001808 0.000000 0.000000 0.000000
# 3 -0.005835 0.001808 0.007366 0.000000 0.000000 0.000000
# 4 0.000000 0.000000 0.000000 0.020693 0.000000 0.000000
# 5 0.000000 0.000000 0.000000 0.000000 0.028304 0.000000
# 6 0.000000 0.000000 0.000000 0.000000 0.000000 0.031114
#
#
# Mechanical properties :
#
#
# Convention : Reuss Voigt Hill
#
# Bulk Modulus (GPa) = 91.55948 94.76377 93.16162
# Shear Modulus (GPa) = 33.04561 39.77637 36.41099
#
# Velocity S-wave (km/s) = 3.69967 4.05899 3.88349
# Velocity P-wave (km/s) = 7.49494 7.82423 7.66135
#
# Compressibility (1/GPa) = 0.01092186
#
# Stress axis : x y z
#
# Youngs Moduli (GPa) = 55.87937 71.54689 135.76033
#
# Poissons Ratio (x) = 0.72489 0.79211
# Poissons Ratio (y) = 0.56615 -0.24546
# Poissons Ratio (z) = 0.32603 -0.12936
#
# Static dielectric constant tensor:
#      x y z
#    x 1.922540 0.000000 0.000000 
#    y 0.000000 1.821270 0.000000 
#    z 0.000000 0.000000 2.174650 
# 
# From -- ./inp_files/757.got.cif
#   From: 2010.05.17/outbox.cif.g08.bks.cpg/sg20_1_cif.got.tgz:757.got - 2010.06.03 22:52:26.
