data_PCOD9321517
_publ_section_title
;
Structure prediction by ZEFSAII (Michael W. Deem and Ramdas Pophale) SiO2 
 PCOD9321517
Probable space group: C 2 2 21
;
_chemical_formula_sum "Si O2"
_cell_formula_units_Z 60
_cell_length_a 26.992705
_cell_length_b 11.227474
_cell_length_c 8.664529
_cell_angle_alpha 90.000000
_cell_angle_beta 90.000000
_cell_angle_gamma 90.000000
_cell_volume 2625.871237
_symmetry_space_group_name_H-M "C 2 2 21"
_symmetry_group_IT_number 20
_symmetry_cell_setting 'orthorhombic'
loop_
_space_group_symop_operation_xyz
x,y,z
-x,-y,1/2+z
x,-y,-z
-x,y,1/2-z
1/2+x,1/2+y,z
1/2-x,1/2-y,1/2+z
1/2+x,1/2-y,-z
1/2-x,1/2+y,1/2-z
loop_
_atom_site_type_symbol
_atom_site_label
_atom_site_fract_x
_atom_site_fract_y
_atom_site_fract_z
Si Si1 0.979587 0.844086 0.576922
Si Si2 0.618862 0.520326 0.161325
Si Si3 0.076875 0.811573 0.380460
Si Si4 0.102306 0.555040 0.332926
Si Si5 0.959170 0.593462 0.619630
Si Si6 0.791334 0.529590 0.830987
Si Si7 0.666746 0.295445 0.611695
Si Si8 0.263695 0.500000 0.000000
O O1 0.933798 0.928110 0.608665
O O2 0.954117 0.718815 0.539194
O O3 0.000000 0.838473 0.750000
O O4 0.024863 0.859164 0.454540
O O5 0.603351 0.408110 0.269444
O O6 0.650288 0.619073 0.249444
O O7 0.646065 0.500000 0.000000
O O8 0.073635 0.679280 0.308555
O O9 0.115208 0.783823 0.518613
O O10 0.089999 0.500000 0.500000
O O11 0.088372 0.460823 0.201130
O O12 0.161658 0.561277 0.328426
O O13 0.978520 0.500000 0.500000
O O14 0.000000 0.603675 0.750000
O O15 0.810931 0.667159 0.843322
O O16 0.764292 0.511183 0.666197
O O17 0.767151 0.500000 0.000000
O O18 0.703824 0.379132 0.514091
#
# Coordination Sequence:
#
# PCOD9321517 Si02
#       8
#     8   8   8   8   8   8   8   4
#     4  11  24  40  67 100 144 197 250 303 363 440
#     4  12  29  45  71 108 151 204 258 313 372 456
#     4  12  24  46  76 104 152 204 250 311 384 456
#     4  11  22  44  72 105 147 189 246 310 388 458
#     4  11  23  39  63  97 140 187 243 301 367 438
#     4  11  27  50  82 115 152 198 249 327 404 475
#     4  12  25  53  76 109 151 197 253 315 390 467
#     4  12  30  50  82 118 154 200 264 326 398 478
#
# _framework density 22.84956
#
# number of rings (size 3 to 8) (size 9 to 14) (size 15 to 20)
#    0.000    0.533    5.333    3.600    6.533    1.600 
#    0.000    0.000    0.000    0.000    0.000    0.000 
#    0.000    0.000    0.000    0.000    0.000    0.000 
#
# Total GULP energy -167420.857058 kJ/mol
# GULP energy per Si atom -5580.695235 kJ/mol
# Density = 2.279755 g / cm^3
# Si number density = 22.849560 Si / 1000 Ang^3
#
#
#
# Elastic Constant Matrix: (Units=GPa)
#
#
# Indices 1 2 3 4 5 6 
#
# 1 75.8373 6.8006 38.3020 0.0000 0.0000 0.0000
# 2 6.8006 118.1761 42.9153 0.0000 0.0000 0.0000
# 3 38.3020 42.9153 143.8163 0.0000 0.0000 0.0000
# 4 0.0000 0.0000 0.0000 -24.5642 0.0000 0.0000
# 5 0.0000 0.0000 0.0000 0.0000 40.6556 0.0000
# 6 0.0000 0.0000 0.0000 0.0000 0.0000 11.2972
#
#
#
# Elastic Compliance Matrix: (Units=1/GPa)
#
#
# Indices 1 2 3 4 5 6 
#
# 1 0.015283 0.000671 -0.004271 0.000000 0.000000 0.000000
# 2 0.000671 0.009520 -0.003020 0.000000 0.000000 0.000000
# 3 -0.004271 -0.003020 0.008992 0.000000 0.000000 0.000000
# 4 0.000000 0.000000 0.000000 -0.040710 0.000000 0.000000
# 5 0.000000 0.000000 0.000000 0.000000 0.024597 0.000000
# 6 0.000000 0.000000 0.000000 0.000000 0.000000 0.088518
#
#
# Mechanical properties :
#
#
# Convention : Reuss Voigt Hill
#
# Bulk Modulus (GPa) = 48.64549 57.09616 52.87082
# Shear Modulus (GPa) = 39.59180 22.13185 30.86182
#
# Velocity S-wave (km/s) = 4.16711 3.11559 3.67911
# Velocity P-wave (km/s) = 6.66999 6.16317 6.42158
#
# Compressibility (1/GPa) = 0.02055689
#
# Stress axis : x y z
#
# Youngs Moduli (GPa) = 65.43311 105.04359 111.21349
#
# Poissons Ratio (x) = -0.07052 0.47494
# Poissons Ratio (y) = -0.04393 0.33582
# Poissons Ratio (z) = 0.27943 0.31719
#
# Static dielectric constant tensor:
#      x y z
#    x 1.875660 0.000000 0.000000 
#    y 0.000000 1.995730 0.000000 
#    z 0.000000 0.000000 2.537180 
# 
# From -- ./inp_files/11139.got.cif
#   From: 2010.05.17/outbox.cif.g08.bks.cpg/sg20_6_cif.got.tgz:11139.got - 2010.06.03 22:52:26.
