data_PCOD9321312
_publ_section_title
;
Structure prediction by ZEFSAII (Michael W. Deem and Ramdas Pophale) SiO2 
 PCOD9321312
Probable space group: C 2 2 21
;
_chemical_formula_sum "Si O2"
_cell_formula_units_Z 32
_cell_length_a 19.052663
_cell_length_b 17.295009
_cell_length_c 4.991315
_cell_angle_alpha 90.000000
_cell_angle_beta 90.000000
_cell_angle_gamma 90.000000
_cell_volume 1644.718044
_symmetry_space_group_name_H-M "C 2 2 21"
_symmetry_group_IT_number 20
_symmetry_cell_setting 'orthorhombic'
loop_
_space_group_symop_operation_xyz
x,y,z
-x,-y,1/2+z
x,-y,-z
-x,y,1/2-z
1/2+x,1/2+y,z
1/2-x,1/2-y,1/2+z
1/2+x,1/2-y,-z
1/2-x,1/2+y,1/2-z
loop_
_atom_site_type_symbol
_atom_site_label
_atom_site_fract_x
_atom_site_fract_y
_atom_site_fract_z
Si Si1 0.075611 0.824291 0.155388
Si Si2 0.292413 0.223622 0.408836
Si Si3 0.604084 0.424814 0.658207
Si Si4 0.268311 0.051103 0.248799
O O1 0.131378 0.761707 0.056005
O O2 0.107724 0.862348 0.421971
O O3 0.000000 0.794554 0.250000
O O4 0.067098 0.888675 0.920129
O O5 0.252165 0.226809 0.692005
O O6 0.295489 0.137777 0.287353
O O7 0.575197 0.500000 0.500000
O O8 0.683204 0.442637 0.754104
O O9 0.288270 0.000000 0.500000
O O10 0.291339 0.000000 0.000000
#
# Coordination Sequence:
#
# PCOD9321312 Si02
#       4
#     8   8   8   8
#     4  12  24  40  60  88 124 165 205 249 302 362
#     4  12  22  40  63  89 117 160 206 256 300 357
#     4  11  22  38  59  87 125 163 202 241 296 370
#     4  11  21  36  61  88 118 150 198 251 300 350
#
# _framework density 19.456222
#
# number of rings (size 3 to 8) (size 9 to 14) (size 15 to 20)
#    0.000    0.500    5.000    6.000    0.000    2.000 
#    0.000    1.250    0.000    1.500    0.000    0.000 
#    0.000    0.000    0.000    0.000    0.000    0.000 
#
# Total GULP energy -89420.640305 kJ/mol
# GULP energy per Si atom -5588.790019 kJ/mol
# Density = 1.941194 g / cm^3
# Si number density = 19.456222 Si / 1000 Ang^3
#
#
#
# Elastic Constant Matrix: (Units=GPa)
#
#
# Indices 1 2 3 4 5 6 
#
# 1 90.9758 32.5319 19.8276 0.0000 0.0000 0.0000
# 2 32.5319 89.8595 8.6583 0.0000 0.0000 0.0000
# 3 19.8276 8.6583 106.6643 0.0000 0.0000 0.0000
# 4 0.0000 0.0000 0.0000 30.6216 0.0000 0.0000
# 5 0.0000 0.0000 0.0000 0.0000 22.9698 0.0000
# 6 0.0000 0.0000 0.0000 0.0000 0.0000 24.8883
#
#
#
# Elastic Compliance Matrix: (Units=1/GPa)
#
#
# Indices 1 2 3 4 5 6 
#
# 1 0.013061 -0.004530 -0.002060 0.000000 0.000000 0.000000
# 2 -0.004530 0.012787 -0.000196 0.000000 0.000000 0.000000
# 3 -0.002060 -0.000196 0.009774 0.000000 0.000000 0.000000
# 4 0.000000 0.000000 0.000000 0.032657 0.000000 0.000000
# 5 0.000000 0.000000 0.000000 0.000000 0.043535 0.000000
# 6 0.000000 0.000000 0.000000 0.000000 0.000000 0.040179
#
#
# Mechanical properties :
#
#
# Convention : Reuss Voigt Hill
#
# Bulk Modulus (GPa) = 45.35101 45.50391 45.42746
# Shear Modulus (GPa) = 28.91581 30.79473 29.85527
#
# Velocity S-wave (km/s) = 3.85931 3.98272 3.92150
# Velocity P-wave (km/s) = 6.57411 6.67743 6.62597
#
# Compressibility (1/GPa) = 0.02205023
#
# Stress axis : x y z
#
# Youngs Moduli (GPa) = 76.56516 78.20247 102.31159
#
# Poissons Ratio (x) = 0.35425 0.21077
# Poissons Ratio (y) = 0.34683 0.02005
# Poissons Ratio (z) = 0.15773 0.01532
#
# Static dielectric constant tensor:
#      x y z
#    x 1.684760 0.000000 0.000000 
#    y 0.000000 1.679560 0.000000 
#    z 0.000000 0.000000 1.669090 
# 
# From -- ./inp_files/3029.got.cif
#   From: 2010.05.17/outbox.cif.g08.bks.cpg/sg20_2_cif.got.tgz:3029.got - 2010.06.03 22:52:26.
