data_PCOD9321271
_publ_section_title
;
Structure prediction by ZEFSAII (Michael W. Deem and Ramdas Pophale) SiO2 
 PCOD9321271
Probable space group: C 2 2 21
;
_chemical_formula_sum "Si O2"
_cell_formula_units_Z 48
_cell_length_a 11.411366
_cell_length_b 22.719798
_cell_length_c 8.920052
_cell_angle_alpha 90.000000
_cell_angle_beta 90.000000
_cell_angle_gamma 90.000000
_cell_volume 2312.647741
_symmetry_space_group_name_H-M "C 2 2 21"
_symmetry_group_IT_number 20
_symmetry_cell_setting 'orthorhombic'
loop_
_space_group_symop_operation_xyz
x,y,z
-x,-y,1/2+z
x,-y,-z
-x,y,1/2-z
1/2+x,1/2+y,z
1/2-x,1/2-y,1/2+z
1/2+x,1/2-y,-z
1/2-x,1/2+y,1/2-z
loop_
_atom_site_type_symbol
_atom_site_label
_atom_site_fract_x
_atom_site_fract_y
_atom_site_fract_z
Si Si1 0.275295 0.136483 0.422543
Si Si2 0.474425 0.164359 0.925839
Si Si3 0.367254 0.221083 0.191933
Si Si4 0.599694 0.025487 0.153744
Si Si5 0.695369 0.057886 0.603491
Si Si6 0.637187 0.355307 0.278668
O O1 0.395513 0.156486 0.506222
O O2 0.277554 0.176396 0.272737
O O3 0.295689 0.069663 0.373285
O O4 0.174992 0.135987 0.547679
O O5 0.500000 0.174828 0.750000
O O6 0.401423 0.104211 0.954068
O O7 0.392854 0.211626 0.014496
O O8 0.500000 0.210207 0.250000
O O9 0.331961 0.286386 0.241922
O O10 0.500000 0.056899 0.250000
O O11 0.640669 0.970355 0.248193
O O12 0.552239 0.000000 0.000000
O O13 0.798642 0.099894 0.665439
O O14 0.722516 0.000000 0.500000
O O15 0.500000 0.361139 0.250000
#
# Coordination Sequence:
#
# PCOD9321271 Si02
#       6
#     8   8   8   8   8   8
#     4  11  21  39  65  95 130 172 212 284 355 415
#     4  11  20  38  68 107 133 163 214 287 365 422
#     4   9  22  40  66  97 134 170 223 285 351 413
#     4  12  21  36  62 102 136 161 211 281 356 424
#     4  12  24  40  64  94 132 179 225 283 350 411
#     4  11  25  45  63  92 136 186 240 283 334 426
#
# _framework density 20.755431000000002
#
# number of rings (size 3 to 8) (size 9 to 14) (size 15 to 20)
#    0.000    1.000    3.333    5.500    2.333    0.000 
#    3.000    0.000    3.667    0.000    0.000    0.000 
#    0.000    0.000    0.000    0.000    0.000    0.000 
#
# Total GULP energy -133849.768153 kJ/mol
# GULP energy per Si atom -5577.073673 kJ/mol
# Density = 2.070819 g / cm^3
# Si number density = 20.755431 Si / 1000 Ang^3
#
#
#
# Elastic Constant Matrix: (Units=GPa)
#
#
# Indices 1 2 3 4 5 6 
#
# 1 70.1152 38.5695 40.5018 0.0000 0.0000 0.0000
# 2 38.5695 81.0057 44.9702 0.0000 0.0000 0.0000
# 3 40.5018 44.9702 126.3355 0.0000 0.0000 0.0000
# 4 0.0000 0.0000 0.0000 36.2869 0.0000 0.0000
# 5 0.0000 0.0000 0.0000 0.0000 31.8369 0.0000
# 6 0.0000 0.0000 0.0000 0.0000 0.0000 18.5977
#
#
#
# Elastic Compliance Matrix: (Units=1/GPa)
#
#
# Indices 1 2 3 4 5 6 
#
# 1 0.020766 -0.007716 -0.003911 0.000000 0.000000 0.000000
# 2 -0.007716 0.018252 -0.004023 0.000000 0.000000 0.000000
# 3 -0.003911 -0.004023 0.010601 0.000000 0.000000 0.000000
# 4 0.000000 0.000000 0.000000 0.027558 0.000000 0.000000
# 5 0.000000 0.000000 0.000000 0.000000 0.031410 0.000000
# 6 0.000000 0.000000 0.000000 0.000000 0.000000 0.053770
#
#
# Mechanical properties :
#
#
# Convention : Reuss Voigt Hill
#
# Bulk Modulus (GPa) = 54.58827 58.39327 56.49077
# Shear Modulus (GPa) = 25.02945 27.57196 26.30071
#
# Velocity S-wave (km/s) = 3.47641 3.64871 3.56360
# Velocity P-wave (km/s) = 6.51703 6.77833 6.64897
#
# Compressibility (1/GPa) = 0.01831895
#
# Stress axis : x y z
#
# Youngs Moduli (GPa) = 48.15593 54.78743 94.32833
#
# Poissons Ratio (x) = 0.42276 0.36888
# Poissons Ratio (y) = 0.37159 0.37951
# Poissons Ratio (z) = 0.18832 0.22043
#
# Static dielectric constant tensor:
#      x y z
#    x 1.737200 0.000000 0.000000 
#    y 0.000000 1.776280 0.000000 
#    z 0.000000 0.000000 1.858560 
# 
# From -- ./inp_files/7373.got.cif
#   From: 2010.05.17/outbox.cif.g08.bks.cpg/sg20_4_cif.got.tgz:7373.got - 2010.06.03 22:52:26.
