data_PCOD9321340
_publ_section_title
;
Structure prediction by ZEFSAII (Michael W. Deem and Ramdas Pophale) SiO2 
 PCOD9321340
Probable space group: C 2 2 21
;
_chemical_formula_sum "Si O2"
_cell_formula_units_Z 48
_cell_length_a 14.616419
_cell_length_b 8.846493
_cell_length_c 18.233199
_cell_angle_alpha 90.000000
_cell_angle_beta 90.000000
_cell_angle_gamma 90.000000
_cell_volume 2357.626445
_symmetry_space_group_name_H-M "C 2 2 21"
_symmetry_group_IT_number 20
_symmetry_cell_setting 'orthorhombic'
loop_
_space_group_symop_operation_xyz
x,y,z
-x,-y,1/2+z
x,-y,-z
-x,y,1/2-z
1/2+x,1/2+y,z
1/2-x,1/2-y,1/2+z
1/2+x,1/2-y,-z
1/2-x,1/2+y,1/2-z
loop_
_atom_site_type_symbol
_atom_site_label
_atom_site_fract_x
_atom_site_fract_y
_atom_site_fract_z
Si Si1 0.386379 0.641579 0.456588
Si Si2 0.745013 0.451820 0.824008
Si Si3 0.374865 0.879882 0.566458
Si Si4 0.277047 0.314117 0.829066
Si Si5 0.916143 0.371197 0.903294
Si Si6 0.580214 0.224829 0.558087
O O1 0.426649 0.500000 0.500000
O O2 0.318671 0.593096 0.392760
O O3 0.337777 0.735470 0.521256
O O4 0.473710 0.736766 0.431050
O O5 0.704037 0.387012 0.749213
O O6 0.754286 0.634367 0.820386
O O7 0.843021 0.366771 0.837930
O O8 0.305060 0.905843 0.631913
O O9 0.474419 0.849031 0.602184
O O10 0.383080 0.000000 0.500000
O O11 0.360583 0.319843 0.885812
O O12 0.906897 0.547810 0.924995
O O13 0.892024 0.264632 0.972570
#
# Coordination Sequence:
#
# PCOD9321340 Si02
#       6
#     8   8   8   8   8   8
#     4  11  21  39  65  93 118 154 200 261 305 344
#     4  11  25  41  62  87 128 166 199 245 309 365
#     4  11  21  39  67  93 116 152 213 253 295 361
#     4  11  25  42  59  91 126 165 199 246 307 366
#     4   9  18  39  67  87 111 160 206 241 290 368
#     4   9  19  39  64  89 115 154 205 246 296 356
#
# _framework density 20.359459000000001
#
# number of rings (size 3 to 8) (size 9 to 14) (size 15 to 20)
#    0.000    1.667    5.000    1.000    4.667    2.000 
#    6.000    5.000    0.000    0.000    0.000    0.000 
#    0.000    0.000    0.000    0.000    0.000    0.000 
#
# Total GULP energy -133737.725479 kJ/mol
# GULP energy per Si atom -5572.405228 kJ/mol
# Density = 2.031312 g / cm^3
# Si number density = 20.359459 Si / 1000 Ang^3
#
#
#
# Elastic Constant Matrix: (Units=GPa)
#
#
# Indices 1 2 3 4 5 6 
#
# 1 63.5395 -0.4098 25.4421 0.0000 0.0000 0.0000
# 2 -0.4098 35.6996 8.9711 0.0000 0.0000 0.0000
# 3 25.4421 8.9711 60.2707 0.0000 0.0000 0.0000
# 4 0.0000 0.0000 0.0000 31.1701 0.0000 0.0000
# 5 0.0000 0.0000 0.0000 0.0000 5.6647 0.0000
# 6 0.0000 0.0000 0.0000 0.0000 0.0000 21.6825
#
#
#
# Elastic Compliance Matrix: (Units=1/GPa)
#
#
# Indices 1 2 3 4 5 6 
#
# 1 0.019125 0.002336 -0.008421 0.000000 0.000000 0.000000
# 2 0.002336 0.029385 -0.005360 0.000000 0.000000 0.000000
# 3 -0.008421 -0.005360 0.020944 0.000000 0.000000 0.000000
# 4 0.000000 0.000000 0.000000 0.032082 0.000000 0.000000
# 5 0.000000 0.000000 0.000000 0.000000 0.176532 0.000000
# 6 0.000000 0.000000 0.000000 0.000000 0.000000 0.046120
#
#
# Mechanical properties :
#
#
# Convention : Reuss Voigt Hill
#
# Bulk Modulus (GPa) = 21.47560 25.27962 23.37761
# Shear Modulus (GPa) = 13.78926 20.07056 16.92991
#
# Velocity S-wave (km/s) = 2.60530 3.14317 2.88679
# Velocity P-wave (km/s) = 4.42959 5.06125 4.75592
#
# Compressibility (1/GPa) = 0.04656448
#
# Stress axis : x y z
#
# Youngs Moduli (GPa) = 52.28708 34.03066 47.74550
#
# Poissons Ratio (x) = -0.07948 0.40206
# Poissons Ratio (y) = -0.12213 0.25591
# Poissons Ratio (z) = 0.44031 0.18240
#
# Static dielectric constant tensor:
#      x y z
#    x 1.747090 0.000000 0.000000 
#    y 0.000000 1.793820 0.000000 
#    z 0.000000 0.000000 1.698900 
# 
# From -- ./inp_files/27456.got.cif
#   From: 2010.05.17/outbox.cif.g08.bks.cpg/sg20_14_cif.got.tgz:27456.got - 2010.06.03 22:52:26.
