data_PCOD9321860
_publ_section_title
;
Structure prediction by ZEFSAII (Michael W. Deem and Ramdas Pophale) SiO2 
 PCOD9321860
Probable space group: C 2 2 21
;
_chemical_formula_sum "Si O2"
_cell_formula_units_Z 32
_cell_length_a 35.146752
_cell_length_b 5.357387
_cell_length_c 7.689174
_cell_angle_alpha 90.000000
_cell_angle_beta 90.000000
_cell_angle_gamma 90.000000
_cell_volume 1447.831113
_symmetry_space_group_name_H-M "C 2 2 21"
_symmetry_group_IT_number 20
_symmetry_cell_setting 'orthorhombic'
loop_
_space_group_symop_operation_xyz
x,y,z
-x,-y,1/2+z
x,-y,-z
-x,y,1/2-z
1/2+x,1/2+y,z
1/2-x,1/2-y,1/2+z
1/2+x,1/2-y,-z
1/2-x,1/2+y,1/2-z
loop_
_atom_site_type_symbol
_atom_site_label
_atom_site_fract_x
_atom_site_fract_y
_atom_site_fract_z
Si Si1 0.672751 0.000000 0.000000
Si Si2 0.034480 0.750565 0.116221
Si Si3 0.274779 0.252781 0.757002
Si Si4 0.619338 0.342885 0.180403
Si Si5 0.830414 0.000000 0.000000
O O1 0.699184 0.206725 0.912550
O O2 0.644655 0.899727 0.854181
O O3 0.075290 0.781682 0.210427
O O4 0.000000 0.729426 0.250000
O O5 0.036384 0.500000 0.000000
O O6 0.029146 0.000000 0.000000
O O7 0.251186 0.507095 0.734718
O O8 0.301334 0.290378 0.926647
O O9 0.641347 0.463889 0.338923
O O10 0.620593 0.500000 0.000000
#
# Coordination Sequence:
#
# PCOD9321860 Si02
#       5
#     4   8   8   8   4
#     4  12  25  48  72  98 158 192 238 322 380 434
#     4  11  25  49  78 114 158 199 245 308 373 448
#     4  12  29  49  74 111 147 197 258 318 382 452
#     4  11  25  49  74 113 152 199 247 319 370 453
#     4  12  27  48  82 106 144 208 258 304 390 460
#
# _framework density 22.102025000000001
#
# number of rings (size 3 to 8) (size 9 to 14) (size 15 to 20)
#    0.000    0.500    3.750    3.000    1.750   10.000 
#    4.500    0.000    0.000    0.000    0.000    0.000 
#    0.000    0.000    0.000    0.000    0.000    0.000 
#
# Total GULP energy -89521.986679 kJ/mol
# GULP energy per Si atom -5595.124167 kJ/mol
# Density = 2.205172 g / cm^3
# Si number density = 22.102025 Si / 1000 Ang^3
#
#
#
# Elastic Constant Matrix: (Units=GPa)
#
#
# Indices 1 2 3 4 5 6 
#
# 1 212.5020 77.9507 73.5723 0.0000 0.0000 0.0000
# 2 77.9507 135.7134 38.2811 0.0000 0.0000 0.0000
# 3 73.5723 38.2811 96.9785 0.0000 0.0000 0.0000
# 4 0.0000 0.0000 0.0000 32.6577 0.0000 0.0000
# 5 0.0000 0.0000 0.0000 0.0000 54.2830 0.0000
# 6 0.0000 0.0000 0.0000 0.0000 0.0000 36.6956
#
#
#
# Elastic Compliance Matrix: (Units=1/GPa)
#
#
# Indices 1 2 3 4 5 6 
#
# 1 0.007307 -0.002963 -0.004374 0.000000 0.000000 0.000000
# 2 -0.002963 0.009493 -0.001499 0.000000 0.000000 0.000000
# 3 -0.004374 -0.001499 0.014222 0.000000 0.000000 0.000000
# 4 0.000000 0.000000 0.000000 0.030621 0.000000 0.000000
# 5 0.000000 0.000000 0.000000 0.000000 0.018422 0.000000
# 6 0.000000 0.000000 0.000000 0.000000 0.000000 0.027251
#
#
# Mechanical properties :
#
#
# Convention : Reuss Voigt Hill
#
# Bulk Modulus (GPa) = 74.91034 91.64468 83.27751
# Shear Modulus (GPa) = 38.62832 41.75324 40.19078
#
# Velocity S-wave (km/s) = 4.18512 4.35111 4.26892
# Velocity P-wave (km/s) = 7.57101 8.17296 7.87774
#
# Compressibility (1/GPa) = 0.01334929
#
# Stress axis : x y z
#
# Youngs Moduli (GPa) = 136.85222 105.33569 70.31573
#
# Poissons Ratio (x) = 0.31214 0.30755
# Poissons Ratio (y) = 0.40554 0.10543
# Poissons Ratio (z) = 0.59856 0.15793
#
# Static dielectric constant tensor:
#      x y z
#    x 1.787510 0.000000 0.000000 
#    y 0.000000 1.831470 0.000000 
#    z 0.000000 0.000000 1.801560 
# 
# From -- ./inp_files/11308.got.cif
#   From: 2010.05.17/outbox.cif.g08.bks.cpg/sg20_6_cif.got.tgz:11308.got - 2010.06.03 22:52:26.
