data_PCOD9321172
_publ_section_title
;
Structure prediction by ZEFSAII (Michael W. Deem and Ramdas Pophale) SiO2 
 PCOD9321172
Probable space group: C 2 2 21
;
_chemical_formula_sum "Si O2"
_cell_formula_units_Z 32
_cell_length_a 14.982855
_cell_length_b 9.857435
_cell_length_c 8.576495
_cell_angle_alpha 90.000000
_cell_angle_beta 90.000000
_cell_angle_gamma 90.000000
_cell_volume 1266.684153
_symmetry_space_group_name_H-M "C 2 2 21"
_symmetry_group_IT_number 20
_symmetry_cell_setting 'orthorhombic'
loop_
_space_group_symop_operation_xyz
x,y,z
-x,-y,1/2+z
x,-y,-z
-x,y,1/2-z
1/2+x,1/2+y,z
1/2-x,1/2-y,1/2+z
1/2+x,1/2-y,-z
1/2-x,1/2+y,1/2-z
loop_
_atom_site_type_symbol
_atom_site_label
_atom_site_fract_x
_atom_site_fract_y
_atom_site_fract_z
Si Si1 0.500000 0.902749 0.750000
Si Si2 0.196509 0.601445 0.200509
Si Si3 0.009323 0.226248 0.426738
Si Si4 0.685053 0.652125 0.036840
Si Si5 0.342905 0.500000 0.000000
O O1 0.399720 0.963000 0.734806
O O2 0.508121 0.821457 0.582155
O O3 0.240745 0.685533 0.337732
O O4 0.184064 0.719862 0.075230
O O5 0.272608 0.497859 0.143068
O O6 0.000000 0.288734 0.250000
O O7 0.918682 0.138805 0.420982
O O8 0.092921 0.126355 0.457868
O O9 0.715180 0.500000 0.000000
#
# Coordination Sequence:
#
# PCOD9321172 Si02
#       5
#     4   8   8   8   4
#     4  10  26  48  68 102 150 202 250 302 378 470
#     4  11  26  44  73 104 152 197 247 318 383 463
#     4  11  23  41  75 109 142 184 249 325 376 432
#     4  11  25  44  71 109 142 191 250 308 384 447
#     4  12  24  42  76 110 146 190 256 320 382 456
#
# _framework density 25.262810000000002
#
# number of rings (size 3 to 8) (size 9 to 14) (size 15 to 20)
#    0.000    1.000    3.750    1.500   12.250    0.000 
#    2.250    0.000    2.750    0.000    0.000    0.000 
#    0.000    0.000    0.000    0.000    0.000    0.000 
#
# Total GULP energy -89118.226260 kJ/mol
# GULP energy per Si atom -5569.889141 kJ/mol
# Density = 2.520531 g / cm^3
# Si number density = 25.262810 Si / 1000 Ang^3
#
#
#
# Elastic Constant Matrix: (Units=GPa)
#
#
# Indices 1 2 3 4 5 6 
#
# 1 248.1955 53.1894 56.8278 0.0000 0.0000 0.0000
# 2 53.1894 79.9655 27.2712 0.0000 0.0000 0.0000
# 3 56.8278 27.2712 120.7431 0.0000 0.0000 0.0000
# 4 0.0000 0.0000 0.0000 -14.6158 0.0000 0.0000
# 5 0.0000 0.0000 0.0000 0.0000 31.3738 0.0000
# 6 0.0000 0.0000 0.0000 0.0000 0.0000 14.1817
#
#
#
# Elastic Compliance Matrix: (Units=1/GPa)
#
#
# Indices 1 2 3 4 5 6 
#
# 1 0.005015 -0.002742 -0.001741 0.000000 0.000000 0.000000
# 2 -0.002742 0.015048 -0.002108 0.000000 0.000000 0.000000
# 3 -0.001741 -0.002108 0.009578 0.000000 0.000000 0.000000
# 4 0.000000 0.000000 0.000000 -0.068419 0.000000 0.000000
# 5 0.000000 0.000000 0.000000 0.000000 0.031874 0.000000
# 6 0.000000 0.000000 0.000000 0.000000 0.000000 0.070513
#
#
# Mechanical properties :
#
#
# Convention : Reuss Voigt Hill
#
# Bulk Modulus (GPa) = 60.75965 80.38676 70.57320
# Shear Modulus (GPa) = 60.76909 26.96232 43.86570
#
# Velocity S-wave (km/s) = 4.90989 3.27046 4.17150
# Velocity P-wave (km/s) = 7.49973 6.79341 7.15529
#
# Compressibility (1/GPa) = 0.01645829
#
# Stress axis : x y z
#
# Youngs Moduli (GPa) = 199.38541 66.45234 104.40940
#
# Poissons Ratio (x) = 0.18223 0.18179
# Poissons Ratio (y) = 0.54676 0.22012
# Poissons Ratio (z) = 0.34716 0.14010
#
# Static dielectric constant tensor:
#      x y z
#    x 1.939220 0.000000 0.000000 
#    y 0.000000 2.002100 0.000000 
#    z 0.000000 0.000000 2.262320 
# 
# From -- ./inp_files/6831.got.cif
#   From: 2010.05.17/outbox.cif.g08.bks.cpg/sg20_4_cif.got.tgz:6831.got - 2010.06.03 22:52:26.
