data_PCOD9321337
_publ_section_title
;
Structure prediction by ZEFSAII (Michael W. Deem and Ramdas Pophale) SiO2 
 PCOD9321337
Probable space group: C 2 2 21
;
_chemical_formula_sum "Si O2"
_cell_formula_units_Z 40
_cell_length_a 18.300536
_cell_length_b 11.845810
_cell_length_c 8.841069
_cell_angle_alpha 90.000000
_cell_angle_beta 90.000000
_cell_angle_gamma 90.000000
_cell_volume 1916.608246
_symmetry_space_group_name_H-M "C 2 2 21"
_symmetry_group_IT_number 20
_symmetry_cell_setting 'orthorhombic'
loop_
_space_group_symop_operation_xyz
x,y,z
-x,-y,1/2+z
x,-y,-z
-x,y,1/2-z
1/2+x,1/2+y,z
1/2-x,1/2-y,1/2+z
1/2+x,1/2-y,-z
1/2-x,1/2+y,1/2-z
loop_
_atom_site_type_symbol
_atom_site_label
_atom_site_fract_x
_atom_site_fract_y
_atom_site_fract_z
Si Si1 0.273159 0.448378 0.142481
Si Si2 0.500000 0.161793 0.250000
Si Si3 0.132968 0.258245 0.556141
Si Si4 0.785364 0.889988 0.602068
Si Si5 0.639966 0.817609 0.215222
Si Si6 0.562964 0.000000 0.000000
O O1 0.335558 0.367369 0.080113
O O2 0.296335 0.557086 0.233327
O O3 0.220387 0.371704 0.243916
O O4 0.230436 0.500000 0.000000
O O5 0.429672 0.226394 0.182237
O O6 0.479762 0.084264 0.391478
O O7 0.202801 0.341414 0.587167
O O8 0.110190 0.282214 0.380662
O O9 0.841915 0.785891 0.600606
O O10 0.798389 0.000000 0.500000
O O11 0.598602 0.914610 0.124338
#
# Coordination Sequence:
#
# PCOD9321337 Si02
#       6
#     8   4   8   8   8   4
#     4  11  21  39  65 100 133 166 206 279 343 389
#     4  12  28  44  64  88 132 182 226 266 310 392
#     4  11  25  41  63  96 136 173 222 264 326 400
#     4  11  23  38  69 104 132 165 211 279 347 394
#     4  11  23  40  68 103 131 166 217 279 342 391
#     4  12  26  42  68  90 134 172 226 272 324 390
#
# _framework density 20.870201999999999
#
# number of rings (size 3 to 8) (size 9 to 14) (size 15 to 20)
#    0.000    0.800    5.000    2.400    4.200    0.000 
#    0.000    0.000    4.400    0.000    0.000    0.000 
#    0.000    0.000    0.000    0.000    0.000    0.000 
#
# Total GULP energy -111405.914117 kJ/mol
# GULP energy per Si atom -5570.295706 kJ/mol
# Density = 2.082270 g / cm^3
# Si number density = 20.870202 Si / 1000 Ang^3
#
#
#
# Elastic Constant Matrix: (Units=GPa)
#
#
# Indices 1 2 3 4 5 6 
#
# 1 31.1328 12.9752 32.6032 0.0000 0.0000 0.0000
# 2 12.9752 72.9237 4.3093 0.0000 0.0000 0.0000
# 3 32.6032 4.3093 98.9625 0.0000 0.0000 0.0000
# 4 0.0000 0.0000 0.0000 38.5850 0.0000 0.0000
# 5 0.0000 0.0000 0.0000 0.0000 11.5547 0.0000
# 6 0.0000 0.0000 0.0000 0.0000 0.0000 -9.3749
#
#
#
# Elastic Compliance Matrix: (Units=1/GPa)
#
#
# Indices 1 2 3 4 5 6 
#
# 1 0.053891 -0.008562 -0.017382 0.000000 0.000000 0.000000
# 2 -0.008562 0.015109 0.002163 0.000000 0.000000 0.000000
# 3 -0.017382 0.002163 0.015737 0.000000 0.000000 0.000000
# 4 0.000000 0.000000 0.000000 0.025917 0.000000 0.000000
# 5 0.000000 0.000000 0.000000 0.000000 0.086545 0.000000
# 6 0.000000 0.000000 0.000000 0.000000 0.000000 -0.106668
#
#
# Mechanical properties :
#
#
# Convention : Reuss Voigt Hill
#
# Bulk Modulus (GPa) = 26.89930 33.64383 30.27156
# Shear Modulus (GPa) = 33.22609 18.36171 25.79390
#
# Velocity S-wave (km/s) = 3.99436 2.96937 3.51938
# Velocity P-wave (km/s) = 5.84723 5.28315 5.57233
#
# Compressibility (1/GPa) = 0.03717569
#
# Stress axis : x y z
#
# Youngs Moduli (GPa) = 18.55585 66.18781 63.54429
#
# Poissons Ratio (x) = 0.56668 1.10451
# Poissons Ratio (y) = 0.15887 -0.13743
# Poissons Ratio (z) = 0.32253 -0.14315
#
# Static dielectric constant tensor:
#      x y z
#    x 1.771800 0.000000 0.000000 
#    y 0.000000 1.715890 0.000000 
#    z 0.000000 0.000000 1.960440 
# 
# From -- ./inp_files/7088.got.cif
#   From: 2010.05.17/outbox.cif.g08.bks.cpg/sg20_4_cif.got.tgz:7088.got - 2010.06.03 22:52:26.
