data_PCOD9321938
_publ_section_title
;
Structure prediction by ZEFSAII (Michael W. Deem and Ramdas Pophale) SiO2 
 PCOD9321938
Probable space group: C 2 2 21
;
_chemical_formula_sum "Si O2"
_cell_formula_units_Z 40
_cell_length_a 4.940586
_cell_length_b 14.551015
_cell_length_c 24.663025
_cell_angle_alpha 90.000000
_cell_angle_beta 90.000000
_cell_angle_gamma 90.000000
_cell_volume 1773.038210
_symmetry_space_group_name_H-M "C 2 2 21"
_symmetry_group_IT_number 20
_symmetry_cell_setting 'orthorhombic'
loop_
_space_group_symop_operation_xyz
x,y,z
-x,-y,1/2+z
x,-y,-z
-x,y,1/2-z
1/2+x,1/2+y,z
1/2-x,1/2-y,1/2+z
1/2+x,1/2-y,-z
1/2-x,1/2+y,1/2-z
loop_
_atom_site_type_symbol
_atom_site_label
_atom_site_fract_x
_atom_site_fract_y
_atom_site_fract_z
Si Si1 0.895386 0.314023 0.650474
Si Si2 0.272728 0.460360 0.440113
Si Si3 0.614337 0.202654 0.809980
Si Si4 0.493165 0.739989 0.536152
Si Si5 0.763656 0.487652 0.369322
O O1 0.128161 0.269249 0.686675
O O2 0.625590 0.252728 0.656832
O O3 0.992210 0.306536 0.587728
O O4 0.841509 0.420294 0.662589
O O5 0.305463 0.500000 0.500000
O O6 0.372767 0.355818 0.443386
O O7 0.469736 0.504101 0.395189
O O8 0.970145 0.472360 0.419114
O O9 0.500000 0.189720 0.750000
O O10 0.707136 0.105261 0.834797
O O11 0.788075 0.727010 0.510545
#
# Coordination Sequence:
#
# PCOD9321938 Si02
#       5
#     8   8   8   8   8
#     4  12  25  46  70 101 141 177 230 289 344 411
#     4  12  23  41  66 101 143 182 227 278 338 416
#     4  12  26  47  71  99 134 181 234 292 346 400
#     4  12  22  38  64 100 139 181 224 272 337 411
#     4  12  24  46  69  99 139 179 227 288 341 410
#
# _framework density 22.560144999999999
#
# number of rings (size 3 to 8) (size 9 to 14) (size 15 to 20)
#    0.000    0.000    4.000    7.200    0.000    1.600 
#    0.000    0.000    0.000    0.000    0.000    0.000 
#    0.000    0.000    0.000    0.000    0.000    0.000 
#
# Total GULP energy -112082.182859 kJ/mol
# GULP energy per Si atom -5604.109143 kJ/mol
# Density = 2.250880 g / cm^3
# Si number density = 22.560145 Si / 1000 Ang^3
#
#
#
# Elastic Constant Matrix: (Units=GPa)
#
#
# Indices 1 2 3 4 5 6 
#
# 1 66.0943 -18.1140 7.3322 0.0000 0.0000 0.0000
# 2 -18.1140 101.8172 21.1924 0.0000 0.0000 0.0000
# 3 7.3322 21.1924 75.0825 0.0000 0.0000 0.0000
# 4 0.0000 0.0000 0.0000 16.6339 0.0000 0.0000
# 5 0.0000 0.0000 0.0000 0.0000 27.2645 0.0000
# 6 0.0000 0.0000 0.0000 0.0000 0.0000 12.7808
#
#
#
# Elastic Compliance Matrix: (Units=1/GPa)
#
#
# Indices 1 2 3 4 5 6 
#
# 1 0.016359 0.003445 -0.002570 0.000000 0.000000 0.000000
# 2 0.003445 0.011160 -0.003486 0.000000 0.000000 0.000000
# 3 -0.002570 -0.003486 0.014554 0.000000 0.000000 0.000000
# 4 0.000000 0.000000 0.000000 0.060118 0.000000 0.000000
# 5 0.000000 0.000000 0.000000 0.000000 0.036678 0.000000
# 6 0.000000 0.000000 0.000000 0.000000 0.000000 0.078242
#
#
# Mechanical properties :
#
#
# Convention : Reuss Voigt Hill
#
# Bulk Modulus (GPa) = 27.13642 29.31281 28.22461
# Shear Modulus (GPa) = 21.31130 26.84139 24.07635
#
# Velocity S-wave (km/s) = 3.07684 3.45305 3.27036
# Velocity P-wave (km/s) = 4.96761 5.37768 5.17671
#
# Compressibility (1/GPa) = 0.03685084
#
# Stress axis : x y z
#
# Youngs Moduli (GPa) = 61.12755 89.60448 68.71095
#
# Poissons Ratio (x) = -0.30872 0.17659
# Poissons Ratio (y) = -0.21061 0.23956
# Poissons Ratio (z) = 0.15710 0.31240
#
# Static dielectric constant tensor:
#      x y z
#    x 1.817230 0.000000 0.000000 
#    y 0.000000 1.837990 0.000000 
#    z 0.000000 0.000000 1.912080 
# 
# From -- ./inp_files/28259.got.cif
#   From: 2010.05.17/outbox.cif.g08.bks.cpg/sg20_15_cif.got.tgz:28259.got - 2010.06.03 22:52:26.
