data_PCOD9321396
_publ_section_title
;
Structure prediction by ZEFSAII (Michael W. Deem and Ramdas Pophale) SiO2 
 PCOD9321396
Probable space group: C 2 2 21
;
_chemical_formula_sum "Si O2"
_cell_formula_units_Z 48
_cell_length_a 15.686088
_cell_length_b 12.141584
_cell_length_c 13.947633
_cell_angle_alpha 90.000000
_cell_angle_beta 90.000000
_cell_angle_gamma 90.000000
_cell_volume 2656.381869
_symmetry_space_group_name_H-M "C 2 2 21"
_symmetry_group_IT_number 20
_symmetry_cell_setting 'orthorhombic'
loop_
_space_group_symop_operation_xyz
x,y,z
-x,-y,1/2+z
x,-y,-z
-x,y,1/2-z
1/2+x,1/2+y,z
1/2-x,1/2-y,1/2+z
1/2+x,1/2-y,-z
1/2-x,1/2+y,1/2-z
loop_
_atom_site_type_symbol
_atom_site_label
_atom_site_fract_x
_atom_site_fract_y
_atom_site_fract_z
Si Si1 0.005028 0.670441 0.944283
Si Si2 0.084484 0.510556 0.182163
Si Si3 0.453725 0.239406 0.352051
Si Si4 0.834198 0.344620 0.179295
Si Si5 0.661595 0.442318 0.102982
Si Si6 0.910083 0.843892 0.696387
O O1 0.056974 0.562558 0.909079
O O2 0.058324 0.770616 0.894890
O O3 0.913055 0.658146 0.894838
O O4 0.993432 0.692709 0.056866
O O5 0.110264 0.635784 0.162451
O O6 0.150679 0.441611 0.243709
O O7 0.000000 0.516146 0.250000
O O8 0.500000 0.256321 0.250000
O O9 0.412300 0.352011 0.386272
O O10 0.746650 0.374713 0.128611
O O11 0.848519 0.232721 0.239283
O O12 0.637221 0.544006 0.171419
O O13 0.668527 0.500000 0.000000
O O14 0.000000 0.865099 0.750000
#
# Coordination Sequence:
#
# PCOD9321396 Si02
#       6
#     8   8   8   8   8   8
#     4   9  17  39  61  85 113 158 200 242 295 363
#     4   8  17  34  59  84 111 147 195 243 295 352
#     4  11  22  35  57  88 118 158 202 243 295 363
#     4   9  21  37  62  88 113 157 196 247 309 349
#     4  12  24  37  57  90 124 157 198 256 305 351
#     4   9  19  41  65  79 117 164 200 234 299 376
#
# _framework density 18.069690999999999
#
# number of rings (size 3 to 8) (size 9 to 14) (size 15 to 20)
#    0.000    2.333    1.667    3.000    2.333    4.000 
#    0.000    0.000    0.000    0.000    0.000    0.000 
#    0.000    0.000    0.000    0.000    0.000    0.000 
#
# Total GULP energy -133611.964485 kJ/mol
# GULP energy per Si atom -5567.165187 kJ/mol
# Density = 1.802856 g / cm^3
# Si number density = 18.069691 Si / 1000 Ang^3
#
#
#
# Elastic Constant Matrix: (Units=GPa)
#
#
# Indices 1 2 3 4 5 6 
#
# 1 48.4282 39.3972 34.9002 0.0000 0.0000 0.0000
# 2 39.3972 121.9893 44.0734 0.0000 0.0000 0.0000
# 3 34.9002 44.0734 129.5052 0.0000 0.0000 0.0000
# 4 0.0000 0.0000 0.0000 26.0322 0.0000 0.0000
# 5 0.0000 0.0000 0.0000 0.0000 14.6846 0.0000
# 6 0.0000 0.0000 0.0000 0.0000 0.0000 22.8732
#
#
#
# Elastic Compliance Matrix: (Units=1/GPa)
#
#
# Indices 1 2 3 4 5 6 
#
# 1 0.031304 -0.008052 -0.005696 0.000000 0.000000 0.000000
# 2 -0.008052 0.011418 -0.001716 0.000000 0.000000 0.000000
# 3 -0.005696 -0.001716 0.009841 0.000000 0.000000 0.000000
# 4 0.000000 0.000000 0.000000 0.038414 0.000000 0.000000
# 5 0.000000 0.000000 0.000000 0.000000 0.068099 0.000000
# 6 0.000000 0.000000 0.000000 0.000000 0.000000 0.043719
#
#
# Mechanical properties :
#
#
# Convention : Reuss Voigt Hill
#
# Bulk Modulus (GPa) = 46.22073 59.62934 52.92503
# Shear Modulus (GPa) = 20.75256 24.82145 22.78701
#
# Velocity S-wave (km/s) = 3.39259 3.71030 3.55500
# Velocity P-wave (km/s) = 6.40163 7.17122 6.79733
#
# Compressibility (1/GPa) = 0.02163532
#
# Stress axis : x y z
#
# Youngs Moduli (GPa) = 31.94434 87.58243 101.61996
#
# Poissons Ratio (x) = 0.70522 0.57882
# Poissons Ratio (y) = 0.25722 0.17436
# Poissons Ratio (z) = 0.18195 0.15027
#
# Static dielectric constant tensor:
#      x y z
#    x 1.593960 0.000000 0.000000 
#    y 0.000000 1.633250 0.000000 
#    z 0.000000 0.000000 1.655410 
# 
# From -- ./inp_files/20654.got.cif
#   From: 2010.05.17/outbox.cif.g08.bks.cpg/sg20_11_cif.got.tgz:20654.got - 2010.06.03 22:52:26.
