data_PCOD9321129
_publ_section_title
;
Structure prediction by ZEFSAII (Michael W. Deem and Ramdas Pophale) SiO2 
 PCOD9321129
Probable space group: C 2 2 21
;
_chemical_formula_sum "Si O2"
_cell_formula_units_Z 32
_cell_length_a 15.703212
_cell_length_b 4.893660
_cell_length_c 15.860371
_cell_angle_alpha 90.000000
_cell_angle_beta 90.000000
_cell_angle_gamma 90.000000
_cell_volume 1218.808932
_symmetry_space_group_name_H-M "C 2 2 21"
_symmetry_group_IT_number 20
_symmetry_cell_setting 'orthorhombic'
loop_
_space_group_symop_operation_xyz
x,y,z
-x,-y,1/2+z
x,-y,-z
-x,y,1/2-z
1/2+x,1/2+y,z
1/2-x,1/2-y,1/2+z
1/2+x,1/2-y,-z
1/2-x,1/2+y,1/2-z
loop_
_atom_site_type_symbol
_atom_site_label
_atom_site_fract_x
_atom_site_fract_y
_atom_site_fract_z
Si Si1 0.695347 0.962863 0.741698
Si Si2 0.234218 0.000000 0.500000
Si Si3 0.104752 0.358576 0.587903
Si Si4 0.642279 0.500000 0.000000
Si Si5 0.946189 0.080815 0.670136
O O1 0.770660 0.746303 0.722108
O O2 0.651352 0.046420 0.654913
O O3 0.627063 0.780877 0.792806
O O4 0.169828 0.888885 0.429386
O O5 0.296043 0.751265 0.522685
O O6 0.090343 0.500000 0.500000
O O7 0.017814 0.265696 0.627515
O O8 0.590192 0.572351 0.086142
O O9 0.000000 0.948341 0.750000
#
# Coordination Sequence:
#
# PCOD9321129 Si02
#       5
#     8   4   8   4   8
#     4  11  25  50  74 109 149 198 252 307 374 448
#     4  12  25  46  75 112 150 200 254 314 371 448
#     4  11  25  47  75 109 154 196 251 311 382 443
#     4  12  25  48  77 110 148 204 258 308 379 452
#     4  10  25  50  75 114 151 204 245 318 377 453
#
# _framework density 26.255139
#
# number of rings (size 3 to 8) (size 9 to 14) (size 15 to 20)
#    0.000    1.000    1.250    3.750    5.250    0.000 
#    4.500    5.000    0.000    0.000    0.000    0.000 
#    0.000    0.000    0.000    0.000    0.000    0.000 
#
# Total GULP energy -89573.513320 kJ/mol
# GULP energy per Si atom -5598.344582 kJ/mol
# Density = 2.619538 g / cm^3
# Si number density = 26.255139 Si / 1000 Ang^3
#
#
#
# Elastic Constant Matrix: (Units=GPa)
#
#
# Indices 1 2 3 4 5 6 
#
# 1 111.9788 32.8961 55.0949 0.0000 0.0000 0.0000
# 2 32.8961 84.4169 10.7314 0.0000 0.0000 0.0000
# 3 55.0949 10.7314 165.9814 0.0000 0.0000 0.0000
# 4 0.0000 0.0000 0.0000 41.5543 0.0000 0.0000
# 5 0.0000 0.0000 0.0000 0.0000 51.3819 0.0000
# 6 0.0000 0.0000 0.0000 0.0000 0.0000 10.0340
#
#
#
# Elastic Compliance Matrix: (Units=1/GPa)
#
#
# Indices 1 2 3 4 5 6 
#
# 1 0.011989 -0.004200 -0.003708 0.000000 0.000000 0.000000
# 2 -0.004200 0.013416 0.000527 0.000000 0.000000 0.000000
# 3 -0.003708 0.000527 0.007221 0.000000 0.000000 0.000000
# 4 0.000000 0.000000 0.000000 0.024065 0.000000 0.000000
# 5 0.000000 0.000000 0.000000 0.000000 0.019462 0.000000
# 6 0.000000 0.000000 0.000000 0.000000 0.000000 0.099661
#
#
# Mechanical properties :
#
#
# Convention : Reuss Voigt Hill
#
# Bulk Modulus (GPa) = 55.98138 62.20244 59.09191
# Shear Modulus (GPa) = 25.44127 38.17101 31.80614
#
# Velocity S-wave (km/s) = 3.11626 3.81707 3.48433
# Velocity P-wave (km/s) = 5.85802 6.57037 6.22439
#
# Compressibility (1/GPa) = 0.01786308
#
# Stress axis : x y z
#
# Youngs Moduli (GPa) = 83.41311 74.53878 138.47605
#
# Poissons Ratio (x) = 0.31309 0.51345
# Poissons Ratio (y) = 0.35037 -0.07296
# Poissons Ratio (z) = 0.30928 -0.03927
#
# Static dielectric constant tensor:
#      x y z
#    x 2.048080 0.000000 0.000000 
#    y 0.000000 2.000010 0.000000 
#    z 0.000000 0.000000 2.088920 
# 
# From -- ./inp_files/22564.got.cif
#   From: 2010.05.17/outbox.cif.g08.bks.cpg/sg20_12_cif.got.tgz:22564.got - 2010.06.03 22:52:26.
