data_PCOD9321599
_publ_section_title
;
Structure prediction by ZEFSAII (Michael W. Deem and Ramdas Pophale) SiO2 
 PCOD9321599
Probable space group: C 2 2 21
;
_chemical_formula_sum "Si O2"
_cell_formula_units_Z 64
_cell_length_a 15.152466
_cell_length_b 11.897346
_cell_length_c 17.303500
_cell_angle_alpha 90.000000
_cell_angle_beta 90.000000
_cell_angle_gamma 90.000000
_cell_volume 3119.373422
_symmetry_space_group_name_H-M "C 2 2 21"
_symmetry_group_IT_number 20
_symmetry_cell_setting 'orthorhombic'
loop_
_space_group_symop_operation_xyz
x,y,z
-x,-y,1/2+z
x,-y,-z
-x,y,1/2-z
1/2+x,1/2+y,z
1/2-x,1/2-y,1/2+z
1/2+x,1/2-y,-z
1/2-x,1/2+y,1/2-z
loop_
_atom_site_type_symbol
_atom_site_label
_atom_site_fract_x
_atom_site_fract_y
_atom_site_fract_z
Si Si1 0.034609 0.254890 0.332436
Si Si2 0.741023 0.801301 0.338143
Si Si3 0.031658 0.953625 0.918181
Si Si4 0.709039 0.734133 0.664334
Si Si5 0.488506 0.679656 0.840145
Si Si6 0.237008 0.961242 0.915147
Si Si7 0.879842 0.600186 0.605351
Si Si8 0.875338 0.341949 0.574994
O O1 0.136359 0.287346 0.330820
O O2 0.000000 0.211126 0.250000
O O3 0.968222 0.355451 0.353634
O O4 0.020173 0.155493 0.392861
O O5 0.784584 0.763426 0.257436
O O6 0.760168 0.930090 0.360157
O O7 0.786024 0.724983 0.404056
O O8 0.022651 0.054634 0.857590
O O9 0.135099 0.924999 0.926107
O O10 0.000051 0.000000 0.000000
O O11 0.614990 0.683831 0.641082
O O12 0.792773 0.659563 0.639050
O O13 0.716004 0.856345 0.624903
O O14 0.500000 0.707351 0.750000
O O15 0.545651 0.766061 0.891139
O O16 0.270853 0.000000 0.000000
O O17 0.873457 0.466042 0.611650
O O18 0.885296 0.637406 0.515952
#
# Coordination Sequence:
#
# PCOD9321599 Si02
#       8
#     8   8   8   8   8   8   8   8
#     4  12  25  44  70 100 135 179 228 281 338 403
#     4  12  26  44  72 101 137 179 229 283 341 405
#     4  11  23  43  69  97 137 176 223 280 339 403
#     4  12  26  44  72 101 137 179 229 283 341 405
#     4  12  25  44  70 100 135 179 228 281 338 403
#     4  11  24  45  70  99 140 183 230 282 338 409
#     4  11  26  47  69  99 141 179 222 280 344 407
#     4  11  26  47  69  99 141 179 222 280 344 407
#
# _framework density 20.516940000000002
#
# number of rings (size 3 to 8) (size 9 to 14) (size 15 to 20)
#    0.000    0.500    5.000    1.875    5.250    4.500 
#    0.000    0.000    0.000    0.000    0.000    0.000 
#    0.000    0.000    0.000    0.000    0.000    0.000 
#
# Total GULP energy -179048.881583 kJ/mol
# GULP energy per Si atom -5595.277549 kJ/mol
# Density = 2.047024 g / cm^3
# Si number density = 20.516940 Si / 1000 Ang^3
#
#
#
# Elastic Constant Matrix: (Units=GPa)
#
#
# Indices 1 2 3 4 5 6 
#
# 1 110.1292 2.8344 -5.5639 0.0000 0.0000 0.0000
# 2 2.8344 66.6579 -15.9727 0.0000 0.0000 0.0000
# 3 -5.5639 -15.9727 44.3763 0.0000 0.0000 0.0000
# 4 0.0000 0.0000 0.0000 29.2944 0.0000 0.0000
# 5 0.0000 0.0000 0.0000 0.0000 19.2851 0.0000
# 6 0.0000 0.0000 0.0000 0.0000 0.0000 48.4997
#
#
#
# Elastic Compliance Matrix: (Units=1/GPa)
#
#
# Indices 1 2 3 4 5 6 
#
# 1 0.009139 -0.000125 0.001101 0.000000 0.000000 0.000000
# 2 -0.000125 0.016420 0.005894 0.000000 0.000000 0.000000
# 3 0.001101 0.005894 0.024794 0.000000 0.000000 0.000000
# 4 0.000000 0.000000 0.000000 0.034136 0.000000 0.000000
# 5 0.000000 0.000000 0.000000 0.000000 0.051853 0.000000
# 6 0.000000 0.000000 0.000000 0.000000 0.000000 0.020619
#
#
# Mechanical properties :
#
#
# Convention : Reuss Voigt Hill
#
# Bulk Modulus (GPa) = 15.60207 20.41768 18.00988
# Shear Modulus (GPa) = 30.37945 35.40687 32.89316
#
# Velocity S-wave (km/s) = 3.85216 4.15871 4.00837
# Velocity P-wave (km/s) = 5.23512 5.74744 5.49725
#
# Compressibility (1/GPa) = 0.06409405
#
# Stress axis : x y z
#
# Youngs Moduli (GPa) = 109.42021 60.90248 40.33199
#
# Poissons Ratio (x) = 0.00760 -0.04440
# Poissons Ratio (y) = 0.01366 -0.23773
# Poissons Ratio (z) = -0.12046 -0.35898
#
# Static dielectric constant tensor:
#      x y z
#    x 1.688920 0.000000 0.000000 
#    y 0.000000 1.701600 0.000000 
#    z 0.000000 0.000000 1.754420 
# 
# From -- ./inp_files/24980.got.cif
#   From: 2010.05.17/outbox.cif.g08.bks.cpg/sg20_13_cif.got.tgz:24980.got - 2010.06.03 22:52:26.
