data_PCOD9321550
_publ_section_title
;
Structure prediction by ZEFSAII (Michael W. Deem and Ramdas Pophale) SiO2 
 PCOD9321550
Probable space group: C 2 2 21
;
_chemical_formula_sum "Si O2"
_cell_formula_units_Z 40
_cell_length_a 18.735484
_cell_length_b 8.394275
_cell_length_c 12.714555
_cell_angle_alpha 90.000000
_cell_angle_beta 90.000000
_cell_angle_gamma 90.000000
_cell_volume 1999.628299
_symmetry_space_group_name_H-M "C 2 2 21"
_symmetry_group_IT_number 20
_symmetry_cell_setting 'orthorhombic'
loop_
_space_group_symop_operation_xyz
x,y,z
-x,-y,1/2+z
x,-y,-z
-x,y,1/2-z
1/2+x,1/2+y,z
1/2-x,1/2-y,1/2+z
1/2+x,1/2-y,-z
1/2-x,1/2+y,1/2-z
loop_
_atom_site_type_symbol
_atom_site_label
_atom_site_fract_x
_atom_site_fract_y
_atom_site_fract_z
Si Si1 0.306900 0.529632 0.117857
Si Si2 0.912382 0.279420 0.092656
Si Si3 0.721704 0.819384 0.701009
Si Si4 0.423080 0.022346 0.272475
Si Si5 0.031108 0.500000 0.000000
Si Si6 0.710701 0.000000 0.500000
O O1 0.387882 0.596978 0.104462
O O2 0.291079 0.363044 0.173695
O O3 0.268729 0.654779 0.195480
O O4 0.278841 0.500000 0.000000
O O5 0.924391 0.357325 0.207272
O O6 0.842753 0.362194 0.040791
O O7 0.978069 0.348607 0.022797
O O8 0.643652 0.887720 0.725865
O O9 0.750037 0.919948 0.599596
O O10 0.500000 0.100654 0.250000
O O11 0.420730 0.010398 0.397076
#
# Coordination Sequence:
#
# PCOD9321550 Si02
#       6
#     8   8   8   8   4   4
#     4  12  25  40  65  92 129 177 213 273 327 388
#     4   9  18  37  59  90 118 165 209 251 324 389
#     4  11  23  39  62  96 129 167 223 264 327 389
#     4   9  19  36  64  92 122 164 206 265 320 388
#     4   9  18  36  72  88 122 162 216 261 320 391
#     4   9  16  36  60  82 120 156 206 255 304 387
#
# _framework density 20.003717999999999
#
# number of rings (size 3 to 8) (size 9 to 14) (size 15 to 20)
#    0.000    2.000    2.000    3.600    1.400    0.000 
#    0.000    3.000    0.000    0.000    0.000    0.000 
#    0.000    0.000    0.000    0.000    0.000    0.000 
#
# Total GULP energy -111391.911977 kJ/mol
# GULP energy per Si atom -5569.595599 kJ/mol
# Density = 1.995819 g / cm^3
# Si number density = 20.003718 Si / 1000 Ang^3
#
#
#
# Elastic Constant Matrix: (Units=GPa)
#
#
# Indices 1 2 3 4 5 6 
#
# 1 39.8865 21.5395 24.5219 0.0000 0.0000 0.0000
# 2 21.5395 82.0842 44.5136 0.0000 0.0000 0.0000
# 3 24.5219 44.5136 170.5316 0.0000 0.0000 0.0000
# 4 0.0000 0.0000 0.0000 29.8469 0.0000 0.0000
# 5 0.0000 0.0000 0.0000 0.0000 24.9896 0.0000
# 6 0.0000 0.0000 0.0000 0.0000 0.0000 14.5692
#
#
#
# Elastic Compliance Matrix: (Units=1/GPa)
#
#
# Indices 1 2 3 4 5 6 
#
# 1 0.030204 -0.006489 -0.002649 0.000000 0.000000 0.000000
# 2 -0.006489 0.015586 -0.003135 0.000000 0.000000 0.000000
# 3 -0.002649 -0.003135 0.007063 0.000000 0.000000 0.000000
# 4 0.000000 0.000000 0.000000 0.033504 0.000000 0.000000
# 5 0.000000 0.000000 0.000000 0.000000 0.040017 0.000000
# 6 0.000000 0.000000 0.000000 0.000000 0.000000 0.068638
#
#
# Mechanical properties :
#
#
# Convention : Reuss Voigt Hill
#
# Bulk Modulus (GPa) = 35.32840 52.62804 43.97822
# Shear Modulus (GPa) = 21.83457 27.34295 24.58876
#
# Velocity S-wave (km/s) = 3.30741 3.70116 3.50981
# Velocity P-wave (km/s) = 5.68195 6.68065 6.20143
#
# Compressibility (1/GPa) = 0.02830584
#
# Stress axis : x y z
#
# Youngs Moduli (GPa) = 33.10796 64.16189 141.57543
#
# Poissons Ratio (x) = 0.41635 0.37510
# Poissons Ratio (y) = 0.21484 0.44386
# Poissons Ratio (z) = 0.08772 0.20116
#
# Static dielectric constant tensor:
#      x y z
#    x 1.719610 0.000000 0.000000 
#    y 0.000000 1.782400 0.000000 
#    z 0.000000 0.000000 1.780690 
# 
# From -- ./inp_files/12924.got.cif
#   From: 2010.05.17/outbox.cif.g08.bks.cpg/sg20_7_cif.got.tgz:12924.got - 2010.06.03 22:52:26.
