data_PCOD9321874
_publ_section_title
;
Structure prediction by ZEFSAII (Michael W. Deem and Ramdas Pophale) SiO2 
 PCOD9321874
Probable space group: C 2 2 21
;
_chemical_formula_sum "Si O2"
_cell_formula_units_Z 32
_cell_length_a 5.096602
_cell_length_b 23.423116
_cell_length_c 10.757789
_cell_angle_alpha 90.000000
_cell_angle_beta 90.000000
_cell_angle_gamma 90.000000
_cell_volume 1284.246561
_symmetry_space_group_name_H-M "C 2 2 21"
_symmetry_group_IT_number 20
_symmetry_cell_setting 'orthorhombic'
loop_
_space_group_symop_operation_xyz
x,y,z
-x,-y,1/2+z
x,-y,-z
-x,y,1/2-z
1/2+x,1/2+y,z
1/2-x,1/2-y,1/2+z
1/2+x,1/2-y,-z
1/2-x,1/2+y,1/2-z
loop_
_atom_site_type_symbol
_atom_site_label
_atom_site_fract_x
_atom_site_fract_y
_atom_site_fract_z
Si Si1 0.500000 0.059773 0.750000
Si Si2 0.000000 0.762668 0.750000
Si Si3 0.237864 0.836635 0.123069
Si Si4 0.257322 0.154829 0.456312
Si Si5 0.846283 0.972833 0.880254
O O1 0.700581 0.102959 0.685690
O O2 0.622932 0.019035 0.852582
O O3 0.220415 0.713919 0.721230
O O4 0.881788 0.806657 0.851623
O O5 0.459288 0.827231 0.012842
O O6 0.954187 0.840675 0.065124
O O7 0.264079 0.089814 0.409416
O O8 0.000000 0.969369 0.750000
O O9 0.993759 0.000000 0.000000
#
# Coordination Sequence:
#
# PCOD9321874 Si02
#       5
#     4   4   8   8   8
#     4  11  26  44  74 110 152 209 254 318 404 461
#     4  11  26  48  78 108 146 201 258 326 390 467
#     4  11  27  48  75 106 155 198 257 322 394 473
#     4  12  26  48  72 113 148 200 258 320 393 465
#     4  12  26  46  76 111 160 204 260 328 389 483
#
# _framework density 24.917335000000001
#
# number of rings (size 3 to 8) (size 9 to 14) (size 15 to 20)
#    0.000    0.500    3.750    3.000    3.500    7.000 
#    0.000    0.000    0.000    0.000    0.000    0.000 
#    0.000    0.000    0.000    0.000    0.000    0.000 
#
# Total GULP energy -89359.856580 kJ/mol
# GULP energy per Si atom -5584.991036 kJ/mol
# Density = 2.486062 g / cm^3
# Si number density = 24.917335 Si / 1000 Ang^3
#
#
#
# Elastic Constant Matrix: (Units=GPa)
#
#
# Indices 1 2 3 4 5 6 
#
# 1 67.5211 31.1460 42.5757 0.0000 0.0000 0.0000
# 2 31.1460 200.4566 70.9942 0.0000 0.0000 0.0000
# 3 42.5757 70.9942 135.4957 0.0000 0.0000 0.0000
# 4 0.0000 0.0000 0.0000 47.1828 0.0000 0.0000
# 5 0.0000 0.0000 0.0000 0.0000 38.7583 0.0000
# 6 0.0000 0.0000 0.0000 0.0000 0.0000 -11.8707
#
#
#
# Elastic Compliance Matrix: (Units=1/GPa)
#
#
# Indices 1 2 3 4 5 6 
#
# 1 0.018634 -0.001009 -0.005327 0.000000 0.000000 0.000000
# 2 -0.001009 0.006180 -0.002921 0.000000 0.000000 0.000000
# 3 -0.005327 -0.002921 0.010585 0.000000 0.000000 0.000000
# 4 0.000000 0.000000 0.000000 0.021194 0.000000 0.000000
# 5 0.000000 0.000000 0.000000 0.000000 0.025801 0.000000
# 6 0.000000 0.000000 0.000000 0.000000 0.000000 -0.084241
#
#
# Mechanical properties :
#
#
# Convention : Reuss Voigt Hill
#
# Bulk Modulus (GPa) = 59.22177 76.98945 68.10561
# Shear Modulus (GPa) = 224.27123 32.06457 128.16790
#
# Velocity S-wave (km/s) = 9.49745 3.59114 7.17976
# Velocity P-wave (km/s) = 12.00365 6.93975 9.80428
#
# Compressibility (1/GPa) = 0.01688568
#
# Stress axis : x y z
#
# Youngs Moduli (GPa) = 53.66442 161.81578 94.47702
#
# Poissons Ratio (x) = 0.16324 0.50326
# Poissons Ratio (y) = 0.05414 0.27597
# Poissons Ratio (z) = 0.28586 0.47267
#
# Static dielectric constant tensor:
#      x y z
#    x 2.007800 0.000000 0.000000 
#    y 0.000000 1.907450 0.000000 
#    z 0.000000 0.000000 2.122700 
# 
# From -- ./inp_files/12021.got.cif
#   From: 2010.05.17/outbox.cif.g08.bks.cpg/sg20_7_cif.got.tgz:12021.got - 2010.06.03 22:52:26.
