data_PCOD9321958
_publ_section_title
;
Structure prediction by ZEFSAII (Michael W. Deem and Ramdas Pophale) SiO2 
 PCOD9321958
Probable space group: C 2 2 21
;
_chemical_formula_sum "Si O2"
_cell_formula_units_Z 48
_cell_length_a 6.810759
_cell_length_b 26.505305
_cell_length_c 13.078650
_cell_angle_alpha 90.000000
_cell_angle_beta 90.000000
_cell_angle_gamma 90.000000
_cell_volume 2360.974175
_symmetry_space_group_name_H-M "C 2 2 21"
_symmetry_group_IT_number 20
_symmetry_cell_setting 'orthorhombic'
loop_
_space_group_symop_operation_xyz
x,y,z
-x,-y,1/2+z
x,-y,-z
-x,y,1/2-z
1/2+x,1/2+y,z
1/2-x,1/2-y,1/2+z
1/2+x,1/2-y,-z
1/2-x,1/2+y,1/2-z
loop_
_atom_site_type_symbol
_atom_site_label
_atom_site_fract_x
_atom_site_fract_y
_atom_site_fract_z
Si Si1 0.408484 0.340396 0.146027
Si Si2 0.000000 0.477753 0.750000
Si Si3 0.740804 0.819326 0.504897
Si Si4 0.062852 0.425907 0.535740
Si Si5 0.563937 0.237386 0.867530
Si Si6 0.261673 0.452359 0.138969
Si Si7 0.916419 0.000000 0.500000
O O1 0.500000 0.319160 0.250000
O O2 0.579681 0.340149 0.062849
O O3 0.227579 0.305535 0.115898
O O4 0.331415 0.396587 0.166604
O O5 0.002560 0.444550 0.852209
O O6 0.820415 0.516583 0.734868
O O7 0.600847 0.866239 0.531487
O O8 0.618505 0.778619 0.438703
O O9 0.838367 0.789891 0.598963
O O10 0.270703 0.453581 0.519413
O O11 0.909761 0.444076 0.447773
O O12 0.500000 0.237400 0.750000
O O13 0.437954 0.483970 0.090304
#
# Coordination Sequence:
#
# PCOD9321958 Si02
#       7
#     8   4   8   8   8   8   4
#     4  12  26  42  75 108 131 187 244 286 358 419
#     4  12  26  46  66 104 146 182 230 300 340 416
#     4  12  26  48  72 102 146 185 233 305 356 426
#     4  12  26  48  68 101 142 185 235 290 353 420
#     4  12  26  48  74 104 141 184 243 300 362 428
#     4  12  26  44  69 103 141 179 235 295 339 412
#     4  12  22  46  68  94 142 184 226 280 350 406
#
# _framework density 20.330593
#
# number of rings (size 3 to 8) (size 9 to 14) (size 15 to 20)
#    0.000    0.000   10.000    0.000    5.833    0.000 
#   10.500    0.000    0.000    0.000    0.000    0.000 
#    0.000    0.000    0.000    0.000    0.000    0.000 
#
# Total GULP energy -134216.479574 kJ/mol
# GULP energy per Si atom -5592.353316 kJ/mol
# Density = 2.028432 g / cm^3
# Si number density = 20.330593 Si / 1000 Ang^3
#
#
#
# Elastic Constant Matrix: (Units=GPa)
#
#
# Indices 1 2 3 4 5 6 
#
# 1 88.3015 19.9964 23.0174 0.0000 0.0000 0.0000
# 2 19.9964 93.6749 21.1290 0.0000 0.0000 0.0000
# 3 23.0174 21.1290 62.2403 0.0000 0.0000 0.0000
# 4 0.0000 0.0000 0.0000 28.2693 0.0000 0.0000
# 5 0.0000 0.0000 0.0000 0.0000 33.7024 0.0000
# 6 0.0000 0.0000 0.0000 0.0000 0.0000 34.3822
#
#
#
# Elastic Compliance Matrix: (Units=1/GPa)
#
#
# Indices 1 2 3 4 5 6 
#
# 1 0.012808 -0.001804 -0.004124 0.000000 0.000000 0.000000
# 2 -0.001804 0.011814 -0.003344 0.000000 0.000000 0.000000
# 3 -0.004124 -0.003344 0.018727 0.000000 0.000000 0.000000
# 4 0.000000 0.000000 0.000000 0.035374 0.000000 0.000000
# 5 0.000000 0.000000 0.000000 0.000000 0.029671 0.000000
# 6 0.000000 0.000000 0.000000 0.000000 0.000000 0.029085
#
#
# Mechanical properties :
#
#
# Convention : Reuss Voigt Hill
#
# Bulk Modulus (GPa) = 40.31244 41.38915 40.85080
# Shear Modulus (GPa) = 30.43348 31.27572 30.85460
#
# Velocity S-wave (km/s) = 3.87322 3.92644 3.89992
# Velocity P-wave (km/s) = 6.31458 6.39986 6.35736
#
# Compressibility (1/GPa) = 0.02480624
#
# Stress axis : x y z
#
# Youngs Moduli (GPa) = 78.07357 84.64205 53.39862
#
# Poissons Ratio (x) = 0.15268 0.22024
# Poissons Ratio (y) = 0.14084 0.17854
# Poissons Ratio (z) = 0.32201 0.28301
#
# Static dielectric constant tensor:
#      x y z
#    x 1.732590 0.000000 0.000000 
#    y 0.000000 1.710880 0.000000 
#    z 0.000000 0.000000 1.703630 
# 
# From -- ./inp_files/17819.got.cif
#   From: 2010.05.17/outbox.cif.g08.bks.cpg/sg20_9_cif.got.tgz:17819.got - 2010.06.03 22:52:26.
