data_PCOD9321741
_publ_section_title
;
Structure prediction by ZEFSAII (Michael W. Deem and Ramdas Pophale) SiO2 
 PCOD9321741
Probable space group: C 2 2 21
;
_chemical_formula_sum "Si O2"
_cell_formula_units_Z 24
_cell_length_a 8.769020
_cell_length_b 4.905059
_cell_length_c 16.710495
_cell_angle_alpha 90.000000
_cell_angle_beta 90.000000
_cell_angle_gamma 90.000000
_cell_volume 718.761177
_symmetry_space_group_name_H-M "C 2 2 21"
_symmetry_group_IT_number 20
_symmetry_cell_setting 'orthorhombic'
loop_
_space_group_symop_operation_xyz
x,y,z
-x,-y,1/2+z
x,-y,-z
-x,y,1/2-z
1/2+x,1/2+y,z
1/2-x,1/2-y,1/2+z
1/2+x,1/2-y,-z
1/2-x,1/2+y,1/2-z
loop_
_atom_site_type_symbol
_atom_site_label
_atom_site_fract_x
_atom_site_fract_y
_atom_site_fract_z
Si Si1 0.348291 0.714142 0.728251
Si Si2 0.499772 0.148933 0.403724
Si Si3 0.204721 0.203971 0.458049
O O1 0.288770 0.405837 0.736764
O O2 0.465167 0.751540 0.809766
O O3 0.323499 0.795929 0.625984
O O4 0.611718 0.355540 0.449319
O O5 0.564499 0.850416 0.407773
O O6 0.270841 0.500000 0.500000
O O7 0.352546 0.000000 0.500000
#
# Coordination Sequence:
#
# PCOD9321741 Si02
#       3
#     8   8   8
#     4  12  29  51  79 111 154 211 260 316 378 462
#     4  11  27  45  75 107 152 189 258 307 389 452
#     4  11  24  44  70 107 139 192 234 322 379 443
#
# _framework density 33.390788000000001
#
# number of rings (size 3 to 8) (size 9 to 14) (size 15 to 20)
#    0.000    0.667    3.333    3.000   14.000    0.000 
#    0.000    0.000    0.000    0.000    0.000    0.000 
#    0.000    0.000    0.000    0.000    0.000    0.000 
#
# Total GULP energy -66932.663908 kJ/mol
# GULP energy per Si atom -5577.721992 kJ/mol
# Density = 3.331479 g / cm^3
# Si number density = 33.390788 Si / 1000 Ang^3
#
#
#
# Elastic Constant Matrix: (Units=GPa)
#
#
# Indices 1 2 3 4 5 6 
#
# 1 336.4798 84.7261 98.8199 0.0000 0.0000 0.0000
# 2 84.7261 201.1198 27.7421 0.0000 0.0000 0.0000
# 3 98.8199 27.7421 273.0523 0.0000 0.0000 0.0000
# 4 0.0000 0.0000 0.0000 88.9271 0.0000 0.0000
# 5 0.0000 0.0000 0.0000 0.0000 90.8139 0.0000
# 6 0.0000 0.0000 0.0000 0.0000 0.0000 231.7876
#
#
#
# Elastic Compliance Matrix: (Units=1/GPa)
#
#
# Indices 1 2 3 4 5 6 
#
# 1 0.003669 -0.001382 -0.001187 0.000000 0.000000 0.000000
# 2 -0.001382 0.005563 -0.000065 0.000000 0.000000 0.000000
# 3 -0.001187 -0.000065 0.004099 0.000000 0.000000 0.000000
# 4 0.000000 0.000000 0.000000 0.011245 0.000000 0.000000
# 5 0.000000 0.000000 0.000000 0.000000 0.011012 0.000000
# 6 0.000000 0.000000 0.000000 0.000000 0.000000 0.004314
#
#
# Mechanical properties :
#
#
# Convention : Reuss Voigt Hill
#
# Bulk Modulus (GPa) = 124.03779 137.02533 130.53156
# Shear Modulus (GPa) = 104.47781 122.26332 113.37057
#
# Velocity S-wave (km/s) = 5.59976 6.05767 5.83321
# Velocity P-wave (km/s) = 8.89032 9.48963 9.19486
#
# Compressibility (1/GPa) = 0.00806206
#
# Stress axis : x y z
#
# Youngs Moduli (GPa) = 272.58718 179.75220 243.98465
#
# Poissons Ratio (x) = 0.24836 0.28968
# Poissons Ratio (y) = 0.37663 0.01590
# Poissons Ratio (z) = 0.32364 0.01172
#
# Static dielectric constant tensor:
#      x y z
#    x 2.906860 0.000000 0.000000 
#    y 0.000000 2.376930 0.000000 
#    z 0.000000 0.000000 -2.208170 
# 
# From -- ./inp_files/23997.got.cif
#   From: 2010.05.17/outbox.cif.g08.bks.cpg/sg20_12_cif.got.tgz:23997.got - 2010.06.03 22:52:26.
