data_PCOD9321931
_publ_section_title
;
Structure prediction by ZEFSAII (Michael W. Deem and Ramdas Pophale) SiO2 
 PCOD9321931
Probable space group: C 2 2 21
;
_chemical_formula_sum "Si O2"
_cell_formula_units_Z 40
_cell_length_a 24.607077
_cell_length_b 6.577376
_cell_length_c 11.148300
_cell_angle_alpha 90.000000
_cell_angle_beta 90.000000
_cell_angle_gamma 90.000000
_cell_volume 1804.352329
_symmetry_space_group_name_H-M "C 2 2 21"
_symmetry_group_IT_number 20
_symmetry_cell_setting 'orthorhombic'
loop_
_space_group_symop_operation_xyz
x,y,z
-x,-y,1/2+z
x,-y,-z
-x,y,1/2-z
1/2+x,1/2+y,z
1/2-x,1/2-y,1/2+z
1/2+x,1/2-y,-z
1/2-x,1/2+y,1/2-z
loop_
_atom_site_type_symbol
_atom_site_label
_atom_site_fract_x
_atom_site_fract_y
_atom_site_fract_z
Si Si1 0.320753 0.500000 0.500000
Si Si2 0.747073 0.346967 0.611621
Si Si3 0.512012 0.678969 0.397804
Si Si4 0.606045 0.835375 0.093005
Si Si5 0.330253 0.972855 0.198051
Si Si6 0.598785 0.000000 0.500000
O O1 0.282932 0.657865 0.566961
O O2 0.359738 0.370243 0.584890
O O3 0.741627 0.500000 0.500000
O O4 0.691036 0.245124 0.652213
O O5 0.780539 0.439388 0.723818
O O6 0.517688 0.500000 0.500000
O O7 0.500000 0.631326 0.250000
O O8 0.455794 0.788619 0.430776
O O9 0.560679 0.836557 0.431066
O O10 0.618886 0.939817 0.216346
O O11 0.628191 0.000000 0.000000
O O12 0.357419 0.100741 0.091892
#
# Coordination Sequence:
#
# PCOD9321931 Si02
#       6
#     4   8   8   8   8   4
#     4  12  21  44  74 106 138 196 255 300 380 468
#     4  12  27  47  74 110 149 203 256 312 390 472
#     4  12  28  49  78 115 151 205 264 324 399 473
#     4  12  23  45  76 105 141 198 255 308 390 466
#     4  12  26  48  72 107 153 193 251 324 381 459
#     4  12  29  48  78 110 154 198 253 330 388 448
#
# _framework density 22.168620000000001
#
# number of rings (size 3 to 8) (size 9 to 14) (size 15 to 20)
#    0.000    0.000    8.000    1.800    2.800    4.800 
#    0.000    0.000    0.000    0.000    0.000    0.000 
#    0.000    0.000    0.000    0.000    0.000    0.000 
#
# Total GULP energy -111478.178331 kJ/mol
# GULP energy per Si atom -5573.908917 kJ/mol
# Density = 2.211816 g / cm^3
# Si number density = 22.168620 Si / 1000 Ang^3
#
#
#
# Elastic Constant Matrix: (Units=GPa)
#
#
# Indices 1 2 3 4 5 6 
#
# 1 78.1684 24.8620 45.5343 0.0000 0.0000 0.0000
# 2 24.8620 85.0707 58.7796 0.0000 0.0000 0.0000
# 3 45.5343 58.7796 152.1489 0.0000 0.0000 0.0000
# 4 0.0000 0.0000 0.0000 27.0854 0.0000 0.0000
# 5 0.0000 0.0000 0.0000 0.0000 23.9272 0.0000
# 6 0.0000 0.0000 0.0000 0.0000 0.0000 129.9794
#
#
#
# Elastic Compliance Matrix: (Units=1/GPa)
#
#
# Indices 1 2 3 4 5 6 
#
# 1 0.015700 -0.001830 -0.003991 0.000000 0.000000 0.000000
# 2 -0.001830 0.016249 -0.005730 0.000000 0.000000 0.000000
# 3 -0.003991 -0.005730 0.009981 0.000000 0.000000 0.000000
# 4 0.000000 0.000000 0.000000 0.036920 0.000000 0.000000
# 5 0.000000 0.000000 0.000000 0.000000 0.041793 0.000000
# 6 0.000000 0.000000 0.000000 0.000000 0.000000 0.007694
#
#
# Mechanical properties :
#
#
# Convention : Reuss Voigt Hill
#
# Bulk Modulus (GPa) = 53.11682 63.74886 58.43284
# Shear Modulus (GPa) = 31.70272 48.61255 40.15763
#
# Velocity S-wave (km/s) = 3.78573 4.68787 4.26075
# Velocity P-wave (km/s) = 6.56669 7.62367 7.11483
#
# Compressibility (1/GPa) = 0.01882643
#
# Stress axis : x y z
#
# Youngs Moduli (GPa) = 63.69349 61.54340 100.19493
#
# Poissons Ratio (x) = 0.11265 0.39993
# Poissons Ratio (y) = 0.11659 0.57407
# Poissons Ratio (z) = 0.25423 0.35261
#
# Static dielectric constant tensor:
#      x y z
#    x 1.788940 0.000000 0.000000 
#    y 0.000000 1.815220 0.000000 
#    z 0.000000 0.000000 1.958210 
# 
# From -- ./inp_files/16910.got.cif
#   From: 2010.05.17/outbox.cif.g08.bks.cpg/sg20_9_cif.got.tgz:16910.got - 2010.06.03 22:52:26.
