data_PCOD9321068
_publ_section_title
;
Structure prediction by ZEFSAII (Michael W. Deem and Ramdas Pophale) SiO2 
 PCOD9321068
Probable space group: C 2 2 21
;
_chemical_formula_sum "Si O2"
_cell_formula_units_Z 32
_cell_length_a 5.331633
_cell_length_b 9.076879
_cell_length_c 26.766178
_cell_angle_alpha 90.000000
_cell_angle_beta 90.000000
_cell_angle_gamma 90.000000
_cell_volume 1295.338146
_symmetry_space_group_name_H-M "C 2 2 21"
_symmetry_group_IT_number 20
_symmetry_cell_setting 'orthorhombic'
loop_
_space_group_symop_operation_xyz
x,y,z
-x,-y,1/2+z
x,-y,-z
-x,y,1/2-z
1/2+x,1/2+y,z
1/2-x,1/2-y,1/2+z
1/2+x,1/2-y,-z
1/2-x,1/2+y,1/2-z
loop_
_atom_site_type_symbol
_atom_site_label
_atom_site_fract_x
_atom_site_fract_y
_atom_site_fract_z
Si Si1 0.222680 0.438041 0.865949
Si Si2 0.537765 0.340273 0.191505
Si Si3 0.563487 0.329557 0.017775
Si Si4 0.275575 0.507062 0.608128
O O1 0.298770 0.590954 0.837892
O O2 0.127607 0.318599 0.826538
O O3 0.489494 0.396107 0.891575
O O4 0.002196 0.461514 0.905914
O O5 0.500000 0.349681 0.250000
O O6 0.743031 0.449055 0.166731
O O7 0.631739 0.354718 0.075998
O O8 0.561375 0.500000 0.000000
O O9 0.295561 0.255627 0.007646
#
# Coordination Sequence:
#
# PCOD9321068 Si02
#       4
#     8   8   8   8
#     4  10  25  41  69  96 139 180 229 288 350 416
#     4  10  26  43  71 100 141 184 239 287 354 421
#     4  12  28  46  77 106 144 187 243 298 362 430
#     4  10  26  45  70 100 142 181 237 288 362 415
#
# _framework density 24.703976000000001
#
# number of rings (size 3 to 8) (size 9 to 14) (size 15 to 20)
#    1.500    0.000    0.000    2.250   14.000    0.000 
#    0.000    0.000    0.000    0.000    0.000    0.000 
#    0.000    0.000    0.000    0.000    0.000    0.000 
#
# Total GULP energy -89248.991037 kJ/mol
# GULP energy per Si atom -5578.061940 kJ/mol
# Density = 2.464775 g / cm^3
# Si number density = 24.703976 Si / 1000 Ang^3
#
#
#
# Elastic Constant Matrix: (Units=GPa)
#
#
# Indices 1 2 3 4 5 6 
#
# 1 190.5037 74.9354 29.3225 0.0000 0.0000 0.0000
# 2 74.9354 120.6445 13.8369 0.0000 0.0000 0.0000
# 3 29.3225 13.8369 85.7167 0.0000 0.0000 0.0000
# 4 0.0000 0.0000 0.0000 40.2534 0.0000 0.0000
# 5 0.0000 0.0000 0.0000 0.0000 21.5523 0.0000
# 6 0.0000 0.0000 0.0000 0.0000 0.0000 42.6742
#
#
#
# Elastic Compliance Matrix: (Units=1/GPa)
#
#
# Indices 1 2 3 4 5 6 
#
# 1 0.007202 -0.004270 -0.001774 0.000000 0.000000 0.000000
# 2 -0.004270 0.010977 -0.000311 0.000000 0.000000 0.000000
# 3 -0.001774 -0.000311 0.012324 0.000000 0.000000 0.000000
# 4 0.000000 0.000000 0.000000 0.024843 0.000000 0.000000
# 5 0.000000 0.000000 0.000000 0.000000 0.046399 0.000000
# 6 0.000000 0.000000 0.000000 0.000000 0.000000 0.023433
#
#
# Mechanical properties :
#
#
# Convention : Reuss Voigt Hill
#
# Bulk Modulus (GPa) = 56.20775 70.33937 63.27356
# Shear Modulus (GPa) = 34.76615 39.48066 37.12341
#
# Velocity S-wave (km/s) = 3.75548 4.00202 3.88071
# Velocity P-wave (km/s) = 6.45033 7.06326 6.76374
#
# Compressibility (1/GPa) = 0.01779114
#
# Stress axis : x y z
#
# Youngs Moduli (GPa) = 138.85234 91.10305 81.14523
#
# Poissons Ratio (x) = 0.38899 0.14399
# Poissons Ratio (y) = 0.59287 0.02526
# Poissons Ratio (z) = 0.24638 0.02836
#
# Static dielectric constant tensor:
#      x y z
#    x 2.037070 0.000000 0.000000 
#    y 0.000000 1.982600 0.000000 
#    z 0.000000 0.000000 2.045330 
# 
# From -- ./inp_files/30208.got.cif
#   From: 2010.05.17/outbox.cif.g08.bks.cpg/sg20_16_cif.got.tgz:30208.got - 2010.06.03 22:52:26.
