data_PCOD9321642
_publ_section_title
;
Structure prediction by ZEFSAII (Michael W. Deem and Ramdas Pophale) SiO2 
 PCOD9321642
Probable space group: C 2 2 21
;
_chemical_formula_sum "Si O2"
_cell_formula_units_Z 40
_cell_length_a 11.397942
_cell_length_b 16.755065
_cell_length_c 9.496206
_cell_angle_alpha 90.000000
_cell_angle_beta 90.000000
_cell_angle_gamma 90.000000
_cell_volume 1813.521409
_symmetry_space_group_name_H-M "C 2 2 21"
_symmetry_group_IT_number 20
_symmetry_cell_setting 'orthorhombic'
loop_
_space_group_symop_operation_xyz
x,y,z
-x,-y,1/2+z
x,-y,-z
-x,y,1/2-z
1/2+x,1/2+y,z
1/2-x,1/2-y,1/2+z
1/2+x,1/2-y,-z
1/2-x,1/2+y,1/2-z
loop_
_atom_site_type_symbol
_atom_site_label
_atom_site_fract_x
_atom_site_fract_y
_atom_site_fract_z
Si Si1 0.259428 0.871931 0.975707
Si Si2 0.237340 0.683261 0.980307
Si Si3 0.480468 0.080981 0.419905
Si Si4 0.629869 0.582428 0.303569
Si Si5 0.135339 0.902379 0.250821
O O1 0.395149 0.894710 0.986991
O O2 0.218411 0.896580 0.821269
O O3 0.241179 0.777579 0.993046
O O4 0.179573 0.914579 0.092103
O O5 0.338879 0.639300 0.068533
O O6 0.116978 0.646720 0.040605
O O7 0.271478 0.656894 0.822465
O O8 0.500000 0.072160 0.250000
O O9 0.442214 0.000000 0.500000
O O10 0.500000 0.598512 0.250000
O O11 0.638925 0.487762 0.328957
O O12 0.000000 0.873789 0.250000
#
# Coordination Sequence:
#
# PCOD9321642 Si02
#       5
#     8   8   8   8   8
#     4  12  27  44  71 103 145 183 234 297 357 420
#     4  12  27  44  71 103 145 183 234 297 357 420
#     4  12  28  50  76 106 147 193 244 296 361 443
#     4  11  23  45  71  99 133 181 237 289 347 425
#     4  11  25  45  75  99 137 185 237 291 355 425
#
# _framework density 22.056536999999999
#
# number of rings (size 3 to 8) (size 9 to 14) (size 15 to 20)
#    0.000    0.400    2.000    6.000    8.400    3.200 
#    0.000    0.000    0.000    0.000    0.000    0.000 
#    0.000    0.000    0.000    0.000    0.000    0.000 
#
# Total GULP energy -111970.732661 kJ/mol
# GULP energy per Si atom -5598.536633 kJ/mol
# Density = 2.200634 g / cm^3
# Si number density = 22.056537 Si / 1000 Ang^3
#
#
#
# Elastic Constant Matrix: (Units=GPa)
#
#
# Indices 1 2 3 4 5 6 
#
# 1 102.6473 5.4461 -6.0469 0.0000 0.0000 0.0000
# 2 5.4461 65.5320 -10.7980 0.0000 0.0000 0.0000
# 3 -6.0469 -10.7980 74.1649 0.0000 0.0000 0.0000
# 4 0.0000 0.0000 0.0000 30.6902 0.0000 0.0000
# 5 0.0000 0.0000 0.0000 0.0000 26.2504 0.0000
# 6 0.0000 0.0000 0.0000 0.0000 0.0000 25.2339
#
#
#
# Elastic Compliance Matrix: (Units=1/GPa)
#
#
# Indices 1 2 3 4 5 6 
#
# 1 0.009820 -0.000701 0.000699 0.000000 0.000000 0.000000
# 2 -0.000701 0.015685 0.002226 0.000000 0.000000 0.000000
# 3 0.000699 0.002226 0.013865 0.000000 0.000000 0.000000
# 4 0.000000 0.000000 0.000000 0.032584 0.000000 0.000000
# 5 0.000000 0.000000 0.000000 0.000000 0.038095 0.000000
# 6 0.000000 0.000000 0.000000 0.000000 0.000000 0.039629
#
#
# Mechanical properties :
#
#
# Convention : Reuss Voigt Hill
#
# Bulk Modulus (GPa) = 22.82165 24.39406 23.60786
# Shear Modulus (GPa) = 31.28220 33.35110 32.31665
#
# Velocity S-wave (km/s) = 3.77008 3.89276 3.83191
# Velocity P-wave (km/s) = 5.41486 5.59362 5.50496
#
# Compressibility (1/GPa) = 0.04381804
#
# Stress axis : x y z
#
# Youngs Moduli (GPa) = 101.82835 63.75580 72.12618
#
# Poissons Ratio (x) = 0.04469 -0.05039
# Poissons Ratio (y) = 0.07138 -0.16059
# Poissons Ratio (z) = -0.07114 -0.14195
#
# Static dielectric constant tensor:
#      x y z
#    x 1.806890 0.000000 0.000000 
#    y 0.000000 1.764090 0.000000 
#    z 0.000000 0.000000 1.812780 
# 
# From -- ./inp_files/7026.got.cif
#   From: 2010.05.17/outbox.cif.g08.bks.cpg/sg20_4_cif.got.tgz:7026.got - 2010.06.03 22:52:26.
