data_PCOD9321135
_publ_section_title
;
Structure prediction by ZEFSAII (Michael W. Deem and Ramdas Pophale) SiO2 
 PCOD9321135
Probable space group: C 2 2 21
;
_chemical_formula_sum "Si O2"
_cell_formula_units_Z 28
_cell_length_a 4.848674
_cell_length_b 16.194682
_cell_length_c 12.862419
_cell_angle_alpha 90.000000
_cell_angle_beta 90.000000
_cell_angle_gamma 90.000000
_cell_volume 1009.992300
_symmetry_space_group_name_H-M "C 2 2 21"
_symmetry_group_IT_number 20
_symmetry_cell_setting 'orthorhombic'
loop_
_space_group_symop_operation_xyz
x,y,z
-x,-y,1/2+z
x,-y,-z
-x,y,1/2-z
1/2+x,1/2+y,z
1/2-x,1/2-y,1/2+z
1/2+x,1/2-y,-z
1/2-x,1/2+y,1/2-z
loop_
_atom_site_type_symbol
_atom_site_label
_atom_site_fract_x
_atom_site_fract_y
_atom_site_fract_z
Si Si1 0.000000 0.960406 0.750000
Si Si2 0.090209 0.441400 0.402576
Si Si3 0.287168 0.299208 0.837580
Si Si4 0.087739 0.179254 0.574200
O O1 0.813017 0.897526 0.818602
O O2 0.769645 0.009712 0.684586
O O3 0.023171 0.500000 0.500000
O O4 0.821453 0.383956 0.383065
O O5 0.317670 0.376044 0.435414
O O6 0.500000 0.265777 0.750000
O O7 0.991089 0.255579 0.850800
O O8 0.123152 0.210274 0.457060
#
# Coordination Sequence:
#
# PCOD9321135 Si02
#       4
#     4   8   8   8
#     4  10  26  58  98 130 184 238 322 374 462 548
#     4  12  26  54  89 136 182 243 301 393 466 548
#     4  10  25  57  94 135 183 254 312 374 460 562
#     4  12  26  54  91 136 188 238 314 387 462 548
#
# _framework density 27.722985999999999
#
# number of rings (size 3 to 8) (size 9 to 14) (size 15 to 20)
#    0.857    0.000    2.857    2.571    0.000    1.143 
#   10.286   15.714    6.286    0.000    0.000    0.000 
#    0.000    0.000    0.000    0.000    0.000    0.000 
#
# Total GULP energy -78287.651370 kJ/mol
# GULP energy per Si atom -5591.975098 kJ/mol
# Density = 2.765989 g / cm^3
# Si number density = 27.722986 Si / 1000 Ang^3
#
#
#
# Elastic Constant Matrix: (Units=GPa)
#
#
# Indices 1 2 3 4 5 6 
#
# 1 208.8221 95.2140 72.1092 0.0000 0.0000 0.0000
# 2 95.2140 185.1366 96.8916 0.0000 0.0000 0.0000
# 3 72.1092 96.8916 200.6674 0.0000 0.0000 0.0000
# 4 0.0000 0.0000 0.0000 49.6243 0.0000 0.0000
# 5 0.0000 0.0000 0.0000 0.0000 48.6312 0.0000
# 6 0.0000 0.0000 0.0000 0.0000 0.0000 157.4450
#
#
#
# Elastic Compliance Matrix: (Units=1/GPa)
#
#
# Indices 1 2 3 4 5 6 
#
# 1 0.006388 -0.002789 -0.000949 0.000000 0.000000 0.000000
# 2 -0.002789 0.008445 -0.003076 0.000000 0.000000 0.000000
# 3 -0.000949 -0.003076 0.006809 0.000000 0.000000 0.000000
# 4 0.000000 0.000000 0.000000 0.020151 0.000000 0.000000
# 5 0.000000 0.000000 0.000000 0.000000 0.020563 0.000000
# 6 0.000000 0.000000 0.000000 0.000000 0.000000 0.006351
#
#
# Mechanical properties :
#
#
# Convention : Reuss Voigt Hill
#
# Bulk Modulus (GPa) = 124.74943 124.78395 124.76669
# Shear Modulus (GPa) = 58.81865 73.16752 65.99309
#
# Velocity S-wave (km/s) = 4.61114 5.14292 4.88428
# Velocity P-wave (km/s) = 8.57009 8.96521 8.76987
#
# Compressibility (1/GPa) = 0.00801607
#
# Stress axis : x y z
#
# Youngs Moduli (GPa) = 156.54460 118.41011 146.85396
#
# Poissons Ratio (x) = 0.33020 0.13937
# Poissons Ratio (y) = 0.43654 0.45168
# Poissons Ratio (z) = 0.14857 0.36419
#
# Static dielectric constant tensor:
#      x y z
#    x 2.197710 0.000000 0.000000 
#    y 0.000000 2.160940 0.000000 
#    z 0.000000 0.000000 1.983190 
# 
# From -- ./inp_files/22460.got.cif
#   From: 2010.05.17/outbox.cif.g08.bks.cpg/sg20_12_cif.got.tgz:22460.got - 2010.06.03 22:52:26.
