data_PCOD9321301
_publ_section_title
;
Structure prediction by ZEFSAII (Michael W. Deem and Ramdas Pophale) SiO2 
 PCOD9321301
Probable space group: C 2 2 21
;
_chemical_formula_sum "Si O2"
_cell_formula_units_Z 48
_cell_length_a 11.168304
_cell_length_b 22.182349
_cell_length_c 9.488543
_cell_angle_alpha 90.000000
_cell_angle_beta 90.000000
_cell_angle_gamma 90.000000
_cell_volume 2350.684214
_symmetry_space_group_name_H-M "C 2 2 21"
_symmetry_group_IT_number 20
_symmetry_cell_setting 'orthorhombic'
loop_
_space_group_symop_operation_xyz
x,y,z
-x,-y,1/2+z
x,-y,-z
-x,y,1/2-z
1/2+x,1/2+y,z
1/2-x,1/2-y,1/2+z
1/2+x,1/2-y,-z
1/2-x,1/2+y,1/2-z
loop_
_atom_site_type_symbol
_atom_site_label
_atom_site_fract_x
_atom_site_fract_y
_atom_site_fract_z
Si Si1 0.114648 0.618361 0.649378
Si Si2 0.471532 0.061468 0.412365
Si Si3 0.392237 0.740128 0.151962
Si Si4 0.228247 0.654922 0.033947
Si Si5 0.135672 0.126598 0.754326
Si Si6 0.546836 0.751242 0.893247
O O1 0.133901 0.689733 0.676089
O O2 0.248451 0.592931 0.677656
O O3 0.000000 0.601314 0.750000
O O4 0.069764 0.602513 0.493629
O O5 0.500000 0.051027 0.250000
O O6 0.346762 0.096699 0.425472
O O7 0.467601 0.000000 0.500000
O O8 0.500000 0.722093 0.250000
O O9 0.293723 0.688501 0.162926
O O10 0.434097 0.737793 0.990172
O O11 0.130185 0.707808 0.007220
O O12 0.311873 0.638587 0.902327
O O13 0.109054 0.189562 0.839526
O O14 0.000000 0.099082 0.750000
O O15 0.500000 0.782708 0.750000
#
# Coordination Sequence:
#
# PCOD9321301 Si02
#       6
#     8   8   8   8   8   8
#     4  11  21  41  68  99 141 185 226 277 340 401
#     4  12  28  47  73 101 129 176 238 297 331 393
#     4  11  22  34  59 102 148 181 217 274 344 423
#     4  12  22  38  64  96 141 178 227 283 336 404
#     4  11  22  37  62  99 139 181 213 274 348 410
#     4  11  21  34  55  95 139 178 222 264 342 410
#
# _framework density 20.419585999999999
#
# number of rings (size 3 to 8) (size 9 to 14) (size 15 to 20)
#    0.000    0.667    8.333    2.000    0.000    1.333 
#    0.000    0.000    0.000    2.000    0.000    0.000 
#    0.000    0.000    0.000    0.000    0.000    0.000 
#
# Total GULP energy -133692.622039 kJ/mol
# GULP energy per Si atom -5570.525918 kJ/mol
# Density = 2.037311 g / cm^3
# Si number density = 20.419586 Si / 1000 Ang^3
#
#
#
# Elastic Constant Matrix: (Units=GPa)
#
#
# Indices 1 2 3 4 5 6 
#
# 1 131.3909 22.8927 30.4501 0.0000 0.0000 0.0000
# 2 22.8927 42.0662 18.4018 0.0000 0.0000 0.0000
# 3 30.4501 18.4018 104.9617 0.0000 0.0000 0.0000
# 4 0.0000 0.0000 0.0000 48.1594 0.0000 0.0000
# 5 0.0000 0.0000 0.0000 0.0000 39.5967 0.0000
# 6 0.0000 0.0000 0.0000 0.0000 0.0000 713.8293
#
#
#
# Elastic Compliance Matrix: (Units=1/GPa)
#
#
# Indices 1 2 3 4 5 6 
#
# 1 0.008724 -0.003943 -0.001840 0.000000 0.000000 0.000000
# 2 -0.003943 0.027529 -0.003682 0.000000 0.000000 0.000000
# 3 -0.001840 -0.003682 0.010707 0.000000 0.000000 0.000000
# 4 0.000000 0.000000 0.000000 0.020764 0.000000 0.000000
# 5 0.000000 0.000000 0.000000 0.000000 0.025255 0.000000
# 6 0.000000 0.000000 0.000000 0.000000 0.000000 0.001401
#
#
# Mechanical properties :
#
#
# Convention : Reuss Voigt Hill
#
# Bulk Modulus (GPa) = 35.67688 46.87864 41.27776
# Shear Modulus (GPa) = 40.76547 174.09537 107.43042
#
# Velocity S-wave (km/s) = 4.47295 9.24360 7.26124
# Velocity P-wave (km/s) = 6.64727 11.70184 9.51628
#
# Compressibility (1/GPa) = 0.02802936
#
# Stress axis : x y z
#
# Youngs Moduli (GPa) = 114.62321 36.32562 93.40053
#
# Poissons Ratio (x) = 0.14323 0.17183
# Poissons Ratio (y) = 0.45196 0.34394
# Poissons Ratio (z) = 0.21087 0.13377
#
# Static dielectric constant tensor:
#      x y z
#    x 1.753220 0.000000 0.000000 
#    y 0.000000 1.733000 0.000000 
#    z 0.000000 0.000000 -22.959280 
# 
# From -- ./inp_files/7409.got.cif
#   From: 2010.05.17/outbox.cif.g08.bks.cpg/sg20_4_cif.got.tgz:7409.got - 2010.06.03 22:52:26.
