data_PCOD9321150
_publ_section_title
;
Structure prediction by ZEFSAII (Michael W. Deem and Ramdas Pophale) SiO2 
 PCOD9321150
Probable space group: C 2 2 21
;
_chemical_formula_sum "Si O2"
_cell_formula_units_Z 40
_cell_length_a 25.596550
_cell_length_b 13.302615
_cell_length_c 4.946425
_cell_angle_alpha 90.000000
_cell_angle_beta 90.000000
_cell_angle_gamma 90.000000
_cell_volume 1684.262906
_symmetry_space_group_name_H-M "C 2 2 21"
_symmetry_group_IT_number 20
_symmetry_cell_setting 'orthorhombic'
loop_
_space_group_symop_operation_xyz
x,y,z
-x,-y,1/2+z
x,-y,-z
-x,y,1/2-z
1/2+x,1/2+y,z
1/2-x,1/2-y,1/2+z
1/2+x,1/2-y,-z
1/2-x,1/2+y,1/2-z
loop_
_atom_site_type_symbol
_atom_site_label
_atom_site_fract_x
_atom_site_fract_y
_atom_site_fract_z
Si Si1 0.751000 0.316619 0.579139
Si Si2 0.853573 0.108525 0.364696
Si Si3 0.842763 0.417132 0.828640
Si Si4 0.895542 0.218439 0.891240
Si Si5 0.000000 0.329034 0.750000
Si Si6 0.562617 0.000000 0.000000
O O1 0.741117 0.279946 0.276475
O O2 0.702424 0.372028 0.721384
O O3 0.803587 0.381097 0.597002
O O4 0.871928 0.183065 0.604700
O O5 0.855110 0.000000 0.500000
O O6 0.891747 0.132126 0.113744
O O7 0.860984 0.315702 0.979891
O O8 0.895260 0.472643 0.730125
O O9 0.812958 0.500000 0.000000
O O10 0.953431 0.260358 0.856144
O O11 0.024852 0.403909 0.975065
#
# Coordination Sequence:
#
# PCOD9321150 Si02
#       6
#     8   8   8   8   4   4
#     4  12  24  44  70 105 149 198 241 295 371 436
#     4  12  25  49  73 105 144 197 254 307 357 429
#     4  11  25  42  71 106 152 188 236 299 373 454
#     4  11  26  46  74 105 148 188 241 313 364 433
#     4  10  26  44  74 110 146 200 238 310 380 444
#     4  10  26  44  68 112 146 192 242 294 376 470
#
# _framework density 23.749258999999999
#
# number of rings (size 3 to 8) (size 9 to 14) (size 15 to 20)
#    0.000    0.800    4.000    1.200   14.000    0.800 
#    3.600    2.000    0.000    0.000    0.000    0.000 
#    0.000    0.000    0.000    0.000    0.000    0.000 
#
# Total GULP energy -111831.404447 kJ/mol
# GULP energy per Si atom -5591.570222 kJ/mol
# Density = 2.369520 g / cm^3
# Si number density = 23.749259 Si / 1000 Ang^3
#
#
#
# Elastic Constant Matrix: (Units=GPa)
#
#
# Indices 1 2 3 4 5 6 
#
# 1 147.4195 46.2651 22.6890 0.0000 0.0000 0.0000
# 2 46.2651 80.5242 14.9696 0.0000 0.0000 0.0000
# 3 22.6890 14.9696 89.9156 0.0000 0.0000 0.0000
# 4 0.0000 0.0000 0.0000 42.8148 0.0000 0.0000
# 5 0.0000 0.0000 0.0000 0.0000 11.2896 0.0000
# 6 0.0000 0.0000 0.0000 0.0000 0.0000 10.5595
#
#
#
# Elastic Compliance Matrix: (Units=1/GPa)
#
#
# Indices 1 2 3 4 5 6 
#
# 1 0.008435 -0.004593 -0.001364 0.000000 0.000000 0.000000
# 2 -0.004593 0.015316 -0.001391 0.000000 0.000000 0.000000
# 3 -0.001364 -0.001391 0.011697 0.000000 0.000000 0.000000
# 4 0.000000 0.000000 0.000000 0.023356 0.000000 0.000000
# 5 0.000000 0.000000 0.000000 0.000000 0.088577 0.000000
# 6 0.000000 0.000000 0.000000 0.000000 0.000000 0.094701
#
#
# Mechanical properties :
#
#
# Convention : Reuss Voigt Hill
#
# Bulk Modulus (GPa) = 48.18566 53.96743 51.07654
# Shear Modulus (GPa) = 18.96130 28.52848 23.74489
#
# Velocity S-wave (km/s) = 2.82865 3.46965 3.16542
# Velocity P-wave (km/s) = 5.56792 6.23093 5.90873
#
# Compressibility (1/GPa) = 0.02075306
#
# Stress axis : x y z
#
# Youngs Moduli (GPa) = 118.55997 65.29178 85.49021
#
# Poissons Ratio (x) = 0.29986 0.11659
# Poissons Ratio (y) = 0.54449 0.11892
# Poissons Ratio (z) = 0.16169 0.09082
#
# Static dielectric constant tensor:
#      x y z
#    x 1.913000 0.000000 0.000000 
#    y 0.000000 1.949880 0.000000 
#    z 0.000000 0.000000 1.941920 
# 
# From -- ./inp_files/4084.got.cif
#   From: 2010.05.17/outbox.cif.g08.bks.cpg/sg20_3_cif.got.tgz:4084.got - 2010.06.03 22:52:26.
