data_PCOD9321178
_publ_section_title
;
Structure prediction by ZEFSAII (Michael W. Deem and Ramdas Pophale) SiO2 
 PCOD9321178
Probable space group: C 2 2 21
;
_chemical_formula_sum "Si O2"
_cell_formula_units_Z 40
_cell_length_a 26.872233
_cell_length_b 5.087717
_cell_length_c 11.011775
_cell_angle_alpha 90.000000
_cell_angle_beta 90.000000
_cell_angle_gamma 90.000000
_cell_volume 1505.511341
_symmetry_space_group_name_H-M "C 2 2 21"
_symmetry_group_IT_number 20
_symmetry_cell_setting 'orthorhombic'
loop_
_space_group_symop_operation_xyz
x,y,z
-x,-y,1/2+z
x,-y,-z
-x,y,1/2-z
1/2+x,1/2+y,z
1/2-x,1/2-y,1/2+z
1/2+x,1/2-y,-z
1/2-x,1/2+y,1/2-z
loop_
_atom_site_type_symbol
_atom_site_label
_atom_site_fract_x
_atom_site_fract_y
_atom_site_fract_z
Si Si1 0.401733 0.782910 0.820858
Si Si2 0.325934 0.958343 0.368517
Si Si3 0.920498 0.146486 0.383548
Si Si4 0.734436 0.497601 0.275423
Si Si5 0.000000 0.493210 0.250000
Si Si6 0.660473 0.500000 0.500000
O O1 0.404648 0.535169 0.729477
O O2 0.376054 0.721451 0.948580
O O3 0.365350 0.974697 0.745003
O O4 0.459336 0.857001 0.830759
O O5 0.369733 0.771251 0.431796
O O6 0.281165 0.760436 0.309965
O O7 0.299362 0.000000 0.500000
O O8 0.963687 0.333067 0.336628
O O9 0.941910 0.000000 0.500000
O O10 0.783895 0.723529 0.301836
O O11 0.696688 0.539091 0.385854
#
# Coordination Sequence:
#
# PCOD9321178 Si02
#       6
#     8   8   8   8   4   4
#     4  11  24  51  71 114 155 205 265 333 416 481
#     4  11  22  42  74 108 148 205 260 320 387 496
#     4  11  23  46  79 104 150 203 270 334 406 497
#     4  12  27  49  77 115 167 214 262 321 411 488
#     4  10  26  48  74 114 150 206 272 332 414 496
#     4  12  26  50  82 120 168 208 266 354 398 514
#
# _framework density 26.569047000000001
#
# number of rings (size 3 to 8) (size 9 to 14) (size 15 to 20)
#    0.000    0.800    5.000    1.800    0.000    0.800 
#   18.000    0.000    0.000    0.000    0.000    0.000 
#    0.000    0.000    0.000    0.000    0.000    0.000 
#
# Total GULP energy -111395.101223 kJ/mol
# GULP energy per Si atom -5569.755061 kJ/mol
# Density = 2.650857 g / cm^3
# Si number density = 26.569047 Si / 1000 Ang^3
#
#
#
# Elastic Constant Matrix: (Units=GPa)
#
#
# Indices 1 2 3 4 5 6 
#
# 1 224.6151 44.7896 56.0826 0.0000 0.0000 0.0000
# 2 44.7896 166.5082 54.5986 0.0000 0.0000 0.0000
# 3 56.0826 54.5986 164.5163 0.0000 0.0000 0.0000
# 4 0.0000 0.0000 0.0000 17.3566 0.0000 0.0000
# 5 0.0000 0.0000 0.0000 0.0000 38.3245 0.0000
# 6 0.0000 0.0000 0.0000 0.0000 0.0000 116.5306
#
#
#
# Elastic Compliance Matrix: (Units=1/GPa)
#
#
# Indices 1 2 3 4 5 6 
#
# 1 0.004978 -0.000878 -0.001406 0.000000 0.000000 0.000000
# 2 -0.000878 0.006894 -0.001989 0.000000 0.000000 0.000000
# 3 -0.001406 -0.001989 0.007218 0.000000 0.000000 0.000000
# 4 0.000000 0.000000 0.000000 0.057615 0.000000 0.000000
# 5 0.000000 0.000000 0.000000 0.000000 0.026093 0.000000
# 6 0.000000 0.000000 0.000000 0.000000 0.000000 0.008581
#
#
# Mechanical properties :
#
#
# Convention : Reuss Voigt Hill
#
# Bulk Modulus (GPa) = 94.83165 96.28680 95.55923
# Shear Modulus (GPa) = 40.50596 61.12024 50.81310
#
# Velocity S-wave (km/s) = 3.90879 4.80148 4.37795
# Velocity P-wave (km/s) = 7.49277 8.18889 7.84855
#
# Compressibility (1/GPa) = 0.01054500
#
# Stress axis : x y z
#
# Youngs Moduli (GPa) = 200.87887 145.05373 138.55162
#
# Poissons Ratio (x) = 0.12739 0.19474
# Poissons Ratio (y) = 0.17641 0.27552
# Poissons Ratio (z) = 0.28235 0.28845
#
# Static dielectric constant tensor:
#      x y z
#    x 2.100480 0.000000 0.000000 
#    y 0.000000 2.249880 0.000000 
#    z 0.000000 0.000000 2.613090 
# 
# From -- ./inp_files/16897.got.cif
#   From: 2010.05.17/outbox.cif.g08.bks.cpg/sg20_9_cif.got.tgz:16897.got - 2010.06.03 22:52:26.
