data_PCOD9321501
_publ_section_title
;
Structure prediction by ZEFSAII (Michael W. Deem and Ramdas Pophale) SiO2 
 PCOD9321501
Probable space group: C 2 2 21
;
_chemical_formula_sum "Si O2"
_cell_formula_units_Z 40
_cell_length_a 15.120852
_cell_length_b 8.238423
_cell_length_c 13.007036
_cell_angle_alpha 90.000000
_cell_angle_beta 90.000000
_cell_angle_gamma 90.000000
_cell_volume 1620.312162
_symmetry_space_group_name_H-M "C 2 2 21"
_symmetry_group_IT_number 20
_symmetry_cell_setting 'orthorhombic'
loop_
_space_group_symop_operation_xyz
x,y,z
-x,-y,1/2+z
x,-y,-z
-x,y,1/2-z
1/2+x,1/2+y,z
1/2-x,1/2-y,1/2+z
1/2+x,1/2-y,-z
1/2-x,1/2+y,1/2-z
loop_
_atom_site_type_symbol
_atom_site_label
_atom_site_fract_x
_atom_site_fract_y
_atom_site_fract_z
Si Si1 0.226551 0.500000 0.500000
Si Si2 0.254273 0.666782 0.934400
Si Si3 0.181748 0.868794 0.206810
Si Si4 0.546546 0.225026 0.934462
Si Si5 0.000000 0.055231 0.250000
Si Si6 0.550298 0.861558 0.854723
O O1 0.186434 0.678708 0.472414
O O2 0.273180 0.545622 0.609438
O O3 0.266442 0.639051 0.812952
O O4 0.153373 0.733765 0.943066
O O5 0.265658 0.500000 0.000000
O O6 0.150906 0.689640 0.169934
O O7 0.090214 0.957346 0.235775
O O8 0.499041 0.336407 0.852525
O O9 0.535659 0.041756 0.895068
O O10 0.518009 0.251579 0.051918
O O11 0.500000 0.845649 0.750000
#
# Coordination Sequence:
#
# PCOD9321501 Si02
#       6
#     4   8   8   8   4   8
#     4  12  26  48  76 102 152 206 242 310 382 442
#     4  12  27  48  75 109 149 200 251 310 377 456
#     4  12  26  46  74 107 148 192 250 312 376 446
#     4  11  23  43  73 101 143 189 242 300 372 440
#     4  12  24  44  76 110 146 186 250 310 374 446
#     4  11  22  43  69  98 139 189 237 299 369 441
#
# _framework density 24.686602000000001
#
# number of rings (size 3 to 8) (size 9 to 14) (size 15 to 20)
#    0.000    0.400    8.000    0.000    5.600    1.600 
#    1.800    2.000    0.000    0.000    0.000    0.000 
#    0.000    0.000    0.000    0.000    0.000    0.000 
#
# Total GULP energy -111737.915808 kJ/mol
# GULP energy per Si atom -5586.895790 kJ/mol
# Density = 2.463041 g / cm^3
# Si number density = 24.686602 Si / 1000 Ang^3
#
#
#
# Elastic Constant Matrix: (Units=GPa)
#
#
# Indices 1 2 3 4 5 6 
#
# 1 44.1049 3.9881 48.0647 0.0000 0.0000 0.0000
# 2 3.9881 125.7330 61.7547 0.0000 0.0000 0.0000
# 3 48.0647 61.7547 258.3219 0.0000 0.0000 0.0000
# 4 0.0000 0.0000 0.0000 29.5852 0.0000 0.0000
# 5 0.0000 0.0000 0.0000 0.0000 27.0501 0.0000
# 6 0.0000 0.0000 0.0000 0.0000 0.0000 22.9937
#
#
#
# Elastic Compliance Matrix: (Units=1/GPa)
#
#
# Indices 1 2 3 4 5 6 
#
# 1 0.028856 0.001951 -0.005836 0.000000 0.000000 0.000000
# 2 0.001951 0.009143 -0.002549 0.000000 0.000000 0.000000
# 3 -0.005836 -0.002549 0.005566 0.000000 0.000000 0.000000
# 4 0.000000 0.000000 0.000000 0.033801 0.000000 0.000000
# 5 0.000000 0.000000 0.000000 0.000000 0.036968 0.000000
# 6 0.000000 0.000000 0.000000 0.000000 0.000000 0.043490
#
#
# Mechanical properties :
#
#
# Convention : Reuss Voigt Hill
#
# Bulk Modulus (GPa) = 32.57440 72.86387 52.71914
# Shear Modulus (GPa) = 27.63573 36.88261 32.25917
#
# Velocity S-wave (km/s) = 3.34947 3.86947 3.61882
# Velocity P-wave (km/s) = 5.30871 7.03870 6.23401
#
# Compressibility (1/GPa) = 0.03069895
#
# Stress axis : x y z
#
# Youngs Moduli (GPa) = 34.65452 109.36913 179.65424
#
# Poissons Ratio (x) = -0.21337 1.04838
# Poissons Ratio (y) = -0.06761 0.45790
# Poissons Ratio (z) = 0.20223 0.27876
#
# Static dielectric constant tensor:
#      x y z
#    x 1.992460 0.000000 0.000000 
#    y 0.000000 2.085240 0.000000 
#    z 0.000000 0.000000 1.947750 
# 
# From -- ./inp_files/16197.got.cif
#   From: 2010.05.17/outbox.cif.g08.bks.cpg/sg20_9_cif.got.tgz:16197.got - 2010.06.03 22:52:26.
