data_PCOD9321480
_publ_section_title
;
Structure prediction by ZEFSAII (Michael W. Deem and Ramdas Pophale) SiO2 
 PCOD9321480
Probable space group: C 2 2 21
;
_chemical_formula_sum "Si O2"
_cell_formula_units_Z 32
_cell_length_a 7.247502
_cell_length_b 7.943162
_cell_length_c 22.780988
_cell_angle_alpha 90.000000
_cell_angle_beta 90.000000
_cell_angle_gamma 90.000000
_cell_volume 1311.457796
_symmetry_space_group_name_H-M "C 2 2 21"
_symmetry_group_IT_number 20
_symmetry_cell_setting 'orthorhombic'
loop_
_space_group_symop_operation_xyz
x,y,z
-x,-y,1/2+z
x,-y,-z
-x,y,1/2-z
1/2+x,1/2+y,z
1/2-x,1/2-y,1/2+z
1/2+x,1/2-y,-z
1/2-x,1/2+y,1/2-z
loop_
_atom_site_type_symbol
_atom_site_label
_atom_site_fract_x
_atom_site_fract_y
_atom_site_fract_z
Si Si1 0.281969 0.208944 0.236872
Si Si2 0.023673 0.967848 0.931742
Si Si3 0.835337 0.611018 0.620282
Si Si4 0.220639 0.406920 0.340571
O O1 0.244944 0.339636 0.184067
O O2 0.186580 0.247492 0.299147
O O3 0.530976 0.975766 0.367232
O O4 0.210627 0.037854 0.208006
O O5 0.104478 0.785370 0.912648
O O6 0.135121 0.103043 0.892454
O O7 0.810680 0.000513 0.915125
O O8 0.052602 0.000000 0.000000
O O9 0.500000 0.195921 0.250000
#
# Coordination Sequence:
#
# PCOD9321480 Si02
#       4
#     8   8   8   8
#     4  11  22  42  69 104 148 188 250 316 397 462
#     4  11  28  49  74 111 150 205 265 323 382 466
#     4  11  26  46  76 106 150 198 255 318 394 460
#     4  11  26  44  74 107 153 195 255 323 396 469
#
# _framework density 24.400327999999998
#
# number of rings (size 3 to 8) (size 9 to 14) (size 15 to 20)
#    0.000    1.000    2.500    2.250   10.500    1.000 
#    0.000    0.000    0.000    0.000    0.000    0.000 
#    0.000    0.000    0.000    0.000    0.000    0.000 
#
# Total GULP energy -89585.075846 kJ/mol
# GULP energy per Si atom -5599.067240 kJ/mol
# Density = 2.434479 g / cm^3
# Si number density = 24.400328 Si / 1000 Ang^3
#
#
#
# Elastic Constant Matrix: (Units=GPa)
#
#
# Indices 1 2 3 4 5 6 
#
# 1 131.0154 15.2738 61.5792 0.0000 0.0000 0.0000
# 2 15.2738 71.6443 41.2279 0.0000 0.0000 0.0000
# 3 61.5792 41.2279 192.4582 0.0000 0.0000 0.0000
# 4 0.0000 0.0000 0.0000 26.9015 0.0000 0.0000
# 5 0.0000 0.0000 0.0000 0.0000 29.9562 0.0000
# 6 0.0000 0.0000 0.0000 0.0000 0.0000 32.0651
#
#
#
# Elastic Compliance Matrix: (Units=1/GPa)
#
#
# Indices 1 2 3 4 5 6 
#
# 1 0.008989 -0.000298 -0.002812 0.000000 0.000000 0.000000
# 2 -0.000298 0.015930 -0.003317 0.000000 0.000000 0.000000
# 3 -0.002812 -0.003317 0.006806 0.000000 0.000000 0.000000
# 4 0.000000 0.000000 0.000000 0.037173 0.000000 0.000000
# 5 0.000000 0.000000 0.000000 0.000000 0.033382 0.000000
# 6 0.000000 0.000000 0.000000 0.000000 0.000000 0.031187
#
#
# Mechanical properties :
#
#
# Convention : Reuss Voigt Hill
#
# Bulk Modulus (GPa) = 52.99208 70.14220 61.56714
# Shear Modulus (GPa) = 32.76271 36.25371 34.50821
#
# Velocity S-wave (km/s) = 3.66828 3.85877 3.76473
# Velocity P-wave (km/s) = 6.30132 6.97584 6.64714
#
# Compressibility (1/GPa) = 0.01887074
#
# Stress axis : x y z
#
# Youngs Moduli (GPa) = 111.24337 62.77366 146.92090
#
# Poissons Ratio (x) = 0.01871 0.41320
# Poissons Ratio (y) = 0.03315 0.48736
# Poissons Ratio (z) = 0.31286 0.20823
#
# Static dielectric constant tensor:
#      x y z
#    x 1.948620 0.000000 0.000000 
#    y 0.000000 2.110750 0.000000 
#    z 0.000000 0.000000 1.867450 
# 
# From -- ./inp_files/26342.got.cif
#   From: 2010.05.17/outbox.cif.g08.bks.cpg/sg20_14_cif.got.tgz:26342.got - 2010.06.03 22:52:26.
