data_PCOD9321071
_publ_section_title
;
Structure prediction by ZEFSAII (Michael W. Deem and Ramdas Pophale) SiO2 
 PCOD9321071
Probable space group: C 2 2 21
;
_chemical_formula_sum "Si O2"
_cell_formula_units_Z 40
_cell_length_a 28.805893
_cell_length_b 11.597676
_cell_length_c 4.918601
_cell_angle_alpha 90.000000
_cell_angle_beta 90.000000
_cell_angle_gamma 90.000000
_cell_volume 1643.213177
_symmetry_space_group_name_H-M "C 2 2 21"
_symmetry_group_IT_number 20
_symmetry_cell_setting 'orthorhombic'
loop_
_space_group_symop_operation_xyz
x,y,z
-x,-y,1/2+z
x,-y,-z
-x,y,1/2-z
1/2+x,1/2+y,z
1/2-x,1/2-y,1/2+z
1/2+x,1/2-y,-z
1/2-x,1/2+y,1/2-z
loop_
_atom_site_type_symbol
_atom_site_label
_atom_site_fract_x
_atom_site_fract_y
_atom_site_fract_z
Si Si1 0.966481 0.000000 0.000000
Si Si2 0.361649 0.812960 0.737221
Si Si3 0.000000 0.572721 0.750000
Si Si4 0.384762 0.658686 0.238432
Si Si5 0.918251 0.500000 0.500000
Si Si6 0.189981 0.000000 0.500000
Si Si7 0.761012 0.683016 0.518058
O O1 0.932704 0.098539 0.132378
O O2 0.000000 0.039923 0.750000
O O3 0.369579 0.759703 0.031459
O O4 0.309716 0.839223 0.629800
O O5 0.387098 0.934484 0.711953
O O6 0.382559 0.714183 0.536080
O O7 0.952277 0.604875 0.605215
O O8 0.020585 0.500000 0.500000
O O9 0.345200 0.561539 0.204988
O O10 0.226903 0.085805 0.637639
O O11 0.731043 0.736003 0.273502
#
# Coordination Sequence:
#
# PCOD9321071 Si02
#       7
#     4   8   4   8   4   4   8
#     4  11  24  50  67 104 134 175 232 290 343 410
#     4  12  24  45  66 106 133 178 229 272 333 406
#     4   8  20  42  58  92 122 174 210 258 332 388
#     4  11  26  43  72  98 139 176 223 280 342 402
#     4  10  25  42  71  90 146 161 226 269 340 374
#     4  11  23  46  70  92 146 174 214 277 341 374
#     4  12  24  43  66 102 132 176 226 263 322 406
#
# _framework density 24.342548000000001
#
# number of rings (size 3 to 8) (size 9 to 14) (size 15 to 20)
#    0.600    0.400    4.000    1.800    2.800    4.800 
#   10.800    4.000    0.000    0.000    0.000    0.000 
#    0.000    0.000    0.000    0.000    0.000    0.000 
#
# Total GULP energy -111405.324620 kJ/mol
# GULP energy per Si atom -5570.266231 kJ/mol
# Density = 2.428714 g / cm^3
# Si number density = 24.342548 Si / 1000 Ang^3
#
#
#
# Elastic Constant Matrix: (Units=GPa)
#
#
# Indices 1 2 3 4 5 6 
#
# 1 146.8912 40.0813 -0.2630 0.0000 0.0000 0.0000
# 2 40.0813 31.7715 -6.1663 0.0000 0.0000 0.0000
# 3 -0.2630 -6.1663 74.3833 0.0000 0.0000 0.0000
# 4 0.0000 0.0000 0.0000 26.0465 0.0000 0.0000
# 5 0.0000 0.0000 0.0000 0.0000 26.4877 0.0000
# 6 0.0000 0.0000 0.0000 0.0000 0.0000 23.4227
#
#
#
# Elastic Compliance Matrix: (Units=1/GPa)
#
#
# Indices 1 2 3 4 5 6 
#
# 1 0.010465 -0.013411 -0.001075 0.000000 0.000000 0.000000
# 2 -0.013411 0.049175 0.004029 0.000000 0.000000 0.000000
# 3 -0.001075 0.004029 0.013774 0.000000 0.000000 0.000000
# 4 0.000000 0.000000 0.000000 0.038393 0.000000 0.000000
# 5 0.000000 0.000000 0.000000 0.000000 0.037753 0.000000
# 6 0.000000 0.000000 0.000000 0.000000 0.000000 0.042694
#
#
# Mechanical properties :
#
#
# Convention : Reuss Voigt Hill
#
# Bulk Modulus (GPa) = 19.04706 35.59445 27.32075
# Shear Modulus (GPa) = 21.67616 29.81765 25.74690
#
# Velocity S-wave (km/s) = 2.98730 3.50368 3.25575
# Velocity P-wave (km/s) = 4.44300 5.56972 5.03795
#
# Compressibility (1/GPa) = 0.05250153
#
# Stress axis : x y z
#
# Youngs Moduli (GPa) = 95.55477 20.33540 72.60010
#
# Poissons Ratio (x) = 0.27272 0.07803
# Poissons Ratio (y) = 1.28148 -0.29252
# Poissons Ratio (z) = 0.10270 -0.08193
#
# Static dielectric constant tensor:
#      x y z
#    x 1.978660 0.000000 0.000000 
#    y 0.000000 2.732510 0.000000 
#    z 0.000000 0.000000 1.992300 
# 
# From -- ./inp_files/4132.got.cif
#   From: 2010.05.17/outbox.cif.g08.bks.cpg/sg20_3_cif.got.tgz:4132.got - 2010.06.03 22:52:26.
