data_PCOD9321117
_publ_section_title
;
Structure prediction by ZEFSAII (Michael W. Deem and Ramdas Pophale) SiO2 
 PCOD9321117
Probable space group: C 2 2 21
;
_chemical_formula_sum "Si O2"
_cell_formula_units_Z 40
_cell_length_a 13.452594
_cell_length_b 5.278127
_cell_length_c 22.090813
_cell_angle_alpha 90.000000
_cell_angle_beta 90.000000
_cell_angle_gamma 90.000000
_cell_volume 1568.547123
_symmetry_space_group_name_H-M "C 2 2 21"
_symmetry_group_IT_number 20
_symmetry_cell_setting 'orthorhombic'
loop_
_space_group_symop_operation_xyz
x,y,z
-x,-y,1/2+z
x,-y,-z
-x,y,1/2-z
1/2+x,1/2+y,z
1/2-x,1/2-y,1/2+z
1/2+x,1/2-y,-z
1/2-x,1/2+y,1/2-z
loop_
_atom_site_type_symbol
_atom_site_label
_atom_site_fract_x
_atom_site_fract_y
_atom_site_fract_z
Si Si1 0.923545 0.500000 0.500000
Si Si2 0.680875 0.368807 0.434746
Si Si3 0.204978 0.348656 0.835049
Si Si4 0.211691 0.000000 0.000000
Si Si5 0.402106 0.126088 0.776045
Si Si6 0.495506 0.210138 0.378863
O O1 0.858836 0.756808 0.497893
O O2 0.981864 0.520903 0.436475
O O3 0.676245 0.500000 0.500000
O O4 0.575064 0.406601 0.403758
O O5 0.712982 0.076075 0.445882
O O6 0.152880 0.501659 0.781166
O O7 0.235671 0.519924 0.891474
O O8 0.111951 0.181727 0.859156
O O9 0.309174 0.249184 0.810183
O O10 0.500000 0.273833 0.750000
O O11 0.451091 0.925733 0.822396
#
# Coordination Sequence:
#
# PCOD9321117 Si02
#       6
#     4   8   8   4   8   8
#     4  12  27  48  79 116 164 210 269 332 423 480
#     4  12  27  48  77 119 162 212 273 335 414 491
#     4  11  24  50  73 115 155 215 265 344 397 491
#     4  12  25  50  75 114 160 216 257 332 407 490
#     4  10  25  47  77 110 158 206 281 326 411 476
#     4  11  26  45  74 114 156 208 264 334 404 488
#
# _framework density 25.501308000000002
#
# number of rings (size 3 to 8) (size 9 to 14) (size 15 to 20)
#    0.000    0.800    3.000    1.800    9.800    1.600 
#    0.000    0.000    0.000    0.000    0.000    0.000 
#    0.000    0.000    0.000    0.000    0.000    0.000 
#
# Total GULP energy -111792.919315 kJ/mol
# GULP energy per Si atom -5589.645966 kJ/mol
# Density = 2.544327 g / cm^3
# Si number density = 25.501308 Si / 1000 Ang^3
#
#
#
# Elastic Constant Matrix: (Units=GPa)
#
#
# Indices 1 2 3 4 5 6 
#
# 1 237.2797 54.9033 82.3998 0.0000 0.0000 0.0000
# 2 54.9033 67.7203 31.7016 0.0000 0.0000 0.0000
# 3 82.3998 31.7016 165.8044 0.0000 0.0000 0.0000
# 4 0.0000 0.0000 0.0000 30.9674 0.0000 0.0000
# 5 0.0000 0.0000 0.0000 0.0000 64.6483 0.0000
# 6 0.0000 0.0000 0.0000 0.0000 0.0000 40.3816
#
#
#
# Elastic Compliance Matrix: (Units=1/GPa)
#
#
# Indices 1 2 3 4 5 6 
#
# 1 0.005832 -0.003703 -0.002190 0.000000 0.000000 0.000000
# 2 -0.003703 0.018569 -0.001710 0.000000 0.000000 0.000000
# 3 -0.002190 -0.001710 0.007447 0.000000 0.000000 0.000000
# 4 0.000000 0.000000 0.000000 0.032292 0.000000 0.000000
# 5 0.000000 0.000000 0.000000 0.000000 0.015468 0.000000
# 6 0.000000 0.000000 0.000000 0.000000 0.000000 0.024764
#
#
# Mechanical properties :
#
#
# Convention : Reuss Voigt Hill
#
# Bulk Modulus (GPa) = 60.09199 89.86821 74.98010
# Shear Modulus (GPa) = 39.95992 47.31943 43.63967
#
# Velocity S-wave (km/s) = 3.96280 4.31230 4.14124
# Velocity P-wave (km/s) = 6.67486 7.75318 7.23414
#
# Compressibility (1/GPa) = 0.01664115
#
# Stress axis : x y z
#
# Youngs Moduli (GPa) = 171.47327 53.85267 134.28758
#
# Poissons Ratio (x) = 0.19940 0.29413
# Poissons Ratio (y) = 0.63492 0.22967
# Poissons Ratio (z) = 0.37557 0.09210
#
# Static dielectric constant tensor:
#      x y z
#    x 2.063600 0.000000 0.000000 
#    y 0.000000 2.052650 0.000000 
#    z 0.000000 0.000000 2.069920 
# 
# From -- ./inp_files/30243.got.cif
#   From: 2010.05.17/outbox.cif.g08.bks.cpg/sg20_16_cif.got.tgz:30243.got - 2010.06.03 22:52:26.
