data_PCOD9321420
_publ_section_title
;
Structure prediction by ZEFSAII (Michael W. Deem and Ramdas Pophale) SiO2 
 PCOD9321420
Probable space group: C 2 2 21
;
_chemical_formula_sum "Si O2"
_cell_formula_units_Z 56
_cell_length_a 5.164236
_cell_length_b 30.787642
_cell_length_c 15.189942
_cell_angle_alpha 90.000000
_cell_angle_beta 90.000000
_cell_angle_gamma 90.000000
_cell_volume 2415.119499
_symmetry_space_group_name_H-M "C 2 2 21"
_symmetry_group_IT_number 20
_symmetry_cell_setting 'orthorhombic'
loop_
_space_group_symop_operation_xyz
x,y,z
-x,-y,1/2+z
x,-y,-z
-x,y,1/2-z
1/2+x,1/2+y,z
1/2-x,1/2-y,1/2+z
1/2+x,1/2-y,-z
1/2-x,1/2+y,1/2-z
loop_
_atom_site_type_symbol
_atom_site_label
_atom_site_fract_x
_atom_site_fract_y
_atom_site_fract_z
Si Si1 0.981091 0.740016 0.648504
Si Si2 0.661023 0.031657 0.576026
Si Si3 0.691404 0.799717 0.523730
Si Si4 0.164858 0.008519 0.670102
Si Si5 0.686062 0.821599 0.827933
Si Si6 0.337234 0.085070 0.359135
Si Si7 0.647386 0.604930 0.037586
O O1 0.147875 0.712929 0.577847
O O2 0.085991 0.788301 0.664907
O O3 0.000000 0.721453 0.750000
O O4 0.747878 0.755632 0.581571
O O5 0.739420 0.079448 0.545483
O O6 0.548196 0.000000 0.500000
O O7 0.425742 0.033117 0.644357
O O8 0.931283 0.008322 0.600220
O O9 0.448195 0.818930 0.577140
O O10 0.868457 0.843092 0.527274
O O11 0.266679 0.959648 0.687683
O O12 0.000000 0.027595 0.750000
O O13 0.500000 0.805313 0.750000
O O14 0.742062 0.871459 0.807301
O O15 0.636112 0.091101 0.388452
O O16 0.137568 0.087244 0.440775
#
# Coordination Sequence:
#
# PCOD9321420 Si02
#       7
#     8   8   8   8   8   8   8
#     4  12  23  41  69  95 134 175 228 282 354 419
#     4  12  22  42  68  93 127 181 233 271 327 413
#     4  11  24  41  64  99 132 177 228 286 344 424
#     4  12  25  40  64 100 139 174 221 284 347 401
#     4  11  23  38  63  98 139 177 223 287 354 421
#     4  11  22  39  63  99 135 176 217 279 350 412
#     4  11  23  40  68  95 130 174 232 283 336 401
#
# _framework density 23.187256999999999
#
# number of rings (size 3 to 8) (size 9 to 14) (size 15 to 20)
#    0.000    0.571    7.143    1.714    0.000    4.000 
#    0.000    1.429    0.000    0.857    0.000    0.000 
#    0.000    0.000    0.000    0.000    0.000    0.000 
#
# Total GULP energy -156017.458317 kJ/mol
# GULP energy per Si atom -5572.052083 kJ/mol
# Density = 2.313448 g / cm^3
# Si number density = 23.187257 Si / 1000 Ang^3
#
#
#
# Elastic Constant Matrix: (Units=GPa)
#
#
# Indices 1 2 3 4 5 6 
#
# 1 90.8488 20.1977 33.9456 0.0000 0.0000 0.0000
# 2 20.1977 62.7448 21.4677 0.0000 0.0000 0.0000
# 3 33.9456 21.4677 141.8045 0.0000 0.0000 0.0000
# 4 0.0000 0.0000 0.0000 16.0630 0.0000 0.0000
# 5 0.0000 0.0000 0.0000 0.0000 40.9076 0.0000
# 6 0.0000 0.0000 0.0000 0.0000 0.0000 -7.6060
#
#
#
# Elastic Compliance Matrix: (Units=1/GPa)
#
#
# Indices 1 2 3 4 5 6 
#
# 1 0.012672 -0.003208 -0.002548 0.000000 0.000000 0.000000
# 2 -0.003208 0.017620 -0.001900 0.000000 0.000000 0.000000
# 3 -0.002548 -0.001900 0.007949 0.000000 0.000000 0.000000
# 4 0.000000 0.000000 0.000000 0.062255 0.000000 0.000000
# 5 0.000000 0.000000 0.000000 0.000000 0.024445 0.000000
# 6 0.000000 0.000000 0.000000 0.000000 0.000000 -0.131475
#
#
# Mechanical properties :
#
#
# Convention : Reuss Voigt Hill
#
# Bulk Modulus (GPa) = 43.60784 49.62446 46.61615
# Shear Modulus (GPa) = 304.48444 24.52540 164.50492
#
# Velocity S-wave (km/s) = 11.47173 3.25577 8.43210
# Velocity P-wave (km/s) = 13.93969 5.96502 10.72139
#
# Compressibility (1/GPa) = 0.02293166
#
# Stress axis : x y z
#
# Youngs Moduli (GPa) = 78.91132 56.75358 125.79417
#
# Poissons Ratio (x) = 0.18204 0.32052
# Poissons Ratio (y) = 0.25311 0.23897
# Poissons Ratio (z) = 0.20106 0.10781
#
# Static dielectric constant tensor:
#      x y z
#    x 2.017170 0.000000 0.000000 
#    y 0.000000 1.865530 0.000000 
#    z 0.000000 0.000000 2.416160 
# 
# From -- ./inp_files/17964.got.cif
#   From: 2010.05.17/outbox.cif.g08.bks.cpg/sg20_9_cif.got.tgz:17964.got - 2010.06.03 22:52:26.
