data_PCOD9321936
_publ_section_title
;
Structure prediction by ZEFSAII (Michael W. Deem and Ramdas Pophale) SiO2 
 PCOD9321936
Probable space group: C 2 2 21
;
_chemical_formula_sum "Si O2"
_cell_formula_units_Z 32
_cell_length_a 9.528550
_cell_length_b 12.518584
_cell_length_c 12.256280
_cell_angle_alpha 90.000000
_cell_angle_beta 90.000000
_cell_angle_gamma 90.000000
_cell_volume 1461.977535
_symmetry_space_group_name_H-M "C 2 2 21"
_symmetry_group_IT_number 20
_symmetry_cell_setting 'orthorhombic'
loop_
_space_group_symop_operation_xyz
x,y,z
-x,-y,1/2+z
x,-y,-z
-x,y,1/2-z
1/2+x,1/2+y,z
1/2-x,1/2-y,1/2+z
1/2+x,1/2-y,-z
1/2-x,1/2+y,1/2-z
loop_
_atom_site_type_symbol
_atom_site_label
_atom_site_fract_x
_atom_site_fract_y
_atom_site_fract_z
Si Si1 0.854109 0.257701 0.586633
Si Si2 0.255785 0.963275 0.126383
Si Si3 0.000000 0.923517 0.750000
Si Si4 0.500000 0.918917 0.750000
Si Si5 0.605973 0.627300 0.477592
O O1 0.754779 0.163777 0.630847
O O2 0.758970 0.322954 0.500775
O O3 0.907015 0.342013 0.674449
O O4 0.988108 0.193453 0.541158
O O5 0.124039 0.007980 0.194897
O O6 0.397111 0.010424 0.176486
O O7 0.243164 0.000000 0.000000
O O8 0.930995 0.860695 0.849799
O O9 0.603947 0.500000 0.500000
#
# Coordination Sequence:
#
# PCOD9321936 Si02
#       5
#     8   8   4   4   8
#     4  12  26  46  76 106 145 200 245 306 384 441
#     4  12  25  52  73 108 156 191 253 316 363 458
#     4  12  21  51  74 102 154 196 233 319 378 426
#     4  12  29  47  74 108 148 196 249 313 370 442
#     4  12  27  46  75 109 149 195 253 309 373 456
#
# _framework density 21.888159999999999
#
# number of rings (size 3 to 8) (size 9 to 14) (size 15 to 20)
#    0.000    0.000    7.500    2.250    0.000    4.000 
#    0.000    0.000    0.000    0.000    0.000    0.000 
#    0.000    0.000    0.000    0.000    0.000    0.000 
#
# Total GULP energy -89536.558751 kJ/mol
# GULP energy per Si atom -5596.034922 kJ/mol
# Density = 2.183834 g / cm^3
# Si number density = 21.888160 Si / 1000 Ang^3
#
#
#
# Elastic Constant Matrix: (Units=GPa)
#
#
# Indices 1 2 3 4 5 6 
#
# 1 110.7547 88.6584 34.9197 0.0000 0.0000 0.0000
# 2 88.6584 118.0455 30.0232 0.0000 0.0000 0.0000
# 3 34.9197 30.0232 82.4605 0.0000 0.0000 0.0000
# 4 0.0000 0.0000 0.0000 13.6874 0.0000 0.0000
# 5 0.0000 0.0000 0.0000 0.0000 38.8361 0.0000
# 6 0.0000 0.0000 0.0000 0.0000 0.0000 32.0649
#
#
#
# Elastic Compliance Matrix: (Units=1/GPa)
#
#
# Indices 1 2 3 4 5 6 
#
# 1 0.023740 -0.016832 -0.003925 0.000000 0.000000 0.000000
# 2 -0.016832 0.021270 -0.000616 0.000000 0.000000 0.000000
# 3 -0.003925 -0.000616 0.014014 0.000000 0.000000 0.000000
# 4 0.000000 0.000000 0.000000 0.073060 0.000000 0.000000
# 5 0.000000 0.000000 0.000000 0.000000 0.025749 0.000000
# 6 0.000000 0.000000 0.000000 0.000000 0.000000 0.031187
#
#
# Mechanical properties :
#
#
# Convention : Reuss Voigt Hill
#
# Bulk Modulus (GPa) = 61.43583 68.71815 65.07699
# Shear Modulus (GPa) = 21.07999 27.42831 24.25415
#
# Velocity S-wave (km/s) = 3.10672 3.54377 3.33242
# Velocity P-wave (km/s) = 6.40296 6.94318 6.67853
#
# Compressibility (1/GPa) = 0.01627715
#
# Stress axis : x y z
#
# Youngs Moduli (GPa) = 42.12229 47.01505 71.35963
#
# Poissons Ratio (x) = 0.79136 0.28009
# Poissons Ratio (y) = 0.70900 0.04398
# Poissons Ratio (z) = 0.16533 0.02897
#
# Static dielectric constant tensor:
#      x y z
#    x 1.840430 0.000000 0.000000 
#    y 0.000000 1.797890 0.000000 
#    z 0.000000 0.000000 1.795210 
# 
# From -- ./inp_files/18237.got.cif
#   From: 2010.05.17/outbox.cif.g08.bks.cpg/sg20_10_cif.got.tgz:18237.got - 2010.06.03 22:52:26.
