data_PCOD9321744
_publ_section_title
;
Structure prediction by ZEFSAII (Michael W. Deem and Ramdas Pophale) SiO2 
 PCOD9321744
Probable space group: C 2 2 21
;
_chemical_formula_sum "Si O2"
_cell_formula_units_Z 48
_cell_length_a 7.804535
_cell_length_b 28.000760
_cell_length_c 9.650999
_cell_angle_alpha 90.000000
_cell_angle_beta 90.000000
_cell_angle_gamma 90.000000
_cell_volume 2109.060910
_symmetry_space_group_name_H-M "C 2 2 21"
_symmetry_group_IT_number 20
_symmetry_cell_setting 'orthorhombic'
loop_
_space_group_symop_operation_xyz
x,y,z
-x,-y,1/2+z
x,-y,-z
-x,y,1/2-z
1/2+x,1/2+y,z
1/2-x,1/2-y,1/2+z
1/2+x,1/2-y,-z
1/2-x,1/2+y,1/2-z
loop_
_atom_site_type_symbol
_atom_site_label
_atom_site_fract_x
_atom_site_fract_y
_atom_site_fract_z
Si Si1 0.197132 0.608585 0.295926
Si Si2 0.705752 0.214907 0.246069
Si Si3 0.666413 0.882543 0.159418
Si Si4 0.673446 0.445808 0.538087
Si Si5 0.620022 0.374307 0.066436
Si Si6 0.162875 0.796300 0.464121
O O1 0.274325 0.661075 0.263555
O O2 0.289408 0.569118 0.197654
O O3 0.226140 0.611105 0.461259
O O4 0.000000 0.605399 0.250000
O O5 0.500000 0.207943 0.250000
O O6 0.718318 0.257704 0.352283
O O7 0.804011 0.229629 0.107986
O O8 0.500000 0.876903 0.250000
O O9 0.814550 0.880049 0.277209
O O10 0.701255 0.839272 0.053949
O O11 0.672190 0.929256 0.063719
O O12 0.635085 0.500000 0.500000
O O13 0.521876 0.412054 0.483343
O O14 0.522779 0.322480 0.051257
#
# Coordination Sequence:
#
# PCOD9321744 Si02
#       6
#     8   8   8   8   8   8
#     4  11  24  45  71 101 141 181 230 289 345 412
#     4  11  25  42  65 101 141 181 230 277 338 403
#     4  11  24  45  67  99 139 178 221 286 345 404
#     4  11  24  46  71 101 135 178 232 284 349 419
#     4  11  24  44  70  99 138 179 227 284 347 414
#     4  11  25  44  66 102 139 188 231 282 335 410
#
# _framework density 22.758944
#
# number of rings (size 3 to 8) (size 9 to 14) (size 15 to 20)
#    0.000    1.000    3.333    4.500    7.000    3.333 
#    0.000    1.667    0.000    0.000    0.000    0.000 
#    0.000    0.000    0.000    0.000    0.000    0.000 
#
# Total GULP energy -133870.265594 kJ/mol
# GULP energy per Si atom -5577.927733 kJ/mol
# Density = 2.270714 g / cm^3
# Si number density = 22.758944 Si / 1000 Ang^3
#
#
#
# Elastic Constant Matrix: (Units=GPa)
#
#
# Indices 1 2 3 4 5 6 
#
# 1 57.8157 -12.1525 -2.9044 0.0000 0.0000 0.0000
# 2 -12.1525 105.2155 19.6064 0.0000 0.0000 0.0000
# 3 -2.9044 19.6064 118.5462 0.0000 0.0000 0.0000
# 4 0.0000 0.0000 0.0000 31.5349 0.0000 0.0000
# 5 0.0000 0.0000 0.0000 0.0000 39.2673 0.0000
# 6 0.0000 0.0000 0.0000 0.0000 0.0000 10.9735
#
#
#
# Elastic Compliance Matrix: (Units=1/GPa)
#
#
# Indices 1 2 3 4 5 6 
#
# 1 0.017728 0.002029 0.000099 0.000000 0.000000 0.000000
# 2 0.002029 0.010039 -0.001611 0.000000 0.000000 0.000000
# 3 0.000099 -0.001611 0.008704 0.000000 0.000000 0.000000
# 4 0.000000 0.000000 0.000000 0.031711 0.000000 0.000000
# 5 0.000000 0.000000 0.000000 0.000000 0.025466 0.000000
# 6 0.000000 0.000000 0.000000 0.000000 0.000000 0.091129
#
#
# Mechanical properties :
#
#
# Convention : Reuss Voigt Hill
#
# Bulk Modulus (GPa) = 26.66272 32.29738 29.48005
# Shear Modulus (GPa) = 25.47846 34.82366 30.15106
#
# Velocity S-wave (km/s) = 3.34951 3.91590 3.64373
# Velocity P-wave (km/s) = 5.16717 5.88792 5.53928
#
# Compressibility (1/GPa) = 0.03750555
#
# Stress axis : x y z
#
# Youngs Moduli (GPa) = 56.40851 99.61343 114.88533
#
# Poissons Ratio (x) = -0.20213 -0.01134
# Poissons Ratio (y) = -0.11446 0.18504
# Poissons Ratio (z) = -0.00557 0.16044
#
# Static dielectric constant tensor:
#      x y z
#    x 1.961920 0.000000 0.000000 
#    y 0.000000 1.838940 0.000000 
#    z 0.000000 0.000000 1.921440 
# 
# From -- ./inp_files/6453.got.cif
#   From: 2010.05.17/outbox.cif.g08.bks.cpg/sg20_4_cif.got.tgz:6453.got - 2010.06.03 22:52:26.
