data_PCOD9321880
_publ_section_title
;
Structure prediction by ZEFSAII (Michael W. Deem and Ramdas Pophale) SiO2 
 PCOD9321880
Probable space group: C 2 2 21
;
_chemical_formula_sum "Si O2"
_cell_formula_units_Z 28
_cell_length_a 31.605175
_cell_length_b 5.182237
_cell_length_c 7.617653
_cell_angle_alpha 90.000000
_cell_angle_beta 90.000000
_cell_angle_gamma 90.000000
_cell_volume 1247.661161
_symmetry_space_group_name_H-M "C 2 2 21"
_symmetry_group_IT_number 20
_symmetry_cell_setting 'orthorhombic'
loop_
_space_group_symop_operation_xyz
x,y,z
-x,-y,1/2+z
x,-y,-z
-x,y,1/2-z
1/2+x,1/2+y,z
1/2-x,1/2-y,1/2+z
1/2+x,1/2-y,-z
1/2-x,1/2+y,1/2-z
loop_
_atom_site_type_symbol
_atom_site_label
_atom_site_fract_x
_atom_site_fract_y
_atom_site_fract_z
Si Si1 0.222882 0.554185 0.205107
Si Si2 0.420753 0.302805 0.849836
Si Si3 0.048783 0.000000 0.000000
Si Si4 0.490956 0.000000 0.000000
Si Si5 0.343633 0.000000 0.000000
O O1 0.245854 0.298124 0.280216
O O2 0.184830 0.608661 0.341413
O O3 0.211724 0.500000 0.000000
O O4 0.422308 0.441982 0.666026
O O5 0.456908 0.081894 0.849720
O O6 0.434363 0.500000 0.000000
O O7 0.375472 0.198788 0.906843
O O8 0.019497 0.249566 0.967678
#
# Coordination Sequence:
#
# PCOD9321880 Si02
#       5
#     8   8   4   4   4
#     4  12  25  49  81 114 147 198 251 303 372 454
#     4  11  28  47  73 111 153 199 248 317 389 429
#     4  12  28  46  77 106 147 202 267 304 375 452
#     4  11  26  46  76 106 143 202 261 318 360 452
#     4  11  28  48  75 112 164 188 250 314 379 450
#
# _framework density 22.441991000000002
#
# number of rings (size 3 to 8) (size 9 to 14) (size 15 to 20)
#    0.000    0.571    4.286    0.857   16.000    2.286 
#    0.000    0.000    0.000    0.000    0.000    0.000 
#    0.000    0.000    0.000    0.000    0.000    0.000 
#
# Total GULP energy -78332.452942 kJ/mol
# GULP energy per Si atom -5595.175210 kJ/mol
# Density = 2.239091 g / cm^3
# Si number density = 22.441991 Si / 1000 Ang^3
#
#
#
# Elastic Constant Matrix: (Units=GPa)
#
#
# Indices 1 2 3 4 5 6 
#
# 1 121.6500 42.2022 75.8135 0.0000 0.0000 0.0000
# 2 42.2022 122.1391 47.4186 0.0000 0.0000 0.0000
# 3 75.8135 47.4186 210.6211 0.0000 0.0000 0.0000
# 4 0.0000 0.0000 0.0000 45.0486 0.0000 0.0000
# 5 0.0000 0.0000 0.0000 0.0000 24.7492 0.0000
# 6 0.0000 0.0000 0.0000 0.0000 0.0000 38.5756
#
#
#
# Elastic Compliance Matrix: (Units=1/GPa)
#
#
# Indices 1 2 3 4 5 6 
#
# 1 0.011275 -0.002542 -0.003486 0.000000 0.000000 0.000000
# 2 -0.002542 0.009545 -0.001234 0.000000 0.000000 0.000000
# 3 -0.003486 -0.001234 0.006280 0.000000 0.000000 0.000000
# 4 0.000000 0.000000 0.000000 0.022198 0.000000 0.000000
# 5 0.000000 0.000000 0.000000 0.000000 0.040405 0.000000
# 6 0.000000 0.000000 0.000000 0.000000 0.000000 0.025923
#
#
# Mechanical properties :
#
#
# Convention : Reuss Voigt Hill
#
# Bulk Modulus (GPa) = 79.51780 87.25319 83.38550
# Shear Modulus (GPa) = 37.21817 40.93975 39.07896
#
# Velocity S-wave (km/s) = 4.07678 4.27575 4.17745
# Velocity P-wave (km/s) = 7.59406 7.95864 7.77849
#
# Compressibility (1/GPa) = 0.01257580
#
# Stress axis : x y z
#
# Youngs Moduli (GPa) = 88.69343 104.76885 159.22484
#
# Poissons Ratio (x) = 0.26636 0.55506
# Poissons Ratio (y) = 0.22549 0.19645
# Poissons Ratio (z) = 0.30919 0.12926
#
# Static dielectric constant tensor:
#      x y z
#    x 1.834130 0.000000 0.000000 
#    y 0.000000 1.887380 0.000000 
#    z 0.000000 0.000000 1.950810 
# 
# From -- ./inp_files/10917.got.cif
#   From: 2010.05.17/outbox.cif.g08.bks.cpg/sg20_6_cif.got.tgz:10917.got - 2010.06.03 22:52:26.
