data_PCOD9321508
_publ_section_title
;
Structure prediction by ZEFSAII (Michael W. Deem and Ramdas Pophale) SiO2 
 PCOD9321508
Probable space group: C 2 2 21
;
_chemical_formula_sum "Si O2"
_cell_formula_units_Z 36
_cell_length_a 7.158650
_cell_length_b 12.547097
_cell_length_c 14.337579
_cell_angle_alpha 90.000000
_cell_angle_beta 90.000000
_cell_angle_gamma 90.000000
_cell_volume 1287.805302
_symmetry_space_group_name_H-M "C 2 2 21"
_symmetry_group_IT_number 20
_symmetry_cell_setting 'orthorhombic'
loop_
_space_group_symop_operation_xyz
x,y,z
-x,-y,1/2+z
x,-y,-z
-x,y,1/2-z
1/2+x,1/2+y,z
1/2-x,1/2-y,1/2+z
1/2+x,1/2-y,-z
1/2-x,1/2+y,1/2-z
loop_
_atom_site_type_symbol
_atom_site_label
_atom_site_fract_x
_atom_site_fract_y
_atom_site_fract_z
Si Si1 0.599303 0.852911 0.348216
Si Si2 0.132160 0.657172 0.335231
Si Si3 0.515069 0.391719 0.391638
Si Si4 0.007793 0.500000 0.500000
Si Si5 0.039526 0.121991 0.384702
O O1 0.500000 0.862496 0.250000
O O2 0.802817 0.906054 0.355102
O O3 0.461142 0.904492 0.425506
O O4 0.652335 0.729941 0.370719
O O5 0.352819 0.641849 0.325409
O O6 0.000000 0.625186 0.250000
O O7 0.097798 0.782407 0.353549
O O8 0.085573 0.583200 0.423193
O O9 0.614370 0.503675 0.366714
O O10 0.499795 0.381465 0.503807
#
# Coordination Sequence:
#
# PCOD9321508 Si02
#       5
#     8   8   8   4   8
#     4  12  24  44  70  97 132 175 220 268 326 389
#     4  12  24  44  70  97 132 175 220 268 326 389
#     4  11  22  44  66  94 135 175 213 271 327 381
#     4  12  22  44  70  92 136 176 214 268 336 378
#     4  11  22  44  66  94 135 175 213 271 327 381
#
# _framework density 27.954535
#
# number of rings (size 3 to 8) (size 9 to 14) (size 15 to 20)
#    0.000    0.444    6.667    2.000    0.000    0.889 
#    4.000    0.000    0.000    0.000    0.000    0.000 
#    0.000    0.000    0.000    0.000    0.000    0.000 
#
# Total GULP energy -100769.311747 kJ/mol
# GULP energy per Si atom -5598.295097 kJ/mol
# Density = 2.789091 g / cm^3
# Si number density = 27.954535 Si / 1000 Ang^3
#
#
#
# Elastic Constant Matrix: (Units=GPa)
#
#
# Indices 1 2 3 4 5 6 
#
# 1 84.2782 46.8163 26.2192 0.0000 0.0000 0.0000
# 2 46.8163 241.7992 55.4821 0.0000 0.0000 0.0000
# 3 26.2192 55.4821 165.2710 0.0000 0.0000 0.0000
# 4 0.0000 0.0000 0.0000 43.9092 0.0000 0.0000
# 5 0.0000 0.0000 0.0000 0.0000 13.6409 0.0000
# 6 0.0000 0.0000 0.0000 0.0000 0.0000 44.9407
#
#
#
# Elastic Compliance Matrix: (Units=1/GPa)
#
#
# Indices 1 2 3 4 5 6 
#
# 1 0.013579 -0.002313 -0.001378 0.000000 0.000000 0.000000
# 2 -0.002313 0.004875 -0.001270 0.000000 0.000000 0.000000
# 3 -0.001378 -0.001270 0.006695 0.000000 0.000000 0.000000
# 4 0.000000 0.000000 0.000000 0.022774 0.000000 0.000000
# 5 0.000000 0.000000 0.000000 0.000000 0.073309 0.000000
# 6 0.000000 0.000000 0.000000 0.000000 0.000000 0.022252
#
#
# Mechanical properties :
#
#
# Convention : Reuss Voigt Hill
#
# Bulk Modulus (GPa) = 65.66576 83.15373 74.40975
# Shear Modulus (GPa) = 31.54962 44.68689 38.11826
#
# Velocity S-wave (km/s) = 3.36312 4.00253 3.69668
# Velocity P-wave (km/s) = 6.21465 7.15339 6.70048
#
# Compressibility (1/GPa) = 0.01522864
#
# Stress axis : x y z
#
# Youngs Moduli (GPa) = 73.64347 205.13669 149.35563
#
# Poissons Ratio (x) = 0.47448 0.20577
# Poissons Ratio (y) = 0.17034 0.18961
# Poissons Ratio (z) = 0.10146 0.26043
#
# Static dielectric constant tensor:
#      x y z
#    x 2.202390 0.000000 0.000000 
#    y 0.000000 2.128080 0.000000 
#    z 0.000000 0.000000 2.133030 
# 
# From -- ./inp_files/19615.got.cif
#   From: 2010.05.17/outbox.cif.g08.bks.cpg/sg20_10_cif.got.tgz:19615.got - 2010.06.03 22:52:26.
