data_PCOD9321535
_publ_section_title
;
Structure prediction by ZEFSAII (Michael W. Deem and Ramdas Pophale) SiO2 
 PCOD9321535
Probable space group: C 2 2 21
;
_chemical_formula_sum "Si O2"
_cell_formula_units_Z 40
_cell_length_a 14.297675
_cell_length_b 7.307049
_cell_length_c 15.286105
_cell_angle_alpha 90.000000
_cell_angle_beta 90.000000
_cell_angle_gamma 90.000000
_cell_volume 1596.997657
_symmetry_space_group_name_H-M "C 2 2 21"
_symmetry_group_IT_number 20
_symmetry_cell_setting 'orthorhombic'
loop_
_space_group_symop_operation_xyz
x,y,z
-x,-y,1/2+z
x,-y,-z
-x,y,1/2-z
1/2+x,1/2+y,z
1/2-x,1/2-y,1/2+z
1/2+x,1/2-y,-z
1/2-x,1/2+y,1/2-z
loop_
_atom_site_type_symbol
_atom_site_label
_atom_site_fract_x
_atom_site_fract_y
_atom_site_fract_z
Si Si1 0.386883 0.324000 0.749387
Si Si2 0.607550 0.098232 0.279909
Si Si3 0.979130 0.688507 0.041474
Si Si4 0.156669 0.130335 0.870183
Si Si5 0.679633 0.351111 0.567799
O O1 0.500000 0.344139 0.750000
O O2 0.348484 0.423617 0.663535
O O3 0.343706 0.420317 0.834982
O O4 0.363436 0.109788 0.759654
O O5 0.500000 0.107794 0.250000
O O6 0.596364 0.142535 0.382072
O O7 0.658203 0.241257 0.217076
O O8 0.062750 0.809857 0.079334
O O9 0.016772 0.500000 0.000000
O O10 0.920406 0.786738 0.967137
O O11 0.246266 0.187940 0.925184
O O12 0.716426 0.500000 0.500000
#
# Coordination Sequence:
#
# PCOD9321535 Si02
#       5
#     8   8   8   8   8
#     4  11  23  45  71 101 135 188 236 287 351 425
#     4   9  20  42  73  96 132 185 235 278 350 423
#     4  11  22  47  72 102 144 189 230 297 362 416
#     4  11  25  45  70 102 144 187 234 292 350 425
#     4  12  26  44  70 106 144 184 241 295 353 425
#
# _framework density 25.046999
#
# number of rings (size 3 to 8) (size 9 to 14) (size 15 to 20)
#    0.000    1.200    2.000    4.800    2.800    0.000 
#    3.600    1.000    0.000    0.000    0.000    0.000 
#    0.000    0.000    0.000    0.000    0.000    0.000 
#
# Total GULP energy -112084.264873 kJ/mol
# GULP energy per Si atom -5604.213244 kJ/mol
# Density = 2.498999 g / cm^3
# Si number density = 25.046999 Si / 1000 Ang^3
#
#
#
# Elastic Constant Matrix: (Units=GPa)
#
#
# Indices 1 2 3 4 5 6 
#
# 1 111.5596 17.9691 31.5561 0.0000 0.0000 0.0000
# 2 17.9691 59.9767 8.9875 0.0000 0.0000 0.0000
# 3 31.5561 8.9875 69.0215 0.0000 0.0000 0.0000
# 4 0.0000 0.0000 0.0000 53.2928 0.0000 0.0000
# 5 0.0000 0.0000 0.0000 0.0000 23.0581 0.0000
# 6 0.0000 0.0000 0.0000 0.0000 0.0000 16.5050
#
#
#
# Elastic Compliance Matrix: (Units=1/GPa)
#
#
# Indices 1 2 3 4 5 6 
#
# 1 0.010654 -0.002511 -0.004544 0.000000 0.000000 0.000000
# 2 -0.002511 0.017597 -0.001143 0.000000 0.000000 0.000000
# 3 -0.004544 -0.001143 0.016714 0.000000 0.000000 0.000000
# 4 0.000000 0.000000 0.000000 0.018764 0.000000 0.000000
# 5 0.000000 0.000000 0.000000 0.000000 0.043369 0.000000
# 6 0.000000 0.000000 0.000000 0.000000 0.000000 0.060588
#
#
# Mechanical properties :
#
#
# Convention : Reuss Voigt Hill
#
# Bulk Modulus (GPa) = 35.00334 39.73147 37.36740
# Shear Modulus (GPa) = 25.82585 30.70752 28.26669
#
# Velocity S-wave (km/s) = 3.21455 3.50522 3.36303
# Velocity P-wave (km/s) = 5.27098 5.68149 5.48008
#
# Compressibility (1/GPa) = 0.02856870
#
# Stress axis : x y z
#
# Youngs Moduli (GPa) = 93.86575 56.82868 59.82831
#
# Poissons Ratio (x) = 0.14269 0.27184
# Poissons Ratio (y) = 0.23569 0.06840
# Poissons Ratio (z) = 0.42650 0.06498
#
# Static dielectric constant tensor:
#      x y z
#    x 1.956530 0.000000 0.000000 
#    y 0.000000 1.998020 0.000000 
#    z 0.000000 0.000000 2.033490 
# 
# From -- ./inp_files/19683.got.cif
#   From: 2010.05.17/outbox.cif.g08.bks.cpg/sg20_10_cif.got.tgz:19683.got - 2010.06.03 22:52:26.
