data_PCOD9321716
_publ_section_title
;
Structure prediction by ZEFSAII (Michael W. Deem and Ramdas Pophale) SiO2 
 PCOD9321716
Probable space group: C 2 2 21
;
_chemical_formula_sum "Si O2"
_cell_formula_units_Z 48
_cell_length_a 25.118206
_cell_length_b 9.032700
_cell_length_c 8.718042
_cell_angle_alpha 90.000000
_cell_angle_beta 90.000000
_cell_angle_gamma 90.000000
_cell_volume 1977.994871
_symmetry_space_group_name_H-M "C 2 2 21"
_symmetry_group_IT_number 20
_symmetry_cell_setting 'orthorhombic'
loop_
_space_group_symop_operation_xyz
x,y,z
-x,-y,1/2+z
x,-y,-z
-x,y,1/2-z
1/2+x,1/2+y,z
1/2-x,1/2-y,1/2+z
1/2+x,1/2-y,-z
1/2-x,1/2+y,1/2-z
loop_
_atom_site_type_symbol
_atom_site_label
_atom_site_fract_x
_atom_site_fract_y
_atom_site_fract_z
Si Si1 0.166622 0.811939 0.621194
Si Si2 0.867466 0.145124 0.431035
Si Si3 0.137973 0.483809 0.678416
Si Si4 0.000000 0.900488 0.250000
Si Si5 0.289641 0.852764 0.596462
Si Si6 0.944900 0.356933 0.571003
Si Si7 0.920210 0.000000 0.000000
O O1 0.153994 0.909979 0.769293
O O2 0.159514 0.650678 0.694940
O O3 0.226911 0.835974 0.575510
O O4 0.120226 0.859322 0.504238
O O5 0.818655 0.208580 0.530536
O O6 0.908326 0.281194 0.441102
O O7 0.894101 0.000000 0.500000
O O8 0.122067 0.500000 0.500000
O O9 0.188542 0.382793 0.730998
O O10 0.091842 0.420115 0.789326
O O11 0.977559 0.781479 0.371002
O O12 0.957256 0.993509 0.151568
O O13 0.306345 0.000000 0.500000
O O14 0.973532 0.500000 0.500000
#
# Coordination Sequence:
#
# PCOD9321716 Si02
#       7
#     8   8   8   4   8   8   4
#     4  12  25  43  69 103 148 189 235 302 355 430
#     4  11  24  42  73 103 145 197 237 289 363 435
#     4  11  24  42  72 104 146 193 242 289 356 437
#     4  12  30  50  78 108 140 194 254 314 392 444
#     4  11  24  44  65 106 152 194 243 287 347 448
#     4  11  24  52  74 104 144 187 246 310 372 445
#     4  12  30  50  72 112 146 186 248 322 374 446
#
# _framework density 24.266999999999999
#
# number of rings (size 3 to 8) (size 9 to 14) (size 15 to 20)
#    0.000    0.667    4.167    3.000    8.167    3.333 
#    0.000    0.000    0.000    0.000    0.000    0.000 
#    0.000    0.000    0.000    0.000    0.000    0.000 
#
# Total GULP energy -133929.286444 kJ/mol
# GULP energy per Si atom -5580.386935 kJ/mol
# Density = 2.421177 g / cm^3
# Si number density = 24.267000 Si / 1000 Ang^3
#
#
#
# Elastic Constant Matrix: (Units=GPa)
#
#
# Indices 1 2 3 4 5 6 
#
# 1 78.0775 22.1276 -1.6411 0.0000 0.0000 0.0000
# 2 22.1276 79.7851 12.4785 0.0000 0.0000 0.0000
# 3 -1.6411 12.4785 45.9220 0.0000 0.0000 0.0000
# 4 0.0000 0.0000 0.0000 46.4251 0.0000 0.0000
# 5 0.0000 0.0000 0.0000 0.0000 24.0185 0.0000
# 6 0.0000 0.0000 0.0000 0.0000 0.0000 17.2909
#
#
#
# Elastic Compliance Matrix: (Units=1/GPa)
#
#
# Indices 1 2 3 4 5 6 
#
# 1 0.014016 -0.004141 0.001626 0.000000 0.000000 0.000000
# 2 -0.004141 0.014314 -0.004038 0.000000 0.000000 0.000000
# 3 0.001626 -0.004038 0.022931 0.000000 0.000000 0.000000
# 4 0.000000 0.000000 0.000000 0.021540 0.000000 0.000000
# 5 0.000000 0.000000 0.000000 0.000000 0.041635 0.000000
# 6 0.000000 0.000000 0.000000 0.000000 0.000000 0.057834
#
#
# Mechanical properties :
#
#
# Convention : Reuss Voigt Hill
#
# Bulk Modulus (GPa) = 26.20870 29.96829 28.08849
# Shear Modulus (GPa) = 25.24065 28.93487 27.08776
#
# Velocity S-wave (km/s) = 3.22859 3.45679 3.34464
# Velocity P-wave (km/s) = 4.97212 5.32060 5.14931
#
# Compressibility (1/GPa) = 0.03815527
#
# Stress axis : x y z
#
# Youngs Moduli (GPa) = 71.34865 69.86297 43.60848
#
# Poissons Ratio (x) = 0.28933 -0.07092
# Poissons Ratio (y) = 0.29549 0.17607
# Poissons Ratio (z) = -0.11603 0.28207
#
# Static dielectric constant tensor:
#      x y z
#    x 1.946800 0.000000 0.000000 
#    y 0.000000 1.984020 0.000000 
#    z 0.000000 0.000000 2.142410 
# 
# From -- ./inp_files/11517.got.cif
#   From: 2010.05.17/outbox.cif.g08.bks.cpg/sg20_6_cif.got.tgz:11517.got - 2010.06.03 22:52:26.
