data_PCOD9321298
_publ_section_title
;
Structure prediction by ZEFSAII (Michael W. Deem and Ramdas Pophale) SiO2 
 PCOD9321298
Probable space group: C 2 2 21
;
_chemical_formula_sum "Si O2"
_cell_formula_units_Z 32
_cell_length_a 12.159718
_cell_length_b 22.064516
_cell_length_c 4.811138
_cell_angle_alpha 90.000000
_cell_angle_beta 90.000000
_cell_angle_gamma 90.000000
_cell_volume 1290.820110
_symmetry_space_group_name_H-M "C 2 2 21"
_symmetry_group_IT_number 20
_symmetry_cell_setting 'orthorhombic'
loop_
_space_group_symop_operation_xyz
x,y,z
-x,-y,1/2+z
x,-y,-z
-x,y,1/2-z
1/2+x,1/2+y,z
1/2-x,1/2-y,1/2+z
1/2+x,1/2-y,-z
1/2-x,1/2+y,1/2-z
loop_
_atom_site_type_symbol
_atom_site_label
_atom_site_fract_x
_atom_site_fract_y
_atom_site_fract_z
Si Si1 0.819195 0.323501 0.193605
Si Si2 0.927618 0.077607 0.483908
Si Si3 0.673791 0.691199 0.305230
Si Si4 0.812512 0.458338 0.228169
O O1 0.707056 0.317866 0.376073
O O2 0.872688 0.258122 0.255734
O O3 0.862309 0.390660 0.261472
O O4 0.787198 0.317863 0.870223
O O5 0.895053 0.136427 0.308683
O O6 0.809996 0.054922 0.603365
O O7 0.000000 0.040705 0.250000
O O8 0.000000 0.091394 0.750000
O O9 0.803033 0.500000 0.500000
O O10 0.872395 0.500000 0.000000
#
# Coordination Sequence:
#
# PCOD9321298 Si02
#       4
#     8   8   8   8
#     4   9  17  31  49  65  83 113 154 198 236 259
#     4  11  21  33  46  65  94 127 158 184 216 265
#     4   9  17  31  49  65  83 113 154 198 236 259
#     4  11  21  33  46  65  94 127 158 184 216 265
#
# _framework density 24.79044
#
# number of rings (size 3 to 8) (size 9 to 14) (size 15 to 20)
#    0.000    2.000    0.000    7.500    0.000    2.000 
#    0.000    2.500    0.000    0.000    0.000    0.000 
#    0.000    4.000    0.000    7.000    0.000    0.000 
#
# Total GULP energy -89213.824199 kJ/mol
# GULP energy per Si atom -5575.864012 kJ/mol
# Density = 2.473402 g / cm^3
# Si number density = 24.790440 Si / 1000 Ang^3
#
#
#
# Elastic Constant Matrix: (Units=GPa)
#
#
# Indices 1 2 3 4 5 6 
#
# 1 28.2150 -2.8327 -3.9367 0.0000 0.0000 0.0000
# 2 -2.8327 215.9678 14.0041 0.0000 0.0000 0.0000
# 3 -3.9367 14.0041 117.1486 0.0000 0.0000 0.0000
# 4 0.0000 0.0000 0.0000 48.6029 0.0000 0.0000
# 5 0.0000 0.0000 0.0000 0.0000 10.4624 0.0000
# 6 0.0000 0.0000 0.0000 0.0000 0.0000 -11.6487
#
#
#
# Elastic Compliance Matrix: (Units=1/GPa)
#
#
# Indices 1 2 3 4 5 6 
#
# 1 0.035642 0.000393 0.001151 0.000000 0.000000 0.000000
# 2 0.000393 0.004671 -0.000545 0.000000 0.000000 0.000000
# 3 0.001151 -0.000545 0.008640 0.000000 0.000000 0.000000
# 4 0.000000 0.000000 0.000000 0.020575 0.000000 0.000000
# 5 0.000000 0.000000 0.000000 0.000000 0.095581 0.000000
# 6 0.000000 0.000000 0.000000 0.000000 0.000000 -0.085846
#
#
# Mechanical properties :
#
#
# Convention : Reuss Voigt Hill
#
# Bulk Modulus (GPa) = 19.62714 41.75566 30.69140
# Shear Modulus (GPa) = 53.05114 33.08976 43.07045
#
# Velocity S-wave (km/s) = 4.63101 3.65743 4.17271
# Velocity P-wave (km/s) = 6.04396 5.89200 5.96847
#
# Compressibility (1/GPa) = 0.05094986
#
# Stress axis : x y z
#
# Youngs Moduli (GPa) = 28.05672 214.09505 115.74066
#
# Poissons Ratio (x) = -0.08411 -0.13319
# Poissons Ratio (y) = -0.01102 0.06310
# Poissons Ratio (z) = -0.03229 0.11672
#
# Static dielectric constant tensor:
#      x y z
#    x 2.001720 0.000000 0.000000 
#    y 0.000000 2.108940 0.000000 
#    z 0.000000 0.000000 1.955350 
# 
# From -- ./inp_files/1713.got.cif
#   From: 2010.05.17/outbox.cif.g08.bks.cpg/sg20_1_cif.got.tgz:1713.got - 2010.06.03 22:52:26.
