data_PCOD9321108
_publ_section_title
;
Structure prediction by ZEFSAII (Michael W. Deem and Ramdas Pophale) SiO2 
 PCOD9321108
Probable space group: C 2 2 21
;
_chemical_formula_sum "Si O2"
_cell_formula_units_Z 44
_cell_length_a 17.188938
_cell_length_b 15.173469
_cell_length_c 9.057559
_cell_angle_alpha 90.000000
_cell_angle_beta 90.000000
_cell_angle_gamma 90.000000
_cell_volume 2362.354659
_symmetry_space_group_name_H-M "C 2 2 21"
_symmetry_group_IT_number 20
_symmetry_cell_setting 'orthorhombic'
loop_
_space_group_symop_operation_xyz
x,y,z
-x,-y,1/2+z
x,-y,-z
-x,y,1/2-z
1/2+x,1/2+y,z
1/2-x,1/2-y,1/2+z
1/2+x,1/2-y,-z
1/2-x,1/2+y,1/2-z
loop_
_atom_site_type_symbol
_atom_site_label
_atom_site_fract_x
_atom_site_fract_y
_atom_site_fract_z
Si Si1 0.940732 0.138803 0.367690
Si Si2 0.537027 0.500000 0.500000
Si Si3 0.078652 0.747107 0.160232
Si Si4 0.713456 0.461114 0.836369
Si Si5 0.812366 0.593642 0.422854
Si Si6 0.334244 0.376838 0.128597
O O1 0.939614 0.186675 0.525280
O O2 0.851916 0.115757 0.327742
O O3 0.000000 0.183235 0.250000
O O4 0.977387 0.042131 0.387423
O O5 0.592688 0.580638 0.543026
O O6 0.118319 0.662655 0.085787
O O7 0.138198 0.793780 0.275728
O O8 0.000000 0.727997 0.250000
O O9 0.786582 0.424937 0.745627
O O10 0.686837 0.545035 0.741106
O O11 0.725438 0.500000 0.000000
O O12 0.830869 0.500000 0.500000
O O13 0.738270 0.632170 0.516058
#
# Coordination Sequence:
#
# PCOD9321108 Si02
#       6
#     8   4   8   8   8   8
#     4  12  22  33  59  98 140 164 196 260 344 418
#     4  12  18  34  60  96 138 162 186 258 350 402
#     4  12  26  41  63  99 130 174 230 276 320 390
#     4  11  20  35  62  97 126 170 209 252 333 414
#     4  10  25  47  64  85 131 182 229 275 325 381
#     4  11  20  38  63  92 133 169 203 267 338 403
#
# _framework density 18.625484
#
# number of rings (size 3 to 8) (size 9 to 14) (size 15 to 20)
#    0.000    0.727    9.091    0.000    2.545    0.000 
#    0.000    5.455    0.000    0.000    0.000    0.000 
#    0.000    0.000    0.000    0.000    0.000    0.000 
#
# Total GULP energy -122624.277258 kJ/mol
# GULP energy per Si atom -5573.830784 kJ/mol
# Density = 1.858309 g / cm^3
# Si number density = 18.625484 Si / 1000 Ang^3
#
#
#
# Elastic Constant Matrix: (Units=GPa)
#
#
# Indices 1 2 3 4 5 6 
#
# 1 64.1135 43.3216 23.9314 0.0000 0.0000 0.0000
# 2 43.3216 67.4020 20.3895 0.0000 0.0000 0.0000
# 3 23.9314 20.3895 86.2632 0.0000 0.0000 0.0000
# 4 0.0000 0.0000 0.0000 14.5201 0.0000 0.0000
# 5 0.0000 0.0000 0.0000 0.0000 38.4880 0.0000
# 6 0.0000 0.0000 0.0000 0.0000 0.0000 29.8362
#
#
#
# Elastic Compliance Matrix: (Units=1/GPa)
#
#
# Indices 1 2 3 4 5 6 
#
# 1 0.028731 -0.017292 -0.003884 0.000000 0.000000 0.000000
# 2 -0.017292 0.026386 -0.001440 0.000000 0.000000 0.000000
# 3 -0.003884 -0.001440 0.013010 0.000000 0.000000 0.000000
# 4 0.000000 0.000000 0.000000 0.068870 0.000000 0.000000
# 5 0.000000 0.000000 0.000000 0.000000 0.025982 0.000000
# 6 0.000000 0.000000 0.000000 0.000000 0.000000 0.033516
#
#
# Mechanical properties :
#
#
# Convention : Reuss Voigt Hill
#
# Bulk Modulus (GPa) = 43.67301 43.67371 43.67336
# Shear Modulus (GPa) = 20.05159 25.24461 22.64810
#
# Velocity S-wave (km/s) = 3.28467 3.68554 3.49086
# Velocity P-wave (km/s) = 6.15502 6.45060 6.30454
#
# Compressibility (1/GPa) = 0.02289744
#
# Stress axis : x y z
#
# Youngs Moduli (GPa) = 34.80579 37.89930 76.86357
#
# Poissons Ratio (x) = 0.65534 0.29850
# Poissons Ratio (y) = 0.60185 0.11065
# Poissons Ratio (z) = 0.13517 0.05456
#
# Static dielectric constant tensor:
#      x y z
#    x 1.675140 0.000000 0.000000 
#    y 0.000000 1.525970 0.000000 
#    z 0.000000 0.000000 1.714980 
# 
# From -- ./inp_files/9278.got.cif
#   From: 2010.05.17/outbox.cif.g08.bks.cpg/sg20_5_cif.got.tgz:9278.got - 2010.06.03 22:52:26.
