data_PCOD9321051
_publ_section_title
;
Structure prediction by ZEFSAII (Michael W. Deem and Ramdas Pophale) SiO2 
 PCOD9321051
Probable space group: C 2 2 21
;
_chemical_formula_sum "Si O2"
_cell_formula_units_Z 32
_cell_length_a 32.844616
_cell_length_b 7.911601
_cell_length_c 5.355312
_cell_angle_alpha 90.000000
_cell_angle_beta 90.000000
_cell_angle_gamma 90.000000
_cell_volume 1391.596550
_symmetry_space_group_name_H-M "C 2 2 21"
_symmetry_group_IT_number 20
_symmetry_cell_setting 'orthorhombic'
loop_
_space_group_symop_operation_xyz
x,y,z
-x,-y,1/2+z
x,-y,-z
-x,y,1/2-z
1/2+x,1/2+y,z
1/2-x,1/2-y,1/2+z
1/2+x,1/2-y,-z
1/2-x,1/2+y,1/2-z
loop_
_atom_site_type_symbol
_atom_site_label
_atom_site_fract_x
_atom_site_fract_y
_atom_site_fract_z
Si Si1 0.624877 0.180295 0.857738
Si Si2 0.751532 0.142159 0.233845
Si Si3 0.675099 0.500000 0.000000
Si Si4 0.546628 0.612828 0.249535
Si Si5 0.821339 0.500000 0.000000
O O1 0.580468 0.243641 0.777552
O O2 0.650787 0.147524 0.606570
O O3 0.647055 0.332755 0.008527
O O4 0.623607 0.000000 0.000000
O O5 0.750733 0.264503 0.474154
O O6 0.792666 0.035364 0.277017
O O7 0.709408 0.045371 0.278256
O O8 0.553045 0.500000 0.500000
O O9 0.500000 0.676484 0.250000
O O10 0.550569 0.500000 0.000000
#
# Coordination Sequence:
#
# PCOD9321051 Si02
#       5
#     8   8   4   8   4
#     4  12  26  48  74 113 148 196 249 309 367 458
#     4  11  24  45  68 104 144 194 250 302 362 430
#     4  11  24  46  76  98 154 198 244 302 382 419
#     4  10  24  49  80 111 149 197 245 301 376 451
#     4  11  26  40  68 104 154 178 258 300 360 433
#
# _framework density 22.995169000000001
#
# number of rings (size 3 to 8) (size 9 to 14) (size 15 to 20)
#    0.000    1.000    3.750    1.500    3.500    5.000 
#    6.750    0.000    0.000    0.000    0.000    0.000 
#    0.000    0.000    0.000    0.000    0.000    0.000 
#
# Total GULP energy -89510.660139 kJ/mol
# GULP energy per Si atom -5594.416259 kJ/mol
# Density = 2.294283 g / cm^3
# Si number density = 22.995169 Si / 1000 Ang^3
#
#
#
# Elastic Constant Matrix: (Units=GPa)
#
#
# Indices 1 2 3 4 5 6 
#
# 1 207.6347 105.9778 49.0392 0.0000 0.0000 0.0000
# 2 105.9778 155.8375 68.9484 0.0000 0.0000 0.0000
# 3 49.0392 68.9484 156.7860 0.0000 0.0000 0.0000
# 4 0.0000 0.0000 0.0000 53.4128 0.0000 0.0000
# 5 0.0000 0.0000 0.0000 0.0000 15.1737 0.0000
# 6 0.0000 0.0000 0.0000 0.0000 0.0000 57.8260
#
#
#
# Elastic Compliance Matrix: (Units=1/GPa)
#
#
# Indices 1 2 3 4 5 6 
#
# 1 0.007379 -0.004962 -0.000126 0.000000 0.000000 0.000000
# 2 -0.004962 0.011304 -0.003419 0.000000 0.000000 0.000000
# 3 -0.000126 -0.003419 0.007921 0.000000 0.000000 0.000000
# 4 0.000000 0.000000 0.000000 0.018722 0.000000 0.000000
# 5 0.000000 0.000000 0.000000 0.000000 0.065903 0.000000
# 6 0.000000 0.000000 0.000000 0.000000 0.000000 0.017293
#
#
# Mechanical properties :
#
#
# Convention : Reuss Voigt Hill
#
# Bulk Modulus (GPa) = 104.27670 107.57657 105.92663
# Shear Modulus (GPa) = 33.61724 45.03535 39.32630
#
# Velocity S-wave (km/s) = 3.82766 4.43026 4.13994
# Velocity P-wave (km/s) = 8.06104 8.54713 8.30764
#
# Compressibility (1/GPa) = 0.00958987
#
# Stress axis : x y z
#
# Youngs Moduli (GPa) = 135.52752 88.46223 126.24649
#
# Poissons Ratio (x) = 0.43897 0.01586
# Poissons Ratio (y) = 0.67252 0.43165
# Poissons Ratio (z) = 0.01703 0.30246
#
# Static dielectric constant tensor:
#      x y z
#    x 1.837920 0.000000 0.000000 
#    y 0.000000 1.985390 0.000000 
#    z 0.000000 0.000000 1.899380 
# 
# From -- ./inp_files/4480.got.cif
#   From: 2010.05.17/outbox.cif.g08.bks.cpg/sg20_3_cif.got.tgz:4480.got - 2010.06.03 22:52:26.
