data_PCOD9321247
_publ_section_title
;
Structure prediction by ZEFSAII (Michael W. Deem and Ramdas Pophale) SiO2 
 PCOD9321247
Probable space group: C 2 2 21
;
_chemical_formula_sum "Si O2"
_cell_formula_units_Z 40
_cell_length_a 15.086667
_cell_length_b 10.773398
_cell_length_c 10.463146
_cell_angle_alpha 90.000000
_cell_angle_beta 90.000000
_cell_angle_gamma 90.000000
_cell_volume 1700.623962
_symmetry_space_group_name_H-M "C 2 2 21"
_symmetry_group_IT_number 20
_symmetry_cell_setting 'orthorhombic'
loop_
_space_group_symop_operation_xyz
x,y,z
-x,-y,1/2+z
x,-y,-z
-x,y,1/2-z
1/2+x,1/2+y,z
1/2-x,1/2-y,1/2+z
1/2+x,1/2-y,-z
1/2-x,1/2+y,1/2-z
loop_
_atom_site_type_symbol
_atom_site_label
_atom_site_fract_x
_atom_site_fract_y
_atom_site_fract_z
Si Si1 0.172105 0.547442 0.275018
Si Si2 0.543322 0.308161 0.954217
Si Si3 0.195177 0.000000 0.000000
Si Si4 0.118609 0.187639 0.634737
Si Si5 0.255662 0.500000 0.000000
Si Si6 0.000000 0.004882 0.750000
Si Si7 0.500000 0.895383 0.250000
O O1 0.162024 0.692703 0.304596
O O2 0.078956 0.480040 0.301485
O O3 0.256987 0.994840 0.124810
O O4 0.200043 0.527538 0.127934
O O5 0.635585 0.374418 0.988482
O O6 0.498591 0.418596 0.872464
O O7 0.544061 0.192208 0.858402
O O8 0.474930 0.278046 0.066880
O O9 0.182780 0.117817 0.535963
O O10 0.087101 0.087372 0.738711
#
# Coordination Sequence:
#
# PCOD9321247 Si02
#       7
#     8   8   4   8   4   4   4
#     4  12  31  52  83 118 177 214 280 339 426 493
#     4  11  24  45  83 111 166 208 274 337 408 496
#     4  12  25  51  84 132 148 226 282 351 401 486
#     4  12  25  48  81 117 164 219 274 338 420 499
#     4  12  29  51  78 128 170 214 282 347 407 490
#     4  11  19  42  74 114 153 215 262 322 402 499
#     4  11  29  56  72 118 169 227 256 338 434 493
#
# _framework density 23.520778
#
# number of rings (size 3 to 8) (size 9 to 14) (size 15 to 20)
#    0.000    0.400    4.000    3.000    5.600    7.200 
#    0.000    0.000    0.000    0.000    0.000    0.000 
#    0.000    0.000    0.000    0.000    0.000    0.000 
#
# Total GULP energy -112015.898050 kJ/mol
# GULP energy per Si atom -5600.794902 kJ/mol
# Density = 2.346724 g / cm^3
# Si number density = 23.520778 Si / 1000 Ang^3
#
#
#
# Elastic Constant Matrix: (Units=GPa)
#
#
# Indices 1 2 3 4 5 6 
#
# 1 138.3846 58.2102 56.2537 0.0000 0.0000 0.0000
# 2 58.2102 125.6026 38.8376 0.0000 0.0000 0.0000
# 3 56.2537 38.8376 133.7617 0.0000 0.0000 0.0000
# 4 0.0000 0.0000 0.0000 33.8933 0.0000 0.0000
# 5 0.0000 0.0000 0.0000 0.0000 50.2661 0.0000
# 6 0.0000 0.0000 0.0000 0.0000 0.0000 40.7521
#
#
#
# Elastic Compliance Matrix: (Units=1/GPa)
#
#
# Indices 1 2 3 4 5 6 
#
# 1 0.010062 -0.003686 -0.003161 0.000000 0.000000 0.000000
# 2 -0.003686 0.010097 -0.001382 0.000000 0.000000 0.000000
# 3 -0.003161 -0.001382 0.009207 0.000000 0.000000 0.000000
# 4 0.000000 0.000000 0.000000 0.029504 0.000000 0.000000
# 5 0.000000 0.000000 0.000000 0.000000 0.019894 0.000000
# 6 0.000000 0.000000 0.000000 0.000000 0.000000 0.024539
#
#
# Mechanical properties :
#
#
# Convention : Reuss Voigt Hill
#
# Bulk Modulus (GPa) = 77.47075 78.26134 77.86604
# Shear Modulus (GPa) = 40.30243 41.27879 40.79061
#
# Velocity S-wave (km/s) = 4.14391 4.19381 4.16894
# Velocity P-wave (km/s) = 7.47694 7.53633 7.50669
#
# Compressibility (1/GPa) = 0.01290810
#
# Stress axis : x y z
#
# Youngs Moduli (GPa) = 99.38773 99.04042 108.61706
#
# Poissons Ratio (x) = 0.36501 0.34338
# Poissons Ratio (y) = 0.36629 0.15007
# Poissons Ratio (z) = 0.31420 0.13684
#
# Static dielectric constant tensor:
#      x y z
#    x 1.884410 0.000000 0.000000 
#    y 0.000000 1.876240 0.000000 
#    z 0.000000 0.000000 1.919090 
# 
# From -- ./inp_files/15607.got.cif
#   From: 2010.05.17/outbox.cif.g08.bks.cpg/sg20_8_cif.got.tgz:15607.got - 2010.06.03 22:52:26.
