data_PCOD9321842
_publ_section_title
;
Structure prediction by ZEFSAII (Michael W. Deem and Ramdas Pophale) SiO2 
 PCOD9321842
Probable space group: C 2 2 21
;
_chemical_formula_sum "Si O2"
_cell_formula_units_Z 56
_cell_length_a 11.987880
_cell_length_b 15.236292
_cell_length_c 13.499857
_cell_angle_alpha 90.000000
_cell_angle_beta 90.000000
_cell_angle_gamma 90.000000
_cell_volume 2465.760223
_symmetry_space_group_name_H-M "C 2 2 21"
_symmetry_group_IT_number 20
_symmetry_cell_setting 'orthorhombic'
loop_
_space_group_symop_operation_xyz
x,y,z
-x,-y,1/2+z
x,-y,-z
-x,y,1/2-z
1/2+x,1/2+y,z
1/2-x,1/2-y,1/2+z
1/2+x,1/2-y,-z
1/2-x,1/2+y,1/2-z
loop_
_atom_site_type_symbol
_atom_site_label
_atom_site_fract_x
_atom_site_fract_y
_atom_site_fract_z
Si Si1 0.114605 0.932111 0.420884
Si Si2 0.000000 0.955288 0.750000
Si Si3 0.227536 0.918353 0.061902
Si Si4 0.000000 0.500509 0.250000
Si Si5 0.455429 0.715026 0.509254
Si Si6 0.603456 0.135748 0.403564
Si Si7 0.164235 0.198819 0.192485
Si Si8 0.201544 0.615477 0.769092
O O1 0.209375 0.886162 0.356403
O O2 0.048947 0.859985 0.483904
O O3 0.162635 0.000000 0.500000
O O4 0.032846 0.982957 0.343282
O O5 0.896554 0.888306 0.731992
O O6 0.151043 0.832660 0.057202
O O7 0.246807 0.936242 0.176033
O O8 0.342972 0.899007 0.005639
O O9 0.176908 0.000000 0.000000
O O10 0.947050 0.561788 0.166245
O O11 0.907768 0.437501 0.297363
O O12 0.507122 0.795522 0.568704
O O13 0.413948 0.731932 0.398324
O O14 0.712256 0.175469 0.347389
O O15 0.174721 0.284327 0.261269
#
# Coordination Sequence:
#
# PCOD9321842 Si02
#       8
#     8   4   8   4   8   8   8   8
#     4  12  25  46  74 111 147 186 254 309 367 436
#     4  12  25  43  80 102 144 200 242 307 373 446
#     4  11  25  48  75 104 148 196 247 300 370 450
#     4  12  27  47  72 106 148 194 240 305 381 444
#     4  11  25  46  74 105 145 194 239 315 369 430
#     4  11  26  47  70 106 144 188 244 302 372 439
#     4  11  26  47  73 107 144 190 250 300 372 445
#     4  12  27  48  74 109 149 194 247 305 375 451
#
# _framework density 22.711048999999999
#
# number of rings (size 3 to 8) (size 9 to 14) (size 15 to 20)
#    0.000    0.571    4.286    2.571   10.000    1.714 
#    0.000    0.000    0.000    0.000    0.000    0.000 
#    0.000    0.000    0.000    0.000    0.000    0.000 
#
# Total GULP energy -156682.947002 kJ/mol
# GULP energy per Si atom -5595.819536 kJ/mol
# Density = 2.265936 g / cm^3
# Si number density = 22.711049 Si / 1000 Ang^3
#
#
#
# Elastic Constant Matrix: (Units=GPa)
#
#
# Indices 1 2 3 4 5 6 
#
# 1 96.9379 29.7151 17.1531 0.0000 0.0000 0.0000
# 2 29.7151 95.1945 -2.5072 0.0000 0.0000 0.0000
# 3 17.1531 -2.5072 38.5457 0.0000 0.0000 0.0000
# 4 0.0000 0.0000 0.0000 37.4436 0.0000 0.0000
# 5 0.0000 0.0000 0.0000 0.0000 24.8918 0.0000
# 6 0.0000 0.0000 0.0000 0.0000 0.0000 34.6699
#
#
#
# Elastic Compliance Matrix: (Units=1/GPa)
#
#
# Indices 1 2 3 4 5 6 
#
# 1 0.012610 -0.004091 -0.005878 0.000000 0.000000 0.000000
# 2 -0.004091 0.011850 0.002591 0.000000 0.000000 0.000000
# 3 -0.005878 0.002591 0.028727 0.000000 0.000000 0.000000
# 4 0.000000 0.000000 0.000000 0.026707 0.000000 0.000000
# 5 0.000000 0.000000 0.000000 0.000000 0.040174 0.000000
# 6 0.000000 0.000000 0.000000 0.000000 0.000000 0.028843
#
#
# Mechanical properties :
#
#
# Convention : Reuss Voigt Hill
#
# Bulk Modulus (GPa) = 26.01946 35.48890 30.75418
# Shear Modulus (GPa) = 28.33227 31.82218 30.07722
#
# Velocity S-wave (km/s) = 3.53584 3.74729 3.64310
# Velocity P-wave (km/s) = 5.30577 5.86371 5.59170
#
# Compressibility (1/GPa) = 0.03843277
#
# Stress axis : x y z
#
# Youngs Moduli (GPa) = 79.30234 84.38762 34.81000
#
# Poissons Ratio (x) = 0.34523 0.20460
# Poissons Ratio (y) = 0.32443 -0.09020
# Poissons Ratio (z) = 0.46611 -0.21867
#
# Static dielectric constant tensor:
#      x y z
#    x 1.840240 0.000000 0.000000 
#    y 0.000000 1.848520 0.000000 
#    z 0.000000 0.000000 1.828780 
# 
# From -- ./inp_files/20088.got.cif
#   From: 2010.05.17/outbox.cif.g08.bks.cpg/sg20_11_cif.got.tgz:20088.got - 2010.06.03 22:52:26.
