data_PCOD9321205
_publ_section_title
;
Structure prediction by ZEFSAII (Michael W. Deem and Ramdas Pophale) SiO2 
 PCOD9321205
Probable space group: C 2 2 21
;
_chemical_formula_sum "Si O2"
_cell_formula_units_Z 40
_cell_length_a 21.614589
_cell_length_b 6.070600
_cell_length_c 12.722450
_cell_angle_alpha 90.000000
_cell_angle_beta 90.000000
_cell_angle_gamma 90.000000
_cell_volume 1669.357498
_symmetry_space_group_name_H-M "C 2 2 21"
_symmetry_group_IT_number 20
_symmetry_cell_setting 'orthorhombic'
loop_
_space_group_symop_operation_xyz
x,y,z
-x,-y,1/2+z
x,-y,-z
-x,y,1/2-z
1/2+x,1/2+y,z
1/2-x,1/2-y,1/2+z
1/2+x,1/2-y,-z
1/2-x,1/2+y,1/2-z
loop_
_atom_site_type_symbol
_atom_site_label
_atom_site_fract_x
_atom_site_fract_y
_atom_site_fract_z
Si Si1 0.680336 0.454839 0.265464
Si Si2 0.303155 0.090242 0.383505
Si Si3 0.913676 0.337770 0.273246
Si Si4 0.897169 0.348203 0.911668
Si Si5 0.979453 0.241357 0.470880
O O1 0.746772 0.531583 0.305541
O O2 0.628584 0.641947 0.269614
O O3 0.654555 0.285703 0.351757
O O4 0.684577 0.344934 0.149465
O O5 0.364946 0.966070 0.347763
O O6 0.288779 0.000000 0.500000
O O7 0.928325 0.506305 0.180099
O O8 0.967452 0.244865 0.346624
O O9 0.866449 0.500000 0.000000
O O10 0.953042 0.231375 0.973941
O O11 0.961494 0.500000 0.500000
O O12 0.949936 0.000000 0.500000
#
# Coordination Sequence:
#
# PCOD9321205 Si02
#       5
#     8   8   8   8   8
#     4  11  25  46  73 116 150 206 265 336 403 491
#     4  11  25  44  75 109 156 201 262 330 411 482
#     4  11  26  49  75 110 157 204 267 329 398 494
#     4  10  27  48  72 109 153 206 266 331 405 482
#     4  11  28  51  77 113 154 211 270 324 406 471
#
# _framework density 23.961313000000001
#
# number of rings (size 3 to 8) (size 9 to 14) (size 15 to 20)
#    0.000    1.200    2.000    0.600   16.800    3.200 
#    0.000    0.000    0.000    0.000    0.000    0.000 
#    0.000    0.000    0.000    0.000    0.000    0.000 
#
# Total GULP energy -111515.152296 kJ/mol
# GULP energy per Si atom -5575.757615 kJ/mol
# Density = 2.390678 g / cm^3
# Si number density = 23.961313 Si / 1000 Ang^3
#
#
#
# Elastic Constant Matrix: (Units=GPa)
#
#
# Indices 1 2 3 4 5 6 
#
# 1 77.4458 18.7408 33.3930 0.0000 0.0000 0.0000
# 2 18.7408 99.2830 27.9210 0.0000 0.0000 0.0000
# 3 33.3930 27.9210 114.9635 0.0000 0.0000 0.0000
# 4 0.0000 0.0000 0.0000 20.0840 0.0000 0.0000
# 5 0.0000 0.0000 0.0000 0.0000 49.8136 0.0000
# 6 0.0000 0.0000 0.0000 0.0000 0.0000 -54.3720
#
#
#
# Elastic Compliance Matrix: (Units=1/GPa)
#
#
# Indices 1 2 3 4 5 6 
#
# 1 0.015032 -0.001728 -0.003947 0.000000 0.000000 0.000000
# 2 -0.001728 0.011009 -0.002172 0.000000 0.000000 0.000000
# 3 -0.003947 -0.002172 0.010372 0.000000 0.000000 0.000000
# 4 0.000000 0.000000 0.000000 0.049791 0.000000 0.000000
# 5 0.000000 0.000000 0.000000 0.000000 0.020075 0.000000
# 6 0.000000 0.000000 0.000000 0.000000 0.000000 -0.018392
#
#
# Mechanical properties :
#
#
# Convention : Reuss Voigt Hill
#
# Bulk Modulus (GPa) = 48.26024 50.20018 49.23021
# Shear Modulus (GPa) = 45.25421 17.21428 31.23425
#
# Velocity S-wave (km/s) = 4.35056 2.68324 3.61436
# Velocity P-wave (km/s) = 6.73952 5.53134 6.16510
#
# Compressibility (1/GPa) = 0.02072099
#
# Stress axis : x y z
#
# Youngs Moduli (GPa) = 66.52452 90.83369 96.41052
#
# Poissons Ratio (x) = 0.15692 0.38051
# Poissons Ratio (y) = 0.11492 0.20940
# Poissons Ratio (z) = 0.26255 0.19729
#
# Static dielectric constant tensor:
#      x y z
#    x 1.906430 0.000000 0.000000 
#    y 0.000000 1.976090 0.000000 
#    z 0.000000 0.000000 1.927900 
# 
# From -- ./inp_files/16864.got.cif
#   From: 2010.05.17/outbox.cif.g08.bks.cpg/sg20_9_cif.got.tgz:16864.got - 2010.06.03 22:52:26.
