data_PCOD9321328
_publ_section_title
;
Structure prediction by ZEFSAII (Michael W. Deem and Ramdas Pophale) SiO2 
 PCOD9321328
Probable space group: C 2 2 21
;
_chemical_formula_sum "Si O2"
_cell_formula_units_Z 48
_cell_length_a 8.995422
_cell_length_b 16.288604
_cell_length_c 17.136229
_cell_angle_alpha 90.000000
_cell_angle_beta 90.000000
_cell_angle_gamma 90.000000
_cell_volume 2510.849399
_symmetry_space_group_name_H-M "C 2 2 21"
_symmetry_group_IT_number 20
_symmetry_cell_setting 'orthorhombic'
loop_
_space_group_symop_operation_xyz
x,y,z
-x,-y,1/2+z
x,-y,-z
-x,y,1/2-z
1/2+x,1/2+y,z
1/2-x,1/2-y,1/2+z
1/2+x,1/2-y,-z
1/2-x,1/2+y,1/2-z
loop_
_atom_site_type_symbol
_atom_site_label
_atom_site_fract_x
_atom_site_fract_y
_atom_site_fract_z
Si Si1 0.920224 0.659508 0.145058
Si Si2 0.856298 0.638009 0.694985
Si Si3 0.337493 0.265971 0.555348
Si Si4 0.190775 0.260431 0.792059
Si Si5 0.651771 0.331752 0.569287
Si Si6 0.853787 0.521782 0.410487
O O1 0.800187 0.676068 0.078754
O O2 0.832357 0.667887 0.226964
O O3 0.039999 0.733330 0.157437
O O4 0.018051 0.580031 0.126472
O O5 0.872502 0.708610 0.629635
O O6 0.726271 0.675005 0.750149
O O7 0.830902 0.555642 0.645719
O O8 0.000000 0.628654 0.750000
O O9 0.487426 0.315437 0.537686
O O10 0.273880 0.207216 0.488668
O O11 0.323702 0.285375 0.848750
O O12 0.703519 0.424527 0.582933
O O13 0.895342 0.500000 0.500000
#
# Coordination Sequence:
#
# PCOD9321328 Si02
#       6
#     8   8   8   8   8   8
#     4   9  21  38  66  90 125 166 213 261 314 388
#     4  11  22  38  66  95 128 170 220 267 318 391
#     4  11  22  40  69  95 124 168 221 264 314 389
#     4   9  19  38  62  90 120 167 216 256 304 379
#     4  11  21  38  64  93 125 168 212 268 320 384
#     4  11  23  40  61  94 136 171 206 267 342 379
#
# _framework density 19.117035000000001
#
# number of rings (size 3 to 8) (size 9 to 14) (size 15 to 20)
#    0.000    1.667    3.333    2.000    4.667    0.000 
#    0.000    0.833   14.667    0.000    0.000    0.000 
#    0.000    0.000    0.000    0.000    0.000    0.000 
#
# Total GULP energy -133731.364695 kJ/mol
# GULP energy per Si atom -5572.140196 kJ/mol
# Density = 1.907352 g / cm^3
# Si number density = 19.117035 Si / 1000 Ang^3
#
#
#
# Elastic Constant Matrix: (Units=GPa)
#
#
# Indices 1 2 3 4 5 6 
#
# 1 99.9751 59.9924 32.4120 0.0000 0.0000 0.0000
# 2 59.9924 95.5633 34.1212 0.0000 0.0000 0.0000
# 3 32.4120 34.1212 84.0293 0.0000 0.0000 0.0000
# 4 0.0000 0.0000 0.0000 39.6862 0.0000 0.0000
# 5 0.0000 0.0000 0.0000 0.0000 31.5927 0.0000
# 6 0.0000 0.0000 0.0000 0.0000 0.0000 24.1802
#
#
#
# Elastic Compliance Matrix: (Units=1/GPa)
#
#
# Indices 1 2 3 4 5 6 
#
# 1 0.016493 -0.009453 -0.002523 0.000000 0.000000 0.000000
# 2 -0.009453 0.017657 -0.003524 0.000000 0.000000 0.000000
# 3 -0.002523 -0.003524 0.014305 0.000000 0.000000 0.000000
# 4 0.000000 0.000000 0.000000 0.025198 0.000000 0.000000
# 5 0.000000 0.000000 0.000000 0.000000 0.031653 0.000000
# 6 0.000000 0.000000 0.000000 0.000000 0.000000 0.041356
#
#
# Mechanical properties :
#
#
# Convention : Reuss Voigt Hill
#
# Bulk Modulus (GPa) = 57.29042 59.17988 58.23515
# Shear Modulus (GPa) = 27.25109 29.29461 28.27285
#
# Velocity S-wave (km/s) = 3.77966 3.91881 3.84986
# Velocity P-wave (km/s) = 7.00579 7.17635 7.09158
#
# Compressibility (1/GPa) = 0.01745493
#
# Stress axis : x y z
#
# Youngs Moduli (GPa) = 60.63169 56.63563 69.90734
#
# Poissons Ratio (x) = 0.53538 0.17639
# Poissons Ratio (y) = 0.57315 0.24632
# Poissons Ratio (z) = 0.15299 0.19956
#
# Static dielectric constant tensor:
#      x y z
#    x 1.693000 0.000000 0.000000 
#    y 0.000000 1.655080 0.000000 
#    z 0.000000 0.000000 1.747820 
# 
# From -- ./inp_files/23610.got.cif
#   From: 2010.05.17/outbox.cif.g08.bks.cpg/sg20_12_cif.got.tgz:23610.got - 2010.06.03 22:52:26.
