data_PCOD9321395
_publ_section_title
;
Structure prediction by ZEFSAII (Michael W. Deem and Ramdas Pophale) SiO2 
 PCOD9321395
Probable space group: C 2 2 21
;
_chemical_formula_sum "Si O2"
_cell_formula_units_Z 48
_cell_length_a 15.496205
_cell_length_b 7.722650
_cell_length_c 18.366081
_cell_angle_alpha 90.000000
_cell_angle_beta 90.000000
_cell_angle_gamma 90.000000
_cell_volume 2197.901376
_symmetry_space_group_name_H-M "C 2 2 21"
_symmetry_group_IT_number 20
_symmetry_cell_setting 'orthorhombic'
loop_
_space_group_symop_operation_xyz
x,y,z
-x,-y,1/2+z
x,-y,-z
-x,y,1/2-z
1/2+x,1/2+y,z
1/2-x,1/2-y,1/2+z
1/2+x,1/2-y,-z
1/2-x,1/2+y,1/2-z
loop_
_atom_site_type_symbol
_atom_site_label
_atom_site_fract_x
_atom_site_fract_y
_atom_site_fract_z
Si Si1 0.907527 0.155858 0.896758
Si Si2 0.600338 0.634079 0.895063
Si Si3 0.234838 0.610676 0.832142
Si Si4 0.101702 0.738391 0.948796
Si Si5 0.227939 0.705955 0.675425
Si Si6 0.091467 0.255159 0.440085
O O1 0.828464 0.198179 0.844189
O O2 0.004785 0.188277 0.869351
O O3 0.907182 0.948656 0.915718
O O4 0.891158 0.250789 0.973748
O O5 0.595785 0.439422 0.925512
O O6 0.677585 0.627632 0.838119
O O7 0.621048 0.756610 0.964874
O O8 0.174246 0.651991 0.900166
O O9 0.194228 0.664855 0.755582
O O10 0.254127 0.408979 0.828917
O O11 0.005203 0.670459 0.932947
O O12 0.162122 0.656232 0.611078
#
# Coordination Sequence:
#
# PCOD9321395 Si02
#       6
#     8   8   8   8   8   8
#     4   8  16  33  56  77  98 132 175 212 252 311
#     4   9  18  35  58  80 101 129 170 217 261 307
#     4  11  22  35  52  76 108 142 176 213 256 307
#     4   9  18  35  58  80 101 129 170 217 261 307
#     4  11  22  35  52  76 108 142 176 213 256 307
#     4   8  16  33  56  77  98 132 175 212 252 311
#
# _framework density 21.839013999999999
#
# number of rings (size 3 to 8) (size 9 to 14) (size 15 to 20)
#    0.000    2.667    0.000    4.000    0.000    3.333 
#    0.000   10.000    0.000    4.000    0.000    0.000 
#    0.000    0.000    0.000    0.000    0.000    0.000 
#
# Total GULP energy -133976.650516 kJ/mol
# GULP energy per Si atom -5582.360438 kJ/mol
# Density = 2.178931 g / cm^3
# Si number density = 21.839014 Si / 1000 Ang^3
#
#
#
# Elastic Constant Matrix: (Units=GPa)
#
#
# Indices 1 2 3 4 5 6 
#
# 1 62.8773 6.5787 19.6918 0.0000 0.0000 0.0000
# 2 6.5787 26.4981 2.0828 0.0000 0.0000 0.0000
# 3 19.6918 2.0828 23.7849 0.0000 0.0000 0.0000
# 4 0.0000 0.0000 0.0000 24.1626 0.0000 0.0000
# 5 0.0000 0.0000 0.0000 0.0000 12.3181 0.0000
# 6 0.0000 0.0000 0.0000 0.0000 0.0000 7.2166
#
#
#
# Elastic Compliance Matrix: (Units=1/GPa)
#
#
# Indices 1 2 3 4 5 6 
#
# 1 0.021892 -0.004038 -0.017771 0.000000 0.000000 0.000000
# 2 -0.004038 0.038745 -0.000049 0.000000 0.000000 0.000000
# 3 -0.017771 -0.000049 0.056761 0.000000 0.000000 0.000000
# 4 0.000000 0.000000 0.000000 0.041386 0.000000 0.000000
# 5 0.000000 0.000000 0.000000 0.000000 0.081181 0.000000
# 6 0.000000 0.000000 0.000000 0.000000 0.000000 0.138570
#
#
# Mechanical properties :
#
#
# Convention : Reuss Voigt Hill
#
# Bulk Modulus (GPa) = 13.57216 18.87409 16.22312
# Shear Modulus (GPa) = 11.19037 14.39326 12.79181
#
# Velocity S-wave (km/s) = 2.26609 2.57001 2.42282
# Velocity P-wave (km/s) = 3.61594 4.17944 3.90786
#
# Compressibility (1/GPa) = 0.07368023
#
# Stress axis : x y z
#
# Youngs Moduli (GPa) = 45.67873 25.80974 17.61783
#
# Poissons Ratio (x) = 0.10423 0.31309
# Poissons Ratio (y) = 0.18447 0.00087
# Poissons Ratio (z) = 0.81176 0.00127
#
# Static dielectric constant tensor:
#      x y z
#    x 1.821050 0.000000 0.000000 
#    y 0.000000 1.847620 0.000000 
#    z 0.000000 0.000000 1.785280 
# 
# From -- ./inp_files/18853.got.cif
#   From: 2010.05.17/outbox.cif.g08.bks.cpg/sg20_10_cif.got.tgz:18853.got - 2010.06.03 22:52:26.
