data_PCOD9321335
_publ_section_title
;
Structure prediction by ZEFSAII (Michael W. Deem and Ramdas Pophale) SiO2 
 PCOD9321335
Probable space group: C 2 2 21
;
_chemical_formula_sum "Si O2"
_cell_formula_units_Z 52
_cell_length_a 17.644413
_cell_length_b 6.998405
_cell_length_c 20.323604
_cell_angle_alpha 90.000000
_cell_angle_beta 90.000000
_cell_angle_gamma 90.000000
_cell_volume 2509.614474
_symmetry_space_group_name_H-M "C 2 2 21"
_symmetry_group_IT_number 20
_symmetry_cell_setting 'orthorhombic'
loop_
_space_group_symop_operation_xyz
x,y,z
-x,-y,1/2+z
x,-y,-z
-x,y,1/2-z
1/2+x,1/2+y,z
1/2-x,1/2-y,1/2+z
1/2+x,1/2-y,-z
1/2-x,1/2+y,1/2-z
loop_
_atom_site_type_symbol
_atom_site_label
_atom_site_fract_x
_atom_site_fract_y
_atom_site_fract_z
Si Si1 0.650405 0.735851 0.806836
Si Si2 0.309047 0.048571 0.430815
Si Si3 0.187681 0.900130 0.731520
Si Si4 0.683673 0.700794 0.616140
Si Si5 0.603695 0.088542 0.655210
Si Si6 0.160618 0.716818 0.523750
Si Si7 0.500000 0.099604 0.250000
O O1 0.645015 0.829001 0.878640
O O2 0.668963 0.511869 0.798139
O O3 0.573216 0.779679 0.769412
O O4 0.724971 0.839942 0.776485
O O5 0.235376 0.180571 0.447791
O O6 0.347238 0.000000 0.500000
O O7 0.270920 0.855094 0.401164
O O8 0.166950 0.050457 0.673542
O O9 0.360023 0.215289 0.786974
O O10 0.641072 0.680120 0.545433
O O11 0.658792 0.908420 0.640776
O O12 0.603373 0.198187 0.585140
O O13 0.525041 0.019491 0.685739
O O14 0.178258 0.500000 0.500000
#
# Coordination Sequence:
#
# PCOD9321335 Si02
#       7
#     8   8   8   8   8   8   4
#     4  11  23  39  63  91 129 170 211 270 317 395
#     4   9  18  37  64  98 123 163 213 283 324 374
#     4  11  22  39  67  90 122 165 222 263 324 375
#     4   9  18  35  63  91 123 150 215 273 311 375
#     4  11  21  39  57  94 126 169 209 261 321 384
#     4   9  17  31  61  94 121 154 213 270 318 370
#     4  12  26  40  56  90 140 168 212 260 328 380
#
# _framework density 20.720313999999998
#
# number of rings (size 3 to 8) (size 9 to 14) (size 15 to 20)
#    0.000    1.846    4.615    0.923    0.000    0.615 
#    0.000    2.308    0.000    0.000    4.000    0.000 
#    0.000    0.000    0.000    0.000    0.000    0.000 
#
# Total GULP energy -144865.672120 kJ/mol
# GULP energy per Si atom -5571.756620 kJ/mol
# Density = 2.067315 g / cm^3
# Si number density = 20.720314 Si / 1000 Ang^3
#
#
#
# Elastic Constant Matrix: (Units=GPa)
#
#
# Indices 1 2 3 4 5 6 
#
# 1 71.8887 24.1167 24.2142 0.0000 0.0000 0.0000
# 2 24.1167 87.4632 29.1784 0.0000 0.0000 0.0000
# 3 24.2142 29.1784 93.6725 0.0000 0.0000 0.0000
# 4 0.0000 0.0000 0.0000 43.1787 0.0000 0.0000
# 5 0.0000 0.0000 0.0000 0.0000 25.1021 0.0000
# 6 0.0000 0.0000 0.0000 0.0000 0.0000 15.6976
#
#
#
# Elastic Compliance Matrix: (Units=1/GPa)
#
#
# Indices 1 2 3 4 5 6 
#
# 1 0.016097 -0.003404 -0.003101 0.000000 0.000000 0.000000
# 2 -0.003404 0.013479 -0.003319 0.000000 0.000000 0.000000
# 3 -0.003101 -0.003319 0.012511 0.000000 0.000000 0.000000
# 4 0.000000 0.000000 0.000000 0.023160 0.000000 0.000000
# 5 0.000000 0.000000 0.000000 0.000000 0.039837 0.000000
# 6 0.000000 0.000000 0.000000 0.000000 0.000000 0.063704
#
#
# Mechanical properties :
#
#
# Convention : Reuss Voigt Hill
#
# Bulk Modulus (GPa) = 44.56363 45.33811 44.95087
# Shear Modulus (GPa) = 25.52136 28.49669 27.00902
#
# Velocity S-wave (km/s) = 3.51338 3.71253 3.61432
# Velocity P-wave (km/s) = 6.16541 6.34867 6.25771
#
# Compressibility (1/GPa) = 0.02243982
#
# Stress axis : x y z
#
# Youngs Moduli (GPa) = 62.12435 74.18872 79.93116
#
# Poissons Ratio (x) = 0.25254 0.24784
# Poissons Ratio (y) = 0.21147 0.26527
# Poissons Ratio (z) = 0.19263 0.24621
#
# Static dielectric constant tensor:
#      x y z
#    x 1.670800 0.000000 0.000000 
#    y 0.000000 1.812500 0.000000 
#    z 0.000000 0.000000 1.864030 
# 
# From -- ./inp_files/29266.got.cif
#   From: 2010.05.17/outbox.cif.g08.bks.cpg/sg20_15_cif.got.tgz:29266.got - 2010.06.03 22:52:26.
