data_PCOD9321886
_publ_section_title
;
Structure prediction by ZEFSAII (Michael W. Deem and Ramdas Pophale) SiO2 
 PCOD9321886
Probable space group: C 2 2 21
;
_chemical_formula_sum "Si O2"
_cell_formula_units_Z 48
_cell_length_a 8.579632
_cell_length_b 13.114165
_cell_length_c 16.348982
_cell_angle_alpha 90.000000
_cell_angle_beta 90.000000
_cell_angle_gamma 90.000000
_cell_volume 1839.500963
_symmetry_space_group_name_H-M "C 2 2 21"
_symmetry_group_IT_number 20
_symmetry_cell_setting 'orthorhombic'
loop_
_space_group_symop_operation_xyz
x,y,z
-x,-y,1/2+z
x,-y,-z
-x,y,1/2-z
1/2+x,1/2+y,z
1/2-x,1/2-y,1/2+z
1/2+x,1/2-y,-z
1/2-x,1/2+y,1/2-z
loop_
_atom_site_type_symbol
_atom_site_label
_atom_site_fract_x
_atom_site_fract_y
_atom_site_fract_z
Si Si1 0.871963 0.372150 0.813614
Si Si2 0.532338 0.594905 0.162331
Si Si3 0.139861 0.933352 0.426520
Si Si4 0.176780 0.402828 0.243200
Si Si5 0.000989 0.286138 0.970584
Si Si6 0.808556 0.271301 0.112383
O O1 0.692150 0.340385 0.832439
O O2 0.840908 0.484496 0.779962
O O3 0.000000 0.326158 0.750000
O O4 0.952119 0.364832 0.901000
O O5 0.500000 0.546123 0.250000
O O6 0.509207 0.504758 0.097855
O O7 0.388292 0.669999 0.146801
O O8 0.244948 0.914172 0.345452
O O9 0.079754 0.823709 0.454426
O O10 0.216979 0.000000 0.500000
O O11 0.260794 0.334811 0.312251
O O12 0.000000 0.359593 0.250000
O O13 0.945228 0.323717 0.058922
O O14 0.177670 0.258229 0.952671
#
# Coordination Sequence:
#
# PCOD9321886 Si02
#       6
#     8   8   8   8   8   8
#     4  11  26  48  74 117 153 205 261 326 392 467
#     4  12  24  47  77 106 155 200 257 319 391 476
#     4  12  28  51  79 113 156 211 269 330 410 477
#     4  11  28  49  79 114 156 211 268 330 396 490
#     4  12  29  46  77 114 157 204 263 332 398 481
#     4  12  28  50  76 117 158 212 262 331 406 478
#
# _framework density 26.094033
#
# number of rings (size 3 to 8) (size 9 to 14) (size 15 to 20)
#    0.000    0.333    3.333    3.500   11.667    0.667 
#    0.000    0.000    0.000    0.000    0.000    0.000 
#    0.000    0.000    0.000    0.000    0.000    0.000 
#
# Total GULP energy -134231.937543 kJ/mol
# GULP energy per Si atom -5592.997398 kJ/mol
# Density = 2.603464 g / cm^3
# Si number density = 26.094033 Si / 1000 Ang^3
#
#
#
# Elastic Constant Matrix: (Units=GPa)
#
#
# Indices 1 2 3 4 5 6 
#
# 1 135.7271 48.6260 65.5256 0.0000 0.0000 0.0000
# 2 48.6260 62.3702 34.5165 0.0000 0.0000 0.0000
# 3 65.5256 34.5165 163.0114 0.0000 0.0000 0.0000
# 4 0.0000 0.0000 0.0000 43.4865 0.0000 0.0000
# 5 0.0000 0.0000 0.0000 0.0000 46.2717 0.0000
# 6 0.0000 0.0000 0.0000 0.0000 0.0000 34.3776
#
#
#
# Elastic Compliance Matrix: (Units=1/GPa)
#
#
# Indices 1 2 3 4 5 6 
#
# 1 0.011434 -0.007217 -0.003068 0.000000 0.000000 0.000000
# 2 -0.007217 0.022716 -0.001909 0.000000 0.000000 0.000000
# 3 -0.003068 -0.001909 0.007772 0.000000 0.000000 0.000000
# 4 0.000000 0.000000 0.000000 0.022996 0.000000 0.000000
# 5 0.000000 0.000000 0.000000 0.000000 0.021611 0.000000
# 6 0.000000 0.000000 0.000000 0.000000 0.000000 0.029089
#
#
# Mechanical properties :
#
#
# Convention : Reuss Voigt Hill
#
# Bulk Modulus (GPa) = 57.02967 73.16055 65.09511
# Shear Modulus (GPa) = 34.28142 38.98988 36.63565
#
# Velocity S-wave (km/s) = 3.62852 3.86969 3.75104
# Velocity P-wave (km/s) = 6.28154 6.93283 6.61521
#
# Compressibility (1/GPa) = 0.01753473
#
# Stress axis : x y z
#
# Youngs Moduli (GPa) = 87.45489 44.02140 128.66531
#
# Poissons Ratio (x) = 0.31769 0.39477
# Poissons Ratio (y) = 0.63114 0.24563
# Poissons Ratio (z) = 0.26833 0.08404
#
# Static dielectric constant tensor:
#      x y z
#    x 2.214680 0.000000 0.000000 
#    y 0.000000 2.013020 0.000000 
#    z 0.000000 0.000000 2.097690 
# 
# From -- ./inp_files/18888.got.cif
#   From: 2010.05.17/outbox.cif.g08.bks.cpg/sg20_10_cif.got.tgz:18888.got - 2010.06.03 22:52:26.
