data_PCOD9321124
_publ_section_title
;
Structure prediction by ZEFSAII (Michael W. Deem and Ramdas Pophale) SiO2 
 PCOD9321124
Probable space group: C 2 2 21
;
_chemical_formula_sum "Si O2"
_cell_formula_units_Z 32
_cell_length_a 17.974370
_cell_length_b 8.444517
_cell_length_c 8.490589
_cell_angle_alpha 90.000000
_cell_angle_beta 90.000000
_cell_angle_gamma 90.000000
_cell_volume 1288.742973
_symmetry_space_group_name_H-M "C 2 2 21"
_symmetry_group_IT_number 20
_symmetry_cell_setting 'orthorhombic'
loop_
_space_group_symop_operation_xyz
x,y,z
-x,-y,1/2+z
x,-y,-z
-x,y,1/2-z
1/2+x,1/2+y,z
1/2-x,1/2-y,1/2+z
1/2+x,1/2-y,-z
1/2-x,1/2+y,1/2-z
loop_
_atom_site_type_symbol
_atom_site_label
_atom_site_fract_x
_atom_site_fract_y
_atom_site_fract_z
Si Si1 0.345353 0.777102 0.179806
Si Si2 0.000000 0.417346 0.250000
Si Si3 0.188052 0.820361 0.025228
Si Si4 0.070715 0.000000 0.500000
Si Si5 0.464318 0.776014 0.599191
O O1 0.410844 0.903306 0.178665
O O2 0.271539 0.815167 0.083664
O O3 0.316394 0.760176 0.356770
O O4 0.380439 0.611034 0.114464
O O5 0.970555 0.348118 0.425701
O O6 0.122416 0.747847 0.132724
O O7 0.163394 0.000000 0.000000
O O8 0.015890 0.121280 0.590145
O O9 0.500000 0.877272 0.750000
#
# Coordination Sequence:
#
# PCOD9321124 Si02
#       5
#     8   4   8   4   8
#     4  12  31  50  82 117 158 211 265 333 402 480
#     4  10  28  52  82 116 154 212 264 334 390 480
#     4  12  29  50  78 117 161 205 267 333 404 472
#     4  12  26  48  82 110 160 210 262 320 404 486
#     4  10  25  49  80 112 156 203 261 328 392 475
#
# _framework density 24.830397000000001
#
# number of rings (size 3 to 8) (size 9 to 14) (size 15 to 20)
#    0.750    0.000    1.250    3.000   15.750    3.000 
#    0.000    0.000    0.000    0.000    0.000    0.000 
#    0.000    0.000    0.000    0.000    0.000    0.000 
#
# Total GULP energy -89333.337538 kJ/mol
# GULP energy per Si atom -5583.333596 kJ/mol
# Density = 2.477388 g / cm^3
# Si number density = 24.830397 Si / 1000 Ang^3
#
#
#
# Elastic Constant Matrix: (Units=GPa)
#
#
# Indices 1 2 3 4 5 6 
#
# 1 247.7957 57.0592 82.6276 0.0000 0.0000 0.0000
# 2 57.0592 114.8795 40.3356 0.0000 0.0000 0.0000
# 3 82.6276 40.3356 117.6029 0.0000 0.0000 0.0000
# 4 0.0000 0.0000 0.0000 43.9275 0.0000 0.0000
# 5 0.0000 0.0000 0.0000 0.0000 90.1292 0.0000
# 6 0.0000 0.0000 0.0000 0.0000 0.0000 41.2663
#
#
#
# Elastic Compliance Matrix: (Units=1/GPa)
#
#
# Indices 1 2 3 4 5 6 
#
# 1 0.005507 -0.001565 -0.003333 0.000000 0.000000 0.000000
# 2 -0.001565 0.010341 -0.002447 0.000000 0.000000 0.000000
# 3 -0.003333 -0.002447 0.011684 0.000000 0.000000 0.000000
# 4 0.000000 0.000000 0.000000 0.022765 0.000000 0.000000
# 5 0.000000 0.000000 0.000000 0.000000 0.011095 0.000000
# 6 0.000000 0.000000 0.000000 0.000000 0.000000 0.024233
#
#
# Mechanical properties :
#
#
# Convention : Reuss Voigt Hill
#
# Bulk Modulus (GPa) = 77.86513 93.36922 85.61717
# Shear Modulus (GPa) = 47.80284 55.08165 51.44224
#
# Velocity S-wave (km/s) = 4.39244 4.71501 4.55658
# Velocity P-wave (km/s) = 7.55987 8.20525 7.88916
#
# Compressibility (1/GPa) = 0.01284272
#
# Stress axis : x y z
#
# Youngs Moduli (GPa) = 181.57895 96.69817 85.58763
#
# Poissons Ratio (x) = 0.15136 0.28522
# Poissons Ratio (y) = 0.28422 0.20945
# Poissons Ratio (z) = 0.60511 0.23663
#
# Static dielectric constant tensor:
#      x y z
#    x 1.897590 0.000000 0.000000 
#    y 0.000000 2.000610 0.000000 
#    z 0.000000 0.000000 1.961270 
# 
# From -- ./inp_files/6821.got.cif
#   From: 2010.05.17/outbox.cif.g08.bks.cpg/sg20_4_cif.got.tgz:6821.got - 2010.06.03 22:52:26.
