data_PCOD9321991
_publ_section_title
;
Structure prediction by ZEFSAII (Michael W. Deem and Ramdas Pophale) SiO2 
 PCOD9321991
Probable space group: C 2 2 21
;
_chemical_formula_sum "Si O2"
_cell_formula_units_Z 20
_cell_length_a 13.139412
_cell_length_b 13.904946
_cell_length_c 5.023547
_cell_angle_alpha 90.000000
_cell_angle_beta 90.000000
_cell_angle_gamma 90.000000
_cell_volume 917.816175
_symmetry_space_group_name_H-M "C 2 2 21"
_symmetry_group_IT_number 20
_symmetry_cell_setting 'orthorhombic'
loop_
_space_group_symop_operation_xyz
x,y,z
-x,-y,1/2+z
x,-y,-z
-x,y,1/2-z
1/2+x,1/2+y,z
1/2-x,1/2-y,1/2+z
1/2+x,1/2-y,-z
1/2-x,1/2+y,1/2-z
loop_
_atom_site_type_symbol
_atom_site_label
_atom_site_fract_x
_atom_site_fract_y
_atom_site_fract_z
Si Si1 0.211730 0.195114 0.947576
Si Si2 0.822775 0.500000 0.000000
Si Si3 0.000000 0.258556 0.750000
Si Si4 0.500000 0.100356 0.750000
O O1 0.280059 0.235413 0.703585
O O2 0.098956 0.196677 0.823705
O O3 0.252499 0.092509 0.045097
O O4 0.901069 0.467521 0.230273
O O5 0.012556 0.330006 0.501668
#
# Coordination Sequence:
#
# PCOD9321991 Si02
#       4
#     8   4   4   4
#     4  12  26  46  74 109 153 196 249 314 379 445
#     4  12  26  46  78 116 144 202 252 322 364 462
#     4  12  23  50  69 112 152 204 235 324 375 458
#     4  12  25  42  79 108 148 188 269 302 377 434
#
# _framework density 21.790856000000002
#
# number of rings (size 3 to 8) (size 9 to 14) (size 15 to 20)
#    0.000    0.000    8.000    1.200    0.000    4.800 
#    0.000    6.000    0.000    0.000    0.000    0.000 
#    0.000    0.000    0.000    0.000    0.000    0.000 
#
# Total GULP energy -55916.868498 kJ/mol
# GULP energy per Si atom -5591.686850 kJ/mol
# Density = 2.174126 g / cm^3
# Si number density = 21.790856 Si / 1000 Ang^3
#
#
#
# Elastic Constant Matrix: (Units=GPa)
#
#
# Indices 1 2 3 4 5 6 
#
# 1 157.1442 85.2075 25.3874 0.0000 0.0000 0.0000
# 2 85.2075 143.6675 36.4001 0.0000 0.0000 0.0000
# 3 25.3874 36.4001 130.6127 0.0000 0.0000 0.0000
# 4 0.0000 0.0000 0.0000 28.3515 0.0000 0.0000
# 5 0.0000 0.0000 0.0000 0.0000 34.4889 0.0000
# 6 0.0000 0.0000 0.0000 0.0000 0.0000 53.1283
#
#
#
# Elastic Compliance Matrix: (Units=1/GPa)
#
#
# Indices 1 2 3 4 5 6 
#
# 1 0.009391 -0.005495 -0.000294 0.000000 0.000000 0.000000
# 2 -0.005495 0.010705 -0.001915 0.000000 0.000000 0.000000
# 3 -0.000294 -0.001915 0.008247 0.000000 0.000000 0.000000
# 4 0.000000 0.000000 0.000000 0.035272 0.000000 0.000000
# 5 0.000000 0.000000 0.000000 0.000000 0.028995 0.000000
# 6 0.000000 0.000000 0.000000 0.000000 0.000000 0.018822
#
#
# Mechanical properties :
#
#
# Convention : Reuss Voigt Hill
#
# Bulk Modulus (GPa) = 77.31390 80.60161 78.95775
# Shear Modulus (GPa) = 38.12407 42.15570 40.13989
#
# Velocity S-wave (km/s) = 4.18729 4.40313 4.29657
# Velocity P-wave (km/s) = 7.67691 7.93216 7.80558
#
# Compressibility (1/GPa) = 0.01293428
#
# Stress axis : x y z
#
# Youngs Moduli (GPa) = 106.48971 93.41631 121.25487
#
# Poissons Ratio (x) = 0.51332 0.03563
# Poissons Ratio (y) = 0.58516 0.23223
# Poissons Ratio (z) = 0.03130 0.17891
#
# Static dielectric constant tensor:
#      x y z
#    x 1.869380 0.000000 0.000000 
#    y 0.000000 1.802610 0.000000 
#    z 0.000000 0.000000 1.787240 
# 
# From -- ./inp_files/788.got.cif
#   From: 2010.05.17/outbox.cif.g08.bks.cpg/sg20_1_cif.got.tgz:788.got - 2010.06.03 22:52:26.
