data_PCOD9321120
_publ_section_title
;
Structure prediction by ZEFSAII (Michael W. Deem and Ramdas Pophale) SiO2 
 PCOD9321120
Probable space group: C 2 2 21
;
_chemical_formula_sum "Si O2"
_cell_formula_units_Z 24
_cell_length_a 10.615088
_cell_length_b 18.010698
_cell_length_c 5.236509
_cell_angle_alpha 90.000000
_cell_angle_beta 90.000000
_cell_angle_gamma 90.000000
_cell_volume 1001.142728
_symmetry_space_group_name_H-M "C 2 2 21"
_symmetry_group_IT_number 20
_symmetry_cell_setting 'orthorhombic'
loop_
_space_group_symop_operation_xyz
x,y,z
-x,-y,1/2+z
x,-y,-z
-x,y,1/2-z
1/2+x,1/2+y,z
1/2-x,1/2-y,1/2+z
1/2+x,1/2-y,-z
1/2-x,1/2+y,1/2-z
loop_
_atom_site_type_symbol
_atom_site_label
_atom_site_fract_x
_atom_site_fract_y
_atom_site_fract_z
Si Si1 0.243421 0.920957 0.141443
Si Si2 0.085815 0.000000 0.500000
Si Si3 0.829159 0.769304 0.479849
Si Si4 0.500000 0.162851 0.750000
O O1 0.180718 0.934602 0.417624
O O2 0.383078 0.887530 0.163660
O O3 0.156367 0.858032 0.013243
O O4 0.247989 0.000000 0.000000
O O5 0.000000 0.011079 0.250000
O O6 0.765514 0.750906 0.210384
O O7 0.949240 0.718599 0.533311
#
# Coordination Sequence:
#
# PCOD9321120 Si02
#       4
#     8   4   8   4
#     4  11  27  48  84 122 158 211 275 333 407 464
#     4  12  28  52  74 118 164 208 262 328 402 482
#     4  10  25  48  73 114 164 209 251 319 413 479
#     4  10  26  50  82 118 170 202 274 336 402 484
#
# _framework density 23.972605999999999
#
# number of rings (size 3 to 8) (size 9 to 14) (size 15 to 20)
#    0.000    1.333    1.667    0.000   11.667    8.000 
#   12.000    0.000    0.000    0.000    0.000    0.000 
#    0.000    0.000    0.000    0.000    0.000    0.000 
#
# Total GULP energy -67131.981045 kJ/mol
# GULP energy per Si atom -5594.331754 kJ/mol
# Density = 2.391804 g / cm^3
# Si number density = 23.972606 Si / 1000 Ang^3
#
#
#
# Elastic Constant Matrix: (Units=GPa)
#
#
# Indices 1 2 3 4 5 6 
#
# 1 161.0575 60.4325 56.3300 0.0000 0.0000 0.0000
# 2 60.4325 200.0526 55.7176 0.0000 0.0000 0.0000
# 3 56.3300 55.7176 118.0214 0.0000 0.0000 0.0000
# 4 0.0000 0.0000 0.0000 54.3650 0.0000 0.0000
# 5 0.0000 0.0000 0.0000 0.0000 40.3973 0.0000
# 6 0.0000 0.0000 0.0000 0.0000 0.0000 58.9457
#
#
#
# Elastic Compliance Matrix: (Units=1/GPa)
#
#
# Indices 1 2 3 4 5 6 
#
# 1 0.007838 -0.001527 -0.003020 0.000000 0.000000 0.000000
# 2 -0.001527 0.006053 -0.002129 0.000000 0.000000 0.000000
# 3 -0.003020 -0.002129 0.010920 0.000000 0.000000 0.000000
# 4 0.000000 0.000000 0.000000 0.018394 0.000000 0.000000
# 5 0.000000 0.000000 0.000000 0.000000 0.024754 0.000000
# 6 0.000000 0.000000 0.000000 0.000000 0.000000 0.016965
#
#
# Mechanical properties :
#
#
# Convention : Reuss Voigt Hill
#
# Bulk Modulus (GPa) = 87.26797 91.56575 89.41686
# Shear Modulus (GPa) = 48.97406 51.18502 50.07954
#
# Velocity S-wave (km/s) = 4.52477 4.62578 4.57555
# Velocity P-wave (km/s) = 7.98625 8.17370 8.08052
#
# Compressibility (1/GPa) = 0.01145896
#
# Stress axis : x y z
#
# Youngs Moduli (GPa) = 127.58143 165.21395 91.57804
#
# Poissons Ratio (x) = 0.25221 0.27660
# Poissons Ratio (y) = 0.19476 0.19496
# Poissons Ratio (z) = 0.38534 0.35172
#
# Static dielectric constant tensor:
#      x y z
#    x 1.968050 0.000000 0.000000 
#    y 0.000000 1.951850 0.000000 
#    z 0.000000 0.000000 1.948090 
# 
# From -- ./inp_files/883.got.cif
#   From: 2010.05.17/outbox.cif.g08.bks.cpg/sg20_1_cif.got.tgz:883.got - 2010.06.03 22:52:26.
