data_PCOD9321715
_publ_section_title
;
Structure prediction by ZEFSAII (Michael W. Deem and Ramdas Pophale) SiO2 
 PCOD9321715
Probable space group: C 2 2 21
;
_chemical_formula_sum "Si O2"
_cell_formula_units_Z 40
_cell_length_a 7.761590
_cell_length_b 12.718190
_cell_length_c 17.715596
_cell_angle_alpha 90.000000
_cell_angle_beta 90.000000
_cell_angle_gamma 90.000000
_cell_volume 1748.766295
_symmetry_space_group_name_H-M "C 2 2 21"
_symmetry_group_IT_number 20
_symmetry_cell_setting 'orthorhombic'
loop_
_space_group_symop_operation_xyz
x,y,z
-x,-y,1/2+z
x,-y,-z
-x,y,1/2-z
1/2+x,1/2+y,z
1/2-x,1/2-y,1/2+z
1/2+x,1/2-y,-z
1/2-x,1/2+y,1/2-z
loop_
_atom_site_type_symbol
_atom_site_label
_atom_site_fract_x
_atom_site_fract_y
_atom_site_fract_z
Si Si1 0.998750 0.000000 0.000000
Si Si2 0.645096 0.782548 0.191094
Si Si3 0.812441 0.952193 0.653240
Si Si4 0.545379 0.898245 0.553802
Si Si5 0.253955 0.187560 0.527630
Si Si6 0.500000 0.627105 0.750000
O O1 0.110172 0.960771 0.930530
O O2 0.886632 0.096314 0.969095
O O3 0.500000 0.823081 0.250000
O O4 0.630325 0.656672 0.189575
O O5 0.628422 0.818460 0.103383
O O6 0.845152 0.808559 0.210913
O O7 0.609533 0.939054 0.634925
O O8 0.888629 0.050555 0.696434
O O9 0.361291 0.841642 0.546922
O O10 0.668762 0.802050 0.527286
O O11 0.538805 0.000000 0.500000
#
# Coordination Sequence:
#
# PCOD9321715 Si02
#       6
#     4   8   8   8   8   4
#     4  12  22  46  80 104 150 186 242 314 368 430
#     4  11  26  48  73 107 149 200 248 300 370 451
#     4  11  25  48  72 107 145 191 244 311 365 436
#     4  11  24  42  70 104 143 183 239 305 369 428
#     4  11  24  44  68 111 140 191 245 302 373 438
#     4  12  26  50  76 104 152 200 246 298 376 448
#
# _framework density 22.873266000000001
#
# number of rings (size 3 to 8) (size 9 to 14) (size 15 to 20)
#    0.000    0.800    5.000    2.400    2.800    0.000 
#    9.000    0.000    0.000    0.000    0.000    0.000 
#    0.000    0.000    0.000    0.000    0.000    0.000 
#
# Total GULP energy -111652.197303 kJ/mol
# GULP energy per Si atom -5582.609865 kJ/mol
# Density = 2.282121 g / cm^3
# Si number density = 22.873266 Si / 1000 Ang^3
#
#
#
# Elastic Constant Matrix: (Units=GPa)
#
#
# Indices 1 2 3 4 5 6 
#
# 1 75.2444 28.8286 9.8069 0.0000 0.0000 0.0000
# 2 28.8286 139.3211 20.1551 0.0000 0.0000 0.0000
# 3 9.8069 20.1551 48.2997 0.0000 0.0000 0.0000
# 4 0.0000 0.0000 0.0000 25.8346 0.0000 0.0000
# 5 0.0000 0.0000 0.0000 0.0000 29.9646 0.0000
# 6 0.0000 0.0000 0.0000 0.0000 0.0000 27.4581
#
#
#
# Elastic Compliance Matrix: (Units=1/GPa)
#
#
# Indices 1 2 3 4 5 6 
#
# 1 0.014582 -0.002755 -0.001811 0.000000 0.000000 0.000000
# 2 -0.002755 0.008159 -0.002845 0.000000 0.000000 0.000000
# 3 -0.001811 -0.002845 0.022259 0.000000 0.000000 0.000000
# 4 0.000000 0.000000 0.000000 0.038708 0.000000 0.000000
# 5 0.000000 0.000000 0.000000 0.000000 0.033373 0.000000
# 6 0.000000 0.000000 0.000000 0.000000 0.000000 0.036419
#
#
# Mechanical properties :
#
#
# Convention : Reuss Voigt Hill
#
# Bulk Modulus (GPa) = 33.13788 42.27181 37.70485
# Shear Modulus (GPa) = 28.02970 30.25644 29.14307
#
# Velocity S-wave (km/s) = 3.50442 3.64096 3.57334
# Velocity P-wave (km/s) = 5.55821 6.01635 5.79181
#
# Compressibility (1/GPa) = 0.03017694
#
# Stress axis : x y z
#
# Youngs Moduli (GPa) = 68.57918 122.55753 44.92534
#
# Poissons Ratio (x) = 0.33768 0.08136
# Poissons Ratio (y) = 0.18896 0.12783
# Poissons Ratio (z) = 0.12419 0.34873
#
# Static dielectric constant tensor:
#      x y z
#    x 1.957690 0.000000 0.000000 
#    y 0.000000 1.863830 0.000000 
#    z 0.000000 0.000000 1.911760 
# 
# From -- ./inp_files/23217.got.cif
#   From: 2010.05.17/outbox.cif.g08.bks.cpg/sg20_12_cif.got.tgz:23217.got - 2010.06.03 22:52:26.
