data_PCOD9321972
_publ_section_title
;
Structure prediction by ZEFSAII (Michael W. Deem and Ramdas Pophale) SiO2 
 PCOD9321972
Probable space group: C 2 2 21
;
_chemical_formula_sum "Si O2"
_cell_formula_units_Z 40
_cell_length_a 26.505718
_cell_length_b 7.162469
_cell_length_c 9.667551
_cell_angle_alpha 90.000000
_cell_angle_beta 90.000000
_cell_angle_gamma 90.000000
_cell_volume 1835.349595
_symmetry_space_group_name_H-M "C 2 2 21"
_symmetry_group_IT_number 20
_symmetry_cell_setting 'orthorhombic'
loop_
_space_group_symop_operation_xyz
x,y,z
-x,-y,1/2+z
x,-y,-z
-x,y,1/2-z
1/2+x,1/2+y,z
1/2-x,1/2-y,1/2+z
1/2+x,1/2-y,-z
1/2-x,1/2+y,1/2-z
loop_
_atom_site_type_symbol
_atom_site_label
_atom_site_fract_x
_atom_site_fract_y
_atom_site_fract_z
Si Si1 0.783043 0.343554 0.394501
Si Si2 0.544918 0.000000 0.000000
Si Si3 0.102314 0.924886 0.344299
Si Si4 0.000000 0.267382 0.750000
Si Si5 0.883503 0.828810 0.590812
Si Si6 0.315376 0.899022 0.852757
O O1 0.763802 0.500000 0.500000
O O2 0.828133 0.226685 0.463860
O O3 0.737096 0.214604 0.351527
O O4 0.809653 0.448162 0.266953
O O5 0.580371 0.846841 0.073352
O O6 0.513309 0.104342 0.118020
O O7 0.139761 0.748373 0.330849
O O8 0.047706 0.858117 0.292050
O O9 0.100872 0.000000 0.500000
O O10 0.120575 0.091015 0.244644
O O11 0.903803 0.000000 0.500000
O O12 0.321452 0.000000 0.000000
#
# Coordination Sequence:
#
# PCOD9321972 Si02
#       6
#     8   4   8   4   8   8
#     4  12  23  42  73 105 145 191 236 294 361 437
#     4  12  28  50  76 110 142 192 248 310 372 440
#     4  12  28  47  73 106 149 195 246 309 372 438
#     4  12  30  48  76 106 140 198 246 310 374 430
#     4  12  24  49  74 109 146 187 245 300 365 439
#     4  12  25  45  69 109 150 194 242 298 370 438
#
# _framework density 21.794212000000002
#
# number of rings (size 3 to 8) (size 9 to 14) (size 15 to 20)
#    0.000    0.000    3.000    7.200    7.000    0.000 
#    0.000    0.000    0.000    0.000    0.000    0.000 
#    0.000    0.000    0.000    0.000    0.000    0.000 
#
# Total GULP energy -112094.294368 kJ/mol
# GULP energy per Si atom -5604.714718 kJ/mol
# Density = 2.174461 g / cm^3
# Si number density = 21.794212 Si / 1000 Ang^3
#
#
#
# Elastic Constant Matrix: (Units=GPa)
#
#
# Indices 1 2 3 4 5 6 
#
# 1 107.4401 34.5612 -10.1632 0.0000 0.0000 0.0000
# 2 34.5612 115.6334 26.3091 0.0000 0.0000 0.0000
# 3 -10.1632 26.3091 100.8595 0.0000 0.0000 0.0000
# 4 0.0000 0.0000 0.0000 50.2023 0.0000 0.0000
# 5 0.0000 0.0000 0.0000 0.0000 17.7120 0.0000
# 6 0.0000 0.0000 0.0000 0.0000 0.0000 23.8302
#
#
#
# Elastic Compliance Matrix: (Units=1/GPa)
#
#
# Indices 1 2 3 4 5 6 
#
# 1 0.010674 -0.003652 0.002028 0.000000 0.000000 0.000000
# 2 -0.003652 0.010443 -0.003092 0.000000 0.000000 0.000000
# 3 0.002028 -0.003092 0.010926 0.000000 0.000000 0.000000
# 4 0.000000 0.000000 0.000000 0.019919 0.000000 0.000000
# 5 0.000000 0.000000 0.000000 0.000000 0.056459 0.000000
# 6 0.000000 0.000000 0.000000 0.000000 0.000000 0.041964
#
#
# Mechanical properties :
#
#
# Convention : Reuss Voigt Hill
#
# Bulk Modulus (GPa) = 44.22538 47.26079 45.74309
# Shear Modulus (GPa) = 29.87696 36.56396 33.22046
#
# Velocity S-wave (km/s) = 3.70654 4.10041 3.90844
# Velocity P-wave (km/s) = 6.21725 6.64454 6.43444
#
# Compressibility (1/GPa) = 0.02261145
#
# Stress axis : x y z
#
# Youngs Moduli (GPa) = 93.68503 95.75802 91.52734
#
# Poissons Ratio (x) = 0.34969 -0.18563
# Poissons Ratio (y) = 0.34212 0.28300
# Poissons Ratio (z) = -0.19001 0.29609
#
# Static dielectric constant tensor:
#      x y z
#    x 1.736100 0.000000 0.000000 
#    y 0.000000 1.954830 0.000000 
#    z 0.000000 0.000000 1.818910 
# 
# From -- ./inp_files/16885.got.cif
#   From: 2010.05.17/outbox.cif.g08.bks.cpg/sg20_9_cif.got.tgz:16885.got - 2010.06.03 22:52:26.
