data_PCOD9321818
_publ_section_title
;
Structure prediction by ZEFSAII (Michael W. Deem and Ramdas Pophale) SiO2 
 PCOD9321818
Probable space group: C 2 2 21
;
_chemical_formula_sum "Si O2"
_cell_formula_units_Z 56
_cell_length_a 20.309606
_cell_length_b 14.276501
_cell_length_c 9.225338
_cell_angle_alpha 90.000000
_cell_angle_beta 90.000000
_cell_angle_gamma 90.000000
_cell_volume 2674.887771
_symmetry_space_group_name_H-M "C 2 2 21"
_symmetry_group_IT_number 20
_symmetry_cell_setting 'orthorhombic'
loop_
_space_group_symop_operation_xyz
x,y,z
-x,-y,1/2+z
x,-y,-z
-x,y,1/2-z
1/2+x,1/2+y,z
1/2-x,1/2-y,1/2+z
1/2+x,1/2-y,-z
1/2-x,1/2+y,1/2-z
loop_
_atom_site_type_symbol
_atom_site_label
_atom_site_fract_x
_atom_site_fract_y
_atom_site_fract_z
Si Si1 0.999145 0.099469 0.422656
Si Si2 0.789122 0.137334 0.745542
Si Si3 0.191849 0.527823 0.338677
Si Si4 0.064971 0.563520 0.145404
Si Si5 0.786964 0.195033 0.298941
Si Si6 0.611959 0.730038 0.955427
Si Si7 0.854957 0.109696 0.034630
O O1 0.945613 0.174843 0.465585
O O2 0.000000 0.084785 0.250000
O O3 0.069424 0.138522 0.476671
O O4 0.986707 0.000000 0.500000
O O5 0.740355 0.220524 0.703921
O O6 0.856998 0.159088 0.663462
O O7 0.750329 0.042699 0.710801
O O8 0.806072 0.149558 0.914470
O O9 0.170894 0.500000 0.500000
O O10 0.129429 0.525810 0.232099
O O11 0.226077 0.629673 0.344306
O O12 0.085647 0.670493 0.102677
O O13 0.000000 0.562236 0.250000
O O14 0.054895 0.500000 0.000000
O O15 0.829679 0.238546 0.427360
O O16 0.831971 0.132094 0.195448
O O17 0.854405 0.000000 0.000000
#
# Coordination Sequence:
#
# PCOD9321818 Si02
#       7
#     8   8   8   8   8   8   8
#     4  11  27  45  70 104 147 191 235 294 372 450
#     4  12  26  42  73 107 145 190 243 305 368 436
#     4  12  26  46  76 109 153 192 243 314 373 452
#     4  12  30  56  80 107 149 205 263 315 375 449
#     4  12  24  45  69 110 142 189 246 293 377 428
#     4  12  27  46  74 108 146 190 247 306 367 446
#     4  11  25  43  69 102 146 192 239 293 369 445
#
# _framework density 20.935457
#
# number of rings (size 3 to 8) (size 9 to 14) (size 15 to 20)
#    0.000    0.286    5.714    2.143   10.000    0.571 
#    2.571    0.000    0.000    0.000    0.000    0.000 
#    0.000    0.000    0.000    0.000    0.000    0.000 
#
# Total GULP energy -156456.816296 kJ/mol
# GULP energy per Si atom -5587.743439 kJ/mol
# Density = 2.088781 g / cm^3
# Si number density = 20.935457 Si / 1000 Ang^3
#
#
#
# Elastic Constant Matrix: (Units=GPa)
#
#
# Indices 1 2 3 4 5 6 
#
# 1 120.6920 59.1919 62.0198 0.0000 0.0000 0.0000
# 2 59.1919 97.9378 41.0111 0.0000 0.0000 0.0000
# 3 62.0198 41.0111 127.8924 0.0000 0.0000 0.0000
# 4 0.0000 0.0000 0.0000 28.4261 0.0000 0.0000
# 5 0.0000 0.0000 0.0000 0.0000 43.5169 0.0000
# 6 0.0000 0.0000 0.0000 0.0000 0.0000 31.9755
#
#
#
# Elastic Compliance Matrix: (Units=1/GPa)
#
#
# Indices 1 2 3 4 5 6 
#
# 1 0.013813 -0.006403 -0.004645 0.000000 0.000000 0.000000
# 2 -0.006403 0.014763 -0.001629 0.000000 0.000000 0.000000
# 3 -0.004645 -0.001629 0.010594 0.000000 0.000000 0.000000
# 4 0.000000 0.000000 0.000000 0.035179 0.000000 0.000000
# 5 0.000000 0.000000 0.000000 0.000000 0.022980 0.000000
# 6 0.000000 0.000000 0.000000 0.000000 0.000000 0.031274
#
#
# Mechanical properties :
#
#
# Convention : Reuss Voigt Hill
#
# Bulk Modulus (GPa) = 72.38314 74.55197 73.46756
# Shear Modulus (GPa) = 31.53362 33.07032 32.30197
#
# Velocity S-wave (km/s) = 3.88523 3.97877 3.93228
# Velocity P-wave (km/s) = 7.40109 7.53626 7.46898
#
# Compressibility (1/GPa) = 0.01381537
#
# Stress axis : x y z
#
# Youngs Moduli (GPa) = 72.39637 67.73900 94.39359
#
# Poissons Ratio (x) = 0.43374 0.43847
# Poissons Ratio (y) = 0.46356 0.15374
# Poissons Ratio (z) = 0.33629 0.11033
#
# Static dielectric constant tensor:
#      x y z
#    x 1.741600 0.000000 0.000000 
#    y 0.000000 1.781160 0.000000 
#    z 0.000000 0.000000 1.786220 
# 
# From -- ./inp_files/10232.got.cif
#   From: 2010.05.17/outbox.cif.g08.bks.cpg/sg20_6_cif.got.tgz:10232.got - 2010.06.03 22:52:26.
