data_PCOD9321083
_publ_section_title
;
Structure prediction by ZEFSAII (Michael W. Deem and Ramdas Pophale) SiO2 
 PCOD9321083
Probable space group: C 2 2 21
;
_chemical_formula_sum "Si O2"
_cell_formula_units_Z 36
_cell_length_a 5.283312
_cell_length_b 24.227643
_cell_length_c 13.009983
_cell_angle_alpha 90.000000
_cell_angle_beta 90.000000
_cell_angle_gamma 90.000000
_cell_volume 1665.306407
_symmetry_space_group_name_H-M "C 2 2 21"
_symmetry_group_IT_number 20
_symmetry_cell_setting 'orthorhombic'
loop_
_space_group_symop_operation_xyz
x,y,z
-x,-y,1/2+z
x,-y,-z
-x,y,1/2-z
1/2+x,1/2+y,z
1/2-x,1/2-y,1/2+z
1/2+x,1/2-y,-z
1/2-x,1/2+y,1/2-z
loop_
_atom_site_type_symbol
_atom_site_label
_atom_site_fract_x
_atom_site_fract_y
_atom_site_fract_z
Si Si1 0.923565 0.094556 0.595215
Si Si2 0.500000 0.307519 0.250000
Si Si3 0.414685 0.976038 0.386651
Si Si4 0.000000 0.422994 0.750000
Si Si5 0.402814 0.370969 0.639529
Si Si6 0.000000 0.234157 0.250000
O O1 0.673611 0.059426 0.626380
O O2 0.944442 0.103459 0.471606
O O3 0.937502 0.152605 0.653876
O O4 0.174177 0.062334 0.627111
O O5 0.749054 0.270089 0.261738
O O6 0.432252 0.000000 0.500000
O O7 0.366507 0.030254 0.319368
O O8 0.891142 0.381282 0.835850
O O9 0.500000 0.396559 0.750000
O O10 0.500611 0.308725 0.653326
#
# Coordination Sequence:
#
# PCOD9321083 Si02
#       6
#     8   4   8   4   8   4
#     4  12  26  45  69 103 141 180 233 283 346 419
#     4  12  25  48  69 100 139 176 227 298 346 408
#     4  12  25  41  68 102 137 185 223 269 348 410
#     4  12  23  43  68  98 152 177 235 286 336 424
#     4  10  25  44  68 100 134 180 236 288 337 413
#     4  10  26  45  71  98 129 181 236 284 362 392
#
# _framework density 21.617645
#
# number of rings (size 3 to 8) (size 9 to 14) (size 15 to 20)
#    0.667    0.000    2.222    5.333    3.111    1.778 
#    0.000    0.000    0.000    0.000    0.000    0.000 
#    0.000    0.000    0.000    0.000    0.000    0.000 
#
# Total GULP energy -100233.981047 kJ/mol
# GULP energy per Si atom -5568.554503 kJ/mol
# Density = 2.156844 g / cm^3
# Si number density = 21.617645 Si / 1000 Ang^3
#
#
#
# Elastic Constant Matrix: (Units=GPa)
#
#
# Indices 1 2 3 4 5 6 
#
# 1 137.3822 59.5670 10.8694 0.0000 0.0000 0.0000
# 2 59.5670 88.2218 14.1765 0.0000 0.0000 0.0000
# 3 10.8694 14.1765 82.4699 0.0000 0.0000 0.0000
# 4 0.0000 0.0000 0.0000 42.6732 0.0000 0.0000
# 5 0.0000 0.0000 0.0000 0.0000 -10.7332 0.0000
# 6 0.0000 0.0000 0.0000 0.0000 0.0000 269.0780
#
#
#
# Elastic Compliance Matrix: (Units=1/GPa)
#
#
# Indices 1 2 3 4 5 6 
#
# 1 0.010294 -0.006924 -0.000167 0.000000 0.000000 0.000000
# 2 -0.006924 0.016314 -0.001892 0.000000 0.000000 0.000000
# 3 -0.000167 -0.001892 0.012473 0.000000 0.000000 0.000000
# 4 0.000000 0.000000 0.000000 0.023434 0.000000 0.000000
# 5 0.000000 0.000000 0.000000 0.000000 -0.093169 0.000000
# 6 0.000000 0.000000 0.000000 0.000000 0.000000 0.003716
#
#
# Mechanical properties :
#
#
# Convention : Reuss Voigt Hill
#
# Bulk Modulus (GPa) = 47.35615 53.03330 50.19473
# Shear Modulus (GPa) = -2584.85972 75.10101 -1254.87935
#
# Velocity S-wave (km/s) = -34.61666 5.90051 -24.11947
# Velocity P-wave (km/s) = 39.69631 8.42657 27.42982
#
# Compressibility (1/GPa) = 0.02111658
#
# Stress axis : x y z
#
# Youngs Moduli (GPa) = 97.14193 61.29702 80.17457
#
# Poissons Ratio (x) = 0.42441 0.01335
# Poissons Ratio (y) = 0.67260 0.15168
# Poissons Ratio (z) = 0.01618 0.11596
#
# Static dielectric constant tensor:
#      x y z
#    x 6.074860 0.000000 0.000000 
#    y 0.000000 1.767070 0.000000 
#    z 0.000000 0.000000 1.572150 
# 
# From -- ./inp_files/17564.got.cif
#   From: 2010.05.17/outbox.cif.g08.bks.cpg/sg20_9_cif.got.tgz:17564.got - 2010.06.03 22:52:26.
