data_PCOD9321497
_publ_section_title
;
Structure prediction by ZEFSAII (Michael W. Deem and Ramdas Pophale) SiO2 
 PCOD9321497
Probable space group: C 2 2 21
;
_chemical_formula_sum "Si O2"
_cell_formula_units_Z 40
_cell_length_a 8.100669
_cell_length_b 12.837716
_cell_length_c 17.722166
_cell_angle_alpha 90.000000
_cell_angle_beta 90.000000
_cell_angle_gamma 90.000000
_cell_volume 1843.000491
_symmetry_space_group_name_H-M "C 2 2 21"
_symmetry_group_IT_number 20
_symmetry_cell_setting 'orthorhombic'
loop_
_space_group_symop_operation_xyz
x,y,z
-x,-y,1/2+z
x,-y,-z
-x,y,1/2-z
1/2+x,1/2+y,z
1/2-x,1/2-y,1/2+z
1/2+x,1/2-y,-z
1/2-x,1/2+y,1/2-z
loop_
_atom_site_type_symbol
_atom_site_label
_atom_site_fract_x
_atom_site_fract_y
_atom_site_fract_z
Si Si1 0.000000 0.642424 0.750000
Si Si2 0.435363 0.952647 0.852697
Si Si3 0.808632 0.608126 0.454486
Si Si4 0.732206 0.500000 0.000000
Si Si5 0.152588 0.233850 0.695559
Si Si6 0.492150 0.687215 0.969477
O O1 0.062873 0.563756 0.685356
O O2 0.164563 0.700720 0.778727
O O3 0.622497 0.917954 0.872214
O O4 0.354208 0.859423 0.806875
O O5 0.343575 0.958785 0.932308
O O6 0.812204 0.500000 0.500000
O O7 0.628173 0.655203 0.462810
O O8 0.923489 0.701937 0.484307
O O9 0.623918 0.594500 0.967294
O O10 0.106911 0.195762 0.610083
O O11 0.000000 0.199248 0.750000
#
# Coordination Sequence:
#
# PCOD9321497 Si02
#       6
#     4   8   8   4   8   8
#     4  12  26  50  78 102 154 204 240 304 380 432
#     4  11  25  47  73 107 146 191 247 306 364 444
#     4  11  22  43  68 103 145 182 237 302 365 425
#     4  12  24  44  74 116 144 192 252 310 374 440
#     4  11  25  50  70 109 148 197 252 301 366 456
#     4  11  24  43  72 107 144 190 242 306 372 432
#
# _framework density 21.703738999999999
#
# number of rings (size 3 to 8) (size 9 to 14) (size 15 to 20)
#    0.000    0.800    3.000    4.800    0.000    0.000 
#   19.800    0.000    0.000    0.000    0.000    0.000 
#    0.000    0.000    0.000    0.000    0.000    0.000 
#
# Total GULP energy -111770.835003 kJ/mol
# GULP energy per Si atom -5588.541750 kJ/mol
# Density = 2.165434 g / cm^3
# Si number density = 21.703739 Si / 1000 Ang^3
#
#
#
# Elastic Constant Matrix: (Units=GPa)
#
#
# Indices 1 2 3 4 5 6 
#
# 1 96.7317 30.6067 31.2474 0.0000 0.0000 0.0000
# 2 30.6067 118.2396 13.7100 0.0000 0.0000 0.0000
# 3 31.2474 13.7100 68.6158 0.0000 0.0000 0.0000
# 4 0.0000 0.0000 0.0000 31.6360 0.0000 0.0000
# 5 0.0000 0.0000 0.0000 0.0000 35.3621 0.0000
# 6 0.0000 0.0000 0.0000 0.0000 0.0000 25.7194
#
#
#
# Elastic Compliance Matrix: (Units=1/GPa)
#
#
# Indices 1 2 3 4 5 6 
#
# 1 0.012926 -0.002727 -0.005342 0.000000 0.000000 0.000000
# 2 -0.002727 0.009233 -0.000603 0.000000 0.000000 0.000000
# 3 -0.005342 -0.000603 0.017127 0.000000 0.000000 0.000000
# 4 0.000000 0.000000 0.000000 0.031610 0.000000 0.000000
# 5 0.000000 0.000000 0.000000 0.000000 0.028279 0.000000
# 6 0.000000 0.000000 0.000000 0.000000 0.000000 0.038881
#
#
# Mechanical properties :
#
#
# Convention : Reuss Voigt Hill
#
# Bulk Modulus (GPa) = 45.57195 48.30168 46.93681
# Shear Modulus (GPa) = 30.72890 32.41171 31.57031
#
# Velocity S-wave (km/s) = 3.76684 3.86861 3.81806
# Velocity P-wave (km/s) = 6.32152 6.50063 6.41170
#
# Compressibility (1/GPa) = 0.02194332
#
# Stress axis : x y z
#
# Youngs Moduli (GPa) = 77.36265 108.30561 58.38723
#
# Poissons Ratio (x) = 0.29531 0.31189
# Poissons Ratio (y) = 0.21094 0.03522
# Poissons Ratio (z) = 0.41325 0.06533
#
# Static dielectric constant tensor:
#      x y z
#    x 1.839790 0.000000 0.000000 
#    y 0.000000 1.783200 0.000000 
#    z 0.000000 0.000000 1.824600 
# 
# From -- ./inp_files/23214.got.cif
#   From: 2010.05.17/outbox.cif.g08.bks.cpg/sg20_12_cif.got.tgz:23214.got - 2010.06.03 22:52:26.
