data_PCOD9321564
_publ_section_title
;
Structure prediction by ZEFSAII (Michael W. Deem and Ramdas Pophale) SiO2 
 PCOD9321564
Probable space group: C 2 2 21
;
_chemical_formula_sum "Si O2"
_cell_formula_units_Z 40
_cell_length_a 11.309365
_cell_length_b 9.167067
_cell_length_c 14.699790
_cell_angle_alpha 90.000000
_cell_angle_beta 90.000000
_cell_angle_gamma 90.000000
_cell_volume 1523.981717
_symmetry_space_group_name_H-M "C 2 2 21"
_symmetry_group_IT_number 20
_symmetry_cell_setting 'orthorhombic'
loop_
_space_group_symop_operation_xyz
x,y,z
-x,-y,1/2+z
x,-y,-z
-x,y,1/2-z
1/2+x,1/2+y,z
1/2-x,1/2-y,1/2+z
1/2+x,1/2-y,-z
1/2-x,1/2+y,1/2-z
loop_
_atom_site_type_symbol
_atom_site_label
_atom_site_fract_x
_atom_site_fract_y
_atom_site_fract_z
Si Si1 0.478975 0.160131 0.484681
Si Si2 0.335750 0.575603 0.583076
Si Si3 0.609129 0.808181 0.699793
Si Si4 0.741937 0.953629 0.217104
Si Si5 0.541785 0.359111 0.648234
O O1 0.376479 0.268400 0.451610
O O2 0.567871 0.154575 0.400322
O O3 0.537461 0.228089 0.575821
O O4 0.429895 0.000000 0.500000
O O5 0.270060 0.500000 0.500000
O O6 0.268445 0.572215 0.676416
O O7 0.451711 0.477224 0.605013
O O8 0.500000 0.721798 0.750000
O O9 0.728168 0.710562 0.684935
O O10 0.629784 0.941855 0.769961
O O11 0.836249 0.055271 0.164743
O O12 0.500000 0.313727 0.750000
#
# Coordination Sequence:
#
# PCOD9321564 Si02
#       5
#     8   8   8   8   8
#     4  11  23  40  73 110 153 193 242 324 369 442
#     4   9  18  42  73 100 140 193 242 302 377 443
#     4  12  26  49  74 107 154 191 250 311 372 448
#     4  11  23  45  72 104 144 203 243 305 380 452
#     4   9  19  42  72 105 144 198 250 299 381 449
#
# _framework density 26.247036000000001
#
# number of rings (size 3 to 8) (size 9 to 14) (size 15 to 20)
#    0.000    1.600    4.000    0.600    2.800    1.600 
#    7.200    1.000    0.000    0.000    0.000    0.000 
#    0.000    0.000    0.000    0.000    0.000    0.000 
#
# Total GULP energy -111914.644615 kJ/mol
# GULP energy per Si atom -5595.732231 kJ/mol
# Density = 2.618730 g / cm^3
# Si number density = 26.247036 Si / 1000 Ang^3
#
#
#
# Elastic Constant Matrix: (Units=GPa)
#
#
# Indices 1 2 3 4 5 6 
#
# 1 48.0573 24.9362 18.1468 0.0000 0.0000 0.0000
# 2 24.9362 152.0961 48.6759 0.0000 0.0000 0.0000
# 3 18.1468 48.6759 155.8157 0.0000 0.0000 0.0000
# 4 0.0000 0.0000 0.0000 52.5972 0.0000 0.0000
# 5 0.0000 0.0000 0.0000 0.0000 33.8404 0.0000
# 6 0.0000 0.0000 0.0000 0.0000 0.0000 30.9923
#
#
#
# Elastic Compliance Matrix: (Units=1/GPa)
#
#
# Indices 1 2 3 4 5 6 
#
# 1 0.023131 -0.003256 -0.001677 0.000000 0.000000 0.000000
# 2 -0.003256 0.007763 -0.002046 0.000000 0.000000 0.000000
# 3 -0.001677 -0.002046 0.007252 0.000000 0.000000 0.000000
# 4 0.000000 0.000000 0.000000 0.019012 0.000000 0.000000
# 5 0.000000 0.000000 0.000000 0.000000 0.029550 0.000000
# 6 0.000000 0.000000 0.000000 0.000000 0.000000 0.032266
#
#
# Mechanical properties :
#
#
# Convention : Reuss Voigt Hill
#
# Bulk Modulus (GPa) = 41.34030 59.94298 50.64164
# Shear Modulus (GPa) = 35.46202 41.10002 38.28102
#
# Velocity S-wave (km/s) = 3.67970 3.96143 3.82316
# Velocity P-wave (km/s) = 5.81707 6.61902 6.23096
#
# Compressibility (1/GPa) = 0.02418947
#
# Stress axis : x y z
#
# Youngs Moduli (GPa) = 43.23206 128.81009 137.88721
#
# Poissons Ratio (x) = 0.41936 0.23122
# Poissons Ratio (y) = 0.14075 0.28213
# Poissons Ratio (z) = 0.07249 0.26355
#
# Static dielectric constant tensor:
#      x y z
#    x 2.126000 0.000000 0.000000 
#    y 0.000000 2.149460 0.000000 
#    z 0.000000 0.000000 2.012650 
# 
# From -- ./inp_files/18530.got.cif
#   From: 2010.05.17/outbox.cif.g08.bks.cpg/sg20_10_cif.got.tgz:18530.got - 2010.06.03 22:52:26.
