data_PCOD9321996
_publ_section_title
;
Structure prediction by ZEFSAII (Michael W. Deem and Ramdas Pophale) SiO2 
 PCOD9321996
Probable space group: C 2 2 21
;
_chemical_formula_sum "Si O2"
_cell_formula_units_Z 36
_cell_length_a 22.646762
_cell_length_b 8.175600
_cell_length_c 7.908759
_cell_angle_alpha 90.000000
_cell_angle_beta 90.000000
_cell_angle_gamma 90.000000
_cell_volume 1464.313589
_symmetry_space_group_name_H-M "C 2 2 21"
_symmetry_group_IT_number 20
_symmetry_cell_setting 'orthorhombic'
loop_
_space_group_symop_operation_xyz
x,y,z
-x,-y,1/2+z
x,-y,-z
-x,y,1/2-z
1/2+x,1/2+y,z
1/2-x,1/2-y,1/2+z
1/2+x,1/2-y,-z
1/2-x,1/2+y,1/2-z
loop_
_atom_site_type_symbol
_atom_site_label
_atom_site_fract_x
_atom_site_fract_y
_atom_site_fract_z
Si Si1 0.301912 0.670115 0.800885
Si Si2 0.087717 0.328258 0.091817
Si Si3 0.000000 0.874382 0.750000
Si Si4 0.899911 0.000000 0.000000
Si Si5 0.151846 0.000000 0.000000
Si Si6 0.185141 0.464237 0.298720
O O1 0.312429 0.522842 0.669939
O O2 0.231542 0.642723 0.813772
O O3 0.312062 0.850801 0.730152
O O4 0.351593 0.637943 0.943634
O O5 0.123047 0.375655 0.262810
O O6 0.023507 0.251901 0.111916
O O7 0.117610 0.169459 0.009659
O O8 0.086796 0.500000 0.000000
O O9 0.055025 0.968173 0.659484
O O10 0.195579 0.500000 0.500000
#
# Coordination Sequence:
#
# PCOD9321996 Si02
#       6
#     8   8   4   4   4   8
#     4  12  27  46  79 113 163 204 257 329 401 468
#     4  12  27  51  77 111 159 208 263 328 393 471
#     4  12  28  50  78 114 160 206 276 322 394 480
#     4  12  29  48  84 114 158 215 266 328 404 468
#     4  12  23  52  74 112 152 201 258 326 390 460
#     4  12  28  46  76 120 160 203 263 326 400 482
#
# _framework density 24.584899
#
# number of rings (size 3 to 8) (size 9 to 14) (size 15 to 20)
#    0.000    0.000    5.556    3.333    4.667    2.667 
#    0.000    0.000    0.000    0.000    0.000    0.000 
#    0.000    0.000    0.000    0.000    0.000    0.000 
#
# Total GULP energy -100262.297144 kJ/mol
# GULP energy per Si atom -5570.127619 kJ/mol
# Density = 2.452894 g / cm^3
# Si number density = 24.584899 Si / 1000 Ang^3
#
#
#
# Elastic Constant Matrix: (Units=GPa)
#
#
# Indices 1 2 3 4 5 6 
#
# 1 73.5200 5.7643 8.8705 0.0000 0.0000 0.0000
# 2 5.7643 127.3816 -1.1401 0.0000 0.0000 0.0000
# 3 8.8705 -1.1401 74.2095 0.0000 0.0000 0.0000
# 4 0.0000 0.0000 0.0000 41.8985 0.0000 0.0000
# 5 0.0000 0.0000 0.0000 0.0000 27.4319 0.0000
# 6 0.0000 0.0000 0.0000 0.0000 0.0000 22.3501
#
#
#
# Elastic Compliance Matrix: (Units=1/GPa)
#
#
# Indices 1 2 3 4 5 6 
#
# 1 0.013853 -0.000642 -0.001666 0.000000 0.000000 0.000000
# 2 -0.000642 0.007881 0.000198 0.000000 0.000000 0.000000
# 3 -0.001666 0.000198 0.013678 0.000000 0.000000 0.000000
# 4 0.000000 0.000000 0.000000 0.023867 0.000000 0.000000
# 5 0.000000 0.000000 0.000000 0.000000 0.036454 0.000000
# 6 0.000000 0.000000 0.000000 0.000000 0.000000 0.044742
#
#
# Mechanical properties :
#
#
# Convention : Reuss Voigt Hill
#
# Bulk Modulus (GPa) = 32.05918 33.56670 32.81294
# Shear Modulus (GPa) = 32.23886 35.77721 34.00804
#
# Velocity S-wave (km/s) = 3.62515 3.81891 3.72330
# Velocity P-wave (km/s) = 5.53090 5.75574 5.64444
#
# Compressibility (1/GPa) = 0.03119232
#
# Stress axis : x y z
#
# Youngs Moduli (GPa) = 72.18629 126.88358 73.11268
#
# Poissons Ratio (x) = 0.08143 0.12179
# Poissons Ratio (y) = 0.04633 -0.01446
# Poissons Ratio (z) = 0.12024 -0.02510
#
# Static dielectric constant tensor:
#      x y z
#    x 2.264810 0.000000 0.000000 
#    y 0.000000 1.890390 0.000000 
#    z 0.000000 0.000000 2.252840 
# 
# From -- ./inp_files/5958.got.cif
#   From: 2010.05.17/outbox.cif.g08.bks.cpg/sg20_3_cif.got.tgz:5958.got - 2010.06.03 22:52:26.
