data_PCOD9321447
_publ_section_title
;
Structure prediction by ZEFSAII (Michael W. Deem and Ramdas Pophale) SiO2 
 PCOD9321447
Probable space group: C 2 2 21
;
_chemical_formula_sum "Si O2"
_cell_formula_units_Z 64
_cell_length_a 8.200334
_cell_length_b 13.261864
_cell_length_c 25.321215
_cell_angle_alpha 90.000000
_cell_angle_beta 90.000000
_cell_angle_gamma 90.000000
_cell_volume 2753.725538
_symmetry_space_group_name_H-M "C 2 2 21"
_symmetry_group_IT_number 20
_symmetry_cell_setting 'orthorhombic'
loop_
_space_group_symop_operation_xyz
x,y,z
-x,-y,1/2+z
x,-y,-z
-x,y,1/2-z
1/2+x,1/2+y,z
1/2-x,1/2-y,1/2+z
1/2+x,1/2-y,-z
1/2-x,1/2+y,1/2-z
loop_
_atom_site_type_symbol
_atom_site_label
_atom_site_fract_x
_atom_site_fract_y
_atom_site_fract_z
Si Si1 0.070672 0.649017 0.615748
Si Si2 0.314073 0.299554 0.109297
Si Si3 0.314778 0.920046 0.746996
Si Si4 0.669358 0.222413 0.729390
Si Si5 0.211935 0.569762 0.365699
Si Si6 0.833183 0.099370 0.469423
Si Si7 0.907193 0.261983 0.003783
Si Si8 0.868749 0.922310 0.203941
O O1 0.148851 0.687402 0.669934
O O2 0.107397 0.528033 0.615859
O O3 0.140989 0.710476 0.564867
O O4 0.877108 0.672605 0.616395
O O5 0.354175 0.185379 0.129558
O O6 0.410998 0.373867 0.148203
O O7 0.347608 0.305260 0.046762
O O8 0.500000 0.955325 0.750000
O O9 0.311343 0.802158 0.736724
O O10 0.242295 0.943777 0.804850
O O11 0.201960 0.965876 0.701529
O O12 0.500000 0.269028 0.750000
O O13 0.713040 0.134618 0.770178
O O14 0.357500 0.577445 0.407885
O O15 0.642052 0.128116 0.479454
O O16 0.924733 0.201106 0.486762
O O17 0.880475 0.000000 0.500000
O O18 0.000000 0.914173 0.250000
#
# Coordination Sequence:
#
# PCOD9321447 Si02
#       8
#     8   8   8   8   8   8   8   8
#     4  12  22  44  75 107 140 198 240 300 378 437
#     4  11  25  46  70 107 153 182 245 310 357 447
#     4  12  25  46  69 106 145 191 245 297 374 453
#     4  12  24  43  71 104 145 187 238 304 371 436
#     4  11  22  40  76 101 139 188 235 294 363 442
#     4  11  24  47  71 103 141 189 239 301 366 430
#     4  11  24  45  73 103 143 185 247 299 362 435
#     4  12  25  44  70 104 145 193 239 303 369 441
#
# _framework density 23.241242
#
# number of rings (size 3 to 8) (size 9 to 14) (size 15 to 20)
#    0.000    0.500    7.500    1.875    0.000    2.000 
#    4.500    3.125    0.000    0.000    0.000    0.000 
#    0.000    0.000    0.000    0.000    0.000    0.000 
#
# Total GULP energy -178157.405480 kJ/mol
# GULP energy per Si atom -5567.418921 kJ/mol
# Density = 2.318834 g / cm^3
# Si number density = 23.241242 Si / 1000 Ang^3
#
#
#
# Elastic Constant Matrix: (Units=GPa)
#
#
# Indices 1 2 3 4 5 6 
#
# 1 61.6199 37.0670 29.2008 0.0000 0.0000 0.0000
# 2 37.0670 102.9315 28.2368 0.0000 0.0000 0.0000
# 3 29.2008 28.2368 150.2684 0.0000 0.0000 0.0000
# 4 0.0000 0.0000 0.0000 36.0954 0.0000 0.0000
# 5 0.0000 0.0000 0.0000 0.0000 29.0043 0.0000
# 6 0.0000 0.0000 0.0000 0.0000 0.0000 23.5404
#
#
#
# Elastic Compliance Matrix: (Units=1/GPa)
#
#
# Indices 1 2 3 4 5 6 
#
# 1 0.021867 -0.007074 -0.002920 0.000000 0.000000 0.000000
# 2 -0.007074 0.012531 -0.000980 0.000000 0.000000 0.000000
# 3 -0.002920 -0.000980 0.007406 0.000000 0.000000 0.000000
# 4 0.000000 0.000000 0.000000 0.027704 0.000000 0.000000
# 5 0.000000 0.000000 0.000000 0.000000 0.034478 0.000000
# 6 0.000000 0.000000 0.000000 0.000000 0.000000 0.042480
#
#
# Mechanical properties :
#
#
# Convention : Reuss Voigt Hill
#
# Bulk Modulus (GPa) = 50.35951 55.98100 53.17025
# Shear Modulus (GPa) = 28.56579 32.41571 30.49075
#
# Velocity S-wave (km/s) = 3.50965 3.73869 3.62598
# Velocity P-wave (km/s) = 6.17566 6.54035 6.36062
#
# Compressibility (1/GPa) = 0.01985722
#
# Stress axis : x y z
#
# Youngs Moduli (GPa) = 45.73003 79.79945 135.01826
#
# Poissons Ratio (x) = 0.56448 0.39428
# Poissons Ratio (y) = 0.32348 0.13234
# Poissons Ratio (z) = 0.13354 0.07822
#
# Static dielectric constant tensor:
#      x y z
#    x 1.939450 0.000000 0.000000 
#    y 0.000000 1.867860 0.000000 
#    z 0.000000 0.000000 1.968290 
# 
# From -- ./inp_files/28920.got.cif
#   From: 2010.05.17/outbox.cif.g08.bks.cpg/sg20_15_cif.got.tgz:28920.got - 2010.06.03 22:52:26.
