data_PCOD9321541
_publ_section_title
;
Structure prediction by ZEFSAII (Michael W. Deem and Ramdas Pophale) SiO2 
 PCOD9321541
Probable space group: C 2 2 21
;
_chemical_formula_sum "Si O2"
_cell_formula_units_Z 60
_cell_length_a 12.559501
_cell_length_b 27.332141
_cell_length_c 9.262288
_cell_angle_alpha 90.000000
_cell_angle_beta 90.000000
_cell_angle_gamma 90.000000
_cell_volume 3179.540184
_symmetry_space_group_name_H-M "C 2 2 21"
_symmetry_group_IT_number 20
_symmetry_cell_setting 'orthorhombic'
loop_
_space_group_symop_operation_xyz
x,y,z
-x,-y,1/2+z
x,-y,-z
-x,y,1/2-z
1/2+x,1/2+y,z
1/2-x,1/2-y,1/2+z
1/2+x,1/2-y,-z
1/2-x,1/2+y,1/2-z
loop_
_atom_site_type_symbol
_atom_site_label
_atom_site_fract_x
_atom_site_fract_y
_atom_site_fract_z
Si Si1 0.896217 0.566747 0.339942
Si Si2 0.181769 0.306360 0.464331
Si Si3 0.271107 0.372688 0.238480
Si Si4 0.500000 0.323731 0.250000
Si Si5 0.723626 0.161561 0.083188
Si Si6 0.611973 0.044616 0.822470
Si Si7 0.461944 0.236072 0.471089
Si Si8 0.167006 0.774266 0.774679
O O1 0.814109 0.611659 0.341084
O O2 0.867675 0.512334 0.284728
O O3 0.912072 0.555533 0.509461
O O4 0.000000 0.582035 0.250000
O O5 0.218223 0.355878 0.389626
O O6 0.199541 0.269988 0.329132
O O7 0.249888 0.289618 0.600772
O O8 0.060514 0.300358 0.510409
O O9 0.395353 0.357979 0.248057
O O10 0.219045 0.425849 0.215606
O O11 0.235978 0.346036 0.088375
O O12 0.490628 0.284518 0.380840
O O13 0.830006 0.181010 0.161560
O O14 0.632739 0.203518 0.096626
O O15 0.500000 0.060016 0.750000
O O16 0.429676 0.255966 0.628155
#
# Coordination Sequence:
#
# PCOD9321541 Si02
#       8
#     8   8   8   4   8   8   8   8
#     4   9  20  37  58  95 119 152 186 244 315 359
#     4  12  23  37  55  83 117 158 206 237 292 341
#     4  11  23  40  59  87 116 161 202 247 298 355
#     4  12  24  42  56  86 118 158 208 240 290 348
#     4  11  23  37  57  87 121 157 195 237 306 359
#     4   9  20  38  64  91 121 148 194 250 307 366
#     4  12  24  35  58  80 123 158 196 246 280 356
#     4  12  22  38  52  82 117 159 198 235 285 347
#
# _framework density 18.870653000000001
#
# number of rings (size 3 to 8) (size 9 to 14) (size 15 to 20)
#    0.000    1.067    4.000    2.800    6.533    0.000 
#    0.000    0.000    0.000    0.000   17.333    0.000 
#    0.000    0.000    0.000    0.000    0.000    0.000 
#
# Total GULP energy -167144.639403 kJ/mol
# GULP energy per Si atom -5571.487980 kJ/mol
# Density = 1.882770 g / cm^3
# Si number density = 18.870653 Si / 1000 Ang^3
#
#
#
# Elastic Constant Matrix: (Units=GPa)
#
#
# Indices 1 2 3 4 5 6 
#
# 1 86.6453 28.9860 4.8599 0.0000 0.0000 0.0000
# 2 28.9860 62.1846 9.6334 0.0000 0.0000 0.0000
# 3 4.8599 9.6334 64.3936 0.0000 0.0000 0.0000
# 4 0.0000 0.0000 0.0000 9.3545 0.0000 0.0000
# 5 0.0000 0.0000 0.0000 0.0000 35.5045 0.0000
# 6 0.0000 0.0000 0.0000 0.0000 0.0000 80.5638
#
#
#
# Elastic Compliance Matrix: (Units=1/GPa)
#
#
# Indices 1 2 3 4 5 6 
#
# 1 0.013674 -0.006361 -0.000080 0.000000 0.000000 0.000000
# 2 -0.006361 0.019422 -0.002425 0.000000 0.000000 0.000000
# 3 -0.000080 -0.002425 0.015898 0.000000 0.000000 0.000000
# 4 0.000000 0.000000 0.000000 0.106900 0.000000 0.000000
# 5 0.000000 0.000000 0.000000 0.000000 0.028165 0.000000
# 6 0.000000 0.000000 0.000000 0.000000 0.000000 0.012413
#
#
# Mechanical properties :
#
#
# Convention : Reuss Voigt Hill
#
# Bulk Modulus (GPa) = 31.98963 33.35355 32.67159
# Shear Modulus (GPa) = 22.25910 36.40084 29.32997
#
# Velocity S-wave (km/s) = 3.43820 4.39676 3.94669
# Velocity P-wave (km/s) = 5.72280 6.59459 6.17410
#
# Compressibility (1/GPa) = 0.03126013
#
# Stress axis : x y z
#
# Youngs Moduli (GPa) = 73.13198 51.48775 62.89937
#
# Poissons Ratio (x) = 0.32753 0.00505
# Poissons Ratio (y) = 0.46522 0.15256
# Poissons Ratio (z) = 0.00587 0.12488
#
# Static dielectric constant tensor:
#      x y z
#    x 1.790280 0.000000 0.000000 
#    y 0.000000 1.683210 0.000000 
#    z 0.000000 0.000000 1.667600 
# 
# From -- ./inp_files/7626.got.cif
#   From: 2010.05.17/outbox.cif.g08.bks.cpg/sg20_4_cif.got.tgz:7626.got - 2010.06.03 22:52:26.
