data_PCOD9321608
_publ_section_title
;
Structure prediction by ZEFSAII (Michael W. Deem and Ramdas Pophale) SiO2 
 PCOD9321608
Probable space group: C 2 2 21
;
_chemical_formula_sum "Si O2"
_cell_formula_units_Z 40
_cell_length_a 9.201844
_cell_length_b 12.158517
_cell_length_c 15.653433
_cell_angle_alpha 90.000000
_cell_angle_beta 90.000000
_cell_angle_gamma 90.000000
_cell_volume 1751.318242
_symmetry_space_group_name_H-M "C 2 2 21"
_symmetry_group_IT_number 20
_symmetry_cell_setting 'orthorhombic'
loop_
_space_group_symop_operation_xyz
x,y,z
-x,-y,1/2+z
x,-y,-z
-x,y,1/2-z
1/2+x,1/2+y,z
1/2-x,1/2-y,1/2+z
1/2+x,1/2-y,-z
1/2-x,1/2+y,1/2-z
loop_
_atom_site_type_symbol
_atom_site_label
_atom_site_fract_x
_atom_site_fract_y
_atom_site_fract_z
Si Si1 0.203734 0.871643 0.021461
Si Si2 0.137050 0.841133 0.703186
Si Si3 0.129878 0.496296 0.816561
Si Si4 0.165130 0.163233 0.777124
Si Si5 0.989134 0.684952 0.566895
O O1 0.169749 0.850895 0.121046
O O2 0.375785 0.850339 0.007491
O O3 0.115977 0.775774 0.973478
O O4 0.168892 0.000000 0.000000
O O5 0.247555 0.769220 0.760388
O O6 0.000000 0.898345 0.750000
O O7 0.058268 0.750055 0.646706
O O8 0.257811 0.905413 0.648272
O O9 0.243550 0.562281 0.758321
O O10 0.076376 0.574738 0.891988
O O11 0.000000 0.464497 0.750000
O O12 0.000000 0.167898 0.750000
#
# Coordination Sequence:
#
# PCOD9321608 Si02
#       5
#     8   8   8   8   8
#     4  11  28  46  71 100 146 190 229 295 365 415
#     4  11  23  43  73 105 141 181 234 298 351 419
#     4  12  23  45  74 103 142 183 237 294 353 417
#     4  11  24  45  71 107 137 186 247 290 348 428
#     4  11  26  48  66 106 146 177 241 295 344 439
#
# _framework density 22.839938
#
# number of rings (size 3 to 8) (size 9 to 14) (size 15 to 20)
#    0.000    0.800    6.000    1.200    8.400    3.200 
#    0.000    0.000    0.000    0.000    0.000    0.000 
#    0.000    0.000    0.000    0.000    0.000    0.000 
#
# Total GULP energy -111540.036721 kJ/mol
# GULP energy per Si atom -5577.001836 kJ/mol
# Density = 2.278795 g / cm^3
# Si number density = 22.839938 Si / 1000 Ang^3
#
#
#
# Elastic Constant Matrix: (Units=GPa)
#
#
# Indices 1 2 3 4 5 6 
#
# 1 189.4128 55.7101 29.0180 0.0000 0.0000 0.0000
# 2 55.7101 84.0835 5.0577 0.0000 0.0000 0.0000
# 3 29.0180 5.0577 41.6238 0.0000 0.0000 0.0000
# 4 0.0000 0.0000 0.0000 119.4124 0.0000 0.0000
# 5 0.0000 0.0000 0.0000 0.0000 26.9478 0.0000
# 6 0.0000 0.0000 0.0000 0.0000 0.0000 53.2335
#
#
#
# Elastic Compliance Matrix: (Units=1/GPa)
#
#
# Indices 1 2 3 4 5 6 
#
# 1 0.007323 -0.004578 -0.004549 0.000000 0.000000 0.000000
# 2 -0.004578 0.014843 0.001388 0.000000 0.000000 0.000000
# 3 -0.004549 0.001388 0.027027 0.000000 0.000000 0.000000
# 4 0.000000 0.000000 0.000000 0.008374 0.000000 0.000000
# 5 0.000000 0.000000 0.000000 0.000000 0.037109 0.000000
# 6 0.000000 0.000000 0.000000 0.000000 0.000000 0.018785
#
#
# Mechanical properties :
#
#
# Convention : Reuss Voigt Hill
#
# Bulk Modulus (GPa) = 29.66029 54.96575 42.31302
# Shear Modulus (GPa) = 35.66907 54.94102 45.30504
#
# Velocity S-wave (km/s) = 3.95612 4.90989 4.45858
# Velocity P-wave (km/s) = 5.82084 7.50070 6.71352
#
# Compressibility (1/GPa) = 0.03371512
#
# Stress axis : x y z
#
# Youngs Moduli (GPa) = 136.55784 67.37280 36.99965
#
# Poissons Ratio (x) = 0.30845 0.16831
# Poissons Ratio (y) = 0.62519 -0.05136
# Poissons Ratio (z) = 0.62118 -0.09352
#
# Static dielectric constant tensor:
#      x y z
#    x 1.543150 0.000000 0.000000 
#    y 0.000000 2.116690 0.000000 
#    z 0.000000 0.000000 1.862620 
# 
# From -- ./inp_files/23126.got.cif
#   From: 2010.05.17/outbox.cif.g08.bks.cpg/sg20_12_cif.got.tgz:23126.got - 2010.06.03 22:52:26.
