data_PCOD9321191
_publ_section_title
;
Structure prediction by ZEFSAII (Michael W. Deem and Ramdas Pophale) SiO2 
 PCOD9321191
Probable space group: C 2 2 21
;
_chemical_formula_sum "Si O2"
_cell_formula_units_Z 40
_cell_length_a 7.262209
_cell_length_b 13.152925
_cell_length_c 16.561805
_cell_angle_alpha 90.000000
_cell_angle_beta 90.000000
_cell_angle_gamma 90.000000
_cell_volume 1581.971860
_symmetry_space_group_name_H-M "C 2 2 21"
_symmetry_group_IT_number 20
_symmetry_cell_setting 'orthorhombic'
loop_
_space_group_symop_operation_xyz
x,y,z
-x,-y,1/2+z
x,-y,-z
-x,y,1/2-z
1/2+x,1/2+y,z
1/2-x,1/2-y,1/2+z
1/2+x,1/2-y,-z
1/2-x,1/2+y,1/2-z
loop_
_atom_site_type_symbol
_atom_site_label
_atom_site_fract_x
_atom_site_fract_y
_atom_site_fract_z
Si Si1 0.507881 0.630426 0.864342
Si Si2 0.983493 0.197030 0.454029
Si Si3 0.600437 0.894806 0.538346
Si Si4 0.682537 0.848120 0.838023
Si Si5 0.210846 0.464270 0.255466
O O1 0.576648 0.741487 0.834804
O O2 0.333507 0.588806 0.814993
O O3 0.680449 0.561179 0.837161
O O4 0.480510 0.639502 0.960194
O O5 0.005549 0.315846 0.475802
O O6 0.129663 0.169298 0.386427
O O7 0.777723 0.166903 0.431328
O O8 0.656018 0.000000 0.500000
O O9 0.450539 0.916180 0.606425
O O10 0.715626 0.914596 0.759530
O O11 0.000000 0.428467 0.250000
#
# Coordination Sequence:
#
# PCOD9321191 Si02
#       5
#     8   8   8   8   8
#     4  10  26  51  72 114 156 195 271 313 378 476
#     4  11  24  47  75 119 155 190 258 335 381 453
#     4  11  25  40  74 113 153 193 249 316 392 453
#     4  11  27  45  80 113 152 202 262 317 390 459
#     4  11  28  48  76 105 154 215 253 303 389 461
#
# _framework density 25.284898999999999
#
# number of rings (size 3 to 8) (size 9 to 14) (size 15 to 20)
#    0.000    1.200    4.000    0.000   11.200    4.800 
#    3.600    0.000    0.000    0.000    0.000    0.000 
#    0.000    0.000    0.000    0.000    0.000    0.000 
#
# Total GULP energy -112145.488778 kJ/mol
# GULP energy per Si atom -5607.274439 kJ/mol
# Density = 2.522735 g / cm^3
# Si number density = 25.284899 Si / 1000 Ang^3
#
#
#
# Elastic Constant Matrix: (Units=GPa)
#
#
# Indices 1 2 3 4 5 6 
#
# 1 163.5662 50.2886 11.0607 0.0000 0.0000 0.0000
# 2 50.2886 124.8834 30.5591 0.0000 0.0000 0.0000
# 3 11.0607 30.5591 49.0398 0.0000 0.0000 0.0000
# 4 0.0000 0.0000 0.0000 25.7694 0.0000 0.0000
# 5 0.0000 0.0000 0.0000 0.0000 42.8985 0.0000
# 6 0.0000 0.0000 0.0000 0.0000 0.0000 35.1646
#
#
#
# Elastic Compliance Matrix: (Units=1/GPa)
#
#
# Indices 1 2 3 4 5 6 
#
# 1 0.006979 -0.002862 0.000209 0.000000 0.000000 0.000000
# 2 -0.002862 0.010621 -0.005973 0.000000 0.000000 0.000000
# 3 0.000209 -0.005973 0.024067 0.000000 0.000000 0.000000
# 4 0.000000 0.000000 0.000000 0.038806 0.000000 0.000000
# 5 0.000000 0.000000 0.000000 0.000000 0.023311 0.000000
# 6 0.000000 0.000000 0.000000 0.000000 0.000000 0.028438
#
#
# Mechanical properties :
#
#
# Convention : Reuss Voigt Hill
#
# Bulk Modulus (GPa) = 40.95715 57.92292 49.44003
# Shear Modulus (GPa) = 31.72341 37.13858 34.43099
#
# Velocity S-wave (km/s) = 3.54593 3.83666 3.69415
# Velocity P-wave (km/s) = 5.74441 6.52567 6.14747
#
# Compressibility (1/GPa) = 0.02441576
#
# Stress axis : x y z
#
# Youngs Moduli (GPa) = 143.27840 94.14867 41.55117
#
# Poissons Ratio (x) = 0.26942 -0.00869
# Poissons Ratio (y) = 0.41001 0.24820
# Poissons Ratio (z) = -0.02996 0.56238
#
# Static dielectric constant tensor:
#      x y z
#    x 1.967060 0.000000 0.000000 
#    y 0.000000 1.999060 0.000000 
#    z 0.000000 0.000000 2.049250 
# 
# From -- ./inp_files/23188.got.cif
#   From: 2010.05.17/outbox.cif.g08.bks.cpg/sg20_12_cif.got.tgz:23188.got - 2010.06.03 22:52:26.
