data_PCOD9321282
_publ_section_title
;
Structure prediction by ZEFSAII (Michael W. Deem and Ramdas Pophale) SiO2 
 PCOD9321282
Probable space group: C 2 2 21
;
_chemical_formula_sum "Si O2"
_cell_formula_units_Z 40
_cell_length_a 18.580330
_cell_length_b 7.644782
_cell_length_c 13.302274
_cell_angle_alpha 90.000000
_cell_angle_beta 90.000000
_cell_angle_gamma 90.000000
_cell_volume 1889.489217
_symmetry_space_group_name_H-M "C 2 2 21"
_symmetry_group_IT_number 20
_symmetry_cell_setting 'orthorhombic'
loop_
_space_group_symop_operation_xyz
x,y,z
-x,-y,1/2+z
x,-y,-z
-x,y,1/2-z
1/2+x,1/2+y,z
1/2-x,1/2-y,1/2+z
1/2+x,1/2-y,-z
1/2-x,1/2+y,1/2-z
loop_
_atom_site_type_symbol
_atom_site_label
_atom_site_fract_x
_atom_site_fract_y
_atom_site_fract_z
Si Si1 0.411410 0.500000 0.500000
Si Si2 0.647640 0.207237 0.132048
Si Si3 0.991335 0.425703 0.869738
Si Si4 0.128012 0.849635 0.359013
Si Si5 0.029724 0.814940 0.637253
Si Si6 0.259315 0.500000 0.000000
O O1 0.361538 0.615479 0.570412
O O2 0.465320 0.390610 0.570220
O O3 0.574141 0.103909 0.102084
O O4 0.649218 0.265605 0.250138
O O5 0.712196 0.095045 0.086085
O O6 0.938335 0.268506 0.896895
O O7 0.000000 0.414747 0.750000
O O8 0.958508 0.614042 0.894934
O O9 0.191799 0.861414 0.439042
O O10 0.095394 0.047439 0.357305
O O11 0.000000 0.806445 0.750000
#
# Coordination Sequence:
#
# PCOD9321282 Si02
#       6
#     4   8   8   8   8   4
#     4  12  21  38  74 103 138 182 244 304 365 432
#     4  11  24  47  72 105 150 195 248 311 375 450
#     4   9  20  41  76 104 131 181 244 301 357 427
#     4  11  23  49  72 102 150 186 246 311 362 446
#     4  11  20  40  73 106 133 178 240 310 364 424
#     4  12  29  48  70 107 156 204 242 304 391 458
#
# _framework density 21.169740999999998
#
# number of rings (size 3 to 8) (size 9 to 14) (size 15 to 20)
#    0.000    1.200    4.000    2.400    0.000    1.600 
#   14.400    0.000    0.000    0.000    0.000    0.000 
#    0.000    0.000    0.000    0.000    0.000    0.000 
#
# Total GULP energy -111658.620748 kJ/mol
# GULP energy per Si atom -5582.931037 kJ/mol
# Density = 2.112156 g / cm^3
# Si number density = 21.169741 Si / 1000 Ang^3
#
#
#
# Elastic Constant Matrix: (Units=GPa)
#
#
# Indices 1 2 3 4 5 6 
#
# 1 106.2029 50.9834 45.4697 0.0000 0.0000 0.0000
# 2 50.9834 116.0333 29.4845 0.0000 0.0000 0.0000
# 3 45.4697 29.4845 126.5710 0.0000 0.0000 0.0000
# 4 0.0000 0.0000 0.0000 26.2460 0.0000 0.0000
# 5 0.0000 0.0000 0.0000 0.0000 38.9457 0.0000
# 6 0.0000 0.0000 0.0000 0.0000 0.0000 11.1574
#
#
#
# Elastic Compliance Matrix: (Units=1/GPa)
#
#
# Indices 1 2 3 4 5 6 
#
# 1 0.013347 -0.004938 -0.003644 0.000000 0.000000 0.000000
# 2 -0.004938 0.010988 -0.000785 0.000000 0.000000 0.000000
# 3 -0.003644 -0.000785 0.009393 0.000000 0.000000 0.000000
# 4 0.000000 0.000000 0.000000 0.038101 0.000000 0.000000
# 5 0.000000 0.000000 0.000000 0.000000 0.025677 0.000000
# 6 0.000000 0.000000 0.000000 0.000000 0.000000 0.089626
#
#
# Mechanical properties :
#
#
# Convention : Reuss Voigt Hill
#
# Bulk Modulus (GPa) = 66.70684 66.74250 66.72467
# Shear Modulus (GPa) = 23.71180 30.12780 26.91980
#
# Velocity S-wave (km/s) = 3.35039 3.77656 3.56984
# Velocity P-wave (km/s) = 6.82244 7.11423 6.96986
#
# Compressibility (1/GPa) = 0.01499097
#
# Stress axis : x y z
#
# Youngs Moduli (GPa) = 74.92327 91.01098 106.46327
#
# Poissons Ratio (x) = 0.44945 0.38800
# Poissons Ratio (y) = 0.37000 0.08362
# Poissons Ratio (z) = 0.27305 0.07149
#
# Static dielectric constant tensor:
#      x y z
#    x 1.754870 0.000000 0.000000 
#    y 0.000000 1.805390 0.000000 
#    z 0.000000 0.000000 1.823920 
# 
# From -- ./inp_files/20517.got.cif
#   From: 2010.05.17/outbox.cif.g08.bks.cpg/sg20_11_cif.got.tgz:20517.got - 2010.06.03 22:52:26.
