data_PCOD9321177
_publ_section_title
;
Structure prediction by ZEFSAII (Michael W. Deem and Ramdas Pophale) SiO2 
 PCOD9321177
Probable space group: C 2 2 21
;
_chemical_formula_sum "Si O2"
_cell_formula_units_Z 20
_cell_length_a 7.333031
_cell_length_b 11.954256
_cell_length_c 9.403682
_cell_angle_alpha 90.000000
_cell_angle_beta 90.000000
_cell_angle_gamma 90.000000
_cell_volume 824.335508
_symmetry_space_group_name_H-M "C 2 2 21"
_symmetry_group_IT_number 20
_symmetry_cell_setting 'orthorhombic'
loop_
_space_group_symop_operation_xyz
x,y,z
-x,-y,1/2+z
x,-y,-z
-x,y,1/2-z
1/2+x,1/2+y,z
1/2-x,1/2-y,1/2+z
1/2+x,1/2-y,-z
1/2-x,1/2+y,1/2-z
loop_
_atom_site_type_symbol
_atom_site_label
_atom_site_fract_x
_atom_site_fract_y
_atom_site_fract_z
Si Si1 0.845780 0.500000 0.000000
Si Si2 0.694261 0.119912 0.021332
Si Si3 0.786658 0.819434 0.285221
O O1 0.741084 0.428749 0.116554
O O2 0.991077 0.414605 0.928618
O O3 0.682157 0.169196 0.863120
O O4 0.773492 0.210466 0.126679
O O5 0.792862 0.000000 0.000000
O O6 0.000000 0.811210 0.250000
#
# Coordination Sequence:
#
# PCOD9321177 Si02
#       3
#     4   8   8
#     4  10  26  48  74 104 156 194 234 310 372 422
#     4  10  27  47  77 107 152 196 239 304 377 429
#     4  12  26  46  77 112 144 197 255 298 364 446
#
# _framework density 24.261965
#
# number of rings (size 3 to 8) (size 9 to 14) (size 15 to 20)
#    1.200    0.000    0.000    3.600   14.000    0.000 
#    0.000    0.000    0.000    0.000    0.000    0.000 
#    0.000    0.000    0.000    0.000    0.000    0.000 
#
# Total GULP energy -55925.186175 kJ/mol
# GULP energy per Si atom -5592.518617 kJ/mol
# Density = 2.420674 g / cm^3
# Si number density = 24.261965 Si / 1000 Ang^3
#
#
#
# Elastic Constant Matrix: (Units=GPa)
#
#
# Indices 1 2 3 4 5 6 
#
# 1 54.6560 39.0205 8.6905 0.0000 0.0000 0.0000
# 2 39.0205 192.5199 122.5711 0.0000 0.0000 0.0000
# 3 8.6905 122.5711 159.3412 0.0000 0.0000 0.0000
# 4 0.0000 0.0000 0.0000 56.3505 0.0000 0.0000
# 5 0.0000 0.0000 0.0000 0.0000 31.9917 0.0000
# 6 0.0000 0.0000 0.0000 0.0000 0.0000 33.1256
#
#
#
# Elastic Compliance Matrix: (Units=1/GPa)
#
#
# Indices 1 2 3 4 5 6 
#
# 1 0.022968 -0.007560 0.004563 0.000000 0.000000 0.000000
# 2 -0.007560 0.012668 -0.009333 0.000000 0.000000 0.000000
# 3 0.004563 -0.009333 0.013206 0.000000 0.000000 0.000000
# 4 0.000000 0.000000 0.000000 0.017746 0.000000 0.000000
# 5 0.000000 0.000000 0.000000 0.000000 0.031258 0.000000
# 6 0.000000 0.000000 0.000000 0.000000 0.000000 0.030188
#
#
# Mechanical properties :
#
#
# Convention : Reuss Voigt Hill
#
# Bulk Modulus (GPa) = 41.35196 83.00904 62.18050
# Shear Modulus (GPa) = 31.10301 40.04256 35.57278
#
# Velocity S-wave (km/s) = 3.58434 4.06695 3.83325
# Velocity P-wave (km/s) = 5.84901 7.50609 6.72876
#
# Compressibility (1/GPa) = 0.02418265
#
# Stress axis : x y z
#
# Youngs Moduli (GPa) = 43.53826 78.93618 75.72302
#
# Poissons Ratio (x) = 0.59679 -0.34553
# Poissons Ratio (y) = 0.32917 0.70670
# Poissons Ratio (z) = -0.19867 0.73669
#
# Static dielectric constant tensor:
#      x y z
#    x 1.964930 0.000000 0.000000 
#    y 0.000000 1.964080 0.000000 
#    z 0.000000 0.000000 1.876930 
# 
# From -- ./inp_files/5358.got.cif
#   From: 2010.05.17/outbox.cif.g08.bks.cpg/sg20_3_cif.got.tgz:5358.got - 2010.06.03 22:52:26.
