data_PCOD9321321
_publ_section_title
;
Structure prediction by ZEFSAII (Michael W. Deem and Ramdas Pophale) SiO2 
 PCOD9321321
Probable space group: C 2 2 21
;
_chemical_formula_sum "Si O2"
_cell_formula_units_Z 52
_cell_length_a 5.567685
_cell_length_b 22.899754
_cell_length_c 20.079807
_cell_angle_alpha 90.000000
_cell_angle_beta 90.000000
_cell_angle_gamma 90.000000
_cell_volume 2560.147619
_symmetry_space_group_name_H-M "C 2 2 21"
_symmetry_group_IT_number 20
_symmetry_cell_setting 'orthorhombic'
loop_
_space_group_symop_operation_xyz
x,y,z
-x,-y,1/2+z
x,-y,-z
-x,y,1/2-z
1/2+x,1/2+y,z
1/2-x,1/2-y,1/2+z
1/2+x,1/2-y,-z
1/2-x,1/2+y,1/2-z
loop_
_atom_site_type_symbol
_atom_site_label
_atom_site_fract_x
_atom_site_fract_y
_atom_site_fract_z
Si Si1 0.155133 0.147476 0.184646
Si Si2 0.699030 0.998968 0.122459
Si Si3 0.794052 0.956593 0.435639
Si Si4 0.000000 0.445110 0.750000
Si Si5 0.098006 0.722767 0.405092
Si Si6 0.102429 0.172214 0.972300
Si Si7 0.727114 0.377347 0.573971
O O1 0.347391 0.098178 0.203365
O O2 0.244200 0.210653 0.159693
O O3 0.000000 0.154650 0.250000
O O4 0.000945 0.123243 0.123093
O O5 0.672438 0.019124 0.199810
O O6 0.688037 0.056788 0.075559
O O7 0.447228 0.968099 0.106115
O O8 0.952642 0.968115 0.103847
O O9 0.772169 0.888668 0.456244
O O10 0.801399 0.000000 0.500000
O O11 0.254299 0.709476 0.471735
O O12 0.962563 0.783383 0.413763
O O13 0.914709 0.669095 0.399607
O O14 0.855795 0.148565 0.004260
#
# Coordination Sequence:
#
# PCOD9321321 Si02
#       7
#     8   8   8   4   8   8   8
#     4  11  21  37  63 100 130 164 219 290 336 388
#     4  12  25  42  66  98 133 176 223 282 337 399
#     4  12  26  41  65 100 140 175 219 277 337 414
#     4  12  24  40  70  92 134 166 236 284 330 394
#     4  11  22  39  65  97 131 172 222 281 343 405
#     4  11  24  39  64  96 138 178 218 275 345 418
#     4  11  21  38  62  98 132 165 216 272 347 389
#
# _framework density 20.311330999999999
#
# number of rings (size 3 to 8) (size 9 to 14) (size 15 to 20)
#    0.000    0.615    6.154    2.308    2.154    0.000 
#    0.000    0.000    1.692    1.846    0.000    0.000 
#    0.000    0.000    0.000    0.000    0.000    0.000 
#
# Total GULP energy -145139.935452 kJ/mol
# GULP energy per Si atom -5582.305210 kJ/mol
# Density = 2.026510 g / cm^3
# Si number density = 20.311331 Si / 1000 Ang^3
#
#
#
# Elastic Constant Matrix: (Units=GPa)
#
#
# Indices 1 2 3 4 5 6 
#
# 1 71.9475 1.6677 10.1040 0.0000 0.0000 0.0000
# 2 1.6677 78.6268 -0.0198 0.0000 0.0000 0.0000
# 3 10.1040 -0.0198 40.2914 0.0000 0.0000 0.0000
# 4 0.0000 0.0000 0.0000 23.6521 0.0000 0.0000
# 5 0.0000 0.0000 0.0000 0.0000 30.2877 0.0000
# 6 0.0000 0.0000 0.0000 0.0000 0.0000 17.4588
#
#
#
# Elastic Compliance Matrix: (Units=1/GPa)
#
#
# Indices 1 2 3 4 5 6 
#
# 1 0.014414 -0.000307 -0.003615 0.000000 0.000000 0.000000
# 2 -0.000307 0.012725 0.000083 0.000000 0.000000 0.000000
# 3 -0.003615 0.000083 0.025726 0.000000 0.000000 0.000000
# 4 0.000000 0.000000 0.000000 0.042280 0.000000 0.000000
# 5 0.000000 0.000000 0.000000 0.000000 0.033017 0.000000
# 6 0.000000 0.000000 0.000000 0.000000 0.000000 0.057278
#
#
# Mechanical properties :
#
#
# Convention : Reuss Voigt Hill
#
# Bulk Modulus (GPa) = 22.12980 23.81880 22.97430
# Shear Modulus (GPa) = 24.01799 26.22065 25.11932
#
# Velocity S-wave (km/s) = 3.44247 3.59686 3.52051
# Velocity P-wave (km/s) = 5.16911 5.38537 5.27835
#
# Compressibility (1/GPa) = 0.04518794
#
# Stress axis : x y z
#
# Youngs Moduli (GPa) = 69.37811 78.58646 38.87163
#
# Poissons Ratio (x) = 0.02410 0.14051
# Poissons Ratio (y) = 0.02127 -0.00323
# Poissons Ratio (z) = 0.25078 -0.00654
#
# Static dielectric constant tensor:
#      x y z
#    x 1.832710 0.000000 0.000000 
#    y 0.000000 1.752200 0.000000 
#    z 0.000000 0.000000 1.669750 
# 
# From -- ./inp_files/26091.got.cif
#   From: 2010.05.17/outbox.cif.g08.bks.cpg/sg20_14_cif.got.tgz:26091.got - 2010.06.03 22:52:26.
