data_PCOD9321683
_publ_section_title
;
Structure prediction by ZEFSAII (Michael W. Deem and Ramdas Pophale) SiO2 
 PCOD9321683
Probable space group: C 2 2 21
;
_chemical_formula_sum "Si O2"
_cell_formula_units_Z 60
_cell_length_a 19.025559
_cell_length_b 26.684685
_cell_length_c 5.138341
_cell_angle_alpha 90.000000
_cell_angle_beta 90.000000
_cell_angle_gamma 90.000000
_cell_volume 2608.689732
_symmetry_space_group_name_H-M "C 2 2 21"
_symmetry_group_IT_number 20
_symmetry_cell_setting 'orthorhombic'
loop_
_space_group_symop_operation_xyz
x,y,z
-x,-y,1/2+z
x,-y,-z
-x,y,1/2-z
1/2+x,1/2+y,z
1/2-x,1/2-y,1/2+z
1/2+x,1/2-y,-z
1/2-x,1/2+y,1/2-z
loop_
_atom_site_type_symbol
_atom_site_label
_atom_site_fract_x
_atom_site_fract_y
_atom_site_fract_z
Si Si1 0.210171 0.968076 0.252010
Si Si2 0.074803 0.096546 0.753406
Si Si3 0.810653 0.389990 0.513781
Si Si4 0.378251 0.846466 0.996423
Si Si5 0.064661 0.201537 0.048604
Si Si6 0.205978 0.249704 0.696136
Si Si7 0.000000 0.708267 0.250000
Si Si8 0.337912 0.660616 0.063993
O O1 0.144694 0.933101 0.158416
O O2 0.277283 0.938502 0.370145
O O3 0.183414 0.000000 0.500000
O O4 0.230670 0.000000 0.000000
O O5 0.103697 0.118087 0.478976
O O6 0.000000 0.068556 0.750000
O O7 0.058787 0.147209 0.913849
O O8 0.857051 0.388080 0.776830
O O9 0.737011 0.364204 0.602383
O O10 0.854555 0.362562 0.284491
O O11 0.457470 0.827055 0.948873
O O12 0.333675 0.797425 0.917277
O O13 0.133835 0.198149 0.222719
O O14 0.000000 0.204895 0.250000
O O15 0.053777 0.252453 0.885138
O O16 0.234932 0.260690 0.978576
O O17 0.166676 0.196174 0.689396
#
# Coordination Sequence:
#
# PCOD9321683 Si02
#       8
#     8   8   8   8   8   8   4   8
#     4  11  27  48  76 105 132 171 234 307 382 451
#     4  11  24  42  63  97 135 192 239 289 348 410
#     4  11  26  45  73  98 137 174 234 300 373 424
#     4  12  25  45  64 102 140 188 232 293 348 429
#     4  12  23  41  63  93 144 207 249 290 322 413
#     4  12  23  37  58  91 133 180 238 291 332 386
#     4  12  30  42  68 104 152 206 258 278 346 428
#     4  11  24  38  62  89 134 189 249 284 343 396
#
# _framework density 23.000053000000001
#
# number of rings (size 3 to 8) (size 9 to 14) (size 15 to 20)
#    0.000    0.533    4.667    2.400   14.933    0.533 
#    0.000    0.000    0.000    0.000    0.000    9.333 
#    0.000    0.000    0.000    0.000    0.000    0.000 
#
# Total GULP energy -167516.016126 kJ/mol
# GULP energy per Si atom -5583.867204 kJ/mol
# Density = 2.294770 g / cm^3
# Si number density = 23.000053 Si / 1000 Ang^3
#
#
#
# Elastic Constant Matrix: (Units=GPa)
#
#
# Indices 1 2 3 4 5 6 
#
# 1 63.7339 15.9452 28.9676 0.0000 0.0000 0.0000
# 2 15.9452 53.2545 9.6132 0.0000 0.0000 0.0000
# 3 28.9676 9.6132 102.8467 0.0000 0.0000 0.0000
# 4 0.0000 0.0000 0.0000 20.6226 0.0000 0.0000
# 5 0.0000 0.0000 0.0000 0.0000 36.4221 0.0000
# 6 0.0000 0.0000 0.0000 0.0000 0.0000 64.0996
#
#
#
# Elastic Compliance Matrix: (Units=1/GPa)
#
#
# Indices 1 2 3 4 5 6 
#
# 1 0.019147 -0.004841 -0.004940 0.000000 0.000000 0.000000
# 2 -0.004841 0.020324 -0.000536 0.000000 0.000000 0.000000
# 3 -0.004940 -0.000536 0.011165 0.000000 0.000000 0.000000
# 4 0.000000 0.000000 0.000000 0.048490 0.000000 0.000000
# 5 0.000000 0.000000 0.000000 0.000000 0.027456 0.000000
# 6 0.000000 0.000000 0.000000 0.000000 0.000000 0.015601
#
#
# Mechanical properties :
#
#
# Convention : Reuss Voigt Hill
#
# Bulk Modulus (GPa) = 33.33279 36.54302 34.93791
# Shear Modulus (GPa) = 28.93216 35.24947 32.09082
#
# Velocity S-wave (km/s) = 3.55056 3.91907 3.73936
# Velocity P-wave (km/s) = 5.59755 6.03337 5.81954
#
# Compressibility (1/GPa) = 0.03000048
#
# Stress axis : x y z
#
# Youngs Moduli (GPa) = 52.22800 49.20282 89.56699
#
# Poissons Ratio (x) = 0.23819 0.44249
# Poissons Ratio (y) = 0.25284 0.04803
# Poissons Ratio (z) = 0.25803 0.02638
#
# Static dielectric constant tensor:
#      x y z
#    x 2.003820 0.000000 0.000000 
#    y 0.000000 1.904920 0.000000 
#    z 0.000000 0.000000 1.983630 
# 
# From -- ./inp_files/2836.got.cif
#   From: 2010.05.17/outbox.cif.g08.bks.cpg/sg20_2_cif.got.tgz:2836.got - 2010.06.03 22:52:26.
