data_PCOD9321306
_publ_section_title
;
Structure prediction by ZEFSAII (Michael W. Deem and Ramdas Pophale) SiO2 
 PCOD9321306
Probable space group: C 2 2 21
;
_chemical_formula_sum "Si O2"
_cell_formula_units_Z 64
_cell_length_a 19.263612
_cell_length_b 8.787637
_cell_length_c 18.338504
_cell_angle_alpha 90.000000
_cell_angle_beta 90.000000
_cell_angle_gamma 90.000000
_cell_volume 3104.371841
_symmetry_space_group_name_H-M "C 2 2 21"
_symmetry_group_IT_number 20
_symmetry_cell_setting 'orthorhombic'
loop_
_space_group_symop_operation_xyz
x,y,z
-x,-y,1/2+z
x,-y,-z
-x,y,1/2-z
1/2+x,1/2+y,z
1/2-x,1/2-y,1/2+z
1/2+x,1/2-y,-z
1/2-x,1/2+y,1/2-z
loop_
_atom_site_type_symbol
_atom_site_label
_atom_site_fract_x
_atom_site_fract_y
_atom_site_fract_z
Si Si1 0.251124 0.792147 0.257350
Si Si2 0.744239 0.680242 0.504764
Si Si3 0.474631 0.599116 0.927710
Si Si4 0.839544 0.661265 0.883280
Si Si5 0.629266 0.634788 0.941071
Si Si6 0.344759 0.200118 0.128433
Si Si7 0.836052 0.963237 0.709791
Si Si8 0.453105 0.356160 0.811380
O O1 0.282489 0.783237 0.175848
O O2 0.178495 0.722165 0.287127
O O3 0.312951 0.711327 0.302306
O O4 0.228835 0.968910 0.256137
O O5 0.740843 0.500000 0.500000
O O6 0.685136 0.764711 0.457638
O O7 0.816472 0.741995 0.471741
O O8 0.720603 0.728049 0.585264
O O9 0.548358 0.683194 0.938879
O O10 0.412980 0.708537 0.898673
O O11 0.489743 0.470607 0.866600
O O12 0.455372 0.500000 0.000000
O O13 0.845674 0.479763 0.886878
O O14 0.911005 0.734105 0.857166
O O15 0.651646 0.560922 0.863028
O O16 0.632812 0.500000 0.000000
O O17 0.900664 0.958374 0.763521
O O18 0.500000 0.280209 0.750000
#
# Coordination Sequence:
#
# PCOD9321306 Si02
#       8
#     8   8   8   8   8   8   8   8
#     4  11  21  35  62  95 124 157 207 261 318 363
#     4  12  25  41  68  97 125 164 214 267 321 384
#     4  11  24  42  67  95 125 172 217 261 319 392
#     4  11  24  41  65  95 130 165 213 268 316 375
#     4  11  23  44  64  92 131 169 212 258 326 382
#     4  12  23  41  68  94 127 169 213 267 321 375
#     4  11  21  38  64  93 128 163 209 264 315 375
#     4  11  22  41  65  94 128 173 214 258 316 386
#
# _framework density 20.616085999999999
#
# number of rings (size 3 to 8) (size 9 to 14) (size 15 to 20)
#    0.000    0.750    5.000    3.750    1.750    0.000 
#    0.000    5.625    0.000    0.000    0.000    0.000 
#    0.000    0.000    0.000    0.000    0.000    0.000 
#
# Total GULP energy -178287.809500 kJ/mol
# GULP energy per Si atom -5571.494047 kJ/mol
# Density = 2.056916 g / cm^3
# Si number density = 20.616086 Si / 1000 Ang^3
#
#
#
# Elastic Constant Matrix: (Units=GPa)
#
#
# Indices 1 2 3 4 5 6 
#
# 1 84.6907 27.8349 14.5824 0.0000 0.0000 0.0000
# 2 27.8349 95.8905 25.1314 0.0000 0.0000 0.0000
# 3 14.5824 25.1314 36.7781 0.0000 0.0000 0.0000
# 4 0.0000 0.0000 0.0000 24.8530 0.0000 0.0000
# 5 0.0000 0.0000 0.0000 0.0000 32.9264 0.0000
# 6 0.0000 0.0000 0.0000 0.0000 0.0000 28.7881
#
#
#
# Elastic Compliance Matrix: (Units=1/GPa)
#
#
# Indices 1 2 3 4 5 6 
#
# 1 0.013360 -0.003033 -0.003225 0.000000 0.000000 0.000000
# 2 -0.003033 0.013392 -0.007949 0.000000 0.000000 0.000000
# 3 -0.003225 -0.007949 0.033900 0.000000 0.000000 0.000000
# 4 0.000000 0.000000 0.000000 0.040237 0.000000 0.000000
# 5 0.000000 0.000000 0.000000 0.000000 0.030371 0.000000
# 6 0.000000 0.000000 0.000000 0.000000 0.000000 0.034737
#
#
# Mechanical properties :
#
#
# Convention : Reuss Voigt Hill
#
# Bulk Modulus (GPa) = 31.01767 39.16185 35.08976
# Shear Modulus (GPa) = 24.37182 27.30087 25.83634
#
# Velocity S-wave (km/s) = 3.44201 3.64297 3.54392
# Velocity P-wave (km/s) = 5.55649 6.06069 5.81406
#
# Compressibility (1/GPa) = 0.03223968
#
# Stress axis : x y z
#
# Youngs Moduli (GPa) = 74.85193 74.67051 29.49835
#
# Poissons Ratio (x) = 0.22647 0.09512
# Poissons Ratio (y) = 0.22702 0.23447
# Poissons Ratio (z) = 0.24137 0.59353
#
# Static dielectric constant tensor:
#      x y z
#    x 1.787380 0.000000 0.000000 
#    y 0.000000 1.710600 0.000000 
#    z 0.000000 0.000000 1.781800 
# 
# From -- ./inp_files/25522.got.cif
#   From: 2010.05.17/outbox.cif.g08.bks.cpg/sg20_13_cif.got.tgz:25522.got - 2010.06.03 22:52:26.
