data_PCOD9321314
_publ_section_title
;
Structure prediction by ZEFSAII (Michael W. Deem and Ramdas Pophale) SiO2 
 PCOD9321314
Probable space group: C 2 2 21
;
_chemical_formula_sum "Si O2"
_cell_formula_units_Z 60
_cell_length_a 32.523282
_cell_length_b 11.264459
_cell_length_c 8.276007
_cell_angle_alpha 90.000000
_cell_angle_beta 90.000000
_cell_angle_gamma 90.000000
_cell_volume 3031.974558
_symmetry_space_group_name_H-M "C 2 2 21"
_symmetry_group_IT_number 20
_symmetry_cell_setting 'orthorhombic'
loop_
_space_group_symop_operation_xyz
x,y,z
-x,-y,1/2+z
x,-y,-z
-x,y,1/2-z
1/2+x,1/2+y,z
1/2-x,1/2-y,1/2+z
1/2+x,1/2-y,-z
1/2-x,1/2+y,1/2-z
loop_
_atom_site_type_symbol
_atom_site_label
_atom_site_fract_x
_atom_site_fract_y
_atom_site_fract_z
Si Si1 0.952146 0.213770 0.203725
Si Si2 0.375554 0.833149 0.358776
Si Si3 0.905605 0.792232 0.116670
Si Si4 0.302843 0.312731 0.796365
Si Si5 0.455641 0.455262 0.317951
Si Si6 0.655812 0.500000 0.500000
Si Si7 0.645108 0.902119 0.775089
Si Si8 0.773701 0.630827 0.077188
O O1 0.921367 0.288483 0.316768
O O2 0.000000 0.230990 0.250000
O O3 0.942481 0.073977 0.224537
O O4 0.940105 0.233651 0.017852
O O5 0.343917 0.740698 0.281830
O O6 0.364726 0.851591 0.546709
O O7 0.366709 0.960222 0.277269
O O8 0.925546 0.848606 0.277214
O O9 0.882363 0.671743 0.151886
O O10 0.873022 0.891569 0.057816
O O11 0.314950 0.441643 0.865580
O O12 0.267509 0.324115 0.663036
O O13 0.288342 0.224864 0.940896
O O14 0.458500 0.500000 0.500000
O O15 0.500000 0.421501 0.250000
O O16 0.691535 0.882869 0.715846
O O17 0.768296 0.500000 0.000000
#
# Coordination Sequence:
#
# PCOD9321314 Si02
#       8
#     8   8   8   8   8   4   8   8
#     4  11  22  40  66  98 138 179 231 289 344 402
#     4  11  23  47  67  99 132 185 227 283 343 405
#     4  12  22  42  66  99 134 180 229 275 346 409
#     4  12  26  43  71  96 138 172 225 287 334 417
#     4  11  21  36  61  95 135 177 224 286 347 400
#     4  12  24  40  66  98 130 170 224 268 342 408
#     4  11  25  43  72  95 135 181 232 272 344 418
#     4  12  26  45  69 103 132 180 228 276 353 400
#
# _framework density 19.789083999999999
#
# number of rings (size 3 to 8) (size 9 to 14) (size 15 to 20)
#    0.000    0.533    5.333    3.200    1.867    2.133 
#    0.000    4.000    0.000    0.000    0.000    0.000 
#    0.000    0.000    0.000    0.000    0.000    0.000 
#
# Total GULP energy -167699.813792 kJ/mol
# GULP energy per Si atom -5589.993793 kJ/mol
# Density = 1.974404 g / cm^3
# Si number density = 19.789084 Si / 1000 Ang^3
#
#
#
# Elastic Constant Matrix: (Units=GPa)
#
#
# Indices 1 2 3 4 5 6 
#
# 1 108.3548 35.8959 43.8513 0.0000 0.0000 0.0000
# 2 35.8959 66.0763 25.3020 0.0000 0.0000 0.0000
# 3 43.8513 25.3020 70.1983 0.0000 0.0000 0.0000
# 4 0.0000 0.0000 0.0000 34.0493 0.0000 0.0000
# 5 0.0000 0.0000 0.0000 0.0000 28.4662 0.0000
# 6 0.0000 0.0000 0.0000 0.0000 0.0000 28.0694
#
#
#
# Elastic Compliance Matrix: (Units=1/GPa)
#
#
# Indices 1 2 3 4 5 6 
#
# 1 0.013536 -0.004775 -0.006735 0.000000 0.000000 0.000000
# 2 -0.004775 0.019241 -0.003953 0.000000 0.000000 0.000000
# 3 -0.006735 -0.003953 0.019877 0.000000 0.000000 0.000000
# 4 0.000000 0.000000 0.000000 0.029369 0.000000 0.000000
# 5 0.000000 0.000000 0.000000 0.000000 0.035129 0.000000
# 6 0.000000 0.000000 0.000000 0.000000 0.000000 0.035626
#
#
# Mechanical properties :
#
#
# Convention : Reuss Voigt Hill
#
# Bulk Modulus (GPa) = 46.01833 50.52532 48.27183
# Shear Modulus (GPa) = 26.18523 27.42233 26.80378
#
# Velocity S-wave (km/s) = 3.64155 3.72658 3.68431
# Velocity P-wave (km/s) = 6.40204 6.64107 6.52265
#
# Compressibility (1/GPa) = 0.02173047
#
# Stress axis : x y z
#
# Youngs Moduli (GPa) = 73.87534 51.97127 50.30896
#
# Poissons Ratio (x) = 0.24815 0.33882
# Poissons Ratio (y) = 0.35273 0.19885
# Poissons Ratio (z) = 0.49754 0.20543
#
# Static dielectric constant tensor:
#      x y z
#    x 1.683680 0.000000 0.000000 
#    y 0.000000 1.657970 0.000000 
#    z 0.000000 0.000000 1.730200 
# 
# From -- ./inp_files/11572.got.cif
#   From: 2010.05.17/outbox.cif.g08.bks.cpg/sg20_6_cif.got.tgz:11572.got - 2010.06.03 22:52:26.
