data_PCOD9321089
_publ_section_title
;
Structure prediction by ZEFSAII (Michael W. Deem and Ramdas Pophale) SiO2 
 PCOD9321089
Probable space group: C 2 2 21
;
_chemical_formula_sum "Si O2"
_cell_formula_units_Z 32
_cell_length_a 14.968353
_cell_length_b 10.179879
_cell_length_c 8.904130
_cell_angle_alpha 90.000000
_cell_angle_beta 90.000000
_cell_angle_gamma 90.000000
_cell_volume 1356.775912
_symmetry_space_group_name_H-M "C 2 2 21"
_symmetry_group_IT_number 20
_symmetry_cell_setting 'orthorhombic'
loop_
_space_group_symop_operation_xyz
x,y,z
-x,-y,1/2+z
x,-y,-z
-x,y,1/2-z
1/2+x,1/2+y,z
1/2-x,1/2-y,1/2+z
1/2+x,1/2-y,-z
1/2-x,1/2+y,1/2-z
loop_
_atom_site_type_symbol
_atom_site_label
_atom_site_fract_x
_atom_site_fract_y
_atom_site_fract_z
Si Si1 0.140534 0.000000 0.000000
Si Si2 0.051020 0.500000 0.500000
Si Si3 0.440758 0.240868 0.601937
Si Si4 0.198959 0.386663 0.675436
Si Si5 0.758169 0.650640 0.508423
O O1 0.078544 0.872281 0.993337
O O2 0.211265 0.969777 0.865254
O O3 0.115065 0.478046 0.642347
O O4 0.992292 0.628053 0.515314
O O5 0.500000 0.270485 0.750000
O O6 0.341253 0.178314 0.620749
O O7 0.205199 0.329379 0.840698
O O8 0.191785 0.265116 0.558077
O O9 0.726846 0.500000 0.500000
#
# Coordination Sequence:
#
# PCOD9321089 Si02
#       5
#     4   4   8   8   8
#     4   9  24  48  72  97 150 190 242 305 362 438
#     4  11  24  44  70 105 142 184 244 305 364 442
#     4  11  24  45  72 103 149 189 240 299 373 442
#     4  10  25  44  73 105 140 191 247 305 366 437
#     4  11  24  44  74 104 143 191 244 304 370 436
#
# _framework density 23.585325000000001
#
# number of rings (size 3 to 8) (size 9 to 14) (size 15 to 20)
#    0.000    1.500    1.250    1.500   17.500    0.000 
#   11.250    0.000    0.000    0.000    0.000    0.000 
#    0.000    0.000    0.000    0.000    0.000    0.000 
#
# Total GULP energy -89358.375028 kJ/mol
# GULP energy per Si atom -5584.898439 kJ/mol
# Density = 2.353164 g / cm^3
# Si number density = 23.585325 Si / 1000 Ang^3
#
#
#
# Elastic Constant Matrix: (Units=GPa)
#
#
# Indices 1 2 3 4 5 6 
#
# 1 87.2352 54.2560 6.8074 0.0000 0.0000 0.0000
# 2 54.2560 196.6678 32.8155 0.0000 0.0000 0.0000
# 3 6.8074 32.8155 61.9140 0.0000 0.0000 0.0000
# 4 0.0000 0.0000 0.0000 35.5231 0.0000 0.0000
# 5 0.0000 0.0000 0.0000 0.0000 22.3373 0.0000
# 6 0.0000 0.0000 0.0000 0.0000 0.0000 32.3294
#
#
#
# Elastic Compliance Matrix: (Units=1/GPa)
#
#
# Indices 1 2 3 4 5 6 
#
# 1 0.013855 -0.003914 0.000551 0.000000 0.000000 0.000000
# 2 -0.003914 0.006684 -0.003112 0.000000 0.000000 0.000000
# 3 0.000551 -0.003112 0.017740 0.000000 0.000000 0.000000
# 4 0.000000 0.000000 0.000000 0.028151 0.000000 0.000000
# 5 0.000000 0.000000 0.000000 0.000000 0.044768 0.000000
# 6 0.000000 0.000000 0.000000 0.000000 0.000000 0.030932
#
#
# Mechanical properties :
#
#
# Convention : Reuss Voigt Hill
#
# Bulk Modulus (GPa) = 39.48097 59.28609 49.38353
# Shear Modulus (GPa) = 30.57688 34.83384 32.70536
#
# Velocity S-wave (km/s) = 3.60451 3.84725 3.72786
# Velocity P-wave (km/s) = 5.83946 6.70273 6.28593
#
# Compressibility (1/GPa) = 0.02532866
#
# Stress axis : x y z
#
# Youngs Moduli (GPa) = 72.17790 149.61482 56.36865
#
# Poissons Ratio (x) = 0.58561 -0.03107
# Poissons Ratio (y) = 0.28252 0.17543
# Poissons Ratio (z) = -0.03979 0.46563
#
# Static dielectric constant tensor:
#      x y z
#    x 1.910370 0.000000 0.000000 
#    y 0.000000 1.936320 0.000000 
#    z 0.000000 0.000000 1.909200 
# 
# From -- ./inp_files/6815.got.cif
#   From: 2010.05.17/outbox.cif.g08.bks.cpg/sg20_4_cif.got.tgz:6815.got - 2010.06.03 22:52:26.
