data_PCOD9321133
_publ_section_title
;
Structure prediction by ZEFSAII (Michael W. Deem and Ramdas Pophale) SiO2 
 PCOD9321133
Probable space group: C 2 2 21
;
_chemical_formula_sum "Si O2"
_cell_formula_units_Z 36
_cell_length_a 13.417349
_cell_length_b 22.360098
_cell_length_c 5.378477
_cell_angle_alpha 90.000000
_cell_angle_beta 90.000000
_cell_angle_gamma 90.000000
_cell_volume 1613.614303
_symmetry_space_group_name_H-M "C 2 2 21"
_symmetry_group_IT_number 20
_symmetry_cell_setting 'orthorhombic'
loop_
_space_group_symop_operation_xyz
x,y,z
-x,-y,1/2+z
x,-y,-z
-x,y,1/2-z
1/2+x,1/2+y,z
1/2-x,1/2-y,1/2+z
1/2+x,1/2-y,-z
1/2-x,1/2+y,1/2-z
loop_
_atom_site_type_symbol
_atom_site_label
_atom_site_fract_x
_atom_site_fract_y
_atom_site_fract_z
Si Si1 0.000000 0.037703 0.750000
Si Si2 0.935111 0.569673 0.995725
Si Si3 0.898834 0.123417 0.091066
Si Si4 0.118304 0.767516 0.272499
Si Si5 0.241189 0.654157 0.416506
O O1 0.085302 0.082132 0.649046
O O2 0.974890 0.000000 0.500000
O O3 0.000000 0.581405 0.250000
O O4 0.903784 0.500000 0.000000
O O5 0.842705 0.614142 0.957854
O O6 0.000000 0.577665 0.750000
O O7 0.802059 0.107992 0.245338
O O8 0.000000 0.119450 0.250000
O O9 0.879313 0.192078 0.019673
O O10 0.177847 0.706230 0.282813
O O11 0.175498 0.810313 0.076568
O O12 0.000000 0.757212 0.250000
#
# Coordination Sequence:
#
# PCOD9321133 Si02
#       5
#     4   8   8   8   8
#     4  12  26  50  76 106 150 214 258 318 400 456
#     4  10  25  52  79 108 148 195 257 323 377 448
#     4  12  24  48  71 105 160 198 260 322 374 467
#     4  12  25  43  70 109 153 200 256 318 383 461
#     4  12  26  44  77 111 152 208 256 314 395 468
#
# _framework density 22.310165000000001
#
# number of rings (size 3 to 8) (size 9 to 14) (size 15 to 20)
#    0.000    0.444    6.667    0.667    3.111    2.667 
#    8.000    0.000    0.000    0.000    0.000    0.000 
#    0.000    0.000    0.000    0.000    0.000    0.000 
#
# Total GULP energy -100459.329332 kJ/mol
# GULP energy per Si atom -5581.073852 kJ/mol
# Density = 2.225939 g / cm^3
# Si number density = 22.310165 Si / 1000 Ang^3
#
#
#
# Elastic Constant Matrix: (Units=GPa)
#
#
# Indices 1 2 3 4 5 6 
#
# 1 151.7751 78.7433 55.8861 0.0000 0.0000 0.0000
# 2 78.7433 98.7501 51.4606 0.0000 0.0000 0.0000
# 3 55.8861 51.4606 116.9446 0.0000 0.0000 0.0000
# 4 0.0000 0.0000 0.0000 32.1203 0.0000 0.0000
# 5 0.0000 0.0000 0.0000 0.0000 30.9874 0.0000
# 6 0.0000 0.0000 0.0000 0.0000 0.0000 -117.6164
#
#
#
# Elastic Compliance Matrix: (Units=1/GPa)
#
#
# Indices 1 2 3 4 5 6 
#
# 1 0.011556 -0.008222 -0.001904 0.000000 0.000000 0.000000
# 2 -0.008222 0.018990 -0.004427 0.000000 0.000000 0.000000
# 3 -0.001904 -0.004427 0.011409 0.000000 0.000000 0.000000
# 4 0.000000 0.000000 0.000000 0.031133 0.000000 0.000000
# 5 0.000000 0.000000 0.000000 0.000000 0.032271 0.000000
# 6 0.000000 0.000000 0.000000 0.000000 0.000000 -0.008502
#
#
# Mechanical properties :
#
#
# Convention : Reuss Voigt Hill
#
# Bulk Modulus (GPa) = 77.83417 82.18333 80.00875
# Shear Modulus (GPa) = 38.38881 1.19024 19.78953
#
# Velocity S-wave (km/s) = 4.15262 0.73120 2.98152
# Velocity P-wave (km/s) = 7.61284 6.13429 6.91321
#
# Compressibility (1/GPa) = 0.01284783
#
# Stress axis : x y z
#
# Youngs Moduli (GPa) = 86.53797 52.65931 87.64880
#
# Poissons Ratio (x) = 0.43297 0.16690
# Poissons Ratio (y) = 0.71153 0.38804
# Poissons Ratio (z) = 0.16478 0.23313
#
# Static dielectric constant tensor:
#      x y z
#    x 1.932270 0.000000 0.000000 
#    y 0.000000 1.834000 0.000000 
#    z 0.000000 0.000000 1.948360 
# 
# From -- ./inp_files/1216.got.cif
#   From: 2010.05.17/outbox.cif.g08.bks.cpg/sg20_1_cif.got.tgz:1216.got - 2010.06.03 22:52:26.
