data_PCOD9321273
_publ_section_title
;
Structure prediction by ZEFSAII (Michael W. Deem and Ramdas Pophale) SiO2 
 PCOD9321273
Probable space group: C 2 2 21
;
_chemical_formula_sum "Si O2"
_cell_formula_units_Z 56
_cell_length_a 13.922794
_cell_length_b 21.386259
_cell_length_c 7.488396
_cell_angle_alpha 90.000000
_cell_angle_beta 90.000000
_cell_angle_gamma 90.000000
_cell_volume 2229.718422
_symmetry_space_group_name_H-M "C 2 2 21"
_symmetry_group_IT_number 20
_symmetry_cell_setting 'orthorhombic'
loop_
_space_group_symop_operation_xyz
x,y,z
-x,-y,1/2+z
x,-y,-z
-x,y,1/2-z
1/2+x,1/2+y,z
1/2-x,1/2-y,1/2+z
1/2+x,1/2-y,-z
1/2-x,1/2+y,1/2-z
loop_
_atom_site_type_symbol
_atom_site_label
_atom_site_fract_x
_atom_site_fract_y
_atom_site_fract_z
Si Si1 0.888275 0.551202 0.764868
Si Si2 0.357610 0.742769 0.612618
Si Si3 0.839851 0.188337 0.996809
Si Si4 0.389928 0.500000 0.500000
Si Si5 0.119802 0.128600 0.150833
Si Si6 0.698458 0.552360 0.635068
Si Si7 0.000000 0.317881 0.750000
Si Si8 0.336007 0.089969 0.134255
O O1 0.813774 0.559768 0.605411
O O2 0.873713 0.478675 0.815428
O O3 0.000000 0.564144 0.750000
O O4 0.844393 0.593498 0.920772
O O5 0.261113 0.780769 0.563624
O O6 0.365456 0.677934 0.507905
O O7 0.455886 0.780539 0.581352
O O8 0.363985 0.731359 0.826231
O O9 0.902455 0.170633 0.172976
O O10 0.838525 0.120508 0.904188
O O11 0.434550 0.435201 0.583684
O O12 0.330037 0.471271 0.333143
O O13 0.227662 0.102296 0.193155
O O14 0.660975 0.500000 0.500000
O O15 0.910689 0.361478 0.793185
#
# Coordination Sequence:
#
# PCOD9321273 Si02
#       8
#     8   8   8   4   8   8   4   8
#     4  11  22  31  52  89 136 176 210 253 304 389
#     4  12  26  43  65  93 131 175 230 275 327 386
#     4  12  23  40  69  93 126 181 225 264 319 389
#     4  12  20  40  66 104 128 150 214 286 326 384
#     4  12  22  44  69  95 129 166 223 283 322 391
#     4  12  23  35  62  99 130 166 218 270 322 383
#     4  12  26  42  60  90 132 178 214 280 334 390
#     4  11  20  39  57  85 132 180 216 251 321 376
#
# _framework density 25.115278
#
# number of rings (size 3 to 8) (size 9 to 14) (size 15 to 20)
#    0.000    0.286    9.286    0.000    4.000    0.000 
#    0.000    0.714    0.000    0.000    5.571    0.000 
#    0.000    0.000    0.000    0.000    0.000    0.000 
#
# Total GULP energy -156356.489878 kJ/mol
# GULP energy per Si atom -5584.160353 kJ/mol
# Density = 2.505811 g / cm^3
# Si number density = 25.115278 Si / 1000 Ang^3
#
#
#
# Elastic Constant Matrix: (Units=GPa)
#
#
# Indices 1 2 3 4 5 6 
#
# 1 39.6087 6.9093 13.9500 0.0000 0.0000 0.0000
# 2 6.9093 121.5344 27.3829 0.0000 0.0000 0.0000
# 3 13.9500 27.3829 126.3569 0.0000 0.0000 0.0000
# 4 0.0000 0.0000 0.0000 53.3852 0.0000 0.0000
# 5 0.0000 0.0000 0.0000 0.0000 13.0734 0.0000
# 6 0.0000 0.0000 0.0000 0.0000 0.0000 11.3422
#
#
#
# Elastic Compliance Matrix: (Units=1/GPa)
#
#
# Indices 1 2 3 4 5 6 
#
# 1 0.026359 -0.000886 -0.002718 0.000000 0.000000 0.000000
# 2 -0.000886 0.008680 -0.001783 0.000000 0.000000 0.000000
# 3 -0.002718 -0.001783 0.008601 0.000000 0.000000 0.000000
# 4 0.000000 0.000000 0.000000 0.018732 0.000000 0.000000
# 5 0.000000 0.000000 0.000000 0.000000 0.076491 0.000000
# 6 0.000000 0.000000 0.000000 0.000000 0.000000 0.088166
#
#
# Mechanical properties :
#
#
# Convention : Reuss Voigt Hill
#
# Bulk Modulus (GPa) = 30.42761 42.66495 36.54628
# Shear Modulus (GPa) = 20.09977 31.51068 25.80523
#
# Velocity S-wave (km/s) = 2.83203 3.54594 3.20890
# Velocity P-wave (km/s) = 4.77863 5.81287 5.32094
#
# Compressibility (1/GPa) = 0.03286489
#
# Stress axis : x y z
#
# Youngs Moduli (GPa) = 37.93793 115.20356 116.27069
#
# Poissons Ratio (x) = 0.10208 0.31603
# Poissons Ratio (y) = 0.03362 0.20734
# Poissons Ratio (z) = 0.10312 0.20544
#
# Static dielectric constant tensor:
#      x y z
#    x 2.069760 0.000000 0.000000 
#    y 0.000000 2.061900 0.000000 
#    z 0.000000 0.000000 2.088030 
# 
# From -- ./inp_files/8770.got.cif
#   From: 2010.05.17/outbox.cif.g08.bks.cpg/sg20_5_cif.got.tgz:8770.got - 2010.06.03 22:52:26.
