data_PCOD9321552
_publ_section_title
;
Structure prediction by ZEFSAII (Michael W. Deem and Ramdas Pophale) SiO2 
 PCOD9321552
Probable space group: C 2 2 21
;
_chemical_formula_sum "Si O2"
_cell_formula_units_Z 64
_cell_length_a 11.869082
_cell_length_b 18.487249
_cell_length_c 13.923264
_cell_angle_alpha 90.000000
_cell_angle_beta 90.000000
_cell_angle_gamma 90.000000
_cell_volume 3055.135515
_symmetry_space_group_name_H-M "C 2 2 21"
_symmetry_group_IT_number 20
_symmetry_cell_setting 'orthorhombic'
loop_
_space_group_symop_operation_xyz
x,y,z
-x,-y,1/2+z
x,-y,-z
-x,y,1/2-z
1/2+x,1/2+y,z
1/2-x,1/2-y,1/2+z
1/2+x,1/2-y,-z
1/2-x,1/2+y,1/2-z
loop_
_atom_site_type_symbol
_atom_site_label
_atom_site_fract_x
_atom_site_fract_y
_atom_site_fract_z
Si Si1 0.249007 0.686254 0.116983
Si Si2 0.743824 0.570157 0.552291
Si Si3 0.996833 0.245272 0.142116
Si Si4 0.377287 0.686269 0.528699
Si Si5 0.317282 0.922643 0.994741
Si Si6 0.620101 0.164081 0.303507
Si Si7 0.577313 0.332319 0.343109
Si Si8 0.479774 0.081481 0.640563
O O1 0.370364 0.725440 0.108689
O O2 0.152539 0.744631 0.093208
O O3 0.217504 0.657444 0.222610
O O4 0.241635 0.627216 0.033916
O O5 0.692135 0.500000 0.500000
O O6 0.676209 0.611021 0.637027
O O7 0.864473 0.551046 0.597771
O O8 0.021964 0.330716 0.141178
O O9 0.000000 0.218259 0.250000
O O10 0.093522 0.209839 0.078437
O O11 0.271428 0.634944 0.533523
O O12 0.492603 0.655315 0.569037
O O13 0.360635 0.889857 0.893201
O O14 0.419614 0.934716 0.068091
O O15 0.256785 0.000000 0.000000
O O16 0.500000 0.151102 0.250000
O O17 0.618608 0.248489 0.339405
O O18 0.500000 0.344662 0.250000
O O19 0.500000 0.057168 0.750000
#
# Coordination Sequence:
#
# PCOD9321552 Si02
#       8
#     8   8   8   8   8   8   8   8
#     4  12  22  42  70  99 134 177 237 287 348 403
#     4  12  27  45  66 101 145 186 224 281 351 424
#     4  11  23  39  67 102 132 172 231 297 345 397
#     4  12  22  44  70  99 138 174 232 291 344 408
#     4  12  27  44  66 102 144 186 225 280 353 424
#     4  11  23  43  74 104 133 181 232 290 344 407
#     4  11  24  44  76 102 132 181 239 291 342 410
#     4  11  25  41  69  99 136 178 229 285 346 414
#
# _framework density 20.948335
#
# number of rings (size 3 to 8) (size 9 to 14) (size 15 to 20)
#    0.000    0.500    6.250    3.375    5.250    2.000 
#    0.000    0.625    0.000    0.000    0.000    0.000 
#    0.000    0.000    0.000    0.000    0.000    0.000 
#
# Total GULP energy -178847.562298 kJ/mol
# GULP energy per Si atom -5588.986322 kJ/mol
# Density = 2.090066 g / cm^3
# Si number density = 20.948335 Si / 1000 Ang^3
#
#
#
# Elastic Constant Matrix: (Units=GPa)
#
#
# Indices 1 2 3 4 5 6 
#
# 1 51.0215 -0.6656 8.4793 0.0000 0.0000 0.0000
# 2 -0.6656 56.9888 25.6666 0.0000 0.0000 0.0000
# 3 8.4793 25.6666 113.5001 0.0000 0.0000 0.0000
# 4 0.0000 0.0000 0.0000 15.3422 0.0000 0.0000
# 5 0.0000 0.0000 0.0000 0.0000 38.6031 0.0000
# 6 0.0000 0.0000 0.0000 0.0000 0.0000 -6.5090
#
#
#
# Elastic Compliance Matrix: (Units=1/GPa)
#
#
# Indices 1 2 3 4 5 6 
#
# 1 0.019897 0.001004 -0.001714 0.000000 0.000000 0.000000
# 2 0.001004 0.019588 -0.004505 0.000000 0.000000 0.000000
# 3 -0.001714 -0.004505 0.009957 0.000000 0.000000 0.000000
# 4 0.000000 0.000000 0.000000 0.065180 0.000000 0.000000
# 5 0.000000 0.000000 0.000000 0.000000 0.025905 0.000000
# 6 0.000000 0.000000 0.000000 0.000000 0.000000 -0.153634
#
#
# Mechanical properties :
#
#
# Convention : Reuss Voigt Hill
#
# Bulk Modulus (GPa) = 25.63148 32.05234 28.84191
# Shear Modulus (GPa) = 484.22168 22.02261 253.12214
#
# Velocity S-wave (km/s) = 15.22013 3.24587 11.00427
# Velocity P-wave (km/s) = 17.92015 5.42046 13.23845
#
# Compressibility (1/GPa) = 0.03901453
#
# Stress axis : x y z
#
# Youngs Moduli (GPa) = 50.25770 51.05223 100.42958
#
# Poissons Ratio (x) = -0.05126 0.17209
# Poissons Ratio (y) = -0.05047 0.45239
# Poissons Ratio (z) = 0.08612 0.22997
#
# Static dielectric constant tensor:
#      x y z
#    x 1.759650 0.000000 0.000000 
#    y 0.000000 1.796510 0.000000 
#    z 0.000000 0.000000 1.855890 
# 
# From -- ./inp_files/20283.got.cif
#   From: 2010.05.17/outbox.cif.g08.bks.cpg/sg20_11_cif.got.tgz:20283.got - 2010.06.03 22:52:26.
