data_PCOD9321579
_publ_section_title
;
Structure prediction by ZEFSAII (Michael W. Deem and Ramdas Pophale) SiO2 
 PCOD9321579
Probable space group: C 2 2 21
;
_chemical_formula_sum "Si O2"
_cell_formula_units_Z 44
_cell_length_a 11.230757
_cell_length_b 9.093640
_cell_length_c 16.790753
_cell_angle_alpha 90.000000
_cell_angle_beta 90.000000
_cell_angle_gamma 90.000000
_cell_volume 1714.813764
_symmetry_space_group_name_H-M "C 2 2 21"
_symmetry_group_IT_number 20
_symmetry_cell_setting 'orthorhombic'
loop_
_space_group_symop_operation_xyz
x,y,z
-x,-y,1/2+z
x,-y,-z
-x,y,1/2-z
1/2+x,1/2+y,z
1/2-x,1/2-y,1/2+z
1/2+x,1/2-y,-z
1/2-x,1/2+y,1/2-z
loop_
_atom_site_type_symbol
_atom_site_label
_atom_site_fract_x
_atom_site_fract_y
_atom_site_fract_z
Si Si1 0.550215 0.573775 0.420533
Si Si2 0.000000 0.879471 0.750000
Si Si3 0.890948 0.659392 0.192498
Si Si4 0.187073 0.634920 0.757032
Si Si5 0.358005 0.831325 0.983043
Si Si6 0.308448 0.914074 0.430049
O O1 0.495202 0.500000 0.500000
O O2 0.484417 0.546304 0.336691
O O3 0.573401 0.742256 0.448156
O O4 0.683885 0.503730 0.415687
O O5 0.110013 0.772673 0.729586
O O6 0.816801 0.507520 0.202285
O O7 0.814914 0.797323 0.223680
O O8 0.925215 0.682517 0.101409
O O9 0.000000 0.642359 0.250000
O O10 0.133518 0.594444 0.844203
O O11 0.235300 0.743230 0.962769
O O12 0.336859 0.000000 0.000000
O O13 0.374842 0.000000 0.500000
#
# Coordination Sequence:
#
# PCOD9321579 Si02
#       6
#     8   4   8   8   8   8
#     4   9  20  41  64  96 132 185 234 284 348 418
#     4  12  22  40  72 100 142 180 230 294 348 426
#     4  11  24  46  66 102 140 182 239 291 351 421
#     4  11  23  42  67 104 135 183 238 282 357 416
#     4   9  18  36  66  92 135 173 225 291 346 413
#     4   8  18  40  62  92 132 180 235 280 345 418
#
# _framework density 25.658761999999999
#
# number of rings (size 3 to 8) (size 9 to 14) (size 15 to 20)
#    0.000    2.545    0.909    2.182    0.000    1.455 
#   29.455    3.636    0.000    0.000    0.000    0.000 
#    0.000    0.000    0.000    0.000    0.000    0.000 
#
# Total GULP energy -123093.910826 kJ/mol
# GULP energy per Si atom -5595.177765 kJ/mol
# Density = 2.560036 g / cm^3
# Si number density = 25.658762 Si / 1000 Ang^3
#
#
#
# Elastic Constant Matrix: (Units=GPa)
#
#
# Indices 1 2 3 4 5 6 
#
# 1 46.5027 16.1680 22.1478 0.0000 0.0000 0.0000
# 2 16.1680 127.9284 37.8259 0.0000 0.0000 0.0000
# 3 22.1478 37.8259 191.0548 0.0000 0.0000 0.0000
# 4 0.0000 0.0000 0.0000 48.5162 0.0000 0.0000
# 5 0.0000 0.0000 0.0000 0.0000 27.0069 0.0000
# 6 0.0000 0.0000 0.0000 0.0000 0.0000 26.3674
#
#
#
# Elastic Compliance Matrix: (Units=1/GPa)
#
#
# Indices 1 2 3 4 5 6 
#
# 1 0.023374 -0.002287 -0.002257 0.000000 0.000000 0.000000
# 2 -0.002287 0.008527 -0.001423 0.000000 0.000000 0.000000
# 3 -0.002257 -0.001423 0.005777 0.000000 0.000000 0.000000
# 4 0.000000 0.000000 0.000000 0.020612 0.000000 0.000000
# 5 0.000000 0.000000 0.000000 0.000000 0.037028 0.000000
# 6 0.000000 0.000000 0.000000 0.000000 0.000000 0.037926
#
#
# Mechanical properties :
#
#
# Convention : Reuss Voigt Hill
#
# Bulk Modulus (GPa) = 38.84278 57.52992 48.18635
# Shear Modulus (GPa) = 32.51862 39.66771 36.09316
#
# Velocity S-wave (km/s) = 3.56385 3.93615 3.75462
# Velocity P-wave (km/s) = 5.66619 6.56716 6.13324
#
# Compressibility (1/GPa) = 0.02574481
#
# Stress axis : x y z
#
# Youngs Moduli (GPa) = 42.78242 117.27930 173.08617
#
# Poissons Ratio (x) = 0.26819 0.39063
# Poissons Ratio (y) = 0.09783 0.24631
# Poissons Ratio (z) = 0.09655 0.16690
#
# Static dielectric constant tensor:
#      x y z
#    x 2.027470 0.000000 0.000000 
#    y 0.000000 2.098740 0.000000 
#    z 0.000000 0.000000 2.026520 
# 
# From -- ./inp_files/24746.got.cif
#   From: 2010.05.17/outbox.cif.g08.bks.cpg/sg20_13_cif.got.tgz:24746.got - 2010.06.03 22:52:26.
