data_PCOD9321315
_publ_section_title
;
Structure prediction by ZEFSAII (Michael W. Deem and Ramdas Pophale) SiO2 
 PCOD9321315
Probable space group: C 2 2 21
;
_chemical_formula_sum "Si O2"
_cell_formula_units_Z 32
_cell_length_a 19.007715
_cell_length_b 5.042389
_cell_length_c 16.734532
_cell_angle_alpha 90.000000
_cell_angle_beta 90.000000
_cell_angle_gamma 90.000000
_cell_volume 1603.909389
_symmetry_space_group_name_H-M "C 2 2 21"
_symmetry_group_IT_number 20
_symmetry_cell_setting 'orthorhombic'
loop_
_space_group_symop_operation_xyz
x,y,z
-x,-y,1/2+z
x,-y,-z
-x,y,1/2-z
1/2+x,1/2+y,z
1/2-x,1/2-y,1/2+z
1/2+x,1/2-y,-z
1/2-x,1/2+y,1/2-z
loop_
_atom_site_type_symbol
_atom_site_label
_atom_site_fract_x
_atom_site_fract_y
_atom_site_fract_z
Si Si1 0.936852 0.109139 0.812451
Si Si2 0.254249 0.258603 0.445880
Si Si3 0.291509 0.609521 0.725465
Si Si4 0.411280 0.875135 0.084536
O O1 0.865481 0.040635 0.764905
O O2 0.924587 0.396865 0.850677
O O3 0.000000 0.107200 0.750000
O O4 0.946216 0.893519 0.882951
O O5 0.278990 0.500000 0.500000
O O6 0.295167 0.263900 0.362522
O O7 0.171746 0.307125 0.425041
O O8 0.259622 0.000000 0.500000
O O9 0.246607 0.338709 0.722755
O O10 0.434535 0.000000 0.000000
#
# Coordination Sequence:
#
# PCOD9321315 Si02
#       4
#     8   8   8   8
#     4  12  24  42  64  97 130 169 211 262 320 382
#     4  11  21  36  62  92 124 159 211 263 311 364
#     4  12  22  40  63  93 127 163 213 262 318 370
#     4  11  22  40  66  94 123 167 218 263 309 383
#
# _framework density 19.951250000000002
#
# number of rings (size 3 to 8) (size 9 to 14) (size 15 to 20)
#    0.000    0.500    5.000    6.000    0.000    0.000 
#    0.000    3.750    0.000    0.000    0.000    0.000 
#    0.000    0.000    0.000    0.000    0.000    0.000 
#
# Total GULP energy -89452.820755 kJ/mol
# GULP energy per Si atom -5590.801297 kJ/mol
# Density = 1.990584 g / cm^3
# Si number density = 19.951250 Si / 1000 Ang^3
#
#
#
# Elastic Constant Matrix: (Units=GPa)
#
#
# Indices 1 2 3 4 5 6 
#
# 1 61.4176 15.3205 23.9964 0.0000 0.0000 0.0000
# 2 15.3205 122.3184 22.1438 0.0000 0.0000 0.0000
# 3 23.9964 22.1438 98.6890 0.0000 0.0000 0.0000
# 4 0.0000 0.0000 0.0000 54.8794 0.0000 0.0000
# 5 0.0000 0.0000 0.0000 0.0000 38.3590 0.0000
# 6 0.0000 0.0000 0.0000 0.0000 0.0000 19.2873
#
#
#
# Elastic Compliance Matrix: (Units=1/GPa)
#
#
# Indices 1 2 3 4 5 6 
#
# 1 0.018268 -0.001547 -0.004095 0.000000 0.000000 0.000000
# 2 -0.001547 0.008653 -0.001565 0.000000 0.000000 0.000000
# 3 -0.004095 -0.001565 0.011480 0.000000 0.000000 0.000000
# 4 0.000000 0.000000 0.000000 0.018222 0.000000 0.000000
# 5 0.000000 0.000000 0.000000 0.000000 0.026070 0.000000
# 6 0.000000 0.000000 0.000000 0.000000 0.000000 0.051848
#
#
# Mechanical properties :
#
#
# Convention : Reuss Voigt Hill
#
# Bulk Modulus (GPa) = 41.69069 45.03849 43.36459
# Shear Modulus (GPa) = 31.85770 37.23608 34.54689
#
# Velocity S-wave (km/s) = 4.00030 4.32482 4.16572
# Velocity P-wave (km/s) = 6.50217 6.89652 6.70225
#
# Compressibility (1/GPa) = 0.02398617
#
# Stress axis : x y z
#
# Youngs Moduli (GPa) = 54.74153 115.57353 87.11010
#
# Poissons Ratio (x) = 0.17876 0.35670
# Poissons Ratio (y) = 0.08467 0.13636
# Poissons Ratio (z) = 0.22415 0.18091
#
# Static dielectric constant tensor:
#      x y z
#    x 1.665390 0.000000 0.000000 
#    y 0.000000 1.698650 0.000000 
#    z 0.000000 0.000000 1.684970 
# 
# From -- ./inp_files/17425.got.cif
#   From: 2010.05.17/outbox.cif.g08.bks.cpg/sg20_9_cif.got.tgz:17425.got - 2010.06.03 22:52:26.
