data_PCOD9321531
_publ_section_title
;
Structure prediction by ZEFSAII (Michael W. Deem and Ramdas Pophale) SiO2 
 PCOD9321531
Probable space group: C 2 2 21
;
_chemical_formula_sum "Si O2"
_cell_formula_units_Z 56
_cell_length_a 32.344919
_cell_length_b 14.143654
_cell_length_c 5.463647
_cell_angle_alpha 90.000000
_cell_angle_beta 90.000000
_cell_angle_gamma 90.000000
_cell_volume 2499.483785
_symmetry_space_group_name_H-M "C 2 2 21"
_symmetry_group_IT_number 20
_symmetry_cell_setting 'orthorhombic'
loop_
_space_group_symop_operation_xyz
x,y,z
-x,-y,1/2+z
x,-y,-z
-x,y,1/2-z
1/2+x,1/2+y,z
1/2-x,1/2-y,1/2+z
1/2+x,1/2-y,-z
1/2-x,1/2+y,1/2-z
loop_
_atom_site_type_symbol
_atom_site_label
_atom_site_fract_x
_atom_site_fract_y
_atom_site_fract_z
Si Si1 0.245097 0.805765 0.965644
Si Si2 0.545801 0.749870 0.297114
Si Si3 0.327373 0.104346 0.893376
Si Si4 0.604854 0.104145 0.970860
Si Si5 0.344211 0.389935 0.550153
Si Si6 0.924027 0.059506 0.248450
Si Si7 0.116443 0.754007 0.360361
O O1 0.259646 0.759999 0.708038
O O2 0.199913 0.845092 0.904862
O O3 0.279068 0.881719 0.056316
O O4 0.500000 0.786784 0.250000
O O5 0.577094 0.829192 0.199309
O O6 0.546379 0.646035 0.178229
O O7 0.570268 0.720031 0.544427
O O8 0.348044 0.099989 0.626110
O O9 0.346788 0.206383 0.979854
O O10 0.339413 0.000000 0.000000
O O11 0.605268 0.157197 0.221682
O O12 0.587865 0.000000 0.000000
O O13 0.336543 0.500000 0.500000
O O14 0.377979 0.391940 0.769422
O O15 0.365769 0.331664 0.328233
O O16 0.922169 0.000000 0.500000
O O17 0.932392 0.000000 0.000000
#
# Coordination Sequence:
#
# PCOD9321531 Si02
#       7
#     8   8   8   8   8   8   8
#     4  12  27  43  67 104 146 191 242 305 359 421
#     4  11  26  44  69 107 143 184 236 305 369 439
#     4  11  23  41  70  99 137 189 251 300 358 434
#     4  11  23  44  73 101 136 194 241 296 366 437
#     4  11  23  45  71 103 142 192 238 300 361 438
#     4  11  25  46  76 107 141 193 243 293 366 450
#     4  11  22  46  71  99 141 186 241 295 363 443
#
# _framework density 22.404627000000001
#
# number of rings (size 3 to 8) (size 9 to 14) (size 15 to 20)
#    0.000    0.857    4.286    3.000    2.000    3.429 
#    2.571    1.429    0.000    0.000    0.000    0.000 
#    0.000    0.000    0.000    0.000    0.000    0.000 
#
# Total GULP energy -155877.803874 kJ/mol
# GULP energy per Si atom -5567.064424 kJ/mol
# Density = 2.235363 g / cm^3
# Si number density = 22.404627 Si / 1000 Ang^3
#
#
#
# Elastic Constant Matrix: (Units=GPa)
#
#
# Indices 1 2 3 4 5 6 
#
# 1 97.3923 23.2328 11.7851 0.0000 0.0000 0.0000
# 2 23.2328 124.6857 15.6060 0.0000 0.0000 0.0000
# 3 11.7851 15.6060 42.1612 0.0000 0.0000 0.0000
# 4 0.0000 0.0000 0.0000 36.0913 0.0000 0.0000
# 5 0.0000 0.0000 0.0000 0.0000 16.9099 0.0000
# 6 0.0000 0.0000 0.0000 0.0000 0.0000 11.8847
#
#
#
# Elastic Compliance Matrix: (Units=1/GPa)
#
#
# Indices 1 2 3 4 5 6 
#
# 1 0.010977 -0.001742 -0.002423 0.000000 0.000000 0.000000
# 2 -0.001742 0.008686 -0.002728 0.000000 0.000000 0.000000
# 3 -0.002423 -0.002728 0.025406 0.000000 0.000000 0.000000
# 4 0.000000 0.000000 0.000000 0.027708 0.000000 0.000000
# 5 0.000000 0.000000 0.000000 0.000000 0.059137 0.000000
# 6 0.000000 0.000000 0.000000 0.000000 0.000000 0.084142
#
#
# Mechanical properties :
#
#
# Convention : Reuss Voigt Hill
#
# Bulk Modulus (GPa) = 31.96810 40.60967 36.28888
# Shear Modulus (GPa) = 20.81001 27.21821 24.01411
#
# Velocity S-wave (km/s) = 3.05097 3.48925 3.27744
# Velocity P-wave (km/s) = 5.16824 5.86499 5.52760
#
# Compressibility (1/GPa) = 0.03128118
#
# Stress axis : x y z
#
# Youngs Moduli (GPa) = 91.10336 115.12489 39.36117
#
# Poissons Ratio (x) = 0.20054 0.09539
# Poissons Ratio (y) = 0.15870 0.10739
# Poissons Ratio (z) = 0.22078 0.31409
#
# Static dielectric constant tensor:
#      x y z
#    x 1.862500 0.000000 0.000000 
#    y 0.000000 2.086850 0.000000 
#    z 0.000000 0.000000 1.971340 
# 
# From -- ./inp_files/4688.got.cif
#   From: 2010.05.17/outbox.cif.g08.bks.cpg/sg20_3_cif.got.tgz:4688.got - 2010.06.03 22:52:26.
