data_PCOD9321001
_publ_section_title
;
Structure prediction by ZEFSAII (Michael W. Deem and Ramdas Pophale) SiO2 
 PCOD9321001
Probable space group: C 2 2 21
;
_chemical_formula_sum "Si O2"
_cell_formula_units_Z 32
_cell_length_a 18.144189
_cell_length_b 13.207488
_cell_length_c 5.121700
_cell_angle_alpha 90.000000
_cell_angle_beta 90.000000
_cell_angle_gamma 90.000000
_cell_volume 1227.359878
_symmetry_space_group_name_H-M "C 2 2 21"
_symmetry_group_IT_number 20
_symmetry_cell_setting 'orthorhombic'
loop_
_space_group_symop_operation_xyz
x,y,z
-x,-y,1/2+z
x,-y,-z
-x,y,1/2-z
1/2+x,1/2+y,z
1/2-x,1/2-y,1/2+z
1/2+x,1/2-y,-z
1/2-x,1/2+y,1/2-z
loop_
_atom_site_type_symbol
_atom_site_label
_atom_site_fract_x
_atom_site_fract_y
_atom_site_fract_z
Si Si1 0.779144 0.094410 0.707270
Si Si2 0.051742 0.000000 0.000000
Si Si3 0.500000 0.233097 0.250000
Si Si4 0.842916 0.697618 0.517497
Si Si5 0.897547 0.844554 0.890225
O O1 0.793204 0.208783 0.591566
O O2 0.710714 0.105583 0.910828
O O3 0.850559 0.094781 0.898505
O O4 0.768216 0.000000 0.500000
O O5 0.901371 0.909622 0.625348
O O6 0.000000 0.983107 0.250000
O O7 0.421845 0.183634 0.359852
O O8 0.472458 0.305512 0.018399
O O9 0.864392 0.738614 0.802499
#
# Coordination Sequence:
#
# PCOD9321001 Si02
#       5
#     8   4   4   8   8
#     4  11  26  48  80 121 170 227 285 359 441 527
#     4  12  30  42  68 116 176 220 270 332 436 544
#     4  10  24  46  82 110 172 228 272 360 434 512
#     4  11  23  48  72 120 168 215 285 350 435 521
#     4  11  26  47  69 118 164 217 269 347 433 517
#
# _framework density 26.072220000000002
#
# number of rings (size 3 to 8) (size 9 to 14) (size 15 to 20)
#    0.000    1.000    2.500    2.250   12.250    5.000 
#    0.000    0.000    0.000    0.000    6.500    0.000 
#    0.000    0.000    0.000    0.000    0.000    0.000 
#
# Total GULP energy -89103.969821 kJ/mol
# GULP energy per Si atom -5568.998114 kJ/mol
# Density = 2.601288 g / cm^3
# Si number density = 26.072220 Si / 1000 Ang^3
#
#
#
# Elastic Constant Matrix: (Units=GPa)
#
#
# Indices 1 2 3 4 5 6 
#
# 1 197.6750 60.8048 70.4559 0.0000 0.0000 0.0000
# 2 60.8048 98.0924 51.4281 0.0000 0.0000 0.0000
# 3 70.4559 51.4281 191.3594 0.0000 0.0000 0.0000
# 4 0.0000 0.0000 0.0000 58.7337 0.0000 0.0000
# 5 0.0000 0.0000 0.0000 0.0000 70.6733 0.0000
# 6 0.0000 0.0000 0.0000 0.0000 0.0000 28.0878
#
#
#
# Elastic Compliance Matrix: (Units=1/GPa)
#
#
# Indices 1 2 3 4 5 6 
#
# 1 0.006626 -0.003292 -0.001555 0.000000 0.000000 0.000000
# 2 -0.003292 0.013502 -0.002417 0.000000 0.000000 0.000000
# 3 -0.001555 -0.002417 0.006448 0.000000 0.000000 0.000000
# 4 0.000000 0.000000 0.000000 0.017026 0.000000 0.000000
# 5 0.000000 0.000000 0.000000 0.000000 0.014150 0.000000
# 6 0.000000 0.000000 0.000000 0.000000 0.000000 0.035603
#
#
# Mechanical properties :
#
#
# Convention : Reuss Voigt Hill
#
# Bulk Modulus (GPa) = 82.99652 94.72271 88.85961
# Shear Modulus (GPa) = 44.68425 51.79483 48.23954
#
# Velocity S-wave (km/s) = 4.14438 4.46195 4.30609
# Velocity P-wave (km/s) = 7.40294 7.93443 7.67329
#
# Compressibility (1/GPa) = 0.01204870
#
# Stress axis : x y z
#
# Youngs Moduli (GPa) = 150.93134 74.06299 155.09441
#
# Poissons Ratio (x) = 0.24381 0.24113
# Poissons Ratio (y) = 0.49685 0.37481
# Poissons Ratio (z) = 0.23466 0.17899
#
# Static dielectric constant tensor:
#      x y z
#    x 2.329770 0.000000 0.000000 
#    y 0.000000 2.146600 0.000000 
#    z 0.000000 0.000000 2.105540 
# 
# From -- ./inp_files/1593.got.cif
#   From: 2010.05.17/outbox.cif.g08.bks.cpg/sg20_1_cif.got.tgz:1593.got - 2010.06.03 22:52:26.
