data_PCOD9321297
_publ_section_title
;
Structure prediction by ZEFSAII (Michael W. Deem and Ramdas Pophale) SiO2 
 PCOD9321297
Probable space group: C 2 2 21
;
_chemical_formula_sum "Si O2"
_cell_formula_units_Z 32
_cell_length_a 9.657497
_cell_length_b 9.368006
_cell_length_c 15.339478
_cell_angle_alpha 90.000000
_cell_angle_beta 90.000000
_cell_angle_gamma 90.000000
_cell_volume 1387.785428
_symmetry_space_group_name_H-M "C 2 2 21"
_symmetry_group_IT_number 20
_symmetry_cell_setting 'orthorhombic'
loop_
_space_group_symop_operation_xyz
x,y,z
-x,-y,1/2+z
x,-y,-z
-x,y,1/2-z
1/2+x,1/2+y,z
1/2-x,1/2-y,1/2+z
1/2+x,1/2-y,-z
1/2-x,1/2+y,1/2-z
loop_
_atom_site_type_symbol
_atom_site_label
_atom_site_fract_x
_atom_site_fract_y
_atom_site_fract_z
Si Si1 0.569641 0.413081 0.915398
Si Si2 0.112029 0.842614 0.373081
Si Si3 0.307574 0.368876 0.313955
Si Si4 0.912096 0.657391 0.964499
O O1 0.421053 0.493578 0.900364
O O2 0.656746 0.463407 0.832482
O O3 0.627159 0.500000 0.000000
O O4 0.544424 0.251199 0.937335
O O5 0.151330 0.744780 0.453771
O O6 0.205662 0.840449 0.287732
O O7 0.953261 0.797312 0.345242
O O8 0.184045 0.338041 0.379129
O O9 0.942730 0.500000 0.000000
#
# Coordination Sequence:
#
# PCOD9321297 Si02
#       4
#     8   8   8   8
#     4   8  16  35  58  79 116 159 204 239 303 381
#     4   8  19  39  60  85 123 170 214 243 309 388
#     4   9  18  38  66  78 125 172 198 258 312 349
#     4  11  21  32  62  96 122 154 210 263 314 367
#
# _framework density 23.058319000000001
#
# number of rings (size 3 to 8) (size 9 to 14) (size 15 to 20)
#    1.500    1.500    0.000    0.750    0.000    2.000 
#    0.000    3.750   11.000    0.000    0.000    0.000 
#    0.000    0.000    0.000    0.000    0.000    0.000 
#
# Total GULP energy -89103.158880 kJ/mol
# GULP energy per Si atom -5568.947430 kJ/mol
# Density = 2.300584 g / cm^3
# Si number density = 23.058319 Si / 1000 Ang^3
#
#
#
# Elastic Constant Matrix: (Units=GPa)
#
#
# Indices 1 2 3 4 5 6 
#
# 1 50.3186 29.0748 11.0172 0.0000 0.0000 0.0000
# 2 29.0748 127.7656 36.6265 0.0000 0.0000 0.0000
# 3 11.0172 36.6265 125.8186 0.0000 0.0000 0.0000
# 4 0.0000 0.0000 0.0000 24.8748 0.0000 0.0000
# 5 0.0000 0.0000 0.0000 0.0000 31.0207 0.0000
# 6 0.0000 0.0000 0.0000 0.0000 0.0000 11.0108
#
#
#
# Elastic Compliance Matrix: (Units=1/GPa)
#
#
# Indices 1 2 3 4 5 6 
#
# 1 0.022915 -0.005062 -0.000533 0.000000 0.000000 0.000000
# 2 -0.005062 0.009658 -0.002368 0.000000 0.000000 0.000000
# 3 -0.000533 -0.002368 0.008684 0.000000 0.000000 0.000000
# 4 0.000000 0.000000 0.000000 0.040201 0.000000 0.000000
# 5 0.000000 0.000000 0.000000 0.000000 0.032236 0.000000
# 6 0.000000 0.000000 0.000000 0.000000 0.000000 0.090820
#
#
# Mechanical properties :
#
#
# Convention : Reuss Voigt Hill
#
# Bulk Modulus (GPa) = 39.47799 50.81552 45.14675
# Shear Modulus (GPa) = 21.84520 28.52689 25.18604
#
# Velocity S-wave (km/s) = 3.08131 3.52115 3.30855
# Velocity P-wave (km/s) = 5.46053 6.21426 5.84954
#
# Compressibility (1/GPa) = 0.02533057
#
# Stress axis : x y z
#
# Youngs Moduli (GPa) = 43.63981 103.54551 115.15423
#
# Poissons Ratio (x) = 0.52413 0.06138
# Poissons Ratio (y) = 0.22090 0.27270
# Poissons Ratio (z) = 0.02326 0.24521
#
# Static dielectric constant tensor:
#      x y z
#    x 1.952220 0.000000 0.000000 
#    y 0.000000 1.922040 0.000000 
#    z 0.000000 0.000000 1.877880 
# 
# From -- ./inp_files/27038.got.cif
#   From: 2010.05.17/outbox.cif.g08.bks.cpg/sg20_14_cif.got.tgz:27038.got - 2010.06.03 22:52:26.
