data_PCOD9321923
_publ_section_title
;
Structure prediction by ZEFSAII (Michael W. Deem and Ramdas Pophale) SiO2 
 PCOD9321923
Probable space group: C 2 2 21
;
_chemical_formula_sum "Si O2"
_cell_formula_units_Z 40
_cell_length_a 25.983294
_cell_length_b 13.449779
_cell_length_c 4.976304
_cell_angle_alpha 90.000000
_cell_angle_beta 90.000000
_cell_angle_gamma 90.000000
_cell_volume 1739.066779
_symmetry_space_group_name_H-M "C 2 2 21"
_symmetry_group_IT_number 20
_symmetry_cell_setting 'orthorhombic'
loop_
_space_group_symop_operation_xyz
x,y,z
-x,-y,1/2+z
x,-y,-z
-x,y,1/2-z
1/2+x,1/2+y,z
1/2-x,1/2-y,1/2+z
1/2+x,1/2-y,-z
1/2-x,1/2+y,1/2-z
loop_
_atom_site_type_symbol
_atom_site_label
_atom_site_fract_x
_atom_site_fract_y
_atom_site_fract_z
Si Si1 0.279788 0.716688 0.477389
Si Si2 0.293162 0.500000 0.500000
Si Si3 0.647490 0.500000 0.500000
Si Si4 0.104914 0.701366 0.082884
Si Si5 0.080935 0.184689 0.403865
Si Si6 0.039921 0.500000 0.000000
Si Si7 0.000000 0.065332 0.750000
O O1 0.246053 0.777680 0.267172
O O2 0.271137 0.601730 0.379773
O O3 0.337149 0.766273 0.487186
O O4 0.323680 0.453659 0.250829
O O5 0.617791 0.590679 0.365613
O O6 0.069863 0.768968 0.883751
O O7 0.078787 0.593326 0.047434
O O8 0.102850 0.731690 0.395390
O O9 0.037600 0.133724 0.581876
O O10 0.000000 0.513564 0.750000
O O11 0.976663 0.000000 0.500000
#
# Coordination Sequence:
#
# PCOD9321923 Si02
#       7
#     8   4   4   8   8   4   4
#     4  12  26  46  75 112 146 194 249 312 393 458
#     4  12  24  44  72 104 144 182 241 295 364 460
#     4  12  20  42  68 102 142 186 221 277 376 438
#     4  12  27  49  73 105 144 193 252 320 376 449
#     4  12  24  42  70 102 145 184 236 293 369 440
#     4  12  30  54  78 108 150 210 272 324 388 468
#     4  12  26  38  60 106 148 188 224 288 352 446
#
# _framework density 23.000843
#
# number of rings (size 3 to 8) (size 9 to 14) (size 15 to 20)
#    0.000    0.000    5.000    4.800    5.600    1.600 
#    0.000    0.000    0.000    0.000    0.000    0.000 
#    0.000    0.000    0.000    0.000    0.000    0.000 
#
# Total GULP energy -111521.236229 kJ/mol
# GULP energy per Si atom -5576.061811 kJ/mol
# Density = 2.294849 g / cm^3
# Si number density = 23.000843 Si / 1000 Ang^3
#
#
#
# Elastic Constant Matrix: (Units=GPa)
#
#
# Indices 1 2 3 4 5 6 
#
# 1 86.2968 40.5842 15.7766 0.0000 0.0000 0.0000
# 2 40.5842 144.8967 0.1497 0.0000 0.0000 0.0000
# 3 15.7766 0.1497 111.6396 0.0000 0.0000 0.0000
# 4 0.0000 0.0000 0.0000 29.4724 0.0000 0.0000
# 5 0.0000 0.0000 0.0000 0.0000 35.2945 0.0000
# 6 0.0000 0.0000 0.0000 0.0000 0.0000 38.8635
#
#
#
# Elastic Compliance Matrix: (Units=1/GPa)
#
#
# Indices 1 2 3 4 5 6 
#
# 1 0.013753 -0.003850 -0.001938 0.000000 0.000000 0.000000
# 2 -0.003850 0.007979 0.000533 0.000000 0.000000 0.000000
# 3 -0.001938 0.000533 0.009231 0.000000 0.000000 0.000000
# 4 0.000000 0.000000 0.000000 0.033930 0.000000 0.000000
# 5 0.000000 0.000000 0.000000 0.000000 0.028333 0.000000
# 6 0.000000 0.000000 0.000000 0.000000 0.000000 0.025731
#
#
# Mechanical properties :
#
#
# Convention : Reuss Voigt Hill
#
# Bulk Modulus (GPa) = 48.89324 50.65045 49.77184
# Shear Modulus (GPa) = 36.68791 39.81424 38.25108
#
# Velocity S-wave (km/s) = 3.99816 4.16503 4.08245
# Velocity P-wave (km/s) = 6.52817 6.72301 6.62631
#
# Compressibility (1/GPa) = 0.02045272
#
# Stress axis : x y z
#
# Youngs Moduli (GPa) = 72.71187 125.32454 108.33524
#
# Poissons Ratio (x) = 0.48251 0.20999
# Poissons Ratio (y) = 0.27995 -0.05778
# Poissons Ratio (z) = 0.14094 -0.06685
#
# Static dielectric constant tensor:
#      x y z
#    x 2.065830 0.000000 0.000000 
#    y 0.000000 2.175920 0.000000 
#    z 0.000000 0.000000 1.652580 
# 
# From -- ./inp_files/4136.got.cif
#   From: 2010.05.17/outbox.cif.g08.bks.cpg/sg20_3_cif.got.tgz:4136.got - 2010.06.03 22:52:26.
