data_PCOD9321488
_publ_section_title
;
Structure prediction by ZEFSAII (Michael W. Deem and Ramdas Pophale) SiO2 
 PCOD9321488
Probable space group: C 2 2 21
;
_chemical_formula_sum "Si O2"
_cell_formula_units_Z 52
_cell_length_a 20.947029
_cell_length_b 20.917021
_cell_length_c 5.338484
_cell_angle_alpha 90.000000
_cell_angle_beta 90.000000
_cell_angle_gamma 90.000000
_cell_volume 2339.053804
_symmetry_space_group_name_H-M "C 2 2 21"
_symmetry_group_IT_number 20
_symmetry_cell_setting 'orthorhombic'
loop_
_space_group_symop_operation_xyz
x,y,z
-x,-y,1/2+z
x,-y,-z
-x,y,1/2-z
1/2+x,1/2+y,z
1/2-x,1/2-y,1/2+z
1/2+x,1/2-y,-z
1/2-x,1/2+y,1/2-z
loop_
_atom_site_type_symbol
_atom_site_label
_atom_site_fract_x
_atom_site_fract_y
_atom_site_fract_z
Si Si1 0.890012 0.372736 0.486042
Si Si2 0.954184 0.000000 0.500000
Si Si3 0.749364 0.645303 0.577831
Si Si4 0.462295 0.000000 0.500000
Si Si5 0.916426 0.293240 0.992518
Si Si6 0.121358 0.873318 0.131816
Si Si7 0.500000 0.700875 0.750000
Si Si8 0.313547 0.278838 0.725349
O O1 0.816430 0.389255 0.421361
O O2 0.923037 0.437450 0.560879
O O3 0.899384 0.327201 0.728345
O O4 0.916465 0.340488 0.230889
O O5 0.907057 0.062422 0.504669
O O6 0.000000 0.998838 0.750000
O O7 0.687752 0.616921 0.716917
O O8 0.728815 0.660206 0.294936
O O9 0.770315 0.717624 0.662571
O O10 0.500000 0.016207 0.750000
O O11 0.980807 0.252085 0.964603
O O12 0.857873 0.245535 0.050540
O O13 0.059360 0.847016 0.273275
O O14 0.137867 0.809908 0.969068
#
# Coordination Sequence:
#
# PCOD9321488 Si02
#       8
#     8   4   8   4   8   8   4   8
#     4  11  27  48  73 109 148 198 242 307 367 459
#     4  12  32  58  74 102 158 208 270 320 356 452
#     4  11  22  44  71 110 150 184 244 307 383 445
#     4  12  28  54  76 102 148 202 246 296 372 452
#     4  11  25  42  73 112 150 183 238 304 379 442
#     4  12  27  47  75 108 150 207 252 309 385 440
#     4  12  24  44  68 114 146 186 248 312 378 446
#     4  11  22  42  72 108 150 187 231 311 385 443
#
# _framework density 22.231209
#
# number of rings (size 3 to 8) (size 9 to 14) (size 15 to 20)
#    0.000    0.615    3.846    3.692    9.692    1.231 
#    2.769    0.000    0.000    0.000    0.000    0.000 
#    0.000    0.000    0.000    0.000    0.000    0.000 
#
# Total GULP energy -144900.729976 kJ/mol
# GULP energy per Si atom -5573.104999 kJ/mol
# Density = 2.218061 g / cm^3
# Si number density = 22.231209 Si / 1000 Ang^3
#
#
#
# Elastic Constant Matrix: (Units=GPa)
#
#
# Indices 1 2 3 4 5 6 
#
# 1 83.1918 26.4945 4.1098 0.0000 0.0000 0.0000
# 2 26.4945 65.1533 10.0595 0.0000 0.0000 0.0000
# 3 4.1098 10.0595 74.8642 0.0000 0.0000 0.0000
# 4 0.0000 0.0000 0.0000 28.4019 0.0000 0.0000
# 5 0.0000 0.0000 0.0000 0.0000 8.0282 0.0000
# 6 0.0000 0.0000 0.0000 0.0000 0.0000 35.1026
#
#
#
# Elastic Compliance Matrix: (Units=1/GPa)
#
#
# Indices 1 2 3 4 5 6 
#
# 1 0.013809 -0.005615 -0.000004 0.000000 0.000000 0.000000
# 2 -0.005615 0.017957 -0.002105 0.000000 0.000000 0.000000
# 3 -0.000004 -0.002105 0.013641 0.000000 0.000000 0.000000
# 4 0.000000 0.000000 0.000000 0.035209 0.000000 0.000000
# 5 0.000000 0.000000 0.000000 0.000000 0.124561 0.000000
# 6 0.000000 0.000000 0.000000 0.000000 0.000000 0.028488
#
#
# Mechanical properties :
#
#
# Convention : Reuss Voigt Hill
#
# Bulk Modulus (GPa) = 33.37789 33.83743 33.60766
# Shear Modulus (GPa) = 19.29785 26.47624 22.88705
#
# Velocity S-wave (km/s) = 2.94947 3.45476 3.21206
# Velocity P-wave (km/s) = 5.16195 5.58279 5.37649
#
# Compressibility (1/GPa) = 0.02995996
#
# Stress axis : x y z
#
# Youngs Moduli (GPa) = 72.41789 55.68989 73.31105
#
# Poissons Ratio (x) = 0.31268 0.00026
# Poissons Ratio (y) = 0.40661 0.15429
# Poissons Ratio (z) = 0.00026 0.11720
#
# Static dielectric constant tensor:
#      x y z
#    x 1.908910 0.000000 0.000000 
#    y 0.000000 1.813360 0.000000 
#    z 0.000000 0.000000 1.892630 
# 
# From -- ./inp_files/3265.got.cif
#   From: 2010.05.17/outbox.cif.g08.bks.cpg/sg20_2_cif.got.tgz:3265.got - 2010.06.03 22:52:26.
