data_PCOD9321402
_publ_section_title
;
Structure prediction by ZEFSAII (Michael W. Deem and Ramdas Pophale) SiO2 
 PCOD9321402
Probable space group: C 2 2 21
;
_chemical_formula_sum "Si O2"
_cell_formula_units_Z 40
_cell_length_a 17.861121
_cell_length_b 18.931902
_cell_length_c 4.957696
_cell_angle_alpha 90.000000
_cell_angle_beta 90.000000
_cell_angle_gamma 90.000000
_cell_volume 1676.420076
_symmetry_space_group_name_H-M "C 2 2 21"
_symmetry_group_IT_number 20
_symmetry_cell_setting 'orthorhombic'
loop_
_space_group_symop_operation_xyz
x,y,z
-x,-y,1/2+z
x,-y,-z
-x,y,1/2-z
1/2+x,1/2+y,z
1/2-x,1/2-y,1/2+z
1/2+x,1/2-y,-z
1/2-x,1/2+y,1/2-z
loop_
_atom_site_type_symbol
_atom_site_label
_atom_site_fract_x
_atom_site_fract_y
_atom_site_fract_z
Si Si1 0.292766 0.278593 0.253912
Si Si2 0.555040 0.222848 0.504750
Si Si3 0.583625 0.073374 0.357868
Si Si4 0.824266 0.936130 0.308607
Si Si5 0.811157 0.500000 0.500000
Si Si6 0.446771 0.500000 0.000000
O O1 0.268294 0.229780 0.509903
O O2 0.370409 0.261923 0.097086
O O3 0.305972 0.356156 0.384289
O O4 0.500000 0.221946 0.250000
O O5 0.585034 0.142376 0.541174
O O6 0.500000 0.244801 0.750000
O O7 0.500000 0.068895 0.250000
O O8 0.598869 0.000000 0.500000
O O9 0.640802 0.065496 0.112382
O O10 0.889703 0.937209 0.082748
O O11 0.851233 0.000000 0.500000
O O12 0.745769 0.966653 0.210714
O O13 0.500000 0.518126 0.250000
#
# Coordination Sequence:
#
# PCOD9321402 Si02
#       6
#     8   8   8   8   4   4
#     4  12  29  49  77 111 155 207 258 318 385 463
#     4  11  26  47  71 106 152 200 255 309 386 459
#     4  11  22  37  65 100 142 193 247 305 365 443
#     4  11  27  48  76 111 152 198 259 312 387 457
#     4  11  24  40  68 107 144 194 244 325 362 442
#     4  11  24  46  80 117 146 186 252 331 386 452
#
# _framework density 23.860367
#
# number of rings (size 3 to 8) (size 9 to 14) (size 15 to 20)
#    0.000    0.800    2.000    3.600   14.000    1.600 
#    0.000    0.000    0.000    0.000    0.000    0.000 
#    0.000    0.000    0.000    0.000    0.000    0.000 
#
# Total GULP energy -111574.026201 kJ/mol
# GULP energy per Si atom -5578.701310 kJ/mol
# Density = 2.380606 g / cm^3
# Si number density = 23.860367 Si / 1000 Ang^3
#
#
#
# Elastic Constant Matrix: (Units=GPa)
#
#
# Indices 1 2 3 4 5 6 
#
# 1 146.5416 29.7249 34.5404 0.0000 0.0000 0.0000
# 2 29.7249 113.0236 20.2849 0.0000 0.0000 0.0000
# 3 34.5404 20.2849 108.1781 0.0000 0.0000 0.0000
# 4 0.0000 0.0000 0.0000 22.5676 0.0000 0.0000
# 5 0.0000 0.0000 0.0000 0.0000 40.9234 0.0000
# 6 0.0000 0.0000 0.0000 0.0000 0.0000 -36.9459
#
#
#
# Elastic Compliance Matrix: (Units=1/GPa)
#
#
# Indices 1 2 3 4 5 6 
#
# 1 0.007659 -0.001630 -0.002140 0.000000 0.000000 0.000000
# 2 -0.001630 0.009503 -0.001261 0.000000 0.000000 0.000000
# 3 -0.002140 -0.001261 0.010164 0.000000 0.000000 0.000000
# 4 0.000000 0.000000 0.000000 0.044311 0.000000 0.000000
# 5 0.000000 0.000000 0.000000 0.000000 0.024436 0.000000
# 6 0.000000 0.000000 0.000000 0.000000 0.000000 -0.027067
#
#
# Mechanical properties :
#
#
# Convention : Reuss Voigt Hill
#
# Bulk Modulus (GPa) = 57.92806 59.64931 58.78869
# Shear Modulus (GPa) = 58.94606 24.18857 41.56731
#
# Velocity S-wave (km/s) = 4.97576 3.18741 4.17838
# Velocity P-wave (km/s) = 7.57242 6.21286 6.92608
#
# Compressibility (1/GPa) = 0.01726279
#
# Stress axis : x y z
#
# Youngs Moduli (GPa) = 130.56465 105.23155 98.38882
#
# Poissons Ratio (x) = 0.17156 0.21053
# Poissons Ratio (y) = 0.21286 0.12411
# Poissons Ratio (z) = 0.27938 0.13274
#
# Static dielectric constant tensor:
#      x y z
#    x 1.896640 0.000000 0.000000 
#    y 0.000000 2.280770 0.000000 
#    z 0.000000 0.000000 1.991720 
# 
# From -- ./inp_files/2522.got.cif
#   From: 2010.05.17/outbox.cif.g08.bks.cpg/sg20_2_cif.got.tgz:2522.got - 2010.06.03 22:52:26.
