data_PCOD9321954
_publ_section_title
;
Structure prediction by ZEFSAII (Michael W. Deem and Ramdas Pophale) SiO2 
 PCOD9321954
Probable space group: C 2 2 21
;
_chemical_formula_sum "Si O2"
_cell_formula_units_Z 36
_cell_length_a 9.911512
_cell_length_b 21.882698
_cell_length_c 7.837322
_cell_angle_alpha 90.000000
_cell_angle_beta 90.000000
_cell_angle_gamma 90.000000
_cell_volume 1699.841658
_symmetry_space_group_name_H-M "C 2 2 21"
_symmetry_group_IT_number 20
_symmetry_cell_setting 'orthorhombic'
loop_
_space_group_symop_operation_xyz
x,y,z
-x,-y,1/2+z
x,-y,-z
-x,y,1/2-z
1/2+x,1/2+y,z
1/2-x,1/2-y,1/2+z
1/2+x,1/2-y,-z
1/2-x,1/2+y,1/2-z
loop_
_atom_site_type_symbol
_atom_site_label
_atom_site_fract_x
_atom_site_fract_y
_atom_site_fract_z
Si Si1 0.500000 0.324539 0.250000
Si Si2 0.000000 0.410276 0.250000
Si Si3 0.886244 0.500000 0.000000
Si Si4 0.736565 0.152019 0.895369
Si Si5 0.123681 0.213163 0.105666
Si Si6 0.164370 0.610937 0.268029
O O1 0.618673 0.363911 0.326678
O O2 0.443128 0.289645 0.416767
O O3 0.016276 0.453179 0.408313
O O4 0.129766 0.369830 0.241593
O O5 0.815867 0.455516 0.859679
O O6 0.710484 0.224511 0.899124
O O7 0.712354 0.119662 0.074215
O O8 0.235227 0.159624 0.137021
O O9 0.000000 0.212415 0.250000
O O10 0.000000 0.623244 0.250000
#
# Coordination Sequence:
#
# PCOD9321954 Si02
#       6
#     4   4   4   8   8   8
#     4  12  28  44  71 108 163 200 244 302 388 472
#     4  12  22  44  73 108 145 200 260 320 368 452
#     4  12  24  44  76 112 144 200 270 324 370 446
#     4  12  26  44  76 113 156 202 250 318 394 457
#     4  12  27  48  73 115 164 204 248 312 395 471
#     4  12  26  47  78 109 150 200 262 323 377 453
#
# _framework density 21.178442
#
# number of rings (size 3 to 8) (size 9 to 14) (size 15 to 20)
#    0.000    0.000    6.667    2.667    6.222    0.000 
#    0.000    0.000    9.778    1.333    0.000    0.000 
#    0.000    0.000    0.000    0.000    0.000    0.000 
#
# Total GULP energy -100315.127790 kJ/mol
# GULP energy per Si atom -5573.062655 kJ/mol
# Density = 2.113024 g / cm^3
# Si number density = 21.178442 Si / 1000 Ang^3
#
#
#
# Elastic Constant Matrix: (Units=GPa)
#
#
# Indices 1 2 3 4 5 6 
#
# 1 150.4554 50.1657 64.9168 0.0000 0.0000 0.0000
# 2 50.1657 107.6213 33.5624 0.0000 0.0000 0.0000
# 3 64.9168 33.5624 133.7999 0.0000 0.0000 0.0000
# 4 0.0000 0.0000 0.0000 34.4677 0.0000 0.0000
# 5 0.0000 0.0000 0.0000 0.0000 47.2668 0.0000
# 6 0.0000 0.0000 0.0000 0.0000 0.0000 -37.9351
#
#
#
# Elastic Compliance Matrix: (Units=1/GPa)
#
#
# Indices 1 2 3 4 5 6 
#
# 1 0.009312 -0.003180 -0.003720 0.000000 0.000000 0.000000
# 2 -0.003180 0.011167 -0.001258 0.000000 0.000000 0.000000
# 3 -0.003720 -0.001258 0.009594 0.000000 0.000000 0.000000
# 4 0.000000 0.000000 0.000000 0.029013 0.000000 0.000000
# 5 0.000000 0.000000 0.000000 0.000000 0.021156 0.000000
# 6 0.000000 0.000000 0.000000 0.000000 0.000000 -0.026361
#
#
# Mechanical properties :
#
#
# Convention : Reuss Voigt Hill
#
# Bulk Modulus (GPa) = 72.69660 76.57405 74.63532
# Shear Modulus (GPa) = 66.85911 24.97533 45.91722
#
# Velocity S-wave (km/s) = 5.62476 3.43779 4.66135
# Velocity P-wave (km/s) = 8.75124 7.21062 8.01802
#
# Compressibility (1/GPa) = 0.01375580
#
# Stress axis : x y z
#
# Youngs Moduli (GPa) = 107.38698 89.55220 104.22776
#
# Poissons Ratio (x) = 0.28482 0.38775
# Poissons Ratio (y) = 0.34154 0.13111
# Poissons Ratio (z) = 0.39951 0.11265
#
# Static dielectric constant tensor:
#      x y z
#    x 1.785880 0.000000 0.000000 
#    y 0.000000 1.858370 0.000000 
#    z 0.000000 0.000000 1.860400 
# 
# From -- ./inp_files/5938.got.cif
#   From: 2010.05.17/outbox.cif.g08.bks.cpg/sg20_3_cif.got.tgz:5938.got - 2010.06.03 22:52:26.
