data_PCOD9321773
_publ_section_title
;
Structure prediction by ZEFSAII (Michael W. Deem and Ramdas Pophale) SiO2 
 PCOD9321773
Probable space group: C 2 2 21
;
_chemical_formula_sum "Si O2"
_cell_formula_units_Z 24
_cell_length_a 6.678767
_cell_length_b 12.090447
_cell_length_c 12.416018
_cell_angle_alpha 90.000000
_cell_angle_beta 90.000000
_cell_angle_gamma 90.000000
_cell_volume 1002.584495
_symmetry_space_group_name_H-M "C 2 2 21"
_symmetry_group_IT_number 20
_symmetry_cell_setting 'orthorhombic'
loop_
_space_group_symop_operation_xyz
x,y,z
-x,-y,1/2+z
x,-y,-z
-x,y,1/2-z
1/2+x,1/2+y,z
1/2-x,1/2-y,1/2+z
1/2+x,1/2-y,-z
1/2-x,1/2+y,1/2-z
loop_
_atom_site_type_symbol
_atom_site_label
_atom_site_fract_x
_atom_site_fract_y
_atom_site_fract_z
Si Si1 0.724492 0.353201 0.952671
Si Si2 0.485542 0.443124 0.131913
Si Si3 0.919862 0.375334 0.373356
O O1 0.643772 0.455993 0.880211
O O2 0.695055 0.242195 0.885817
O O3 0.554133 0.355953 0.044182
O O4 0.920376 0.374259 0.027656
O O5 0.500000 0.396495 0.250000
O O6 0.251925 0.468830 0.115081
O O7 0.000000 0.382380 0.250000
#
# Coordination Sequence:
#
# PCOD9321773 Si02
#       3
#     8   8   8
#     4  11  25  44  74 105 142 189 244 298 359 432
#     4  11  24  46  72 106 142 187 245 296 362 427
#     4  12  24  47  77 104 148 194 240 302 364 430
#
# _framework density 23.938130999999998
#
# number of rings (size 3 to 8) (size 9 to 14) (size 15 to 20)
#    0.000    0.667    6.667    1.000    0.000    5.333 
#    0.000    0.000    0.000    0.000    0.000    0.000 
#    0.000    0.000    0.000    0.000    0.000    0.000 
#
# Total GULP energy -66828.837245 kJ/mol
# GULP energy per Si atom -5569.069770 kJ/mol
# Density = 2.388365 g / cm^3
# Si number density = 23.938131 Si / 1000 Ang^3
#
#
#
# Elastic Constant Matrix: (Units=GPa)
#
#
# Indices 1 2 3 4 5 6 
#
# 1 134.6954 15.2686 4.8010 0.0000 0.0000 0.0000
# 2 15.2686 71.6796 2.2712 0.0000 0.0000 0.0000
# 3 4.8010 2.2712 117.9656 0.0000 0.0000 0.0000
# 4 0.0000 0.0000 0.0000 10.2830 0.0000 0.0000
# 5 0.0000 0.0000 0.0000 0.0000 46.6401 0.0000
# 6 0.0000 0.0000 0.0000 0.0000 0.0000 27.3928
#
#
#
# Elastic Compliance Matrix: (Units=1/GPa)
#
#
# Indices 1 2 3 4 5 6 
#
# 1 0.007617 -0.001614 -0.000279 0.000000 0.000000 0.000000
# 2 -0.001614 0.014301 -0.000210 0.000000 0.000000 0.000000
# 3 -0.000279 -0.000210 0.008492 0.000000 0.000000 0.000000
# 4 0.000000 0.000000 0.000000 0.097248 0.000000 0.000000
# 5 0.000000 0.000000 0.000000 0.000000 0.021441 0.000000
# 6 0.000000 0.000000 0.000000 0.000000 0.000000 0.036506
#
#
# Mechanical properties :
#
#
# Convention : Reuss Voigt Hill
#
# Bulk Modulus (GPa) = 38.15885 41.00248 39.58066
# Shear Modulus (GPa) = 25.18316 36.99650 31.08983
#
# Velocity S-wave (km/s) = 3.24699 3.93556 3.60774
# Velocity P-wave (km/s) = 5.48019 6.14957 5.82450
#
# Compressibility (1/GPa) = 0.02620624
#
# Stress axis : x y z
#
# Youngs Moduli (GPa) = 131.28496 69.92352 117.75183
#
# Poissons Ratio (x) = 0.11283 0.03284
# Poissons Ratio (y) = 0.21185 0.02469
# Poissons Ratio (z) = 0.03662 0.01466
#
# Static dielectric constant tensor:
#      x y z
#    x 2.032290 0.000000 0.000000 
#    y 0.000000 2.024040 0.000000 
#    z 0.000000 0.000000 1.822140 
# 
# From -- ./inp_files/15455.got.cif
#   From: 2010.05.17/outbox.cif.g08.bks.cpg/sg20_8_cif.got.tgz:15455.got - 2010.06.03 22:52:26.
