data_PCOD9321896
_publ_section_title
;
Structure prediction by ZEFSAII (Michael W. Deem and Ramdas Pophale) SiO2 
 PCOD9321896
Probable space group: C 2 2 21
;
_chemical_formula_sum "Si O2"
_cell_formula_units_Z 24
_cell_length_a 4.936942
_cell_length_b 9.454201
_cell_length_c 20.211136
_cell_angle_alpha 90.000000
_cell_angle_beta 90.000000
_cell_angle_gamma 90.000000
_cell_volume 943.351579
_symmetry_space_group_name_H-M "C 2 2 21"
_symmetry_group_IT_number 20
_symmetry_cell_setting 'orthorhombic'
loop_
_space_group_symop_operation_xyz
x,y,z
-x,-y,1/2+z
x,-y,-z
-x,y,1/2-z
1/2+x,1/2+y,z
1/2-x,1/2-y,1/2+z
1/2+x,1/2-y,-z
1/2-x,1/2+y,1/2-z
loop_
_atom_site_type_symbol
_atom_site_label
_atom_site_fract_x
_atom_site_fract_y
_atom_site_fract_z
Si Si1 0.249992 0.249952 0.296848
Si Si2 0.000056 0.500027 0.617660
Si Si3 0.500181 0.829045 0.500014
O O1 0.500000 0.289228 0.250000
O O2 0.000000 0.210652 0.250000
O O3 0.160584 0.388852 0.337871
O O4 0.339389 0.111072 0.337887
O O5 0.153935 0.408550 0.560985
O O6 0.846318 0.591455 0.560945
O O7 0.250213 0.749948 0.532633
#
# Coordination Sequence:
#
# PCOD9321896 Si02
#       3
#     8   8   8
#     4  12  30  52  82 116 166 218 268 328 398 490
#     4  11  27  54  80 118 159 207 276 328 410 473
#     4  11  26  49  84 116 157 205 262 352 397 472
#
# _framework density 25.441202000000001
#
# number of rings (size 3 to 8) (size 9 to 14) (size 15 to 20)
#    0.000    0.667    3.333    1.000    4.667   16.000 
#    0.000    0.000    0.000    0.000    0.000    0.000 
#    0.000    0.000    0.000    0.000    0.000    0.000 
#
# Total GULP energy -66885.837270 kJ/mol
# GULP energy per Si atom -5573.819773 kJ/mol
# Density = 2.538330 g / cm^3
# Si number density = 25.441202 Si / 1000 Ang^3
#
#
#
# Elastic Constant Matrix: (Units=GPa)
#
#
# Indices 1 2 3 4 5 6 
#
# 1 125.4151 77.7681 88.2243 0.0000 0.0000 0.0000
# 2 77.7681 172.9148 119.4624 0.0000 0.0000 0.0000
# 3 88.2243 119.4624 228.0437 0.0000 0.0000 0.0000
# 4 0.0000 0.0000 0.0000 -64.2519 0.0000 0.0000
# 5 0.0000 0.0000 0.0000 0.0000 25.5007 0.0000
# 6 0.0000 0.0000 0.0000 0.0000 0.0000 40.3702
#
#
#
# Elastic Compliance Matrix: (Units=1/GPa)
#
#
# Indices 1 2 3 4 5 6 
#
# 1 0.012156 -0.003476 -0.002882 0.000000 0.000000 0.000000
# 2 -0.003476 0.010058 -0.003924 0.000000 0.000000 0.000000
# 3 -0.002882 -0.003924 0.007556 0.000000 0.000000 0.000000
# 4 0.000000 0.000000 0.000000 -0.015564 0.000000 0.000000
# 5 0.000000 0.000000 0.000000 0.000000 0.039215 0.000000
# 6 0.000000 0.000000 0.000000 0.000000 0.000000 0.024771
#
#
# Mechanical properties :
#
#
# Convention : Reuss Voigt Hill
#
# Bulk Modulus (GPa) = 108.63104 121.92033 115.27568
# Shear Modulus (GPa) = 49.10451 16.38507 32.74479
#
# Velocity S-wave (km/s) = 4.39808 2.54054 3.59148
# Velocity P-wave (km/s) = 8.28144 7.52544 7.91248
#
# Compressibility (1/GPa) = 0.00920547
#
# Stress axis : x y z
#
# Youngs Moduli (GPa) = 82.26094 99.42822 132.35227
#
# Poissons Ratio (x) = 0.34564 0.38143
# Poissons Ratio (y) = 0.28596 0.51933
# Poissons Ratio (z) = 0.23707 0.39014
#
# Static dielectric constant tensor:
#      x y z
#    x 1.964960 0.000000 0.000000 
#    y 0.000000 3.384340 0.000000 
#    z 0.000000 0.000000 1.934010 
# 
# From -- ./inp_files/28132.got.cif
#   From: 2010.05.17/outbox.cif.g08.bks.cpg/sg20_15_cif.got.tgz:28132.got - 2010.06.03 22:52:26.
