data_PCOD9321944
_publ_section_title
;
Structure prediction by ZEFSAII (Michael W. Deem and Ramdas Pophale) SiO2 
 PCOD9321944
Probable space group: C 2 2 21
;
_chemical_formula_sum "Si O2"
_cell_formula_units_Z 48
_cell_length_a 27.975396
_cell_length_b 5.018205
_cell_length_c 17.395712
_cell_angle_alpha 90.000000
_cell_angle_beta 90.000000
_cell_angle_gamma 90.000000
_cell_volume 2442.119158
_symmetry_space_group_name_H-M "C 2 2 21"
_symmetry_group_IT_number 20
_symmetry_cell_setting 'orthorhombic'
loop_
_space_group_symop_operation_xyz
x,y,z
-x,-y,1/2+z
x,-y,-z
-x,y,1/2-z
1/2+x,1/2+y,z
1/2-x,1/2-y,1/2+z
1/2+x,1/2-y,-z
1/2-x,1/2+y,1/2-z
loop_
_atom_site_type_symbol
_atom_site_label
_atom_site_fract_x
_atom_site_fract_y
_atom_site_fract_z
Si Si1 0.385827 0.244070 0.856519
Si Si2 0.712692 0.255049 0.554085
Si Si3 0.488427 0.401642 0.913868
Si Si4 0.974166 0.414038 0.671384
Si Si5 0.229753 0.295391 0.792486
Si Si6 0.620828 0.742530 0.748964
O O1 0.339226 0.299260 0.907378
O O2 0.434476 0.296101 0.902420
O O3 0.385606 0.446636 0.784452
O O4 0.382807 0.946427 0.823005
O O5 0.725590 0.500000 0.500000
O O6 0.749589 0.227460 0.624096
O O7 0.710639 0.000000 0.500000
O O8 0.497844 0.655695 0.859552
O O9 0.521835 0.156939 0.887820
O O10 0.496494 0.500000 0.000000
O O11 0.921062 0.323743 0.693101
O O12 0.000000 0.506699 0.750000
O O13 0.246970 0.588009 0.767589
O O14 0.172988 0.272859 0.785392
#
# Coordination Sequence:
#
# PCOD9321944 Si02
#       6
#     8   8   8   8   8   8
#     4  12  22  40  67  97 134 163 213 279 332 390
#     4  12  25  41  64  98 134 168 208 270 340 390
#     4  12  25  42  64 100 137 174 210 271 338 388
#     4  12  23  42  68  93 135 174 224 264 317 397
#     4  12  23  44  68  93 131 172 222 270 323 397
#     4  12  23  40  69 100 121 170 232 270 313 386
#
# _framework density 19.655061
#
# number of rings (size 3 to 8) (size 9 to 14) (size 15 to 20)
#    0.000    0.000    6.667    4.500    0.000    1.333 
#    0.000    2.500    0.000    0.000    0.000    0.000 
#    0.000    0.000    0.000    0.000    0.000    0.000 
#
# Total GULP energy -134388.814147 kJ/mol
# GULP energy per Si atom -5599.533923 kJ/mol
# Density = 1.961033 g / cm^3
# Si number density = 19.655061 Si / 1000 Ang^3
#
#
#
# Elastic Constant Matrix: (Units=GPa)
#
#
# Indices 1 2 3 4 5 6 
#
# 1 90.8789 -6.2318 35.7387 0.0000 0.0000 0.0000
# 2 -6.2318 70.1827 8.8415 0.0000 0.0000 0.0000
# 3 35.7387 8.8415 84.8607 0.0000 0.0000 0.0000
# 4 0.0000 0.0000 0.0000 40.4671 0.0000 0.0000
# 5 0.0000 0.0000 0.0000 0.0000 28.7636 0.0000
# 6 0.0000 0.0000 0.0000 0.0000 0.0000 21.4684
#
#
#
# Elastic Compliance Matrix: (Units=1/GPa)
#
#
# Indices 1 2 3 4 5 6 
#
# 1 0.013441 0.001932 -0.005862 0.000000 0.000000 0.000000
# 2 0.001932 0.014716 -0.002347 0.000000 0.000000 0.000000
# 3 -0.005862 -0.002347 0.014497 0.000000 0.000000 0.000000
# 4 0.000000 0.000000 0.000000 0.024711 0.000000 0.000000
# 5 0.000000 0.000000 0.000000 0.000000 0.034766 0.000000
# 6 0.000000 0.000000 0.000000 0.000000 0.000000 0.046580
#
#
# Mechanical properties :
#
#
# Convention : Reuss Voigt Hill
#
# Bulk Modulus (GPa) = 33.22193 35.84657 34.53425
# Shear Modulus (GPa) = 29.18863 31.97808 30.58335
#
# Velocity S-wave (km/s) = 3.85781 4.03794 3.94890
# Velocity P-wave (km/s) = 6.06488 6.32593 6.19678
#
# Compressibility (1/GPa) = 0.03010060
#
# Stress axis : x y z
#
# Youngs Moduli (GPa) = 74.39678 67.95448 68.97816
#
# Poissons Ratio (x) = -0.13129 0.40436
# Poissons Ratio (y) = -0.14374 0.16188
# Poissons Ratio (z) = 0.43612 0.15948
#
# Static dielectric constant tensor:
#      x y z
#    x 1.673100 0.000000 0.000000 
#    y 0.000000 1.674390 0.000000 
#    z 0.000000 0.000000 1.674450 
# 
# From -- ./inp_files/17776.got.cif
#   From: 2010.05.17/outbox.cif.g08.bks.cpg/sg20_9_cif.got.tgz:17776.got - 2010.06.03 22:52:26.
