data_PCOD9321997
_publ_section_title
;
Structure prediction by ZEFSAII (Michael W. Deem and Ramdas Pophale) SiO2 
 PCOD9321997
Probable space group: C 2 2 21
;
_chemical_formula_sum "Si O2"
_cell_formula_units_Z 56
_cell_length_a 18.054911
_cell_length_b 20.984565
_cell_length_c 8.532747
_cell_angle_alpha 90.000000
_cell_angle_beta 90.000000
_cell_angle_gamma 90.000000
_cell_volume 3232.839856
_symmetry_space_group_name_H-M "C 2 2 21"
_symmetry_group_IT_number 20
_symmetry_cell_setting 'orthorhombic'
loop_
_space_group_symop_operation_xyz
x,y,z
-x,-y,1/2+z
x,-y,-z
-x,y,1/2-z
1/2+x,1/2+y,z
1/2-x,1/2-y,1/2+z
1/2+x,1/2-y,-z
1/2-x,1/2+y,1/2-z
loop_
_atom_site_type_symbol
_atom_site_label
_atom_site_fract_x
_atom_site_fract_y
_atom_site_fract_z
Si Si1 0.402850 0.361189 0.907812
Si Si2 0.135515 0.162037 0.045636
Si Si3 0.932324 0.711925 0.955961
Si Si4 0.245587 0.665774 0.010685
Si Si5 0.095847 0.308121 0.089283
Si Si6 0.530362 0.435806 0.077341
Si Si7 0.213451 0.300358 0.630995
O O1 0.393007 0.358580 0.719492
O O2 0.430254 0.289734 0.957994
O O3 0.321020 0.374515 0.978633
O O4 0.463013 0.410154 0.969793
O O5 0.116667 0.236706 0.031421
O O6 0.224322 0.158610 0.040276
O O7 0.092624 0.118836 0.923412
O O8 0.910310 0.695696 0.777139
O O9 0.013784 0.682898 0.979727
O O10 0.869544 0.687912 0.074039
O O11 0.230225 0.688323 0.188147
O O12 0.164241 0.645836 0.952099
O O13 0.268817 0.726898 0.907896
O O14 0.500000 0.447256 0.250000
O O15 0.560446 0.500000 0.000000
#
# Coordination Sequence:
#
# PCOD9321997 Si02
#       7
#     8   8   8   8   8   8   8
#     4   9  17  32  46  58  85 117 146 183 226 260
#     4   9  17  32  46  58  85 117 146 183 226 260
#     4   9  16  27  43  63  90 121 147 178 218 257
#     4   9  17  27  41  61  85 115 146 179 217 260
#     4   9  16  27  43  63  90 121 147 178 218 257
#     4  12  24  34  48  66  84 112 152 192 227 266
#     4   9  17  27  41  61  85 115 146 179 217 260
#
# _framework density 17.322230999999999
#
# number of rings (size 3 to 8) (size 9 to 14) (size 15 to 20)
#    0.000    2.571    1.429    3.857    0.000    6.286 
#    0.000    0.000    0.000    0.000    0.000    0.000 
#    0.000    1.143    0.000    3.714    0.000    5.429 
#
# Total GULP energy -155958.029069 kJ/mol
# GULP energy per Si atom -5569.929610 kJ/mol
# Density = 1.728281 g / cm^3
# Si number density = 17.322231 Si / 1000 Ang^3
#
#
#
# Elastic Constant Matrix: (Units=GPa)
#
#
# Indices 1 2 3 4 5 6 
#
# 1 95.3219 -6.4383 -4.7747 0.0000 0.0000 0.0000
# 2 -6.4383 10.4924 -2.1473 0.0000 0.0000 0.0000
# 3 -4.7747 -2.1473 7.9395 0.0000 0.0000 0.0000
# 4 0.0000 0.0000 0.0000 14.5116 0.0000 0.0000
# 5 0.0000 0.0000 0.0000 0.0000 26.7580 0.0000
# 6 0.0000 0.0000 0.0000 0.0000 0.0000 5.7161
#
#
#
# Elastic Compliance Matrix: (Units=1/GPa)
#
#
# Indices 1 2 3 4 5 6 
#
# 1 0.011571 0.009024 0.009399 0.000000 0.000000 0.000000
# 2 0.009024 0.107929 0.034617 0.000000 0.000000 0.000000
# 3 0.009399 0.034617 0.140968 0.000000 0.000000 0.000000
# 4 0.000000 0.000000 0.000000 0.068910 0.000000 0.000000
# 5 0.000000 0.000000 0.000000 0.000000 0.037372 0.000000
# 6 0.000000 0.000000 0.000000 0.000000 0.000000 0.174944
#
#
# Mechanical properties :
#
#
# Convention : Reuss Voigt Hill
#
# Bulk Modulus (GPa) = 2.72816 9.67035 6.19925
# Shear Modulus (GPa) = 8.96384 17.87142 13.41763
#
# Velocity S-wave (km/s) = 2.27728 3.21550 2.78617
# Velocity P-wave (km/s) = 2.91428 4.40235 3.73321
#
# Compressibility (1/GPa) = 0.36654735
#
# Stress axis : x y z
#
# Youngs Moduli (GPa) = 86.42237 9.26539 7.09380
#
# Poissons Ratio (x) = -0.08361 -0.06668
# Poissons Ratio (y) = -0.77986 -0.24556
# Poissons Ratio (z) = -0.81231 -0.32074
#
# Static dielectric constant tensor:
#      x y z
#    x 1.667300 0.000000 0.000000 
#    y 0.000000 1.548160 0.000000 
#    z 0.000000 0.000000 1.610090 
# 
# From -- ./inp_files/9674.got.cif
#   From: 2010.05.17/outbox.cif.g08.bks.cpg/sg20_5_cif.got.tgz:9674.got - 2010.06.03 22:52:26.
