data_PCOD9321390
_publ_section_title
;
Structure prediction by ZEFSAII (Michael W. Deem and Ramdas Pophale) SiO2 
 PCOD9321390
Probable space group: C 2 2 21
;
_chemical_formula_sum "Si O2"
_cell_formula_units_Z 48
_cell_length_a 21.213281
_cell_length_b 14.564160
_cell_length_c 9.517166
_cell_angle_alpha 90.000000
_cell_angle_beta 90.000000
_cell_angle_gamma 90.000000
_cell_volume 2940.362875
_symmetry_space_group_name_H-M "C 2 2 21"
_symmetry_group_IT_number 20
_symmetry_cell_setting 'orthorhombic'
loop_
_space_group_symop_operation_xyz
x,y,z
-x,-y,1/2+z
x,-y,-z
-x,y,1/2-z
1/2+x,1/2+y,z
1/2-x,1/2-y,1/2+z
1/2+x,1/2-y,-z
1/2-x,1/2+y,1/2-z
loop_
_atom_site_type_symbol
_atom_site_label
_atom_site_fract_x
_atom_site_fract_y
_atom_site_fract_z
Si Si1 0.196110 0.399393 0.251210
Si Si2 0.656880 0.201533 0.029328
Si Si3 0.701271 0.112969 0.281921
Si Si4 0.399613 0.888243 0.008706
Si Si5 0.528341 0.093405 0.089619
Si Si6 0.693588 0.398162 0.020153
O O1 0.189110 0.509212 0.227226
O O2 0.138668 0.367741 0.351473
O O3 0.260488 0.393126 0.342582
O O4 0.187006 0.342830 0.109863
O O5 0.706767 0.180245 0.152530
O O6 0.592494 0.150676 0.076038
O O7 0.648774 0.310530 0.018537
O O8 0.642337 0.142346 0.377828
O O9 0.759407 0.111596 0.387539
O O10 0.470790 0.856815 0.991489
O O11 0.400836 0.000000 0.000000
O O12 0.500000 0.077564 0.250000
O O13 0.539285 0.000000 0.000000
O O14 0.665498 0.500000 0.000000
#
# Coordination Sequence:
#
# PCOD9321390 Si02
#       6
#     8   8   8   8   8   8
#     4   9  18  31  50  74 100 132 155 202 255 299
#     4  12  20  28  50  79  98 128 176 202 232 305
#     4   9  16  31  49  70 101 128 157 198 251 299
#     4   8  16  30  45  65 104 134 148 182 251 306
#     4  11  22  32  48  77 109 135 157 197 252 311
#     4   9  20  36  49  66 101 138 166 206 252 280
#
# _framework density 16.324515999999999
#
# number of rings (size 3 to 8) (size 9 to 14) (size 15 to 20)
#    0.000    2.333    1.667    4.500    4.667    0.000 
#    0.000    0.000    0.000    0.000    4.333    0.000 
#    0.000    0.000    0.000    0.000    0.000    0.000 
#
# Total GULP energy -133601.111566 kJ/mol
# GULP energy per Si atom -5566.712982 kJ/mol
# Density = 1.628736 g / cm^3
# Si number density = 16.324516 Si / 1000 Ang^3
#
#
#
# Elastic Constant Matrix: (Units=GPa)
#
#
# Indices 1 2 3 4 5 6 
#
# 1 34.6663 23.3899 7.6903 0.0000 0.0000 0.0000
# 2 23.3899 98.0939 39.4814 0.0000 0.0000 0.0000
# 3 7.6903 39.4814 90.1028 0.0000 0.0000 0.0000
# 4 0.0000 0.0000 0.0000 10.3091 0.0000 0.0000
# 5 0.0000 0.0000 0.0000 0.0000 2.2996 0.0000
# 6 0.0000 0.0000 0.0000 0.0000 0.0000 13.7831
#
#
#
# Elastic Compliance Matrix: (Units=1/GPa)
#
#
# Indices 1 2 3 4 5 6 
#
# 1 0.034424 -0.008530 0.000800 0.000000 0.000000 0.000000
# 2 -0.008530 0.014491 -0.005622 0.000000 0.000000 0.000000
# 3 0.000800 -0.005622 0.013493 0.000000 0.000000 0.000000
# 4 0.000000 0.000000 0.000000 0.097002 0.000000 0.000000
# 5 0.000000 0.000000 0.000000 0.000000 0.434858 0.000000
# 6 0.000000 0.000000 0.000000 0.000000 0.000000 0.072553
#
#
# Mechanical properties :
#
#
# Convention : Reuss Voigt Hill
#
# Bulk Modulus (GPa) = 28.00758 40.44289 34.22524
# Shear Modulus (GPa) = 7.08790 15.43178 11.25984
#
# Velocity S-wave (km/s) = 2.08598 3.07793 2.62916
# Velocity P-wave (km/s) = 4.79539 6.12043 5.49797
#
# Compressibility (1/GPa) = 0.03570462
#
# Stress axis : x y z
#
# Youngs Moduli (GPa) = 29.04908 69.00890 74.10994
#
# Poissons Ratio (x) = 0.58866 -0.05926
# Poissons Ratio (y) = 0.24779 0.41662
# Poissons Ratio (z) = -0.02323 0.38794
#
# Static dielectric constant tensor:
#      x y z
#    x 1.572600 0.000000 0.000000 
#    y 0.000000 1.561400 0.000000 
#    z 0.000000 0.000000 1.593990 
# 
# From -- ./inp_files/7403.got.cif
#   From: 2010.05.17/outbox.cif.g08.bks.cpg/sg20_4_cif.got.tgz:7403.got - 2010.06.03 22:52:26.
