data_PCOD9321070
_publ_section_title
;
Structure prediction by ZEFSAII (Michael W. Deem and Ramdas Pophale) SiO2 
 PCOD9321070
Probable space group: C 2 2 21
;
_chemical_formula_sum "Si O2"
_cell_formula_units_Z 32
_cell_length_a 8.970065
_cell_length_b 5.394122
_cell_length_c 27.153757
_cell_angle_alpha 90.000000
_cell_angle_beta 90.000000
_cell_angle_gamma 90.000000
_cell_volume 1313.851502
_symmetry_space_group_name_H-M "C 2 2 21"
_symmetry_group_IT_number 20
_symmetry_cell_setting 'orthorhombic'
loop_
_space_group_symop_operation_xyz
x,y,z
-x,-y,1/2+z
x,-y,-z
-x,y,1/2-z
1/2+x,1/2+y,z
1/2-x,1/2-y,1/2+z
1/2+x,1/2-y,-z
1/2-x,1/2+y,1/2-z
loop_
_atom_site_type_symbol
_atom_site_label
_atom_site_fract_x
_atom_site_fract_y
_atom_site_fract_z
Si Si1 0.830737 0.380649 0.732507
Si Si2 0.099395 0.741684 0.385894
Si Si3 0.834859 0.760979 0.860912
Si Si4 0.177810 0.550477 0.057200
O O1 0.765776 0.654247 0.744269
O O2 0.800044 0.338657 0.674229
O O3 0.000000 0.359032 0.750000
O O4 0.116001 0.513443 0.348993
O O5 0.257285 0.815843 0.411900
O O6 0.981179 0.653683 0.426361
O O7 0.056036 0.002810 0.359906
O O8 0.790207 0.749542 0.918721
O O9 0.188800 0.500000 0.000000
#
# Coordination Sequence:
#
# PCOD9321070 Si02
#       4
#     8   8   8   8
#     4  12  28  47  76 107 144 187 243 298 362 430
#     4  10  25  42  69  98 140 181 231 288 351 417
#     4  10  26  45  71  99 143 181 237 288 362 416
#     4  10  26  43  71 100 141 184 239 288 355 421
#
# _framework density 24.355872000000002
#
# number of rings (size 3 to 8) (size 9 to 14) (size 15 to 20)
#    1.500    0.000    0.000    2.250   14.000    0.000 
#    0.000    0.000    0.000    0.000    0.000    0.000 
#    0.000    0.000    0.000    0.000    0.000    0.000 
#
# Total GULP energy -89195.400356 kJ/mol
# GULP energy per Si atom -5574.712522 kJ/mol
# Density = 2.430044 g / cm^3
# Si number density = 24.355872 Si / 1000 Ang^3
#
#
#
# Elastic Constant Matrix: (Units=GPa)
#
#
# Indices 1 2 3 4 5 6 
#
# 1 78.1956 59.7987 2.8045 0.0000 0.0000 0.0000
# 2 59.7987 197.0678 34.1009 0.0000 0.0000 0.0000
# 3 2.8045 34.1009 78.3924 0.0000 0.0000 0.0000
# 4 0.0000 0.0000 0.0000 21.7791 0.0000 0.0000
# 5 0.0000 0.0000 0.0000 0.0000 36.5380 0.0000
# 6 0.0000 0.0000 0.0000 0.0000 0.0000 43.1300
#
#
#
# Elastic Compliance Matrix: (Units=1/GPa)
#
#
# Indices 1 2 3 4 5 6 
#
# 1 0.016873 -0.005424 0.001756 0.000000 0.000000 0.000000
# 2 -0.005424 0.007231 -0.002951 0.000000 0.000000 0.000000
# 3 0.001756 -0.002951 0.013977 0.000000 0.000000 0.000000
# 4 0.000000 0.000000 0.000000 0.045916 0.000000 0.000000
# 5 0.000000 0.000000 0.000000 0.000000 0.027369 0.000000
# 6 0.000000 0.000000 0.000000 0.000000 0.000000 0.023186
#
#
# Mechanical properties :
#
#
# Convention : Reuss Voigt Hill
#
# Bulk Modulus (GPa) = 40.25357 60.78489 50.51923
# Shear Modulus (GPa) = 32.03653 37.41952 34.72803
#
# Velocity S-wave (km/s) = 3.63071 3.92390 3.78015
# Velocity P-wave (km/s) = 5.84288 6.74837 6.31188
#
# Compressibility (1/GPa) = 0.02484252
#
# Stress axis : x y z
#
# Youngs Moduli (GPa) = 59.26519 138.29431 71.54402
#
# Poissons Ratio (x) = 0.75009 -0.12561
# Poissons Ratio (y) = 0.32145 0.21116
# Poissons Ratio (z) = -0.10406 0.40817
#
# Static dielectric constant tensor:
#      x y z
#    x 1.940290 0.000000 0.000000 
#    y 0.000000 2.014800 0.000000 
#    z 0.000000 0.000000 1.936300 
# 
# From -- ./inp_files/28991.got.cif
#   From: 2010.05.17/outbox.cif.g08.bks.cpg/sg20_15_cif.got.tgz:28991.got - 2010.06.03 22:52:26.
