data_PCOD9321623
_publ_section_title
;
Structure prediction by ZEFSAII (Michael W. Deem and Ramdas Pophale) SiO2 
 PCOD9321623
Probable space group: C 2 2 21
;
_chemical_formula_sum "Si O2"
_cell_formula_units_Z 56
_cell_length_a 22.126119
_cell_length_b 7.916696
_cell_length_c 14.388668
_cell_angle_alpha 90.000000
_cell_angle_beta 90.000000
_cell_angle_gamma 90.000000
_cell_volume 2520.401934
_symmetry_space_group_name_H-M "C 2 2 21"
_symmetry_group_IT_number 20
_symmetry_cell_setting 'orthorhombic'
loop_
_space_group_symop_operation_xyz
x,y,z
-x,-y,1/2+z
x,-y,-z
-x,y,1/2-z
1/2+x,1/2+y,z
1/2-x,1/2-y,1/2+z
1/2+x,1/2-y,-z
1/2-x,1/2+y,1/2-z
loop_
_atom_site_type_symbol
_atom_site_label
_atom_site_fract_x
_atom_site_fract_y
_atom_site_fract_z
Si Si1 0.821154 0.776544 0.293204
Si Si2 0.936882 0.249248 0.210097
Si Si3 0.562700 0.865725 0.704121
Si Si4 0.272996 0.919087 0.350203
Si Si5 0.140496 0.115228 0.134188
Si Si6 0.064777 0.758093 0.488450
Si Si7 0.824615 0.000000 0.000000
Si Si8 0.461394 0.500000 0.500000
O O1 0.882605 0.755883 0.233329
O O2 0.762322 0.833723 0.235680
O O3 0.810838 0.586475 0.328113
O O4 0.831147 0.927723 0.366430
O O5 0.928898 0.443839 0.241214
O O6 0.882557 0.150919 0.260102
O O7 0.943036 0.252268 0.099220
O O8 0.000000 0.183190 0.250000
O O9 0.500000 0.806347 0.750000
O O10 0.563462 0.881788 0.591632
O O11 0.314324 0.767818 0.391148
O O12 0.220079 0.992185 0.414078
O O13 0.082210 0.103890 0.068187
O O14 0.009031 0.873914 0.452465
O O15 0.130175 0.844762 0.485462
#
# Coordination Sequence:
#
# PCOD9321623 Si02
#       8
#     8   8   8   8   8   8   4   4
#     4  12  25  46  73 104 142 194 244 299 369 443
#     4  11  23  44  71 108 152 189 240 308 371 443
#     4  11  24  44  73 112 146 191 245 308 375 439
#     4  12  26  48  70 105 148 190 248 300 366 446
#     4  12  26  46  72 106 148 193 245 302 377 444
#     4  11  23  45  73 105 144 190 256 302 367 447
#     4  11  26  44  68 100 138 189 242 308 356 427
#     4  11  26  44  68 110 142 195 248 310 374 437
#
# _framework density 22.218678000000001
#
# number of rings (size 3 to 8) (size 9 to 14) (size 15 to 20)
#    0.000    0.571    5.714    2.143    4.000    0.571 
#    0.000    0.000    0.000    0.000    0.000    0.000 
#    0.000    0.000    0.000    0.000    0.000    0.000 
#
# Total GULP energy -156232.057712 kJ/mol
# GULP energy per Si atom -5579.716347 kJ/mol
# Density = 2.216811 g / cm^3
# Si number density = 22.218678 Si / 1000 Ang^3
#
#
#
# Elastic Constant Matrix: (Units=GPa)
#
#
# Indices 1 2 3 4 5 6 
#
# 1 123.5651 39.6808 38.4304 0.0000 0.0000 0.0000
# 2 39.6808 94.4581 10.5096 0.0000 0.0000 0.0000
# 3 38.4304 10.5096 80.2333 0.0000 0.0000 0.0000
# 4 0.0000 0.0000 0.0000 27.7480 0.0000 0.0000
# 5 0.0000 0.0000 0.0000 0.0000-1174.9937 0.0000
# 6 0.0000 0.0000 0.0000 0.0000 0.0000 10.3153
#
#
#
# Elastic Compliance Matrix: (Units=1/GPa)
#
#
# Indices 1 2 3 4 5 6 
#
# 1 0.010839 -0.004034 -0.004663 0.000000 0.000000 0.000000
# 2 -0.004034 0.012245 0.000328 0.000000 0.000000 0.000000
# 3 -0.004663 0.000328 0.014654 0.000000 0.000000 0.000000
# 4 0.000000 0.000000 0.000000 0.036039 0.000000 0.000000
# 5 0.000000 0.000000 0.000000 0.000000 -0.000851 0.000000
# 6 0.000000 0.000000 0.000000 0.000000 0.000000 0.096943
#
#
# Mechanical properties :
#
#
# Convention : Reuss Voigt Hill
#
# Bulk Modulus (GPa) = 47.61957 52.83314 50.22636
# Shear Modulus (GPa) = 25.82556 -213.41037 -93.79241
#
# Velocity S-wave (km/s) = 3.41300 -9.81114 -6.50423
# Velocity P-wave (km/s) = 6.08360 10.22323 5.80965
#
# Compressibility (1/GPa) = 0.02099977
#
# Stress axis : x y z
#
# Youngs Moduli (GPa) = 92.26125 81.66619 68.23988
#
# Poissons Ratio (x) = 0.32948 0.31821
# Poissons Ratio (y) = 0.37222 -0.02241
# Poissons Ratio (z) = 0.43023 -0.02682
#
# Static dielectric constant tensor:
#      x y z
#    x 1.813570 0.000000 0.000000 
#    y 0.000000 2.340530 0.000000 
#    z 0.000000 0.000000 1.864930 
# 
# From -- ./inp_files/21810.got.cif
#   From: 2010.05.17/outbox.cif.g08.bks.cpg/sg20_11_cif.got.tgz:21810.got - 2010.06.03 22:52:26.
