data_PCOD9321367
_publ_section_title
;
Structure prediction by ZEFSAII (Michael W. Deem and Ramdas Pophale) SiO2 
 PCOD9321367
Probable space group: C 2 2 21
;
_chemical_formula_sum "Si O2"
_cell_formula_units_Z 60
_cell_length_a 8.331061
_cell_length_b 14.310611
_cell_length_c 21.175413
_cell_angle_alpha 90.000000
_cell_angle_beta 90.000000
_cell_angle_gamma 90.000000
_cell_volume 2524.587226
_symmetry_space_group_name_H-M "C 2 2 21"
_symmetry_group_IT_number 20
_symmetry_cell_setting 'orthorhombic'
loop_
_space_group_symop_operation_xyz
x,y,z
-x,-y,1/2+z
x,-y,-z
-x,y,1/2-z
1/2+x,1/2+y,z
1/2-x,1/2-y,1/2+z
1/2+x,1/2-y,-z
1/2-x,1/2+y,1/2-z
loop_
_atom_site_type_symbol
_atom_site_label
_atom_site_fract_x
_atom_site_fract_y
_atom_site_fract_z
Si Si1 0.593982 0.317740 0.091555
Si Si2 0.217862 0.503806 0.427564
Si Si3 0.778279 0.355107 0.532448
Si Si4 0.500000 0.330203 0.750000
Si Si5 0.158860 0.717002 0.215552
Si Si6 0.045279 0.839442 0.890339
Si Si7 0.412928 0.971779 0.646674
Si Si8 0.773069 0.350016 0.390213
O O1 0.650626 0.421649 0.077639
O O2 0.643139 0.248003 0.035495
O O3 0.684925 0.274294 0.151587
O O4 0.407464 0.311726 0.109543
O O5 0.155718 0.500000 0.500000
O O6 0.304602 0.601523 0.414656
O O7 0.090268 0.491998 0.370871
O O8 0.598918 0.350629 0.560217
O O9 0.871945 0.417408 0.582074
O O10 0.787744 0.389386 0.461531
O O11 0.673439 0.279596 0.752079
O O12 0.494996 0.376567 0.820082
O O13 0.115991 0.609145 0.197664
O O14 0.000000 0.753987 0.250000
O O15 0.098138 0.732066 0.883336
O O16 0.304233 0.063026 0.655548
#
# Coordination Sequence:
#
# PCOD9321367 Si02
#       8
#     8   8   8   4   8   8   8   8
#     4  11  24  41  65 103 137 176 242 281 352 429
#     4  12  24  42  68 105 145 186 233 300 371 441
#     4  11  21  42  65 100 140 179 231 287 361 430
#     4  12  24  50  76  92 146 190 242 296 354 442
#     4  11  25  51  73  99 139 191 245 305 356 427
#     4  12  25  44  70 100 139 194 236 291 369 424
#     4  11  24  42  66 105 140 180 236 285 365 431
#     4  12  23  39  68 102 140 181 225 298 358 430
#
# _framework density 23.766259999999999
#
# number of rings (size 3 to 8) (size 9 to 14) (size 15 to 20)
#    0.000    0.533    2.667    8.400    0.000    0.000 
#    2.400    2.667    0.000    0.000    0.000    0.000 
#    0.000    0.000    0.000    0.000    0.000    0.000 
#
# Total GULP energy -167788.503221 kJ/mol
# GULP energy per Si atom -5592.950107 kJ/mol
# Density = 2.371217 g / cm^3
# Si number density = 23.766260 Si / 1000 Ang^3
#
#
#
# Elastic Constant Matrix: (Units=GPa)
#
#
# Indices 1 2 3 4 5 6 
#
# 1 97.5784 -11.5892 1.7372 0.0000 0.0000 0.0000
# 2 -11.5892 78.3464 -1.5599 0.0000 0.0000 0.0000
# 3 1.7372 -1.5599 74.5186 0.0000 0.0000 0.0000
# 4 0.0000 0.0000 0.0000 18.8535 0.0000 0.0000
# 5 0.0000 0.0000 0.0000 0.0000 39.0083 0.0000
# 6 0.0000 0.0000 0.0000 0.0000 0.0000 27.2785
#
#
#
# Elastic Compliance Matrix: (Units=1/GPa)
#
#
# Indices 1 2 3 4 5 6 
#
# 1 0.010435 0.001539 -0.000211 0.000000 0.000000 0.000000
# 2 0.001539 0.012996 0.000236 0.000000 0.000000 0.000000
# 3 -0.000211 0.000236 0.013429 0.000000 0.000000 0.000000
# 4 0.000000 0.000000 0.000000 0.053041 0.000000 0.000000
# 5 0.000000 0.000000 0.000000 0.000000 0.025636 0.000000
# 6 0.000000 0.000000 0.000000 0.000000 0.000000 0.036659
#
#
# Mechanical properties :
#
#
# Convention : Reuss Voigt Hill
#
# Bulk Modulus (GPa) = 25.00673 25.29107 25.14890
# Shear Modulus (GPa) = 30.78890 34.48509 32.63699
#
# Velocity S-wave (km/s) = 3.60319 3.81335 3.70976
# Velocity P-wave (km/s) = 5.27783 5.48211 5.38094
#
# Compressibility (1/GPa) = 0.03998924
#
# Stress axis : x y z
#
# Youngs Moduli (GPa) = 95.83366 76.94538 74.46387
#
# Poissons Ratio (x) = -0.11844 0.01571
# Poissons Ratio (y) = -0.14752 -0.01759
# Poissons Ratio (z) = 0.02022 -0.01817
#
# Static dielectric constant tensor:
#      x y z
#    x 1.921260 0.000000 0.000000 
#    y 0.000000 1.854320 0.000000 
#    z 0.000000 0.000000 1.935700 
# 
# From -- ./inp_files/28850.got.cif
#   From: 2010.05.17/outbox.cif.g08.bks.cpg/sg20_15_cif.got.tgz:28850.got - 2010.06.03 22:52:26.
