data_PCOD9321261
_publ_section_title
;
Structure prediction by ZEFSAII (Michael W. Deem and Ramdas Pophale) SiO2 
 PCOD9321261
Probable space group: C 2 2 21
;
_chemical_formula_sum "Si O2"
_cell_formula_units_Z 56
_cell_length_a 34.561245
_cell_length_b 14.833334
_cell_length_c 6.136595
_cell_angle_alpha 90.000000
_cell_angle_beta 90.000000
_cell_angle_gamma 90.000000
_cell_volume 3145.977530
_symmetry_space_group_name_H-M "C 2 2 21"
_symmetry_group_IT_number 20
_symmetry_cell_setting 'orthorhombic'
loop_
_space_group_symop_operation_xyz
x,y,z
-x,-y,1/2+z
x,-y,-z
-x,y,1/2-z
1/2+x,1/2+y,z
1/2-x,1/2-y,1/2+z
1/2+x,1/2-y,-z
1/2-x,1/2+y,1/2-z
loop_
_atom_site_type_symbol
_atom_site_label
_atom_site_fract_x
_atom_site_fract_y
_atom_site_fract_z
Si Si1 0.987388 0.894102 0.001690
Si Si2 0.895030 0.106050 0.975860
Si Si3 0.324991 0.100591 0.509184
Si Si4 0.211149 0.694644 0.380746
Si Si5 0.842612 0.229858 0.252426
Si Si6 0.745663 0.623095 0.763424
Si Si7 0.835388 0.907659 0.381535
O O1 0.940969 0.886995 0.016623
O O2 0.000000 0.859955 0.250000
O O3 0.000000 0.861630 0.750000
O O4 0.999425 0.000000 0.000000
O O5 0.871534 0.128886 0.756003
O O6 0.877510 0.170773 0.159726
O O7 0.885038 0.000000 0.000000
O O8 0.318679 0.145921 0.276651
O O9 0.349772 0.171072 0.650009
O O10 0.281156 0.096848 0.608984
O O11 0.340473 0.000000 0.500000
O O12 0.187066 0.750250 0.559157
O O13 0.236984 0.618200 0.494170
O O14 0.237085 0.770140 0.266921
O O15 0.824784 0.168238 0.442033
O O16 0.704007 0.576576 0.743807
O O17 0.846065 0.000000 0.500000
#
# Coordination Sequence:
#
# PCOD9321261 Si02
#       7
#     8   8   8   8   8   8   8
#     4   9  20  36  58  87 122 163 202 237 283 359
#     4  11  22  36  58  84 117 155 195 237 297 357
#     4  11  25  38  55  74 105 152 202 251 309 364
#     4  11  20  37  53  71 100 142 187 248 304 350
#     4  11  22  38  54  77 111 147 189 249 297 350
#     4  11  21  33  52  71 101 138 194 247 300 351
#     4  12  24  34  53  82 114 149 194 249 302 357
#
# _framework density 17.800507
#
# number of rings (size 3 to 8) (size 9 to 14) (size 15 to 20)
#    0.000    1.143    5.714    0.857    4.000    2.857 
#    0.000    0.000    0.000    0.000    0.000    0.000 
#    0.000    0.000    9.714    0.286    0.000    0.000 
#
# Total GULP energy -155963.932536 kJ/mol
# GULP energy per Si atom -5570.140448 kJ/mol
# Density = 1.775999 g / cm^3
# Si number density = 17.800507 Si / 1000 Ang^3
#
#
#
# Elastic Constant Matrix: (Units=GPa)
#
#
# Indices 1 2 3 4 5 6 
#
# 1 61.5161 15.9158 32.8513 0.0000 0.0000 0.0000
# 2 15.9158 92.7211 27.6232 0.0000 0.0000 0.0000
# 3 32.8513 27.6232 96.7678 0.0000 0.0000 0.0000
# 4 0.0000 0.0000 0.0000 25.1787 0.0000 0.0000
# 5 0.0000 0.0000 0.0000 0.0000 19.2109 0.0000
# 6 0.0000 0.0000 0.0000 0.0000 0.0000 14.4552
#
#
#
# Elastic Compliance Matrix: (Units=1/GPa)
#
#
# Indices 1 2 3 4 5 6 
#
# 1 0.020056 -0.001546 -0.006368 0.000000 0.000000 0.000000
# 2 -0.001546 0.011907 -0.002874 0.000000 0.000000 0.000000
# 3 -0.006368 -0.002874 0.013316 0.000000 0.000000 0.000000
# 4 0.000000 0.000000 0.000000 0.039716 0.000000 0.000000
# 5 0.000000 0.000000 0.000000 0.000000 0.052054 0.000000
# 6 0.000000 0.000000 0.000000 0.000000 0.000000 0.069179
#
#
# Mechanical properties :
#
#
# Convention : Reuss Voigt Hill
#
# Bulk Modulus (GPa) = 42.18649 44.86507 43.52578
# Shear Modulus (GPa) = 21.21304 23.40995 22.31149
#
# Velocity S-wave (km/s) = 3.45586 3.63040 3.54421
# Velocity P-wave (km/s) = 6.29881 6.54463 6.42290
#
# Compressibility (1/GPa) = 0.02370427
#
# Stress axis : x y z
#
# Youngs Moduli (GPa) = 49.85966 83.98700 75.09672
#
# Poissons Ratio (x) = 0.12982 0.47819
# Poissons Ratio (y) = 0.07707 0.21584
# Poissons Ratio (z) = 0.31749 0.24139
#
# Static dielectric constant tensor:
#      x y z
#    x 1.583460 0.000000 0.000000 
#    y 0.000000 1.630040 0.000000 
#    z 0.000000 0.000000 1.745200 
# 
# From -- ./inp_files/2229.got.cif
#   From: 2010.05.17/outbox.cif.g08.bks.cpg/sg20_2_cif.got.tgz:2229.got - 2010.06.03 22:52:26.
