data_PCOD9321482
_publ_section_title
;
Structure prediction by ZEFSAII (Michael W. Deem and Ramdas Pophale) SiO2 
 PCOD9321482
Probable space group: C 2 2 21
;
_chemical_formula_sum "Si O2"
_cell_formula_units_Z 64
_cell_length_a 15.586568
_cell_length_b 11.883055
_cell_length_c 17.591626
_cell_angle_alpha 90.000000
_cell_angle_beta 90.000000
_cell_angle_gamma 90.000000
_cell_volume 3258.251389
_symmetry_space_group_name_H-M "C 2 2 21"
_symmetry_group_IT_number 20
_symmetry_cell_setting 'orthorhombic'
loop_
_space_group_symop_operation_xyz
x,y,z
-x,-y,1/2+z
x,-y,-z
-x,y,1/2-z
1/2+x,1/2+y,z
1/2-x,1/2-y,1/2+z
1/2+x,1/2-y,-z
1/2-x,1/2+y,1/2-z
loop_
_atom_site_type_symbol
_atom_site_label
_atom_site_fract_x
_atom_site_fract_y
_atom_site_fract_z
Si Si1 0.956178 0.706975 0.509104
Si Si2 0.041986 0.655003 0.668887
Si Si3 0.798350 0.818504 0.817342
Si Si4 0.233963 0.366856 0.987024
Si Si5 0.412745 0.476726 0.221387
Si Si6 0.378866 0.230615 0.254047
Si Si7 0.013873 0.605116 0.359823
Si Si8 0.086152 0.888933 0.449083
O O1 0.853065 0.700596 0.505560
O O2 0.991351 0.614744 0.448364
O O3 0.987719 0.692375 0.595207
O O4 0.005377 0.815554 0.475671
O O5 0.131803 0.721105 0.668808
O O6 0.000000 0.681198 0.750000
O O7 0.043560 0.519527 0.661832
O O8 0.759118 0.849431 0.899329
O O9 0.721460 0.780841 0.763797
O O10 0.840451 0.929353 0.780968
O O11 0.216218 0.500000 0.000000
O O12 0.319586 0.335077 0.034873
O O13 0.500000 0.531777 0.250000
O O14 0.399909 0.361540 0.268407
O O15 0.421792 0.432105 0.136022
O O16 0.430192 0.150140 0.313259
O O17 0.413648 0.189854 0.172206
O O18 0.087800 0.000000 0.500000
#
# Coordination Sequence:
#
# PCOD9321482 Si02
#       8
#     8   8   8   8   8   8   8   8
#     4  12  23  42  75 100 133 183 241 276 351 425
#     4  12  26  43  66 100 144 172 221 296 353 394
#     4  12  26  42  67 106 140 174 234 289 345 418
#     4  11  22  42  70 101 128 183 230 283 338 417
#     4  12  23  44  71  98 137 184 227 280 358 412
#     4  11  23  41  68  99 131 180 227 282 330 417
#     4  11  22  44  67  98 133 181 227 274 341 416
#     4  11  22  44  69  99 138 179 234 288 337 426
#
# _framework density 19.642439
#
# number of rings (size 3 to 8) (size 9 to 14) (size 15 to 20)
#    0.000    0.500    8.750    1.500    1.750    1.000 
#    0.000    0.000    2.750    0.000    0.000    0.000 
#    0.000    0.000    0.000    0.000    0.000    0.000 
#
# Total GULP energy -178654.718074 kJ/mol
# GULP energy per Si atom -5582.959940 kJ/mol
# Density = 1.959773 g / cm^3
# Si number density = 19.642439 Si / 1000 Ang^3
#
#
#
# Elastic Constant Matrix: (Units=GPa)
#
#
# Indices 1 2 3 4 5 6 
#
# 1 160.7194 48.2000 31.0399 0.0000 0.0000 0.0000
# 2 48.2000 93.6061 -8.8538 0.0000 0.0000 0.0000
# 3 31.0399 -8.8538 71.4360 0.0000 0.0000 0.0000
# 4 0.0000 0.0000 0.0000 15.1231 0.0000 0.0000
# 5 0.0000 0.0000 0.0000 0.0000 30.7262 0.0000
# 6 0.0000 0.0000 0.0000 0.0000 0.0000 21.4915
#
#
#
# Elastic Compliance Matrix: (Units=1/GPa)
#
#
# Indices 1 2 3 4 5 6 
#
# 1 0.008478 -0.004770 -0.004275 0.000000 0.000000 0.000000
# 2 -0.004770 0.013493 0.003745 0.000000 0.000000 0.000000
# 3 -0.004275 0.003745 0.016320 0.000000 0.000000 0.000000
# 4 0.000000 0.000000 0.000000 0.066124 0.000000 0.000000
# 5 0.000000 0.000000 0.000000 0.000000 0.032545 0.000000
# 6 0.000000 0.000000 0.000000 0.000000 0.000000 0.046530
#
#
# Mechanical properties :
#
#
# Convention : Reuss Voigt Hill
#
# Bulk Modulus (GPa) = 36.11175 51.83707 43.97441
# Shear Modulus (GPa) = 24.59152 30.49319 27.54235
#
# Velocity S-wave (km/s) = 3.54214 3.94434 3.74864
# Velocity P-wave (km/s) = 5.92904 6.86960 6.41658
#
# Compressibility (1/GPa) = 0.02769182
#
# Stress axis : x y z
#
# Youngs Moduli (GPa) = 117.94950 74.10992 61.27344
#
# Poissons Ratio (x) = 0.35350 0.26195
# Poissons Ratio (y) = 0.56262 -0.22947
# Poissons Ratio (z) = 0.50424 -0.27754
#
# Static dielectric constant tensor:
#      x y z
#    x 1.687500 0.000000 0.000000 
#    y 0.000000 1.727120 0.000000 
#    z 0.000000 0.000000 1.716290 
# 
# From -- ./inp_files/25000.got.cif
#   From: 2010.05.17/outbox.cif.g08.bks.cpg/sg20_13_cif.got.tgz:25000.got - 2010.06.03 22:52:26.
