data_PCOD9321477
_publ_section_title
;
Structure prediction by ZEFSAII (Michael W. Deem and Ramdas Pophale) SiO2 
 PCOD9321477
Probable space group: C 2 2 21
;
_chemical_formula_sum "Si O2"
_cell_formula_units_Z 48
_cell_length_a 11.443139
_cell_length_b 8.972290
_cell_length_c 21.126478
_cell_angle_alpha 90.000000
_cell_angle_beta 90.000000
_cell_angle_gamma 90.000000
_cell_volume 2169.080037
_symmetry_space_group_name_H-M "C 2 2 21"
_symmetry_group_IT_number 20
_symmetry_cell_setting 'orthorhombic'
loop_
_space_group_symop_operation_xyz
x,y,z
-x,-y,1/2+z
x,-y,-z
-x,y,1/2-z
1/2+x,1/2+y,z
1/2-x,1/2-y,1/2+z
1/2+x,1/2-y,-z
1/2-x,1/2+y,1/2-z
loop_
_atom_site_type_symbol
_atom_site_label
_atom_site_fract_x
_atom_site_fract_y
_atom_site_fract_z
Si Si1 0.730999 0.171880 0.324186
Si Si2 0.373495 0.261211 0.469369
Si Si3 0.083489 0.552764 0.435297
Si Si4 0.570849 0.570927 0.094845
Si Si5 0.141117 0.392904 0.255953
Si Si6 0.351288 0.745606 0.115648
O O1 0.651380 0.161444 0.387405
O O2 0.848256 0.084045 0.344211
O O3 0.780113 0.330774 0.301662
O O4 0.666468 0.064718 0.273650
O O5 0.464535 0.129864 0.455854
O O6 0.380409 0.310657 0.542598
O O7 0.418326 0.408623 0.433865
O O8 0.250386 0.226966 0.435950
O O9 0.148538 0.500000 0.500000
O O10 0.074297 0.395650 0.400086
O O11 0.439178 0.610379 0.110915
O O12 0.185642 0.286409 0.313564
O O13 0.000000 0.371935 0.250000
#
# Coordination Sequence:
#
# PCOD9321477 Si02
#       6
#     8   8   8   8   8   8
#     4  11  25  45  72  96 138 182 229 285 340 405
#     4  11  24  41  69 101 136 174 220 277 351 410
#     4  11  22  45  68 100 139 177 221 288 345 412
#     4  11  22  42  68 100 135 175 218 281 341 401
#     4  11  24  45  67  97 134 184 229 282 336 405
#     4  11  23  44  67  95 140 175 224 281 340 399
#
# _framework density 22.129196
#
# number of rings (size 3 to 8) (size 9 to 14) (size 15 to 20)
#    0.000    1.000    6.667    1.000    0.000    4.000 
#    6.000    0.000    0.000    0.000    0.000    0.000 
#    0.000    0.000    0.000    0.000    0.000    0.000 
#
# Total GULP energy -133936.074779 kJ/mol
# GULP energy per Si atom -5580.669782 kJ/mol
# Density = 2.207883 g / cm^3
# Si number density = 22.129196 Si / 1000 Ang^3
#
#
#
# Elastic Constant Matrix: (Units=GPa)
#
#
# Indices 1 2 3 4 5 6 
#
# 1 102.7306 45.1211 13.7123 0.0000 0.0000 0.0000
# 2 45.1211 31.2062 10.6492 0.0000 0.0000 0.0000
# 3 13.7123 10.6492 49.6001 0.0000 0.0000 0.0000
# 4 0.0000 0.0000 0.0000 30.4153 0.0000 0.0000
# 5 0.0000 0.0000 0.0000 0.0000 24.8130 0.0000
# 6 0.0000 0.0000 0.0000 0.0000 0.0000 34.5946
#
#
#
# Elastic Compliance Matrix: (Units=1/GPa)
#
#
# Indices 1 2 3 4 5 6 
#
# 1 0.026718 -0.038966 0.000980 0.000000 0.000000 0.000000
# 2 -0.038966 0.091407 -0.008853 0.000000 0.000000 0.000000
# 3 0.000980 -0.008853 0.021791 0.000000 0.000000 0.000000
# 4 0.000000 0.000000 0.000000 0.032878 0.000000 0.000000
# 5 0.000000 0.000000 0.000000 0.000000 0.040301 0.000000
# 6 0.000000 0.000000 0.000000 0.000000 0.000000 0.028906
#
#
# Mechanical properties :
#
#
# Convention : Reuss Voigt Hill
#
# Bulk Modulus (GPa) = 21.62728 35.83358 28.73043
# Shear Modulus (GPa) = 14.24130 25.56820 19.90475
#
# Velocity S-wave (km/s) = 2.53959 3.40281 3.00239
# Velocity P-wave (km/s) = 4.28879 5.62734 5.00303
#
# Compressibility (1/GPa) = 0.04623789
#
# Stress axis : x y z
#
# Youngs Moduli (GPa) = 37.42820 10.94014 45.89029
#
# Poissons Ratio (x) = 0.42629 -0.04496
# Poissons Ratio (y) = 1.45841 0.40626
# Poissons Ratio (z) = -0.03667 0.09685
#
# Static dielectric constant tensor:
#      x y z
#    x 1.813790 0.000000 0.000000 
#    y 0.000000 1.780520 0.000000 
#    z 0.000000 0.000000 1.932620 
# 
# From -- ./inp_files/28733.got.cif
#   From: 2010.05.17/outbox.cif.g08.bks.cpg/sg20_15_cif.got.tgz:28733.got - 2010.06.03 22:52:26.
