data_PCOD9321723
_publ_section_title
;
Structure prediction by ZEFSAII (Michael W. Deem and Ramdas Pophale) SiO2 
 PCOD9321723
Probable space group: C 2 2 21
;
_chemical_formula_sum "Si O2"
_cell_formula_units_Z 32
_cell_length_a 33.223766
_cell_length_b 8.285266
_cell_length_c 4.996164
_cell_angle_alpha 90.000000
_cell_angle_beta 90.000000
_cell_angle_gamma 90.000000
_cell_volume 1375.282767
_symmetry_space_group_name_H-M "C 2 2 21"
_symmetry_group_IT_number 20
_symmetry_cell_setting 'orthorhombic'
loop_
_space_group_symop_operation_xyz
x,y,z
-x,-y,1/2+z
x,-y,-z
-x,y,1/2-z
1/2+x,1/2+y,z
1/2-x,1/2-y,1/2+z
1/2+x,1/2-y,-z
1/2-x,1/2+y,1/2-z
loop_
_atom_site_type_symbol
_atom_site_label
_atom_site_fract_x
_atom_site_fract_y
_atom_site_fract_z
Si Si1 0.774856 0.771561 0.753056
Si Si2 0.905799 0.841426 0.311117
Si Si3 0.111571 0.500000 0.000000
Si Si4 0.472467 0.500000 0.000000
Si Si5 0.669868 0.000000 0.500000
Si Si6 0.334637 0.500000 0.000000
O O1 0.763293 0.717208 0.455185
O O2 0.800311 0.637818 0.905150
O O3 0.804158 0.924725 0.782050
O O4 0.909405 0.676031 0.479299
O O5 0.942883 0.860250 0.107245
O O6 0.907367 0.000000 0.500000
O O7 0.864618 0.870882 0.140317
O O8 0.140038 0.486496 0.746294
O O9 0.500000 0.549482 0.250000
#
# Coordination Sequence:
#
# PCOD9321723 Si02
#       6
#     8   8   4   4   4   4
#     4  12  25  41  62  93 137 193 251 316 383 435
#     4  11  25  46  82 110 147 199 238 305 365 438
#     4  12  26  45  74 110 146 180 258 298 361 437
#     4  11  24  48  82 116 154 194 238 292 368 454
#     4  12  24  44  62  98 140 183 243 326 359 429
#     4  11  24  43  66 102 142 193 263 308 376 446
#
# _framework density 23.267942999999999
#
# number of rings (size 3 to 8) (size 9 to 14) (size 15 to 20)
#    0.000    0.500    3.750    4.500    7.000    0.000 
#    0.000    0.000    5.500    0.000    0.000    0.000 
#    0.000    0.000    0.000    0.000    0.000    0.000 
#
# Total GULP energy -89433.262603 kJ/mol
# GULP energy per Si atom -5589.578913 kJ/mol
# Density = 2.321498 g / cm^3
# Si number density = 23.267943 Si / 1000 Ang^3
#
#
#
# Elastic Constant Matrix: (Units=GPa)
#
#
# Indices 1 2 3 4 5 6 
#
# 1 86.9784 25.8500 14.1608 0.0000 0.0000 0.0000
# 2 25.8500 146.9460 20.8874 0.0000 0.0000 0.0000
# 3 14.1608 20.8874 107.0206 0.0000 0.0000 0.0000
# 4 0.0000 0.0000 0.0000 36.5351 0.0000 0.0000
# 5 0.0000 0.0000 0.0000 0.0000 30.8538 0.0000
# 6 0.0000 0.0000 0.0000 0.0000 0.0000 13.6705
#
#
#
# Elastic Compliance Matrix: (Units=1/GPa)
#
#
# Indices 1 2 3 4 5 6 
#
# 1 0.012289 -0.001986 -0.001238 0.000000 0.000000 0.000000
# 2 -0.001986 0.007320 -0.001166 0.000000 0.000000 0.000000
# 3 -0.001238 -0.001166 0.009735 0.000000 0.000000 0.000000
# 4 0.000000 0.000000 0.000000 0.027371 0.000000 0.000000
# 5 0.000000 0.000000 0.000000 0.000000 0.032411 0.000000
# 6 0.000000 0.000000 0.000000 0.000000 0.000000 0.073150
#
#
# Mechanical properties :
#
#
# Convention : Reuss Voigt Hill
#
# Bulk Modulus (GPa) = 48.62817 51.41571 50.02194
# Shear Modulus (GPa) = 28.10381 34.88165 31.49273
#
# Velocity S-wave (km/s) = 3.47916 3.87606 3.68296
# Velocity P-wave (km/s) = 6.08966 6.49438 6.29528
#
# Compressibility (1/GPa) = 0.02056421
#
# Stress axis : x y z
#
# Youngs Moduli (GPa) = 81.37417 136.60677 102.71756
#
# Poissons Ratio (x) = 0.27127 0.12721
# Poissons Ratio (y) = 0.16159 0.11976
# Poissons Ratio (z) = 0.10078 0.15928
#
# Static dielectric constant tensor:
#      x y z
#    x 1.980520 0.000000 0.000000 
#    y 0.000000 2.012700 0.000000 
#    z 0.000000 0.000000 1.868450 
# 
# From -- ./inp_files/646.got.cif
#   From: 2010.05.17/outbox.cif.g08.bks.cpg/sg20_1_cif.got.tgz:646.got - 2010.06.03 22:52:26.
