data_PCOD9321748
_publ_section_title
;
Structure prediction by ZEFSAII (Michael W. Deem and Ramdas Pophale) SiO2 
 PCOD9321748
Probable space group: C 2 2 21
;
_chemical_formula_sum "Si O2"
_cell_formula_units_Z 36
_cell_length_a 22.330202
_cell_length_b 6.811518
_cell_length_c 10.613151
_cell_angle_alpha 90.000000
_cell_angle_beta 90.000000
_cell_angle_gamma 90.000000
_cell_volume 1614.287573
_symmetry_space_group_name_H-M "C 2 2 21"
_symmetry_group_IT_number 20
_symmetry_cell_setting 'orthorhombic'
loop_
_space_group_symop_operation_xyz
x,y,z
-x,-y,1/2+z
x,-y,-z
-x,y,1/2-z
1/2+x,1/2+y,z
1/2-x,1/2-y,1/2+z
1/2+x,1/2-y,-z
1/2-x,1/2+y,1/2-z
loop_
_atom_site_type_symbol
_atom_site_label
_atom_site_fract_x
_atom_site_fract_y
_atom_site_fract_z
Si Si1 0.661806 0.765578 0.681418
Si Si2 0.213838 0.940621 0.863123
Si Si3 0.134496 0.413020 0.127041
Si Si4 0.998611 0.338238 0.396401
Si Si5 0.419884 0.500000 0.000000
O O1 0.716264 0.890836 0.624217
O O2 0.696717 0.611431 0.768837
O O3 0.621157 0.643505 0.584974
O O4 0.625495 0.913802 0.772117
O O5 0.177894 0.749692 0.817990
O O6 0.190404 0.000000 0.000000
O O7 0.072565 0.314236 0.082914
O O8 0.163721 0.500000 0.000000
O O9 0.018532 0.500000 0.500000
O O10 0.000000 0.400052 0.250000
O O11 0.037680 0.143257 0.417393
#
# Coordination Sequence:
#
# PCOD9321748 Si02
#       5
#     8   8   8   8   4
#     4  12  27  46  73 114 156 194 257 313 395 459
#     4  12  26  43  73 105 150 196 250 316 387 464
#     4  11  24  44  72 106 145 199 252 314 375 448
#     4  11  26  48  75 106 152 200 264 314 384 453
#     4  12  30  46  78 114 156 206 254 320 386 462
#
# _framework density 22.300861000000001
#
# number of rings (size 3 to 8) (size 9 to 14) (size 15 to 20)
#    0.000    0.444    4.444    2.667    6.222    7.111 
#    0.000    0.000    0.000    0.000    0.000    0.000 
#    0.000    0.000    0.000    0.000    0.000    0.000 
#
# Total GULP energy -100626.962499 kJ/mol
# GULP energy per Si atom -5590.386805 kJ/mol
# Density = 2.225010 g / cm^3
# Si number density = 22.300861 Si / 1000 Ang^3
#
#
#
# Elastic Constant Matrix: (Units=GPa)
#
#
# Indices 1 2 3 4 5 6 
#
# 1 111.4638 63.7226 24.2598 0.0000 0.0000 0.0000
# 2 63.7226 110.4578 62.4833 0.0000 0.0000 0.0000
# 3 24.2598 62.4833 122.3482 0.0000 0.0000 0.0000
# 4 0.0000 0.0000 0.0000 46.2210 0.0000 0.0000
# 5 0.0000 0.0000 0.0000 0.0000 20.2457 0.0000
# 6 0.0000 0.0000 0.0000 0.0000 0.0000 50.4854
#
#
#
# Elastic Compliance Matrix: (Units=1/GPa)
#
#
# Indices 1 2 3 4 5 6 
#
# 1 0.013679 -0.008940 0.001853 0.000000 0.000000 0.000000
# 2 -0.008940 0.018573 -0.007713 0.000000 0.000000 0.000000
# 3 0.001853 -0.007713 0.011745 0.000000 0.000000 0.000000
# 4 0.000000 0.000000 0.000000 0.021635 0.000000 0.000000
# 5 0.000000 0.000000 0.000000 0.000000 0.049393 0.000000
# 6 0.000000 0.000000 0.000000 0.000000 0.000000 0.019808
#
#
# Mechanical properties :
#
#
# Convention : Reuss Voigt Hill
#
# Bulk Modulus (GPa) = 69.45131 71.68904 70.57018
# Shear Modulus (GPa) = 29.54538 36.31070 32.92804
#
# Velocity S-wave (km/s) = 3.64380 4.03950 3.84674
# Velocity P-wave (km/s) = 6.99382 7.34662 7.17239
#
# Compressibility (1/GPa) = 0.01439858
#
# Stress axis : x y z
#
# Youngs Moduli (GPa) = 73.10575 53.84052 85.14317
#
# Poissons Ratio (x) = 0.48131 -0.15778
# Poissons Ratio (y) = 0.65353 0.65670
# Poissons Ratio (z) = -0.13547 0.41526
#
# Static dielectric constant tensor:
#      x y z
#    x 1.828720 0.000000 0.000000 
#    y 0.000000 1.861600 0.000000 
#    z 0.000000 0.000000 1.799760 
# 
# From -- ./inp_files/12077.got.cif
#   From: 2010.05.17/outbox.cif.g08.bks.cpg/sg20_7_cif.got.tgz:12077.got - 2010.06.03 22:52:26.
