data_PCOD9321360
_publ_section_title
;
Structure prediction by ZEFSAII (Michael W. Deem and Ramdas Pophale) SiO2 
 PCOD9321360
Probable space group: C 2 2 21
;
_chemical_formula_sum "Si O2"
_cell_formula_units_Z 60
_cell_length_a 28.523250
_cell_length_b 14.588894
_cell_length_c 6.663488
_cell_angle_alpha 90.000000
_cell_angle_beta 90.000000
_cell_angle_gamma 90.000000
_cell_volume 2772.828423
_symmetry_space_group_name_H-M "C 2 2 21"
_symmetry_group_IT_number 20
_symmetry_cell_setting 'orthorhombic'
loop_
_space_group_symop_operation_xyz
x,y,z
-x,-y,1/2+z
x,-y,-z
-x,y,1/2-z
1/2+x,1/2+y,z
1/2-x,1/2-y,1/2+z
1/2+x,1/2-y,-z
1/2-x,1/2+y,1/2-z
loop_
_atom_site_type_symbol
_atom_site_label
_atom_site_fract_x
_atom_site_fract_y
_atom_site_fract_z
Si Si1 0.381747 0.105929 0.468935
Si Si2 0.500000 0.659576 0.250000
Si Si3 0.354597 0.241123 0.811083
Si Si4 0.408800 0.426686 0.878176
Si Si5 0.298448 0.170487 0.192418
Si Si6 0.791791 0.839774 0.476341
Si Si7 0.885743 0.070604 0.632186
Si Si8 0.453211 0.746687 0.617332
O O1 0.376684 0.159405 0.680612
O O2 0.333013 0.117574 0.344302
O O3 0.423663 0.160605 0.359122
O O4 0.391692 0.000000 0.500000
O O5 0.535397 0.592061 0.365612
O O6 0.472059 0.725792 0.396147
O O7 0.387277 0.324229 0.878965
O O8 0.319522 0.289073 0.654164
O O9 0.329583 0.203567 0.006943
O O10 0.394969 0.451026 0.624587
O O11 0.397729 0.455124 0.123757
O O12 0.254186 0.121089 0.086633
O O13 0.280317 0.260607 0.313617
O O14 0.829658 0.907506 0.375374
O O15 0.916012 0.164622 0.642132
O O16 0.500000 0.741742 0.750000
#
# Coordination Sequence:
#
# PCOD9321360 Si02
#       8
#     8   4   8   8   8   8   8   8
#     4  11  26  52  71  98 142 187 249 323 371 420
#     4  12  24  42  66 102 146 182 228 278 338 440
#     4  11  22  46  67  97 142 185 232 295 362 422
#     4  12  25  38  65 104 140 190 226 269 352 437
#     4  11  23  42  76 101 132 196 240 294 369 430
#     4  11  21  41  68 101 141 187 240 290 352 429
#     4  12  21  42  62  95 150 183 214 286 347 421
#     4  12  26  44  72 102 140 188 240 293 359 432
#
# _framework density 21.638553999999999
#
# number of rings (size 3 to 8) (size 9 to 14) (size 15 to 20)
#    0.000    0.533    8.000    1.600    4.667    0.533 
#    3.600    0.667    0.000    0.000    0.000    0.000 
#    0.000    0.000    0.000    0.000    0.000    0.000 
#
# Total GULP energy -167418.266172 kJ/mol
# GULP energy per Si atom -5580.608872 kJ/mol
# Density = 2.158930 g / cm^3
# Si number density = 21.638554 Si / 1000 Ang^3
#
#
#
# Elastic Constant Matrix: (Units=GPa)
#
#
# Indices 1 2 3 4 5 6 
#
# 1 144.4691 75.0127 42.2412 0.0000 0.0000 0.0000
# 2 75.0127 159.3122 48.0903 0.0000 0.0000 0.0000
# 3 42.2412 48.0903 124.7391 0.0000 0.0000 0.0000
# 4 0.0000 0.0000 0.0000 30.0451 0.0000 0.0000
# 5 0.0000 0.0000 0.0000 0.0000 43.2602 0.0000
# 6 0.0000 0.0000 0.0000 0.0000 0.0000 14.8715
#
#
#
# Elastic Compliance Matrix: (Units=1/GPa)
#
#
# Indices 1 2 3 4 5 6 
#
# 1 0.009464 -0.003948 -0.001683 0.000000 0.000000 0.000000
# 2 -0.003948 0.008751 -0.002037 0.000000 0.000000 0.000000
# 3 -0.001683 -0.002037 0.009372 0.000000 0.000000 0.000000
# 4 0.000000 0.000000 0.000000 0.033283 0.000000 0.000000
# 5 0.000000 0.000000 0.000000 0.000000 0.023116 0.000000
# 6 0.000000 0.000000 0.000000 0.000000 0.000000 0.067243
#
#
# Mechanical properties :
#
#
# Convention : Reuss Voigt Hill
#
# Bulk Modulus (GPa) = 81.62357 84.35654 82.99006
# Shear Modulus (GPa) = 29.30022 35.18044 32.24033
#
# Velocity S-wave (km/s) = 3.68377 4.03652 3.86417
# Velocity P-wave (km/s) = 7.47641 7.79703 7.63841
#
# Compressibility (1/GPa) = 0.01225136
#
# Stress axis : x y z
#
# Youngs Moduli (GPa) = 105.66456 114.27534 106.70371
#
# Poissons Ratio (x) = 0.45118 0.17955
# Poissons Ratio (y) = 0.41718 0.21732
# Poissons Ratio (z) = 0.17780 0.23274
#
# Static dielectric constant tensor:
#      x y z
#    x 1.812540 0.000000 0.000000 
#    y 0.000000 1.769070 0.000000 
#    z 0.000000 0.000000 1.874030 
# 
# From -- ./inp_files/4771.got.cif
#   From: 2010.05.17/outbox.cif.g08.bks.cpg/sg20_3_cif.got.tgz:4771.got - 2010.06.03 22:52:26.
