data_PCOD9321228
_publ_section_title
;
Structure prediction by ZEFSAII (Michael W. Deem and Ramdas Pophale) SiO2 
 PCOD9321228
Probable space group: C 2 2 21
;
_chemical_formula_sum "Si O2"
_cell_formula_units_Z 48
_cell_length_a 19.492365
_cell_length_b 6.319735
_cell_length_c 17.174375
_cell_angle_alpha 90.000000
_cell_angle_beta 90.000000
_cell_angle_gamma 90.000000
_cell_volume 2115.652543
_symmetry_space_group_name_H-M "C 2 2 21"
_symmetry_group_IT_number 20
_symmetry_cell_setting 'orthorhombic'
loop_
_space_group_symop_operation_xyz
x,y,z
-x,-y,1/2+z
x,-y,-z
-x,y,1/2-z
1/2+x,1/2+y,z
1/2-x,1/2-y,1/2+z
1/2+x,1/2-y,-z
1/2-x,1/2+y,1/2-z
loop_
_atom_site_type_symbol
_atom_site_label
_atom_site_fract_x
_atom_site_fract_y
_atom_site_fract_z
Si Si1 0.395036 0.464160 0.160155
Si Si2 0.275389 0.257241 0.873047
Si Si3 0.811732 0.595646 0.231353
Si Si4 0.366301 0.402156 0.417479
Si Si5 0.085178 0.256098 0.197212
Si Si6 0.510487 0.853334 0.843191
O O1 0.342979 0.605472 0.107116
O O2 0.347388 0.312474 0.211360
O O3 0.429279 0.618851 0.224635
O O4 0.448563 0.294858 0.123562
O O5 0.248563 0.355534 0.791169
O O6 0.206232 0.223775 0.922446
O O7 0.294595 0.018792 0.849247
O O8 0.864685 0.439578 0.272692
O O9 0.383813 0.500000 0.500000
O O10 0.372394 0.602254 0.359239
O O11 0.423205 0.245654 0.383495
O O12 0.024777 0.392145 0.154196
O O13 0.500000 0.819297 0.750000
#
# Coordination Sequence:
#
# PCOD9321228 Si02
#       6
#     8   8   8   8   8   8
#     4  11  23  36  68 102 139 175 227 303 363 411
#     4  11  20  37  63  99 134 175 227 290 347 419
#     4  11  18  33  62 102 128 169 221 290 357 401
#     4  12  27  45  68  99 144 195 238 291 368 446
#     4  11  21  37  66  98 141 172 228 294 351 423
#     4  12  23  41  65 103 135 183 239 301 362 415
#
# _framework density 22.688033999999998
#
# number of rings (size 3 to 8) (size 9 to 14) (size 15 to 20)
#    0.000    0.667    8.333    1.000    2.333    0.667 
#    0.000    0.000    3.667    0.000    0.000    0.000 
#    0.000    0.000    0.000    0.000    0.000    0.000 
#
# Total GULP energy -133712.590695 kJ/mol
# GULP energy per Si atom -5571.357946 kJ/mol
# Density = 2.263639 g / cm^3
# Si number density = 22.688034 Si / 1000 Ang^3
#
#
#
# Elastic Constant Matrix: (Units=GPa)
#
#
# Indices 1 2 3 4 5 6 
#
# 1 101.6975 41.5206 -4.1507 0.0000 0.0000 0.0000
# 2 41.5206 119.8454 -12.1921 0.0000 0.0000 0.0000
# 3 -4.1507 -12.1921 10.9828 0.0000 0.0000 0.0000
# 4 0.0000 0.0000 0.0000 6.2558 0.0000 0.0000
# 5 0.0000 0.0000 0.0000 0.0000 9.1788 0.0000
# 6 0.0000 0.0000 0.0000 0.0000 0.0000 58.4274
#
#
#
# Elastic Compliance Matrix: (Units=1/GPa)
#
#
# Indices 1 2 3 4 5 6 
#
# 1 0.011453 -0.003977 -0.000086 0.000000 0.000000 0.000000
# 2 -0.003977 0.010787 0.010472 0.000000 0.000000 0.000000
# 3 -0.000086 0.010472 0.102644 0.000000 0.000000 0.000000
# 4 0.000000 0.000000 0.000000 0.159851 0.000000 0.000000
# 5 0.000000 0.000000 0.000000 0.000000 0.108946 0.000000
# 6 0.000000 0.000000 0.000000 0.000000 0.000000 0.017115
#
#
# Mechanical properties :
#
#
# Convention : Reuss Voigt Hill
#
# Bulk Modulus (GPa) = 7.26204 31.43126 19.34665
# Shear Modulus (GPa) = 11.26433 28.59561 19.92997
#
# Velocity S-wave (km/s) = 2.23062 3.55404 2.96706
# Velocity P-wave (km/s) = 3.13719 5.54304 4.50374
#
# Compressibility (1/GPa) = 0.13770238
#
# Stress axis : x y z
#
# Youngs Moduli (GPa) = 87.31201 92.70283 9.74243
#
# Poissons Ratio (x) = 0.36865 0.00084
# Poissons Ratio (y) = 0.34722 -0.10202
# Poissons Ratio (z) = 0.00752 -0.97078
#
# Static dielectric constant tensor:
#      x y z
#    x 1.991700 0.000000 0.000000 
#    y 0.000000 1.886550 0.000000 
#    z 0.000000 0.000000 1.882520 
# 
# From -- ./inp_files/27857.got.cif
#   From: 2010.05.17/outbox.cif.g08.bks.cpg/sg20_14_cif.got.tgz:27857.got - 2010.06.03 22:52:26.
