data_PCOD9321556
_publ_section_title
;
Structure prediction by ZEFSAII (Michael W. Deem and Ramdas Pophale) SiO2 
 PCOD9321556
Probable space group: C 2 2 21
;
_chemical_formula_sum "Si O2"
_cell_formula_units_Z 40
_cell_length_a 27.331192
_cell_length_b 5.411976
_cell_length_c 12.845652
_cell_angle_alpha 90.000000
_cell_angle_beta 90.000000
_cell_angle_gamma 90.000000
_cell_volume 1900.074316
_symmetry_space_group_name_H-M "C 2 2 21"
_symmetry_group_IT_number 20
_symmetry_cell_setting 'orthorhombic'
loop_
_space_group_symop_operation_xyz
x,y,z
-x,-y,1/2+z
x,-y,-z
-x,y,1/2-z
1/2+x,1/2+y,z
1/2-x,1/2-y,1/2+z
1/2+x,1/2-y,-z
1/2-x,1/2+y,1/2-z
loop_
_atom_site_type_symbol
_atom_site_label
_atom_site_fract_x
_atom_site_fract_y
_atom_site_fract_z
Si Si1 0.555728 0.002735 0.216649
Si Si2 0.313415 0.387285 0.273742
Si Si3 0.094337 0.975417 0.878046
Si Si4 0.640252 0.017367 0.621301
Si Si5 0.762347 0.854381 0.892832
O O1 0.500000 0.036201 0.250000
O O2 0.560854 0.763103 0.142788
O O3 0.590804 0.932037 0.314311
O O4 0.574192 0.261108 0.165431
O O5 0.354786 0.569591 0.316072
O O6 0.289766 0.273557 0.377613
O O7 0.266689 0.484188 0.211306
O O8 0.338851 0.216744 0.186095
O O9 0.102899 0.000000 0.000000
O O10 0.687809 0.195738 0.614973
O O11 0.626397 0.000000 0.500000
O O12 0.763828 0.000000 0.000000
#
# Coordination Sequence:
#
# PCOD9321556 Si02
#       5
#     8   8   8   8   8
#     4  11  25  47  72 104 137 180 231 296 352 418
#     4  11  24  39  63  96 136 181 226 282 337 412
#     4  11  25  45  72 100 142 180 231 282 351 415
#     4  11  23  40  64  94 130 177 230 286 346 412
#     4  12  23  39  65  95 133 181 232 275 343 410
#
# _framework density 21.051808000000001
#
# number of rings (size 3 to 8) (size 9 to 14) (size 15 to 20)
#    0.000    0.800    6.000    1.200    0.000    7.200 
#    0.000    1.000    0.000    0.000    0.000    0.000 
#    0.000    0.000    0.000    0.000    0.000    0.000 
#
# Total GULP energy -111479.142641 kJ/mol
# GULP energy per Si atom -5573.957132 kJ/mol
# Density = 2.100389 g / cm^3
# Si number density = 21.051808 Si / 1000 Ang^3
#
#
#
# Elastic Constant Matrix: (Units=GPa)
#
#
# Indices 1 2 3 4 5 6 
#
# 1 94.0702 12.8221 39.4540 0.0000 0.0000 0.0000
# 2 12.8221 58.8758 22.9128 0.0000 0.0000 0.0000
# 3 39.4540 22.9128 118.9889 0.0000 0.0000 0.0000
# 4 0.0000 0.0000 0.0000 24.0620 0.0000 0.0000
# 5 0.0000 0.0000 0.0000 0.0000 29.6124 0.0000
# 6 0.0000 0.0000 0.0000 0.0000 0.0000 27.0017
#
#
#
# Elastic Compliance Matrix: (Units=1/GPa)
#
#
# Indices 1 2 3 4 5 6 
#
# 1 0.012424 -0.001192 -0.003890 0.000000 0.000000 0.000000
# 2 -0.001192 0.018475 -0.003162 0.000000 0.000000 0.000000
# 3 -0.003890 -0.003162 0.010303 0.000000 0.000000 0.000000
# 4 0.000000 0.000000 0.000000 0.041559 0.000000 0.000000
# 5 0.000000 0.000000 0.000000 0.000000 0.033770 0.000000
# 6 0.000000 0.000000 0.000000 0.000000 0.000000 0.037035
#
#
# Mechanical properties :
#
#
# Convention : Reuss Voigt Hill
#
# Bulk Modulus (GPa) = 40.46341 46.92365 43.69353
# Shear Modulus (GPa) = 28.04373 29.25162 28.64768
#
# Velocity S-wave (km/s) = 3.65379 3.73165 3.69293
# Velocity P-wave (km/s) = 6.08793 6.39570 6.24371
#
# Compressibility (1/GPa) = 0.02471368
#
# Stress axis : x y z
#
# Youngs Moduli (GPa) = 80.48696 54.12656 97.05917
#
# Poissons Ratio (x) = 0.06451 0.37757
# Poissons Ratio (y) = 0.09593 0.30694
# Poissons Ratio (z) = 0.31310 0.17117
#
# Static dielectric constant tensor:
#      x y z
#    x 1.727750 0.000000 0.000000 
#    y 0.000000 1.573000 0.000000 
#    z 0.000000 0.000000 1.734620 
# 
# From -- ./inp_files/12167.got.cif
#   From: 2010.05.17/outbox.cif.g08.bks.cpg/sg20_7_cif.got.tgz:12167.got - 2010.06.03 22:52:26.
