data_PCOD9321577
_publ_section_title
;
Structure prediction by ZEFSAII (Michael W. Deem and Ramdas Pophale) SiO2 
 PCOD9321577
Probable space group: C 2 2 21
;
_chemical_formula_sum "Si O2"
_cell_formula_units_Z 44
_cell_length_a 4.973141
_cell_length_b 28.594751
_cell_length_c 13.285034
_cell_angle_alpha 90.000000
_cell_angle_beta 90.000000
_cell_angle_gamma 90.000000
_cell_volume 1889.207939
_symmetry_space_group_name_H-M "C 2 2 21"
_symmetry_group_IT_number 20
_symmetry_cell_setting 'orthorhombic'
loop_
_space_group_symop_operation_xyz
x,y,z
-x,-y,1/2+z
x,-y,-z
-x,y,1/2-z
1/2+x,1/2+y,z
1/2-x,1/2-y,1/2+z
1/2+x,1/2-y,-z
1/2-x,1/2+y,1/2-z
loop_
_atom_site_type_symbol
_atom_site_label
_atom_site_fract_x
_atom_site_fract_y
_atom_site_fract_z
Si Si1 0.513974 0.198321 0.433916
Si Si2 0.500000 0.467262 0.250000
Si Si3 0.460492 0.098015 0.436466
Si Si4 0.951096 0.963455 0.585865
Si Si5 0.986082 0.800103 0.074156
Si Si6 0.188263 0.617895 0.660110
O O1 0.455501 0.148701 0.383513
O O2 0.816424 0.197641 0.476854
O O3 0.468696 0.248174 0.380900
O O4 0.314255 0.198226 0.531176
O O5 0.402691 0.503225 0.166088
O O6 0.707227 0.431872 0.199723
O O7 0.680324 0.064104 0.385710
O O8 0.556322 0.107249 0.551748
O O9 0.169611 0.074944 0.444205
O O10 0.872294 0.000000 0.500000
O O11 0.077958 0.844226 0.138998
O O12 0.000000 0.636355 0.750000
#
# Coordination Sequence:
#
# PCOD9321577 Si02
#       6
#     8   4   8   8   8   8
#     4   9  18  36  63  92 121 164 206 256 312 393
#     4  12  28  42  66  94 136 174 222 286 342 382
#     4  11  23  42  66  93 129 174 224 263 326 400
#     4  12  25  43  64  95 128 175 223 275 327 390
#     4   9  19  35  60  95 126 155 205 255 324 390
#     4  11  24  39  64  98 132 171 211 281 335 391
#
# _framework density 23.290184
#
# number of rings (size 3 to 8) (size 9 to 14) (size 15 to 20)
#    0.000    1.455    1.818    3.818    7.636    0.000 
#    0.000    0.000    2.000    0.000    0.000    0.000 
#    0.000    0.000    0.000    0.000    0.000    0.000 
#
# Total GULP energy -122865.800026 kJ/mol
# GULP energy per Si atom -5584.809092 kJ/mol
# Density = 2.323717 g / cm^3
# Si number density = 23.290184 Si / 1000 Ang^3
#
#
#
# Elastic Constant Matrix: (Units=GPa)
#
#
# Indices 1 2 3 4 5 6 
#
# 1 68.4072 18.6185 -10.6261 0.0000 0.0000 0.0000
# 2 18.6185 174.9565 11.4425 0.0000 0.0000 0.0000
# 3 -10.6261 11.4425 45.6198 0.0000 0.0000 0.0000
# 4 0.0000 0.0000 0.0000 2.2843 0.0000 0.0000
# 5 0.0000 0.0000 0.0000 0.0000 18.6718 0.0000
# 6 0.0000 0.0000 0.0000 0.0000 0.0000 25.4383
#
#
#
# Elastic Compliance Matrix: (Units=1/GPa)
#
#
# Indices 1 2 3 4 5 6 
#
# 1 0.015798 -0.001954 0.004170 0.000000 0.000000 0.000000
# 2 -0.001954 0.006053 -0.001973 0.000000 0.000000 0.000000
# 3 0.004170 -0.001973 0.023387 0.000000 0.000000 0.000000
# 4 0.000000 0.000000 0.000000 0.437779 0.000000 0.000000
# 5 0.000000 0.000000 0.000000 0.000000 0.053557 0.000000
# 6 0.000000 0.000000 0.000000 0.000000 0.000000 0.039311
#
#
# Mechanical properties :
#
#
# Convention : Reuss Voigt Hill
#
# Bulk Modulus (GPa) = 21.87110 36.42814 29.14962
# Shear Modulus (GPa) = 8.46540 27.24878 17.85709
#
# Velocity S-wave (km/s) = 1.90857 3.42419 2.77198
# Velocity P-wave (km/s) = 3.77729 5.59539 4.77369
#
# Compressibility (1/GPa) = 0.04572245
#
# Stress axis : x y z
#
# Youngs Moduli (GPa) = 63.29963 165.21569 42.75969
#
# Poissons Ratio (x) = 0.32281 -0.17830
# Poissons Ratio (y) = 0.12368 0.08438
# Poissons Ratio (z) = -0.26395 0.32602
#
# Static dielectric constant tensor:
#      x y z
#    x 1.861770 0.000000 0.000000 
#    y 0.000000 1.900620 0.000000 
#    z 0.000000 0.000000 1.997910 
# 
# From -- ./inp_files/17734.got.cif
#   From: 2010.05.17/outbox.cif.g08.bks.cpg/sg20_9_cif.got.tgz:17734.got - 2010.06.03 22:52:26.
