data_PCOD9321080
_publ_section_title
;
Structure prediction by ZEFSAII (Michael W. Deem and Ramdas Pophale) SiO2 
 PCOD9321080
Probable space group: C 2 2 21
;
_chemical_formula_sum "Si O2"
_cell_formula_units_Z 48
_cell_length_a 10.607814
_cell_length_b 9.514148
_cell_length_c 23.432803
_cell_angle_alpha 90.000000
_cell_angle_beta 90.000000
_cell_angle_gamma 90.000000
_cell_volume 2364.939529
_symmetry_space_group_name_H-M "C 2 2 21"
_symmetry_group_IT_number 20
_symmetry_cell_setting 'orthorhombic'
loop_
_space_group_symop_operation_xyz
x,y,z
-x,-y,1/2+z
x,-y,-z
-x,y,1/2-z
1/2+x,1/2+y,z
1/2-x,1/2-y,1/2+z
1/2+x,1/2-y,-z
1/2-x,1/2+y,1/2-z
loop_
_atom_site_type_symbol
_atom_site_label
_atom_site_fract_x
_atom_site_fract_y
_atom_site_fract_z
Si Si1 0.849207 0.545579 0.257227
Si Si2 0.877354 0.173848 0.566828
Si Si3 0.568752 0.837729 0.150215
Si Si4 0.962416 0.559994 0.061828
Si Si5 0.675445 0.374915 0.937878
Si Si6 0.790017 0.300338 0.179575
O O1 0.788513 0.462099 0.203442
O O2 0.777457 0.683158 0.280397
O O3 0.000000 0.577521 0.250000
O O4 0.850384 0.418387 0.302960
O O5 0.830784 0.190951 0.501255
O O6 0.778656 0.205963 0.617778
O O7 0.989838 0.283265 0.572331
O O8 0.915206 0.010016 0.568859
O O9 0.646525 0.731475 0.111999
O O10 0.440082 0.769981 0.174938
O O11 0.520216 0.959194 0.108441
O O12 0.813180 0.559788 0.066014
O O13 0.998852 0.500000 0.000000
#
# Coordination Sequence:
#
# PCOD9321080 Si02
#       6
#     8   8   8   8   8   8
#     4  10  25  44  66  97 131 175 224 274 331 386
#     4  11  23  40  65  96 131 170 215 267 331 396
#     4  11  23  42  69  93 129 173 220 268 331 392
#     4  12  21  41  64  91 135 171 208 272 327 396
#     4  11  24  41  65 101 133 173 212 267 340 397
#     4  11  23  46  67  95 134 171 223 280 322 394
#
# _framework density 20.296503000000001
#
# number of rings (size 3 to 8) (size 9 to 14) (size 15 to 20)
#    0.000    1.000    6.667    0.000    2.333    1.333 
#    3.000    0.000    0.000    0.000    0.000    0.000 
#    0.000    0.000    0.000    0.000    0.000    0.000 
#
# Total GULP energy -133930.750906 kJ/mol
# GULP energy per Si atom -5580.447954 kJ/mol
# Density = 2.025031 g / cm^3
# Si number density = 20.296503 Si / 1000 Ang^3
#
#
#
# Elastic Constant Matrix: (Units=GPa)
#
#
# Indices 1 2 3 4 5 6 
#
# 1 24.7160 32.3848 21.9191 0.0000 0.0000 0.0000
# 2 32.3848 86.9053 27.1416 0.0000 0.0000 0.0000
# 3 21.9191 27.1416 74.8334 0.0000 0.0000 0.0000
# 4 0.0000 0.0000 0.0000 50.2253 0.0000 0.0000
# 5 0.0000 0.0000 0.0000 0.0000 48.1558 0.0000
# 6 0.0000 0.0000 0.0000 0.0000 0.0000 31.3922
#
#
#
# Elastic Compliance Matrix: (Units=1/GPa)
#
#
# Indices 1 2 3 4 5 6 
#
# 1 0.094806 -0.030061 -0.016866 0.000000 0.000000 0.000000
# 2 -0.030061 0.022509 0.000641 0.000000 0.000000 0.000000
# 3 -0.016866 0.000641 0.018071 0.000000 0.000000 0.000000
# 4 0.000000 0.000000 0.000000 0.019910 0.000000 0.000000
# 5 0.000000 0.000000 0.000000 0.000000 0.020766 0.000000
# 6 0.000000 0.000000 0.000000 0.000000 0.000000 0.031855
#
#
# Mechanical properties :
#
#
# Convention : Reuss Voigt Hill
#
# Bulk Modulus (GPa) = 23.35747 38.81619 31.08683
# Shear Modulus (GPa) = 15.88518 32.95528 24.42023
#
# Velocity S-wave (km/s) = 2.80063 4.03388 3.47244
# Velocity P-wave (km/s) = 4.68947 6.39236 5.60596
#
# Compressibility (1/GPa) = 0.04281286
#
# Stress axis : x y z
#
# Youngs Moduli (GPa) = 10.54791 44.42728 55.33874
#
# Poissons Ratio (x) = 1.33554 0.93334
# Poissons Ratio (y) = 0.31708 -0.03549
# Poissons Ratio (z) = 0.17790 -0.02849
#
# Static dielectric constant tensor:
#      x y z
#    x 1.690760 0.000000 0.000000 
#    y 0.000000 1.699250 0.000000 
#    z 0.000000 0.000000 1.964220 
# 
# From -- ./inp_files/28716.got.cif
#   From: 2010.05.17/outbox.cif.g08.bks.cpg/sg20_15_cif.got.tgz:28716.got - 2010.06.03 22:52:26.
