data_PCOD9321950
_publ_section_title
;
Structure prediction by ZEFSAII (Michael W. Deem and Ramdas Pophale) SiO2 
 PCOD9321950
Probable space group: C 2 2 21
;
_chemical_formula_sum "Si O2"
_cell_formula_units_Z 32
_cell_length_a 13.191924
_cell_length_b 20.890308
_cell_length_c 4.900669
_cell_angle_alpha 90.000000
_cell_angle_beta 90.000000
_cell_angle_gamma 90.000000
_cell_volume 1350.542807
_symmetry_space_group_name_H-M "C 2 2 21"
_symmetry_group_IT_number 20
_symmetry_cell_setting 'orthorhombic'
loop_
_space_group_symop_operation_xyz
x,y,z
-x,-y,1/2+z
x,-y,-z
-x,y,1/2-z
1/2+x,1/2+y,z
1/2-x,1/2-y,1/2+z
1/2+x,1/2-y,-z
1/2-x,1/2+y,1/2-z
loop_
_atom_site_type_symbol
_atom_site_label
_atom_site_fract_x
_atom_site_fract_y
_atom_site_fract_z
Si Si1 0.677328 0.253339 0.035905
Si Si2 0.108816 0.621684 0.855735
Si Si3 0.218767 0.568143 0.374289
Si Si4 0.931850 0.117903 0.508319
O O1 0.738977 0.266179 0.757824
O O2 0.604674 0.193023 0.977248
O O3 0.616407 0.316204 0.121513
O O4 0.176746 0.620453 0.586103
O O5 0.000000 0.598762 0.750000
O O6 0.166375 0.579952 0.084274
O O7 0.189365 0.500000 0.500000
O O8 0.339667 0.575502 0.391070
O O9 0.000000 0.088408 0.750000
O O10 0.000000 0.134668 0.250000
#
# Coordination Sequence:
#
# PCOD9321950 Si02
#       4
#     8   8   8   8
#     4  12  22  43  72 104 146 184 227 299 372 435
#     4  12  25  46  74 105 140 190 239 297 365 432
#     4  12  27  48  71 102 144 192 244 300 352 422
#     4  12  25  43  72 105 141 184 234 290 362 433
#
# _framework density 23.694175999999999
#
# number of rings (size 3 to 8) (size 9 to 14) (size 15 to 20)
#    0.000    0.000    5.000    5.250    0.000    5.000 
#    0.000    0.000    0.000    0.000    0.000    0.000 
#    0.000    0.000    0.000    0.000    0.000    0.000 
#
# Total GULP energy -89599.649195 kJ/mol
# GULP energy per Si atom -5599.978075 kJ/mol
# Density = 2.364025 g / cm^3
# Si number density = 23.694176 Si / 1000 Ang^3
#
#
#
# Elastic Constant Matrix: (Units=GPa)
#
#
# Indices 1 2 3 4 5 6 
#
# 1 143.5404 10.7347 52.1795 0.0000 0.0000 0.0000
# 2 10.7347 57.5851 -0.2990 0.0000 0.0000 0.0000
# 3 52.1795 -0.2990 124.5993 0.0000 0.0000 0.0000
# 4 0.0000 0.0000 0.0000 12.2575 0.0000 0.0000
# 5 0.0000 0.0000 0.0000 0.0000 54.1031 0.0000
# 6 0.0000 0.0000 0.0000 0.0000 0.0000 2.8463
#
#
#
# Elastic Compliance Matrix: (Units=1/GPa)
#
#
# Indices 1 2 3 4 5 6 
#
# 1 0.008358 -0.001576 -0.003504 0.000000 0.000000 0.000000
# 2 -0.001576 0.017663 0.000703 0.000000 0.000000 0.000000
# 3 -0.003504 0.000703 0.009495 0.000000 0.000000 0.000000
# 4 0.000000 0.000000 0.000000 0.081583 0.000000 0.000000
# 5 0.000000 0.000000 0.000000 0.000000 0.018483 0.000000
# 6 0.000000 0.000000 0.000000 0.000000 0.000000 0.351333
#
#
# Mechanical properties :
#
#
# Convention : Reuss Voigt Hill
#
# Bulk Modulus (GPa) = 37.36846 50.10613 43.73729
# Shear Modulus (GPa) = 9.90900 31.38202 20.64551
#
# Velocity S-wave (km/s) = 2.04722 3.64326 2.95504
# Velocity P-wave (km/s) = 4.62532 6.23624 5.49019
#
# Compressibility (1/GPa) = 0.02676054
#
# Stress axis : x y z
#
# Youngs Moduli (GPa) = 119.64071 56.61524 105.32023
#
# Poissons Ratio (x) = 0.08924 0.36905
# Poissons Ratio (y) = 0.18859 -0.07399
# Poissons Ratio (z) = 0.41923 -0.03977
#
# Static dielectric constant tensor:
#      x y z
#    x 2.001490 0.000000 0.000000 
#    y 0.000000 1.947120 0.000000 
#    z 0.000000 0.000000 1.844470 
# 
# From -- ./inp_files/1016.got.cif
#   From: 2010.05.17/outbox.cif.g08.bks.cpg/sg20_1_cif.got.tgz:1016.got - 2010.06.03 22:52:26.
