data_PCOD9321736
_publ_section_title
;
Structure prediction by ZEFSAII (Michael W. Deem and Ramdas Pophale) SiO2 
 PCOD9321736
Probable space group: C 2 2 21
;
_chemical_formula_sum "Si O2"
_cell_formula_units_Z 40
_cell_length_a 7.855810
_cell_length_b 21.729235
_cell_length_c 10.030870
_cell_angle_alpha 90.000000
_cell_angle_beta 90.000000
_cell_angle_gamma 90.000000
_cell_volume 1712.276948
_symmetry_space_group_name_H-M "C 2 2 21"
_symmetry_group_IT_number 20
_symmetry_cell_setting 'orthorhombic'
loop_
_space_group_symop_operation_xyz
x,y,z
-x,-y,1/2+z
x,-y,-z
-x,y,1/2-z
1/2+x,1/2+y,z
1/2-x,1/2-y,1/2+z
1/2+x,1/2-y,-z
1/2-x,1/2+y,1/2-z
loop_
_atom_site_type_symbol
_atom_site_label
_atom_site_fract_x
_atom_site_fract_y
_atom_site_fract_z
Si Si1 0.400797 0.745685 0.573239
Si Si2 0.081473 0.119026 0.612676
Si Si3 0.193901 0.818068 0.801388
Si Si4 0.770648 0.071746 0.467115
Si Si5 0.528982 0.859156 0.102697
O O1 0.533160 0.691686 0.609642
O O2 0.706175 0.774543 0.803861
O O3 0.308093 0.713533 0.447205
O O4 0.470347 0.806542 0.505770
O O5 0.282791 0.110894 0.600529
O O6 0.000000 0.094900 0.750000
O O7 0.966502 0.088818 0.499438
O O8 0.000000 0.821494 0.750000
O O9 0.260801 0.888341 0.830441
O O10 0.631792 0.098987 0.569956
O O11 0.756024 0.000000 0.500000
O O12 0.500000 0.832851 0.250000
#
# Coordination Sequence:
#
# PCOD9321736 Si02
#       5
#     8   8   8   8   8
#     4  11  25  43  75 115 159 195 253 321 408 476
#     4  11  24  43  75 109 147 202 244 320 397 455
#     4  11  26  48  76 118 159 206 258 334 402 477
#     4  11  28  52  76 112 153 212 272 315 385 480
#     4  12  26  47  73 114 155 200 254 325 391 469
#
# _framework density 23.360707000000001
#
# number of rings (size 3 to 8) (size 9 to 14) (size 15 to 20)
#    0.000    0.800    2.000    4.200   16.800    1.600 
#    3.600    0.000    0.000    0.000    0.000    0.000 
#    0.000    0.000    0.000    0.000    0.000    0.000 
#
# Total GULP energy -111642.158805 kJ/mol
# GULP energy per Si atom -5582.107940 kJ/mol
# Density = 2.330754 g / cm^3
# Si number density = 23.360707 Si / 1000 Ang^3
#
#
#
# Elastic Constant Matrix: (Units=GPa)
#
#
# Indices 1 2 3 4 5 6 
#
# 1 118.3716 6.3675 29.8393 0.0000 0.0000 0.0000
# 2 6.3675 122.3825 30.5824 0.0000 0.0000 0.0000
# 3 29.8393 30.5824 111.2022 0.0000 0.0000 0.0000
# 4 0.0000 0.0000 0.0000 12.6394 0.0000 0.0000
# 5 0.0000 0.0000 0.0000 0.0000 36.7611 0.0000
# 6 0.0000 0.0000 0.0000 0.0000 0.0000 17.7980
#
#
#
# Elastic Compliance Matrix: (Units=1/GPa)
#
#
# Indices 1 2 3 4 5 6 
#
# 1 0.009063 0.000146 -0.002472 0.000000 0.000000 0.000000
# 2 0.000146 0.008776 -0.002453 0.000000 0.000000 0.000000
# 3 -0.002472 -0.002453 0.010331 0.000000 0.000000 0.000000
# 4 0.000000 0.000000 0.000000 0.079118 0.000000 0.000000
# 5 0.000000 0.000000 0.000000 0.000000 0.027203 0.000000
# 6 0.000000 0.000000 0.000000 0.000000 0.000000 0.056186
#
#
# Mechanical properties :
#
#
# Convention : Reuss Voigt Hill
#
# Bulk Modulus (GPa) = 53.72708 53.94829 53.83769
# Shear Modulus (GPa) = 24.22022 32.45081 28.33551
#
# Velocity S-wave (km/s) = 3.22342 3.73113 3.48653
# Velocity P-wave (km/s) = 6.07476 6.45798 6.26930
#
# Compressibility (1/GPa) = 0.01861259
#
# Stress axis : x y z
#
# Youngs Moduli (GPa) = 110.33502 113.94118 96.79985
#
# Poissons Ratio (x) = -0.01666 0.23931
# Poissons Ratio (y) = -0.01613 0.23744
# Poissons Ratio (z) = 0.27277 0.27949
#
# Static dielectric constant tensor:
#      x y z
#    x 1.969050 0.000000 0.000000 
#    y 0.000000 1.923300 0.000000 
#    z 0.000000 0.000000 1.763810 
# 
# From -- ./inp_files/12911.got.cif
#   From: 2010.05.17/outbox.cif.g08.bks.cpg/sg20_7_cif.got.tgz:12911.got - 2010.06.03 22:52:26.
