data_PCOD9321418
_publ_section_title
;
Structure prediction by ZEFSAII (Michael W. Deem and Ramdas Pophale) SiO2 
 PCOD9321418
Probable space group: C 2 2 21
;
_chemical_formula_sum "Si O2"
_cell_formula_units_Z 40
_cell_length_a 25.593966
_cell_length_b 10.675558
_cell_length_c 5.346265
_cell_angle_alpha 90.000000
_cell_angle_beta 90.000000
_cell_angle_gamma 90.000000
_cell_volume 1460.759283
_symmetry_space_group_name_H-M "C 2 2 21"
_symmetry_group_IT_number 20
_symmetry_cell_setting 'orthorhombic'
loop_
_space_group_symop_operation_xyz
x,y,z
-x,-y,1/2+z
x,-y,-z
-x,y,1/2-z
1/2+x,1/2+y,z
1/2-x,1/2-y,1/2+z
1/2+x,1/2-y,-z
1/2-x,1/2+y,1/2-z
loop_
_atom_site_type_symbol
_atom_site_label
_atom_site_fract_x
_atom_site_fract_y
_atom_site_fract_z
Si Si1 0.035084 0.500000 0.500000
Si Si2 0.878341 0.354863 0.517275
Si Si3 0.918803 0.766363 0.927035
Si Si4 0.819724 0.827133 0.097648
Si Si5 0.776045 0.610024 0.821580
Si Si6 0.000000 0.926479 0.250000
O O1 0.071313 0.376900 0.528850
O O2 0.000000 0.508925 0.750000
O O3 0.896424 0.500000 0.500000
O O4 0.921335 0.272889 0.367107
O O5 0.855618 0.265254 0.734754
O O6 0.823421 0.371973 0.366240
O O7 0.866152 0.854075 0.909111
O O8 0.958253 0.845222 0.094317
O O9 0.782303 0.923607 0.232784
O O10 0.775498 0.739214 0.973791
O O11 0.794203 0.500000 0.000000
O O12 0.976969 0.000000 0.500000
#
# Coordination Sequence:
#
# PCOD9321418 Si02
#       6
#     4   8   8   8   8   4
#     4  12  28  48  86 122 158 192 256 360 432 490
#     4  11  22  40  75 107 157 193 254 331 405 469
#     4  11  28  49  77 119 149 205 270 336 419 483
#     4  11  23  41  67 105 150 200 256 319 382 472
#     4  11  22  39  62 102 148 205 251 305 380 463
#     4  12  32  60  86 110 164 224 278 338 404 498
#
# _framework density 27.383019000000001
#
# number of rings (size 3 to 8) (size 9 to 14) (size 15 to 20)
#    0.000    0.800    5.000    1.200   11.200    0.800 
#    0.000    0.000    0.000    0.000    0.000    0.000 
#    0.000    0.000    0.000    0.000    0.000    0.000 
#
# Total GULP energy -111399.072672 kJ/mol
# GULP energy per Si atom -5569.953634 kJ/mol
# Density = 2.732069 g / cm^3
# Si number density = 27.383019 Si / 1000 Ang^3
#
#
#
# Elastic Constant Matrix: (Units=GPa)
#
#
# Indices 1 2 3 4 5 6 
#
# 1 139.4173 26.7850 17.1672 0.0000 0.0000 0.0000
# 2 26.7850 72.1056 8.4082 0.0000 0.0000 0.0000
# 3 17.1672 8.4082 44.7417 0.0000 0.0000 0.0000
# 4 0.0000 0.0000 0.0000 22.0898 0.0000 0.0000
# 5 0.0000 0.0000 0.0000 0.0000 46.4977 0.0000
# 6 0.0000 0.0000 0.0000 0.0000 0.0000 9.4881
#
#
#
# Elastic Compliance Matrix: (Units=1/GPa)
#
#
# Indices 1 2 3 4 5 6 
#
# 1 0.008003 -0.002673 -0.002568 0.000000 0.000000 0.000000
# 2 -0.002673 0.015072 -0.001807 0.000000 0.000000 0.000000
# 3 -0.002568 -0.001807 0.023675 0.000000 0.000000 0.000000
# 4 0.000000 0.000000 0.000000 0.045270 0.000000 0.000000
# 5 0.000000 0.000000 0.000000 0.000000 0.021506 0.000000
# 6 0.000000 0.000000 0.000000 0.000000 0.000000 0.105395
#
#
# Mechanical properties :
#
#
# Convention : Reuss Voigt Hill
#
# Bulk Modulus (GPa) = 30.62421 40.10947 35.36684
# Shear Modulus (GPa) = 20.50000 29.20875 24.85437
#
# Velocity S-wave (km/s) = 2.73910 3.26954 3.01600
# Velocity P-wave (km/s) = 4.60559 5.37890 5.00720
#
# Compressibility (1/GPa) = 0.03265390
#
# Stress axis : x y z
#
# Youngs Moduli (GPa) = 124.96060 66.34711 42.23789
#
# Poissons Ratio (x) = 0.17736 0.10847
# Poissons Ratio (y) = 0.33405 0.07631
# Poissons Ratio (z) = 0.32092 0.11987
#
# Static dielectric constant tensor:
#      x y z
#    x 2.242560 0.000000 0.000000 
#    y 0.000000 2.314320 0.000000 
#    z 0.000000 0.000000 1.666770 
# 
# From -- ./inp_files/4117.got.cif
#   From: 2010.05.17/outbox.cif.g08.bks.cpg/sg20_3_cif.got.tgz:4117.got - 2010.06.03 22:52:26.
