data_PCOD9321107
_publ_section_title
;
Structure prediction by ZEFSAII (Michael W. Deem and Ramdas Pophale) SiO2 
 PCOD9321107
Probable space group: C 2 2 21
;
_chemical_formula_sum "Si O2"
_cell_formula_units_Z 24
_cell_length_a 4.978647
_cell_length_b 22.338098
_cell_length_c 8.342108
_cell_angle_alpha 90.000000
_cell_angle_beta 90.000000
_cell_angle_gamma 90.000000
_cell_volume 927.755066
_symmetry_space_group_name_H-M "C 2 2 21"
_symmetry_group_IT_number 20
_symmetry_cell_setting 'orthorhombic'
loop_
_space_group_symop_operation_xyz
x,y,z
-x,-y,1/2+z
x,-y,-z
-x,y,1/2-z
1/2+x,1/2+y,z
1/2-x,1/2-y,1/2+z
1/2+x,1/2-y,-z
1/2-x,1/2+y,1/2-z
loop_
_atom_site_type_symbol
_atom_site_label
_atom_site_fract_x
_atom_site_fract_y
_atom_site_fract_z
Si Si1 0.809927 0.667791 0.998123
Si Si2 0.500000 0.734557 0.750000
Si Si3 0.325129 0.588899 0.043317
Si Si4 0.500000 0.508795 0.750000
O O1 0.725528 0.692241 0.825270
O O2 0.537974 0.641224 0.074886
O O3 0.044404 0.618402 0.996173
O O4 0.903364 0.722651 0.108009
O O5 0.480837 0.553326 0.900507
O O6 0.286277 0.540902 0.186263
#
# Coordination Sequence:
#
# PCOD9321107 Si02
#       4
#     8   4   8   4
#     4  12  28  49  75 110 154 204 263 320 388 464
#     4  12  29  50  78 114 160 216 265 326 392 472
#     4  11  26  46  73 108 147 197 255 319 387 466
#     4  10  25  46  74 106 146 194 249 316 390 458
#
# _framework density 25.868898000000002
#
# number of rings (size 3 to 8) (size 9 to 14) (size 15 to 20)
#    0.000    0.667    0.000    5.000    0.000   25.333 
#    0.000    0.000    0.000    0.000    0.000    0.000 
#    0.000    0.000    0.000    0.000    0.000    0.000 
#
# Total GULP energy -67105.343104 kJ/mol
# GULP energy per Si atom -5592.111925 kJ/mol
# Density = 2.581002 g / cm^3
# Si number density = 25.868898 Si / 1000 Ang^3
#
#
#
# Elastic Constant Matrix: (Units=GPa)
#
#
# Indices 1 2 3 4 5 6 
#
# 1 174.9578 68.1470 62.9559 0.0000 0.0000 0.0000
# 2 68.1470 127.5144 51.1681 0.0000 0.0000 0.0000
# 3 62.9559 51.1681 131.8289 0.0000 0.0000 0.0000
# 4 0.0000 0.0000 0.0000 45.9238 0.0000 0.0000
# 5 0.0000 0.0000 0.0000 0.0000 34.8759 0.0000
# 6 0.0000 0.0000 0.0000 0.0000 0.0000 -56.4921
#
#
#
# Elastic Compliance Matrix: (Units=1/GPa)
#
#
# Indices 1 2 3 4 5 6 
#
# 1 0.007865 -0.003193 -0.002516 0.000000 0.000000 0.000000
# 2 -0.003193 0.010586 -0.002584 0.000000 0.000000 0.000000
# 3 -0.002516 -0.002584 0.009790 0.000000 0.000000 0.000000
# 4 0.000000 0.000000 0.000000 0.021775 0.000000 0.000000
# 5 0.000000 0.000000 0.000000 0.000000 0.028673 0.000000
# 6 0.000000 0.000000 0.000000 0.000000 0.000000 -0.017702
#
#
# Mechanical properties :
#
#
# Convention : Reuss Voigt Hill
#
# Bulk Modulus (GPa) = 85.81005 88.76034 87.28520
# Shear Modulus (GPa) = 61.38020 21.66353 41.52187
#
# Velocity S-wave (km/s) = 4.87636 2.89699 4.01070
# Velocity P-wave (km/s) = 8.05906 6.75101 7.43386
#
# Compressibility (1/GPa) = 0.01165365
#
# Stress axis : x y z
#
# Youngs Moduli (GPa) = 127.14440 94.46712 102.14309
#
# Poissons Ratio (x) = 0.30168 0.25704
# Poissons Ratio (y) = 0.40604 0.26390
# Poissons Ratio (z) = 0.31996 0.24407
#
# Static dielectric constant tensor:
#      x y z
#    x 1.972490 0.000000 0.000000 
#    y 0.000000 2.024060 0.000000 
#    z 0.000000 0.000000 2.149000 
# 
# From -- ./inp_files/4984.got.cif
#   From: 2010.05.17/outbox.cif.g08.bks.cpg/sg20_3_cif.got.tgz:4984.got - 2010.06.03 22:52:26.
