data_PCOD9321955
_publ_section_title
;
Structure prediction by ZEFSAII (Michael W. Deem and Ramdas Pophale) SiO2 
 PCOD9321955
Probable space group: C 2 2 21
;
_chemical_formula_sum "Si O2"
_cell_formula_units_Z 44
_cell_length_a 32.085136
_cell_length_b 8.808708
_cell_length_c 7.857772
_cell_angle_alpha 90.000000
_cell_angle_beta 90.000000
_cell_angle_gamma 90.000000
_cell_volume 2220.831054
_symmetry_space_group_name_H-M "C 2 2 21"
_symmetry_group_IT_number 20
_symmetry_cell_setting 'orthorhombic'
loop_
_space_group_symop_operation_xyz
x,y,z
-x,-y,1/2+z
x,-y,-z
-x,y,1/2-z
1/2+x,1/2+y,z
1/2-x,1/2-y,1/2+z
1/2+x,1/2-y,-z
1/2-x,1/2+y,1/2-z
loop_
_atom_site_type_symbol
_atom_site_label
_atom_site_fract_x
_atom_site_fract_y
_atom_site_fract_z
Si Si1 0.954412 0.103841 0.827848
Si Si2 0.901869 0.000000 0.500000
Si Si3 0.344664 0.336905 0.730589
Si Si4 0.113264 0.324457 0.544137
Si Si5 0.224347 0.674564 0.955519
Si Si6 0.189073 0.825043 0.284783
O O1 0.928928 0.253306 0.881763
O O2 0.000000 0.131364 0.750000
O O3 0.928510 0.033075 0.669057
O O4 0.956396 0.000000 0.000000
O O5 0.871713 0.862978 0.559141
O O6 0.305384 0.229307 0.696951
O O7 0.328672 0.504340 0.781843
O O8 0.373666 0.268832 0.875919
O O9 0.109816 0.500000 0.500000
O O10 0.151523 0.287863 0.670912
O O11 0.210672 0.782786 0.108325
O O12 0.215921 0.500000 0.000000
O O13 0.273050 0.689521 0.916640
#
# Coordination Sequence:
#
# PCOD9321955 Si02
#       6
#     8   4   8   8   8   8
#     4  12  24  45  77 110 136 177 232 282 342 424
#     4  12  22  44  74 104 134 176 234 282 332 410
#     4  12  23  43  69  94 136 186 236 284 338 418
#     4  12  25  44  69 101 142 181 224 289 354 406
#     4  12  24  37  58  95 134 178 237 296 345 393
#     4  12  23  41  61  91 131 186 238 279 344 414
#
# _framework density 19.812403
#
# number of rings (size 3 to 8) (size 9 to 14) (size 15 to 20)
#    0.000    0.000    6.364    4.909    0.000    1.455 
#    0.000    2.727    0.000    0.000    0.000    0.000 
#    0.000    0.000    0.000    0.000    0.000    0.000 
#
# Total GULP energy -123038.732260 kJ/mol
# GULP energy per Si atom -5592.669648 kJ/mol
# Density = 1.976731 g / cm^3
# Si number density = 19.812403 Si / 1000 Ang^3
#
#
#
# Elastic Constant Matrix: (Units=GPa)
#
#
# Indices 1 2 3 4 5 6 
#
# 1 166.4211 76.2821 57.7144 0.0000 0.0000 0.0000
# 2 76.2821 124.8708 37.3970 0.0000 0.0000 0.0000
# 3 57.7144 37.3970 119.2278 0.0000 0.0000 0.0000
# 4 0.0000 0.0000 0.0000 31.4594 0.0000 0.0000
# 5 0.0000 0.0000 0.0000 0.0000 71.6152 0.0000
# 6 0.0000 0.0000 0.0000 0.0000 0.0000 17.1773
#
#
#
# Elastic Compliance Matrix: (Units=1/GPa)
#
#
# Indices 1 2 3 4 5 6 
#
# 1 0.009211 -0.004736 -0.002973 0.000000 0.000000 0.000000
# 2 -0.004736 0.011274 -0.001243 0.000000 0.000000 0.000000
# 3 -0.002973 -0.001243 0.010217 0.000000 0.000000 0.000000
# 4 0.000000 0.000000 0.000000 0.031787 0.000000 0.000000
# 5 0.000000 0.000000 0.000000 0.000000 0.013964 0.000000
# 6 0.000000 0.000000 0.000000 0.000000 0.000000 0.058216
#
#
# Mechanical properties :
#
#
# Convention : Reuss Voigt Hill
#
# Bulk Modulus (GPa) = 78.15224 83.70076 80.92650
# Shear Modulus (GPa) = 31.87969 39.99212 35.93591
#
# Velocity S-wave (km/s) = 4.01568 4.49769 4.26350
# Velocity P-wave (km/s) = 7.81234 8.32530 8.07290
#
# Compressibility (1/GPa) = 0.01279554
#
# Stress axis : x y z
#
# Youngs Moduli (GPa) = 108.56624 88.69857 97.88079
#
# Poissons Ratio (x) = 0.42012 0.29101
# Poissons Ratio (y) = 0.51422 0.12171
# Poissons Ratio (z) = 0.32278 0.11029
#
# Static dielectric constant tensor:
#      x y z
#    x 1.705370 0.000000 0.000000 
#    y 0.000000 1.646890 0.000000 
#    z 0.000000 0.000000 1.806090 
# 
# From -- ./inp_files/11379.got.cif
#   From: 2010.05.17/outbox.cif.g08.bks.cpg/sg20_6_cif.got.tgz:11379.got - 2010.06.03 22:52:26.
