data_PCOD9321784
_publ_section_title
;
Structure prediction by ZEFSAII (Michael W. Deem and Ramdas Pophale) SiO2 
 PCOD9321784
Probable space group: C 2 2 21
;
_chemical_formula_sum "Si O2"
_cell_formula_units_Z 40
_cell_length_a 21.654521
_cell_length_b 6.610068
_cell_length_c 12.366927
_cell_angle_alpha 90.000000
_cell_angle_beta 90.000000
_cell_angle_gamma 90.000000
_cell_volume 1770.175420
_symmetry_space_group_name_H-M "C 2 2 21"
_symmetry_group_IT_number 20
_symmetry_cell_setting 'orthorhombic'
loop_
_space_group_symop_operation_xyz
x,y,z
-x,-y,1/2+z
x,-y,-z
-x,y,1/2-z
1/2+x,1/2+y,z
1/2-x,1/2-y,1/2+z
1/2+x,1/2-y,-z
1/2-x,1/2+y,1/2-z
loop_
_atom_site_type_symbol
_atom_site_label
_atom_site_fract_x
_atom_site_fract_y
_atom_site_fract_z
Si Si1 0.059229 0.433505 0.622394
Si Si2 0.831883 0.841418 0.209827
Si Si3 0.505004 0.465249 0.117966
Si Si4 0.405897 0.274625 0.712970
Si Si5 0.202585 0.506054 0.126655
O O1 0.061257 0.500000 0.500000
O O2 0.122145 0.310494 0.647988
O O3 0.059742 0.626653 0.701368
O O4 0.001424 0.277482 0.629802
O O5 0.809569 0.723873 0.317768
O O6 0.770254 0.919206 0.153100
O O7 0.875189 0.033910 0.228134
O O8 0.500000 0.516230 0.250000
O O9 0.560695 0.627509 0.107638
O O10 0.471269 0.500000 0.000000
O O11 0.348867 0.140119 0.674752
O O12 0.194769 0.500000 0.000000
#
# Coordination Sequence:
#
# PCOD9321784 Si02
#       5
#     8   8   8   8   8
#     4  11  27  47  76 111 146 201 257 310 385 449
#     4  11  24  47  71 109 149 194 245 311 371 459
#     4  12  27  49  78 109 151 203 253 319 377 451
#     4  11  26  50  70 104 158 191 254 306 378 460
#     4  11  26  43  76 107 148 195 245 303 385 452
#
# _framework density 22.596630000000001
#
# number of rings (size 3 to 8) (size 9 to 14) (size 15 to 20)
#    0.000    0.800    4.000    1.200    5.600    2.400 
#    0.000    0.000    0.000    0.000    0.000    0.000 
#    0.000    0.000    0.000    0.000    0.000    0.000 
#
# Total GULP energy -111354.216604 kJ/mol
# GULP energy per Si atom -5567.710830 kJ/mol
# Density = 2.254520 g / cm^3
# Si number density = 22.596630 Si / 1000 Ang^3
#
#
#
# Elastic Constant Matrix: (Units=GPa)
#
#
# Indices 1 2 3 4 5 6 
#
# 1 90.2667 52.6120 32.7197 0.0000 0.0000 0.0000
# 2 52.6120 185.7848 69.3903 0.0000 0.0000 0.0000
# 3 32.7197 69.3903 114.5510 0.0000 0.0000 0.0000
# 4 0.0000 0.0000 0.0000 26.9132 0.0000 0.0000
# 5 0.0000 0.0000 0.0000 0.0000 29.5230 0.0000
# 6 0.0000 0.0000 0.0000 0.0000 0.0000 36.7513
#
#
#
# Elastic Compliance Matrix: (Units=1/GPa)
#
#
# Indices 1 2 3 4 5 6 
#
# 1 0.013616 -0.003106 -0.002008 0.000000 0.000000 0.000000
# 2 -0.003106 0.007665 -0.003756 0.000000 0.000000 0.000000
# 3 -0.002008 -0.003756 0.011578 0.000000 0.000000 0.000000
# 4 0.000000 0.000000 0.000000 0.037156 0.000000 0.000000
# 5 0.000000 0.000000 0.000000 0.000000 0.033872 0.000000
# 6 0.000000 0.000000 0.000000 0.000000 0.000000 0.027210
#
#
# Mechanical properties :
#
#
# Convention : Reuss Voigt Hill
#
# Bulk Modulus (GPa) = 66.13653 77.78295 71.95974
# Shear Modulus (GPa) = 32.49327 34.36285 33.42806
#
# Velocity S-wave (km/s) = 3.79617 3.90385 3.85039
# Velocity P-wave (km/s) = 6.96753 7.40386 7.18901
#
# Compressibility (1/GPa) = 0.01512024
#
# Stress axis : x y z
#
# Youngs Moduli (GPa) = 73.44054 130.46271 86.36757
#
# Poissons Ratio (x) = 0.40523 0.17341
# Poissons Ratio (y) = 0.22811 0.32439
# Poissons Ratio (z) = 0.14745 0.49001
#
# Static dielectric constant tensor:
#      x y z
#    x 2.989890 0.000000 0.000000 
#    y 0.000000 1.846900 0.000000 
#    z 0.000000 0.000000 1.757890 
# 
# From -- ./inp_files/16860.got.cif
#   From: 2010.05.17/outbox.cif.g08.bks.cpg/sg20_9_cif.got.tgz:16860.got - 2010.06.03 22:52:26.
