data_PCOD9321471
_publ_section_title
;
Structure prediction by ZEFSAII (Michael W. Deem and Ramdas Pophale) SiO2 
 PCOD9321471
Probable space group: C 2 2 21
;
_chemical_formula_sum "Si O2"
_cell_formula_units_Z 56
_cell_length_a 6.591128
_cell_length_b 27.832973
_cell_length_c 15.186742
_cell_angle_alpha 90.000000
_cell_angle_beta 90.000000
_cell_angle_gamma 90.000000
_cell_volume 2786.018263
_symmetry_space_group_name_H-M "C 2 2 21"
_symmetry_group_IT_number 20
_symmetry_cell_setting 'orthorhombic'
loop_
_space_group_symop_operation_xyz
x,y,z
-x,-y,1/2+z
x,-y,-z
-x,y,1/2-z
1/2+x,1/2+y,z
1/2-x,1/2-y,1/2+z
1/2+x,1/2-y,-z
1/2-x,1/2+y,1/2-z
loop_
_atom_site_type_symbol
_atom_site_label
_atom_site_fract_x
_atom_site_fract_y
_atom_site_fract_z
Si Si1 0.118212 0.534891 0.157899
Si Si2 0.377659 0.944722 0.159587
Si Si3 0.819198 0.260973 0.369162
Si Si4 0.021138 0.810017 0.503709
Si Si5 0.132343 0.640487 0.089217
Si Si6 0.500000 0.208493 0.250000
Si Si7 0.382672 0.160162 0.919815
Si Si8 0.000000 0.008051 0.750000
O O1 0.099949 0.584627 0.107842
O O2 0.348121 0.521950 0.186879
O O3 0.000000 0.542005 0.250000
O O4 0.002184 0.488995 0.115943
O O5 0.500000 0.936395 0.250000
O O6 0.380908 0.894824 0.109826
O O7 0.152735 0.961253 0.188733
O O8 0.944149 0.217316 0.410184
O O9 0.672802 0.276723 0.449049
O O10 0.677629 0.242043 0.290745
O O11 0.976724 0.305405 0.359482
O O12 0.844946 0.822215 0.435041
O O13 0.149389 0.853900 0.542585
O O14 0.096708 0.673620 0.175171
O O15 0.977149 0.660623 0.017283
#
# Coordination Sequence:
#
# PCOD9321471 Si02
#       8
#     8   8   8   8   8   4   8   4
#     4   9  19  39  64  93 129 165 204 270 323 373
#     4   9  21  41  65  90 123 169 213 264 318 383
#     4  11  23  42  63  91 127 166 214 269 323 383
#     4  11  22  42  65  88 129 173 211 264 325 379
#     4  11  24  40  65  99 128 165 215 261 324 395
#     4  12  24  42  67 100 126 164 223 266 322 396
#     4  11  24  43  64  90 134 171 208 269 328 382
#     4   8  18  36  65  88 126 158 217 260 306 374
#
# _framework density 20.100370999999999
#
# number of rings (size 3 to 8) (size 9 to 14) (size 15 to 20)
#    0.000    2.000    3.571    0.857    0.000   10.286 
#    0.000    0.714    0.000    0.000    0.000    0.000 
#    0.000    0.000    0.000    0.000    0.000    0.000 
#
# Total GULP energy -156201.103530 kJ/mol
# GULP energy per Si atom -5578.610840 kJ/mol
# Density = 2.005462 g / cm^3
# Si number density = 20.100371 Si / 1000 Ang^3
#
#
#
# Elastic Constant Matrix: (Units=GPa)
#
#
# Indices 1 2 3 4 5 6 
#
# 1 96.4081 20.3606 5.6140 0.0000 0.0000 0.0000
# 2 20.3606 105.7008 11.4815 0.0000 0.0000 0.0000
# 3 5.6140 11.4815 50.1106 0.0000 0.0000 0.0000
# 4 0.0000 0.0000 0.0000 41.0388 0.0000 0.0000
# 5 0.0000 0.0000 0.0000 0.0000 18.6723 0.0000
# 6 0.0000 0.0000 0.0000 0.0000 0.0000 6.4179
#
#
#
# Elastic Compliance Matrix: (Units=1/GPa)
#
#
# Indices 1 2 3 4 5 6 
#
# 1 0.010840 -0.002006 -0.000755 0.000000 0.000000 0.000000
# 2 -0.002006 0.010073 -0.002083 0.000000 0.000000 0.000000
# 3 -0.000755 -0.002083 0.020518 0.000000 0.000000 0.000000
# 4 0.000000 0.000000 0.000000 0.024367 0.000000 0.000000
# 5 0.000000 0.000000 0.000000 0.000000 0.053555 0.000000
# 6 0.000000 0.000000 0.000000 0.000000 0.000000 0.155815
#
#
# Mechanical properties :
#
#
# Convention : Reuss Voigt Hill
#
# Bulk Modulus (GPa) = 31.50307 36.34795 33.92551
# Shear Modulus (GPa) = 16.92404 27.54336 22.23370
#
# Velocity S-wave (km/s) = 2.90483 3.70576 3.32947
# Velocity P-wave (km/s) = 5.19207 6.03595 5.62985
#
# Compressibility (1/GPa) = 0.03174294
#
# Stress axis : x y z
#
# Youngs Moduli (GPa) = 92.24919 99.27149 48.73827
#
# Poissons Ratio (x) = 0.19915 0.03679
# Poissons Ratio (y) = 0.18506 0.10154
# Poissons Ratio (z) = 0.06963 0.20681
#
# Static dielectric constant tensor:
#      x y z
#    x 1.743730 0.000000 0.000000 
#    y 0.000000 1.718420 0.000000 
#    z 0.000000 0.000000 1.722340 
# 
# From -- ./inp_files/18000.got.cif
#   From: 2010.05.17/outbox.cif.g08.bks.cpg/sg20_9_cif.got.tgz:18000.got - 2010.06.03 22:52:26.
