data_PCOD9321437
_publ_section_title
;
Structure prediction by ZEFSAII (Michael W. Deem and Ramdas Pophale) SiO2 
 PCOD9321437
Probable space group: C 2 2 21
;
_chemical_formula_sum "Si O2"
_cell_formula_units_Z 32
_cell_length_a 32.846186
_cell_length_b 5.325885
_cell_length_c 7.962928
_cell_angle_alpha 90.000000
_cell_angle_beta 90.000000
_cell_angle_gamma 90.000000
_cell_volume 1392.994884
_symmetry_space_group_name_H-M "C 2 2 21"
_symmetry_group_IT_number 20
_symmetry_cell_setting 'orthorhombic'
loop_
_space_group_symop_operation_xyz
x,y,z
-x,-y,1/2+z
x,-y,-z
-x,y,1/2-z
1/2+x,1/2+y,z
1/2-x,1/2-y,1/2+z
1/2+x,1/2-y,-z
1/2-x,1/2+y,1/2-z
loop_
_atom_site_type_symbol
_atom_site_label
_atom_site_fract_x
_atom_site_fract_y
_atom_site_fract_z
Si Si1 0.678408 0.000000 0.000000
Si Si2 0.035367 0.751685 0.113881
Si Si3 0.248558 0.266702 0.641534
Si Si4 0.626074 0.359628 0.180688
Si Si5 0.824900 0.000000 0.000000
O O1 0.709446 0.778369 0.044560
O O2 0.650481 0.100701 0.149222
O O3 0.078705 0.798741 0.204926
O O4 0.000000 0.721912 0.250000
O O5 0.038429 0.500000 0.000000
O O6 0.027787 0.000000 0.000000
O O7 0.250844 0.526747 0.735576
O O8 0.207464 0.223642 0.535312
O O9 0.646976 0.505755 0.334447
O O10 0.628322 0.500000 0.000000
#
# Coordination Sequence:
#
# PCOD9321437 Si02
#       5
#     4   8   8   8   4
#     4  11  22  40  68  92 150 184 232 302 362 407
#     4  11  25  48  76 110 150 190 237 303 371 440
#     4  11  24  43  64 102 144 186 245 301 353 426
#     4  11  24  47  70 105 143 189 239 309 356 440
#     4  11  24  44  74 102 140 198 248 290 372 435
#
# _framework density 22.972087999999999
#
# number of rings (size 3 to 8) (size 9 to 14) (size 15 to 20)
#    0.000    1.000    3.750    2.250    1.750    3.000 
#    4.500    0.000    0.000    0.000    0.000    0.000 
#    0.000    0.000    0.000    0.000    0.000    0.000 
#
# Total GULP energy -89511.213022 kJ/mol
# GULP energy per Si atom -5594.450814 kJ/mol
# Density = 2.291980 g / cm^3
# Si number density = 22.972088 Si / 1000 Ang^3
#
#
#
# Elastic Constant Matrix: (Units=GPa)
#
#
# Indices 1 2 3 4 5 6 
#
# 1 216.4566 38.9095 93.6606 0.0000 0.0000 0.0000
# 2 38.9095 151.5179 59.8915 0.0000 0.0000 0.0000
# 3 93.6606 59.8915 132.2542 0.0000 0.0000 0.0000
# 4 0.0000 0.0000 0.0000 56.1099 0.0000 0.0000
# 5 0.0000 0.0000 0.0000 0.0000 51.6197 0.0000
# 6 0.0000 0.0000 0.0000 0.0000 0.0000 21.7068
#
#
#
# Elastic Compliance Matrix: (Units=1/GPa)
#
#
# Indices 1 2 3 4 5 6 
#
# 1 0.006665 0.000188 -0.004805 0.000000 0.000000 0.000000
# 2 0.000188 0.008044 -0.003776 0.000000 0.000000 0.000000
# 3 -0.004805 -0.003776 0.012674 0.000000 0.000000 0.000000
# 4 0.000000 0.000000 0.000000 0.017822 0.000000 0.000000
# 5 0.000000 0.000000 0.000000 0.000000 0.019372 0.000000
# 6 0.000000 0.000000 0.000000 0.000000 0.000000 0.046068
#
#
# Mechanical properties :
#
#
# Convention : Reuss Voigt Hill
#
# Bulk Modulus (GPa) = 94.36681 98.35021 96.35851
# Shear Modulus (GPa) = 38.17788 46.40507 42.29147
#
# Velocity S-wave (km/s) = 4.08109 4.49939 4.29534
# Velocity P-wave (km/s) = 7.96085 8.36053 8.16314
#
# Compressibility (1/GPa) = 0.01059695
#
# Stress axis : x y z
#
# Youngs Moduli (GPa) = 150.02875 124.31410 78.90059
#
# Poissons Ratio (x) = -0.02335 0.37915
# Poissons Ratio (y) = -0.02817 0.29791
# Poissons Ratio (z) = 0.72095 0.46938
#
# Static dielectric constant tensor:
#      x y z
#    x 1.822490 0.000000 0.000000 
#    y 0.000000 1.915710 0.000000 
#    z 0.000000 0.000000 1.973280 
# 
# From -- ./inp_files/11269.got.cif
#   From: 2010.05.17/outbox.cif.g08.bks.cpg/sg20_6_cif.got.tgz:11269.got - 2010.06.03 22:52:26.
