data_PCOD9321498
_publ_section_title
;
Structure prediction by ZEFSAII (Michael W. Deem and Ramdas Pophale) SiO2 
 PCOD9321498
Probable space group: C 2 2 21
;
_chemical_formula_sum "Si O2"
_cell_formula_units_Z 56
_cell_length_a 18.727913
_cell_length_b 15.223773
_cell_length_c 9.688306
_cell_angle_alpha 90.000000
_cell_angle_beta 90.000000
_cell_angle_gamma 90.000000
_cell_volume 2762.228043
_symmetry_space_group_name_H-M "C 2 2 21"
_symmetry_group_IT_number 20
_symmetry_cell_setting 'orthorhombic'
loop_
_space_group_symop_operation_xyz
x,y,z
-x,-y,1/2+z
x,-y,-z
-x,y,1/2-z
1/2+x,1/2+y,z
1/2-x,1/2-y,1/2+z
1/2+x,1/2-y,-z
1/2-x,1/2+y,1/2-z
loop_
_atom_site_type_symbol
_atom_site_label
_atom_site_fract_x
_atom_site_fract_y
_atom_site_fract_z
Si Si1 0.212643 0.539999 0.846541
Si Si2 0.612550 0.328795 0.981337
Si Si3 0.167588 0.810586 0.290296
Si Si4 0.125744 0.199297 0.415410
Si Si5 0.918052 0.338343 0.288003
Si Si6 0.242182 0.136257 0.221508
Si Si7 0.517669 0.558049 0.389103
O O1 0.272031 0.614412 0.812400
O O2 0.134583 0.583717 0.831905
O O3 0.224157 0.458658 0.742700
O O4 0.221226 0.500000 0.000000
O O5 0.587835 0.237586 0.906920
O O6 0.682934 0.359588 0.898339
O O7 0.551331 0.401297 0.961458
O O8 0.631484 0.318281 0.141548
O O9 0.116089 0.812605 0.422710
O O10 0.203658 0.715083 0.303058
O O11 0.115447 0.294454 0.350309
O O12 0.201162 0.162893 0.363229
O O13 0.066887 0.138243 0.343311
O O14 0.000000 0.359544 0.250000
O O15 0.558282 0.500000 0.500000
O O16 0.500000 0.506716 0.250000
#
# Coordination Sequence:
#
# PCOD9321498 Si02
#       7
#     8   8   8   8   8   8   8
#     4  12  25  42  74 103 136 185 237 290 347 427
#     4  11  23  42  67  97 138 182 220 287 350 412
#     4  12  25  40  69 103 138 175 225 287 352 405
#     4  11  22  43  68  94 134 182 221 282 346 417
#     4  11  22  49  74  93 135 193 234 279 356 411
#     4  11  23  43  66  99 135 171 232 279 342 408
#     4  12  26  42  63  97 136 179 226 281 349 422
#
# _framework density 20.273489000000001
#
# number of rings (size 3 to 8) (size 9 to 14) (size 15 to 20)
#    0.000    0.571    8.571    1.714    6.000    0.000 
#    0.000    1.429    0.000    0.000    0.000    0.000 
#    0.000    0.000    0.000    0.000    0.000    0.000 
#
# Total GULP energy -156425.573969 kJ/mol
# GULP energy per Si atom -5586.627642 kJ/mol
# Density = 2.022735 g / cm^3
# Si number density = 20.273489 Si / 1000 Ang^3
#
#
#
# Elastic Constant Matrix: (Units=GPa)
#
#
# Indices 1 2 3 4 5 6 
#
# 1 38.8774 -2.2720 -0.2906 0.0000 0.0000 0.0000
# 2 -2.2720 64.6440 -5.4108 0.0000 0.0000 0.0000
# 3 -0.2906 -5.4108 105.2695 0.0000 0.0000 0.0000
# 4 0.0000 0.0000 0.0000 20.9084 0.0000 0.0000
# 5 0.0000 0.0000 0.0000 0.0000 21.9822 0.0000
# 6 0.0000 0.0000 0.0000 0.0000 0.0000 24.7096
#
#
#
# Elastic Compliance Matrix: (Units=1/GPa)
#
#
# Indices 1 2 3 4 5 6 
#
# 1 0.025776 0.000916 0.000118 0.000000 0.000000 0.000000
# 2 0.000916 0.015569 0.000803 0.000000 0.000000 0.000000
# 3 0.000118 0.000803 0.009541 0.000000 0.000000 0.000000
# 4 0.000000 0.000000 0.000000 0.047828 0.000000 0.000000
# 5 0.000000 0.000000 0.000000 0.000000 0.045491 0.000000
# 6 0.000000 0.000000 0.000000 0.000000 0.000000 0.040470
#
#
# Mechanical properties :
#
#
# Convention : Reuss Voigt Hill
#
# Bulk Modulus (GPa) = 18.32856 21.42713 19.87784
# Shear Modulus (GPa) = 25.10192 27.97100 26.53646
#
# Velocity S-wave (km/s) = 3.52257 3.71844 3.62183
# Velocity P-wave (km/s) = 5.06014 5.38774 5.22650
#
# Compressibility (1/GPa) = 0.05455967
#
# Stress axis : x y z
#
# Youngs Moduli (GPa) = 38.79530 64.23139 104.81062
#
# Poissons Ratio (x) = -0.05883 -0.01239
# Poissons Ratio (y) = -0.03553 -0.08414
# Poissons Ratio (z) = -0.00459 -0.05156
#
# Static dielectric constant tensor:
#      x y z
#    x 1.713430 0.000000 0.000000 
#    y 0.000000 1.709960 0.000000 
#    z 0.000000 0.000000 1.950780 
# 
# From -- ./inp_files/10199.got.cif
#   From: 2010.05.17/outbox.cif.g08.bks.cpg/sg20_6_cif.got.tgz:10199.got - 2010.06.03 22:52:26.
