data_PCOD9321914
_publ_section_title
;
Structure prediction by ZEFSAII (Michael W. Deem and Ramdas Pophale) SiO2 
 PCOD9321914
Probable space group: C 2 2 21
;
_chemical_formula_sum "Si O2"
_cell_formula_units_Z 32
_cell_length_a 6.911043
_cell_length_b 13.980230
_cell_length_c 11.462657
_cell_angle_alpha 90.000000
_cell_angle_beta 90.000000
_cell_angle_gamma 90.000000
_cell_volume 1107.498658
_symmetry_space_group_name_H-M "C 2 2 21"
_symmetry_group_IT_number 20
_symmetry_cell_setting 'orthorhombic'
loop_
_space_group_symop_operation_xyz
x,y,z
-x,-y,1/2+z
x,-y,-z
-x,y,1/2-z
1/2+x,1/2+y,z
1/2-x,1/2-y,1/2+z
1/2+x,1/2-y,-z
1/2-x,1/2+y,1/2-z
loop_
_atom_site_type_symbol
_atom_site_label
_atom_site_fract_x
_atom_site_fract_y
_atom_site_fract_z
Si Si1 0.739056 0.267105 0.306969
Si Si2 0.966329 0.847176 0.505457
Si Si3 0.778423 0.571629 0.331542
Si Si4 0.669115 0.944936 0.357579
O O1 0.564860 0.304639 0.389096
O O2 0.101935 0.232584 0.097626
O O3 0.799207 0.016951 0.282111
O O4 0.814931 0.352276 0.226700
O O5 0.772400 0.904711 0.471929
O O6 0.132303 0.910456 0.564556
O O7 0.306852 0.823159 0.724221
O O8 0.966704 0.505901 0.367136
#
# Coordination Sequence:
#
# PCOD9321914 Si02
#       4
#     8   8   8   8
#     4  12  30  54  98 150 198 258 324 416 484 592
#     4  12  30  57 101 148 196 264 321 408 501 576
#     4  11  30  56  98 144 200 255 330 401 483 591
#     4  11  30  56  98 144 200 255 330 401 483 591
#
# _framework density 28.893940000000001
#
# number of rings (size 3 to 8) (size 9 to 14) (size 15 to 20)
#    0.000    0.500    0.000    3.000   28.000   10.000 
#    0.000    0.000   11.000    0.000    0.000    0.000 
#    0.000    0.000    0.000    0.000    0.000    0.000 
#
# Total GULP energy -89657.882082 kJ/mol
# GULP energy per Si atom -5603.617630 kJ/mol
# Density = 2.882818 g / cm^3
# Si number density = 28.893940 Si / 1000 Ang^3
#
#
#
# Elastic Constant Matrix: (Units=GPa)
#
#
# Indices 1 2 3 4 5 6 
#
# 1 207.9728 82.1267 87.5730 0.0000 0.0000 0.0000
# 2 82.1267 224.4616 94.3227 0.0000 0.0000 0.0000
# 3 87.5730 94.3227 188.9939 0.0000 0.0000 0.0000
# 4 0.0000 0.0000 0.0000 57.4422 0.0000 0.0000
# 5 0.0000 0.0000 0.0000 0.0000 41.0188 0.0000
# 6 0.0000 0.0000 0.0000 0.0000 0.0000 73.7639
#
#
#
# Elastic Compliance Matrix: (Units=1/GPa)
#
#
# Indices 1 2 3 4 5 6 
#
# 1 0.006286 -0.001362 -0.002233 0.000000 0.000000 0.000000
# 2 -0.001362 0.005932 -0.002330 0.000000 0.000000 0.000000
# 3 -0.002233 -0.002330 0.007489 0.000000 0.000000 0.000000
# 4 0.000000 0.000000 0.000000 0.017409 0.000000 0.000000
# 5 0.000000 0.000000 0.000000 0.000000 0.024379 0.000000
# 6 0.000000 0.000000 0.000000 0.000000 0.000000 0.013557
#
#
# Mechanical properties :
#
#
# Convention : Reuss Voigt Hill
#
# Bulk Modulus (GPa) = 127.25808 127.71923 127.48865
# Shear Modulus (GPa) = 55.85286 58.27204 57.06245
#
# Velocity S-wave (km/s) = 4.40139 4.49570 4.44880
# Velocity P-wave (km/s) = 8.36472 8.44081 8.40285
#
# Compressibility (1/GPa) = 0.00785805
#
# Stress axis : x y z
#
# Youngs Moduli (GPa) = 159.07284 168.56867 133.53329
#
# Poissons Ratio (x) = 0.22952 0.29823
# Poissons Ratio (y) = 0.21659 0.31110
# Poissons Ratio (z) = 0.35527 0.39273
#
# Static dielectric constant tensor:
#      x y z
#    x 2.335160 0.000000 0.000000 
#    y 0.000000 2.215280 0.000000 
#    z 0.000000 0.000000 2.369090 
# 
# From -- ./inp_files/13585.got.cif
#   From: 2010.05.17/outbox.cif.g08.bks.cpg/sg20_7_cif.got.tgz:13585.got - 2010.06.03 22:52:26.
