data_PCOD9321813
_publ_section_title
;
Structure prediction by ZEFSAII (Michael W. Deem and Ramdas Pophale) SiO2 
 PCOD9321813
Probable space group: C 2 2 21
;
_chemical_formula_sum "Si O2"
_cell_formula_units_Z 40
_cell_length_a 20.209278
_cell_length_b 11.402980
_cell_length_c 9.284965
_cell_angle_alpha 90.000000
_cell_angle_beta 90.000000
_cell_angle_gamma 90.000000
_cell_volume 2139.682978
_symmetry_space_group_name_H-M "C 2 2 21"
_symmetry_group_IT_number 20
_symmetry_cell_setting 'orthorhombic'
loop_
_space_group_symop_operation_xyz
x,y,z
-x,-y,1/2+z
x,-y,-z
-x,y,1/2-z
1/2+x,1/2+y,z
1/2-x,1/2-y,1/2+z
1/2+x,1/2-y,-z
1/2-x,1/2+y,1/2-z
loop_
_atom_site_type_symbol
_atom_site_label
_atom_site_fract_x
_atom_site_fract_y
_atom_site_fract_z
Si Si1 0.076087 0.707664 0.767052
Si Si2 0.337303 0.820494 0.532701
Si Si3 0.819469 0.066906 0.639690
Si Si4 0.315182 0.035556 0.726660
Si Si5 0.068538 0.026336 0.332359
O O1 0.127161 0.613032 0.701520
O O2 0.084509 0.836696 0.700401
O O3 0.000000 0.673661 0.750000
O O4 0.097606 0.708414 0.936502
O O5 0.310139 0.702306 0.599613
O O6 0.292609 0.880736 0.407994
O O7 0.345182 0.919652 0.653536
O O8 0.748901 0.011508 0.680186
O O9 0.846734 0.000000 0.500000
O O10 0.871948 0.048744 0.765703
O O11 0.000000 0.000754 0.250000
O O12 0.060962 0.000000 0.500000
#
# Coordination Sequence:
#
# PCOD9321813 Si02
#       5
#     8   8   8   8   8
#     4   9  19  41  67  85 129 169 212 266 322 377
#     4   9  21  41  63  90 127 169 218 262 324 378
#     4  12  23  39  65  93 134 164 214 274 325 387
#     4   9  22  39  63  91 128 168 219 257 330 386
#     4  11  25  40  65  93 127 167 215 266 332 390
#
# _framework density 18.69436
#
# number of rings (size 3 to 8) (size 9 to 14) (size 15 to 20)
#    1.200    0.800    2.000    0.600   11.200    0.000 
#    0.000    3.000    4.400    0.000    0.000    0.000 
#    0.000    0.000    0.000    0.000    0.000    0.000 
#
# Total GULP energy -111359.212118 kJ/mol
# GULP energy per Si atom -5567.960606 kJ/mol
# Density = 1.865181 g / cm^3
# Si number density = 18.694360 Si / 1000 Ang^3
#
#
#
# Elastic Constant Matrix: (Units=GPa)
#
#
# Indices 1 2 3 4 5 6 
#
# 1 61.7407 13.5536 35.8164 0.0000 0.0000 0.0000
# 2 13.5536 88.0550 32.7362 0.0000 0.0000 0.0000
# 3 35.8164 32.7362 98.2997 0.0000 0.0000 0.0000
# 4 0.0000 0.0000 0.0000 34.3563 0.0000 0.0000
# 5 0.0000 0.0000 0.0000 0.0000 31.0005 0.0000
# 6 0.0000 0.0000 0.0000 0.0000 0.0000 20.9106
#
#
#
# Elastic Compliance Matrix: (Units=1/GPa)
#
#
# Indices 1 2 3 4 5 6 
#
# 1 0.020552 -0.000433 -0.007344 0.000000 0.000000 0.000000
# 2 -0.000433 0.012970 -0.004162 0.000000 0.000000 0.000000
# 3 -0.007344 -0.004162 0.014235 0.000000 0.000000 0.000000
# 4 0.000000 0.000000 0.000000 0.029107 0.000000 0.000000
# 5 0.000000 0.000000 0.000000 0.000000 0.032258 0.000000
# 6 0.000000 0.000000 0.000000 0.000000 0.000000 0.047823
#
#
# Mechanical properties :
#
#
# Convention : Reuss Voigt Hill
#
# Bulk Modulus (GPa) = 41.87668 45.81196 43.84432
# Shear Modulus (GPa) = 26.48554 28.31941 27.40248
#
# Velocity S-wave (km/s) = 3.76808 3.89635 3.83275
# Velocity P-wave (km/s) = 6.43277 6.69336 6.56436
#
# Compressibility (1/GPa) = 0.02387964
#
# Stress axis : x y z
#
# Youngs Moduli (GPa) = 48.65640 77.09873 70.25031
#
# Poissons Ratio (x) = 0.03339 0.51593
# Poissons Ratio (y) = 0.02107 0.29236
# Poissons Ratio (z) = 0.35734 0.32086
#
# Static dielectric constant tensor:
#      x y z
#    x 1.620260 0.000000 0.000000 
#    y 0.000000 1.653140 0.000000 
#    z 0.000000 0.000000 1.651930 
# 
# From -- ./inp_files/9976.got.cif
#   From: 2010.05.17/outbox.cif.g08.bks.cpg/sg20_5_cif.got.tgz:9976.got - 2010.06.03 22:52:26.
