data_PCOD9321619
_publ_section_title
;
Structure prediction by ZEFSAII (Michael W. Deem and Ramdas Pophale) SiO2 
 PCOD9321619
Probable space group: C 2 2 21
;
_chemical_formula_sum "Si O2"
_cell_formula_units_Z 56
_cell_length_a 14.045289
_cell_length_b 14.740357
_cell_length_c 11.760106
_cell_angle_alpha 90.000000
_cell_angle_beta 90.000000
_cell_angle_gamma 90.000000
_cell_volume 2434.725016
_symmetry_space_group_name_H-M "C 2 2 21"
_symmetry_group_IT_number 20
_symmetry_cell_setting 'orthorhombic'
loop_
_space_group_symop_operation_xyz
x,y,z
-x,-y,1/2+z
x,-y,-z
-x,y,1/2-z
1/2+x,1/2+y,z
1/2-x,1/2-y,1/2+z
1/2+x,1/2-y,-z
1/2-x,1/2+y,1/2-z
loop_
_atom_site_type_symbol
_atom_site_label
_atom_site_fract_x
_atom_site_fract_y
_atom_site_fract_z
Si Si1 0.507280 0.409127 0.453379
Si Si2 0.824794 0.148997 0.214903
Si Si3 0.640034 0.080509 0.089978
Si Si4 0.500000 0.520206 0.250000
Si Si5 0.866711 0.663407 0.903502
Si Si6 0.000000 0.466663 0.250000
Si Si7 0.804345 0.105592 0.469060
Si Si8 0.017432 0.712296 0.387107
O O1 0.559002 0.500000 0.500000
O O2 0.458860 0.451624 0.342403
O O3 0.418408 0.382282 0.530307
O O4 0.551690 0.314842 0.417203
O O5 0.740743 0.112710 0.135890
O O6 0.913811 0.081612 0.210737
O O7 0.866598 0.243418 0.168116
O O8 0.781947 0.143148 0.342948
O O9 0.581299 0.172419 0.060028
O O10 0.571125 0.031225 0.180711
O O11 0.653205 0.000000 0.000000
O O12 0.931236 0.593501 0.831101
O O13 0.754731 0.650980 0.929692
O O14 0.908446 0.657841 0.033017
O O15 0.785491 0.000000 0.500000
O O16 0.000000 0.709376 0.250000
#
# Coordination Sequence:
#
# PCOD9321619 Si02
#       8
#     8   8   8   4   8   4   8   8
#     4  11  23  44  70 102 143 186 248 309 381 463
#     4  12  27  48  75 111 152 203 260 331 385 471
#     4  12  27  50  75 114 161 200 265 321 395 468
#     4  12  23  47  74 100 142 194 246 316 392 454
#     4  12  28  44  78 113 153 200 263 322 396 455
#     4  12  27  47  82 114 160 212 254 334 398 470
#     4  11  24  46  74 100 144 200 255 301 388 473
#     4  12  25  46  76 109 147 200 258 315 384 478
#
# _framework density 23.000544000000001
#
# number of rings (size 3 to 8) (size 9 to 14) (size 15 to 20)
#    0.000    0.286    5.714    3.857    4.000    2.857 
#    0.000    0.000    0.000    0.000    0.000    0.000 
#    0.000    0.000    0.000    0.000    0.000    0.000 
#
# Total GULP energy -155947.618945 kJ/mol
# GULP energy per Si atom -5569.557819 kJ/mol
# Density = 2.294819 g / cm^3
# Si number density = 23.000544 Si / 1000 Ang^3
#
#
#
# Elastic Constant Matrix: (Units=GPa)
#
#
# Indices 1 2 3 4 5 6 
#
# 1 79.4669 2.9451 -2.3492 0.0000 0.0000 0.0000
# 2 2.9451 85.8104 24.8144 0.0000 0.0000 0.0000
# 3 -2.3492 24.8144 79.6348 0.0000 0.0000 0.0000
# 4 0.0000 0.0000 0.0000 25.7923 0.0000 0.0000
# 5 0.0000 0.0000 0.0000 0.0000 31.6528 0.0000
# 6 0.0000 0.0000 0.0000 0.0000 0.0000 31.0106
#
#
#
# Elastic Compliance Matrix: (Units=1/GPa)
#
#
# Indices 1 2 3 4 5 6 
#
# 1 0.012622 -0.000594 0.000558 0.000000 0.000000 0.000000
# 2 -0.000594 0.012836 -0.004017 0.000000 0.000000 0.000000
# 3 0.000558 -0.004017 0.013826 0.000000 0.000000 0.000000
# 4 0.000000 0.000000 0.000000 0.038771 0.000000 0.000000
# 5 0.000000 0.000000 0.000000 0.000000 0.031593 0.000000
# 6 0.000000 0.000000 0.000000 0.000000 0.000000 0.032247
#
#
# Mechanical properties :
#
#
# Convention : Reuss Voigt Hill
#
# Bulk Modulus (GPa) = 32.07643 32.85917 32.46780
# Shear Modulus (GPa) = 31.17314 32.32460 31.74887
#
# Velocity S-wave (km/s) = 3.68546 3.75291 3.71934
# Velocity P-wave (km/s) = 5.66449 5.75295 5.70889
#
# Compressibility (1/GPa) = 0.03117554
#
# Stress axis : x y z
#
# Youngs Moduli (GPa) = 79.22438 77.90790 72.33000
#
# Poissons Ratio (x) = 0.04631 -0.04033
# Poissons Ratio (y) = 0.04710 0.29056
# Poissons Ratio (z) = -0.04418 0.31297
#
# Static dielectric constant tensor:
#      x y z
#    x 1.904360 0.000000 0.000000 
#    y 0.000000 1.916280 0.000000 
#    z 0.000000 0.000000 2.083180 
# 
# From -- ./inp_files/15176.got.cif
#   From: 2010.05.17/outbox.cif.g08.bks.cpg/sg20_8_cif.got.tgz:15176.got - 2010.06.03 22:52:26.
