data_PCOD9321530
_publ_section_title
;
Structure prediction by ZEFSAII (Michael W. Deem and Ramdas Pophale) SiO2 
 PCOD9321530
Probable space group: C 2 2 21
;
_chemical_formula_sum "Si O2"
_cell_formula_units_Z 64
_cell_length_a 11.462765
_cell_length_b 9.058321
_cell_length_c 29.637474
_cell_angle_alpha 90.000000
_cell_angle_beta 90.000000
_cell_angle_gamma 90.000000
_cell_volume 3077.359839
_symmetry_space_group_name_H-M "C 2 2 21"
_symmetry_group_IT_number 20
_symmetry_cell_setting 'orthorhombic'
loop_
_space_group_symop_operation_xyz
x,y,z
-x,-y,1/2+z
x,-y,-z
-x,y,1/2-z
1/2+x,1/2+y,z
1/2-x,1/2-y,1/2+z
1/2+x,1/2-y,-z
1/2-x,1/2+y,1/2-z
loop_
_atom_site_type_symbol
_atom_site_label
_atom_site_fract_x
_atom_site_fract_y
_atom_site_fract_z
Si Si1 0.537163 0.228835 0.199605
Si Si2 0.116649 0.137497 0.625721
Si Si3 0.715229 0.346294 0.587394
Si Si4 0.862081 0.800710 0.612868
Si Si5 0.520632 0.960518 0.356921
Si Si6 0.996149 0.162996 0.022508
Si Si7 0.523880 0.153344 0.064364
Si Si8 0.271271 0.409325 0.342517
O O1 0.500000 0.195650 0.250000
O O2 0.434046 0.319263 0.174224
O O3 0.653756 0.325419 0.194792
O O4 0.555643 0.082410 0.169246
O O5 0.235612 0.224003 0.614369
O O6 0.017318 0.199843 0.591851
O O7 0.148973 0.968806 0.617206
O O8 0.629832 0.321730 0.545711
O O9 0.742049 0.203284 0.616937
O O10 0.842278 0.394557 0.570529
O O11 0.954034 0.692217 0.637304
O O12 0.908364 0.823637 0.562170
O O13 0.845429 0.954379 0.638644
O O14 0.641258 0.958122 0.329575
O O15 0.543405 0.026123 0.407511
O O16 0.006754 0.295791 0.986620
O O17 0.005510 0.000000 0.000000
#
# Coordination Sequence:
#
# PCOD9321530 Si02
#       8
#     8   8   8   8   8   8   8   8
#     4  11  25  51  76 108 144 172 234 306 361 440
#     4  11  22  46  70  97 142 189 229 284 375 422
#     4  12  23  43  72  94 144 196 231 291 359 416
#     4  12  24  44  71 100 146 194 239 291 351 429
#     4  11  24  47  71 102 139 196 233 284 370 436
#     4  12  26  39  64 108 144 188 252 301 336 404
#     4  11  23  42  64 101 138 191 241 293 342 408
#     4  12  23  45  73 101 139 188 232 282 369 430
#
# _framework density 20.797046000000002
#
# number of rings (size 3 to 8) (size 9 to 14) (size 15 to 20)
#    0.000    0.500    8.750    1.500    1.750    0.500 
#    4.500    0.625    0.000    0.000    0.000    0.000 
#    0.000    0.000    0.000    0.000    0.000    0.000 
#
# Total GULP energy -178779.619927 kJ/mol
# GULP energy per Si atom -5586.863123 kJ/mol
# Density = 2.074971 g / cm^3
# Si number density = 20.797046 Si / 1000 Ang^3
#
#
#
# Elastic Constant Matrix: (Units=GPa)
#
#
# Indices 1 2 3 4 5 6 
#
# 1 100.4507 21.2666 16.6930 0.0000 0.0000 0.0000
# 2 21.2666 114.3961 14.3394 0.0000 0.0000 0.0000
# 3 16.6930 14.3394 72.2695 0.0000 0.0000 0.0000
# 4 0.0000 0.0000 0.0000 15.1353 0.0000 0.0000
# 5 0.0000 0.0000 0.0000 0.0000 23.3756 0.0000
# 6 0.0000 0.0000 0.0000 0.0000 0.0000 47.7906
#
#
#
# Elastic Compliance Matrix: (Units=1/GPa)
#
#
# Indices 1 2 3 4 5 6 
#
# 1 0.010672 -0.001718 -0.002124 0.000000 0.000000 0.000000
# 2 -0.001718 0.009241 -0.001437 0.000000 0.000000 0.000000
# 3 -0.002124 -0.001437 0.014613 0.000000 0.000000 0.000000
# 4 0.000000 0.000000 0.000000 0.066071 0.000000 0.000000
# 5 0.000000 0.000000 0.000000 0.000000 0.042780 0.000000
# 6 0.000000 0.000000 0.000000 0.000000 0.000000 0.020925
#
#
# Mechanical properties :
#
#
# Convention : Reuss Voigt Hill
#
# Bulk Modulus (GPa) = 41.72178 43.52380 42.62279
# Shear Modulus (GPa) = 27.34523 32.91481 30.13002
#
# Velocity S-wave (km/s) = 3.63004 3.98259 3.81039
# Velocity P-wave (km/s) = 6.13795 6.49010 6.31648
#
# Compressibility (1/GPa) = 0.02396830
#
# Stress axis : x y z
#
# Youngs Moduli (GPa) = 93.70513 108.21373 68.43304
#
# Poissons Ratio (x) = 0.18587 0.14536
# Poissons Ratio (y) = 0.16095 0.09833
# Poissons Ratio (z) = 0.19905 0.15548
#
# Static dielectric constant tensor:
#      x y z
#    x 1.789300 0.000000 0.000000 
#    y 0.000000 1.806180 0.000000 
#    z 0.000000 0.000000 1.736270 
# 
# From -- ./inp_files/31228.got.cif
#   From: 2010.05.17/outbox.cif.g08.bks.cpg/sg20_16_cif.got.tgz:31228.got - 2010.06.03 22:52:26.
