data_PCOD9321236
_publ_section_title
;
Structure prediction by ZEFSAII (Michael W. Deem and Ramdas Pophale) SiO2 
 PCOD9321236
Probable space group: C 2 2 21
;
_chemical_formula_sum "Si O2"
_cell_formula_units_Z 60
_cell_length_a 12.237699
_cell_length_b 19.929892
_cell_length_c 13.347473
_cell_angle_alpha 90.000000
_cell_angle_beta 90.000000
_cell_angle_gamma 90.000000
_cell_volume 3255.395534
_symmetry_space_group_name_H-M "C 2 2 21"
_symmetry_group_IT_number 20
_symmetry_cell_setting 'orthorhombic'
loop_
_space_group_symop_operation_xyz
x,y,z
-x,-y,1/2+z
x,-y,-z
-x,y,1/2-z
1/2+x,1/2+y,z
1/2-x,1/2-y,1/2+z
1/2+x,1/2-y,-z
1/2-x,1/2+y,1/2-z
loop_
_atom_site_type_symbol
_atom_site_label
_atom_site_fract_x
_atom_site_fract_y
_atom_site_fract_z
Si Si1 0.072422 0.672206 0.390870
Si Si2 0.873849 0.436252 0.285568
Si Si3 0.791393 0.228315 0.483644
Si Si4 0.377744 0.683859 0.288827
Si Si5 0.263942 0.311113 0.289092
Si Si6 0.500000 0.720714 0.750000
Si Si7 0.200147 0.415595 0.772815
Si Si8 0.624876 0.879047 0.996122
O O1 0.173280 0.711270 0.438112
O O2 0.118591 0.625087 0.301964
O O3 0.993325 0.728197 0.343522
O O4 0.003251 0.632353 0.472368
O O5 0.810833 0.374195 0.235720
O O6 0.817811 0.506049 0.255352
O O7 0.865259 0.424919 0.405871
O O8 0.000000 0.436920 0.250000
O O9 0.874827 0.191250 0.408818
O O10 0.786810 0.199121 0.594180
O O11 0.819796 0.306947 0.481508
O O12 0.500000 0.690336 0.250000
O O13 0.300986 0.744846 0.248583
O O14 0.317684 0.616159 0.253123
O O15 0.385082 0.316711 0.241101
O O16 0.172941 0.403196 0.889730
#
# Coordination Sequence:
#
# PCOD9321236 Si02
#       8
#     8   8   8   8   8   4   8   8
#     4  11  19  36  61  91 122 160 204 254 311 376
#     4  12  26  41  61  95 132 164 208 268 319 373
#     4  11  22  35  63  96 121 158 209 254 319 364
#     4  11  23  42  67  93 128 164 210 266 313 367
#     4  12  23  40  61  97 126 162 209 262 310 372
#     4  12  18  38  64  82 124 164 206 248 304 368
#     4  11  23  43  62  89 128 170 207 251 320 388
#     4  12  20  36  63  93 122 160 212 259 313 374
#
# _framework density 18.430938999999999
#
# number of rings (size 3 to 8) (size 9 to 14) (size 15 to 20)
#    0.000    0.533    8.000    2.400    1.867    0.000 
#    3.600    5.333    0.000    0.000    0.000    0.000 
#    0.000    0.000    0.000    0.000    0.000    0.000 
#
# Total GULP energy -167511.348854 kJ/mol
# GULP energy per Si atom -5583.711628 kJ/mol
# Density = 1.838899 g / cm^3
# Si number density = 18.430939 Si / 1000 Ang^3
#
#
#
# Elastic Constant Matrix: (Units=GPa)
#
#
# Indices 1 2 3 4 5 6 
#
# 1 107.8073 48.8546 23.7982 0.0000 0.0000 0.0000
# 2 48.8546 109.7149 38.4606 0.0000 0.0000 0.0000
# 3 23.7982 38.4606 103.3728 0.0000 0.0000 0.0000
# 4 0.0000 0.0000 0.0000 25.7152 0.0000 0.0000
# 5 0.0000 0.0000 0.0000 0.0000 26.5610 0.0000
# 6 0.0000 0.0000 0.0000 0.0000 0.0000 20.7176
#
#
#
# Elastic Compliance Matrix: (Units=1/GPa)
#
#
# Indices 1 2 3 4 5 6 
#
# 1 0.011688 -0.004900 -0.000868 0.000000 0.000000 0.000000
# 2 -0.004900 0.012536 -0.003536 0.000000 0.000000 0.000000
# 3 -0.000868 -0.003536 0.011189 0.000000 0.000000 0.000000
# 4 0.000000 0.000000 0.000000 0.038888 0.000000 0.000000
# 5 0.000000 0.000000 0.000000 0.000000 0.037649 0.000000
# 6 0.000000 0.000000 0.000000 0.000000 0.000000 0.048268
#
#
# Mechanical properties :
#
#
# Convention : Reuss Voigt Hill
#
# Bulk Modulus (GPa) = 59.50506 60.34688 59.92597
# Shear Modulus (GPa) = 27.11089 28.58420 27.84754
#
# Velocity S-wave (km/s) = 3.83945 3.94240 3.89126
# Velocity P-wave (km/s) = 7.21184 7.31687 7.26455
#
# Compressibility (1/GPa) = 0.01680529
#
# Stress axis : x y z
#
# Youngs Moduli (GPa) = 85.55772 79.76919 89.37313
#
# Poissons Ratio (x) = 0.39090 0.07754
# Poissons Ratio (y) = 0.41927 0.31602
# Poissons Ratio (z) = 0.07423 0.28206
#
# Static dielectric constant tensor:
#      x y z
#    x 1.633780 0.000000 0.000000 
#    y 0.000000 1.616310 0.000000 
#    z 0.000000 0.000000 1.687890 
# 
# From -- ./inp_files/14365.got.cif
#   From: 2010.05.17/outbox.cif.g08.bks.cpg/sg20_8_cif.got.tgz:14365.got - 2010.06.03 22:52:26.
