data_PCOD9321849
_publ_section_title
;
Structure prediction by ZEFSAII (Michael W. Deem and Ramdas Pophale) SiO2 
 PCOD9321849
Probable space group: C 2 2 21
;
_chemical_formula_sum "Si O2"
_cell_formula_units_Z 32
_cell_length_a 12.190669
_cell_length_b 15.725104
_cell_length_c 6.762665
_cell_angle_alpha 90.000000
_cell_angle_beta 90.000000
_cell_angle_gamma 90.000000
_cell_volume 1296.399755
_symmetry_space_group_name_H-M "C 2 2 21"
_symmetry_group_IT_number 20
_symmetry_cell_setting 'orthorhombic'
loop_
_space_group_symop_operation_xyz
x,y,z
-x,-y,1/2+z
x,-y,-z
-x,y,1/2-z
1/2+x,1/2+y,z
1/2-x,1/2-y,1/2+z
1/2+x,1/2-y,-z
1/2-x,1/2+y,1/2-z
loop_
_atom_site_type_symbol
_atom_site_label
_atom_site_fract_x
_atom_site_fract_y
_atom_site_fract_z
Si Si1 0.348388 0.258996 0.325125
Si Si2 0.121269 0.566720 0.171161
Si Si3 0.399104 0.282694 0.875902
Si Si4 0.344439 0.417821 0.610962
O O1 0.379267 0.164896 0.399911
O O2 0.598433 0.269617 0.390557
O O3 0.216085 0.256313 0.303731
O O4 0.367780 0.338785 0.465510
O O5 0.215558 0.567329 0.339375
O O6 0.000000 0.545930 0.250000
O O7 0.150541 0.500000 0.000000
O O8 0.500000 0.247293 0.750000
O O9 0.389882 0.382936 0.819851
O O10 0.387634 0.500000 0.500000
#
# Coordination Sequence:
#
# PCOD9321849 Si02
#       4
#     8   8   8   8
#     4  11  25  49  76 109 156 202 261 330 397 476
#     4  11  26  47  75 116 154 207 268 337 403 475
#     4  11  25  47  75 110 147 207 262 324 397 477
#     4  11  27  47  72 111 156 207 262 333 394 469
#
# _framework density 24.683744000000001
#
# number of rings (size 3 to 8) (size 9 to 14) (size 15 to 20)
#    0.000    1.000    5.000    0.750   10.500    0.000 
#    9.000    0.000    0.000    0.000    0.000    0.000 
#    0.000    0.000    0.000    0.000    0.000    0.000 
#
# Total GULP energy -89526.559726 kJ/mol
# GULP energy per Si atom -5595.409983 kJ/mol
# Density = 2.462756 g / cm^3
# Si number density = 24.683744 Si / 1000 Ang^3
#
#
#
# Elastic Constant Matrix: (Units=GPa)
#
#
# Indices 1 2 3 4 5 6 
#
# 1 114.2405 8.3065 40.6830 0.0000 0.0000 0.0000
# 2 8.3065 199.0063 101.8781 0.0000 0.0000 0.0000
# 3 40.6830 101.8781 162.3938 0.0000 0.0000 0.0000
# 4 0.0000 0.0000 0.0000 64.0681 0.0000 0.0000
# 5 0.0000 0.0000 0.0000 0.0000 49.4162 0.0000
# 6 0.0000 0.0000 0.0000 0.0000 0.0000 21.5250
#
#
#
# Elastic Compliance Matrix: (Units=1/GPa)
#
#
# Indices 1 2 3 4 5 6 
#
# 1 0.009818 0.001251 -0.003245 0.000000 0.000000 0.000000
# 2 0.001251 0.007562 -0.005057 0.000000 0.000000 0.000000
# 3 -0.003245 -0.005057 0.010143 0.000000 0.000000 0.000000
# 4 0.000000 0.000000 0.000000 0.015608 0.000000 0.000000
# 5 0.000000 0.000000 0.000000 0.000000 0.020236 0.000000
# 6 0.000000 0.000000 0.000000 0.000000 0.000000 0.046458
#
#
# Mechanical properties :
#
#
# Convention : Reuss Voigt Hill
#
# Bulk Modulus (GPa) = 74.50590 86.37507 80.44048
# Shear Modulus (GPa) = 38.94059 48.65339 43.79699
#
# Velocity S-wave (km/s) = 3.97619 4.44449 4.21684
# Velocity P-wave (km/s) = 7.16448 7.83624 7.50788
#
# Compressibility (1/GPa) = 0.01342176
#
# Stress axis : x y z
#
# Youngs Moduli (GPa) = 101.85449 132.24428 98.58607
#
# Poissons Ratio (x) = -0.16546 0.31987
# Poissons Ratio (y) = -0.12744 0.49858
# Poissons Ratio (z) = 0.33047 0.66880
#
# Static dielectric constant tensor:
#      x y z
#    x 2.088360 0.000000 0.000000 
#    y 0.000000 1.928720 0.000000 
#    z 0.000000 0.000000 2.029120 
# 
# From -- ./inp_files/6873.got.cif
#   From: 2010.05.17/outbox.cif.g08.bks.cpg/sg20_4_cif.got.tgz:6873.got - 2010.06.03 22:52:26.
