data_PCOD9321250
_publ_section_title
;
Structure prediction by ZEFSAII (Michael W. Deem and Ramdas Pophale) SiO2 
 PCOD9321250
Probable space group: C 2 2 21
;
_chemical_formula_sum "Si O2"
_cell_formula_units_Z 40
_cell_length_a 19.064769
_cell_length_b 24.564754
_cell_length_c 4.958140
_cell_angle_alpha 90.000000
_cell_angle_beta 90.000000
_cell_angle_gamma 90.000000
_cell_volume 2322.002871
_symmetry_space_group_name_H-M "C 2 2 21"
_symmetry_group_IT_number 20
_symmetry_cell_setting 'orthorhombic'
loop_
_space_group_symop_operation_xyz
x,y,z
-x,-y,1/2+z
x,-y,-z
-x,y,1/2-z
1/2+x,1/2+y,z
1/2-x,1/2-y,1/2+z
1/2+x,1/2-y,-z
1/2-x,1/2+y,1/2-z
loop_
_atom_site_type_symbol
_atom_site_label
_atom_site_fract_x
_atom_site_fract_y
_atom_site_fract_z
Si Si1 0.167154 0.714340 0.758040
Si Si2 0.571470 0.561900 0.904812
Si Si3 0.951335 0.781604 0.994702
Si Si4 0.363403 0.386274 0.934835
Si Si5 0.736326 0.176683 0.260775
O O1 0.093782 0.732014 0.628787
O O2 0.212527 0.770307 0.761900
O O3 0.206525 0.672939 0.559435
O O4 0.173188 0.690902 0.056957
O O5 0.500000 0.579162 0.750000
O O6 0.629413 0.569980 0.672241
O O7 0.562721 0.500000 0.000000
O O8 0.593238 0.595302 0.170238
O O9 0.000000 0.769075 0.250000
O O10 0.897752 0.830875 0.057078
O O11 0.000000 0.800645 0.750000
O O12 0.285307 0.371674 0.840986
#
# Coordination Sequence:
#
# PCOD9321250 Si02
#       5
#     8   8   8   8   8
#     4   9  17  29  43  62  87 111 142 182 223 260
#     4  12  23  35  47  63  88 119 152 193 240 274
#     4  11  20  29  44  66  91 119 151 186 221 260
#     4  11  21  33  49  65  84 115 161 198 224 261
#     4   9  17  30  46  62  81 110 147 189 222 255
#
# _framework density 17.226509
#
# number of rings (size 3 to 8) (size 9 to 14) (size 15 to 20)
#    0.000    1.600    0.000    7.800    0.000    6.400 
#    0.000    0.000    0.000    0.000    0.000    0.000 
#    0.000    0.000    0.000    0.000    0.000  252.000 
#
# Total GULP energy -111596.675497 kJ/mol
# GULP energy per Si atom -5579.833775 kJ/mol
# Density = 1.718730 g / cm^3
# Si number density = 17.226509 Si / 1000 Ang^3
#
#
#
# Elastic Constant Matrix: (Units=GPa)
#
#
# Indices 1 2 3 4 5 6 
#
# 1 25.5370 8.6571 -5.5617 0.0000 0.0000 0.0000
# 2 8.6571 25.1712 2.9769 0.0000 0.0000 0.0000
# 3 -5.5617 2.9769 75.9192 0.0000 0.0000 0.0000
# 4 0.0000 0.0000 0.0000 21.9841 0.0000 0.0000
# 5 0.0000 0.0000 0.0000 0.0000 19.6958 0.0000
# 6 0.0000 0.0000 0.0000 0.0000 0.0000 13.6000
#
#
#
# Elastic Compliance Matrix: (Units=1/GPa)
#
#
# Indices 1 2 3 4 5 6 
#
# 1 0.045484 -0.016112 0.003964 0.000000 0.000000 0.000000
# 2 -0.016112 0.045621 -0.002969 0.000000 0.000000 0.000000
# 3 0.003964 -0.002969 0.013579 0.000000 0.000000 0.000000
# 4 0.000000 0.000000 0.000000 0.045488 0.000000 0.000000
# 5 0.000000 0.000000 0.000000 0.000000 0.050772 0.000000
# 6 0.000000 0.000000 0.000000 0.000000 0.000000 0.073529
#
#
# Mechanical properties :
#
#
# Convention : Reuss Voigt Hill
#
# Bulk Modulus (GPa) = 13.43208 15.41909 14.42558
# Shear Modulus (GPa) = 15.17342 19.09299 17.13320
#
# Velocity S-wave (km/s) = 2.97108 3.33280 3.15712
# Velocity P-wave (km/s) = 4.42538 4.87650 4.65641
#
# Compressibility (1/GPa) = 0.07444865
#
# Stress axis : x y z
#
# Youngs Moduli (GPa) = 21.98565 21.91993 73.64468
#
# Poissons Ratio (x) = 0.35318 -0.29192
# Poissons Ratio (y) = 0.35424 0.21866
# Poissons Ratio (z) = -0.08715 0.06508
#
# Static dielectric constant tensor:
#      x y z
#    x 1.637640 0.000000 0.000000 
#    y 0.000000 1.579880 0.000000 
#    z 0.000000 0.000000 1.617910 
# 
# From -- ./inp_files/1871.got.cif
#   From: 2010.05.17/outbox.cif.g08.bks.cpg/sg20_1_cif.got.tgz:1871.got - 2010.06.03 22:52:26.
