data_PCOD9321091
_publ_section_title
;
Structure prediction by ZEFSAII (Michael W. Deem and Ramdas Pophale) SiO2 
 PCOD9321091
Probable space group: C 2 2 21
;
_chemical_formula_sum "Si O2"
_cell_formula_units_Z 40
_cell_length_a 27.374450
_cell_length_b 5.561078
_cell_length_c 12.335261
_cell_angle_alpha 90.000000
_cell_angle_beta 90.000000
_cell_angle_gamma 90.000000
_cell_volume 1877.814689
_symmetry_space_group_name_H-M "C 2 2 21"
_symmetry_group_IT_number 20
_symmetry_cell_setting 'orthorhombic'
loop_
_space_group_symop_operation_xyz
x,y,z
-x,-y,1/2+z
x,-y,-z
-x,y,1/2-z
1/2+x,1/2+y,z
1/2-x,1/2-y,1/2+z
1/2+x,1/2-y,-z
1/2-x,1/2+y,1/2-z
loop_
_atom_site_type_symbol
_atom_site_label
_atom_site_fract_x
_atom_site_fract_y
_atom_site_fract_z
Si Si1 0.134785 0.500000 0.000000
Si Si2 0.888882 0.000000 0.000000
Si Si3 0.290014 0.646611 0.389887
Si Si4 0.815076 0.815819 0.185090
Si Si5 0.899288 0.401183 0.714425
Si Si6 0.055379 0.895722 0.707452
O O1 0.169110 0.672125 0.930957
O O2 0.103421 0.356368 0.913622
O O3 0.926442 0.862750 0.918197
O O4 0.849674 0.110845 0.914995
O O5 0.278439 0.500000 0.500000
O O6 0.239441 0.765772 0.353231
O O7 0.310398 0.495547 0.287796
O O8 0.844859 0.592535 0.234277
O O9 0.922630 0.659213 0.735411
O O10 0.924935 0.163742 0.763055
O O11 0.000000 0.897754 0.750000
#
# Coordination Sequence:
#
# PCOD9321091 Si02
#       6
#     4   4   8   8   8   8
#     4  12  23  44  66 100 142 194 242 300 359 426
#     4  10  25  44  76 102 148 188 242 306 373 446
#     4  12  26  42  68 103 148 200 252 303 352 445
#     4  11  25  43  68 106 145 198 246 296 364 431
#     4  11  25  44  73 101 144 183 240 298 369 444
#     4  11  26  48  72 107 139 182 240 307 382 452
#
# _framework density 21.301355999999998
#
# number of rings (size 3 to 8) (size 9 to 14) (size 15 to 20)
#    0.000    0.800    2.000    4.800    5.600    4.000 
#    0.000    0.000    0.000    0.000    0.000    0.000 
#    0.000    0.000    0.000    0.000    0.000    0.000 
#
# Total GULP energy -111463.566037 kJ/mol
# GULP energy per Si atom -5573.178302 kJ/mol
# Density = 2.125287 g / cm^3
# Si number density = 21.301356 Si / 1000 Ang^3
#
#
#
# Elastic Constant Matrix: (Units=GPa)
#
#
# Indices 1 2 3 4 5 6 
#
# 1 97.6313 27.7392 53.9510 0.0000 0.0000 0.0000
# 2 27.7392 67.7330 35.3785 0.0000 0.0000 0.0000
# 3 53.9510 35.3785 157.0015 0.0000 0.0000 0.0000
# 4 0.0000 0.0000 0.0000 37.9084 0.0000 0.0000
# 5 0.0000 0.0000 0.0000 0.0000 -9.2387 0.0000
# 6 0.0000 0.0000 0.0000 0.0000 0.0000 46.1788
#
#
#
# Elastic Compliance Matrix: (Units=1/GPa)
#
#
# Indices 1 2 3 4 5 6 
#
# 1 0.013328 -0.003475 -0.003797 0.000000 0.000000 0.000000
# 2 -0.003475 0.017639 -0.002781 0.000000 0.000000 0.000000
# 3 -0.003797 -0.002781 0.008301 0.000000 0.000000 0.000000
# 4 0.000000 0.000000 0.000000 0.026379 0.000000 0.000000
# 5 0.000000 0.000000 0.000000 0.000000 -0.108240 0.000000
# 6 0.000000 0.000000 0.000000 0.000000 0.000000 0.021655
#
#
# Mechanical properties :
#
#
# Convention : Reuss Voigt Hill
#
# Bulk Modulus (GPa) = 52.18436 61.83370 57.00903
# Shear Modulus (GPa) = 899.99656 28.65617 464.32637
#
# Velocity S-wave (km/s) = 20.57727 3.67178 14.78015
# Velocity P-wave (km/s) = 24.27172 6.86054 17.83513
#
# Compressibility (1/GPa) = 0.01916283
#
# Stress axis : x y z
#
# Youngs Moduli (GPa) = 75.02906 56.69109 120.47169
#
# Poissons Ratio (x) = 0.19701 0.45742
# Poissons Ratio (y) = 0.26074 0.33499
# Poissons Ratio (z) = 0.28488 0.15764
#
# Static dielectric constant tensor:
#      x y z
#    x 1.796960 0.000000 0.000000 
#    y 0.000000 1.953940 0.000000 
#    z 0.000000 0.000000 1.787290 
# 
# From -- ./inp_files/16903.got.cif
#   From: 2010.05.17/outbox.cif.g08.bks.cpg/sg20_9_cif.got.tgz:16903.got - 2010.06.03 22:52:26.
