data_PCOD9321249
_publ_section_title
;
Structure prediction by ZEFSAII (Michael W. Deem and Ramdas Pophale) SiO2 
 PCOD9321249
Probable space group: C 2 2 21
;
_chemical_formula_sum "Si O2"
_cell_formula_units_Z 60
_cell_length_a 15.044331
_cell_length_b 11.436043
_cell_length_c 17.109898
_cell_angle_alpha 90.000000
_cell_angle_beta 90.000000
_cell_angle_gamma 90.000000
_cell_volume 2943.717165
_symmetry_space_group_name_H-M "C 2 2 21"
_symmetry_group_IT_number 20
_symmetry_cell_setting 'orthorhombic'
loop_
_space_group_symop_operation_xyz
x,y,z
-x,-y,1/2+z
x,-y,-z
-x,y,1/2-z
1/2+x,1/2+y,z
1/2-x,1/2-y,1/2+z
1/2+x,1/2-y,-z
1/2-x,1/2+y,1/2-z
loop_
_atom_site_type_symbol
_atom_site_label
_atom_site_fract_x
_atom_site_fract_y
_atom_site_fract_z
Si Si1 0.474705 0.862764 0.000249
Si Si2 0.517454 0.549128 0.331610
Si Si3 0.542102 0.197519 0.831994
Si Si4 0.221546 0.111904 0.299797
Si Si5 0.554281 0.500000 0.500000
Si Si6 0.331013 0.871766 0.541474
Si Si7 0.264513 0.142563 0.706455
Si Si8 0.825239 0.206720 0.948848
O O1 0.484542 0.826540 0.091071
O O2 0.567743 0.828272 0.959373
O O3 0.388582 0.816475 0.956356
O O4 0.471445 0.000000 0.000000
O O5 0.500000 0.481060 0.250000
O O6 0.453405 0.661986 0.327525
O O7 0.619254 0.595059 0.326722
O O8 0.503767 0.495655 0.417333
O O9 0.500000 0.157542 0.750000
O O10 0.638817 0.140722 0.835097
O O11 0.286389 0.116064 0.374429
O O12 0.232332 0.237924 0.257450
O O13 0.245964 0.986812 0.257814
O O14 0.618839 0.389474 0.496322
O O15 0.269191 0.785195 0.491162
O O16 0.327695 0.000000 0.500000
O O17 0.191907 0.162754 0.638579
#
# Coordination Sequence:
#
# PCOD9321249 Si02
#       8
#     8   8   8   8   4   8   8   8
#     4  11  24  40  65 100 134 168 220 281 340 406
#     4  11  21  40  71 101 127 180 243 280 330 423
#     4  11  21  40  70  95 122 176 235 270 321 426
#     4  12  23  43  69  99 134 181 225 284 342 416
#     4  12  20  40  74  96 132 188 228 286 336 416
#     4  11  19  43  73  91 122 190 237 255 325 440
#     4  12  24  42  67 101 136 174 225 285 348 401
#     4  12  21  40  70  98 131 173 230 283 338 408
#
# _framework density 20.382393
#
# number of rings (size 3 to 8) (size 9 to 14) (size 15 to 20)
#    0.000    0.533   10.000    0.800    0.000    1.067 
#    2.400    0.667    2.933    0.000    0.000    0.000 
#    0.000    0.000    0.000    0.000    0.000    0.000 
#
# Total GULP energy -167301.442725 kJ/mol
# GULP energy per Si atom -5576.714757 kJ/mol
# Density = 2.033600 g / cm^3
# Si number density = 20.382393 Si / 1000 Ang^3
#
#
#
# Elastic Constant Matrix: (Units=GPa)
#
#
# Indices 1 2 3 4 5 6 
#
# 1 71.2694 11.4503 16.5352 0.0000 0.0000 0.0000
# 2 11.4503 70.0433 18.8360 0.0000 0.0000 0.0000
# 3 16.5352 18.8360 125.3531 0.0000 0.0000 0.0000
# 4 0.0000 0.0000 0.0000 27.0018 0.0000 0.0000
# 5 0.0000 0.0000 0.0000 0.0000 34.4373 0.0000
# 6 0.0000 0.0000 0.0000 0.0000 0.0000 27.5473
#
#
#
# Elastic Compliance Matrix: (Units=1/GPa)
#
#
# Indices 1 2 3 4 5 6 
#
# 1 0.014729 -0.001965 -0.001648 0.000000 0.000000 0.000000
# 2 -0.001965 0.015140 -0.002016 0.000000 0.000000 0.000000
# 3 -0.001648 -0.002016 0.008498 0.000000 0.000000 0.000000
# 4 0.000000 0.000000 0.000000 0.037035 0.000000 0.000000
# 5 0.000000 0.000000 0.000000 0.000000 0.029038 0.000000
# 6 0.000000 0.000000 0.000000 0.000000 0.000000 0.036301
#
#
# Mechanical properties :
#
#
# Convention : Reuss Voigt Hill
#
# Bulk Modulus (GPa) = 36.88604 40.03430 38.46017
# Shear Modulus (GPa) = 31.04925 32.45358 31.75141
#
# Velocity S-wave (km/s) = 3.90723 3.99461 3.95116
# Velocity P-wave (km/s) = 6.20416 6.40001 6.30284
#
# Compressibility (1/GPa) = 0.02711053
#
# Stress axis : x y z
#
# Youngs Moduli (GPa) = 67.89236 66.04950 117.67872
#
# Poissons Ratio (x) = 0.12977 0.19390
# Poissons Ratio (y) = 0.13339 0.23722
# Poissons Ratio (z) = 0.11187 0.13315
#
# Static dielectric constant tensor:
#      x y z
#    x 1.742840 0.000000 0.000000 
#    y 0.000000 1.748900 0.000000 
#    z 0.000000 0.000000 1.797130 
# 
# From -- ./inp_files/24959.got.cif
#   From: 2010.05.17/outbox.cif.g08.bks.cpg/sg20_13_cif.got.tgz:24959.got - 2010.06.03 22:52:26.
