data_PCOD9321004
_publ_section_title
;
Structure prediction by ZEFSAII (Michael W. Deem and Ramdas Pophale) SiO2 
 PCOD9321004
Probable space group: C 2 2 21
;
_chemical_formula_sum "Si O2"
_cell_formula_units_Z 48
_cell_length_a 5.987750
_cell_length_b 25.283623
_cell_length_c 14.023891
_cell_angle_alpha 90.000000
_cell_angle_beta 90.000000
_cell_angle_gamma 90.000000
_cell_volume 2123.105097
_symmetry_space_group_name_H-M "C 2 2 21"
_symmetry_group_IT_number 20
_symmetry_cell_setting 'orthorhombic'
loop_
_space_group_symop_operation_xyz
x,y,z
-x,-y,1/2+z
x,-y,-z
-x,y,1/2-z
1/2+x,1/2+y,z
1/2-x,1/2-y,1/2+z
1/2+x,1/2-y,-z
1/2-x,1/2+y,1/2-z
loop_
_atom_site_type_symbol
_atom_site_label
_atom_site_fract_x
_atom_site_fract_y
_atom_site_fract_z
Si Si1 0.750000 0.000000 0.701571
Si Si2 0.897389 0.894178 0.644772
Si Si3 0.897389 0.394178 0.144772
Si Si4 0.750000 0.381938 0.500000
Si Si5 0.956765 0.688724 0.137132
Si Si6 0.456765 0.311276 0.362868
O O1 0.500000 0.005070 0.750000
O O2 0.727705 0.943194 0.650636
O O3 0.000000 0.994930 0.750000
O O4 0.772295 0.056806 0.650636
O O5 0.782522 0.838558 0.617360
O O6 0.000000 0.885925 0.750000
O O7 0.074281 0.911893 0.565459
O O8 0.782522 0.338558 0.117360
O O9 0.000000 0.385925 0.250000
O O10 0.074280 0.411893 0.065459
O O11 0.626523 0.345219 0.423988
O O12 0.873477 0.345219 0.576012
O O13 0.000000 0.681625 0.250000
O O14 1.000000 0.750000 0.115188
O O15 0.500000 0.318375 0.250000
#
# Coordination Sequence:
#
# PCOD9321004 Si02
#       6
#     8   8   8   8   8   8
#     4  10  24  46  87 109 152 206 248 323 390 453
#     4  11  24  48  76 108 150 195 255 312 386 454
#     4  11  24  48  76 108 150 195 255 312 386 454
#     4  12  26  44  77 106 146 195 248 312 378 446
#     4  11  25  46  71 104 151 197 249 310 376 450
#     4  11  25  46  71 104 151 197 249 310 376 450
#
# _framework density 22.608394000000001
#
# number of rings (size 3 to 8) (size 9 to 14) (size 15 to 20)
#    0.000    1.000    3.333    2.000    9.333    0.000 
#    0.000    5.000    0.000    0.000    0.000    0.000 
#    0.000    0.000    0.000    0.000    0.000    0.000 
#
# Total GULP energy -133887.478274 kJ/mol
# GULP energy per Si atom -5578.644928 kJ/mol
# Density = 2.255694 g / cm^3
# Si number density = 22.608394 Si / 1000 Ang^3
#
#
#
# Elastic Constant Matrix: (Units=GPa)
#
#
# Indices 1 2 3 4 5 6 
#
# 1 90.7598 33.6304 19.6065 0.0000 0.0000 0.0000
# 2 33.6304 109.9350 21.1038 0.0000 0.0000 0.0000
# 3 19.6065 21.1038 61.1455 0.0000 0.0000 0.0000
# 4 0.0000 0.0000 0.0000 -13.9857 0.0000 0.0000
# 5 0.0000 0.0000 0.0000 0.0000 50.8651 0.0000
# 6 0.0000 0.0000 0.0000 0.0000 0.0000 24.6401
#
#
#
# Elastic Compliance Matrix: (Units=1/GPa)
#
#
# Indices 1 2 3 4 5 6 
#
# 1 0.012913 -0.003379 -0.002974 0.000000 0.000000 0.000000
# 2 -0.003379 0.010626 -0.002584 0.000000 0.000000 0.000000
# 3 -0.002974 -0.002584 0.018200 0.000000 0.000000 0.000000
# 4 0.000000 0.000000 0.000000 -0.071502 0.000000 0.000000
# 5 0.000000 0.000000 0.000000 0.000000 0.019660 0.000000
# 6 0.000000 0.000000 0.000000 0.000000 0.000000 0.040584
#
#
# Mechanical properties :
#
#
# Convention : Reuss Voigt Hill
#
# Bulk Modulus (GPa) = 41.90408 45.61354 43.75881
# Shear Modulus (GPa) = 88.79304 24.80387 56.79845
#
# Velocity S-wave (km/s) = 6.27373 3.31586 5.01770
# Velocity P-wave (km/s) = 8.42938 5.90586 7.27783
#
# Compressibility (1/GPa) = 0.02386403
#
# Stress axis : x y z
#
# Youngs Moduli (GPa) = 77.44280 94.10828 54.94525
#
# Poissons Ratio (x) = 0.31801 0.16342
# Poissons Ratio (y) = 0.26170 0.14197
# Poissons Ratio (z) = 0.23033 0.24317
#
# Static dielectric constant tensor:
#      x y z
#    x 1.970850 0.000000 0.000000 
#    y 0.000000 1.772690 0.000000 
#    z 0.000000 0.000000 1.829810 
# 
# From -- ./inp_files/17781.got.cif
#   From: 2010.05.17/outbox.cif.g08.bks.cpg/sg20_9_cif.got.tgz:17781.got - 2010.06.03 22:52:26.
