data_PCOD9321809
_publ_section_title
;
Structure prediction by ZEFSAII (Michael W. Deem and Ramdas Pophale) SiO2 
 PCOD9321809
Probable space group: C 2 2 21
;
_chemical_formula_sum "Si O2"
_cell_formula_units_Z 28
_cell_length_a 13.480081
_cell_length_b 7.050615
_cell_length_c 11.086430
_cell_angle_alpha 90.000000
_cell_angle_beta 90.000000
_cell_angle_gamma 90.000000
_cell_volume 1053.686029
_symmetry_space_group_name_H-M "C 2 2 21"
_symmetry_group_IT_number 20
_symmetry_cell_setting 'orthorhombic'
loop_
_space_group_symop_operation_xyz
x,y,z
-x,-y,1/2+z
x,-y,-z
-x,y,1/2-z
1/2+x,1/2+y,z
1/2-x,1/2-y,1/2+z
1/2+x,1/2-y,-z
1/2-x,1/2+y,1/2-z
loop_
_atom_site_type_symbol
_atom_site_label
_atom_site_fract_x
_atom_site_fract_y
_atom_site_fract_z
Si Si1 0.945177 0.725682 0.413821
Si Si2 0.265967 0.358893 0.887002
Si Si3 0.127831 0.500000 0.500000
Si Si4 0.415206 0.640318 0.326009
O O1 0.849586 0.636577 0.351301
O O2 0.902469 0.747594 0.550647
O O3 0.049103 0.618859 0.418838
O O4 0.958519 0.937775 0.367058
O O5 0.303363 0.152014 0.932202
O O6 0.325811 0.396134 0.764345
O O7 0.287080 0.500000 0.000000
O O8 0.500000 0.743145 0.250000
#
# Coordination Sequence:
#
# PCOD9321809 Si02
#       4
#     8   8   4   8
#     4  11  26  49  77 117 151 206 268 316 397 477
#     4  12  27  50  77 114 158 205 263 329 393 470
#     4  12  24  50  78 108 156 204 260 312 396 464
#     4  11  24  50  76 107 162 203 259 334 391 465
#
# _framework density 26.573381999999999
#
# number of rings (size 3 to 8) (size 9 to 14) (size 15 to 20)
#    0.000    0.571    4.286    3.429    4.000    0.000 
#   20.571    0.000    0.000    0.000    0.000    0.000 
#    0.000    0.000    0.000    0.000    0.000    0.000 
#
# Total GULP energy -78492.133087 kJ/mol
# GULP energy per Si atom -5606.580935 kJ/mol
# Density = 2.651290 g / cm^3
# Si number density = 26.573382 Si / 1000 Ang^3
#
#
#
# Elastic Constant Matrix: (Units=GPa)
#
#
# Indices 1 2 3 4 5 6 
#
# 1 118.5876 15.3001 35.9195 0.0000 0.0000 0.0000
# 2 15.3001 132.1243 15.3515 0.0000 0.0000 0.0000
# 3 35.9195 15.3515 135.3818 0.0000 0.0000 0.0000
# 4 0.0000 0.0000 0.0000 24.7498 0.0000 0.0000
# 5 0.0000 0.0000 0.0000 0.0000 53.3354 0.0000
# 6 0.0000 0.0000 0.0000 0.0000 0.0000 38.2613
#
#
#
# Elastic Compliance Matrix: (Units=1/GPa)
#
#
# Indices 1 2 3 4 5 6 
#
# 1 0.009251 -0.000797 -0.002364 0.000000 0.000000 0.000000
# 2 -0.000797 0.007738 -0.000666 0.000000 0.000000 0.000000
# 3 -0.002364 -0.000666 0.008089 0.000000 0.000000 0.000000
# 4 0.000000 0.000000 0.000000 0.040404 0.000000 0.000000
# 5 0.000000 0.000000 0.000000 0.000000 0.018749 0.000000
# 6 0.000000 0.000000 0.000000 0.000000 0.000000 0.026136
#
#
# Mechanical properties :
#
#
# Convention : Reuss Voigt Hill
#
# Bulk Modulus (GPa) = 57.38856 57.69289 57.54072
# Shear Modulus (GPa) = 40.37755 44.57081 42.47418
#
# Velocity S-wave (km/s) = 3.90227 4.09989 4.00230
# Velocity P-wave (km/s) = 6.47663 6.64606 6.56189
#
# Compressibility (1/GPa) = 0.01742508
#
# Stress axis : x y z
#
# Youngs Moduli (GPa) = 108.09075 129.22777 123.61947
#
# Poissons Ratio (x) = 0.10295 0.29227
# Poissons Ratio (y) = 0.08611 0.08235
# Poissons Ratio (z) = 0.25556 0.08608
#
# Static dielectric constant tensor:
#      x y z
#    x 2.041140 0.000000 0.000000 
#    y 0.000000 2.076840 0.000000 
#    z 0.000000 0.000000 2.147410 
# 
# From -- ./inp_files/14596.got.cif
#   From: 2010.05.17/outbox.cif.g08.bks.cpg/sg20_8_cif.got.tgz:14596.got - 2010.06.03 22:52:26.
