data_PCOD9321648
_publ_section_title
;
Structure prediction by ZEFSAII (Michael W. Deem and Ramdas Pophale) SiO2 
 PCOD9321648
Probable space group: C 2 2 21
;
_chemical_formula_sum "Si O2"
_cell_formula_units_Z 60
_cell_length_a 13.960973
_cell_length_b 8.397155
_cell_length_c 21.060875
_cell_angle_alpha 90.000000
_cell_angle_beta 90.000000
_cell_angle_gamma 90.000000
_cell_volume 2469.018065
_symmetry_space_group_name_H-M "C 2 2 21"
_symmetry_group_IT_number 20
_symmetry_cell_setting 'orthorhombic'
loop_
_space_group_symop_operation_xyz
x,y,z
-x,-y,1/2+z
x,-y,-z
-x,y,1/2-z
1/2+x,1/2+y,z
1/2-x,1/2-y,1/2+z
1/2+x,1/2-y,-z
1/2-x,1/2+y,1/2-z
loop_
_atom_site_type_symbol
_atom_site_label
_atom_site_fract_x
_atom_site_fract_y
_atom_site_fract_z
Si Si1 0.989937 0.737117 0.615921
Si Si2 0.042867 0.583535 0.067021
Si Si3 0.000000 0.584949 0.250000
Si Si4 0.629974 0.783407 0.269580
Si Si5 0.808757 0.123259 0.355453
Si Si6 0.600983 0.741444 0.633398
Si Si7 0.712091 0.276328 0.125789
Si Si8 0.637519 0.429903 0.566068
O O1 0.046201 0.771584 0.681796
O O2 0.013517 0.555776 0.603461
O O3 0.876111 0.748563 0.610603
O O4 0.031216 0.861382 0.566579
O O5 0.132522 0.646126 0.107799
O O6 0.963826 0.722491 0.071270
O O7 0.066448 0.500000 0.000000
O O8 0.910718 0.455481 0.256501
O O9 0.964204 0.704545 0.193768
O O10 0.653815 0.654788 0.215785
O O11 0.730928 0.793432 0.307365
O O12 0.697601 0.156468 0.362560
O O13 0.832209 0.949919 0.381871
O O14 0.638870 0.561633 0.622309
O O15 0.798117 0.223715 0.080478
O O16 0.668912 0.500000 0.500000
#
# Coordination Sequence:
#
# PCOD9321648 Si02
#       8
#     8   8   4   8   8   8   8   8
#     4  11  23  46  70 103 145 188 249 302 377 443
#     4  12  25  48  76 105 148 199 255 313 365 437
#     4  12  22  50  74 110 154 188 244 318 376 462
#     4  11  23  45  74 102 151 195 227 316 378 454
#     4  12  24  43  72 108 149 191 242 299 374 458
#     4  12  26  44  76 111 143 199 252 307 381 449
#     4  11  26  45  71 110 145 196 254 297 375 448
#     4  11  25  50  72 104 150 197 257 316 368 437
#
# _framework density 24.301159999999999
#
# number of rings (size 3 to 8) (size 9 to 14) (size 15 to 20)
#    0.000    0.533    4.000    3.600    1.867    3.200 
#    4.800    2.000    0.000    0.000    0.000    0.000 
#    0.000    0.000    0.000    0.000    0.000    0.000 
#
# Total GULP energy -167279.931053 kJ/mol
# GULP energy per Si atom -5575.997702 kJ/mol
# Density = 2.424585 g / cm^3
# Si number density = 24.301160 Si / 1000 Ang^3
#
#
#
# Elastic Constant Matrix: (Units=GPa)
#
#
# Indices 1 2 3 4 5 6 
#
# 1 121.1848 18.3501 29.2838 0.0000 0.0000 0.0000
# 2 18.3501 92.3290 44.9503 0.0000 0.0000 0.0000
# 3 29.2838 44.9503 91.7697 0.0000 0.0000 0.0000
# 4 0.0000 0.0000 0.0000 33.0347 0.0000 0.0000
# 5 0.0000 0.0000 0.0000 0.0000 20.9698 0.0000
# 6 0.0000 0.0000 0.0000 0.0000 0.0000 34.0662
#
#
#
# Elastic Compliance Matrix: (Units=1/GPa)
#
#
# Indices 1 2 3 4 5 6 
#
# 1 0.008960 -0.000511 -0.002609 0.000000 0.000000 0.000000
# 2 -0.000511 0.014251 -0.006818 0.000000 0.000000 0.000000
# 3 -0.002609 -0.006818 0.015069 0.000000 0.000000 0.000000
# 4 0.000000 0.000000 0.000000 0.030271 0.000000 0.000000
# 5 0.000000 0.000000 0.000000 0.000000 0.047688 0.000000
# 6 0.000000 0.000000 0.000000 0.000000 0.000000 0.029355
#
#
# Mechanical properties :
#
#
# Convention : Reuss Voigt Hill
#
# Bulk Modulus (GPa) = 54.33154 54.49465 54.41309
# Shear Modulus (GPa) = 29.13704 31.79409 30.46557
#
# Velocity S-wave (km/s) = 3.46641 3.62102 3.54456
# Velocity P-wave (km/s) = 6.19899 6.32106 6.26032
#
# Compressibility (1/GPa) = 0.01840552
#
# Stress axis : x y z
#
# Youngs Moduli (GPa) = 111.61203 70.16806 66.36240
#
# Poissons Ratio (x) = 0.03582 0.17314
# Poissons Ratio (y) = 0.05698 0.45244
# Poissons Ratio (z) = 0.29119 0.47838
#
# Static dielectric constant tensor:
#      x y z
#    x 1.971580 0.000000 0.000000 
#    y 0.000000 1.927070 0.000000 
#    z 0.000000 0.000000 2.092080 
# 
# From -- ./inp_files/29319.got.cif
#   From: 2010.05.17/outbox.cif.g08.bks.cpg/sg20_15_cif.got.tgz:29319.got - 2010.06.03 22:52:26.
