data_PCOD9321876
_publ_section_title
;
Structure prediction by ZEFSAII (Michael W. Deem and Ramdas Pophale) SiO2 
 PCOD9321876
Probable space group: C 2 2 21
;
_chemical_formula_sum "Si O2"
_cell_formula_units_Z 48
_cell_length_a 8.719431
_cell_length_b 20.203257
_cell_length_c 13.750099
_cell_angle_alpha 90.000000
_cell_angle_beta 90.000000
_cell_angle_gamma 90.000000
_cell_volume 2422.229889
_symmetry_space_group_name_H-M "C 2 2 21"
_symmetry_group_IT_number 20
_symmetry_cell_setting 'orthorhombic'
loop_
_space_group_symop_operation_xyz
x,y,z
-x,-y,1/2+z
x,-y,-z
-x,y,1/2-z
1/2+x,1/2+y,z
1/2-x,1/2-y,1/2+z
1/2+x,1/2-y,-z
1/2-x,1/2+y,1/2-z
loop_
_atom_site_type_symbol
_atom_site_label
_atom_site_fract_x
_atom_site_fract_y
_atom_site_fract_z
Si Si1 0.813946 0.149420 0.012735
Si Si2 0.834372 0.082305 0.803856
Si Si3 0.160671 0.299943 0.297426
Si Si4 0.343050 0.818702 0.797251
Si Si5 0.671645 0.432616 0.713034
Si Si6 0.476993 0.219381 0.997689
O O1 0.810653 0.105034 0.109798
O O2 0.649779 0.189428 0.002165
O O3 0.840977 0.106138 0.915955
O O4 0.953934 0.202122 0.020832
O O5 0.725036 0.134308 0.750570
O O6 0.000000 0.086896 0.750000
O O7 0.770842 0.007728 0.796530
O O8 0.274513 0.240275 0.269233
O O9 0.120593 0.311196 0.409368
O O10 0.000000 0.279737 0.250000
O O11 0.500000 0.840867 0.750000
O O12 0.241705 0.883592 0.792916
O O13 0.386724 0.792862 0.902668
O O14 0.500000 0.440078 0.750000
#
# Coordination Sequence:
#
# PCOD9321876 Si02
#       6
#     8   8   8   8   8   8
#     4  12  25  44  69 101 136 176 227 284 347 408
#     4  11  26  46  68  96 138 186 229 280 344 411
#     4  12  23  42  68 101 136 176 226 287 338 401
#     4  12  23  42  68 101 136 176 226 287 338 401
#     4  11  26  46  68  96 138 186 229 280 344 411
#     4  12  24  40  69 107 133 174 227 282 346 400
#
# _framework density 19.816452000000002
#
# number of rings (size 3 to 8) (size 9 to 14) (size 15 to 20)
#    0.000    0.333    6.667    1.500    4.667    0.667 
#    0.000    2.500    0.000    0.000    0.000    0.000 
#    0.000    0.000    0.000    0.000    0.000    0.000 
#
# Total GULP energy -134050.015648 kJ/mol
# GULP energy per Si atom -5585.417319 kJ/mol
# Density = 1.977135 g / cm^3
# Si number density = 19.816452 Si / 1000 Ang^3
#
#
#
# Elastic Constant Matrix: (Units=GPa)
#
#
# Indices 1 2 3 4 5 6 
#
# 1 45.9125 13.0036 -1.4021 0.0000 0.0000 0.0000
# 2 13.0036 115.1698 -9.8754 0.0000 0.0000 0.0000
# 3 -1.4021 -9.8754 74.8442 0.0000 0.0000 0.0000
# 4 0.0000 0.0000 0.0000 27.6394 0.0000 0.0000
# 5 0.0000 0.0000 0.0000 0.0000 29.1393 0.0000
# 6 0.0000 0.0000 0.0000 0.0000 0.0000 -47.3267
#
#
#
# Elastic Compliance Matrix: (Units=1/GPa)
#
#
# Indices 1 2 3 4 5 6 
#
# 1 0.022501 -0.002533 0.000087 0.000000 0.000000 0.000000
# 2 -0.002533 0.009067 0.001149 0.000000 0.000000 0.000000
# 3 0.000087 0.001149 0.013514 0.000000 0.000000 0.000000
# 4 0.000000 0.000000 0.000000 0.036180 0.000000 0.000000
# 5 0.000000 0.000000 0.000000 0.000000 0.034318 0.000000
# 6 0.000000 0.000000 0.000000 0.000000 0.000000 -0.021130
#
#
# Mechanical properties :
#
#
# Convention : Reuss Voigt Hill
#
# Bulk Modulus (GPa) = 23.53566 26.59766 25.06666
# Shear Modulus (GPa) = 44.96111 17.50375 31.23243
#
# Velocity S-wave (km/s) = 4.76844 2.97525 3.97430
# Velocity P-wave (km/s) = 6.49769 5.02533 5.80835
#
# Compressibility (1/GPa) = 0.04248872
#
# Stress axis : x y z
#
# Youngs Moduli (GPa) = 44.44318 110.28587 73.99562
#
# Poissons Ratio (x) = 0.27936 -0.00646
# Poissons Ratio (y) = 0.11258 -0.08502
# Poissons Ratio (z) = -0.00388 -0.12671
#
# Static dielectric constant tensor:
#      x y z
#    x 1.683970 0.000000 0.000000 
#    y 0.000000 1.685820 0.000000 
#    z 0.000000 0.000000 1.913980 
# 
# From -- ./inp_files/18852.got.cif
#   From: 2010.05.17/outbox.cif.g08.bks.cpg/sg20_10_cif.got.tgz:18852.got - 2010.06.03 22:52:26.
