data_PCOD9321750
_publ_section_title
;
Structure prediction by ZEFSAII (Michael W. Deem and Ramdas Pophale) SiO2 
 PCOD9321750
Probable space group: C 2 2 21
;
_chemical_formula_sum "Si O2"
_cell_formula_units_Z 64
_cell_length_a 14.284060
_cell_length_b 11.821790
_cell_length_c 15.969725
_cell_angle_alpha 90.000000
_cell_angle_beta 90.000000
_cell_angle_gamma 90.000000
_cell_volume 2696.698191
_symmetry_space_group_name_H-M "C 2 2 21"
_symmetry_group_IT_number 20
_symmetry_cell_setting 'orthorhombic'
loop_
_space_group_symop_operation_xyz
x,y,z
-x,-y,1/2+z
x,-y,-z
-x,y,1/2-z
1/2+x,1/2+y,z
1/2-x,1/2-y,1/2+z
1/2+x,1/2-y,-z
1/2-x,1/2+y,1/2-z
loop_
_atom_site_type_symbol
_atom_site_label
_atom_site_fract_x
_atom_site_fract_y
_atom_site_fract_z
Si Si1 0.517283 0.223521 0.111413
Si Si2 0.310525 0.536963 0.345835
Si Si3 0.488678 0.208324 0.848417
Si Si4 0.154100 0.757649 0.956881
Si Si5 0.315537 0.715723 0.699952
Si Si6 0.845742 0.109164 0.160505
Si Si7 0.114963 0.513247 0.404356
Si Si8 0.172853 0.857887 0.388445
O O1 0.581237 0.231809 0.193693
O O2 0.433587 0.314134 0.103950
O O3 0.467906 0.103501 0.098986
O O4 0.594937 0.241930 0.039978
O O5 0.343077 0.614227 0.422394
O O6 0.320262 0.402578 0.350466
O O7 0.357772 0.574819 0.258831
O O8 0.198362 0.554883 0.344788
O O9 0.500000 0.206209 0.750000
O O10 0.589554 0.193775 0.889027
O O11 0.437178 0.325536 0.871965
O O12 0.421997 0.107367 0.876131
O O13 0.257288 0.703062 0.953386
O O14 0.238845 0.801219 0.664226
O O15 0.293701 0.682121 0.795681
O O16 0.824397 0.993740 0.111681
O O17 0.149510 0.500000 0.500000
#
# Coordination Sequence:
#
# PCOD9321750 Si02
#       8
#     8   8   8   8   8   8   8   8
#     4  12  28  46  74 108 149 195 243 303 374 435
#     4  11  24  44  73 104 149 191 241 301 368 432
#     4  12  25  45  76 107 145 199 249 297 369 441
#     4  12  26  48  73 107 153 193 242 307 373 442
#     4  11  24  45  76 108 144 198 243 305 370 433
#     4  11  24  45  74 110 146 184 249 307 360 433
#     4  12  26  47  72 105 152 195 246 307 361 442
#     4  11  26  49  72 110 150 190 253 309 362 446
#
# _framework density 23.732728000000002
#
# number of rings (size 3 to 8) (size 9 to 14) (size 15 to 20)
#    0.000    0.500    6.250    0.375    7.000    2.000 
#    0.000    1.250    0.000    0.000    0.000    0.000 
#    0.000    0.000    0.000    0.000    0.000    0.000 
#
# Total GULP energy -179236.318891 kJ/mol
# GULP energy per Si atom -5601.134965 kJ/mol
# Density = 2.367871 g / cm^3
# Si number density = 23.732728 Si / 1000 Ang^3
#
#
#
# Elastic Constant Matrix: (Units=GPa)
#
#
# Indices 1 2 3 4 5 6 
#
# 1 103.5551 13.0968 11.6858 0.0000 0.0000 0.0000
# 2 13.0968 134.2446 19.1154 0.0000 0.0000 0.0000
# 3 11.6858 19.1154 40.6166 0.0000 0.0000 0.0000
# 4 0.0000 0.0000 0.0000 14.9605 0.0000 0.0000
# 5 0.0000 0.0000 0.0000 0.0000 29.6584 0.0000
# 6 0.0000 0.0000 0.0000 0.0000 0.0000 76.0527
#
#
#
# Elastic Compliance Matrix: (Units=1/GPa)
#
#
# Indices 1 2 3 4 5 6 
#
# 1 0.010027 -0.000608 -0.002599 0.000000 0.000000 0.000000
# 2 -0.000608 0.008021 -0.003600 0.000000 0.000000 0.000000
# 3 -0.002599 -0.003600 0.027062 0.000000 0.000000 0.000000
# 4 0.000000 0.000000 0.000000 0.066843 0.000000 0.000000
# 5 0.000000 0.000000 0.000000 0.000000 0.033717 0.000000
# 6 0.000000 0.000000 0.000000 0.000000 0.000000 0.013149
#
#
# Mechanical properties :
#
#
# Convention : Reuss Voigt Hill
#
# Bulk Modulus (GPa) = 31.74928 40.69025 36.21977
# Shear Modulus (GPa) = 27.33266 39.76886 33.55076
#
# Velocity S-wave (km/s) = 3.39733 4.09797 3.76399
# Velocity P-wave (km/s) = 5.36619 6.29075 5.84678
#
# Compressibility (1/GPa) = 0.03149677
#
# Stress axis : x y z
#
# Youngs Moduli (GPa) = 99.73213 124.67218 36.95164
#
# Poissons Ratio (x) = 0.07582 0.09602
# Poissons Ratio (y) = 0.06066 0.13302
# Poissons Ratio (z) = 0.25916 0.44882
#
# Static dielectric constant tensor:
#      x y z
#    x 1.880750 0.000000 0.000000 
#    y 0.000000 1.874940 0.000000 
#    z 0.000000 0.000000 1.958010 
# 
# From -- ./inp_files/24988.got.cif
#   From: 2010.05.17/outbox.cif.g08.bks.cpg/sg20_13_cif.got.tgz:24988.got - 2010.06.03 22:52:26.
