data_PCOD9321678
_publ_section_title
;
Structure prediction by ZEFSAII (Michael W. Deem and Ramdas Pophale) SiO2 
 PCOD9321678
Probable space group: C 2 2 21
;
_chemical_formula_sum "Si O2"
_cell_formula_units_Z 32
_cell_length_a 12.174914
_cell_length_b 7.965353
_cell_length_c 12.889113
_cell_angle_alpha 90.000000
_cell_angle_beta 90.000000
_cell_angle_gamma 90.000000
_cell_volume 1249.953798
_symmetry_space_group_name_H-M "C 2 2 21"
_symmetry_group_IT_number 20
_symmetry_cell_setting 'orthorhombic'
loop_
_space_group_symop_operation_xyz
x,y,z
-x,-y,1/2+z
x,-y,-z
-x,y,1/2-z
1/2+x,1/2+y,z
1/2-x,1/2-y,1/2+z
1/2+x,1/2-y,-z
1/2-x,1/2+y,1/2-z
loop_
_atom_site_type_symbol
_atom_site_label
_atom_site_fract_x
_atom_site_fract_y
_atom_site_fract_z
Si Si1 0.697046 0.697086 0.128830
Si Si2 0.498316 0.559791 0.870023
Si Si3 0.123871 0.764176 0.536130
Si Si4 0.881566 0.511044 0.776395
O O1 0.607709 0.550661 0.111251
O O2 0.788369 0.626019 0.208233
O O3 0.644407 0.854950 0.186393
O O4 0.761924 0.748184 0.024872
O O5 0.500000 0.597399 0.750000
O O6 0.397842 0.430335 0.894914
O O7 0.470582 0.712084 0.947578
O O8 0.113632 0.610116 0.614009
O O9 0.000000 0.443065 0.750000
#
# Coordination Sequence:
#
# PCOD9321678 Si02
#       4
#     8   8   8   8
#     4  12  26  47  76 106 148 201 246 311 386 437
#     4  11  23  50  74 103 150 192 248 312 372 455
#     4  11  25  43  75 108 143 194 248 305 375 444
#     4  12  27  49  71 110 151 191 256 312 365 465
#
# _framework density 25.600946
#
# number of rings (size 3 to 8) (size 9 to 14) (size 15 to 20)
#    0.000    0.500    5.000    2.250   10.500    3.000 
#    0.000    0.000    0.000    0.000    0.000    0.000 
#    0.000    0.000    0.000    0.000    0.000    0.000 
#
# Total GULP energy -89699.639298 kJ/mol
# GULP energy per Si atom -5606.227456 kJ/mol
# Density = 2.554268 g / cm^3
# Si number density = 25.600946 Si / 1000 Ang^3
#
#
#
# Elastic Constant Matrix: (Units=GPa)
#
#
# Indices 1 2 3 4 5 6 
#
# 1 161.4216 53.2869 45.3957 0.0000 0.0000 0.0000
# 2 53.2869 84.6955 33.9722 0.0000 0.0000 0.0000
# 3 45.3957 33.9722 176.6484 0.0000 0.0000 0.0000
# 4 0.0000 0.0000 0.0000 40.1796 0.0000 0.0000
# 5 0.0000 0.0000 0.0000 0.0000 59.0866 0.0000
# 6 0.0000 0.0000 0.0000 0.0000 0.0000 10.4603
#
#
#
# Elastic Compliance Matrix: (Units=1/GPa)
#
#
# Indices 1 2 3 4 5 6 
#
# 1 0.008041 -0.004584 -0.001185 0.000000 0.000000 0.000000
# 2 -0.004584 0.015407 -0.001785 0.000000 0.000000 0.000000
# 3 -0.001185 -0.001785 0.006309 0.000000 0.000000 0.000000
# 4 0.000000 0.000000 0.000000 0.024888 0.000000 0.000000
# 5 0.000000 0.000000 0.000000 0.000000 0.016924 0.000000
# 6 0.000000 0.000000 0.000000 0.000000 0.000000 0.095600
#
#
# Mechanical properties :
#
#
# Convention : Reuss Voigt Hill
#
# Bulk Modulus (GPa) = 68.26259 76.45280 72.35769
# Shear Modulus (GPa) = 26.71501 41.28601 34.00051
#
# Velocity S-wave (km/s) = 3.23386 4.02017 3.64826
# Velocity P-wave (km/s) = 6.37697 7.17476 6.78759
#
# Compressibility (1/GPa) = 0.01464931
#
# Stress axis : x y z
#
# Youngs Moduli (GPa) = 124.35598 64.90523 158.50999
#
# Poissons Ratio (x) = 0.29753 0.18782
# Poissons Ratio (y) = 0.57005 0.28294
# Poissons Ratio (z) = 0.14735 0.11586
#
# Static dielectric constant tensor:
#      x y z
#    x 1.998370 0.000000 0.000000 
#    y 0.000000 2.026600 0.000000 
#    z 0.000000 0.000000 2.034040 
# 
# From -- ./inp_files/18185.got.cif
#   From: 2010.05.17/outbox.cif.g08.bks.cpg/sg20_10_cif.got.tgz:18185.got - 2010.06.03 22:52:26.
