data_PCOD9321793
_publ_section_title
;
Structure prediction by ZEFSAII (Michael W. Deem and Ramdas Pophale) SiO2 
 PCOD9321793
Probable space group: C 2 2 21
;
_chemical_formula_sum "Si O2"
_cell_formula_units_Z 36
_cell_length_a 16.243323
_cell_length_b 9.462861
_cell_length_c 9.556733
_cell_angle_alpha 90.000000
_cell_angle_beta 90.000000
_cell_angle_gamma 90.000000
_cell_volume 1468.949257
_symmetry_space_group_name_H-M "C 2 2 21"
_symmetry_group_IT_number 20
_symmetry_cell_setting 'orthorhombic'
loop_
_space_group_symop_operation_xyz
x,y,z
-x,-y,1/2+z
x,-y,-z
-x,y,1/2-z
1/2+x,1/2+y,z
1/2-x,1/2-y,1/2+z
1/2+x,1/2-y,-z
1/2-x,1/2+y,1/2-z
loop_
_atom_site_type_symbol
_atom_site_label
_atom_site_fract_x
_atom_site_fract_y
_atom_site_fract_z
Si Si1 0.289065 0.993081 0.345361
Si Si2 0.645029 0.311629 0.757216
Si Si3 0.130809 0.000000 0.000000
Si Si4 0.613438 0.740782 0.831229
Si Si5 0.563285 0.335219 0.466538
O O1 0.223653 0.085676 0.259925
O O2 0.367727 0.096263 0.346429
O O3 0.252307 0.000000 0.500000
O O4 0.320259 0.837405 0.311097
O O5 0.597345 0.276205 0.613074
O O6 0.593099 0.411362 0.865733
O O7 0.171381 0.864552 0.077650
O O8 0.524673 0.712212 0.902215
O O9 0.619414 0.696993 0.669188
O O10 0.559734 0.500000 0.500000
#
# Coordination Sequence:
#
# PCOD9321793 Si02
#       5
#     8   8   4   8   8
#     4  12  28  50  72 114 154 200 254 325 381 472
#     4  12  28  47  81 110 160 199 259 313 397 449
#     4  12  22  44  74 112 146 200 252 312 372 470
#     4  11  25  46  74 111 148 197 263 302 385 455
#     4  11  24  47  79 110 150 203 249 315 378 461
#
# _framework density 24.507313
#
# number of rings (size 3 to 8) (size 9 to 14) (size 15 to 20)
#    0.000    0.444    5.556    2.000    3.111    1.778 
#    8.000    0.000    0.000    0.000    0.000    0.000 
#    0.000    0.000    0.000    0.000    0.000    0.000 
#
# Total GULP energy -100385.253736 kJ/mol
# GULP energy per Si atom -5576.958541 kJ/mol
# Density = 2.445153 g / cm^3
# Si number density = 24.507313 Si / 1000 Ang^3
#
#
#
# Elastic Constant Matrix: (Units=GPa)
#
#
# Indices 1 2 3 4 5 6 
#
# 1 72.8124 49.6118 43.0366 0.0000 0.0000 0.0000
# 2 49.6118 221.8038 76.7871 0.0000 0.0000 0.0000
# 3 43.0366 76.7871 174.8725 0.0000 0.0000 0.0000
# 4 0.0000 0.0000 0.0000 42.4302 0.0000 0.0000
# 5 0.0000 0.0000 0.0000 0.0000 33.2588 0.0000
# 6 0.0000 0.0000 0.0000 0.0000 0.0000 29.3729
#
#
#
# Elastic Compliance Matrix: (Units=1/GPa)
#
#
# Indices 1 2 3 4 5 6 
#
# 1 0.017481 -0.002855 -0.003049 0.000000 0.000000 0.000000
# 2 -0.002855 0.005783 -0.001837 0.000000 0.000000 0.000000
# 3 -0.003049 -0.001837 0.007275 0.000000 0.000000 0.000000
# 4 0.000000 0.000000 0.000000 0.023568 0.000000 0.000000
# 5 0.000000 0.000000 0.000000 0.000000 0.030067 0.000000
# 6 0.000000 0.000000 0.000000 0.000000 0.000000 0.034045
#
#
# Mechanical properties :
#
#
# Convention : Reuss Voigt Hill
#
# Bulk Modulus (GPa) = 66.40533 89.81774 78.11153
# Shear Modulus (GPa) = 36.04410 41.01592 38.53001
#
# Velocity S-wave (km/s) = 3.83919 4.09543 3.96938
# Velocity P-wave (km/s) = 6.84160 7.68715 7.27667
#
# Compressibility (1/GPa) = 0.01505903
#
# Stress axis : x y z
#
# Youngs Moduli (GPa) = 57.20537 172.92472 137.45236
#
# Poissons Ratio (x) = 0.49363 0.41904
# Poissons Ratio (y) = 0.16330 0.25247
# Poissons Ratio (z) = 0.17440 0.31762
#
# Static dielectric constant tensor:
#      x y z
#    x 2.173200 0.000000 0.000000 
#    y 0.000000 1.864890 0.000000 
#    z 0.000000 0.000000 2.106010 
# 
# From -- ./inp_files/9870.got.cif
#   From: 2010.05.17/outbox.cif.g08.bks.cpg/sg20_5_cif.got.tgz:9870.got - 2010.06.03 22:52:26.
