data_PCOD9321380
_publ_section_title
;
Structure prediction by ZEFSAII (Michael W. Deem and Ramdas Pophale) SiO2 
 PCOD9321380
Probable space group: C 2 2 21
;
_chemical_formula_sum "Si O2"
_cell_formula_units_Z 60
_cell_length_a 17.111207
_cell_length_b 14.135864
_cell_length_c 12.972743
_cell_angle_alpha 90.000000
_cell_angle_beta 90.000000
_cell_angle_gamma 90.000000
_cell_volume 3137.869066
_symmetry_space_group_name_H-M "C 2 2 21"
_symmetry_group_IT_number 20
_symmetry_cell_setting 'orthorhombic'
loop_
_space_group_symop_operation_xyz
x,y,z
-x,-y,1/2+z
x,-y,-z
-x,y,1/2-z
1/2+x,1/2+y,z
1/2-x,1/2-y,1/2+z
1/2+x,1/2-y,-z
1/2-x,1/2+y,1/2-z
loop_
_atom_site_type_symbol
_atom_site_label
_atom_site_fract_x
_atom_site_fract_y
_atom_site_fract_z
Si Si1 0.853048 0.430457 0.128658
Si Si2 0.195989 0.892177 0.496331
Si Si3 0.385370 0.310266 0.540730
Si Si4 0.559536 0.757488 0.483571
Si Si5 0.705801 0.500000 0.000000
Si Si6 0.426389 0.121206 0.181853
Si Si7 0.793097 0.324246 0.304976
Si Si8 0.190891 0.295684 0.849442
O O1 0.767453 0.447702 0.077151
O O2 0.895323 0.530828 0.120511
O O3 0.842000 0.405714 0.249084
O O4 0.904906 0.345761 0.081166
O O5 0.125429 0.822113 0.518544
O O6 0.231211 0.866537 0.384904
O O7 0.262877 0.871294 0.581006
O O8 0.171295 0.000000 0.500000
O O9 0.477611 0.288985 0.550009
O O10 0.350200 0.416909 0.544626
O O11 0.343769 0.249385 0.629673
O O12 0.358302 0.266409 0.430756
O O13 0.552128 0.798176 0.599579
O O14 0.500000 0.093896 0.250000
O O15 0.361302 0.157766 0.261092
O O16 0.751906 0.269442 0.211510
#
# Coordination Sequence:
#
# PCOD9321380 Si02
#       8
#     8   8   8   8   4   8   8   8
#     4  12  24  43  71  97 127 176 235 272 330 406
#     4  11  24  42  66  97 131 173 223 272 326 403
#     4  11  26  40  66  99 137 168 220 278 340 388
#     4  12  24  44  63  97 142 171 210 287 344 389
#     4  12  22  46  70  98 128 186 234 274 314 424
#     4  12  24  40  68  95 128 173 225 277 342 398
#     4  11  22  43  70  91 131 176 218 277 330 392
#     4  11  21  44  65  93 125 173 221 272 324 397
#
# _framework density 19.121255999999999
#
# number of rings (size 3 to 8) (size 9 to 14) (size 15 to 20)
#    0.000    0.533    6.667    2.400    2.800    0.000 
#    0.000    0.000    0.000    3.200    0.000    0.000 
#    0.000    0.000    0.000    0.000    0.000    0.000 
#
# Total GULP energy -167551.210526 kJ/mol
# GULP energy per Si atom -5585.040351 kJ/mol
# Density = 1.907774 g / cm^3
# Si number density = 19.121256 Si / 1000 Ang^3
#
#
#
# Elastic Constant Matrix: (Units=GPa)
#
#
# Indices 1 2 3 4 5 6 
#
# 1 102.1140 40.2229 19.4799 0.0000 0.0000 0.0000
# 2 40.2229 102.2352 14.4617 0.0000 0.0000 0.0000
# 3 19.4799 14.4617 67.1672 0.0000 0.0000 0.0000
# 4 0.0000 0.0000 0.0000 24.9126 0.0000 0.0000
# 5 0.0000 0.0000 0.0000 0.0000 0.8101 0.0000
# 6 0.0000 0.0000 0.0000 0.0000 0.0000 31.9866
#
#
#
# Elastic Compliance Matrix: (Units=1/GPa)
#
#
# Indices 1 2 3 4 5 6 
#
# 1 0.011995 -0.004360 -0.002540 0.000000 0.000000 0.000000
# 2 -0.004360 0.011673 -0.001249 0.000000 0.000000 0.000000
# 3 -0.002540 -0.001249 0.015894 0.000000 0.000000 0.000000
# 4 0.000000 0.000000 0.000000 0.040140 0.000000 0.000000
# 5 0.000000 0.000000 0.000000 0.000000 1.234449 0.000000
# 6 0.000000 0.000000 0.000000 0.000000 0.000000 0.031263
#
#
# Mechanical properties :
#
#
# Convention : Reuss Voigt Hill
#
# Bulk Modulus (GPa) = 42.98425 46.64947 44.81686
# Shear Modulus (GPa) = 3.65106 24.69867 14.17486
#
# Velocity S-wave (km/s) = 1.38332 3.59790 2.72566
# Velocity P-wave (km/s) = 5.00800 6.45829 5.77882
#
# Compressibility (1/GPa) = 0.02326433
#
# Stress axis : x y z
#
# Youngs Moduli (GPa) = 83.36876 85.66510 62.91764
#
# Poissons Ratio (x) = 0.37349 0.15981
# Poissons Ratio (y) = 0.36348 0.07858
# Poissons Ratio (z) = 0.21176 0.10699
#
# Static dielectric constant tensor:
#      x y z
#    x 1.700640 0.000000 0.000000 
#    y 0.000000 1.656940 0.000000 
#    z 0.000000 0.000000 1.681700 
# 
# From -- ./inp_files/15878.got.cif
#   From: 2010.05.17/outbox.cif.g08.bks.cpg/sg20_8_cif.got.tgz:15878.got - 2010.06.03 22:52:26.
