data_PCOD9321620
_publ_section_title
;
Structure prediction by ZEFSAII (Michael W. Deem and Ramdas Pophale) SiO2 
 PCOD9321620
Probable space group: C 2 2 21
;
_chemical_formula_sum "Si O2"
_cell_formula_units_Z 48
_cell_length_a 10.809819
_cell_length_b 7.821021
_cell_length_c 22.609205
_cell_angle_alpha 90.000000
_cell_angle_beta 90.000000
_cell_angle_gamma 90.000000
_cell_volume 1911.468590
_symmetry_space_group_name_H-M "C 2 2 21"
_symmetry_group_IT_number 20
_symmetry_cell_setting 'orthorhombic'
loop_
_space_group_symop_operation_xyz
x,y,z
-x,-y,1/2+z
x,-y,-z
-x,y,1/2-z
1/2+x,1/2+y,z
1/2-x,1/2-y,1/2+z
1/2+x,1/2-y,-z
1/2-x,1/2+y,1/2-z
loop_
_atom_site_type_symbol
_atom_site_label
_atom_site_fract_x
_atom_site_fract_y
_atom_site_fract_z
Si Si1 0.440795 0.434165 0.644017
Si Si2 0.318732 0.200379 0.134345
Si Si3 0.893617 0.300088 0.999006
Si Si4 0.370975 0.667946 0.749859
Si Si5 0.104257 0.337407 0.302792
Si Si6 0.358535 0.659997 0.536118
O O1 0.327302 0.309656 0.630543
O O2 0.408254 0.512875 0.708096
O O3 0.555255 0.306290 0.651816
O O4 0.413917 0.590767 0.597954
O O5 0.368009 0.017779 0.162122
O O6 0.362735 0.235089 0.069217
O O7 0.351507 0.348422 0.180419
O O8 0.028205 0.215882 0.005712
O O9 0.925801 0.500000 0.000000
O O10 0.773539 0.240264 0.037617
O O11 0.500000 0.775625 0.750000
O O12 0.237346 0.721920 0.724460
O O13 0.000000 0.351635 0.250000
O O14 0.307459 0.500000 0.500000
#
# Coordination Sequence:
#
# PCOD9321620 Si02
#       6
#     8   8   8   8   8   8
#     4  11  23  45  70 103 144 189 234 296 359 421
#     4  11  23  44  70 105 140 185 240 292 349 428
#     4  11  25  47  72 103 141 185 234 297 354 418
#     4  11  24  42  69 100 145 186 230 288 357 419
#     4  11  24  41  73 104 142 190 236 290 355 426
#     4  11  25  46  74 102 142 187 238 299 355 421
#
# _framework density 25.11158
#
# number of rings (size 3 to 8) (size 9 to 14) (size 15 to 20)
#    0.000    1.000    5.000    2.000    4.667    0.667 
#    0.000    1.667    0.000    0.000    0.000    0.000 
#    0.000    0.000    0.000    0.000    0.000    0.000 
#
# Total GULP energy -133667.144040 kJ/mol
# GULP energy per Si atom -5569.464335 kJ/mol
# Density = 2.505443 g / cm^3
# Si number density = 25.111580 Si / 1000 Ang^3
#
#
#
# Elastic Constant Matrix: (Units=GPa)
#
#
# Indices 1 2 3 4 5 6 
#
# 1 190.3357 27.9405 27.6050 0.0000 0.0000 0.0000
# 2 27.9405 55.0339 6.3618 0.0000 0.0000 0.0000
# 3 27.6050 6.3618 102.3983 0.0000 0.0000 0.0000
# 4 0.0000 0.0000 0.0000 36.8965 0.0000 0.0000
# 5 0.0000 0.0000 0.0000 0.0000 37.9157 0.0000
# 6 0.0000 0.0000 0.0000 0.0000 0.0000 7.7102
#
#
#
# Elastic Compliance Matrix: (Units=1/GPa)
#
#
# Indices 1 2 3 4 5 6 
#
# 1 0.005872 -0.002818 -0.001408 0.000000 0.000000 0.000000
# 2 -0.002818 0.019655 -0.000461 0.000000 0.000000 0.000000
# 3 -0.001408 -0.000461 0.010174 0.000000 0.000000 0.000000
# 4 0.000000 0.000000 0.000000 0.027103 0.000000 0.000000
# 5 0.000000 0.000000 0.000000 0.000000 0.026374 0.000000
# 6 0.000000 0.000000 0.000000 0.000000 0.000000 0.129699
#
#
# Mechanical properties :
#
#
# Convention : Reuss Voigt Hill
#
# Bulk Modulus (GPa) = 37.98594 52.39805 45.19200
# Shear Modulus (GPa) = 21.09465 35.56185 28.32825
#
# Velocity S-wave (km/s) = 2.90148 3.76726 3.36236
# Velocity P-wave (km/s) = 5.13659 6.31145 5.75408
#
# Compressibility (1/GPa) = 0.02632553
#
# Stress axis : x y z
#
# Youngs Moduli (GPa) = 170.30619 50.87816 98.28998
#
# Poissons Ratio (x) = 0.14339 0.13838
# Poissons Ratio (y) = 0.47998 0.04534
# Poissons Ratio (z) = 0.23976 0.02347
#
# Static dielectric constant tensor:
#      x y z
#    x 2.114780 0.000000 0.000000 
#    y 0.000000 2.175330 0.000000 
#    z 0.000000 0.000000 2.058160 
# 
# From -- ./inp_files/29093.got.cif
#   From: 2010.05.17/outbox.cif.g08.bks.cpg/sg20_15_cif.got.tgz:29093.got - 2010.06.03 22:52:26.
