data_PCOD9321638
_publ_section_title
;
Structure prediction by ZEFSAII (Michael W. Deem and Ramdas Pophale) SiO2 
 PCOD9321638
Probable space group: C 2 2 21
;
_chemical_formula_sum "Si O2"
_cell_formula_units_Z 28
_cell_length_a 11.652757
_cell_length_b 8.946400
_cell_length_c 12.312455
_cell_angle_alpha 90.000000
_cell_angle_beta 90.000000
_cell_angle_gamma 90.000000
_cell_volume 1283.576207
_symmetry_space_group_name_H-M "C 2 2 21"
_symmetry_group_IT_number 20
_symmetry_cell_setting 'orthorhombic'
loop_
_space_group_symop_operation_xyz
x,y,z
-x,-y,1/2+z
x,-y,-z
-x,y,1/2-z
1/2+x,1/2+y,z
1/2-x,1/2-y,1/2+z
1/2+x,1/2-y,-z
1/2-x,1/2+y,1/2-z
loop_
_atom_site_type_symbol
_atom_site_label
_atom_site_fract_x
_atom_site_fract_y
_atom_site_fract_z
Si Si1 0.963994 0.132751 0.627635
Si Si2 0.940193 0.829344 0.907323
Si Si3 0.500000 0.066797 0.750000
Si Si4 0.314032 0.096048 0.390461
O O1 0.057241 0.185200 0.537568
O O2 0.000000 0.165361 0.750000
O O3 0.854135 0.231795 0.597747
O O4 0.961484 0.953028 0.617151
O O5 0.821062 0.900962 0.868450
O O6 0.961424 0.676225 0.846813
O O7 0.606423 0.973084 0.796690
O O8 0.333504 0.000000 0.500000
#
# Coordination Sequence:
#
# PCOD9321638 Si02
#       4
#     8   8   4   8
#     4  11  23  45  67  97 139 175 226 283 329 412
#     4  11  26  44  68  99 138 182 226 280 344 404
#     4  12  26  42  70 102 136 178 230 284 338 406
#     4  12  25  43  68 102 135 178 229 280 338 409
#
# _framework density 21.814052
#
# number of rings (size 3 to 8) (size 9 to 14) (size 15 to 20)
#    0.000    0.571    8.571    0.000    4.000    0.000 
#    0.000    5.714    0.000    0.000    0.000    0.000 
#    0.000    0.000    0.000    0.000    0.000    0.000 
#
# Total GULP energy -78190.128830 kJ/mol
# GULP energy per Si atom -5585.009202 kJ/mol
# Density = 2.176440 g / cm^3
# Si number density = 21.814052 Si / 1000 Ang^3
#
#
#
# Elastic Constant Matrix: (Units=GPa)
#
#
# Indices 1 2 3 4 5 6 
#
# 1 56.5561 36.7780 25.1770 0.0000 0.0000 0.0000
# 2 36.7780 101.8791 22.6464 0.0000 0.0000 0.0000
# 3 25.1770 22.6464 119.2923 0.0000 0.0000 0.0000
# 4 0.0000 0.0000 0.0000 24.7932 0.0000 0.0000
# 5 0.0000 0.0000 0.0000 0.0000 26.8339 0.0000
# 6 0.0000 0.0000 0.0000 0.0000 0.0000 37.5337
#
#
#
# Elastic Compliance Matrix: (Units=1/GPa)
#
#
# Indices 1 2 3 4 5 6 
#
# 1 0.024540 -0.008047 -0.003652 0.000000 0.000000 0.000000
# 2 -0.008047 0.012887 -0.000748 0.000000 0.000000 0.000000
# 3 -0.003652 -0.000748 0.009295 0.000000 0.000000 0.000000
# 4 0.000000 0.000000 0.000000 0.040334 0.000000 0.000000
# 5 0.000000 0.000000 0.000000 0.000000 0.037266 0.000000
# 6 0.000000 0.000000 0.000000 0.000000 0.000000 0.026643
#
#
# Mechanical properties :
#
#
# Convention : Reuss Voigt Hill
#
# Bulk Modulus (GPa) = 45.81110 49.65893 47.73501
# Shear Modulus (GPa) = 27.30226 30.70726 29.00476
#
# Velocity S-wave (km/s) = 3.54162 3.75598 3.65037
# Velocity P-wave (km/s) = 6.14576 6.45166 6.30057
#
# Compressibility (1/GPa) = 0.02182877
#
# Stress axis : x y z
#
# Youngs Moduli (GPa) = 40.74950 77.59847 107.57944
#
# Poissons Ratio (x) = 0.62445 0.39284
# Poissons Ratio (y) = 0.32792 0.08047
# Poissons Ratio (z) = 0.14880 0.05805
#
# Static dielectric constant tensor:
#      x y z
#    x 1.766180 0.000000 0.000000 
#    y 0.000000 1.827510 0.000000 
#    z 0.000000 0.000000 1.826660 
# 
# From -- ./inp_files/18098.got.cif
#   From: 2010.05.17/outbox.cif.g08.bks.cpg/sg20_10_cif.got.tgz:18098.got - 2010.06.03 22:52:26.
