data_PCOD9321989
_publ_section_title
;
Structure prediction by ZEFSAII (Michael W. Deem and Ramdas Pophale) SiO2 
 PCOD9321989
Probable space group: C 2 2 21
;
_chemical_formula_sum "Si O2"
_cell_formula_units_Z 40
_cell_length_a 23.995926
_cell_length_b 12.074061
_cell_length_c 5.452078
_cell_angle_alpha 90.000000
_cell_angle_beta 90.000000
_cell_angle_gamma 90.000000
_cell_volume 1579.621150
_symmetry_space_group_name_H-M "C 2 2 21"
_symmetry_group_IT_number 20
_symmetry_cell_setting 'orthorhombic'
loop_
_space_group_symop_operation_xyz
x,y,z
-x,-y,1/2+z
x,-y,-z
-x,y,1/2-z
1/2+x,1/2+y,z
1/2-x,1/2-y,1/2+z
1/2+x,1/2-y,-z
1/2-x,1/2+y,1/2-z
loop_
_atom_site_type_symbol
_atom_site_label
_atom_site_fract_x
_atom_site_fract_y
_atom_site_fract_z
Si Si1 0.313682 0.000000 0.000000
Si Si2 0.500000 0.738956 0.750000
Si Si3 0.000000 0.094151 0.250000
Si Si4 0.406952 0.101129 0.352649
Si Si5 0.738711 0.380052 0.372308
Si Si6 0.100709 0.000000 0.000000
Si Si7 0.333411 0.282313 0.458788
O O1 0.272236 0.913538 0.125894
O O2 0.355219 0.053196 0.198607
O O3 0.496408 0.669536 0.496618
O O4 0.550923 0.823688 0.705039
O O5 0.944535 0.017573 0.279105
O O6 0.379394 0.192219 0.528210
O O7 0.433256 0.000000 0.500000
O O8 0.733788 0.500000 0.500000
O O9 0.679369 0.323340 0.320190
O O10 0.777656 0.287580 0.491742
O O11 0.142666 0.101994 0.052636
#
# Coordination Sequence:
#
# PCOD9321989 Si02
#       7
#     4   4   4   8   8   4   8
#     4  12  23  48  78 106 166 194 263 338 396 496
#     4  12  31  51  88 118 166 215 273 352 416 500
#     4  12  29  59  80 126 166 211 289 344 416 514
#     4  12  27  50  76 117 153 210 265 333 412 492
#     4  12  27  49  75 119 156 210 275 332 406 502
#     4  12  29  50  86 112 166 218 279 342 428 494
#     4  12  26  50  76 114 158 214 265 334 414 486
#
# _framework density 25.322524999999999
#
# number of rings (size 3 to 8) (size 9 to 14) (size 15 to 20)
#    0.000    0.000    6.000    2.400    9.800    1.600 
#    0.000    0.000    0.000    0.000    0.000    0.000 
#    0.000    0.000    0.000    0.000    0.000    0.000 
#
# Total GULP energy -111450.307157 kJ/mol
# GULP energy per Si atom -5572.515358 kJ/mol
# Density = 2.526489 g / cm^3
# Si number density = 25.322525 Si / 1000 Ang^3
#
#
#
# Elastic Constant Matrix: (Units=GPa)
#
#
# Indices 1 2 3 4 5 6 
#
# 1 50.0757 27.8702 6.5257 0.0000 0.0000 0.0000
# 2 27.8702 195.4601 60.3917 0.0000 0.0000 0.0000
# 3 6.5257 60.3917 84.1226 0.0000 0.0000 0.0000
# 4 0.0000 0.0000 0.0000 41.6861 0.0000 0.0000
# 5 0.0000 0.0000 0.0000 0.0000 30.9727 0.0000
# 6 0.0000 0.0000 0.0000 0.0000 0.0000 93.4428
#
#
#
# Elastic Compliance Matrix: (Units=1/GPa)
#
#
# Indices 1 2 3 4 5 6 
#
# 1 0.021722 -0.003311 0.000692 0.000000 0.000000 0.000000
# 2 -0.003311 0.007079 -0.004825 0.000000 0.000000 0.000000
# 3 0.000692 -0.004825 0.015298 0.000000 0.000000 0.000000
# 4 0.000000 0.000000 0.000000 0.023989 0.000000 0.000000
# 5 0.000000 0.000000 0.000000 0.000000 0.032287 0.000000
# 6 0.000000 0.000000 0.000000 0.000000 0.000000 0.010702
#
#
# Mechanical properties :
#
#
# Convention : Reuss Voigt Hill
#
# Bulk Modulus (GPa) = 34.23424 57.69264 45.96344
# Shear Modulus (GPa) = 36.84543 48.87839 42.86191
#
# Velocity S-wave (km/s) = 3.81864 4.39821 4.11863
# Velocity P-wave (km/s) = 5.74381 6.97316 6.38812
#
# Compressibility (1/GPa) = 0.02921052
#
# Stress axis : x y z
#
# Youngs Moduli (GPa) = 46.03535 141.26023 65.36897
#
# Poissons Ratio (x) = 0.46774 -0.04524
# Poissons Ratio (y) = 0.15243 0.31542
# Poissons Ratio (z) = -0.03186 0.68162
#
# Static dielectric constant tensor:
#      x y z
#    x 2.088340 0.000000 0.000000 
#    y 0.000000 2.031500 0.000000 
#    z 0.000000 0.000000 2.097830 
# 
# From -- ./inp_files/4143.got.cif
#   From: 2010.05.17/outbox.cif.g08.bks.cpg/sg20_3_cif.got.tgz:4143.got - 2010.06.03 22:52:26.
