data_PCOD9321502
_publ_section_title
;
Structure prediction by ZEFSAII (Michael W. Deem and Ramdas Pophale) SiO2 
 PCOD9321502
Probable space group: C 2 2 21
;
_chemical_formula_sum "Si O2"
_cell_formula_units_Z 56
_cell_length_a 8.380791
_cell_length_b 21.786344
_cell_length_c 14.008632
_cell_angle_alpha 90.000000
_cell_angle_beta 90.000000
_cell_angle_gamma 90.000000
_cell_volume 2557.791229
_symmetry_space_group_name_H-M "C 2 2 21"
_symmetry_group_IT_number 20
_symmetry_cell_setting 'orthorhombic'
loop_
_space_group_symop_operation_xyz
x,y,z
-x,-y,1/2+z
x,-y,-z
-x,y,1/2-z
1/2+x,1/2+y,z
1/2-x,1/2-y,1/2+z
1/2+x,1/2-y,-z
1/2-x,1/2+y,1/2-z
loop_
_atom_site_type_symbol
_atom_site_label
_atom_site_fract_x
_atom_site_fract_y
_atom_site_fract_z
Si Si1 0.229374 0.072398 0.000237
Si Si2 0.165405 0.208161 0.305529
Si Si3 0.636463 0.404634 0.548393
Si Si4 0.677185 0.495663 0.714287
Si Si5 0.191658 0.659394 0.661659
Si Si6 0.826239 0.614687 0.648152
Si Si7 0.844792 0.385885 0.813112
O O1 0.349982 0.107437 0.072900
O O2 0.048287 0.082510 0.031022
O O3 0.226939 0.106970 0.899676
O O4 0.268543 0.000000 0.000000
O O5 0.149018 0.153616 0.381777
O O6 0.214008 0.269315 0.362251
O O7 0.279794 0.179014 0.224612
O O8 0.000000 0.220866 0.250000
O O9 0.685271 0.463653 0.610495
O O10 0.737440 0.392261 0.452503
O O11 0.500000 0.515663 0.750000
O O12 0.803983 0.549931 0.703338
O O13 0.725404 0.441270 0.785644
O O14 0.248936 0.658743 0.771787
O O15 0.006320 0.639562 0.645294
O O16 0.000000 0.398495 0.750000
#
# Coordination Sequence:
#
# PCOD9321502 Si02
#       7
#     8   8   8   8   8   8   8
#     4  12  25  43  69 108 144 180 232 291 352 423
#     4  11  22  52  70  92 140 188 235 287 356 418
#     4  11  24  42  72 100 134 188 231 284 350 423
#     4  11  22  43  70 100 140 183 221 283 354 425
#     4  11  28  44  68  99 138 190 224 295 354 404
#     4  11  25  43  64  99 137 177 228 278 350 414
#     4  11  25  43  72 105 138 186 236 288 350 416
#
# _framework density 21.893888
#
# number of rings (size 3 to 8) (size 9 to 14) (size 15 to 20)
#    0.000    0.857    4.286    3.000   10.000    2.286 
#    2.571    0.000    0.000    0.000    0.000    0.000 
#    0.000    0.000    0.000    0.000    0.000    0.000 
#
# Total GULP energy -156202.978683 kJ/mol
# GULP energy per Si atom -5578.677810 kJ/mol
# Density = 2.184406 g / cm^3
# Si number density = 21.893888 Si / 1000 Ang^3
#
#
#
# Elastic Constant Matrix: (Units=GPa)
#
#
# Indices 1 2 3 4 5 6 
#
# 1 37.6878 16.1662 17.1610 0.0000 0.0000 0.0000
# 2 16.1662 131.9962 13.3571 0.0000 0.0000 0.0000
# 3 17.1610 13.3571 111.1594 0.0000 0.0000 0.0000
# 4 0.0000 0.0000 0.0000 34.3458 0.0000 0.0000
# 5 0.0000 0.0000 0.0000 0.0000 29.1241 0.0000
# 6 0.0000 0.0000 0.0000 0.0000 0.0000 49.0330
#
#
#
# Elastic Compliance Matrix: (Units=1/GPa)
#
#
# Indices 1 2 3 4 5 6 
#
# 1 0.029839 -0.003228 -0.004219 0.000000 0.000000 0.000000
# 2 -0.003228 0.008018 -0.000465 0.000000 0.000000 0.000000
# 3 -0.004219 -0.000465 0.009703 0.000000 0.000000 0.000000
# 4 0.000000 0.000000 0.000000 0.029116 0.000000 0.000000
# 5 0.000000 0.000000 0.000000 0.000000 0.034336 0.000000
# 6 0.000000 0.000000 0.000000 0.000000 0.000000 0.020394
#
#
# Mechanical properties :
#
#
# Convention : Reuss Voigt Hill
#
# Bulk Modulus (GPa) = 31.50834 41.57913 36.54374
# Shear Modulus (GPa) = 31.68379 38.11119 34.89749
#
# Velocity S-wave (km/s) = 3.80827 4.17672 3.99675
# Velocity P-wave (km/s) = 5.81033 6.50326 6.16654
#
# Compressibility (1/GPa) = 0.03173763
#
# Stress axis : x y z
#
# Youngs Moduli (GPa) = 33.51283 124.71386 103.05778
#
# Poissons Ratio (x) = 0.40253 0.43478
# Poissons Ratio (y) = 0.10817 0.04794
# Poissons Ratio (z) = 0.14138 0.05802
#
# Static dielectric constant tensor:
#      x y z
#    x 1.810070 0.000000 0.000000 
#    y 0.000000 1.801060 0.000000 
#    z 0.000000 0.000000 1.084480 
# 
# From -- ./inp_files/19218.got.cif
#   From: 2010.05.17/outbox.cif.g08.bks.cpg/sg20_10_cif.got.tgz:19218.got - 2010.06.03 22:52:26.
