data_PCOD9321673
_publ_section_title
;
Structure prediction by ZEFSAII (Michael W. Deem and Ramdas Pophale) SiO2 
 PCOD9321673
Probable space group: C 2 2 21
;
_chemical_formula_sum "Si O2"
_cell_formula_units_Z 48
_cell_length_a 13.825232
_cell_length_b 9.056246
_cell_length_c 15.445215
_cell_angle_alpha 90.000000
_cell_angle_beta 90.000000
_cell_angle_gamma 90.000000
_cell_volume 1933.813541
_symmetry_space_group_name_H-M "C 2 2 21"
_symmetry_group_IT_number 20
_symmetry_cell_setting 'orthorhombic'
loop_
_space_group_symop_operation_xyz
x,y,z
-x,-y,1/2+z
x,-y,-z
-x,y,1/2-z
1/2+x,1/2+y,z
1/2-x,1/2-y,1/2+z
1/2+x,1/2-y,-z
1/2-x,1/2+y,1/2-z
loop_
_atom_site_type_symbol
_atom_site_label
_atom_site_fract_x
_atom_site_fract_y
_atom_site_fract_z
Si Si1 0.181183 0.131724 0.184702
Si Si2 0.706507 0.000000 0.000000
Si Si3 0.232426 0.000000 0.000000
Si Si4 0.486107 0.187639 0.125986
Si Si5 0.854309 0.201422 0.724572
Si Si6 0.363226 0.256312 0.954239
Si Si7 0.455397 0.856309 0.370657
O O1 0.186363 0.098487 0.078796
O O2 0.269337 0.195968 0.240474
O O3 0.104141 0.262031 0.197156
O O4 0.163990 0.970413 0.220845
O O5 0.785543 0.111673 0.043704
O O6 0.630346 0.089972 0.938719
O O7 0.298603 0.110752 0.944296
O O8 0.595855 0.247066 0.134336
O O9 0.429073 0.271214 0.199130
O O10 0.423058 0.225520 0.042934
O O11 0.493850 0.013719 0.145387
O O12 0.456495 0.254547 0.893567
#
# Coordination Sequence:
#
# PCOD9321673 Si02
#       7
#     8   4   4   8   8   8   8
#     4  12  27  48  77 114 151 211 271 326 409 482
#     4  12  25  41  76 116 162 206 257 339 410 466
#     4  12  23  47  74 116 148 194 267 335 380 484
#     4  11  23  48  72 104 162 205 255 327 398 481
#     4  11  26  47  73 104 157 207 262 324 403 487
#     4  12  24  44  76 118 155 197 265 333 401 476
#     4  12  24  47  77 116 159 210 264 339 408 466
#
# _framework density 24.821421999999998
#
# number of rings (size 3 to 8) (size 9 to 14) (size 15 to 20)
#    0.000    0.333    6.667    1.000    7.000    0.000 
#    0.000    6.667    0.000    0.000    0.000    0.000 
#    0.000    0.000    0.000    0.000    0.000    0.000 
#
# Total GULP energy -133823.150603 kJ/mol
# GULP energy per Si atom -5575.964608 kJ/mol
# Density = 2.476493 g / cm^3
# Si number density = 24.821422 Si / 1000 Ang^3
#
#
#
# Elastic Constant Matrix: (Units=GPa)
#
#
# Indices 1 2 3 4 5 6 
#
# 1 128.7722 57.5106 45.5862 0.0000 0.0000 0.0000
# 2 57.5106 142.0996 27.8084 0.0000 0.0000 0.0000
# 3 45.5862 27.8084 84.1995 0.0000 0.0000 0.0000
# 4 0.0000 0.0000 0.0000 20.1873 0.0000 0.0000
# 5 0.0000 0.0000 0.0000 0.0000 48.4747 0.0000
# 6 0.0000 0.0000 0.0000 0.0000 0.0000 224.7313
#
#
#
# Elastic Compliance Matrix: (Units=1/GPa)
#
#
# Indices 1 2 3 4 5 6 
#
# 1 0.011046 -0.003528 -0.004815 0.000000 0.000000 0.000000
# 2 -0.003528 0.008651 -0.000947 0.000000 0.000000 0.000000
# 3 -0.004815 -0.000947 0.014796 0.000000 0.000000 0.000000
# 4 0.000000 0.000000 0.000000 0.049536 0.000000 0.000000
# 5 0.000000 0.000000 0.000000 0.000000 0.020629 0.000000
# 6 0.000000 0.000000 0.000000 0.000000 0.000000 0.004450
#
#
# Mechanical properties :
#
#
# Convention : Reuss Voigt Hill
#
# Bulk Modulus (GPa) = 62.84387 68.54239 65.69313
# Shear Modulus (GPa) = 37.59620 73.62308 55.60964
#
# Velocity S-wave (km/s) = 3.89609 5.45211 4.73841
# Velocity P-wave (km/s) = 6.75372 8.20415 7.51402
#
# Compressibility (1/GPa) = 0.01591245
#
# Stress axis : x y z
#
# Youngs Moduli (GPa) = 90.53081 115.59965 67.58504
#
# Poissons Ratio (x) = 0.40786 0.32543
# Poissons Ratio (y) = 0.31941 0.06399
# Poissons Ratio (z) = 0.43592 0.10945
#
# Static dielectric constant tensor:
#      x y z
#    x 2.096950 0.000000 0.000000 
#    y 0.000000 1.907100 0.000000 
#    z 0.000000 0.000000 2.195730 
# 
# From -- ./inp_files/24855.got.cif
#   From: 2010.05.17/outbox.cif.g08.bks.cpg/sg20_13_cif.got.tgz:24855.got - 2010.06.03 22:52:26.
