data_PCOD9321600
_publ_section_title
;
Structure prediction by ZEFSAII (Michael W. Deem and Ramdas Pophale) SiO2 
 PCOD9321600
Probable space group: C 2 2 21
;
_chemical_formula_sum "Si O2"
_cell_formula_units_Z 60
_cell_length_a 17.196627
_cell_length_b 8.816325
_cell_length_c 21.235952
_cell_angle_alpha 90.000000
_cell_angle_beta 90.000000
_cell_angle_gamma 90.000000
_cell_volume 3219.605034
_symmetry_space_group_name_H-M "C 2 2 21"
_symmetry_group_IT_number 20
_symmetry_cell_setting 'orthorhombic'
loop_
_space_group_symop_operation_xyz
x,y,z
-x,-y,1/2+z
x,-y,-z
-x,y,1/2-z
1/2+x,1/2+y,z
1/2-x,1/2-y,1/2+z
1/2+x,1/2-y,-z
1/2-x,1/2+y,1/2-z
loop_
_atom_site_type_symbol
_atom_site_label
_atom_site_fract_x
_atom_site_fract_y
_atom_site_fract_z
Si Si1 0.396368 0.043526 0.103513
Si Si2 0.227587 0.602386 0.054691
Si Si3 0.627646 0.375437 0.108954
Si Si4 0.481638 0.500000 0.500000
Si Si5 0.455561 0.881184 0.684485
Si Si6 0.704528 0.056787 0.814411
Si Si7 0.388986 0.249708 0.980104
Si Si8 0.243533 0.910587 0.813821
O O1 0.480322 0.068147 0.134050
O O2 0.328066 0.073529 0.153539
O O3 0.392180 0.875256 0.074890
O O4 0.385122 0.159158 0.045723
O O5 0.178043 0.751349 0.070701
O O6 0.234358 0.506807 0.118804
O O7 0.311107 0.655072 0.030275
O O8 0.189954 0.500000 0.000000
O O9 0.581132 0.276310 0.160346
O O10 0.684102 0.492009 0.144152
O O11 0.571202 0.456428 0.059590
O O12 0.537137 0.640547 0.482331
O O13 0.500000 0.864077 0.750000
O O14 0.385143 0.001453 0.689711
O O15 0.716822 0.236398 0.811285
O O16 0.748962 0.978838 0.756153
#
# Coordination Sequence:
#
# PCOD9321600 Si02
#       8
#     8   8   8   4   8   8   8   8
#     4  11  24  43  72  94 134 178 223 271 338 399
#     4  11  23  43  69  99 131 174 229 270 331 394
#     4  11  27  43  67 101 135 175 219 283 327 396
#     4  12  26  42  66 100 144 164 224 274 340 386
#     4  11  23  47  67  95 133 177 220 275 340 399
#     4  11  26  42  72  97 136 175 224 282 333 402
#     4  11  24  43  67  99 131 179 219 276 328 404
#     4  12  25  46  69 100 132 177 227 275 333 396
#
# _framework density 18.635826999999999
#
# number of rings (size 3 to 8) (size 9 to 14) (size 15 to 20)
#    0.000    0.800    4.667    2.400    5.600    1.067 
#    0.000    0.667    0.000    0.000    0.000    0.000 
#    0.000    0.000    0.000    0.000    0.000    0.000 
#
# Total GULP energy -167762.524724 kJ/mol
# GULP energy per Si atom -5592.084157 kJ/mol
# Density = 1.859341 g / cm^3
# Si number density = 18.635827 Si / 1000 Ang^3
#
#
#
# Elastic Constant Matrix: (Units=GPa)
#
#
# Indices 1 2 3 4 5 6 
#
# 1 78.6879 45.1349 31.8318 0.0000 0.0000 0.0000
# 2 45.1349 145.5566 57.0700 0.0000 0.0000 0.0000
# 3 31.8318 57.0700 98.5688 0.0000 0.0000 0.0000
# 4 0.0000 0.0000 0.0000 27.1534 0.0000 0.0000
# 5 0.0000 0.0000 0.0000 0.0000 43.0499 0.0000
# 6 0.0000 0.0000 0.0000 0.0000 0.0000 19.7310
#
#
#
# Elastic Compliance Matrix: (Units=1/GPa)
#
#
# Indices 1 2 3 4 5 6 
#
# 1 0.016111 -0.003824 -0.002989 0.000000 0.000000 0.000000
# 2 -0.003824 0.009795 -0.004437 0.000000 0.000000 0.000000
# 3 -0.002989 -0.004437 0.013679 0.000000 0.000000 0.000000
# 4 0.000000 0.000000 0.000000 0.036828 0.000000 0.000000
# 5 0.000000 0.000000 0.000000 0.000000 0.023229 0.000000
# 6 0.000000 0.000000 0.000000 0.000000 0.000000 0.050682
#
#
# Mechanical properties :
#
#
# Convention : Reuss Voigt Hill
#
# Bulk Modulus (GPa) = 58.52454 65.65408 62.08931
# Shear Modulus (GPa) = 28.00842 30.57197 29.29019
#
# Velocity S-wave (km/s) = 3.88098 4.05470 3.96879
# Velocity P-wave (km/s) = 7.18019 7.56487 7.37504
#
# Compressibility (1/GPa) = 0.01708685
#
# Stress axis : x y z
#
# Youngs Moduli (GPa) = 62.06987 102.08910 73.10422
#
# Poissons Ratio (x) = 0.39037 0.21850
# Poissons Ratio (y) = 0.23735 0.32433
# Poissons Ratio (z) = 0.18552 0.45292
#
# Static dielectric constant tensor:
#      x y z
#    x 1.624880 0.000000 0.000000 
#    y 0.000000 1.650570 0.000000 
#    z 0.000000 0.000000 1.631580 
# 
# From -- ./inp_files/25286.got.cif
#   From: 2010.05.17/outbox.cif.g08.bks.cpg/sg20_13_cif.got.tgz:25286.got - 2010.06.03 22:52:26.
