data_PCOD9321003
_publ_section_title
;
Structure prediction by ZEFSAII (Michael W. Deem and Ramdas Pophale) SiO2 
 PCOD9321003
Probable space group: C 2 2 21
;
_chemical_formula_sum "Si O2"
_cell_formula_units_Z 28
_cell_length_a 9.605535
_cell_length_b 16.183558
_cell_length_c 7.025865
_cell_angle_alpha 90.000000
_cell_angle_beta 90.000000
_cell_angle_gamma 90.000000
_cell_volume 1092.182889
_symmetry_space_group_name_H-M "C 2 2 21"
_symmetry_group_IT_number 20
_symmetry_cell_setting 'orthorhombic'
loop_
_space_group_symop_operation_xyz
x,y,z
-x,-y,1/2+z
x,-y,-z
-x,y,1/2-z
1/2+x,1/2+y,z
1/2-x,1/2-y,1/2+z
1/2+x,1/2-y,-z
1/2-x,1/2+y,1/2-z
loop_
_atom_site_type_symbol
_atom_site_label
_atom_site_fract_x
_atom_site_fract_y
_atom_site_fract_z
Si Si1 0.139825 0.203912 0.867767
Si Si2 0.533198 0.000000 0.500000
Si Si3 0.312297 0.567903 0.350873
Si Si4 0.280618 0.119415 0.522674
O O1 0.226412 0.143323 0.730137
O O2 0.198224 0.293414 0.916247
O O3 0.000000 0.216146 0.750000
O O4 0.134471 0.153745 0.063826
O O5 0.644976 0.049643 0.370028
O O6 0.424391 0.071199 0.557618
O O7 0.371286 0.500000 0.500000
O O8 0.322525 0.570728 0.122714
#
# Coordination Sequence:
#
# PCOD9321003 Si02
#       4
#     8   4   8   8
#     4  12  27  46  70 109 157 192 244 313 388 443
#     4  10  24  46  84 104 144 188 268 302 348 458
#     4  10  24  47  71 111 137 195 253 303 366 437
#     4  12  24  47  75 111 146 198 248 312 371 444
#
# _framework density 25.636733
#
# number of rings (size 3 to 8) (size 9 to 14) (size 15 to 20)
#    0.857    0.000    2.857    4.286    4.000    1.143 
#    7.714    0.000    0.000    0.000    0.000    0.000 
#    0.000    0.000    0.000    0.000    0.000    0.000 
#
# Total GULP energy -78179.550924 kJ/mol
# GULP energy per Si atom -5584.253637 kJ/mol
# Density = 2.557838 g / cm^3
# Si number density = 25.636733 Si / 1000 Ang^3
#
#
#
# Elastic Constant Matrix: (Units=GPa)
#
#
# Indices 1 2 3 4 5 6 
#
# 1 42.0571 -9.4854 32.8009 0.0000 0.0000 0.0000
# 2 -9.4854 103.6982 49.1495 0.0000 0.0000 0.0000
# 3 32.8009 49.1495 129.2468 0.0000 0.0000 0.0000
# 4 0.0000 0.0000 0.0000 58.7906 0.0000 0.0000
# 5 0.0000 0.0000 0.0000 0.0000 29.1590 0.0000
# 6 0.0000 0.0000 0.0000 0.0000 0.0000 30.9057
#
#
#
# Elastic Compliance Matrix: (Units=1/GPa)
#
#
# Indices 1 2 3 4 5 6 
#
# 1 0.035637 0.009206 -0.012545 0.000000 0.000000 0.000000
# 2 0.009206 0.014142 -0.007714 0.000000 0.000000 0.000000
# 3 -0.012545 -0.007714 0.013854 0.000000 0.000000 0.000000
# 4 0.000000 0.000000 0.000000 0.017010 0.000000 0.000000
# 5 0.000000 0.000000 0.000000 0.000000 0.034295 0.000000
# 6 0.000000 0.000000 0.000000 0.000000 0.000000 0.032357
#
#
# Mechanical properties :
#
#
# Convention : Reuss Voigt Hill
#
# Bulk Modulus (GPa) = 24.08080 46.65911 35.36996
# Shear Modulus (GPa) = 27.28620 37.27353 32.27986
#
# Velocity S-wave (km/s) = 3.26596 3.81716 3.55227
# Velocity P-wave (km/s) = 4.86163 6.13736 5.53636
#
# Compressibility (1/GPa) = 0.04152686
#
# Stress axis : x y z
#
# Youngs Moduli (GPa) = 28.06039 70.71337 72.17981
#
# Poissons Ratio (x) = -0.65097 0.90549
# Poissons Ratio (y) = -0.25832 0.55679
# Poissons Ratio (z) = 0.35202 0.54548
#
# Static dielectric constant tensor:
#      x y z
#    x 2.009710 0.000000 0.000000 
#    y 0.000000 2.043190 0.000000 
#    z 0.000000 0.000000 2.117750 
# 
# From -- ./inp_files/6950.got.cif
#   From: 2010.05.17/outbox.cif.g08.bks.cpg/sg20_4_cif.got.tgz:6950.got - 2010.06.03 22:52:26.
