data_PCOD9321493
_publ_section_title
;
Structure prediction by ZEFSAII (Michael W. Deem and Ramdas Pophale) SiO2 
 PCOD9321493
Probable space group: C 2 2 21
;
_chemical_formula_sum "Si O2"
_cell_formula_units_Z 32
_cell_length_a 9.608612
_cell_length_b 11.069077
_cell_length_c 15.682857
_cell_angle_alpha 90.000000
_cell_angle_beta 90.000000
_cell_angle_gamma 90.000000
_cell_volume 1668.004614
_symmetry_space_group_name_H-M "C 2 2 21"
_symmetry_group_IT_number 20
_symmetry_cell_setting 'orthorhombic'
loop_
_space_group_symop_operation_xyz
x,y,z
-x,-y,1/2+z
x,-y,-z
-x,y,1/2-z
1/2+x,1/2+y,z
1/2-x,1/2-y,1/2+z
1/2+x,1/2-y,-z
1/2-x,1/2+y,1/2-z
loop_
_atom_site_type_symbol
_atom_site_label
_atom_site_fract_x
_atom_site_fract_y
_atom_site_fract_z
Si Si1 0.176312 0.632263 0.476645
Si Si2 0.833744 0.216762 0.151528
Si Si3 0.381514 0.968728 0.589639
Si Si4 0.363956 0.768289 0.340321
O O1 0.236585 0.500000 0.500000
O O2 0.180211 0.704671 0.565561
O O3 0.256715 0.710197 0.406319
O O4 0.022050 0.602130 0.438314
O O5 0.723607 0.109684 0.144185
O O6 0.809293 0.276778 0.243794
O O7 0.997598 0.185878 0.154798
O O8 0.308403 0.000000 0.500000
O O9 0.410776 0.096828 0.633340
#
# Coordination Sequence:
#
# PCOD9321493 Si02
#       4
#     8   8   8   8
#     4  11  22  43  67  92 126 175 211 261 324 383
#     4  11  23  41  65  94 128 166 213 267 319 378
#     4  11  22  44  67  89 129 171 210 265 318 383
#     4  11  25  42  62  97 131 165 217 267 319 384
#
# _framework density 19.1846
#
# number of rings (size 3 to 8) (size 9 to 14) (size 15 to 20)
#    0.000    1.000    7.500    0.000    3.500    2.000 
#    4.500    0.000    0.000    0.000    0.000    0.000 
#    0.000    0.000    0.000    0.000    0.000    0.000 
#
# Total GULP energy -89153.605926 kJ/mol
# GULP energy per Si atom -5572.100370 kJ/mol
# Density = 1.914093 g / cm^3
# Si number density = 19.184600 Si / 1000 Ang^3
#
#
#
# Elastic Constant Matrix: (Units=GPa)
#
#
# Indices 1 2 3 4 5 6 
#
# 1 69.4137 50.6824 49.3779 0.0000 0.0000 0.0000
# 2 50.6824 68.1633 35.8776 0.0000 0.0000 0.0000
# 3 49.3779 35.8776 163.8734 0.0000 0.0000 0.0000
# 4 0.0000 0.0000 0.0000 31.6822 0.0000 0.0000
# 5 0.0000 0.0000 0.0000 0.0000 31.1198 0.0000
# 6 0.0000 0.0000 0.0000 0.0000 0.0000 17.7545
#
#
#
# Elastic Compliance Matrix: (Units=1/GPa)
#
#
# Indices 1 2 3 4 5 6 
#
# 1 0.035493 -0.023465 -0.005557 0.000000 0.000000 0.000000
# 2 -0.023465 0.032095 0.000044 0.000000 0.000000 0.000000
# 3 -0.005557 0.000044 0.007767 0.000000 0.000000 0.000000
# 4 0.000000 0.000000 0.000000 0.031563 0.000000 0.000000
# 5 0.000000 0.000000 0.000000 0.000000 0.032134 0.000000
# 6 0.000000 0.000000 0.000000 0.000000 0.000000 0.056324
#
#
# Mechanical properties :
#
#
# Convention : Reuss Voigt Hill
#
# Bulk Modulus (GPa) = 57.47965 63.70291 60.59128
# Shear Modulus (GPa) = 19.29510 27.14546 23.22028
#
# Velocity S-wave (km/s) = 3.17481 3.76568 3.48280
# Velocity P-wave (km/s) = 6.59285 7.22388 6.91556
#
# Compressibility (1/GPa) = 0.01739746
#
# Stress axis : x y z
#
# Youngs Moduli (GPa) = 28.17470 31.15732 128.74711
#
# Poissons Ratio (x) = 0.73112 0.71547
# Poissons Ratio (y) = 0.66113 -0.00564
# Poissons Ratio (z) = 0.15657 -0.00136
#
# Static dielectric constant tensor:
#      x y z
#    x 1.672060 0.000000 0.000000 
#    y 0.000000 1.684630 0.000000 
#    z 0.000000 0.000000 1.693070 
# 
# From -- ./inp_files/18170.got.cif
#   From: 2010.05.17/outbox.cif.g08.bks.cpg/sg20_10_cif.got.tgz:18170.got - 2010.06.03 22:52:26.
