data_PCOD9321674
_publ_section_title
;
Structure prediction by ZEFSAII (Michael W. Deem and Ramdas Pophale) SiO2 
 PCOD9321674
Probable space group: C 2 2 21
;
_chemical_formula_sum "Si O2"
_cell_formula_units_Z 32
_cell_length_a 9.153906
_cell_length_b 11.670588
_cell_length_c 12.431511
_cell_angle_alpha 90.000000
_cell_angle_beta 90.000000
_cell_angle_gamma 90.000000
_cell_volume 1328.076539
_symmetry_space_group_name_H-M "C 2 2 21"
_symmetry_group_IT_number 20
_symmetry_cell_setting 'orthorhombic'
loop_
_space_group_symop_operation_xyz
x,y,z
-x,-y,1/2+z
x,-y,-z
-x,y,1/2-z
1/2+x,1/2+y,z
1/2-x,1/2-y,1/2+z
1/2+x,1/2-y,-z
1/2-x,1/2+y,1/2-z
loop_
_atom_site_type_symbol
_atom_site_label
_atom_site_fract_x
_atom_site_fract_y
_atom_site_fract_z
Si Si1 0.331503 0.794261 0.729850
Si Si2 0.739615 0.474134 0.375875
Si Si3 0.934019 0.115785 0.565498
Si Si4 0.417983 0.762132 0.360552
O O1 0.500000 0.814597 0.750000
O O2 0.324962 0.684963 0.646498
O O3 0.247648 0.780257 0.841938
O O4 0.258587 0.906596 0.681955
O O5 0.740726 0.500000 0.500000
O O6 0.576499 0.420511 0.364476
O O7 0.882820 0.396461 0.358295
O O8 0.974481 0.205907 0.469858
O O9 0.885390 0.000000 0.500000
O O10 0.500000 0.732320 0.250000
#
# Coordination Sequence:
#
# PCOD9321674 Si02
#       4
#     8   8   8   8
#     4  12  26  48  77 112 153 204 258 314 382 462
#     4  11  23  48  73 104 154 193 249 316 372 449
#     4  11  26  48  75 106 155 197 248 320 379 445
#     4  12  26  44  76 113 150 201 256 308 387 452
#
# _framework density 24.094998
#
# number of rings (size 3 to 8) (size 9 to 14) (size 15 to 20)
#    0.000    0.500    5.000    3.750    3.500    1.000 
#    0.000    0.000    0.000    0.000    0.000    0.000 
#    0.000    0.000    0.000    0.000    0.000    0.000 
#
# Total GULP energy -89279.342344 kJ/mol
# GULP energy per Si atom -5579.958896 kJ/mol
# Density = 2.404016 g / cm^3
# Si number density = 24.094998 Si / 1000 Ang^3
#
#
#
# Elastic Constant Matrix: (Units=GPa)
#
#
# Indices 1 2 3 4 5 6 
#
# 1 82.3936 25.4647 16.8352 0.0000 0.0000 0.0000
# 2 25.4647 144.3783 24.3328 0.0000 0.0000 0.0000
# 3 16.8352 24.3328 84.0000 0.0000 0.0000 0.0000
# 4 0.0000 0.0000 0.0000 40.9595 0.0000 0.0000
# 5 0.0000 0.0000 0.0000 0.0000 58.0620 0.0000
# 6 0.0000 0.0000 0.0000 0.0000 0.0000 42.0397
#
#
#
# Elastic Compliance Matrix: (Units=1/GPa)
#
#
# Indices 1 2 3 4 5 6 
#
# 1 0.013169 -0.001974 -0.002068 0.000000 0.000000 0.000000
# 2 -0.001974 0.007578 -0.001799 0.000000 0.000000 0.000000
# 3 -0.002068 -0.001799 0.012840 0.000000 0.000000 0.000000
# 4 0.000000 0.000000 0.000000 0.024414 0.000000 0.000000
# 5 0.000000 0.000000 0.000000 0.000000 0.017223 0.000000
# 6 0.000000 0.000000 0.000000 0.000000 0.000000 0.023787
#
#
# Mechanical properties :
#
#
# Convention : Reuss Voigt Hill
#
# Bulk Modulus (GPa) = 45.65137 49.33750 47.49443
# Shear Modulus (GPa) = 42.37427 44.48819 43.43123
#
# Velocity S-wave (km/s) = 4.19816 4.30160 4.25019
# Velocity P-wave (km/s) = 6.51820 6.72253 6.62115
#
# Compressibility (1/GPa) = 0.02190515
#
# Stress axis : x y z
#
# Youngs Moduli (GPa) = 75.93307 131.96560 77.87936
#
# Poissons Ratio (x) = 0.26054 0.16102
# Poissons Ratio (y) = 0.14992 0.14014
# Poissons Ratio (z) = 0.15699 0.23746
#
# Static dielectric constant tensor:
#      x y z
#    x 2.083490 0.000000 0.000000 
#    y 0.000000 1.642450 0.000000 
#    z 0.000000 0.000000 1.875510 
# 
# From -- ./inp_files/18192.got.cif
#   From: 2010.05.17/outbox.cif.g08.bks.cpg/sg20_10_cif.got.tgz:18192.got - 2010.06.03 22:52:26.
