data_PCOD9321308
_publ_section_title
;
Structure prediction by ZEFSAII (Michael W. Deem and Ramdas Pophale) SiO2 
 PCOD9321308
Probable space group: C 2 2 21
;
_chemical_formula_sum "Si O2"
_cell_formula_units_Z 64
_cell_length_a 13.299655
_cell_length_b 20.886603
_cell_length_c 10.257663
_cell_angle_alpha 90.000000
_cell_angle_beta 90.000000
_cell_angle_gamma 90.000000
_cell_volume 2849.420957
_symmetry_space_group_name_H-M "C 2 2 21"
_symmetry_group_IT_number 20
_symmetry_cell_setting 'orthorhombic'
loop_
_space_group_symop_operation_xyz
x,y,z
-x,-y,1/2+z
x,-y,-z
-x,y,1/2-z
1/2+x,1/2+y,z
1/2-x,1/2-y,1/2+z
1/2+x,1/2-y,-z
1/2-x,1/2+y,1/2-z
loop_
_atom_site_type_symbol
_atom_site_label
_atom_site_fract_x
_atom_site_fract_y
_atom_site_fract_z
Si Si1 0.945625 0.603238 0.388037
Si Si2 0.068144 0.437967 0.368755
Si Si3 0.785468 0.943109 0.894956
Si Si4 0.646866 0.667820 0.811704
Si Si5 0.384237 0.766841 0.478829
Si Si6 0.800165 0.021987 0.642368
Si Si7 0.120468 0.290989 0.314798
Si Si8 0.149992 0.188138 0.519899
O O1 0.832640 0.575552 0.381955
O O2 0.934988 0.674922 0.443746
O O3 0.000000 0.605373 0.250000
O O4 0.012215 0.564541 0.492692
O O5 0.178634 0.468345 0.364543
O O6 0.083315 0.362690 0.338194
O O7 0.000000 0.463750 0.250000
O O8 0.843436 0.880852 0.949107
O O9 0.820928 0.970960 0.756211
O O10 0.792898 0.000000 0.000000
O O11 0.654541 0.591494 0.825432
O O12 0.759227 0.697506 0.810454
O O13 0.607785 0.682969 0.666474
O O14 0.602073 0.702375 0.938508
O O15 0.410789 0.765639 0.326686
O O16 0.266101 0.787859 0.473259
O O17 0.834318 0.000000 0.500000
O O18 0.099336 0.241383 0.430033
#
# Coordination Sequence:
#
# PCOD9321308 Si02
#       8
#     8   8   8   8   8   8   8   8
#     4  11  23  34  49  74 104 142 178 210 246 298
#     4  11  21  36  51  70 105 141 178 213 246 294
#     4  11  21  36  51  70 105 141 178 213 246 294
#     4   9  18  33  50  70  96 125 166 218 265 298
#     4   9  18  33  50  70  96 125 166 218 265 298
#     4  11  23  34  49  74 104 142 178 210 246 298
#     4   9  18  32  52  71  91 127 169 216 265 300
#     4   9  18  32  52  71  91 127 169 216 265 300
#
# _framework density 22.460704
#
# number of rings (size 3 to 8) (size 9 to 14) (size 15 to 20)
#    0.000    2.000    2.500    1.500    3.500    3.000 
#    0.000    0.000    0.000    0.000    0.000    0.000 
#    0.000    6.000    0.000    0.000    0.000    0.000 
#
# Total GULP energy -179001.262242 kJ/mol
# GULP energy per Si atom -5593.789445 kJ/mol
# Density = 2.240958 g / cm^3
# Si number density = 22.460704 Si / 1000 Ang^3
#
#
#
# Elastic Constant Matrix: (Units=GPa)
#
#
# Indices 1 2 3 4 5 6 
#
# 1 22.2539 1.5253 11.4462 0.0000 0.0000 0.0000
# 2 1.5253 101.4415 58.9338 0.0000 0.0000 0.0000
# 3 11.4462 58.9338 207.3929 0.0000 0.0000 0.0000
# 4 0.0000 0.0000 0.0000 36.3269 0.0000 0.0000
# 5 0.0000 0.0000 0.0000 0.0000 25.8994 0.0000
# 6 0.0000 0.0000 0.0000 0.0000 0.0000 26.1541
#
#
#
# Elastic Compliance Matrix: (Units=1/GPa)
#
#
# Indices 1 2 3 4 5 6 
#
# 1 0.046324 0.000945 -0.002825 0.000000 0.000000 0.000000
# 2 0.000945 0.011826 -0.003413 0.000000 0.000000 0.000000
# 3 -0.002825 -0.003413 0.005947 0.000000 0.000000 0.000000
# 4 0.000000 0.000000 0.000000 0.027528 0.000000 0.000000
# 5 0.000000 0.000000 0.000000 0.000000 0.038611 0.000000
# 6 0.000000 0.000000 0.000000 0.000000 0.000000 0.038235
#
#
# Mechanical properties :
#
#
# Convention : Reuss Voigt Hill
#
# Bulk Modulus (GPa) = 18.68745 52.76655 35.72700
# Shear Modulus (GPa) = 25.39418 34.95494 30.17456
#
# Velocity S-wave (km/s) = 3.36609 3.94924 3.66927
# Velocity P-wave (km/s) = 4.84206 6.65877 5.82172
#
# Compressibility (1/GPa) = 0.05351184
#
# Stress axis : x y z
#
# Youngs Moduli (GPa) = 21.58694 84.55658 168.13828
#
# Poissons Ratio (x) = -0.07989 0.47502
# Poissons Ratio (y) = -0.02039 0.57382
# Poissons Ratio (z) = 0.06099 0.28857
#
# Static dielectric constant tensor:
#      x y z
#    x 1.873760 0.000000 0.000000 
#    y 0.000000 1.790120 0.000000 
#    z 0.000000 0.000000 1.804770 
# 
# From -- ./inp_files/9650.got.cif
#   From: 2010.05.17/outbox.cif.g08.bks.cpg/sg20_5_cif.got.tgz:9650.got - 2010.06.03 22:52:26.
