data_PCOD9321229
_publ_section_title
;
Structure prediction by ZEFSAII (Michael W. Deem and Ramdas Pophale) SiO2 
 PCOD9321229
Probable space group: C 2 2 21
;
_chemical_formula_sum "Si O2"
_cell_formula_units_Z 40
_cell_length_a 17.768751
_cell_length_b 6.343980
_cell_length_c 16.030792
_cell_angle_alpha 90.000000
_cell_angle_beta 90.000000
_cell_angle_gamma 90.000000
_cell_volume 1807.064631
_symmetry_space_group_name_H-M "C 2 2 21"
_symmetry_group_IT_number 20
_symmetry_cell_setting 'orthorhombic'
loop_
_space_group_symop_operation_xyz
x,y,z
-x,-y,1/2+z
x,-y,-z
-x,y,1/2-z
1/2+x,1/2+y,z
1/2-x,1/2-y,1/2+z
1/2+x,1/2-y,-z
1/2-x,1/2+y,1/2-z
loop_
_atom_site_type_symbol
_atom_site_label
_atom_site_fract_x
_atom_site_fract_y
_atom_site_fract_z
Si Si1 0.440483 0.250270 0.311160
Si Si2 0.296702 0.176546 0.069798
Si Si3 0.683492 0.196217 0.686213
Si Si4 0.686639 0.025405 0.865365
Si Si5 0.583286 0.464794 0.355407
O O1 0.500000 0.125770 0.250000
O O2 0.495510 0.409702 0.359826
O O3 0.395675 0.378724 0.238997
O O4 0.389334 0.109626 0.369826
O O5 0.222143 0.320656 0.065544
O O6 0.367822 0.331427 0.079316
O O7 0.297941 0.034062 0.152478
O O8 0.301255 0.000000 0.000000
O O9 0.675001 0.171060 0.784262
O O10 0.747846 0.358134 0.657432
O O11 0.608216 0.294110 0.645344
#
# Coordination Sequence:
#
# PCOD9321229 Si02
#       5
#     8   8   8   8   8
#     4   8  17  36  54  91 114 147 202 251 299 349
#     4  11  23  36  58  90 122 160 204 252 310 357
#     4  11  18  35  60  87 115 154 197 256 295 356
#     4  11  19  33  61  91 118 152 203 252 292 362
#     4   8  19  35  55  84 118 148 199 249 299 361
#
# _framework density 22.135345000000001
#
# number of rings (size 3 to 8) (size 9 to 14) (size 15 to 20)
#    1.200    0.800    4.000    1.200    0.000    3.200 
#   10.800    0.000    4.400    0.000    0.000    0.000 
#    0.000    0.000    0.000    0.000    0.000    0.000 
#
# Total GULP energy -111405.075981 kJ/mol
# GULP energy per Si atom -5570.253799 kJ/mol
# Density = 2.208496 g / cm^3
# Si number density = 22.135345 Si / 1000 Ang^3
#
#
#
# Elastic Constant Matrix: (Units=GPa)
#
#
# Indices 1 2 3 4 5 6 
#
# 1 99.7755 38.3643 3.6635 0.0000 0.0000 0.0000
# 2 38.3643 86.7101 3.2458 0.0000 0.0000 0.0000
# 3 3.6635 3.2458 29.5863 0.0000 0.0000 0.0000
# 4 0.0000 0.0000 0.0000 30.2890 0.0000 0.0000
# 5 0.0000 0.0000 0.0000 0.0000 10.9108 0.0000
# 6 0.0000 0.0000 0.0000 0.0000 0.0000 43.0418
#
#
#
# Elastic Compliance Matrix: (Units=1/GPa)
#
#
# Indices 1 2 3 4 5 6 
#
# 1 0.012102 -0.005320 -0.000915 0.000000 0.000000 0.000000
# 2 -0.005320 0.013919 -0.000868 0.000000 0.000000 0.000000
# 3 -0.000915 -0.000868 0.034008 0.000000 0.000000 0.000000
# 4 0.000000 0.000000 0.000000 0.033015 0.000000 0.000000
# 5 0.000000 0.000000 0.000000 0.000000 0.091652 0.000000
# 6 0.000000 0.000000 0.000000 0.000000 0.000000 0.023233
#
#
# Mechanical properties :
#
#
# Convention : Reuss Voigt Hill
#
# Bulk Modulus (GPa) = 21.82338 34.06878 27.94608
# Shear Modulus (GPa) = 21.06064 28.23487 24.64776
#
# Velocity S-wave (km/s) = 3.08790 3.57537 3.34054
# Velocity P-wave (km/s) = 4.75331 5.69815 5.24704
#
# Compressibility (1/GPa) = 0.04582242
#
# Stress axis : x y z
#
# Youngs Moduli (GPa) = 82.63304 71.84421 29.40484
#
# Poissons Ratio (x) = 0.38222 0.02690
# Poissons Ratio (y) = 0.43961 0.02553
# Poissons Ratio (z) = 0.07560 0.06238
#
# Static dielectric constant tensor:
#      x y z
#    x 1.870830 0.000000 0.000000 
#    y 0.000000 1.789330 0.000000 
#    z 0.000000 0.000000 1.916950 
# 
# From -- ./inp_files/22612.got.cif
#   From: 2010.05.17/outbox.cif.g08.bks.cpg/sg20_12_cif.got.tgz:22612.got - 2010.06.03 22:52:26.
