data_PCOD9321248
_publ_section_title
;
Structure prediction by ZEFSAII (Michael W. Deem and Ramdas Pophale) SiO2 
 PCOD9321248
Probable space group: C 2 2 21
;
_chemical_formula_sum "Si O2"
_cell_formula_units_Z 28
_cell_length_a 8.517190
_cell_length_b 11.583342
_cell_length_c 11.576456
_cell_angle_alpha 90.000000
_cell_angle_beta 90.000000
_cell_angle_gamma 90.000000
_cell_volume 1142.104493
_symmetry_space_group_name_H-M "C 2 2 21"
_symmetry_group_IT_number 20
_symmetry_cell_setting 'orthorhombic'
loop_
_space_group_symop_operation_xyz
x,y,z
-x,-y,1/2+z
x,-y,-z
-x,y,1/2-z
1/2+x,1/2+y,z
1/2-x,1/2-y,1/2+z
1/2+x,1/2-y,-z
1/2-x,1/2+y,1/2-z
loop_
_atom_site_type_symbol
_atom_site_label
_atom_site_fract_x
_atom_site_fract_y
_atom_site_fract_z
Si Si1 0.181660 0.611044 0.580307
Si Si2 0.853014 0.656893 0.482671
Si Si3 0.000000 0.650008 0.250000
Si Si4 0.338910 0.621683 0.807251
O O1 0.208358 0.500000 0.500000
O O2 0.301889 0.713974 0.550689
O O3 0.210292 0.584564 0.714049
O O4 0.007882 0.657960 0.560255
O O5 0.715344 0.604276 0.561958
O O6 0.915068 0.598603 0.363204
O O7 0.130044 0.739301 0.301783
O O8 0.500000 0.572522 0.750000
#
# Coordination Sequence:
#
# PCOD9321248 Si02
#       4
#     8   8   4   8
#     4  11  23  41  69 100 138 186 243 299 360 439
#     4  11  19  43  66  97 146 182 228 308 356 424
#     4   8  18  32  66  92 134 184 220 284 362 414
#     4   9  19  40  66  95 139 185 238 297 354 431
#
# _framework density 24.516147
#
# number of rings (size 3 to 8) (size 9 to 14) (size 15 to 20)
#    0.857    1.143    2.857    0.857    0.000    0.000 
#    5.143    8.571    0.000    0.000    0.000    0.000 
#    0.000    0.000    0.000    0.000    0.000    0.000 
#
# Total GULP energy -78101.572746 kJ/mol
# GULP energy per Si atom -5578.683768 kJ/mol
# Density = 2.446035 g / cm^3
# Si number density = 24.516147 Si / 1000 Ang^3
#
#
#
# Elastic Constant Matrix: (Units=GPa)
#
#
# Indices 1 2 3 4 5 6 
#
# 1 114.1990 26.4200 72.6180 0.0000 0.0000 0.0000
# 2 26.4200 88.2753 42.7203 0.0000 0.0000 0.0000
# 3 72.6180 42.7203 214.8109 0.0000 0.0000 0.0000
# 4 0.0000 0.0000 0.0000 35.7775 0.0000 0.0000
# 5 0.0000 0.0000 0.0000 0.0000 67.0269 0.0000
# 6 0.0000 0.0000 0.0000 0.0000 0.0000 13.5601
#
#
#
# Elastic Compliance Matrix: (Units=1/GPa)
#
#
# Indices 1 2 3 4 5 6 
#
# 1 0.011383 -0.001709 -0.003508 0.000000 0.000000 0.000000
# 2 -0.001709 0.012791 -0.001966 0.000000 0.000000 0.000000
# 3 -0.003508 -0.001966 0.006232 0.000000 0.000000 0.000000
# 4 0.000000 0.000000 0.000000 0.027951 0.000000 0.000000
# 5 0.000000 0.000000 0.000000 0.000000 0.014919 0.000000
# 6 0.000000 0.000000 0.000000 0.000000 0.000000 0.073746
#
#
# Mechanical properties :
#
#
# Convention : Reuss Voigt Hill
#
# Bulk Modulus (GPa) = 62.34537 77.86686 70.10611
# Shear Modulus (GPa) = 29.98776 41.64137 35.81456
#
# Velocity S-wave (km/s) = 3.50120 4.12579 3.82626
# Velocity P-wave (km/s) = 6.46762 7.38421 6.94106
#
# Compressibility (1/GPa) = 0.01603968
#
# Stress axis : x y z
#
# Youngs Moduli (GPa) = 87.85168 78.17895 160.45684
#
# Poissons Ratio (x) = 0.13361 0.56291
# Poissons Ratio (y) = 0.15014 0.31547
# Poissons Ratio (z) = 0.30820 0.15371
#
# Static dielectric constant tensor:
#      x y z
#    x 1.968260 0.000000 0.000000 
#    y 0.000000 1.921570 0.000000 
#    z 0.000000 0.000000 1.985870 
# 
# From -- ./inp_files/12405.got.cif
#   From: 2010.05.17/outbox.cif.g08.bks.cpg/sg20_7_cif.got.tgz:12405.got - 2010.06.03 22:52:26.
