data_PCOD9321244
_publ_section_title
;
Structure prediction by ZEFSAII (Michael W. Deem and Ramdas Pophale) SiO2 
 PCOD9321244
Probable space group: C 2 2 21
;
_chemical_formula_sum "Si O2"
_cell_formula_units_Z 48
_cell_length_a 9.345131
_cell_length_b 18.970160
_cell_length_c 13.931864
_cell_angle_alpha 90.000000
_cell_angle_beta 90.000000
_cell_angle_gamma 90.000000
_cell_volume 2469.821767
_symmetry_space_group_name_H-M "C 2 2 21"
_symmetry_group_IT_number 20
_symmetry_cell_setting 'orthorhombic'
loop_
_space_group_symop_operation_xyz
x,y,z
-x,-y,1/2+z
x,-y,-z
-x,y,1/2-z
1/2+x,1/2+y,z
1/2-x,1/2-y,1/2+z
1/2+x,1/2-y,-z
1/2-x,1/2+y,1/2-z
loop_
_atom_site_type_symbol
_atom_site_label
_atom_site_fract_x
_atom_site_fract_y
_atom_site_fract_z
Si Si1 0.221530 0.563143 0.165053
Si Si2 0.696407 0.329614 0.511540
Si Si3 0.390478 0.067434 0.123650
Si Si4 0.353520 0.408483 0.190219
Si Si5 0.887826 0.582046 0.827747
Si Si6 0.970127 0.314761 0.014567
O O1 0.178956 0.586651 0.273097
O O2 0.302150 0.488621 0.169368
O O3 0.063631 0.557136 0.117782
O O4 0.313401 0.616020 0.100292
O O5 0.655084 0.366595 0.410023
O O6 0.600878 0.260831 0.523911
O O7 0.864063 0.308087 0.513266
O O8 0.337137 0.986269 0.111223
O O9 0.375119 0.135012 0.055728
O O10 0.500000 0.407291 0.250000
O O11 0.237406 0.382410 0.267720
O O12 0.967413 0.639585 0.889152
O O13 0.000000 0.552239 0.750000
#
# Coordination Sequence:
#
# PCOD9321244 Si02
#       6
#     8   8   8   8   8   8
#     4   9  18  40  66  89 116 154 202 255 308 358
#     4  11  24  42  60  90 128 167 201 248 313 376
#     4   9  17  38  68  92 110 152 214 250 294 369
#     4  11  23  40  63  92 121 158 209 263 311 357
#     4  11  19  40  65  88 115 158 212 257 302 364
#     4  11  24  39  61  91 128 165 202 251 311 375
#
# _framework density 19.434598999999999
#
# number of rings (size 3 to 8) (size 9 to 14) (size 15 to 20)
#    0.000    1.667    5.000    1.000    2.333    4.000 
#    9.000    3.333    0.000    0.000    0.000    0.000 
#    0.000    0.000    0.000    0.000    0.000    0.000 
#
# Total GULP energy -133660.516851 kJ/mol
# GULP energy per Si atom -5569.188202 kJ/mol
# Density = 1.939037 g / cm^3
# Si number density = 19.434599 Si / 1000 Ang^3
#
#
#
# Elastic Constant Matrix: (Units=GPa)
#
#
# Indices 1 2 3 4 5 6 
#
# 1 36.1329 8.2832 8.4934 0.0000 0.0000 0.0000
# 2 8.2832 84.5065 29.1947 0.0000 0.0000 0.0000
# 3 8.4934 29.1947 45.3935 0.0000 0.0000 0.0000
# 4 0.0000 0.0000 0.0000 -12.9319 0.0000 0.0000
# 5 0.0000 0.0000 0.0000 0.0000 23.8509 0.0000
# 6 0.0000 0.0000 0.0000 0.0000 0.0000 30.0268
#
#
#
# Elastic Compliance Matrix: (Units=1/GPa)
#
#
# Indices 1 2 3 4 5 6 
#
# 1 0.029051 -0.001247 -0.004634 0.000000 0.000000 0.000000
# 2 -0.001247 0.015267 -0.009586 0.000000 0.000000 0.000000
# 3 -0.004634 -0.009586 0.029062 0.000000 0.000000 0.000000
# 4 0.000000 0.000000 0.000000 -0.077328 0.000000 0.000000
# 5 0.000000 0.000000 0.000000 0.000000 0.041927 0.000000
# 6 0.000000 0.000000 0.000000 0.000000 0.000000 0.033304
#
#
# Mechanical properties :
#
#
# Convention : Reuss Voigt Hill
#
# Bulk Modulus (GPa) = 23.55875 28.66392 26.11133
# Shear Modulus (GPa) = 42.96878 16.19327 29.58103
#
# Velocity S-wave (km/s) = 4.70717 2.88968 3.90562
# Velocity P-wave (km/s) = 6.45690 5.09064 5.81405
#
# Compressibility (1/GPa) = 0.04244708
#
# Stress axis : x y z
#
# Youngs Moduli (GPa) = 34.42266 65.49967 34.40958
#
# Poissons Ratio (x) = 0.08166 0.15945
# Poissons Ratio (y) = 0.04291 0.32984
# Poissons Ratio (z) = 0.15951 0.62787
#
# Static dielectric constant tensor:
#      x y z
#    x 1.717380 0.000000 0.000000 
#    y 0.000000 1.668960 0.000000 
#    z 0.000000 0.000000 1.745430 
# 
# From -- ./inp_files/18923.got.cif
#   From: 2010.05.17/outbox.cif.g08.bks.cpg/sg20_10_cif.got.tgz:18923.got - 2010.06.03 22:52:26.
