data_PCOD9321580
_publ_section_title
;
Structure prediction by ZEFSAII (Michael W. Deem and Ramdas Pophale) SiO2 
 PCOD9321580
Probable space group: C 2 2 21
;
_chemical_formula_sum "Si O2"
_cell_formula_units_Z 40
_cell_length_a 11.104225
_cell_length_b 8.694780
_cell_length_c 18.668662
_cell_angle_alpha 90.000000
_cell_angle_beta 90.000000
_cell_angle_gamma 90.000000
_cell_volume 1802.436791
_symmetry_space_group_name_H-M "C 2 2 21"
_symmetry_group_IT_number 20
_symmetry_cell_setting 'orthorhombic'
loop_
_space_group_symop_operation_xyz
x,y,z
-x,-y,1/2+z
x,-y,-z
-x,y,1/2-z
1/2+x,1/2+y,z
1/2-x,1/2-y,1/2+z
1/2+x,1/2-y,-z
1/2-x,1/2+y,1/2-z
loop_
_atom_site_type_symbol
_atom_site_label
_atom_site_fract_x
_atom_site_fract_y
_atom_site_fract_z
Si Si1 0.787404 0.345471 0.183558
Si Si2 0.119567 0.564312 0.201535
Si Si3 0.804434 0.068935 0.424398
Si Si4 0.747960 0.921808 0.077914
Si Si5 0.461017 0.563691 0.172862
O O1 0.791578 0.464673 0.248325
O O2 0.672875 0.233283 0.188649
O O3 0.785086 0.446971 0.112335
O O4 0.899784 0.229904 0.186788
O O5 0.132129 0.480001 0.124653
O O6 0.000000 0.568730 0.250000
O O7 0.751861 0.239023 0.430519
O O8 0.918401 0.079779 0.372532
O O9 0.841884 0.000000 0.500000
O O10 0.864092 0.972996 0.124487
O O11 0.749166 0.000000 0.000000
O O12 0.500000 0.498820 0.250000
#
# Coordination Sequence:
#
# PCOD9321580 Si02
#       5
#     8   8   8   8   8
#     4  11  24  41  65  98 132 169 222 280 329 398
#     4  11  23  42  67  95 129 172 220 269 328 393
#     4  12  25  43  67  97 136 180 223 276 344 406
#     4  11  24  47  71  99 141 180 226 285 339 401
#     4  11  24  45  71  99 132 175 227 282 339 404
#
# _framework density 22.192177999999998
#
# number of rings (size 3 to 8) (size 9 to 14) (size 15 to 20)
#    0.000    0.800    0.000    9.600    0.000    5.600 
#    0.000   13.000    0.000    0.000    0.000    0.000 
#    0.000    0.000    0.000    0.000    0.000    0.000 
#
# Total GULP energy -111902.568304 kJ/mol
# GULP energy per Si atom -5595.128415 kJ/mol
# Density = 2.214167 g / cm^3
# Si number density = 22.192178 Si / 1000 Ang^3
#
#
#
# Elastic Constant Matrix: (Units=GPa)
#
#
# Indices 1 2 3 4 5 6 
#
# 1 71.5345 26.7102 38.6273 0.0000 0.0000 0.0000
# 2 26.7102 160.7362 53.6712 0.0000 0.0000 0.0000
# 3 38.6273 53.6712 179.0742 0.0000 0.0000 0.0000
# 4 0.0000 0.0000 0.0000 35.9519 0.0000 0.0000
# 5 0.0000 0.0000 0.0000 0.0000 28.9473 0.0000
# 6 0.0000 0.0000 0.0000 0.0000 0.0000 21.4353
#
#
#
# Elastic Compliance Matrix: (Units=1/GPa)
#
#
# Indices 1 2 3 4 5 6 
#
# 1 0.016229 -0.001698 -0.002992 0.000000 0.000000 0.000000
# 2 -0.001698 0.007091 -0.001759 0.000000 0.000000 0.000000
# 3 -0.002992 -0.001759 0.006757 0.000000 0.000000 0.000000
# 4 0.000000 0.000000 0.000000 0.027815 0.000000 0.000000
# 5 0.000000 0.000000 0.000000 0.000000 0.034546 0.000000
# 6 0.000000 0.000000 0.000000 0.000000 0.000000 0.046652
#
#
# Mechanical properties :
#
#
# Convention : Reuss Voigt Hill
#
# Bulk Modulus (GPa) = 58.20988 72.15137 65.18063
# Shear Modulus (GPa) = 31.70326 36.75598 34.22962
#
# Velocity S-wave (km/s) = 3.78375 4.07413 3.93162
# Velocity P-wave (km/s) = 6.73616 7.39689 7.07425
#
# Compressibility (1/GPa) = 0.01717921
#
# Stress axis : x y z
#
# Youngs Moduli (GPa) = 61.61919 141.02671 147.99865
#
# Poissons Ratio (x) = 0.23944 0.44278
# Poissons Ratio (y) = 0.10462 0.26033
# Poissons Ratio (z) = 0.18435 0.24807
#
# Static dielectric constant tensor:
#      x y z
#    x 1.867810 0.000000 0.000000 
#    y 0.000000 1.805350 0.000000 
#    z 0.000000 0.000000 1.799430 
# 
# From -- ./inp_files/24072.got.cif
#   From: 2010.05.17/outbox.cif.g08.bks.cpg/sg20_13_cif.got.tgz:24072.got - 2010.06.03 22:52:26.
