data_PCOD9321292
_publ_section_title
;
Structure prediction by ZEFSAII (Michael W. Deem and Ramdas Pophale) SiO2 
 PCOD9321292
Probable space group: C 2 2 21
;
_chemical_formula_sum "Si O2"
_cell_formula_units_Z 44
_cell_length_a 9.109661
_cell_length_b 16.979525
_cell_length_c 14.390487
_cell_angle_alpha 90.000000
_cell_angle_beta 90.000000
_cell_angle_gamma 90.000000
_cell_volume 2225.887671
_symmetry_space_group_name_H-M "C 2 2 21"
_symmetry_group_IT_number 20
_symmetry_cell_setting 'orthorhombic'
loop_
_space_group_symop_operation_xyz
x,y,z
-x,-y,1/2+z
x,-y,-z
-x,y,1/2-z
1/2+x,1/2+y,z
1/2-x,1/2-y,1/2+z
1/2+x,1/2-y,-z
1/2-x,1/2+y,1/2-z
loop_
_atom_site_type_symbol
_atom_site_label
_atom_site_fract_x
_atom_site_fract_y
_atom_site_fract_z
Si Si1 0.500000 0.575225 0.250000
Si Si2 0.593863 0.921512 0.459752
Si Si3 0.029197 0.915246 0.448684
Si Si4 0.191913 0.938747 0.210567
Si Si5 0.312072 0.154767 0.619846
Si Si6 0.833067 0.164680 0.415488
O O1 0.640891 0.517103 0.266536
O O2 0.429309 0.626354 0.332167
O O3 0.699323 0.951279 0.376398
O O4 0.475066 0.864681 0.414116
O O5 0.692749 0.881270 0.540589
O O6 0.520549 0.000000 0.500000
O O7 0.198340 0.893638 0.443702
O O8 0.954138 0.914487 0.347017
O O9 0.947942 0.844497 0.500919
O O10 0.002658 0.000000 0.500000
O O11 0.270914 0.877235 0.277910
O O12 0.288860 0.247674 0.611171
#
# Coordination Sequence:
#
# PCOD9321292 Si02
#       6
#     4   8   8   8   8   8
#     4  12  20  42  70  86 122 176 232 250 306 410
#     4  11  23  43  63  92 133 166 208 271 330 376
#     4  11  20  43  70  91 124 179 224 255 316 408
#     4  11  21  41  68  92 120 174 223 256 305 401
#     4  12  24  38  66  98 134 161 210 277 338 370
#     4  11  24  40  64  95 128 170 213 269 322 397
#
# _framework density 19.767395
#
# number of rings (size 3 to 8) (size 9 to 14) (size 15 to 20)
#    0.000    0.727    5.455    3.273    2.545    0.000 
#    0.000    0.000    8.000    0.000    0.000    0.000 
#    0.000    0.000    0.000    0.000    0.000    0.000 
#
# Total GULP energy -122493.182359 kJ/mol
# GULP energy per Si atom -5567.871925 kJ/mol
# Density = 1.972240 g / cm^3
# Si number density = 19.767395 Si / 1000 Ang^3
#
#
#
# Elastic Constant Matrix: (Units=GPa)
#
#
# Indices 1 2 3 4 5 6 
#
# 1 91.4363 31.3141 33.3935 0.0000 0.0000 0.0000
# 2 31.3141 119.8723 64.6880 0.0000 0.0000 0.0000
# 3 33.3935 64.6880 110.7540 0.0000 0.0000 0.0000
# 4 0.0000 0.0000 0.0000 21.9123 0.0000 0.0000
# 5 0.0000 0.0000 0.0000 0.0000 34.9709 0.0000
# 6 0.0000 0.0000 0.0000 0.0000 0.0000 25.7088
#
#
#
# Elastic Compliance Matrix: (Units=1/GPa)
#
#
# Indices 1 2 3 4 5 6 
#
# 1 0.012552 -0.001806 -0.002730 0.000000 0.000000 0.000000
# 2 -0.001806 0.012442 -0.006722 0.000000 0.000000 0.000000
# 3 -0.002730 -0.006722 0.013778 0.000000 0.000000 0.000000
# 4 0.000000 0.000000 0.000000 0.045637 0.000000 0.000000
# 5 0.000000 0.000000 0.000000 0.000000 0.028595 0.000000
# 6 0.000000 0.000000 0.000000 0.000000 0.000000 0.038897
#
#
# Mechanical properties :
#
#
# Convention : Reuss Voigt Hill
#
# Bulk Modulus (GPa) = 61.51545 64.53932 63.02738
# Shear Modulus (GPa) = 27.80322 29.36286 28.58304
#
# Velocity S-wave (km/s) = 3.75443 3.85829 3.80672
# Velocity P-wave (km/s) = 7.06976 7.25044 7.16067
#
# Compressibility (1/GPa) = 0.01625608
#
# Stress axis : x y z
#
# Youngs Moduli (GPa) = 79.66870 80.37588 72.57753
#
# Poissons Ratio (x) = 0.14514 0.19813
# Poissons Ratio (y) = 0.14387 0.48788
# Poissons Ratio (z) = 0.21748 0.54031
#
# Static dielectric constant tensor:
#      x y z
#    x 1.696240 0.000000 0.000000 
#    y 0.000000 1.686230 0.000000 
#    z 0.000000 0.000000 1.798360 
# 
# From -- ./inp_files/18803.got.cif
#   From: 2010.05.17/outbox.cif.g08.bks.cpg/sg20_10_cif.got.tgz:18803.got - 2010.06.03 22:52:26.
