data_PCOD9321463
_publ_section_title
;
Structure prediction by ZEFSAII (Michael W. Deem and Ramdas Pophale) SiO2 
 PCOD9321463
Probable space group: C 2 2 21
;
_chemical_formula_sum "Si O2"
_cell_formula_units_Z 60
_cell_length_a 15.261395
_cell_length_b 11.768870
_cell_length_c 17.300330
_cell_angle_alpha 90.000000
_cell_angle_beta 90.000000
_cell_angle_gamma 90.000000
_cell_volume 3107.301437
_symmetry_space_group_name_H-M "C 2 2 21"
_symmetry_group_IT_number 20
_symmetry_cell_setting 'orthorhombic'
loop_
_space_group_symop_operation_xyz
x,y,z
-x,-y,1/2+z
x,-y,-z
-x,y,1/2-z
1/2+x,1/2+y,z
1/2-x,1/2-y,1/2+z
1/2+x,1/2-y,-z
1/2-x,1/2+y,1/2-z
loop_
_atom_site_type_symbol
_atom_site_label
_atom_site_fract_x
_atom_site_fract_y
_atom_site_fract_z
Si Si1 0.246924 0.400074 0.315435
Si Si2 0.208825 0.335334 0.888582
Si Si3 0.611536 0.828114 0.186734
Si Si4 0.342265 0.076727 0.075977
Si Si5 0.500000 0.626340 0.250000
Si Si6 0.233190 0.173402 0.562027
Si Si7 0.348938 0.505918 0.824285
Si Si8 0.976457 0.435362 0.662976
O O1 0.275906 0.296594 0.369550
O O2 0.162777 0.362003 0.265034
O O3 0.219367 0.511376 0.362591
O O4 0.321478 0.426240 0.252676
O O5 0.275504 0.408391 0.836080
O O6 0.110835 0.374323 0.868102
O O7 0.234347 0.360186 0.977071
O O8 0.562921 0.710224 0.201575
O O9 0.683961 0.823965 0.119779
O O10 0.545723 0.930298 0.166829
O O11 0.307045 0.201481 0.058763
O O12 0.439474 0.084796 0.110545
O O13 0.343733 0.000000 0.000000
O O14 0.558276 0.550981 0.307688
O O15 0.163911 0.087920 0.602148
O O16 0.000000 0.397702 0.750000
#
# Coordination Sequence:
#
# PCOD9321463 Si02
#       8
#     8   8   8   8   4   8   8   8
#     4  11  22  45  69  96 126 185 223 273 336 407
#     4  12  24  46  70  98 139 177 224 277 350 410
#     4  11  22  41  70  97 135 180 229 266 340 408
#     4  12  25  43  66 100 134 168 229 290 333 396
#     4  12  22  42  68 102 134 178 230 280 326 404
#     4  11  26  45  69  97 137 184 219 275 349 417
#     4  11  25  39  72  96 134 176 226 271 335 408
#     4  12  25  41  70 103 130 173 232 288 329 396
#
# _framework density 19.309358
#
# number of rings (size 3 to 8) (size 9 to 14) (size 15 to 20)
#    0.000    0.533    7.333    1.200    7.467    1.067 
#    0.000    0.000    2.933    0.000    0.000    0.000 
#    0.000    0.000    0.000    0.000    0.000    0.000 
#
# Total GULP energy -167784.785814 kJ/mol
# GULP energy per Si atom -5592.826194 kJ/mol
# Density = 1.926541 g / cm^3
# Si number density = 19.309358 Si / 1000 Ang^3
#
#
#
# Elastic Constant Matrix: (Units=GPa)
#
#
# Indices 1 2 3 4 5 6 
#
# 1 65.7171 36.2104 37.0583 0.0000 0.0000 0.0000
# 2 36.2104 91.0018 24.7135 0.0000 0.0000 0.0000
# 3 37.0583 24.7135 105.7367 0.0000 0.0000 0.0000
# 4 0.0000 0.0000 0.0000 34.4097 0.0000 0.0000
# 5 0.0000 0.0000 0.0000 0.0000 26.2292 0.0000
# 6 0.0000 0.0000 0.0000 0.0000 0.0000 34.0805
#
#
#
# Elastic Compliance Matrix: (Units=1/GPa)
#
#
# Indices 1 2 3 4 5 6 
#
# 1 0.022819 -0.007376 -0.006273 0.000000 0.000000 0.000000
# 2 -0.007376 0.014118 -0.000715 0.000000 0.000000 0.000000
# 3 -0.006273 -0.000715 0.011823 0.000000 0.000000 0.000000
# 4 0.000000 0.000000 0.000000 0.029062 0.000000 0.000000
# 5 0.000000 0.000000 0.000000 0.000000 0.038125 0.000000
# 6 0.000000 0.000000 0.000000 0.000000 0.000000 0.029342
#
#
# Mechanical properties :
#
#
# Convention : Reuss Voigt Hill
#
# Bulk Modulus (GPa) = 49.92132 50.93554 50.42843
# Shear Modulus (GPa) = 27.67108 29.90878 28.78993
#
# Velocity S-wave (km/s) = 3.78966 3.93991 3.86551
# Velocity P-wave (km/s) = 6.71254 6.86536 6.78938
#
# Compressibility (1/GPa) = 0.02003152
#
# Stress axis : x y z
#
# Youngs Moduli (GPa) = 43.82399 70.83239 84.57979
#
# Poissons Ratio (x) = 0.52246 0.53060
# Poissons Ratio (y) = 0.32325 0.06044
# Poissons Ratio (z) = 0.27493 0.05062
#
# Static dielectric constant tensor:
#      x y z
#    x 1.650410 0.000000 0.000000 
#    y 0.000000 1.673950 0.000000 
#    z 0.000000 0.000000 1.672450 
# 
# From -- ./inp_files/21466.got.cif
#   From: 2010.05.17/outbox.cif.g08.bks.cpg/sg20_11_cif.got.tgz:21466.got - 2010.06.03 22:52:26.
