data_PCOD9321208
_publ_section_title
;
Structure prediction by ZEFSAII (Michael W. Deem and Ramdas Pophale) SiO2 
 PCOD9321208
Probable space group: C 2 2 21
;
_chemical_formula_sum "Si O2"
_cell_formula_units_Z 60
_cell_length_a 11.138427
_cell_length_b 8.409080
_cell_length_c 29.989290
_cell_angle_alpha 90.000000
_cell_angle_beta 90.000000
_cell_angle_gamma 90.000000
_cell_volume 2808.914571
_symmetry_space_group_name_H-M "C 2 2 21"
_symmetry_group_IT_number 20
_symmetry_cell_setting 'orthorhombic'
loop_
_space_group_symop_operation_xyz
x,y,z
-x,-y,1/2+z
x,-y,-z
-x,y,1/2-z
1/2+x,1/2+y,z
1/2-x,1/2-y,1/2+z
1/2+x,1/2-y,-z
1/2-x,1/2+y,1/2-z
loop_
_atom_site_type_symbol
_atom_site_label
_atom_site_fract_x
_atom_site_fract_y
_atom_site_fract_z
Si Si1 0.545132 0.561091 0.949759
Si Si2 0.110126 0.882028 0.362488
Si Si3 0.094580 0.346392 0.825409
Si Si4 0.215494 0.207404 0.073871
Si Si5 0.986451 0.589207 0.606503
Si Si6 0.439446 0.131006 0.036495
Si Si7 0.000000 0.578627 0.750000
Si Si8 0.858194 0.778278 0.822058
O O1 0.450645 0.550073 0.908502
O O2 0.662149 0.469503 0.932375
O O3 0.549675 0.750443 0.957408
O O4 0.514881 0.500000 0.000000
O O5 0.220162 0.773216 0.380970
O O6 0.016381 0.768094 0.337113
O O7 0.134775 0.031444 0.330231
O O8 0.099191 0.473449 0.865433
O O9 0.070610 0.458079 0.782725
O O10 0.216240 0.246540 0.823076
O O11 0.094486 0.311900 0.072307
O O12 0.314537 0.227324 0.034920
O O13 0.074013 0.470246 0.581345
O O14 0.063904 0.700177 0.638412
O O15 0.452881 0.000000 0.000000
O O16 0.085492 0.695545 0.721525
#
# Coordination Sequence:
#
# PCOD9321208 Si02
#       8
#     8   8   8   8   8   8   4   8
#     4  11  23  42  65  97 140 187 235 288 334 391
#     4  11  24  42  70 102 134 185 229 275 349 412
#     4  11  24  47  69 102 136 177 221 281 347 415
#     4  11  22  42  65  99 135 183 228 284 332 402
#     4  11  22  41  68  99 136 174 233 274 337 417
#     4  11  25  41  62  98 140 186 234 286 343 396
#     4  10  28  46  68 110 134 168 228 284 346 432
#     4  11  25  45  74 100 133 178 218 281 351 415
#
# _framework density 21.360565000000001
#
# number of rings (size 3 to 8) (size 9 to 14) (size 15 to 20)
#    0.000    1.067    5.333    1.200    1.867    2.667 
#    0.000    8.000    0.000    0.000    0.000    0.000 
#    0.000    0.000    0.000    0.000    0.000    0.000 
#
# Total GULP energy -167135.188029 kJ/mol
# GULP energy per Si atom -5571.172934 kJ/mol
# Density = 2.131195 g / cm^3
# Si number density = 21.360565 Si / 1000 Ang^3
#
#
#
# Elastic Constant Matrix: (Units=GPa)
#
#
# Indices 1 2 3 4 5 6 
#
# 1 75.4225 17.9118 10.1588 0.0000 0.0000 0.0000
# 2 17.9118 78.3514 19.3023 0.0000 0.0000 0.0000
# 3 10.1588 19.3023 72.2238 0.0000 0.0000 0.0000
# 4 0.0000 0.0000 0.0000 32.2848 0.0000 0.0000
# 5 0.0000 0.0000 0.0000 0.0000 18.0607 0.0000
# 6 0.0000 0.0000 0.0000 0.0000 0.0000 33.6735
#
#
#
# Elastic Compliance Matrix: (Units=1/GPa)
#
#
# Indices 1 2 3 4 5 6 
#
# 1 0.014117 -0.002931 -0.001202 0.000000 0.000000 0.000000
# 2 -0.002931 0.014271 -0.003402 0.000000 0.000000 0.000000
# 3 -0.001202 -0.003402 0.014924 0.000000 0.000000 0.000000
# 4 0.000000 0.000000 0.000000 0.030974 0.000000 0.000000
# 5 0.000000 0.000000 0.000000 0.000000 0.055369 0.000000
# 6 0.000000 0.000000 0.000000 0.000000 0.000000 0.029697
#
#
# Mechanical properties :
#
#
# Convention : Reuss Voigt Hill
#
# Bulk Modulus (GPa) = 35.40855 35.63815 35.52335
# Shear Modulus (GPa) = 27.19817 28.71213 27.95515
#
# Velocity S-wave (km/s) = 3.57219 3.67026 3.62156
# Velocity P-wave (km/s) = 5.79885 5.88909 5.84414
#
# Compressibility (1/GPa) = 0.02824176
#
# Stress axis : x y z
#
# Youngs Moduli (GPa) = 70.83836 70.07160 67.00568
#
# Poissons Ratio (x) = 0.20538 0.08056
# Poissons Ratio (y) = 0.20763 0.22794
# Poissons Ratio (z) = 0.08517 0.23837
#
# Static dielectric constant tensor:
#      x y z
#    x 1.796440 0.000000 0.000000 
#    y 0.000000 1.785040 0.000000 
#    z 0.000000 0.000000 1.797430 
# 
# From -- ./inp_files/31163.got.cif
#   From: 2010.05.17/outbox.cif.g08.bks.cpg/sg20_16_cif.got.tgz:31163.got - 2010.06.03 22:52:26.
