data_PCOD9321617
_publ_section_title
;
Structure prediction by ZEFSAII (Michael W. Deem and Ramdas Pophale) SiO2 
 PCOD9321617
Probable space group: C 2 2 21
;
_chemical_formula_sum "Si O2"
_cell_formula_units_Z 64
_cell_length_a 18.928867
_cell_length_b 6.297923
_cell_length_c 26.126704
_cell_angle_alpha 90.000000
_cell_angle_beta 90.000000
_cell_angle_gamma 90.000000
_cell_volume 3114.630924
_symmetry_space_group_name_H-M "C 2 2 21"
_symmetry_group_IT_number 20
_symmetry_cell_setting 'orthorhombic'
loop_
_space_group_symop_operation_xyz
x,y,z
-x,-y,1/2+z
x,-y,-z
-x,y,1/2-z
1/2+x,1/2+y,z
1/2-x,1/2-y,1/2+z
1/2+x,1/2-y,-z
1/2-x,1/2+y,1/2-z
loop_
_atom_site_type_symbol
_atom_site_label
_atom_site_fract_x
_atom_site_fract_y
_atom_site_fract_z
Si Si1 0.926277 0.844166 0.542337
Si Si2 0.573986 0.353278 0.139327
Si Si3 0.178318 0.136940 0.195565
Si Si4 0.170316 0.465871 0.101308
Si Si5 0.573987 0.146715 0.360673
Si Si6 0.170317 0.034123 0.398694
Si Si7 0.821680 0.363052 0.195564
Si Si8 0.073724 0.655840 0.542337
O O1 0.874961 0.657094 0.559105
O O2 0.000001 0.750004 0.522376
O O3 0.894905 0.000000 0.500000
O O4 0.941358 0.982426 0.593183
O O5 0.613151 0.480617 0.184096
O O6 0.500000 0.249994 0.154763
O O7 0.628459 0.176653 0.118059
O O8 0.176966 0.313279 0.151000
O O9 0.174160 0.249996 0.250001
O O10 0.249999 0.999994 0.192261
O O11 0.250000 0.499995 0.083224
O O12 0.628458 0.323343 0.381943
O O13 0.613154 0.019380 0.315904
O O14 0.558643 0.982416 0.406816
O O15 0.176967 0.186714 0.349001
O O16 0.125041 0.157090 0.440897
O O17 0.105095 0.500000 0.500000
#
# Coordination Sequence:
#
# PCOD9321617 Si02
#       8
#     8   8   8   8   8   8   8   8
#     4  11  24  41  72  99 129 181 231 271 334 415
#     4  11  23  44  69  98 137 176 219 281 339 397
#     4  11  24  41  72  99 129 181 231 271 334 415
#     4  11  23  44  69  98 137 176 219 281 339 397
#     4  11  23  44  69  98 137 176 219 281 339 397
#     4  11  23  44  69  98 137 176 219 281 339 397
#     4  11  24  41  72  99 129 181 231 271 334 415
#     4  11  24  41  72  99 129 181 231 271 334 415
#
# _framework density 20.548182000000001
#
# number of rings (size 3 to 8) (size 9 to 14) (size 15 to 20)
#    0.000    1.000    5.000    1.500    0.000    0.000 
#    0.000    7.500    0.000    0.000    0.000    0.000 
#    0.000    0.000    0.000    0.000    0.000    0.000 
#
# Total GULP energy -179089.200739 kJ/mol
# GULP energy per Si atom -5596.537523 kJ/mol
# Density = 2.050141 g / cm^3
# Si number density = 20.548182 Si / 1000 Ang^3
#
#
#
# Elastic Constant Matrix: (Units=GPa)
#
#
# Indices 1 2 3 4 5 6 
#
# 1 103.3049 16.0768 -12.5208 0.0000 0.0000 0.0000
# 2 16.0768 72.7466 -8.1873 0.0000 0.0000 0.0000
# 3 -12.5208 -8.1873 36.1787 0.0000 0.0000 0.0000
# 4 0.0000 0.0000 0.0000 44.2998 0.0000 0.0000
# 5 0.0000 0.0000 0.0000 0.0000 13.1449 0.0000
# 6 0.0000 0.0000 0.0000 0.0000 0.0000 42.9839
#
#
#
# Elastic Compliance Matrix: (Units=1/GPa)
#
#
# Indices 1 2 3 4 5 6 
#
# 1 0.010363 -0.001936 0.003148 0.000000 0.000000 0.000000
# 2 -0.001936 0.014467 0.002604 0.000000 0.000000 0.000000
# 3 0.003148 0.002604 0.029319 0.000000 0.000000 0.000000
# 4 0.000000 0.000000 0.000000 0.022573 0.000000 0.000000
# 5 0.000000 0.000000 0.000000 0.000000 0.076075 0.000000
# 6 0.000000 0.000000 0.000000 0.000000 0.000000 0.023265
#
#
# Mechanical properties :
#
#
# Convention : Reuss Voigt Hill
#
# Bulk Modulus (GPa) = 16.18581 22.55197 19.36889
# Shear Modulus (GPa) = 26.45171 34.54316 30.49744
#
# Velocity S-wave (km/s) = 3.59179 4.10455 3.85670
# Velocity P-wave (km/s) = 5.00953 5.78464 5.41098
#
# Compressibility (1/GPa) = 0.06178250
#
# Stress axis : x y z
#
# Youngs Moduli (GPa) = 96.49783 69.12177 34.10711
#
# Poissons Ratio (x) = 0.13381 -0.10738
# Poissons Ratio (y) = 0.18680 -0.08881
# Poissons Ratio (z) = -0.30381 -0.17999
#
# Static dielectric constant tensor:
#      x y z
#    x 1.700960 0.000000 0.000000 
#    y 0.000000 1.741120 0.000000 
#    z 0.000000 0.000000 1.700400 
# 
# From -- ./inp_files/31376.got.cif
#   From: 2010.05.17/outbox.cif.g08.bks.cpg/sg20_16_cif.got.tgz:31376.got - 2010.06.03 22:52:26.
