data_PCOD9321941
_publ_section_title
;
Structure prediction by ZEFSAII (Michael W. Deem and Ramdas Pophale) SiO2 
 PCOD9321941
Probable space group: C 2 2 21
;
_chemical_formula_sum "Si O2"
_cell_formula_units_Z 40
_cell_length_a 29.721334
_cell_length_b 11.794697
_cell_length_c 4.970767
_cell_angle_alpha 90.000000
_cell_angle_beta 90.000000
_cell_angle_gamma 90.000000
_cell_volume 1742.522896
_symmetry_space_group_name_H-M "C 2 2 21"
_symmetry_group_IT_number 20
_symmetry_cell_setting 'orthorhombic'
loop_
_space_group_symop_operation_xyz
x,y,z
-x,-y,1/2+z
x,-y,-z
-x,y,1/2-z
1/2+x,1/2+y,z
1/2-x,1/2-y,1/2+z
1/2+x,1/2-y,-z
1/2-x,1/2+y,1/2-z
loop_
_atom_site_type_symbol
_atom_site_label
_atom_site_fract_x
_atom_site_fract_y
_atom_site_fract_z
Si Si1 0.215684 0.000000 0.000000
Si Si2 0.625038 0.748120 0.557111
Si Si3 0.347687 0.500000 0.000000
Si Si4 0.428725 0.244618 0.549157
Si Si5 0.000000 0.418837 0.750000
Si Si6 0.728206 0.202825 0.525991
Si Si7 0.032948 0.000000 0.000000
O O1 0.249500 0.911215 0.131547
O O2 0.182187 0.030792 0.241520
O O3 0.624313 0.611563 0.557121
O O4 0.614452 0.779348 0.861653
O O5 0.674878 0.786421 0.473737
O O6 0.586383 0.785634 0.350579
O O7 0.466369 0.165983 0.411692
O O8 0.441157 0.379338 0.539159
O O9 0.016701 0.500000 0.500000
O O10 0.747239 0.209240 0.223230
O O11 0.000000 0.983289 0.250000
#
# Coordination Sequence:
#
# PCOD9321941 Si02
#       7
#     4   8   4   8   4   8   4
#     4  12  22  41  66  92 135 196 235 270 350 415
#     4  12  24  42  69 106 141 176 238 297 348 414
#     4  12  22  39  70 100 143 184 221 284 358 427
#     4  12  26  47  74 108 141 181 234 299 364 429
#     4  12  28  54  80  98 142 200 240 284 352 438
#     4  12  23  43  66  94 136 187 231 283 332 406
#     4  12  24  44  78 108 150 180 218 300 382 446
#
# _framework density 22.955221999999999
#
# number of rings (size 3 to 8) (size 9 to 14) (size 15 to 20)
#    0.000    0.000    5.000    6.000    1.400    0.000 
#    5.400    0.000    0.000    0.000    0.000    0.000 
#    0.000    0.000    0.000    0.000    0.000    0.000 
#
# Total GULP energy -111670.892241 kJ/mol
# GULP energy per Si atom -5583.544612 kJ/mol
# Density = 2.290297 g / cm^3
# Si number density = 22.955222 Si / 1000 Ang^3
#
#
#
# Elastic Constant Matrix: (Units=GPa)
#
#
# Indices 1 2 3 4 5 6 
#
# 1 76.1087 12.9405 13.2165 0.0000 0.0000 0.0000
# 2 12.9405 54.5570 0.7520 0.0000 0.0000 0.0000
# 3 13.2165 0.7520 103.5653 0.0000 0.0000 0.0000
# 4 0.0000 0.0000 0.0000 27.6522 0.0000 0.0000
# 5 0.0000 0.0000 0.0000 0.0000 57.8247 0.0000
# 6 0.0000 0.0000 0.0000 0.0000 0.0000 17.8932
#
#
#
# Elastic Compliance Matrix: (Units=1/GPa)
#
#
# Indices 1 2 3 4 5 6 
#
# 1 0.014006 -0.003298 -0.001763 0.000000 0.000000 0.000000
# 2 -0.003298 0.019108 0.000282 0.000000 0.000000 0.000000
# 3 -0.001763 0.000282 0.009879 0.000000 0.000000 0.000000
# 4 0.000000 0.000000 0.000000 0.036164 0.000000 0.000000
# 5 0.000000 0.000000 0.000000 0.000000 0.017294 0.000000
# 6 0.000000 0.000000 0.000000 0.000000 0.000000 0.055887
#
#
# Mechanical properties :
#
#
# Convention : Reuss Voigt Hill
#
# Bulk Modulus (GPa) = 29.90943 32.00544 30.95744
# Shear Modulus (GPa) = 28.89508 34.49549 31.69529
#
# Velocity S-wave (km/s) = 3.55175 3.88071 3.71987
# Velocity P-wave (km/s) = 5.46604 5.83547 5.65378
#
# Compressibility (1/GPa) = 0.03343427
#
# Stress axis : x y z
#
# Youngs Moduli (GPa) = 71.39770 52.33468 101.22757
#
# Poissons Ratio (x) = 0.17259 0.17851
# Poissons Ratio (y) = 0.23546 -0.02856
# Poissons Ratio (z) = 0.12591 -0.01476
#
# Static dielectric constant tensor:
#      x y z
#    x 1.822940 0.000000 0.000000 
#    y 0.000000 1.928380 0.000000 
#    z 0.000000 0.000000 1.545640 
# 
# From -- ./inp_files/4129.got.cif
#   From: 2010.05.17/outbox.cif.g08.bks.cpg/sg20_3_cif.got.tgz:4129.got - 2010.06.03 22:52:26.
