data_PCOD9321925
_publ_section_title
;
Structure prediction by ZEFSAII (Michael W. Deem and Ramdas Pophale) SiO2 
 PCOD9321925
Probable space group: C 2 2 21
;
_chemical_formula_sum "Si O2"
_cell_formula_units_Z 44
_cell_length_a 28.846588
_cell_length_b 7.769525
_cell_length_c 8.831755
_cell_angle_alpha 90.000000
_cell_angle_beta 90.000000
_cell_angle_gamma 90.000000
_cell_volume 1979.410789
_symmetry_space_group_name_H-M "C 2 2 21"
_symmetry_group_IT_number 20
_symmetry_cell_setting 'orthorhombic'
loop_
_space_group_symop_operation_xyz
x,y,z
-x,-y,1/2+z
x,-y,-z
-x,y,1/2-z
1/2+x,1/2+y,z
1/2-x,1/2-y,1/2+z
1/2+x,1/2-y,-z
1/2-x,1/2+y,1/2-z
loop_
_atom_site_type_symbol
_atom_site_label
_atom_site_fract_x
_atom_site_fract_y
_atom_site_fract_z
Si Si1 0.600411 0.573239 0.166280
Si Si2 0.449508 0.937773 0.322207
Si Si3 0.796301 0.319524 0.953606
Si Si4 0.380276 0.221100 0.254520
Si Si5 0.330335 0.000000 0.500000
Si Si6 0.703082 0.285846 0.787934
O O1 0.571302 0.745358 0.190694
O O2 0.591593 0.398788 0.259511
O O3 0.654802 0.617773 0.186312
O O4 0.592165 0.500000 0.000000
O O5 0.500000 0.944820 0.250000
O O6 0.450752 0.000000 0.500000
O O7 0.415204 0.063593 0.228052
O O8 0.787951 0.220236 0.109237
O O9 0.818440 0.500000 0.000000
O O10 0.834568 0.243281 0.843923
O O11 0.747954 0.357465 0.871641
O O12 0.359154 0.152423 0.416554
O O13 0.303513 0.097235 0.634237
#
# Coordination Sequence:
#
# PCOD9321925 Si02
#       6
#     8   8   8   8   4   8
#     4  12  23  46  78 102 143 193 246 302 373 428
#     4  12  26  49  78 110 146 190 241 304 379 455
#     4  12  27  43  67 104 154 199 253 301 369 437
#     4  12  24  47  75 101 145 197 242 308 368 438
#     4  12  20  44  72  96 142 194 246 298 366 428
#     4  12  26  41  68 106 145 198 250 303 357 439
#
# _framework density 22.228836999999999
#
# number of rings (size 3 to 8) (size 9 to 14) (size 15 to 20)
#    0.000    0.000    8.182    1.636    2.545    3.636 
#    0.000    0.000    0.000    0.000    0.000    0.000 
#    0.000    0.000    0.000    0.000    0.000    0.000 
#
# Total GULP energy -122845.476527 kJ/mol
# GULP energy per Si atom -5583.885297 kJ/mol
# Density = 2.217824 g / cm^3
# Si number density = 22.228837 Si / 1000 Ang^3
#
#
#
# Elastic Constant Matrix: (Units=GPa)
#
#
# Indices 1 2 3 4 5 6 
#
# 1 105.8134 22.1669 47.8694 0.0000 0.0000 0.0000
# 2 22.1669 136.1697 25.4858 0.0000 0.0000 0.0000
# 3 47.8694 25.4858 94.4343 0.0000 0.0000 0.0000
# 4 0.0000 0.0000 0.0000 18.6614 0.0000 0.0000
# 5 0.0000 0.0000 0.0000 0.0000 28.0361 0.0000
# 6 0.0000 0.0000 0.0000 0.0000 0.0000 20.9929
#
#
#
# Elastic Compliance Matrix: (Units=1/GPa)
#
#
# Indices 1 2 3 4 5 6 
#
# 1 0.012363 -0.000884 -0.006028 0.000000 0.000000 0.000000
# 2 -0.000884 0.007798 -0.001656 0.000000 0.000000 0.000000
# 3 -0.006028 -0.001656 0.014092 0.000000 0.000000 0.000000
# 4 0.000000 0.000000 0.000000 0.053586 0.000000 0.000000
# 5 0.000000 0.000000 0.000000 0.000000 0.035668 0.000000
# 6 0.000000 0.000000 0.000000 0.000000 0.000000 0.047635
#
#
# Mechanical properties :
#
#
# Convention : Reuss Voigt Hill
#
# Bulk Modulus (GPa) = 58.42700 58.60684 58.51692
# Shear Modulus (GPa) = 25.77515 29.59777 27.68646
#
# Velocity S-wave (km/s) = 3.40889 3.65294 3.53302
# Velocity P-wave (km/s) = 6.46803 6.64939 6.55934
#
# Compressibility (1/GPa) = 0.01711537
#
# Stress axis : x y z
#
# Youngs Moduli (GPa) = 80.88665 128.24283 70.96185
#
# Poissons Ratio (x) = 0.11341 0.42777
# Poissons Ratio (y) = 0.07153 0.11752
# Poissons Ratio (z) = 0.48760 0.21239
#
# Static dielectric constant tensor:
#      x y z
#    x 1.778400 0.000000 0.000000 
#    y 0.000000 1.896690 0.000000 
#    z 0.000000 0.000000 1.904190 
# 
# From -- ./inp_files/11366.got.cif
#   From: 2010.05.17/outbox.cif.g08.bks.cpg/sg20_6_cif.got.tgz:11366.got - 2010.06.03 22:52:26.
