data_PCOD9321318
_publ_section_title
;
Structure prediction by ZEFSAII (Michael W. Deem and Ramdas Pophale) SiO2 
 PCOD9321318
Probable space group: C 2 2 21
;
_chemical_formula_sum "Si O2"
_cell_formula_units_Z 64
_cell_length_a 9.300976
_cell_length_b 16.973184
_cell_length_c 21.513096
_cell_angle_alpha 90.000000
_cell_angle_beta 90.000000
_cell_angle_gamma 90.000000
_cell_volume 3396.211735
_symmetry_space_group_name_H-M "C 2 2 21"
_symmetry_group_IT_number 20
_symmetry_cell_setting 'orthorhombic'
loop_
_space_group_symop_operation_xyz
x,y,z
-x,-y,1/2+z
x,-y,-z
-x,y,1/2-z
1/2+x,1/2+y,z
1/2-x,1/2-y,1/2+z
1/2+x,1/2-y,-z
1/2-x,1/2+y,1/2-z
loop_
_atom_site_type_symbol
_atom_site_label
_atom_site_fract_x
_atom_site_fract_y
_atom_site_fract_z
Si Si1 0.329341 0.804667 0.241833
Si Si2 0.055390 0.000870 0.650846
Si Si3 0.042682 0.843864 0.569625
Si Si4 0.268514 0.736859 0.373266
Si Si5 0.815196 0.714101 0.370604
Si Si6 0.460783 0.661087 0.926561
Si Si7 0.049847 0.382336 0.684281
Si Si8 0.739615 0.516546 0.772691
O O1 0.500000 0.797374 0.250000
O O2 0.270040 0.787219 0.310186
O O3 0.267111 0.743420 0.191548
O O4 0.284103 0.892433 0.222821
O O5 0.061024 0.080936 0.611371
O O6 0.181886 0.998777 0.702797
O O7 0.901322 0.000504 0.685815
O O8 0.058206 0.925893 0.606089
O O9 0.195410 0.801558 0.578046
O O10 0.001570 0.854954 0.497954
O O11 0.922154 0.791491 0.603614
O O12 0.185110 0.788072 0.423688
O O13 0.174672 0.661866 0.353045
O O14 0.922239 0.783385 0.392391
O O15 0.908559 0.635181 0.356921
O O16 0.125383 0.463770 0.704987
O O17 0.000000 0.344255 0.750000
#
# Coordination Sequence:
#
# PCOD9321318 Si02
#       8
#     8   8   8   8   8   8   8   8
#     4  12  22  38  65  94 133 161 205 270 329 386
#     4  11  23  39  67  94 124 169 220 259 321 383
#     4  12  24  43  63  95 130 168 221 268 308 388
#     4  11  23  39  65  95 123 165 214 264 321 376
#     4  11  24  39  67  96 123 168 217 264 330 383
#     4  11  24  44  65  89 128 180 217 260 315 392
#     4  11  21  37  61  92 127 159 199 256 329 377
#     4  11  23  39  62  98 130 163 204 269 329 386
#
# _framework density 18.844525000000001
#
# number of rings (size 3 to 8) (size 9 to 14) (size 15 to 20)
#    0.000    0.750    6.250    2.250    0.000    0.000 
#    0.000    0.000    0.000    0.000    3.250    0.000 
#    0.000    0.000    0.000    0.000    0.000    0.000 
#
# Total GULP energy -178615.492653 kJ/mol
# GULP energy per Si atom -5581.734145 kJ/mol
# Density = 1.880163 g / cm^3
# Si number density = 18.844525 Si / 1000 Ang^3
#
#
#
# Elastic Constant Matrix: (Units=GPa)
#
#
# Indices 1 2 3 4 5 6 
#
# 1 92.3362 35.7516 9.2920 0.0000 0.0000 0.0000
# 2 35.7516 99.3196 26.0733 0.0000 0.0000 0.0000
# 3 9.2920 26.0733 84.5173 0.0000 0.0000 0.0000
# 4 0.0000 0.0000 0.0000 18.8853 0.0000 0.0000
# 5 0.0000 0.0000 0.0000 0.0000 23.1392 0.0000
# 6 0.0000 0.0000 0.0000 0.0000 0.0000 26.7992
#
#
#
# Elastic Compliance Matrix: (Units=1/GPa)
#
#
# Indices 1 2 3 4 5 6 
#
# 1 0.012584 -0.004534 0.000015 0.000000 0.000000 0.000000
# 2 -0.004534 0.012589 -0.003385 0.000000 0.000000 0.000000
# 3 0.000015 -0.003385 0.012875 0.000000 0.000000 0.000000
# 4 0.000000 0.000000 0.000000 0.052951 0.000000 0.000000
# 5 0.000000 0.000000 0.000000 0.000000 0.043217 0.000000
# 6 0.000000 0.000000 0.000000 0.000000 0.000000 0.037315
#
#
# Mechanical properties :
#
#
# Convention : Reuss Voigt Hill
#
# Bulk Modulus (GPa) = 44.96420 46.48965 45.72692
# Shear Modulus (GPa) = 25.67379 27.43515 26.55447
#
# Velocity S-wave (km/s) = 3.69508 3.81972 3.75792
# Velocity P-wave (km/s) = 6.48978 6.64661 6.56866
#
# Compressibility (1/GPa) = 0.02223992
#
# Stress axis : x y z
#
# Youngs Moduli (GPa) = 79.46680 79.43326 77.67245
#
# Poissons Ratio (x) = 0.36013 -0.00118
# Poissons Ratio (y) = 0.36028 0.26294
# Poissons Ratio (z) = -0.00120 0.26890
#
# Static dielectric constant tensor:
#      x y z
#    x 1.657420 0.000000 0.000000 
#    y 0.000000 1.641360 0.000000 
#    z 0.000000 0.000000 1.645960 
# 
# From -- ./inp_files/26870.got.cif
#   From: 2010.05.17/outbox.cif.g08.bks.cpg/sg20_14_cif.got.tgz:26870.got - 2010.06.03 22:52:26.
