data_PCOD9321833
_publ_section_title
;
Structure prediction by ZEFSAII (Michael W. Deem and Ramdas Pophale) SiO2 
 PCOD9321833
Probable space group: C 2 2 21
;
_chemical_formula_sum "Si O2"
_cell_formula_units_Z 36
_cell_length_a 12.448139
_cell_length_b 22.264896
_cell_length_c 5.403370
_cell_angle_alpha 90.000000
_cell_angle_beta 90.000000
_cell_angle_gamma 90.000000
_cell_volume 1497.579227
_symmetry_space_group_name_H-M "C 2 2 21"
_symmetry_group_IT_number 20
_symmetry_cell_setting 'orthorhombic'
loop_
_space_group_symop_operation_xyz
x,y,z
-x,-y,1/2+z
x,-y,-z
-x,y,1/2-z
1/2+x,1/2+y,z
1/2-x,1/2-y,1/2+z
1/2+x,1/2-y,-z
1/2-x,1/2+y,1/2-z
loop_
_atom_site_type_symbol
_atom_site_label
_atom_site_fract_x
_atom_site_fract_y
_atom_site_fract_z
Si Si1 0.722436 0.101845 0.425811
Si Si2 0.441025 0.000000 0.000000
Si Si3 0.884620 0.957684 0.204699
Si Si4 0.606484 0.662183 0.418204
Si Si5 0.930576 0.705159 0.999846
O O1 0.810151 0.061736 0.569695
O O2 0.787447 0.138974 0.221140
O O3 0.659949 0.155894 0.558322
O O4 0.629638 0.053360 0.378134
O O5 0.500000 0.975513 0.250000
O O6 0.000000 0.988648 0.250000
O O7 0.912436 0.893112 0.096036
O O8 0.828019 0.000000 0.000000
O O9 0.500000 0.664855 0.250000
O O10 0.617650 0.727835 0.536560
O O11 0.000000 0.707138 0.750000
O O12 0.000000 0.690775 0.250000
#
# Coordination Sequence:
#
# PCOD9321833 Si02
#       5
#     8   4   8   8   8
#     4  12  28  47  79 111 151 217 258 325 397 478
#     4  12  30  54  76 108 154 204 270 330 380 466
#     4  12  26  44  72 109 157 198 257 332 403 475
#     4  11  25  45  73 110 156 201 256 323 392 471
#     4  11  28  50  77 113 162 210 268 323 384 467
#
# _framework density 24.038796000000001
#
# number of rings (size 3 to 8) (size 9 to 14) (size 15 to 20)
#    0.000    0.444    2.222    4.000   15.556    0.000 
#    0.000    0.000    0.000    0.000    0.000    0.000 
#    0.000    0.000    0.000    0.000    0.000    0.000 
#
# Total GULP energy -100503.925290 kJ/mol
# GULP energy per Si atom -5583.551405 kJ/mol
# Density = 2.398408 g / cm^3
# Si number density = 24.038796 Si / 1000 Ang^3
#
#
#
# Elastic Constant Matrix: (Units=GPa)
#
#
# Indices 1 2 3 4 5 6 
#
# 1 84.8525 27.6553 31.9680 0.0000 0.0000 0.0000
# 2 27.6553 133.0970 -0.2123 0.0000 0.0000 0.0000
# 3 31.9680 -0.2123 89.0447 0.0000 0.0000 0.0000
# 4 0.0000 0.0000 0.0000 -7.6711 0.0000 0.0000
# 5 0.0000 0.0000 0.0000 0.0000 35.8424 0.0000
# 6 0.0000 0.0000 0.0000 0.0000 0.0000 37.0344
#
#
#
# Elastic Compliance Matrix: (Units=1/GPa)
#
#
# Indices 1 2 3 4 5 6 
#
# 1 0.014793 -0.003082 -0.005318 0.000000 0.000000 0.000000
# 2 -0.003082 0.008156 0.001126 0.000000 0.000000 0.000000
# 3 -0.005318 0.001126 0.013142 0.000000 0.000000 0.000000
# 4 0.000000 0.000000 0.000000 -0.130359 0.000000 0.000000
# 5 0.000000 0.000000 0.000000 0.000000 0.027900 0.000000
# 6 0.000000 0.000000 0.000000 0.000000 0.000000 0.027002
#
#
# Mechanical properties :
#
#
# Convention : Reuss Voigt Hill
#
# Bulk Modulus (GPa) = 46.42077 47.31291 46.86684
# Shear Modulus (GPa) = -283.51127 29.54669 -126.98229
#
# Velocity S-wave (km/s) = -10.87176 3.50969 -7.27589
# Velocity P-wave (km/s) = 11.75758 6.01237 7.14466
#
# Compressibility (1/GPa) = 0.02154208
#
# Stress axis : x y z
#
# Youngs Moduli (GPa) = 67.59766 122.61562 76.08993
#
# Poissons Ratio (x) = 0.37794 0.40467
# Poissons Ratio (y) = 0.20836 -0.08568
# Poissons Ratio (z) = 0.35951 -0.13807
#
# Static dielectric constant tensor:
#      x y z
#    x 2.168070 0.000000 0.000000 
#    y 0.000000 1.896780 0.000000 
#    z 0.000000 0.000000 2.010680 
# 
# From -- ./inp_files/1184.got.cif
#   From: 2010.05.17/outbox.cif.g08.bks.cpg/sg20_1_cif.got.tgz:1184.got - 2010.06.03 22:52:26.
