data_PCOD9321725
_publ_section_title
;
Structure prediction by ZEFSAII (Michael W. Deem and Ramdas Pophale) SiO2 
 PCOD9321725
Probable space group: C 2 2 21
;
_chemical_formula_sum "Si O2"
_cell_formula_units_Z 32
_cell_length_a 14.073135
_cell_length_b 4.894151
_cell_length_c 18.153543
_cell_angle_alpha 90.000000
_cell_angle_beta 90.000000
_cell_angle_gamma 90.000000
_cell_volume 1250.344294
_symmetry_space_group_name_H-M "C 2 2 21"
_symmetry_group_IT_number 20
_symmetry_cell_setting 'orthorhombic'
loop_
_space_group_symop_operation_xyz
x,y,z
-x,-y,1/2+z
x,-y,-z
-x,y,1/2-z
1/2+x,1/2+y,z
1/2-x,1/2-y,1/2+z
1/2+x,1/2-y,-z
1/2-x,1/2+y,1/2-z
loop_
_atom_site_type_symbol
_atom_site_label
_atom_site_fract_x
_atom_site_fract_y
_atom_site_fract_z
Si Si1 0.314962 0.521142 0.730939
Si Si2 0.128631 0.115128 0.080523
Si Si3 0.158300 0.688920 0.429310
Si Si4 0.932733 0.801462 0.859428
O O1 0.250778 0.752507 0.767067
O O2 0.346720 0.593245 0.647789
O O3 0.404333 0.439052 0.781974
O O4 0.229988 0.260501 0.068722
O O5 0.039902 0.270189 0.116795
O O6 0.103505 0.000000 0.000000
O O7 0.137451 0.500000 0.500000
O O8 0.128028 0.472658 0.366707
O O9 0.101261 0.964541 0.416482
#
# Coordination Sequence:
#
# PCOD9321725 Si02
#       4
#     8   8   8   8
#     4  12  24  48  71  99 140 186 229 284 344 409
#     4  11  25  45  73 106 140 183 232 287 349 410
#     4  11  24  43  68 103 143 179 227 288 342 408
#     4  12  24  46  72 100 139 183 234 281 348 410
#
# _framework density 25.592952
#
# number of rings (size 3 to 8) (size 9 to 14) (size 15 to 20)
#    0.000    0.500    5.000    3.000    0.000    4.000 
#    0.000   11.250    0.000    0.000    0.000    0.000 
#    0.000    0.000    0.000    0.000    0.000    0.000 
#
# Total GULP energy -89432.228768 kJ/mol
# GULP energy per Si atom -5589.514298 kJ/mol
# Density = 2.553470 g / cm^3
# Si number density = 25.592952 Si / 1000 Ang^3
#
#
#
# Elastic Constant Matrix: (Units=GPa)
#
#
# Indices 1 2 3 4 5 6 
#
# 1 135.4786 31.9553 12.4151 0.0000 0.0000 0.0000
# 2 31.9553 110.9759 3.0076 0.0000 0.0000 0.0000
# 3 12.4151 3.0076 165.7408 0.0000 0.0000 0.0000
# 4 0.0000 0.0000 0.0000 24.8838 0.0000 0.0000
# 5 0.0000 0.0000 0.0000 0.0000 40.9065 0.0000
# 6 0.0000 0.0000 0.0000 0.0000 0.0000 12.6250
#
#
#
# Elastic Compliance Matrix: (Units=1/GPa)
#
#
# Indices 1 2 3 4 5 6 
#
# 1 0.007970 -0.002280 -0.000556 0.000000 0.000000 0.000000
# 2 -0.002280 0.009668 -0.000005 0.000000 0.000000 0.000000
# 3 -0.000556 -0.000005 0.006075 0.000000 0.000000 0.000000
# 4 0.000000 0.000000 0.000000 0.040187 0.000000 0.000000
# 5 0.000000 0.000000 0.000000 0.000000 0.024446 0.000000
# 6 0.000000 0.000000 0.000000 0.000000 0.000000 0.079208
#
#
# Mechanical properties :
#
#
# Convention : Reuss Voigt Hill
#
# Bulk Modulus (GPa) = 55.45571 56.32794 55.89183
# Shear Modulus (GPa) = 27.89486 40.00420 33.94953
#
# Velocity S-wave (km/s) = 3.30501 3.95789 3.64609
# Velocity P-wave (km/s) = 6.02325 6.55312 6.29377
#
# Compressibility (1/GPa) = 0.01803241
#
# Stress axis : x y z
#
# Youngs Moduli (GPa) = 125.47199 103.43861 164.60299
#
# Poissons Ratio (x) = 0.23583 0.09146
# Poissons Ratio (y) = 0.28606 0.00077
# Poissons Ratio (z) = 0.06972 0.00048
#
# Static dielectric constant tensor:
#      x y z
#    x 2.030910 0.000000 0.000000 
#    y 0.000000 1.923380 0.000000 
#    z 0.000000 0.000000 2.170510 
# 
# From -- ./inp_files/22492.got.cif
#   From: 2010.05.17/outbox.cif.g08.bks.cpg/sg20_12_cif.got.tgz:22492.got - 2010.06.03 22:52:26.
