data_PCOD9321649
_publ_section_title
;
Structure prediction by ZEFSAII (Michael W. Deem and Ramdas Pophale) SiO2 
 PCOD9321649
Probable space group: C 2 2 21
;
_chemical_formula_sum "Si O2"
_cell_formula_units_Z 60
_cell_length_a 18.104093
_cell_length_b 5.297398
_cell_length_c 23.769062
_cell_angle_alpha 90.000000
_cell_angle_beta 90.000000
_cell_angle_gamma 90.000000
_cell_volume 2279.562052
_symmetry_space_group_name_H-M "C 2 2 21"
_symmetry_group_IT_number 20
_symmetry_cell_setting 'orthorhombic'
loop_
_space_group_symop_operation_xyz
x,y,z
-x,-y,1/2+z
x,-y,-z
-x,y,1/2-z
1/2+x,1/2+y,z
1/2-x,1/2-y,1/2+z
1/2+x,1/2-y,-z
1/2-x,1/2+y,1/2-z
loop_
_atom_site_type_symbol
_atom_site_label
_atom_site_fract_x
_atom_site_fract_y
_atom_site_fract_z
Si Si1 0.031693 0.500000 0.500000
Si Si2 0.095435 0.789453 0.037023
Si Si3 0.977822 0.963396 0.884349
Si Si4 0.138006 0.609532 0.580916
Si Si5 0.839860 0.223135 0.833754
Si Si6 0.652561 0.353413 0.208238
Si Si7 0.441590 0.854250 0.299324
Si Si8 0.227596 0.630169 0.100052
O O1 0.089662 0.409446 0.547026
O O2 0.968855 0.289163 0.493383
O O3 0.153954 0.592523 0.063354
O O4 0.044949 0.879977 0.089613
O O5 0.136493 0.000000 0.000000
O O6 0.916538 0.844624 0.925139
O O7 0.015760 0.719311 0.855911
O O8 0.922146 0.100833 0.840181
O O9 0.147542 0.506183 0.643915
O O10 0.217524 0.699025 0.562884
O O11 0.813537 0.192313 0.770070
O O12 0.778792 0.094539 0.875144
O O13 0.620995 0.636865 0.205701
O O14 0.702920 0.290072 0.154851
O O15 0.590123 0.134837 0.203980
O O16 0.500000 0.819360 0.250000
#
# Coordination Sequence:
#
# PCOD9321649 Si02
#       8
#     4   8   8   8   8   8   8   8
#     4  12  26  46  86 106 146 206 268 340 404 494
#     4  12  26  49  76 116 152 202 270 344 414 471
#     4  11  23  45  74 110 152 200 263 332 396 475
#     4  11  26  48  75 108 149 206 257 326 402 491
#     4  11  26  48  75 109 160 208 263 320 407 497
#     4  12  28  45  78 116 158 217 263 328 402 488
#     4  12  25  43  75 114 160 204 267 330 395 473
#     4  11  30  48  75 113 161 210 261 334 409 498
#
# _framework density 26.320846
#
# number of rings (size 3 to 8) (size 9 to 14) (size 15 to 20)
#    0.000    0.533    5.333    1.200   10.267    1.067 
#    0.000    0.000    0.000    0.000    0.000    0.000 
#    0.000    0.000    0.000    0.000    0.000    0.000 
#
# Total GULP energy -167536.483651 kJ/mol
# GULP energy per Si atom -5584.549455 kJ/mol
# Density = 2.626094 g / cm^3
# Si number density = 26.320846 Si / 1000 Ang^3
#
#
#
# Elastic Constant Matrix: (Units=GPa)
#
#
# Indices 1 2 3 4 5 6 
#
# 1 158.1028 31.9636 51.2229 0.0000 0.0000 0.0000
# 2 31.9636 67.1125 4.5411 0.0000 0.0000 0.0000
# 3 51.2229 4.5411 84.3241 0.0000 0.0000 0.0000
# 4 0.0000 0.0000 0.0000 30.3125 0.0000 0.0000
# 5 0.0000 0.0000 0.0000 0.0000 48.8983 0.0000
# 6 0.0000 0.0000 0.0000 0.0000 0.0000 29.3640
#
#
#
# Elastic Compliance Matrix: (Units=1/GPa)
#
#
# Indices 1 2 3 4 5 6 
#
# 1 0.008754 -0.003823 -0.005112 0.000000 0.000000 0.000000
# 2 -0.003823 0.016625 0.001427 0.000000 0.000000 0.000000
# 3 -0.005112 0.001427 0.014887 0.000000 0.000000 0.000000
# 4 0.000000 0.000000 0.000000 0.032990 0.000000 0.000000
# 5 0.000000 0.000000 0.000000 0.000000 0.020451 0.000000
# 6 0.000000 0.000000 0.000000 0.000000 0.000000 0.034055
#
#
# Mechanical properties :
#
#
# Convention : Reuss Voigt Hill
#
# Bulk Modulus (GPa) = 39.60357 53.88829 46.74593
# Shear Modulus (GPa) = 33.06998 36.50242 34.78620
#
# Velocity S-wave (km/s) = 3.54844 3.72805 3.63936
# Velocity P-wave (km/s) = 5.64515 6.24894 5.95470
#
# Compressibility (1/GPa) = 0.02525025
#
# Stress axis : x y z
#
# Youngs Moduli (GPa) = 114.23172 60.15126 67.17116
#
# Poissons Ratio (x) = 0.22998 0.34337
# Poissons Ratio (y) = 0.43676 -0.09587
# Poissons Ratio (z) = 0.58393 -0.08585
#
# Static dielectric constant tensor:
#      x y z
#    x 2.027700 0.000000 0.000000 
#    y 0.000000 2.361880 0.000000 
#    z 0.000000 0.000000 2.275210 
# 
# From -- ./inp_files/30521.got.cif
#   From: 2010.05.17/outbox.cif.g08.bks.cpg/sg20_16_cif.got.tgz:30521.got - 2010.06.03 22:52:26.
