data_PCOD9321458
_publ_section_title
;
Structure prediction by ZEFSAII (Michael W. Deem and Ramdas Pophale) SiO2 
 PCOD9321458
Probable space group: C 2 2 21
;
_chemical_formula_sum "Si O2"
_cell_formula_units_Z 64
_cell_length_a 11.450582
_cell_length_b 13.928400
_cell_length_c 16.922276
_cell_angle_alpha 90.000000
_cell_angle_beta 90.000000
_cell_angle_gamma 90.000000
_cell_volume 2698.904800
_symmetry_space_group_name_H-M "C 2 2 21"
_symmetry_group_IT_number 20
_symmetry_cell_setting 'orthorhombic'
loop_
_space_group_symop_operation_xyz
x,y,z
-x,-y,1/2+z
x,-y,-z
-x,y,1/2-z
1/2+x,1/2+y,z
1/2-x,1/2-y,1/2+z
1/2+x,1/2-y,-z
1/2-x,1/2+y,1/2-z
loop_
_atom_site_type_symbol
_atom_site_label
_atom_site_fract_x
_atom_site_fract_y
_atom_site_fract_z
Si Si1 0.321323 0.105596 0.032606
Si Si2 0.832831 0.727817 0.191698
Si Si3 0.195247 0.488560 0.092016
Si Si4 0.397170 0.281420 0.925296
Si Si5 0.081169 0.686752 0.820134
Si Si6 0.063652 0.941285 0.331348
Si Si7 0.434466 0.629858 0.533976
Si Si8 0.862158 0.315864 0.630987
O O1 0.341071 0.148583 0.121501
O O2 0.377861 0.184166 0.974744
O O3 0.181826 0.111348 0.015299
O O4 0.357468 0.000000 0.000000
O O5 0.697751 0.758025 0.205729
O O6 0.896389 0.828843 0.172078
O O7 0.879542 0.696332 0.276510
O O8 0.129145 0.391696 0.117738
O O9 0.314830 0.491428 0.144141
O O10 0.107669 0.576199 0.108782
O O11 0.223856 0.500000 0.000000
O O12 0.496102 0.261302 0.861936
O O13 0.274958 0.307491 0.888239
O O14 0.448794 0.360366 0.983421
O O15 0.000000 0.643932 0.750000
O O16 0.000000 0.968791 0.250000
O O17 0.963860 0.945992 0.398048
O O18 0.415026 0.732690 0.577029
#
# Coordination Sequence:
#
# PCOD9321458 Si02
#       8
#     8   8   8   8   8   8   8   8
#     4  11  26  40  64 103 138 168 225 294 331 395
#     4  11  22  44  67  95 135 175 220 280 346 400
#     4  11  26  45  68 101 140 175 227 292 346 406
#     4  11  22  41  68  93 131 183 227 262 340 420
#     4  11  23  44  70  96 132 182 228 278 338 415
#     4  11  23  44  70  96 132 182 228 278 338 415
#     4  11  22  41  68  93 131 183 227 262 340 420
#     4  11  24  41  65  98 133 171 223 281 342 406
#
# _framework density 23.713322999999999
#
# number of rings (size 3 to 8) (size 9 to 14) (size 15 to 20)
#    0.000    1.000    5.000    1.500    3.500    5.000 
#    4.500    0.000    0.000    0.000    0.000    0.000 
#    0.000    0.000    0.000    0.000    0.000    0.000 
#
# Total GULP energy -178974.240619 kJ/mol
# GULP energy per Si atom -5592.945019 kJ/mol
# Density = 2.365935 g / cm^3
# Si number density = 23.713323 Si / 1000 Ang^3
#
#
#
# Elastic Constant Matrix: (Units=GPa)
#
#
# Indices 1 2 3 4 5 6 
#
# 1 118.0369 -2.1144 31.6536 0.0000 0.0000 0.0000
# 2 -2.1144 94.1004 32.9010 0.0000 0.0000 0.0000
# 3 31.6536 32.9010 126.5209 0.0000 0.0000 0.0000
# 4 0.0000 0.0000 0.0000 27.0791 0.0000 0.0000
# 5 0.0000 0.0000 0.0000 0.0000 31.1496 0.0000
# 6 0.0000 0.0000 0.0000 0.0000 0.0000 21.1864
#
#
#
# Elastic Compliance Matrix: (Units=1/GPa)
#
#
# Indices 1 2 3 4 5 6 
#
# 1 0.009186 0.001111 -0.002587 0.000000 0.000000 0.000000
# 2 0.001111 0.011824 -0.003353 0.000000 0.000000 0.000000
# 3 -0.002587 -0.003353 0.009423 0.000000 0.000000 0.000000
# 4 0.000000 0.000000 0.000000 0.036929 0.000000 0.000000
# 5 0.000000 0.000000 0.000000 0.000000 0.032103 0.000000
# 6 0.000000 0.000000 0.000000 0.000000 0.000000 0.047200
#
#
# Mechanical properties :
#
#
# Convention : Reuss Voigt Hill
#
# Bulk Modulus (GPa) = 48.13473 51.50428 49.81950
# Shear Modulus (GPa) = 30.62837 34.29755 32.46296
#
# Velocity S-wave (km/s) = 3.59780 3.80720 3.70398
# Velocity P-wave (km/s) = 6.13201 6.41039 6.27274
#
# Compressibility (1/GPa) = 0.02077502
#
# Stress axis : x y z
#
# Youngs Moduli (GPa) = 108.86648 84.57271 106.12437
#
# Poissons Ratio (x) = -0.09395 0.27454
# Poissons Ratio (y) = -0.12094 0.35581
# Poissons Ratio (z) = 0.28163 0.28355
#
# Static dielectric constant tensor:
#      x y z
#    x 1.880520 0.000000 0.000000 
#    y 0.000000 1.916210 0.000000 
#    z 0.000000 0.000000 1.954540 
# 
# From -- ./inp_files/24451.got.cif
#   From: 2010.05.17/outbox.cif.g08.bks.cpg/sg20_13_cif.got.tgz:24451.got - 2010.06.03 22:52:26.
