data_PCOD9321231
_publ_section_title
;
Structure prediction by ZEFSAII (Michael W. Deem and Ramdas Pophale) SiO2 
 PCOD9321231
Probable space group: C 2 2 21
;
_chemical_formula_sum "Si O2"
_cell_formula_units_Z 32
_cell_length_a 5.208377
_cell_length_b 19.460155
_cell_length_c 15.458802
_cell_angle_alpha 90.000000
_cell_angle_beta 90.000000
_cell_angle_gamma 90.000000
_cell_volume 1566.839610
_symmetry_space_group_name_H-M "C 2 2 21"
_symmetry_group_IT_number 20
_symmetry_cell_setting 'orthorhombic'
loop_
_space_group_symop_operation_xyz
x,y,z
-x,-y,1/2+z
x,-y,-z
-x,y,1/2-z
1/2+x,1/2+y,z
1/2-x,1/2-y,1/2+z
1/2+x,1/2-y,-z
1/2-x,1/2+y,1/2-z
loop_
_atom_site_type_symbol
_atom_site_label
_atom_site_fract_x
_atom_site_fract_y
_atom_site_fract_z
Si Si1 0.337185 0.934244 0.560733
Si Si2 0.377973 0.213499 0.470522
Si Si3 0.251472 0.267760 0.772911
Si Si4 0.166245 0.913677 0.828238
O O1 0.415189 0.866039 0.507567
O O2 0.559380 0.939534 0.635561
O O3 0.048897 0.919150 0.596652
O O4 0.337807 0.000000 0.500000
O O5 0.151622 0.249093 0.524350
O O6 0.272190 0.214140 0.372508
O O7 0.769048 0.163092 0.288183
O O8 0.500000 0.226112 0.750000
O O9 0.000000 0.227574 0.750000
O O10 0.000000 0.947363 0.750000
#
# Coordination Sequence:
#
# PCOD9321231 Si02
#       4
#     8   8   8   8
#     4  12  24  40  64 102 134 166 213 282 330 381
#     4  12  24  38  63 100 134 165 214 275 332 379
#     4  11  18  36  64  91 113 167 233 250 284 387
#     4  11  19  38  68  95 114 174 239 255 287 398
#
# _framework density 20.423278
#
# number of rings (size 3 to 8) (size 9 to 14) (size 15 to 20)
#    0.000    0.500    7.500    4.500    0.000    0.000 
#    0.000    0.000    0.000   15.000    0.000    0.000 
#    0.000    0.000    0.000    0.000    0.000    0.000 
#
# Total GULP energy -89084.550784 kJ/mol
# GULP energy per Si atom -5567.784424 kJ/mol
# Density = 2.037679 g / cm^3
# Si number density = 20.423278 Si / 1000 Ang^3
#
#
#
# Elastic Constant Matrix: (Units=GPa)
#
#
# Indices 1 2 3 4 5 6 
#
# 1 155.3154 12.9458 19.6443 0.0000 0.0000 0.0000
# 2 12.9458 78.9731 26.0858 0.0000 0.0000 0.0000
# 3 19.6443 26.0858 57.2719 0.0000 0.0000 0.0000
# 4 0.0000 0.0000 0.0000 22.8541 0.0000 0.0000
# 5 0.0000 0.0000 0.0000 0.0000 52.3662 0.0000
# 6 0.0000 0.0000 0.0000 0.0000 0.0000 12.9125
#
#
#
# Elastic Compliance Matrix: (Units=1/GPa)
#
#
# Indices 1 2 3 4 5 6 
#
# 1 0.006741 -0.000402 -0.002129 0.000000 0.000000 0.000000
# 2 -0.000402 0.014929 -0.006662 0.000000 0.000000 0.000000
# 3 -0.002129 -0.006662 0.021225 0.000000 0.000000 0.000000
# 4 0.000000 0.000000 0.000000 0.043756 0.000000 0.000000
# 5 0.000000 0.000000 0.000000 0.000000 0.019096 0.000000
# 6 0.000000 0.000000 0.000000 0.000000 0.000000 0.077445
#
#
# Mechanical properties :
#
#
# Convention : Reuss Voigt Hill
#
# Bulk Modulus (GPa) = 40.80041 45.43469 43.11755
# Shear Modulus (GPa) = 23.83814 33.15218 28.49516
#
# Velocity S-wave (km/s) = 3.42014 4.03333 3.73933
# Velocity P-wave (km/s) = 5.96802 6.63213 6.30882
#
# Compressibility (1/GPa) = 0.02450956
#
# Stress axis : x y z
#
# Youngs Moduli (GPa) = 148.33916 66.98406 47.11368
#
# Poissons Ratio (x) = 0.02691 0.10032
# Poissons Ratio (y) = 0.05960 0.31387
# Poissons Ratio (z) = 0.31586 0.44624
#
# Static dielectric constant tensor:
#      x y z
#    x 1.884530 0.000000 0.000000 
#    y 0.000000 1.707600 0.000000 
#    z 0.000000 0.000000 1.770600 
# 
# From -- ./inp_files/11994.got.cif
#   From: 2010.05.17/outbox.cif.g08.bks.cpg/sg20_6_cif.got.tgz:11994.got - 2010.06.03 22:52:26.
