data_PCOD9321461
_publ_section_title
;
Structure prediction by ZEFSAII (Michael W. Deem and Ramdas Pophale) SiO2 
 PCOD9321461
Probable space group: C 2 2 21
;
_chemical_formula_sum "Si O2"
_cell_formula_units_Z 56
_cell_length_a 9.867197
_cell_length_b 19.150707
_cell_length_c 13.505766
_cell_angle_alpha 90.000000
_cell_angle_beta 90.000000
_cell_angle_gamma 90.000000
_cell_volume 2552.100847
_symmetry_space_group_name_H-M "C 2 2 21"
_symmetry_group_IT_number 20
_symmetry_cell_setting 'orthorhombic'
loop_
_space_group_symop_operation_xyz
x,y,z
-x,-y,1/2+z
x,-y,-z
-x,y,1/2-z
1/2+x,1/2+y,z
1/2-x,1/2-y,1/2+z
1/2+x,1/2-y,-z
1/2-x,1/2+y,1/2-z
loop_
_atom_site_type_symbol
_atom_site_label
_atom_site_fract_x
_atom_site_fract_y
_atom_site_fract_z
Si Si1 0.910115 0.355370 0.651241
Si Si2 0.299204 0.867491 0.347296
Si Si3 0.318953 0.697018 0.654286
Si Si4 0.058276 0.675696 0.539939
Si Si5 0.283549 0.481502 0.797283
Si Si6 0.553496 0.336677 0.476311
Si Si7 0.062537 0.040898 0.097660
O O1 0.835806 0.280300 0.640966
O O2 0.804645 0.418108 0.660893
O O3 0.000000 0.351843 0.750000
O O4 0.010499 0.364231 0.558197
O O5 0.232359 0.819009 0.263733
O O6 0.447474 0.842236 0.377217
O O7 0.201961 0.861605 0.443626
O O8 0.296024 0.946062 0.306609
O O9 0.207873 0.664440 0.580510
O O10 0.460047 0.662369 0.622271
O O11 0.054316 0.757371 0.512436
O O12 0.330130 0.463093 0.685857
O O13 0.422389 0.490984 0.859440
O O14 0.482815 0.382998 0.560162
O O15 0.106972 0.000000 0.000000
#
# Coordination Sequence:
#
# PCOD9321461 Si02
#       7
#     8   8   8   8   8   8   8
#     4  11  26  46  69 101 144 186 236 301 365 432
#     4  12  24  44  70 100 145 180 232 297 361 418
#     4  11  24  42  71  98 137 180 235 291 352 427
#     4  11  25  42  67 102 133 187 233 281 360 419
#     4  11  26  42  68 104 138 186 238 283 374 427
#     4  11  22  41  71  98 136 178 232 292 342 422
#     4  11  22  41  70 101 136 180 235 293 346 429
#
# _framework density 21.942706999999999
#
# number of rings (size 3 to 8) (size 9 to 14) (size 15 to 20)
#    0.000    0.857    1.429    6.857    6.000    1.143 
#    0.000    0.000    0.000    0.000    0.000    0.000 
#    0.000    0.000    0.000    0.000    0.000    0.000 
#
# Total GULP energy -156744.507693 kJ/mol
# GULP energy per Si atom -5598.018132 kJ/mol
# Density = 2.189276 g / cm^3
# Si number density = 21.942707 Si / 1000 Ang^3
#
#
#
# Elastic Constant Matrix: (Units=GPa)
#
#
# Indices 1 2 3 4 5 6 
#
# 1 88.7504 16.0814 13.1608 0.0000 0.0000 0.0000
# 2 16.0814 66.1446 3.0824 0.0000 0.0000 0.0000
# 3 13.1608 3.0824 92.8813 0.0000 0.0000 0.0000
# 4 0.0000 0.0000 0.0000 31.5636 0.0000 0.0000
# 5 0.0000 0.0000 0.0000 0.0000 36.4700 0.0000
# 6 0.0000 0.0000 0.0000 0.0000 0.0000 18.7024
#
#
#
# Elastic Compliance Matrix: (Units=1/GPa)
#
#
# Indices 1 2 3 4 5 6 
#
# 1 0.012022 -0.002848 -0.001609 0.000000 0.000000 0.000000
# 2 -0.002848 0.015816 -0.000121 0.000000 0.000000 0.000000
# 3 -0.001609 -0.000121 0.010998 0.000000 0.000000 0.000000
# 4 0.000000 0.000000 0.000000 0.031682 0.000000 0.000000
# 5 0.000000 0.000000 0.000000 0.000000 0.027420 0.000000
# 6 0.000000 0.000000 0.000000 0.000000 0.000000 0.053469
#
#
# Mechanical properties :
#
#
# Convention : Reuss Voigt Hill
#
# Bulk Modulus (GPa) = 33.69207 34.71396 34.20301
# Shear Modulus (GPa) = 29.33276 31.71066 30.52171
#
# Velocity S-wave (km/s) = 3.66018 3.80565 3.73362
# Velocity P-wave (km/s) = 5.76632 5.93003 5.84875
#
# Compressibility (1/GPa) = 0.02968058
#
# Stress axis : x y z
#
# Youngs Moduli (GPa) = 83.17957 63.22535 90.92197
#
# Poissons Ratio (x) = 0.18006 0.14629
# Poissons Ratio (y) = 0.23689 0.01103
# Poissons Ratio (z) = 0.13383 0.00767
#
# Static dielectric constant tensor:
#      x y z
#    x 1.771400 0.000000 0.000000 
#    y 0.000000 1.776120 0.000000 
#    z 0.000000 0.000000 1.828390 
# 
# From -- ./inp_files/19177.got.cif
#   From: 2010.05.17/outbox.cif.g08.bks.cpg/sg20_10_cif.got.tgz:19177.got - 2010.06.03 22:52:26.
