data_PCOD9321852
_publ_section_title
;
Structure prediction by ZEFSAII (Michael W. Deem and Ramdas Pophale) SiO2 
 PCOD9321852
Probable space group: C 2 2 21
;
_chemical_formula_sum "Si O2"
_cell_formula_units_Z 28
_cell_length_a 26.397630
_cell_length_b 7.647691
_cell_length_c 5.427791
_cell_angle_alpha 90.000000
_cell_angle_beta 90.000000
_cell_angle_gamma 90.000000
_cell_volume 1095.767426
_symmetry_space_group_name_H-M "C 2 2 21"
_symmetry_group_IT_number 20
_symmetry_cell_setting 'orthorhombic'
loop_
_space_group_symop_operation_xyz
x,y,z
-x,-y,1/2+z
x,-y,-z
-x,y,1/2-z
1/2+x,1/2+y,z
1/2-x,1/2-y,1/2+z
1/2+x,1/2-y,-z
1/2-x,1/2+y,1/2-z
loop_
_atom_site_type_symbol
_atom_site_label
_atom_site_fract_x
_atom_site_fract_y
_atom_site_fract_z
Si Si1 0.099637 0.682776 0.147649
Si Si2 0.282331 0.000000 0.000000
Si Si3 0.704074 0.810446 0.060274
Si Si4 0.033653 0.500000 0.500000
Si Si5 0.532426 0.500000 0.000000
O O1 0.158980 0.731576 0.126681
O O2 0.096972 0.500000 0.000000
O O3 0.071378 0.652831 0.407477
O O4 0.067845 0.830646 0.012281
O O5 0.242978 0.154091 0.080889
O O6 0.316849 0.879398 0.177389
O O7 0.729282 0.000000 0.000000
O O8 0.000000 0.468804 0.250000
O O9 0.500000 0.503137 0.250000
#
# Coordination Sequence:
#
# PCOD9321852 Si02
#       5
#     8   4   8   4   4
#     4  11  28  50  80 118 157 214 266 343 397 495
#     4  12  23  49  80 114 160 216 264 340 402 492
#     4  11  25  47  77 115 158 206 271 328 407 480
#     4  12  26  49  86 115 156 215 272 332 411 486
#     4  12  31  50  78 117 158 207 270 330 415 484
#
# _framework density 25.552869000000001
#
# number of rings (size 3 to 8) (size 9 to 14) (size 15 to 20)
#    0.000    0.571    4.286    1.714    8.000    4.571 
#    0.000    0.000    0.000    0.000    0.000    0.000 
#    0.000    0.000    0.000    0.000    0.000    0.000 
#
# Total GULP energy -78073.018603 kJ/mol
# GULP energy per Si atom -5576.644186 kJ/mol
# Density = 2.549471 g / cm^3
# Si number density = 25.552869 Si / 1000 Ang^3
#
#
#
# Elastic Constant Matrix: (Units=GPa)
#
#
# Indices 1 2 3 4 5 6 
#
# 1 151.4677 64.7904 79.7134 0.0000 0.0000 0.0000
# 2 64.7904 158.3339 40.9352 0.0000 0.0000 0.0000
# 3 79.7134 40.9352 154.1244 0.0000 0.0000 0.0000
# 4 0.0000 0.0000 0.0000 49.5037 0.0000 0.0000
# 5 0.0000 0.0000 0.0000 0.0000 41.0771 0.0000
# 6 0.0000 0.0000 0.0000 0.0000 0.0000 18.5310
#
#
#
# Elastic Compliance Matrix: (Units=1/GPa)
#
#
# Indices 1 2 3 4 5 6 
#
# 1 0.010274 -0.003039 -0.004506 0.000000 0.000000 0.000000
# 2 -0.003039 0.007680 -0.000468 0.000000 0.000000 0.000000
# 3 -0.004506 -0.000468 0.008943 0.000000 0.000000 0.000000
# 4 0.000000 0.000000 0.000000 0.020200 0.000000 0.000000
# 5 0.000000 0.000000 0.000000 0.000000 0.024344 0.000000
# 6 0.000000 0.000000 0.000000 0.000000 0.000000 0.053964
#
#
# Mechanical properties :
#
#
# Convention : Reuss Voigt Hill
#
# Bulk Modulus (GPa) = 91.99349 92.75602 92.37475
# Shear Modulus (GPa) = 34.46945 40.38816 37.42881
#
# Velocity S-wave (km/s) = 3.67679 3.97995 3.83137
# Velocity P-wave (km/s) = 7.35557 7.58278 7.47004
#
# Compressibility (1/GPa) = 0.01087033
#
# Stress axis : x y z
#
# Youngs Moduli (GPa) = 97.33750 130.20292 111.81542
#
# Poissons Ratio (x) = 0.39567 0.50388
# Poissons Ratio (y) = 0.29580 0.05235
# Poissons Ratio (z) = 0.43864 0.06096
#
# Static dielectric constant tensor:
#      x y z
#    x 2.057260 0.000000 0.000000 
#    y 0.000000 1.947110 0.000000 
#    z 0.000000 0.000000 9.738980 
# 
# From -- ./inp_files/4001.got.cif
#   From: 2010.05.17/outbox.cif.g08.bks.cpg/sg20_3_cif.got.tgz:4001.got - 2010.06.03 22:52:26.
