data_PCOD9321974
_publ_section_title
;
Structure prediction by ZEFSAII (Michael W. Deem and Ramdas Pophale) SiO2 
 PCOD9321974
Probable space group: C 2 2 21
;
_chemical_formula_sum "Si O2"
_cell_formula_units_Z 36
_cell_length_a 6.446881
_cell_length_b 12.838643
_cell_length_c 18.073060
_cell_angle_alpha 90.000000
_cell_angle_beta 90.000000
_cell_angle_gamma 90.000000
_cell_volume 1495.892783
_symmetry_space_group_name_H-M "C 2 2 21"
_symmetry_group_IT_number 20
_symmetry_cell_setting 'orthorhombic'
loop_
_space_group_symop_operation_xyz
x,y,z
-x,-y,1/2+z
x,-y,-z
-x,y,1/2-z
1/2+x,1/2+y,z
1/2-x,1/2-y,1/2+z
1/2+x,1/2-y,-z
1/2-x,1/2+y,1/2-z
loop_
_atom_site_type_symbol
_atom_site_label
_atom_site_fract_x
_atom_site_fract_y
_atom_site_fract_z
Si Si1 0.232274 0.000000 0.000000
Si Si2 0.135030 0.858363 0.451882
Si Si3 0.121348 0.363879 0.183838
Si Si4 0.533506 0.133160 0.082929
Si Si5 0.814400 0.201024 0.206156
O O1 0.376133 0.959689 0.933641
O O2 0.081627 0.089418 0.970967
O O3 0.246951 0.910967 0.381142
O O4 0.287507 0.869705 0.520899
O O5 0.093823 0.739257 0.430850
O O6 0.944665 0.282357 0.153149
O O7 0.261514 0.282665 0.231683
O O8 0.000000 0.423861 0.250000
O O9 0.646252 0.139810 0.161497
O O10 0.000000 0.140676 0.250000
#
# Coordination Sequence:
#
# PCOD9321974 Si02
#       5
#     4   8   8   8   8
#     4  12  30  36  72 124 144 196 254 302 372 448
#     4  12  23  44  70 113 154 192 245 312 369 439
#     4   6  17  37  69 113 129 192 249 278 378 440
#     4  12  23  44  70 113 154 192 245 312 369 439
#     4   6  17  37  69 113 129 192 249 278 378 440
#
# _framework density 24.065897
#
# number of rings (size 3 to 8) (size 9 to 14) (size 15 to 20)
#    2.667    0.000    2.222    2.000    0.000    0.889 
#    0.000    0.000    0.000    0.000  161.778    0.000 
#    0.000    0.000    0.000    0.000    0.000    0.000 
#
# Total GULP energy -100333.591537 kJ/mol
# GULP energy per Si atom -5574.088419 kJ/mol
# Density = 2.401112 g / cm^3
# Si number density = 24.065897 Si / 1000 Ang^3
#
#
#
# Elastic Constant Matrix: (Units=GPa)
#
#
# Indices 1 2 3 4 5 6 
#
# 1 108.4521 17.6890 48.4027 0.0000 0.0000 0.0000
# 2 17.6890 47.9794 4.7846 0.0000 0.0000 0.0000
# 3 48.4027 4.7846 122.6918 0.0000 0.0000 0.0000
# 4 0.0000 0.0000 0.0000 18.0172 0.0000 0.0000
# 5 0.0000 0.0000 0.0000 0.0000 49.7364 0.0000
# 6 0.0000 0.0000 0.0000 0.0000 0.0000 28.9616
#
#
#
# Elastic Compliance Matrix: (Units=1/GPa)
#
#
# Indices 1 2 3 4 5 6 
#
# 1 0.011886 -0.003930 -0.004536 0.000000 0.000000 0.000000
# 2 -0.003930 0.022223 0.000684 0.000000 0.000000 0.000000
# 3 -0.004536 0.000684 0.009913 0.000000 0.000000 0.000000
# 4 0.000000 0.000000 0.000000 0.055503 0.000000 0.000000
# 5 0.000000 0.000000 0.000000 0.000000 0.020106 0.000000
# 6 0.000000 0.000000 0.000000 0.000000 0.000000 0.034529
#
#
# Mechanical properties :
#
#
# Convention : Reuss Voigt Hill
#
# Bulk Modulus (GPa) = 35.13909 46.76397 40.95153
# Shear Modulus (GPa) = 27.90032 33.22615 30.56324
#
# Velocity S-wave (km/s) = 3.40859 3.71972 3.56755
# Velocity P-wave (km/s) = 5.48855 6.15810 5.83294
#
# Compressibility (1/GPa) = 0.02845833
#
# Stress axis : x y z
#
# Youngs Moduli (GPa) = 84.13252 44.99852 100.87485
#
# Poissons Ratio (x) = 0.17684 0.45755
# Poissons Ratio (y) = 0.33062 -0.06897
# Poissons Ratio (z) = 0.38161 -0.03077
#
# Static dielectric constant tensor:
#      x y z
#    x 1.921770 0.000000 0.000000 
#    y 0.000000 1.949150 0.000000 
#    z 0.000000 0.000000 1.950040 
# 
# From -- ./inp_files/22712.got.cif
#   From: 2010.05.17/outbox.cif.g08.bks.cpg/sg20_12_cif.got.tgz:22712.got - 2010.06.03 22:52:26.
