data_PCOD9321834
_publ_section_title
;
Structure prediction by ZEFSAII (Michael W. Deem and Ramdas Pophale) SiO2 
 PCOD9321834
Probable space group: C 2 2 21
;
_chemical_formula_sum "Si O2"
_cell_formula_units_Z 28
_cell_length_a 6.313005
_cell_length_b 19.174612
_cell_length_c 10.364973
_cell_angle_alpha 90.000000
_cell_angle_beta 90.000000
_cell_angle_gamma 90.000000
_cell_volume 1254.673985
_symmetry_space_group_name_H-M "C 2 2 21"
_symmetry_group_IT_number 20
_symmetry_cell_setting 'orthorhombic'
loop_
_space_group_symop_operation_xyz
x,y,z
-x,-y,1/2+z
x,-y,-z
-x,y,1/2-z
1/2+x,1/2+y,z
1/2-x,1/2-y,1/2+z
1/2+x,1/2-y,-z
1/2-x,1/2+y,1/2-z
loop_
_atom_site_type_symbol
_atom_site_label
_atom_site_fract_x
_atom_site_fract_y
_atom_site_fract_z
Si Si1 0.138754 0.332676 0.377600
Si Si2 0.000000 0.904970 0.750000
Si Si3 0.675684 0.013022 0.640549
Si Si4 0.353833 0.187229 0.376452
O O1 0.251631 0.406833 0.356406
O O2 0.291195 0.267539 0.399938
O O3 0.000000 0.317978 0.250000
O O4 0.981917 0.338805 0.499561
O O5 0.145570 0.857087 0.658645
O O6 0.145763 0.956041 0.834305
O O7 0.500000 0.004991 0.750000
O O8 0.580099 0.000000 0.500000
O O9 0.500000 0.182772 0.250000
#
# Coordination Sequence:
#
# PCOD9321834 Si02
#       4
#     8   4   8   8
#     4  11  25  45  74 108 143 188 243 298 353 431
#     4  12  26  46  76 106 146 194 232 304 374 418
#     4  11  26  46  71 106 145 189 242 301 358 432
#     4  12  26  48  75 107 147 191 244 296 363 432
#
# _framework density 22.316554
#
# number of rings (size 3 to 8) (size 9 to 14) (size 15 to 20)
#    0.000    0.571    1.429    6.000    6.000    5.714 
#    0.000    0.000    0.000    0.000    0.000    0.000 
#    0.000    0.000    0.000    0.000    0.000    0.000 
#
# Total GULP energy -78444.294693 kJ/mol
# GULP energy per Si atom -5603.163907 kJ/mol
# Density = 2.226576 g / cm^3
# Si number density = 22.316554 Si / 1000 Ang^3
#
#
#
# Elastic Constant Matrix: (Units=GPa)
#
#
# Indices 1 2 3 4 5 6 
#
# 1 86.5207 63.5596 53.1488 0.0000 0.0000 0.0000
# 2 63.5596 155.9749 18.1894 0.0000 0.0000 0.0000
# 3 53.1488 18.1894 172.5773 0.0000 0.0000 0.0000
# 4 0.0000 0.0000 0.0000 44.9136 0.0000 0.0000
# 5 0.0000 0.0000 0.0000 0.0000 22.0427 0.0000
# 6 0.0000 0.0000 0.0000 0.0000 0.0000 22.5344
#
#
#
# Elastic Compliance Matrix: (Units=1/GPa)
#
#
# Indices 1 2 3 4 5 6 
#
# 1 0.020683 -0.007781 -0.005550 0.000000 0.000000 0.000000
# 2 -0.007781 0.009418 0.001404 0.000000 0.000000 0.000000
# 3 -0.005550 0.001404 0.007356 0.000000 0.000000 0.000000
# 4 0.000000 0.000000 0.000000 0.022265 0.000000 0.000000
# 5 0.000000 0.000000 0.000000 0.000000 0.045366 0.000000
# 6 0.000000 0.000000 0.000000 0.000000 0.000000 0.044377
#
#
# Mechanical properties :
#
#
# Convention : Reuss Voigt Hill
#
# Bulk Modulus (GPa) = 73.51354 76.09653 74.80503
# Shear Modulus (GPa) = 28.11291 36.57649 32.34470
#
# Velocity S-wave (km/s) = 3.55312 4.05283 3.81117
# Velocity P-wave (km/s) = 7.06015 7.48821 7.27733
#
# Compressibility (1/GPa) = 0.01360294
#
# Stress axis : x y z
#
# Youngs Moduli (GPa) = 48.34817 106.17471 135.94875
#
# Poissons Ratio (x) = 0.82617 0.75448
# Poissons Ratio (y) = 0.37621 -0.19083
# Poissons Ratio (z) = 0.26832 -0.14904
#
# Static dielectric constant tensor:
#      x y z
#    x 1.785950 0.000000 0.000000 
#    y 0.000000 1.833030 0.000000 
#    z 0.000000 0.000000 1.793590 
# 
# From -- ./inp_files/11865.got.cif
#   From: 2010.05.17/outbox.cif.g08.bks.cpg/sg20_6_cif.got.tgz:11865.got - 2010.06.03 22:52:26.
