data_PCOD9321675
_publ_section_title
;
Structure prediction by ZEFSAII (Michael W. Deem and Ramdas Pophale) SiO2 
 PCOD9321675
Probable space group: C 2 2 21
;
_chemical_formula_sum "Si O2"
_cell_formula_units_Z 32
_cell_length_a 13.293791
_cell_length_b 6.738467
_cell_length_c 15.908624
_cell_angle_alpha 90.000000
_cell_angle_beta 90.000000
_cell_angle_gamma 90.000000
_cell_volume 1425.090910
_symmetry_space_group_name_H-M "C 2 2 21"
_symmetry_group_IT_number 20
_symmetry_cell_setting 'orthorhombic'
loop_
_space_group_symop_operation_xyz
x,y,z
-x,-y,1/2+z
x,-y,-z
-x,y,1/2-z
1/2+x,1/2+y,z
1/2-x,1/2-y,1/2+z
1/2+x,1/2-y,-z
1/2-x,1/2+y,1/2-z
loop_
_atom_site_type_symbol
_atom_site_label
_atom_site_fract_x
_atom_site_fract_y
_atom_site_fract_z
Si Si1 0.237038 0.000000 0.500000
Si Si2 0.400292 0.974338 0.215299
Si Si3 0.207464 0.207669 0.144453
Si Si4 0.567981 0.796338 0.455114
Si Si5 0.098000 0.000000 0.000000
O O1 0.289833 0.882217 0.425688
O O2 0.164792 0.840191 0.542149
O O3 0.500000 0.084792 0.250000
O O4 0.348337 0.815262 0.278071
O O5 0.450006 0.845581 0.140874
O O6 0.314141 0.121665 0.178772
O O7 0.158630 0.030936 0.087149
O O8 0.477047 0.687533 0.501985
O O9 0.591143 0.000000 0.500000
#
# Coordination Sequence:
#
# PCOD9321675 Si02
#       5
#     4   8   8   8   4
#     4  11  24  46  75 110 152 206 263 316 387 472
#     4  12  26  49  75 115 160 199 263 330 389 466
#     4  12  26  48  78 114 160 206 265 326 397 466
#     4  11  23  48  77 110 154 206 256 324 394 466
#     4  11  26  44  81 110 154 212 259 316 397 472
#
# _framework density 22.454705000000001
#
# number of rings (size 3 to 8) (size 9 to 14) (size 15 to 20)
#    0.000    0.500    5.000    3.000    1.750    2.000 
#    0.000    0.000    0.000    0.000    0.000    0.000 
#    0.000    0.000    0.000    0.000    0.000    0.000 
#
# Total GULP energy -89301.465329 kJ/mol
# GULP energy per Si atom -5581.341583 kJ/mol
# Density = 2.240360 g / cm^3
# Si number density = 22.454705 Si / 1000 Ang^3
#
#
#
# Elastic Constant Matrix: (Units=GPa)
#
#
# Indices 1 2 3 4 5 6 
#
# 1 91.9930 47.4791 46.3723 0.0000 0.0000 0.0000
# 2 47.4791 91.4328 36.9484 0.0000 0.0000 0.0000
# 3 46.3723 36.9484 121.8992 0.0000 0.0000 0.0000
# 4 0.0000 0.0000 0.0000 31.5082 0.0000 0.0000
# 5 0.0000 0.0000 0.0000 0.0000 43.5204 0.0000
# 6 0.0000 0.0000 0.0000 0.0000 0.0000 28.7588
#
#
#
# Elastic Compliance Matrix: (Units=1/GPa)
#
#
# Indices 1 2 3 4 5 6 
#
# 1 0.016548 -0.006894 -0.004206 0.000000 0.000000 0.000000
# 2 -0.006894 0.015335 -0.002026 0.000000 0.000000 0.000000
# 3 -0.004206 -0.002026 0.010417 0.000000 0.000000 0.000000
# 4 0.000000 0.000000 0.000000 0.031738 0.000000 0.000000
# 5 0.000000 0.000000 0.000000 0.000000 0.022978 0.000000
# 6 0.000000 0.000000 0.000000 0.000000 0.000000 0.034772
#
#
# Mechanical properties :
#
#
# Convention : Reuss Voigt Hill
#
# Bulk Modulus (GPa) = 62.30219 62.99165 62.64692
# Shear Modulus (GPa) = 30.60175 32.39248 31.49711
#
# Velocity S-wave (km/s) = 3.69565 3.80224 3.74932
# Velocity P-wave (km/s) = 6.78354 6.88402 6.83396
#
# Compressibility (1/GPa) = 0.01605080
#
# Stress axis : x y z
#
# Youngs Moduli (GPa) = 60.42888 65.20878 95.99268
#
# Poissons Ratio (x) = 0.44953 0.40372
# Poissons Ratio (y) = 0.41658 0.19446
# Poissons Ratio (z) = 0.25415 0.13210
#
# Static dielectric constant tensor:
#      x y z
#    x 1.895510 0.000000 0.000000 
#    y 0.000000 1.851600 0.000000 
#    z 0.000000 0.000000 1.892110 
# 
# From -- ./inp_files/24638.got.cif
#   From: 2010.05.17/outbox.cif.g08.bks.cpg/sg20_13_cif.got.tgz:24638.got - 2010.06.03 22:52:26.
