data_PCOD9321102
_publ_section_title
;
Structure prediction by ZEFSAII (Michael W. Deem and Ramdas Pophale) SiO2 
 PCOD9321102
Probable space group: C 2 2 21
;
_chemical_formula_sum "Si O2"
_cell_formula_units_Z 48
_cell_length_a 8.627234
_cell_length_b 29.922228
_cell_length_c 7.253909
_cell_angle_alpha 90.000000
_cell_angle_beta 90.000000
_cell_angle_gamma 90.000000
_cell_volume 1872.568048
_symmetry_space_group_name_H-M "C 2 2 21"
_symmetry_group_IT_number 20
_symmetry_cell_setting 'orthorhombic'
loop_
_space_group_symop_operation_xyz
x,y,z
-x,-y,1/2+z
x,-y,-z
-x,y,1/2-z
1/2+x,1/2+y,z
1/2-x,1/2-y,1/2+z
1/2+x,1/2-y,-z
1/2-x,1/2+y,1/2-z
loop_
_atom_site_type_symbol
_atom_site_label
_atom_site_fract_x
_atom_site_fract_y
_atom_site_fract_z
Si Si1 0.000000 0.154087 0.250000
Si Si2 0.000000 0.694051 0.750000
Si Si3 0.828104 0.451817 0.723560
Si Si4 0.126490 0.086242 0.961979
Si Si5 0.301531 0.274063 0.911005
Si Si6 0.648003 0.893369 0.140976
Si Si7 0.000000 0.761076 0.250000
Si Si8 0.914423 0.000000 0.000000
O O1 0.968449 0.123627 0.426657
O O2 0.855367 0.187047 0.225682
O O3 0.880968 0.726958 0.851318
O O4 0.904510 0.658295 0.625612
O O5 0.769502 0.426642 0.903948
O O6 0.701209 0.488502 0.667868
O O7 0.830659 0.417354 0.552835
O O8 0.000000 0.470275 0.750000
O O9 0.018942 0.042698 0.959980
O O10 0.201705 0.101741 0.771060
O O11 0.121200 0.265551 0.879010
O O12 0.386582 0.284989 0.103986
O O13 0.500000 0.914185 0.250000
#
# Coordination Sequence:
#
# PCOD9321102 Si02
#       8
#     4   4   8   8   8   8   4   4
#     4  11  26  54  80 121 164 220 269 352 416 497
#     4   9  22  50  76 120 161 217 274 342 408 493
#     4  12  26  51  81 115 155 218 273 343 416 500
#     4  12  27  53  79 116 165 210 272 344 417 495
#     4  11  26  48  83 117 169 217 281 338 419 504
#     4  10  25  45  80 118 162 211 277 333 407 499
#     4  12  28  52  78 121 163 235 273 350 420 506
#     4  12  30  52  80 114 156 216 272 338 426 500
#
# _framework density 25.633244999999999
#
# number of rings (size 3 to 8) (size 9 to 14) (size 15 to 20)
#    0.500    0.333    3.333    2.000    9.333    4.000 
#    3.000    0.000    0.000    0.000    0.000    0.000 
#    0.000    0.000    0.000    0.000    0.000    0.000 
#
# Total GULP energy -134507.609382 kJ/mol
# GULP energy per Si atom -5604.483724 kJ/mol
# Density = 2.557490 g / cm^3
# Si number density = 25.633245 Si / 1000 Ang^3
#
#
#
# Elastic Constant Matrix: (Units=GPa)
#
#
# Indices 1 2 3 4 5 6 
#
# 1 186.0422 68.4174 54.1972 0.0000 0.0000 0.0000
# 2 68.4174 156.8721 50.0491 0.0000 0.0000 0.0000
# 3 54.1972 50.0491 128.2601 0.0000 0.0000 0.0000
# 4 0.0000 0.0000 0.0000 32.7997 0.0000 0.0000
# 5 0.0000 0.0000 0.0000 0.0000 63.4287 0.0000
# 6 0.0000 0.0000 0.0000 0.0000 0.0000 22.6522
#
#
#
# Elastic Compliance Matrix: (Units=1/GPa)
#
#
# Indices 1 2 3 4 5 6 
#
# 1 0.006809 -0.002343 -0.001963 0.000000 0.000000 0.000000
# 2 -0.002343 0.008088 -0.002166 0.000000 0.000000 0.000000
# 3 -0.001963 -0.002166 0.009471 0.000000 0.000000 0.000000
# 4 0.000000 0.000000 0.000000 0.030488 0.000000 0.000000
# 5 0.000000 0.000000 0.000000 0.000000 0.015766 0.000000
# 6 0.000000 0.000000 0.000000 0.000000 0.000000 0.044146
#
#
# Mechanical properties :
#
#
# Convention : Reuss Voigt Hill
#
# Bulk Modulus (GPa) = 87.53534 90.72241 89.12888
# Shear Modulus (GPa) = 38.01755 43.67684 40.84719
#
# Velocity S-wave (km/s) = 3.85533 4.13233 3.99623
# Velocity P-wave (km/s) = 7.35128 7.63135 7.49262
#
# Compressibility (1/GPa) = 0.01142396
#
# Stress axis : x y z
#
# Youngs Moduli (GPa) = 146.87236 123.64633 105.58455
#
# Poissons Ratio (x) = 0.28974 0.20722
# Poissons Ratio (y) = 0.34417 0.22867
# Poissons Ratio (z) = 0.28826 0.26778
#
# Static dielectric constant tensor:
#      x y z
#    x 2.041590 0.000000 0.000000 
#    y 0.000000 1.963800 0.000000 
#    z 0.000000 0.000000 1.957500 
# 
# From -- ./inp_files/6613.got.cif
#   From: 2010.05.17/outbox.cif.g08.bks.cpg/sg20_4_cif.got.tgz:6613.got - 2010.06.03 22:52:26.
