data_PCOD9321605
_publ_section_title
;
Structure prediction by ZEFSAII (Michael W. Deem and Ramdas Pophale) SiO2 
 PCOD9321605
Probable space group: C 2 2 21
;
_chemical_formula_sum "Si O2"
_cell_formula_units_Z 60
_cell_length_a 10.672873
_cell_length_b 9.300409
_cell_length_c 25.237317
_cell_angle_alpha 90.000000
_cell_angle_beta 90.000000
_cell_angle_gamma 90.000000
_cell_volume 2505.108683
_symmetry_space_group_name_H-M "C 2 2 21"
_symmetry_group_IT_number 20
_symmetry_cell_setting 'orthorhombic'
loop_
_space_group_symop_operation_xyz
x,y,z
-x,-y,1/2+z
x,-y,-z
-x,y,1/2-z
1/2+x,1/2+y,z
1/2-x,1/2-y,1/2+z
1/2+x,1/2-y,-z
1/2-x,1/2+y,1/2-z
loop_
_atom_site_type_symbol
_atom_site_label
_atom_site_fract_x
_atom_site_fract_y
_atom_site_fract_z
Si Si1 0.540346 0.472418 0.440159
Si Si2 0.515824 0.889464 0.131054
Si Si3 0.451491 0.208601 0.399183
Si Si4 0.839645 0.506839 0.206739
Si Si5 0.621835 0.283228 0.221424
Si Si6 0.316742 0.745082 0.065506
Si Si7 0.314209 0.000000 0.000000
Si Si8 0.685946 0.625967 0.106582
O O1 0.490978 0.500000 0.500000
O O2 0.561070 0.309842 0.421773
O O3 0.657873 0.577829 0.440770
O O4 0.443948 0.535706 0.396912
O O5 0.390896 0.798182 0.116802
O O6 0.633687 0.786749 0.118433
O O7 0.529576 0.038506 0.098637
O O8 0.475009 0.942637 0.189460
O O9 0.416477 0.246722 0.338811
O O10 0.331380 0.260347 0.433022
O O11 0.741197 0.386448 0.224319
O O12 0.849406 0.636219 0.247780
O O13 0.777765 0.576816 0.153300
O O14 0.500000 0.350159 0.250000
O O15 0.376920 0.856338 0.023863
O O16 0.245351 0.073484 0.050818
#
# Coordination Sequence:
#
# PCOD9321605 Si02
#       8
#     8   8   8   8   8   8   4   8
#     4  11  23  43  73 103 143 195 239 291 368 441
#     4  11  25  44  73 101 142 190 235 300 360 429
#     4  12  24  48  69 101 149 184 247 306 357 439
#     4  12  26  48  70 105 144 187 239 307 365 439
#     4  12  27  45  73 103 139 189 241 301 368 434
#     4  11  25  43  70 103 145 188 237 295 360 433
#     4  12  20  46  72 104 154 188 244 306 362 442
#     4  11  23  45  72 102 147 190 233 301 366 428
#
# _framework density 23.951056999999999
#
# number of rings (size 3 to 8) (size 9 to 14) (size 15 to 20)
#    0.000    0.533    7.333    0.000    3.733    4.267 
#    0.000    0.000    0.000    0.000    0.000    0.000 
#    0.000    0.000    0.000    0.000    0.000    0.000 
#
# Total GULP energy -167462.561313 kJ/mol
# GULP energy per Si atom -5582.085377 kJ/mol
# Density = 2.389654 g / cm^3
# Si number density = 23.951057 Si / 1000 Ang^3
#
#
#
# Elastic Constant Matrix: (Units=GPa)
#
#
# Indices 1 2 3 4 5 6 
#
# 1 57.3793 40.9127 16.7301 0.0000 0.0000 0.0000
# 2 40.9127 173.8986 73.5349 0.0000 0.0000 0.0000
# 3 16.7301 73.5349 108.1903 0.0000 0.0000 0.0000
# 4 0.0000 0.0000 0.0000 42.5394 0.0000 0.0000
# 5 0.0000 0.0000 0.0000 0.0000 22.2345 0.0000
# 6 0.0000 0.0000 0.0000 0.0000 0.0000 50.9068
#
#
#
# Elastic Compliance Matrix: (Units=1/GPa)
#
#
# Indices 1 2 3 4 5 6 
#
# 1 0.020943 -0.004993 0.000155 0.000000 0.000000 0.000000
# 2 -0.004993 0.009260 -0.005522 0.000000 0.000000 0.000000
# 3 0.000155 -0.005522 0.012972 0.000000 0.000000 0.000000
# 4 0.000000 0.000000 0.000000 0.023508 0.000000 0.000000
# 5 0.000000 0.000000 0.000000 0.000000 0.044975 0.000000
# 6 0.000000 0.000000 0.000000 0.000000 0.000000 0.019644
#
#
# Mechanical properties :
#
#
# Convention : Reuss Voigt Hill
#
# Bulk Modulus (GPa) = 44.53224 66.86929 55.70077
# Shear Modulus (GPa) = 31.34688 37.02217 34.18453
#
# Velocity S-wave (km/s) = 3.62164 3.93586 3.78202
# Velocity P-wave (km/s) = 6.01014 6.97384 6.50985
#
# Compressibility (1/GPa) = 0.02245564
#
# Stress axis : x y z
#
# Youngs Moduli (GPa) = 47.74963 107.99072 77.08838
#
# Poissons Ratio (x) = 0.53916 -0.01194
# Poissons Ratio (y) = 0.23840 0.42567
# Poissons Ratio (z) = -0.00740 0.59631
#
# Static dielectric constant tensor:
#      x y z
#    x 1.981430 0.000000 0.000000 
#    y 0.000000 1.929410 0.000000 
#    z 0.000000 0.000000 1.957780 
# 
# From -- ./inp_files/30340.got.cif
#   From: 2010.05.17/outbox.cif.g08.bks.cpg/sg20_16_cif.got.tgz:30340.got - 2010.06.03 22:52:26.
