data_PCOD9321157
_publ_section_title
;
Structure prediction by ZEFSAII (Michael W. Deem and Ramdas Pophale) SiO2 
 PCOD9321157
Probable space group: C 2 2 21
;
_chemical_formula_sum "Si O2"
_cell_formula_units_Z 28
_cell_length_a 9.711194
_cell_length_b 11.086401
_cell_length_c 12.250626
_cell_angle_alpha 90.000000
_cell_angle_beta 90.000000
_cell_angle_gamma 90.000000
_cell_volume 1318.929235
_symmetry_space_group_name_H-M "C 2 2 21"
_symmetry_group_IT_number 20
_symmetry_cell_setting 'orthorhombic'
loop_
_space_group_symop_operation_xyz
x,y,z
-x,-y,1/2+z
x,-y,-z
-x,y,1/2-z
1/2+x,1/2+y,z
1/2-x,1/2-y,1/2+z
1/2+x,1/2-y,-z
1/2-x,1/2+y,1/2-z
loop_
_atom_site_type_symbol
_atom_site_label
_atom_site_fract_x
_atom_site_fract_y
_atom_site_fract_z
Si Si1 0.759951 0.380174 0.431684
Si Si2 0.638457 0.399982 0.200338
Si Si3 0.187181 0.500000 0.500000
Si Si4 0.500175 0.770973 0.956189
O O1 0.792421 0.500000 0.500000
O O2 0.739747 0.393694 0.302868
O O3 0.613828 0.331209 0.475665
O O4 0.882351 0.287165 0.454245
O O5 0.500000 0.460580 0.250000
O O6 0.582992 0.272015 0.151631
O O7 0.715227 0.459929 0.099305
O O8 0.089085 0.607183 0.456140
#
# Coordination Sequence:
#
# PCOD9321157 Si02
#       4
#     8   8   4   8
#     4  11  25  46  71 107 144 185 241 292 356 424
#     4  10  26  45  73 108 141 186 238 293 357 430
#     4  12  24  50  74 102 148 186 238 300 360 422
#     4  11  24  47  70 106 143 187 239 290 354 424
#
# _framework density 21.229341999999999
#
# number of rings (size 3 to 8) (size 9 to 14) (size 15 to 20)
#    0.000    1.143    4.286    0.000    8.000    8.000 
#    0.000    0.000    0.000    0.000    0.000    0.000 
#    0.000    0.000    0.000    0.000    0.000    0.000 
#
# Total GULP energy -78112.083473 kJ/mol
# GULP energy per Si atom -5579.434534 kJ/mol
# Density = 2.118102 g / cm^3
# Si number density = 21.229342 Si / 1000 Ang^3
#
#
#
# Elastic Constant Matrix: (Units=GPa)
#
#
# Indices 1 2 3 4 5 6 
#
# 1 110.8082 34.5534 110.4299 0.0000 0.0000 0.0000
# 2 34.5534 53.6657 44.9791 0.0000 0.0000 0.0000
# 3 110.4299 44.9791 178.5952 0.0000 0.0000 0.0000
# 4 0.0000 0.0000 0.0000 18.3355 0.0000 0.0000
# 5 0.0000 0.0000 0.0000 0.0000 3.3638 0.0000
# 6 0.0000 0.0000 0.0000 0.0000 0.0000 40.1894
#
#
#
# Elastic Compliance Matrix: (Units=1/GPa)
#
#
# Indices 1 2 3 4 5 6 
#
# 1 0.024124 -0.003841 -0.013949 0.000000 0.000000 0.000000
# 2 -0.003841 0.024231 -0.003727 0.000000 0.000000 0.000000
# 3 -0.013949 -0.003727 0.015163 0.000000 0.000000 0.000000
# 4 0.000000 0.000000 0.000000 0.054539 0.000000 0.000000
# 5 0.000000 0.000000 0.000000 0.000000 0.297279 0.000000
# 6 0.000000 0.000000 0.000000 0.000000 0.000000 0.024882
#
#
# Mechanical properties :
#
#
# Convention : Reuss Voigt Hill
#
# Bulk Modulus (GPa) = 48.82183 80.33264 64.57724
# Shear Modulus (GPa) = 10.20240 22.58487 16.39364
#
# Velocity S-wave (km/s) = 2.19459 3.26521 2.78189
# Velocity P-wave (km/s) = 5.42853 7.22067 6.38776
#
# Compressibility (1/GPa) = 0.02048264
#
# Stress axis : x y z
#
# Youngs Moduli (GPa) = 41.45304 41.26902 65.95031
#
# Poissons Ratio (x) = 0.15853 0.91993
# Poissons Ratio (y) = 0.15924 0.24582
# Poissons Ratio (z) = 0.57822 0.15383
#
# Static dielectric constant tensor:
#      x y z
#    x 1.771100 0.000000 0.000000 
#    y 0.000000 1.804190 0.000000 
#    z 0.000000 0.000000 1.750600 
# 
# From -- ./inp_files/18136.got.cif
#   From: 2010.05.17/outbox.cif.g08.bks.cpg/sg20_10_cif.got.tgz:18136.got - 2010.06.03 22:52:26.
