data_PCOD9321798
_publ_section_title
;
Structure prediction by ZEFSAII (Michael W. Deem and Ramdas Pophale) SiO2 
 PCOD9321798
Probable space group: C 2 2 21
;
_chemical_formula_sum "Si O2"
_cell_formula_units_Z 32
_cell_length_a 13.715288
_cell_length_b 10.614549
_cell_length_c 8.154352
_cell_angle_alpha 90.000000
_cell_angle_beta 90.000000
_cell_angle_gamma 90.000000
_cell_volume 1187.123583
_symmetry_space_group_name_H-M "C 2 2 21"
_symmetry_group_IT_number 20
_symmetry_cell_setting 'orthorhombic'
loop_
_space_group_symop_operation_xyz
x,y,z
-x,-y,1/2+z
x,-y,-z
-x,y,1/2-z
1/2+x,1/2+y,z
1/2-x,1/2-y,1/2+z
1/2+x,1/2-y,-z
1/2-x,1/2+y,1/2-z
loop_
_atom_site_type_symbol
_atom_site_label
_atom_site_fract_x
_atom_site_fract_y
_atom_site_fract_z
Si Si1 0.559509 0.668930 0.100508
Si Si2 0.758490 0.864863 0.402522
Si Si3 0.899091 0.541664 0.683527
Si Si4 0.135600 0.857670 0.436929
O O1 0.500000 0.604605 0.250000
O O2 0.581797 0.810420 0.154914
O O3 0.663261 0.615606 0.048270
O O4 0.478979 0.667665 0.958963
O O5 0.826014 0.837582 0.245414
O O6 0.681715 0.965568 0.325665
O O7 0.694857 0.743358 0.454064
O O8 0.872659 0.500000 0.500000
O O9 0.000000 0.483221 0.750000
O O10 0.153843 0.000000 0.500000
#
# Coordination Sequence:
#
# PCOD9321798 Si02
#       4
#     8   8   8   8
#     4  11  24  49  75 111 166 198 274 345 394 494
#     4  12  24  48  77 113 159 212 275 340 393 503
#     4  11  24  48  76 115 165 215 276 334 408 485
#     4  12  26  49  78 113 163 212 268 343 413 479
#
# _framework density 26.955912999999999
#
# number of rings (size 3 to 8) (size 9 to 14) (size 15 to 20)
#    0.000    0.500    7.500    1.500    0.000    4.000 
#    0.000    5.000    0.000    0.000    0.000    0.000 
#    0.000    0.000    0.000    0.000    0.000    0.000 
#
# Total GULP energy -89664.004484 kJ/mol
# GULP energy per Si atom -5604.000280 kJ/mol
# Density = 2.689456 g / cm^3
# Si number density = 26.955913 Si / 1000 Ang^3
#
#
#
# Elastic Constant Matrix: (Units=GPa)
#
#
# Indices 1 2 3 4 5 6 
#
# 1 268.2249 38.8850 88.6083 0.0000 0.0000 0.0000
# 2 38.8850 90.7906 33.7500 0.0000 0.0000 0.0000
# 3 88.6083 33.7500 160.9631 0.0000 0.0000 0.0000
# 4 0.0000 0.0000 0.0000 46.3248 0.0000 0.0000
# 5 0.0000 0.0000 0.0000 0.0000 81.4719 0.0000
# 6 0.0000 0.0000 0.0000 0.0000 0.0000 17.0356
#
#
#
# Elastic Compliance Matrix: (Units=1/GPa)
#
#
# Indices 1 2 3 4 5 6 
#
# 1 0.004662 -0.001131 -0.002329 0.000000 0.000000 0.000000
# 2 -0.001131 0.012220 -0.001940 0.000000 0.000000 0.000000
# 3 -0.002329 -0.001940 0.007901 0.000000 0.000000 0.000000
# 4 0.000000 0.000000 0.000000 0.021587 0.000000 0.000000
# 5 0.000000 0.000000 0.000000 0.000000 0.012274 0.000000
# 6 0.000000 0.000000 0.000000 0.000000 0.000000 0.058701
#
#
# Mechanical properties :
#
#
# Convention : Reuss Voigt Hill
#
# Bulk Modulus (GPa) = 71.51182 93.60724 82.55953
# Shear Modulus (GPa) = 37.64933 52.88214 45.26573
#
# Velocity S-wave (km/s) = 3.74130 4.43403 4.10231
# Velocity P-wave (km/s) = 6.72680 7.81125 7.28922
#
# Compressibility (1/GPa) = 0.01398370
#
# Stress axis : x y z
#
# Youngs Moduli (GPa) = 214.52152 81.83505 126.55945
#
# Poissons Ratio (x) = 0.09253 0.29476
# Poissons Ratio (y) = 0.24256 0.24549
# Poissons Ratio (z) = 0.49963 0.15874
#
# Static dielectric constant tensor:
#      x y z
#    x 2.092830 0.000000 0.000000 
#    y 0.000000 2.123740 0.000000 
#    z 0.000000 0.000000 2.148350 
# 
# From -- ./inp_files/6777.got.cif
#   From: 2010.05.17/outbox.cif.g08.bks.cpg/sg20_4_cif.got.tgz:6777.got - 2010.06.03 22:52:26.
