data_PCOD9321777
_publ_section_title
;
Structure prediction by ZEFSAII (Michael W. Deem and Ramdas Pophale) SiO2 
 PCOD9321777
Probable space group: C 2 2 21
;
_chemical_formula_sum "Si O2"
_cell_formula_units_Z 56
_cell_length_a 31.301688
_cell_length_b 13.438172
_cell_length_c 5.994119
_cell_angle_alpha 90.000000
_cell_angle_beta 90.000000
_cell_angle_gamma 90.000000
_cell_volume 2521.351034
_symmetry_space_group_name_H-M "C 2 2 21"
_symmetry_group_IT_number 20
_symmetry_cell_setting 'orthorhombic'
loop_
_space_group_symop_operation_xyz
x,y,z
-x,-y,1/2+z
x,-y,-z
-x,y,1/2-z
1/2+x,1/2+y,z
1/2-x,1/2-y,1/2+z
1/2+x,1/2-y,-z
1/2-x,1/2+y,1/2-z
loop_
_atom_site_type_symbol
_atom_site_label
_atom_site_fract_x
_atom_site_fract_y
_atom_site_fract_z
Si Si1 0.394377 0.709849 0.549737
Si Si2 0.926414 0.811451 0.895761
Si Si3 0.251110 0.696684 0.888063
Si Si4 0.521036 0.500000 0.500000
Si Si5 0.953059 0.348723 0.839871
Si Si6 0.609289 0.000000 0.500000
Si Si7 0.344985 0.390748 0.098027
Si Si8 0.659296 0.897131 0.135189
O O1 0.423325 0.662364 0.361968
O O2 0.428398 0.761974 0.710713
O O3 0.363752 0.627544 0.656317
O O4 0.365393 0.802749 0.467992
O O5 0.950739 0.900237 0.014555
O O6 0.949630 0.704414 0.918438
O O7 0.876100 0.815633 0.963227
O O8 0.253469 0.752109 0.639911
O O9 0.295946 0.639744 0.908563
O O10 0.209092 0.629329 0.862050
O O11 0.500000 0.493977 0.750000
O O12 0.000000 0.366333 0.750000
O O13 0.923208 0.444556 0.834477
O O14 0.639150 0.921351 0.375918
O O15 0.350993 0.500000 0.000000
O O16 0.653356 0.000000 0.000000
#
# Coordination Sequence:
#
# PCOD9321777 Si02
#       8
#     8   8   8   4   8   4   8   8
#     4  11  24  46  75 102 147 201 250 309 403 457
#     4  11  25  48  74 102 152 198 249 322 386 462
#     4  12  28  49  78 114 156 202 262 323 383 473
#     4  12  30  48  74 111 148 203 266 318 386 466
#     4  11  26  44  70 110 145 195 254 319 382 459
#     4  12  26  46  76 107 156 197 262 314 400 466
#     4  11  25  48  71 110 148 198 254 321 391 462
#     4  12  25  47  75 110 148 203 253 317 388 476
#
# _framework density 22.210317
#
# number of rings (size 3 to 8) (size 9 to 14) (size 15 to 20)
#    0.000    0.571    5.000    1.714   10.000    1.714 
#    0.000    0.000    0.000    0.000    0.000    0.000 
#    0.000    0.000    0.000    0.000    0.000    0.000 
#
# Total GULP energy -156145.820623 kJ/mol
# GULP energy per Si atom -5576.636451 kJ/mol
# Density = 2.215977 g / cm^3
# Si number density = 22.210317 Si / 1000 Ang^3
#
#
#
# Elastic Constant Matrix: (Units=GPa)
#
#
# Indices 1 2 3 4 5 6 
#
# 1 138.2448 54.6172 47.2917 0.0000 0.0000 0.0000
# 2 54.6172 98.5611 44.4910 0.0000 0.0000 0.0000
# 3 47.2917 44.4910 85.0013 0.0000 0.0000 0.0000
# 4 0.0000 0.0000 0.0000 35.8180 0.0000 0.0000
# 5 0.0000 0.0000 0.0000 0.0000 33.0698 0.0000
# 6 0.0000 0.0000 0.0000 0.0000 0.0000 23.9199
#
#
#
# Elastic Compliance Matrix: (Units=1/GPa)
#
#
# Indices 1 2 3 4 5 6 
#
# 1 0.009991 -0.003964 -0.003484 0.000000 0.000000 0.000000
# 2 -0.003964 0.014858 -0.005571 0.000000 0.000000 0.000000
# 3 -0.003484 -0.005571 0.016619 0.000000 0.000000 0.000000
# 4 0.000000 0.000000 0.000000 0.027919 0.000000 0.000000
# 5 0.000000 0.000000 0.000000 0.000000 0.030239 0.000000
# 6 0.000000 0.000000 0.000000 0.000000 0.000000 0.041806
#
#
# Mechanical properties :
#
#
# Convention : Reuss Voigt Hill
#
# Bulk Modulus (GPa) = 64.81141 68.28967 66.55054
# Shear Modulus (GPa) = 28.96638 30.25537 29.61088
#
# Velocity S-wave (km/s) = 3.61527 3.69483 3.65527
# Velocity P-wave (km/s) = 6.83162 7.00114 6.91690
#
# Compressibility (1/GPa) = 0.01542938
#
# Stress axis : x y z
#
# Youngs Moduli (GPa) = 100.08518 67.30598 60.17202
#
# Poissons Ratio (x) = 0.26680 0.20964
# Poissons Ratio (y) = 0.39674 0.33523
# Poissons Ratio (z) = 0.34870 0.37498
#
# Static dielectric constant tensor:
#      x y z
#    x 1.752490 0.000000 0.000000 
#    y 0.000000 1.805580 0.000000 
#    z 0.000000 0.000000 2.178670 
# 
# From -- ./inp_files/4728.got.cif
#   From: 2010.05.17/outbox.cif.g08.bks.cpg/sg20_3_cif.got.tgz:4728.got - 2010.06.03 22:52:26.
