data_PCOD9321414
_publ_section_title
;
Structure prediction by ZEFSAII (Michael W. Deem and Ramdas Pophale) SiO2 
 PCOD9321414
Probable space group: C 2 2 21
;
_chemical_formula_sum "Si O2"
_cell_formula_units_Z 48
_cell_length_a 6.648379
_cell_length_b 24.978156
_cell_length_c 12.932933
_cell_angle_alpha 90.000000
_cell_angle_beta 90.000000
_cell_angle_gamma 90.000000
_cell_volume 2147.697791
_symmetry_space_group_name_H-M "C 2 2 21"
_symmetry_group_IT_number 20
_symmetry_cell_setting 'orthorhombic'
loop_
_space_group_symop_operation_xyz
x,y,z
-x,-y,1/2+z
x,-y,-z
-x,y,1/2-z
1/2+x,1/2+y,z
1/2-x,1/2-y,1/2+z
1/2+x,1/2-y,-z
1/2-x,1/2+y,1/2-z
loop_
_atom_site_type_symbol
_atom_site_label
_atom_site_fract_x
_atom_site_fract_y
_atom_site_fract_z
Si Si1 0.597535 0.086416 0.642484
Si Si2 0.500000 0.124331 0.250000
Si Si3 0.037570 0.877453 0.031090
Si Si4 0.401337 0.000000 0.500000
Si Si5 0.322304 0.202974 0.086085
Si Si6 0.640171 0.555017 0.346123
Si Si7 0.857979 0.687168 0.582637
O O1 0.500000 0.064886 0.750000
O O2 0.529924 0.050507 0.542240
O O3 0.514251 0.147239 0.636070
O O4 0.836260 0.093352 0.621796
O O5 0.374832 0.162092 0.175324
O O6 0.331122 0.090247 0.309019
O O7 0.826686 0.852774 0.064159
O O8 0.991811 0.915316 0.933208
O O9 0.165542 0.827684 0.987242
O O10 0.251376 0.007907 0.404602
O O11 0.232881 0.258413 0.128876
O O12 0.527603 0.208231 0.020114
O O13 0.500000 0.541363 0.250000
#
# Coordination Sequence:
#
# PCOD9321414 Si02
#       7
#     8   4   8   4   8   8   8
#     4  11  28  48  70 103 146 187 245 303 358 436
#     4  12  24  42  68 112 138 178 248 300 342 446
#     4  11  22  45  71  99 145 186 230 301 360 427
#     4  12  28  50  72 104 138 188 244 302 376 424
#     4  11  22  38  71 101 142 188 233 289 357 429
#     4  12  26  46  75 107 140 185 245 307 366 429
#     4  11  22  44  67 102 144 188 234 289 356 429
#
# _framework density 22.349513000000002
#
# number of rings (size 3 to 8) (size 9 to 14) (size 15 to 20)
#    0.000    0.667    6.667    1.000    1.167    4.000 
#    3.000    0.000    0.000    0.000    0.000    0.000 
#    0.000    0.000    0.000    0.000    0.000    0.000 
#
# Total GULP energy -133939.084477 kJ/mol
# GULP energy per Si atom -5580.795187 kJ/mol
# Density = 2.229864 g / cm^3
# Si number density = 22.349513 Si / 1000 Ang^3
#
#
#
# Elastic Constant Matrix: (Units=GPa)
#
#
# Indices 1 2 3 4 5 6 
#
# 1 92.7470 13.0438 15.9693 0.0000 0.0000 0.0000
# 2 13.0438 52.7232 9.7772 0.0000 0.0000 0.0000
# 3 15.9693 9.7772 59.3061 0.0000 0.0000 0.0000
# 4 0.0000 0.0000 0.0000 -353.0464 0.0000 0.0000
# 5 0.0000 0.0000 0.0000 0.0000 26.6455 0.0000
# 6 0.0000 0.0000 0.0000 0.0000 0.0000 9.7907
#
#
#
# Elastic Compliance Matrix: (Units=1/GPa)
#
#
# Indices 1 2 3 4 5 6 
#
# 1 0.011584 -0.002360 -0.002730 0.000000 0.000000 0.000000
# 2 -0.002360 0.020046 -0.002669 0.000000 0.000000 0.000000
# 3 -0.002730 -0.002669 0.018037 0.000000 0.000000 0.000000
# 4 0.000000 0.000000 0.000000 -0.002832 0.000000 0.000000
# 5 0.000000 0.000000 0.000000 0.000000 0.037530 0.000000
# 6 0.000000 0.000000 0.000000 0.000000 0.000000 0.102137
#
#
# Mechanical properties :
#
#
# Convention : Reuss Voigt Hill
#
# Bulk Modulus (GPa) = 29.28405 31.37300 30.32853
# Shear Modulus (GPa) = 23.42991 -52.25629 -14.41319
#
# Velocity S-wave (km/s) = 3.24132 -4.84068 -2.54224
# Velocity P-wave (km/s) = 5.20955 4.14427 2.23209
#
# Compressibility (1/GPa) = 0.03414828
#
# Stress axis : x y z
#
# Youngs Moduli (GPa) = 86.32628 49.88587 55.44190
#
# Poissons Ratio (x) = 0.11771 0.15137
# Poissons Ratio (y) = 0.20370 0.14799
# Poissons Ratio (z) = 0.23569 0.13316
#
# Static dielectric constant tensor:
#      x y z
#    x 3.790330 0.000000 0.000000 
#    y 0.000000 1.850590 0.000000 
#    z 0.000000 0.000000 1.931910 
# 
# From -- ./inp_files/17828.got.cif
#   From: 2010.05.17/outbox.cif.g08.bks.cpg/sg20_9_cif.got.tgz:17828.got - 2010.06.03 22:52:26.
