data_PCOD9321526
_publ_section_title
;
Structure prediction by ZEFSAII (Michael W. Deem and Ramdas Pophale) SiO2 
 PCOD9321526
Probable space group: C 2 2 21
;
_chemical_formula_sum "Si O2"
_cell_formula_units_Z 32
_cell_length_a 17.630916
_cell_length_b 7.706401
_cell_length_c 11.398790
_cell_angle_alpha 90.000000
_cell_angle_beta 90.000000
_cell_angle_gamma 90.000000
_cell_volume 1548.763955
_symmetry_space_group_name_H-M "C 2 2 21"
_symmetry_group_IT_number 20
_symmetry_cell_setting 'orthorhombic'
loop_
_space_group_symop_operation_xyz
x,y,z
-x,-y,1/2+z
x,-y,-z
-x,y,1/2-z
1/2+x,1/2+y,z
1/2-x,1/2-y,1/2+z
1/2+x,1/2-y,-z
1/2-x,1/2+y,1/2-z
loop_
_atom_site_type_symbol
_atom_site_label
_atom_site_fract_x
_atom_site_fract_y
_atom_site_fract_z
Si Si1 0.051370 0.693470 0.645769
Si Si2 0.094415 0.000000 0.500000
Si Si3 0.347440 0.671093 0.766901
Si Si4 0.291117 0.030949 0.862590
Si Si5 0.000000 0.644683 0.250000
O O1 0.140633 0.661859 0.673603
O O2 0.000000 0.772335 0.750000
O O3 0.020174 0.493939 0.645743
O O4 0.048775 0.827625 0.538877
O O5 0.141372 0.057024 0.615254
O O6 0.292576 0.587234 0.672507
O O7 0.429476 0.732934 0.723424
O O8 0.307257 0.849364 0.801995
O O9 0.299793 0.000000 0.000000
#
# Coordination Sequence:
#
# PCOD9321526 Si02
#       5
#     8   4   8   8   4
#     4   9  21  42  70  98 135 188 229 283 350 411
#     4  12  22  40  76  98 140 180 228 296 354 412
#     4  11  24  43  72 101 139 181 236 286 356 421
#     4  11  22  45  74 100 141 186 233 294 353 417
#     4   8  22  44  66  96 138 182 226 288 340 420
#
# _framework density 20.661636999999999
#
# number of rings (size 3 to 8) (size 9 to 14) (size 15 to 20)
#    0.750    1.000    2.500    1.500    1.750    0.000 
#    2.250    0.000    8.250    0.000    0.000    0.000 
#    0.000    0.000    0.000    0.000    0.000    0.000 
#
# Total GULP energy -89153.673289 kJ/mol
# GULP energy per Si atom -5572.104581 kJ/mol
# Density = 2.061461 g / cm^3
# Si number density = 20.661637 Si / 1000 Ang^3
#
#
#
# Elastic Constant Matrix: (Units=GPa)
#
#
# Indices 1 2 3 4 5 6 
#
# 1 143.6356 47.3897 35.3573 0.0000 0.0000 0.0000
# 2 47.3897 99.4056 12.2009 0.0000 0.0000 0.0000
# 3 35.3573 12.2009 39.9560 0.0000 0.0000 0.0000
# 4 0.0000 0.0000 0.0000 45.1104 0.0000 0.0000
# 5 0.0000 0.0000 0.0000 0.0000 26.7558 0.0000
# 6 0.0000 0.0000 0.0000 0.0000 0.0000 -57.6982
#
#
#
# Elastic Compliance Matrix: (Units=1/GPa)
#
#
# Indices 1 2 3 4 5 6 
#
# 1 0.010167 -0.003889 -0.007810 0.000000 0.000000 0.000000
# 2 -0.003889 0.011939 -0.000205 0.000000 0.000000 0.000000
# 3 -0.007810 -0.000205 0.032001 0.000000 0.000000 0.000000
# 4 0.000000 0.000000 0.000000 0.022168 0.000000 0.000000
# 5 0.000000 0.000000 0.000000 0.000000 0.037375 0.000000
# 6 0.000000 0.000000 0.000000 0.000000 0.000000 -0.017332
#
#
# Mechanical properties :
#
#
# Convention : Reuss Voigt Hill
#
# Bulk Modulus (GPa) = 33.00201 52.54367 42.77284
# Shear Modulus (GPa) = 38.39513 15.37022 26.88268
#
# Velocity S-wave (km/s) = 4.31546 2.73041 3.61098
# Velocity P-wave (km/s) = 6.39047 5.95197 6.17512
#
# Compressibility (1/GPa) = 0.03030118
#
# Stress axis : x y z
#
# Youngs Moduli (GPa) = 98.35268 83.76111 31.24907
#
# Poissons Ratio (x) = 0.32571 0.24405
# Poissons Ratio (y) = 0.38245 0.00639
# Poissons Ratio (z) = 0.76812 0.01713
#
# Static dielectric constant tensor:
#      x y z
#    x 1.744750 0.000000 0.000000 
#    y 0.000000 1.746800 0.000000 
#    z 0.000000 0.000000 2.055860 
# 
# From -- ./inp_files/12536.got.cif
#   From: 2010.05.17/outbox.cif.g08.bks.cpg/sg20_7_cif.got.tgz:12536.got - 2010.06.03 22:52:26.
