data_PCOD9321130
_publ_section_title
;
Structure prediction by ZEFSAII (Michael W. Deem and Ramdas Pophale) SiO2 
 PCOD9321130
Probable space group: C 2 2 21
;
_chemical_formula_sum "Si O2"
_cell_formula_units_Z 32
_cell_length_a 5.122277
_cell_length_b 23.140485
_cell_length_c 11.046121
_cell_angle_alpha 90.000000
_cell_angle_beta 90.000000
_cell_angle_gamma 90.000000
_cell_volume 1309.318528
_symmetry_space_group_name_H-M "C 2 2 21"
_symmetry_group_IT_number 20
_symmetry_cell_setting 'orthorhombic'
loop_
_space_group_symop_operation_xyz
x,y,z
-x,-y,1/2+z
x,-y,-z
-x,y,1/2-z
1/2+x,1/2+y,z
1/2-x,1/2-y,1/2+z
1/2+x,1/2-y,-z
1/2-x,1/2+y,1/2-z
loop_
_atom_site_type_symbol
_atom_site_label
_atom_site_fract_x
_atom_site_fract_y
_atom_site_fract_z
Si Si1 0.761118 0.933634 0.171351
Si Si2 0.000000 0.685087 0.250000
Si Si3 0.707069 0.765161 0.423906
Si Si4 0.395235 0.883423 0.993809
Si Si5 0.940389 0.000000 0.500000
O O1 0.500000 0.941157 0.250000
O O2 0.000000 0.910583 0.250000
O O3 0.675610 0.896962 0.054209
O O4 0.873790 0.992827 0.115835
O O5 0.215380 0.728075 0.192436
O O6 0.089039 0.644936 0.361483
O O7 0.420745 0.751943 0.474717
O O8 0.721230 0.834180 0.417985
O O9 0.237286 0.943085 0.992524
#
# Coordination Sequence:
#
# PCOD9321130 Si02
#       5
#     8   4   8   8   4
#     4  12  28  52  76 121 175 223 265 341 419 512
#     4  10  26  54  90 114 162 214 292 356 398 514
#     4  10  25  50  77 118 157 206 272 343 416 474
#     4  11  27  53  84 126 167 217 283 342 434 493
#     4  12  28  50  82 128 166 220 280 330 432 506
#
# _framework density 24.440197000000001
#
# number of rings (size 3 to 8) (size 9 to 14) (size 15 to 20)
#    0.000    1.000    2.500    0.750    7.000   10.000 
#    9.000    0.000    0.000    0.000    0.000    0.000 
#    0.000    0.000    0.000    0.000    0.000    0.000 
#
# Total GULP energy -89535.484003 kJ/mol
# GULP energy per Si atom -5595.967750 kJ/mol
# Density = 2.438457 g / cm^3
# Si number density = 24.440197 Si / 1000 Ang^3
#
#
#
# Elastic Constant Matrix: (Units=GPa)
#
#
# Indices 1 2 3 4 5 6 
#
# 1 111.5838 66.2532 68.7660 0.0000 0.0000 0.0000
# 2 66.2532 183.0274 58.6623 0.0000 0.0000 0.0000
# 3 68.7660 58.6623 161.4585 0.0000 0.0000 0.0000
# 4 0.0000 0.0000 0.0000 60.4602 0.0000 0.0000
# 5 0.0000 0.0000 0.0000 0.0000 52.5885 0.0000
# 6 0.0000 0.0000 0.0000 0.0000 0.0000 28.0541
#
#
#
# Elastic Compliance Matrix: (Units=1/GPa)
#
#
# Indices 1 2 3 4 5 6 
#
# 1 0.013934 -0.003556 -0.004643 0.000000 0.000000 0.000000
# 2 -0.003556 0.007091 -0.001062 0.000000 0.000000 0.000000
# 3 -0.004643 -0.001062 0.008557 0.000000 0.000000 0.000000
# 4 0.000000 0.000000 0.000000 0.016540 0.000000 0.000000
# 5 0.000000 0.000000 0.000000 0.000000 0.019016 0.000000
# 6 0.000000 0.000000 0.000000 0.000000 0.000000 0.035645
#
#
# Mechanical properties :
#
#
# Convention : Reuss Voigt Hill
#
# Bulk Modulus (GPa) = 90.40720 93.71472 92.06096
# Shear Modulus (GPa) = 40.65316 45.71311 43.18313
#
# Velocity S-wave (km/s) = 4.08287 4.32951 4.20800
# Velocity P-wave (km/s) = 7.70052 7.96371 7.83322
#
# Compressibility (1/GPa) = 0.01106107
#
# Stress axis : x y z
#
# Youngs Moduli (GPa) = 71.76447 141.01900 116.86694
#
# Poissons Ratio (x) = 0.50147 0.54259
# Poissons Ratio (y) = 0.25520 0.12410
# Poissons Ratio (z) = 0.33319 0.14975
#
# Static dielectric constant tensor:
#      x y z
#    x 1.997700 0.000000 0.000000 
#    y 0.000000 1.962410 0.000000 
#    z 0.000000 0.000000 2.016280 
# 
# From -- ./inp_files/11951.got.cif
#   From: 2010.05.17/outbox.cif.g08.bks.cpg/sg20_6_cif.got.tgz:11951.got - 2010.06.03 22:52:26.
