data_PCOD9321903
_publ_section_title
;
Structure prediction by ZEFSAII (Michael W. Deem and Ramdas Pophale) SiO2 
 PCOD9321903
Probable space group: C 2 2 21
;
_chemical_formula_sum "Si O2"
_cell_formula_units_Z 36
_cell_length_a 20.660515
_cell_length_b 9.218778
_cell_length_c 8.445124
_cell_angle_alpha 90.000000
_cell_angle_beta 90.000000
_cell_angle_gamma 90.000000
_cell_volume 1608.498019
_symmetry_space_group_name_H-M "C 2 2 21"
_symmetry_group_IT_number 20
_symmetry_cell_setting 'orthorhombic'
loop_
_space_group_symop_operation_xyz
x,y,z
-x,-y,1/2+z
x,-y,-z
-x,y,1/2-z
1/2+x,1/2+y,z
1/2-x,1/2-y,1/2+z
1/2+x,1/2-y,-z
1/2-x,1/2+y,1/2-z
loop_
_atom_site_type_symbol
_atom_site_label
_atom_site_fract_x
_atom_site_fract_y
_atom_site_fract_z
Si Si1 0.567373 0.454004 0.808408
Si Si2 0.574725 0.229238 0.279147
Si Si3 0.188215 0.348786 0.945126
Si Si4 0.309515 0.738924 0.222653
Si Si5 0.146545 0.500000 0.500000
O O1 0.500000 0.384606 0.750000
O O2 0.572055 0.597908 0.697318
O O3 0.624158 0.346482 0.754680
O O4 0.567684 0.500000 0.000000
O O5 0.500000 0.187084 0.250000
O O6 0.603689 0.115858 0.403234
O O7 0.628427 0.225435 0.140161
O O8 0.213068 0.273409 0.101683
O O9 0.160249 0.500000 0.000000
O O10 0.252947 0.361327 0.844481
O O11 0.316825 0.888971 0.121562
#
# Coordination Sequence:
#
# PCOD9321903 Si02
#       5
#     8   8   8   8   4
#     4  11  27  50  80 109 148 197 250 306 372 442
#     4  11  27  48  75 110 149 194 255 303 372 443
#     4  12  27  48  74 108 148 201 245 312 373 438
#     4  12  29  47  77 106 156 190 256 303 373 446
#     4  12  28  46  74 110 148 202 244 306 378 434
#
# _framework density 22.381128
#
# number of rings (size 3 to 8) (size 9 to 14) (size 15 to 20)
#    0.000    0.444    4.444    1.333   14.000    0.889 
#    2.000    0.000    0.000    0.000    0.000    0.000 
#    0.000    0.000    0.000    0.000    0.000    0.000 
#
# Total GULP energy -100336.755783 kJ/mol
# GULP energy per Si atom -5574.264210 kJ/mol
# Density = 2.233019 g / cm^3
# Si number density = 22.381128 Si / 1000 Ang^3
#
#
#
# Elastic Constant Matrix: (Units=GPa)
#
#
# Indices 1 2 3 4 5 6 
#
# 1 113.7807 17.3381 37.4262 0.0000 0.0000 0.0000
# 2 17.3381 56.7097 20.8130 0.0000 0.0000 0.0000
# 3 37.4262 20.8130 99.8236 0.0000 0.0000 0.0000
# 4 0.0000 0.0000 0.0000 21.6932 0.0000 0.0000
# 5 0.0000 0.0000 0.0000 0.0000 17.3152 0.0000
# 6 0.0000 0.0000 0.0000 0.0000 0.0000 51.8000
#
#
#
# Elastic Compliance Matrix: (Units=1/GPa)
#
#
# Indices 1 2 3 4 5 6 
#
# 1 0.010203 -0.001858 -0.003438 0.000000 0.000000 0.000000
# 2 -0.001858 0.019433 -0.003355 0.000000 0.000000 0.000000
# 3 -0.003438 -0.003355 0.012006 0.000000 0.000000 0.000000
# 4 0.000000 0.000000 0.000000 0.046097 0.000000 0.000000
# 5 0.000000 0.000000 0.000000 0.000000 0.057753 0.000000
# 6 0.000000 0.000000 0.000000 0.000000 0.000000 0.019305
#
#
# Mechanical properties :
#
#
# Convention : Reuss Voigt Hill
#
# Bulk Modulus (GPa) = 41.08405 46.82986 43.95695
# Shear Modulus (GPa) = 26.28642 31.14412 28.71527
#
# Velocity S-wave (km/s) = 3.43080 3.73437 3.58580
# Velocity P-wave (km/s) = 5.83869 6.28994 6.06851
#
# Compressibility (1/GPa) = 0.02434035
#
# Stress axis : x y z
#
# Youngs Moduli (GPa) = 98.01275 51.45879 83.29017
#
# Poissons Ratio (x) = 0.09559 0.28635
# Poissons Ratio (y) = 0.18207 0.27946
# Poissons Ratio (z) = 0.33696 0.17266
#
# Static dielectric constant tensor:
#      x y z
#    x 1.794450 0.000000 0.000000 
#    y 0.000000 1.837340 0.000000 
#    z 0.000000 0.000000 1.889780 
# 
# From -- ./inp_files/5887.got.cif
#   From: 2010.05.17/outbox.cif.g08.bks.cpg/sg20_3_cif.got.tgz:5887.got - 2010.06.03 22:52:26.
