data_PCOD9321374
_publ_section_title
;
Structure prediction by ZEFSAII (Michael W. Deem and Ramdas Pophale) SiO2 
 PCOD9321374
Probable space group: C 2 2 21
;
_chemical_formula_sum "Si O2"
_cell_formula_units_Z 48
_cell_length_a 12.861575
_cell_length_b 10.573119
_cell_length_c 14.193390
_cell_angle_alpha 90.000000
_cell_angle_beta 90.000000
_cell_angle_gamma 90.000000
_cell_volume 1930.116001
_symmetry_space_group_name_H-M "C 2 2 21"
_symmetry_group_IT_number 20
_symmetry_cell_setting 'orthorhombic'
loop_
_space_group_symop_operation_xyz
x,y,z
-x,-y,1/2+z
x,-y,-z
-x,y,1/2-z
1/2+x,1/2+y,z
1/2-x,1/2-y,1/2+z
1/2+x,1/2-y,-z
1/2-x,1/2+y,1/2-z
loop_
_atom_site_type_symbol
_atom_site_label
_atom_site_fract_x
_atom_site_fract_y
_atom_site_fract_z
Si Si1 0.388134 0.626261 0.804461
Si Si2 0.699482 0.885489 0.648624
Si Si3 0.354698 0.275994 0.383844
Si Si4 0.142053 0.000000 0.000000
Si Si5 0.171194 0.858389 0.658684
Si Si6 0.500000 0.817647 0.250000
Si Si7 0.522101 0.979230 0.889438
O O1 0.500000 0.628254 0.750000
O O2 0.352438 0.746898 0.863875
O O3 0.320828 0.644776 0.708548
O O4 0.371842 0.497828 0.860691
O O5 0.755116 0.882293 0.749841
O O6 0.599914 0.975094 0.635350
O O7 0.784865 0.928867 0.574680
O O8 0.410305 0.380007 0.449364
O O9 0.246600 0.210563 0.415834
O O10 0.427896 0.155842 0.363937
O O11 0.076899 0.770627 0.690737
O O12 0.438337 0.906366 0.324545
O O13 0.538312 0.000000 0.000000
#
# Coordination Sequence:
#
# PCOD9321374 Si02
#       7
#     8   8   8   4   8   4   8
#     4  11  21  43  67 100 133 182 233 289 348 422
#     4  11  24  42  69  99 140 186 233 297 358 428
#     4  11  26  43  70 101 138 186 232 299 356 432
#     4  12  24  46  68  98 142 184 232 296 360 424
#     4  11  25  42  73 102 138 190 240 298 364 433
#     4  12  26  46  70 108 144 192 250 300 362 444
#     4  12  27  45  72 105 147 192 248 301 370 436
#
# _framework density 24.868970000000001
#
# number of rings (size 3 to 8) (size 9 to 14) (size 15 to 20)
#    0.000    0.667    5.000    3.000    9.333    0.000 
#    0.000    0.000    0.000    0.000    0.000    0.000 
#    0.000    0.000    0.000    0.000    0.000    0.000 
#
# Total GULP energy -134042.182730 kJ/mol
# GULP energy per Si atom -5585.090947 kJ/mol
# Density = 2.481237 g / cm^3
# Si number density = 24.868970 Si / 1000 Ang^3
#
#
#
# Elastic Constant Matrix: (Units=GPa)
#
#
# Indices 1 2 3 4 5 6 
#
# 1 53.3969 12.8389 -15.5651 0.0000 0.0000 0.0000
# 2 12.8389 151.3037 11.8914 0.0000 0.0000 0.0000
# 3 -15.5651 11.8914 65.0385 0.0000 0.0000 0.0000
# 4 0.0000 0.0000 0.0000 42.0720 0.0000 0.0000
# 5 0.0000 0.0000 0.0000 0.0000 19.5380 0.0000
# 6 0.0000 0.0000 0.0000 0.0000 0.0000 33.4180
#
#
#
# Elastic Compliance Matrix: (Units=1/GPa)
#
#
# Indices 1 2 3 4 5 6 
#
# 1 0.020824 -0.002190 0.005384 0.000000 0.000000 0.000000
# 2 -0.002190 0.006936 -0.001792 0.000000 0.000000 0.000000
# 3 0.005384 -0.001792 0.016992 0.000000 0.000000 0.000000
# 4 0.000000 0.000000 0.000000 0.023769 0.000000 0.000000
# 5 0.000000 0.000000 0.000000 0.000000 0.051182 0.000000
# 6 0.000000 0.000000 0.000000 0.000000 0.000000 0.029924
#
#
# Mechanical properties :
#
#
# Convention : Reuss Voigt Hill
#
# Bulk Modulus (GPa) = 21.02855 32.00774 26.51815
# Shear Modulus (GPa) = 30.73617 36.37719 33.55668
#
# Velocity S-wave (km/s) = 3.51939 3.82875 3.67732
# Velocity P-wave (km/s) = 4.99889 5.69598 5.35878
#
# Compressibility (1/GPa) = 0.04755439
#
# Stress axis : x y z
#
# Youngs Moduli (GPa) = 48.02227 144.17681 58.85229
#
# Poissons Ratio (x) = 0.31577 -0.31686
# Poissons Ratio (y) = 0.10518 0.10548
# Poissons Ratio (z) = -0.25855 0.25841
#
# Static dielectric constant tensor:
#      x y z
#    x 2.027710 0.000000 0.000000 
#    y 0.000000 2.037160 0.000000 
#    z 0.000000 0.000000 2.026360 
# 
# From -- ./inp_files/24863.got.cif
#   From: 2010.05.17/outbox.cif.g08.bks.cpg/sg20_13_cif.got.tgz:24863.got - 2010.06.03 22:52:26.
