data_PCOD9321824
_publ_section_title
;
Structure prediction by ZEFSAII (Michael W. Deem and Ramdas Pophale) SiO2 
 PCOD9321824
Probable space group: C 2 2 21
;
_chemical_formula_sum "Si O2"
_cell_formula_units_Z 48
_cell_length_a 18.340763
_cell_length_b 5.042372
_cell_length_c 25.263174
_cell_angle_alpha 90.000000
_cell_angle_beta 90.000000
_cell_angle_gamma 90.000000
_cell_volume 2336.362327
_symmetry_space_group_name_H-M "C 2 2 21"
_symmetry_group_IT_number 20
_symmetry_cell_setting 'orthorhombic'
loop_
_space_group_symop_operation_xyz
x,y,z
-x,-y,1/2+z
x,-y,-z
-x,y,1/2-z
1/2+x,1/2+y,z
1/2-x,1/2-y,1/2+z
1/2+x,1/2-y,-z
1/2-x,1/2+y,1/2-z
loop_
_atom_site_type_symbol
_atom_site_label
_atom_site_fract_x
_atom_site_fract_y
_atom_site_fract_z
Si Si1 0.287302 0.095560 0.271115
Si Si2 0.749998 0.637057 0.388490
Si Si3 0.583068 0.239137 0.638700
Si Si4 0.808579 0.138621 0.444580
Si Si5 0.020947 0.243981 0.037204
Si Si6 0.068969 0.762146 0.287253
O O1 0.227066 0.321233 0.259188
O O2 0.282842 0.036028 0.333017
O O3 0.360689 0.227822 0.249921
O O4 0.664631 0.696271 0.381378
O O5 0.765993 0.407723 0.431049
O O6 0.789987 0.911184 0.402398
O O7 0.528243 0.246227 0.589291
O O8 0.564392 0.456624 0.683412
O O9 0.577615 0.954862 0.666611
O O10 0.894288 0.205648 0.446852
O O11 0.788068 0.000000 0.500000
O O12 0.014868 0.500000 0.000000
O O13 0.999185 0.000000 0.000000
O O14 0.000000 0.715123 0.250000
#
# Coordination Sequence:
#
# PCOD9321824 Si02
#       6
#     8   8   8   8   8   8
#     4  12  23  44  67  97 139 177 215 272 335 393
#     4  12  24  42  70  99 131 176 219 276 335 395
#     4  12  26  45  67 101 136 175 224 275 333 400
#     4  11  25  44  69  97 131 168 225 277 330 400
#     4  11  25  47  68  95 132 175 219 276 337 396
#     4  12  26  44  66 102 138 178 224 275 324 404
#
# _framework density 20.544758000000002
#
# number of rings (size 3 to 8) (size 9 to 14) (size 15 to 20)
#    0.000    0.333    3.333    6.000    4.667    2.000 
#    0.000    0.000    0.000    0.000    0.000    0.000 
#    0.000    0.000    0.000    0.000    0.000    0.000 
#
# Total GULP energy -134333.117122 kJ/mol
# GULP energy per Si atom -5597.213213 kJ/mol
# Density = 2.049800 g / cm^3
# Si number density = 20.544758 Si / 1000 Ang^3
#
#
#
# Elastic Constant Matrix: (Units=GPa)
#
#
# Indices 1 2 3 4 5 6 
#
# 1 80.9151 14.8135 51.3822 0.0000 0.0000 0.0000
# 2 14.8135 99.1596 7.9734 0.0000 0.0000 0.0000
# 3 51.3822 7.9734 79.1911 0.0000 0.0000 0.0000
# 4 0.0000 0.0000 0.0000 45.8773 0.0000 0.0000
# 5 0.0000 0.0000 0.0000 0.0000 38.9422 0.0000
# 6 0.0000 0.0000 0.0000 0.0000 0.0000 -11.1411
#
#
#
# Elastic Compliance Matrix: (Units=1/GPa)
#
#
# Indices 1 2 3 4 5 6 
#
# 1 0.021445 -0.002102 -0.013703 0.000000 0.000000 0.000000
# 2 -0.002102 0.010373 0.000319 0.000000 0.000000 0.000000
# 3 -0.013703 0.000319 0.021486 0.000000 0.000000 0.000000
# 4 0.000000 0.000000 0.000000 0.021797 0.000000 0.000000
# 5 0.000000 0.000000 0.000000 0.000000 0.025679 0.000000
# 6 0.000000 0.000000 0.000000 0.000000 0.000000 -0.089757
#
#
# Mechanical properties :
#
#
# Convention : Reuss Voigt Hill
#
# Bulk Modulus (GPa) = 44.77479 45.28932 45.03206
# Shear Modulus (GPa) = 101.13732 27.07544 64.10638
#
# Velocity S-wave (km/s) = 7.02386 3.63419 5.59205
# Velocity P-wave (km/s) = 9.36059 6.30094 7.97880
#
# Compressibility (1/GPa) = 0.02233399
#
# Stress axis : x y z
#
# Youngs Moduli (GPa) = 46.63153 96.40348 46.54140
#
# Poissons Ratio (x) = 0.20262 0.63773
# Poissons Ratio (y) = 0.09801 -0.01486
# Poissons Ratio (z) = 0.63897 -0.03078
#
# Static dielectric constant tensor:
#      x y z
#    x 1.744060 0.000000 0.000000 
#    y 0.000000 1.692840 0.000000 
#    z 0.000000 0.000000 1.754740 
# 
# From -- ./inp_files/29421.got.cif
#   From: 2010.05.17/outbox.cif.g08.bks.cpg/sg20_15_cif.got.tgz:29421.got - 2010.06.03 22:52:26.
