data_PCOD9321745
_publ_section_title
;
Structure prediction by ZEFSAII (Michael W. Deem and Ramdas Pophale) SiO2 
 PCOD9321745
Probable space group: C 2 2 21
;
_chemical_formula_sum "Si O2"
_cell_formula_units_Z 40
_cell_length_a 17.119566
_cell_length_b 7.411112
_cell_length_c 13.662091
_cell_angle_alpha 90.000000
_cell_angle_beta 90.000000
_cell_angle_gamma 90.000000
_cell_volume 1733.378083
_symmetry_space_group_name_H-M "C 2 2 21"
_symmetry_group_IT_number 20
_symmetry_cell_setting 'orthorhombic'
loop_
_space_group_symop_operation_xyz
x,y,z
-x,-y,1/2+z
x,-y,-z
-x,y,1/2-z
1/2+x,1/2+y,z
1/2-x,1/2-y,1/2+z
1/2+x,1/2-y,-z
1/2-x,1/2+y,1/2-z
loop_
_atom_site_type_symbol
_atom_site_label
_atom_site_fract_x
_atom_site_fract_y
_atom_site_fract_z
Si Si1 0.392898 0.350524 0.132107
Si Si2 0.371005 0.239538 0.920256
Si Si3 0.996534 0.529819 0.362127
Si Si4 0.251957 0.249914 0.260325
Si Si5 0.818275 0.558311 0.607341
O O1 0.399886 0.564401 0.118441
O O2 0.338583 0.309775 0.225262
O O3 0.472573 0.235710 0.134036
O O4 0.350887 0.272527 0.033882
O O5 0.442144 0.101390 0.913803
O O6 0.301620 0.171522 0.849283
O O7 0.000000 0.473813 0.250000
O O8 0.908545 0.494368 0.393475
O O9 0.199261 0.250757 0.160593
O O10 0.272317 0.059176 0.311603
O O11 0.789284 0.500000 0.500000
#
# Coordination Sequence:
#
# PCOD9321745 Si02
#       5
#     8   8   8   8   8
#     4  11  24  44  71 103 141 188 237 293 358 426
#     4  11  24  44  71 103 141 188 237 293 358 426
#     4  12  24  47  73 100 143 191 241 297 362 420
#     4  12  22  42  70 100 144 178 228 302 356 418
#     4  12  26  47  72 104 144 189 240 300 358 432
#
# _framework density 23.076325000000001
#
# number of rings (size 3 to 8) (size 9 to 14) (size 15 to 20)
#    0.000    0.400    6.000    3.000    0.000    0.800 
#    3.600    3.000    0.000    0.000    0.000    0.000 
#    0.000    0.000    0.000    0.000    0.000    0.000 
#
# Total GULP energy -111537.430168 kJ/mol
# GULP energy per Si atom -5576.871508 kJ/mol
# Density = 2.302380 g / cm^3
# Si number density = 23.076325 Si / 1000 Ang^3
#
#
#
# Elastic Constant Matrix: (Units=GPa)
#
#
# Indices 1 2 3 4 5 6 
#
# 1 112.8341 33.0372 15.9265 0.0000 0.0000 0.0000
# 2 33.0372 89.0668 37.0128 0.0000 0.0000 0.0000
# 3 15.9265 37.0128 151.4323 0.0000 0.0000 0.0000
# 4 0.0000 0.0000 0.0000 37.6207 0.0000 0.0000
# 5 0.0000 0.0000 0.0000 0.0000 10.6909 0.0000
# 6 0.0000 0.0000 0.0000 0.0000 0.0000 41.6701
#
#
#
# Elastic Compliance Matrix: (Units=1/GPa)
#
#
# Indices 1 2 3 4 5 6 
#
# 1 0.009946 -0.003622 -0.000161 0.000000 0.000000 0.000000
# 2 -0.003622 0.013816 -0.002996 0.000000 0.000000 0.000000
# 3 -0.000161 -0.002996 0.007353 0.000000 0.000000 0.000000
# 4 0.000000 0.000000 0.000000 0.026581 0.000000 0.000000
# 5 0.000000 0.000000 0.000000 0.000000 0.093537 0.000000
# 6 0.000000 0.000000 0.000000 0.000000 0.000000 0.023998
#
#
# Mechanical properties :
#
#
# Convention : Reuss Voigt Hill
#
# Bulk Modulus (GPa) = 56.95802 58.36514 57.66158
# Shear Modulus (GPa) = 25.68823 35.82011 30.75417
#
# Velocity S-wave (km/s) = 3.34006 3.94413 3.65460
# Velocity P-wave (km/s) = 6.29371 6.78886 6.54597
#
# Compressibility (1/GPa) = 0.01755679
#
# Stress axis : x y z
#
# Youngs Moduli (GPa) = 100.54421 72.37884 136.00317
#
# Poissons Ratio (x) = 0.26219 0.02185
# Poissons Ratio (y) = 0.36421 0.40746
# Poissons Ratio (z) = 0.01615 0.21684
#
# Static dielectric constant tensor:
#      x y z
#    x 1.873090 0.000000 0.000000 
#    y 0.000000 2.076870 0.000000 
#    z 0.000000 0.000000 1.965640 
# 
# From -- ./inp_files/21145.got.cif
#   From: 2010.05.17/outbox.cif.g08.bks.cpg/sg20_11_cif.got.tgz:21145.got - 2010.06.03 22:52:26.
