data_PCOD9321008
_publ_section_title
;
Structure prediction by ZEFSAII (Michael W. Deem and Ramdas Pophale) SiO2 
 PCOD9321008
Probable space group: C 2 2 21
;
_chemical_formula_sum "Si O2"
_cell_formula_units_Z 40
_cell_length_a 26.137807
_cell_length_b 8.070633
_cell_length_c 8.513128
_cell_angle_alpha 90.000000
_cell_angle_beta 90.000000
_cell_angle_gamma 90.000000
_cell_volume 1795.832839
_symmetry_space_group_name_H-M "C 2 2 21"
_symmetry_group_IT_number 20
_symmetry_cell_setting 'orthorhombic'
loop_
_space_group_symop_operation_xyz
x,y,z
-x,-y,1/2+z
x,-y,-z
-x,y,1/2-z
1/2+x,1/2+y,z
1/2-x,1/2-y,1/2+z
1/2+x,1/2-y,-z
1/2-x,1/2+y,1/2-z
loop_
_atom_site_type_symbol
_atom_site_label
_atom_site_fract_x
_atom_site_fract_y
_atom_site_fract_z
Si Si1 0.227388 0.594003 0.839663
Si Si2 0.881445 0.491488 0.813680
Si Si3 0.579480 0.321167 0.809344
Si Si4 0.945853 0.194955 0.682965
Si Si5 0.185619 0.059712 0.161264
O O1 0.174094 0.526839 0.766174
O O2 0.221348 0.785940 0.874208
O O3 0.277766 0.572687 0.736194
O O4 0.236671 0.500000 0.000000
O O5 0.922380 0.635452 0.761910
O O6 0.902408 0.312565 0.758381
O O7 0.875532 0.500000 0.000000
O O8 0.555034 0.499731 0.769189
O O9 0.637347 0.367390 0.751317
O O10 0.564242 0.296896 0.994088
O O11 0.000000 0.258714 0.750000
O O12 0.161429 0.000000 0.000000
#
# Coordination Sequence:
#
# PCOD9321008 Si02
#       5
#     8   8   8   8   8
#     4  11  24  39  65  97 136 187 231 284 346 420
#     4  11  25  43  66 104 144 184 233 293 350 423
#     4  10  24  47  69 102 142 180 232 299 356 419
#     4  11  24  44  76 100 133 189 234 297 363 420
#     4  11  21  41  66  97 136 184 226 287 354 414
#
# _framework density 22.273786999999999
#
# number of rings (size 3 to 8) (size 9 to 14) (size 15 to 20)
#    0.000    1.200    2.000    4.800    2.800    8.000 
#    0.000    0.000    0.000    0.000    0.000    0.000 
#    0.000    0.000    0.000    0.000    0.000    0.000 
#
# Total GULP energy -111414.813605 kJ/mol
# GULP energy per Si atom -5570.740680 kJ/mol
# Density = 2.222309 g / cm^3
# Si number density = 22.273787 Si / 1000 Ang^3
#
#
#
# Elastic Constant Matrix: (Units=GPa)
#
#
# Indices 1 2 3 4 5 6 
#
# 1 66.6911 -5.5491 5.6235 0.0000 0.0000 0.0000
# 2 -5.5491 65.2374 6.3859 0.0000 0.0000 0.0000
# 3 5.6235 6.3859 55.7252 0.0000 0.0000 0.0000
# 4 0.0000 0.0000 0.0000 23.9158 0.0000 0.0000
# 5 0.0000 0.0000 0.0000 0.0000 19.1531 0.0000
# 6 0.0000 0.0000 0.0000 0.0000 0.0000 30.9777
#
#
#
# Elastic Compliance Matrix: (Units=1/GPa)
#
#
# Indices 1 2 3 4 5 6 
#
# 1 0.015260 0.001465 -0.001708 0.000000 0.000000 0.000000
# 2 0.001465 0.015643 -0.001941 0.000000 0.000000 0.000000
# 3 -0.001708 -0.001941 0.018340 0.000000 0.000000 0.000000
# 4 0.000000 0.000000 0.000000 0.041813 0.000000 0.000000
# 5 0.000000 0.000000 0.000000 0.000000 0.052211 0.000000
# 6 0.000000 0.000000 0.000000 0.000000 0.000000 0.032281
#
#
# Mechanical properties :
#
#
# Convention : Reuss Voigt Hill
#
# Bulk Modulus (GPa) = 22.28303 22.28603 22.28453
# Shear Modulus (GPa) = 25.65753 26.88888 26.27321
#
# Velocity S-wave (km/s) = 3.39767 3.47825 3.43819
# Velocity P-wave (km/s) = 5.04164 5.11450 5.07820
#
# Compressibility (1/GPa) = 0.04487720
#
# Stress axis : x y z
#
# Youngs Moduli (GPa) = 65.52887 63.92541 54.52583
#
# Poissons Ratio (x) = -0.09367 0.09313
# Poissons Ratio (y) = -0.09602 0.10581
# Poissons Ratio (z) = 0.11192 0.12405
#
# Static dielectric constant tensor:
#      x y z
#    x 1.885170 0.000000 0.000000 
#    y 0.000000 1.841450 0.000000 
#    z 0.000000 0.000000 1.847720 
# 
# From -- ./inp_files/6252.got.cif
#   From: 2010.05.17/outbox.cif.g08.bks.cpg/sg20_4_cif.got.tgz:6252.got - 2010.06.03 22:52:26.
