data_PCOD9321073
_publ_section_title
;
Structure prediction by ZEFSAII (Michael W. Deem and Ramdas Pophale) SiO2 
 PCOD9321073
Probable space group: C 2 2 21
;
_chemical_formula_sum "Si O2"
_cell_formula_units_Z 48
_cell_length_a 11.589888
_cell_length_b 8.242388
_cell_length_c 22.151252
_cell_angle_alpha 90.000000
_cell_angle_beta 90.000000
_cell_angle_gamma 90.000000
_cell_volume 2116.072638
_symmetry_space_group_name_H-M "C 2 2 21"
_symmetry_group_IT_number 20
_symmetry_cell_setting 'orthorhombic'
loop_
_space_group_symop_operation_xyz
x,y,z
-x,-y,1/2+z
x,-y,-z
-x,y,1/2-z
1/2+x,1/2+y,z
1/2-x,1/2-y,1/2+z
1/2+x,1/2-y,-z
1/2-x,1/2+y,1/2-z
loop_
_atom_site_type_symbol
_atom_site_label
_atom_site_fract_x
_atom_site_fract_y
_atom_site_fract_z
Si Si1 0.811744 0.443301 0.307477
Si Si2 0.900789 0.070919 0.593799
Si Si3 0.473364 0.944760 0.103294
Si Si4 0.853961 0.794343 0.098439
Si Si5 0.645271 0.237505 0.977231
Si Si6 0.782455 0.301651 0.178852
O O1 0.727672 0.320545 0.343638
O O2 0.828241 0.382730 0.239846
O O3 0.751812 0.617991 0.308747
O O4 0.929780 0.459810 0.344778
O O5 0.865303 0.212747 0.546459
O O6 0.829996 0.102676 0.654387
O O7 0.037057 0.087390 0.601999
O O8 0.868791 0.902656 0.562066
O O9 0.543439 0.877010 0.046377
O O10 0.377942 0.819560 0.126987
O O11 0.406834 0.113960 0.094510
O O12 0.770225 0.828125 0.041823
#
# Coordination Sequence:
#
# PCOD9321073 Si02
#       6
#     8   8   8   8   8   8
#     4  11  26  44  66 101 134 180 228 281 345 411
#     4  11  24  43  67 101 132 179 222 277 345 398
#     4  11  23  45  70  96 134 177 230 275 344 401
#     4  11  23  46  68  97 137 174 222 282 340 409
#     4  10  25  43  68  99 135 175 226 278 339 412
#     4  12  24  44  70  97 137 179 227 286 340 408
#
# _framework density 22.683530999999999
#
# number of rings (size 3 to 8) (size 9 to 14) (size 15 to 20)
#    0.000    1.000    3.333    2.500    4.667    1.333 
#    3.000    0.000    0.000    0.000    0.000    0.000 
#    0.000    0.000    0.000    0.000    0.000    0.000 
#
# Total GULP energy -134451.430667 kJ/mol
# GULP energy per Si atom -5602.142944 kJ/mol
# Density = 2.263190 g / cm^3
# Si number density = 22.683531 Si / 1000 Ang^3
#
#
#
# Elastic Constant Matrix: (Units=GPa)
#
#
# Indices 1 2 3 4 5 6 
#
# 1 129.1823 17.1996 20.5665 0.0000 0.0000 0.0000
# 2 17.1996 90.2433 6.7241 0.0000 0.0000 0.0000
# 3 20.5665 6.7241 73.1995 0.0000 0.0000 0.0000
# 4 0.0000 0.0000 0.0000 29.6631 0.0000 0.0000
# 5 0.0000 0.0000 0.0000 0.0000 6.2350 0.0000
# 6 0.0000 0.0000 0.0000 0.0000 0.0000 24.9322
#
#
#
# Elastic Compliance Matrix: (Units=1/GPa)
#
#
# Indices 1 2 3 4 5 6 
#
# 1 0.008279 -0.001414 -0.002196 0.000000 0.000000 0.000000
# 2 -0.001414 0.011399 -0.000650 0.000000 0.000000 0.000000
# 3 -0.002196 -0.000650 0.014338 0.000000 0.000000 0.000000
# 4 0.000000 0.000000 0.000000 0.033712 0.000000 0.000000
# 5 0.000000 0.000000 0.000000 0.000000 0.160384 0.000000
# 6 0.000000 0.000000 0.000000 0.000000 0.000000 0.040109
#
#
# Mechanical properties :
#
#
# Convention : Reuss Voigt Hill
#
# Bulk Modulus (GPa) = 39.22233 42.40061 40.81147
# Shear Modulus (GPa) = 17.52911 28.70838 23.11875
#
# Velocity S-wave (km/s) = 2.78289 3.56139 3.19593
# Velocity P-wave (km/s) = 5.25876 5.97028 5.62578
#
# Compressibility (1/GPa) = 0.02549568
#
# Stress axis : x y z
#
# Youngs Moduli (GPa) = 120.78840 87.72611 69.74458
#
# Poissons Ratio (x) = 0.12407 0.15317
# Poissons Ratio (y) = 0.17083 0.04532
# Poissons Ratio (z) = 0.26527 0.05700
#
# Static dielectric constant tensor:
#      x y z
#    x 1.821700 0.000000 0.000000 
#    y 0.000000 1.853760 0.000000 
#    z 0.000000 0.000000 1.796250 
# 
# From -- ./inp_files/29081.got.cif
#   From: 2010.05.17/outbox.cif.g08.bks.cpg/sg20_15_cif.got.tgz:29081.got - 2010.06.03 22:52:26.
