data_PCOD9321742
_publ_section_title
;
Structure prediction by ZEFSAII (Michael W. Deem and Ramdas Pophale) SiO2 
 PCOD9321742
Probable space group: C 2 2 21
;
_chemical_formula_sum "Si O2"
_cell_formula_units_Z 56
_cell_length_a 15.930526
_cell_length_b 10.777212
_cell_length_c 15.471662
_cell_angle_alpha 90.000000
_cell_angle_beta 90.000000
_cell_angle_gamma 90.000000
_cell_volume 2656.277911
_symmetry_space_group_name_H-M "C 2 2 21"
_symmetry_group_IT_number 20
_symmetry_cell_setting 'orthorhombic'
loop_
_space_group_symop_operation_xyz
x,y,z
-x,-y,1/2+z
x,-y,-z
-x,y,1/2-z
1/2+x,1/2+y,z
1/2-x,1/2-y,1/2+z
1/2+x,1/2-y,-z
1/2-x,1/2+y,1/2-z
loop_
_atom_site_type_symbol
_atom_site_label
_atom_site_fract_x
_atom_site_fract_y
_atom_site_fract_z
Si Si1 0.987678 0.117363 0.652930
Si Si2 0.636454 0.841905 0.840443
Si Si3 0.166983 0.947205 0.404476
Si Si4 0.088747 0.396940 0.206803
Si Si5 0.657175 0.836399 0.040446
Si Si6 0.659346 0.443048 0.917891
Si Si7 0.199076 0.161173 0.261818
O O1 0.942264 0.250595 0.658708
O O2 0.000000 0.067106 0.750000
O O3 0.081486 0.125896 0.615927
O O4 0.923384 0.024957 0.603640
O O5 0.715764 0.776092 0.796462
O O6 0.627458 0.966240 0.784018
O O7 0.658598 0.873628 0.940478
O O8 0.254071 0.869415 0.412231
O O9 0.155850 0.000000 0.500000
O O10 0.174453 0.060251 0.335474
O O11 0.085435 0.389104 0.102490
O O12 0.136952 0.275737 0.242178
O O13 0.000000 0.396617 0.250000
O O14 0.638521 0.691591 0.045092
O O15 0.704999 0.416103 0.827494
O O16 0.707863 0.500000 0.000000
#
# Coordination Sequence:
#
# PCOD9321742 Si02
#       7
#     8   8   8   8   8   8   8
#     4  12  27  42  73 107 146 189 252 308 364 434
#     4  12  25  49  73 107 149 196 238 314 375 448
#     4  12  24  46  72 112 142 195 251 307 368 450
#     4  11  26  45  69 105 144 191 244 299 371 440
#     4  11  24  46  77 102 149 195 243 301 383 442
#     4  11  24  44  70 107 143 190 241 309 364 434
#     4  11  26  43  77 102 145 191 251 298 372 447
#
# _framework density 21.082131
#
# number of rings (size 3 to 8) (size 9 to 14) (size 15 to 20)
#    0.000    0.571    5.714    1.286   10.000    0.000 
#    0.000    0.000    0.000    0.000    0.000    0.000 
#    0.000    0.000    0.000    0.000    0.000    0.000 
#
# Total GULP energy -156203.916210 kJ/mol
# GULP energy per Si atom -5578.711293 kJ/mol
# Density = 2.103415 g / cm^3
# Si number density = 21.082131 Si / 1000 Ang^3
#
#
#
# Elastic Constant Matrix: (Units=GPa)
#
#
# Indices 1 2 3 4 5 6 
#
# 1 108.3015 30.2757 60.1784 0.0000 0.0000 0.0000
# 2 30.2757 105.9577 31.0620 0.0000 0.0000 0.0000
# 3 60.1784 31.0620 152.0936 0.0000 0.0000 0.0000
# 4 0.0000 0.0000 0.0000 34.0247 0.0000 0.0000
# 5 0.0000 0.0000 0.0000 0.0000 24.8623 0.0000
# 6 0.0000 0.0000 0.0000 0.0000 0.0000 31.4869
#
#
#
# Elastic Compliance Matrix: (Units=1/GPa)
#
#
# Indices 1 2 3 4 5 6 
#
# 1 0.012309 -0.002222 -0.004416 0.000000 0.000000 0.000000
# 2 -0.002222 0.010440 -0.001253 0.000000 0.000000 0.000000
# 3 -0.004416 -0.001253 0.008578 0.000000 0.000000 0.000000
# 4 0.000000 0.000000 0.000000 0.029390 0.000000 0.000000
# 5 0.000000 0.000000 0.000000 0.000000 0.040222 0.000000
# 6 0.000000 0.000000 0.000000 0.000000 0.000000 0.031759
#
#
# Mechanical properties :
#
#
# Convention : Reuss Voigt Hill
#
# Bulk Modulus (GPa) = 64.33400 67.70946 66.02173
# Shear Modulus (GPa) = 32.53890 34.39722 33.46806
#
# Velocity S-wave (km/s) = 3.93292 4.04367 3.98868
# Velocity P-wave (km/s) = 7.15583 7.34768 7.25239
#
# Compressibility (1/GPa) = 0.01554388
#
# Stress axis : x y z
#
# Youngs Moduli (GPa) = 81.24358 95.78539 116.57553
#
# Poissons Ratio (x) = 0.21287 0.51483
# Poissons Ratio (y) = 0.18055 0.14605
# Poissons Ratio (z) = 0.35879 0.12000
#
# Static dielectric constant tensor:
#      x y z
#    x 1.762000 0.000000 0.000000 
#    y 0.000000 1.932660 0.000000 
#    z 0.000000 0.000000 1.803720 
# 
# From -- ./inp_files/20721.got.cif
#   From: 2010.05.17/outbox.cif.g08.bks.cpg/sg20_11_cif.got.tgz:20721.got - 2010.06.03 22:52:26.
