data_PCOD9321317
_publ_section_title
;
Structure prediction by ZEFSAII (Michael W. Deem and Ramdas Pophale) SiO2 
 PCOD9321317
Probable space group: C 2 2 21
;
_chemical_formula_sum "Si O2"
_cell_formula_units_Z 40
_cell_length_a 27.101633
_cell_length_b 4.887545
_cell_length_c 12.947384
_cell_angle_alpha 90.000000
_cell_angle_beta 90.000000
_cell_angle_gamma 90.000000
_cell_volume 1715.016322
_symmetry_space_group_name_H-M "C 2 2 21"
_symmetry_group_IT_number 20
_symmetry_cell_setting 'orthorhombic'
loop_
_space_group_symop_operation_xyz
x,y,z
-x,-y,1/2+z
x,-y,-z
-x,y,1/2-z
1/2+x,1/2+y,z
1/2-x,1/2-y,1/2+z
1/2+x,1/2-y,-z
1/2-x,1/2+y,1/2-z
loop_
_atom_site_type_symbol
_atom_site_label
_atom_site_fract_x
_atom_site_fract_y
_atom_site_fract_z
Si Si1 0.909433 0.528709 0.875998
Si Si2 0.813363 0.234614 0.062352
Si Si3 0.629739 0.259155 0.074997
Si Si4 0.269956 0.171739 0.306666
Si Si5 0.442660 0.465394 0.249123
O O1 0.854259 0.644316 0.861579
O O2 0.915245 0.229938 0.831050
O O3 0.939991 0.732120 0.801314
O O4 0.919595 0.500000 0.000000
O O5 0.767116 0.072114 0.105182
O O6 0.797488 0.500000 0.000000
O O7 0.841950 0.000000 0.000000
O O8 0.674470 0.180712 0.152966
O O9 0.585039 0.393188 0.142617
O O10 0.648402 0.500000 0.000000
O O11 0.617032 0.000000 0.000000
O O12 0.246670 0.470028 0.284221
O O13 0.500000 0.388415 0.250000
#
# Coordination Sequence:
#
# PCOD9321317 Si02
#       5
#     8   8   8   8   8
#     4  11  23  43  69  99 131 168 220 289 354 412
#     4  11  21  37  60  90 122 158 202 256 319 392
#     4  12  26  46  68  99 142 189 232 283 349 421
#     4  12  23  39  64  94 131 174 219 269 326 398
#     4  12  26  45  68  98 133 177 234 291 349 417
#
# _framework density 23.323392999999999
#
# number of rings (size 3 to 8) (size 9 to 14) (size 15 to 20)
#    0.000    0.400    0.000   10.800    0.000    2.400 
#    0.000    0.000    0.000    0.000    0.000    0.000 
#    0.000    0.000    0.000    0.000    0.000    0.000 
#
# Total GULP energy -111582.192824 kJ/mol
# GULP energy per Si atom -5579.109641 kJ/mol
# Density = 2.327031 g / cm^3
# Si number density = 23.323393 Si / 1000 Ang^3
#
#
#
# Elastic Constant Matrix: (Units=GPa)
#
#
# Indices 1 2 3 4 5 6 
#
# 1 123.3330 -3.8829 36.9644 0.0000 0.0000 0.0000
# 2 -3.8829 110.7547 30.9085 0.0000 0.0000 0.0000
# 3 36.9644 30.9085 110.3948 0.0000 0.0000 0.0000
# 4 0.0000 0.0000 0.0000 61.6628 0.0000 0.0000
# 5 0.0000 0.0000 0.0000 0.0000 20.1761 0.0000
# 6 0.0000 0.0000 0.0000 0.0000 0.0000 23.2456
#
#
#
# Elastic Compliance Matrix: (Units=1/GPa)
#
#
# Indices 1 2 3 4 5 6 
#
# 1 0.009177 0.001279 -0.003431 0.000000 0.000000 0.000000
# 2 0.001279 0.009973 -0.003220 0.000000 0.000000 0.000000
# 3 -0.003431 -0.003220 0.011109 0.000000 0.000000 0.000000
# 4 0.000000 0.000000 0.000000 0.016217 0.000000 0.000000
# 5 0.000000 0.000000 0.000000 0.000000 0.049564 0.000000
# 6 0.000000 0.000000 0.000000 0.000000 0.000000 0.043019
#
#
# Mechanical properties :
#
#
# Convention : Reuss Voigt Hill
#
# Bulk Modulus (GPa) = 51.24573 52.49583 51.87078
# Shear Modulus (GPa) = 31.98840 39.71640 35.85240
#
# Velocity S-wave (km/s) = 3.70742 4.13105 3.92495
# Velocity P-wave (km/s) = 6.35186 6.73132 6.54434
#
# Compressibility (1/GPa) = 0.01951382
#
# Stress axis : x y z
#
# Youngs Moduli (GPa) = 108.97198 100.27537 90.01839
#
# Poissons Ratio (x) = -0.12827 0.30884
# Poissons Ratio (y) = -0.13939 0.28990
# Poissons Ratio (z) = 0.37387 0.32293
#
# Static dielectric constant tensor:
#      x y z
#    x 1.891330 0.000000 0.000000 
#    y 0.000000 2.054440 0.000000 
#    z 0.000000 0.000000 4.143810 
# 
# From -- ./inp_files/16857.got.cif
#   From: 2010.05.17/outbox.cif.g08.bks.cpg/sg20_9_cif.got.tgz:16857.got - 2010.06.03 22:52:26.
