data_PCOD9321357
_publ_section_title
;
Structure prediction by ZEFSAII (Michael W. Deem and Ramdas Pophale) SiO2 
 PCOD9321357
Probable space group: C 2 2 21
;
_chemical_formula_sum "Si O2"
_cell_formula_units_Z 40
_cell_length_a 19.139823
_cell_length_b 18.193229
_cell_length_c 5.931008
_cell_angle_alpha 90.000000
_cell_angle_beta 90.000000
_cell_angle_gamma 90.000000
_cell_volume 2065.267035
_symmetry_space_group_name_H-M "C 2 2 21"
_symmetry_group_IT_number 20
_symmetry_cell_setting 'orthorhombic'
loop_
_space_group_symop_operation_xyz
x,y,z
-x,-y,1/2+z
x,-y,-z
-x,y,1/2-z
1/2+x,1/2+y,z
1/2-x,1/2-y,1/2+z
1/2+x,1/2-y,-z
1/2-x,1/2+y,1/2-z
loop_
_atom_site_type_symbol
_atom_site_label
_atom_site_fract_x
_atom_site_fract_y
_atom_site_fract_z
Si Si1 0.354664 0.500000 0.500000
Si Si2 0.430403 0.645099 0.620031
Si Si3 0.070936 0.285303 0.170615
Si Si4 0.195614 0.649141 0.079637
Si Si5 0.671598 0.260427 0.432899
Si Si6 0.222924 0.000000 0.500000
O O1 0.398870 0.575495 0.490137
O O2 0.317181 0.505747 0.752439
O O3 0.500000 0.620285 0.750000
O O4 0.453450 0.715104 0.473778
O O5 0.368901 0.682354 0.770217
O O6 0.120708 0.250415 0.358626
O O7 0.000000 0.322631 0.250000
O O8 0.121313 0.339410 0.036409
O O9 0.183589 0.679367 0.330655
O O10 0.253013 0.706643 0.986119
O O11 0.229186 0.571078 0.037839
#
# Coordination Sequence:
#
# PCOD9321357 Si02
#       6
#     4   8   8   8   8   4
#     4  12  28  43  68  99 148 188 234 276 354 429
#     4  11  24  41  63  98 141 185 227 284 351 426
#     4  11  23  41  69  97 133 173 232 296 348 411
#     4  11  24  39  71  96 131 177 234 287 347 415
#     4  11  21  41  66 100 126 177 231 286 341 418
#     4  12  28  47  68 105 142 184 234 302 348 415
#
# _framework density 19.367956
#
# number of rings (size 3 to 8) (size 9 to 14) (size 15 to 20)
#    0.000    0.800    6.000    1.200    5.600    1.600 
#    0.000    0.000    4.400    0.000    0.000    0.000 
#    0.000    0.000    0.000    0.000    0.000    0.000 
#
# Total GULP energy -111457.993175 kJ/mol
# GULP energy per Si atom -5572.899659 kJ/mol
# Density = 1.932387 g / cm^3
# Si number density = 19.367956 Si / 1000 Ang^3
#
#
#
# Elastic Constant Matrix: (Units=GPa)
#
#
# Indices 1 2 3 4 5 6 
#
# 1 103.1798 19.0219 12.7693 0.0000 0.0000 0.0000
# 2 19.0219 84.3713 18.0939 0.0000 0.0000 0.0000
# 3 12.7693 18.0939 38.5979 0.0000 0.0000 0.0000
# 4 0.0000 0.0000 0.0000 0.0191 0.0000 0.0000
# 5 0.0000 0.0000 0.0000 0.0000 5.9501 0.0000
# 6 0.0000 0.0000 0.0000 0.0000 0.0000 15.3213
#
#
#
# Elastic Compliance Matrix: (Units=1/GPa)
#
#
# Indices 1 2 3 4 5 6 
#
# 1 0.010340 -0.001776 -0.002588 0.000000 0.000000 0.000000
# 2 -0.001776 0.013482 -0.005733 0.000000 0.000000 0.000000
# 3 -0.002588 -0.005733 0.029452 0.000000 0.000000 0.000000
# 4 0.000000 0.000000 0.000000 52.259266 0.000000 0.000000
# 5 0.000000 0.000000 0.000000 0.000000 0.168065 0.000000
# 6 0.000000 0.000000 0.000000 0.000000 0.000000 0.065269
#
#
# Mechanical properties :
#
#
# Convention : Reuss Voigt Hill
#
# Bulk Modulus (GPa) = 30.22975 36.21323 33.22149
# Shear Modulus (GPa) = 0.09510 16.00903 8.05206
#
# Velocity S-wave (km/s) = 0.22183 2.87814 2.04119
# Velocity P-wave (km/s) = 3.96328 5.45738 4.76920
#
# Compressibility (1/GPa) = 0.03308000
#
# Stress axis : x y z
#
# Youngs Moduli (GPa) = 96.71613 74.17192 33.95390
#
# Poissons Ratio (x) = 0.13173 0.08787
# Poissons Ratio (y) = 0.17177 0.19464
# Poissons Ratio (z) = 0.25030 0.42520
#
# Static dielectric constant tensor:
#      x y z
#    x 1.762290 0.000000 0.000000 
#    y 0.000000 1.635410 0.000000 
#    z 0.000000 0.000000 1.822640 
# 
# From -- ./inp_files/2512.got.cif
#   From: 2010.05.17/outbox.cif.g08.bks.cpg/sg20_2_cif.got.tgz:2512.got - 2010.06.03 22:52:26.
