data_PCOD9321755
_publ_section_title
;
Structure prediction by ZEFSAII (Michael W. Deem and Ramdas Pophale) SiO2 
 PCOD9321755
Probable space group: C 2 2 21
;
_chemical_formula_sum "Si O2"
_cell_formula_units_Z 36
_cell_length_a 11.907432
_cell_length_b 10.323278
_cell_length_c 12.959139
_cell_angle_alpha 90.000000
_cell_angle_beta 90.000000
_cell_angle_gamma 90.000000
_cell_volume 1592.985714
_symmetry_space_group_name_H-M "C 2 2 21"
_symmetry_group_IT_number 20
_symmetry_cell_setting 'orthorhombic'
loop_
_space_group_symop_operation_xyz
x,y,z
-x,-y,1/2+z
x,-y,-z
-x,y,1/2-z
1/2+x,1/2+y,z
1/2-x,1/2-y,1/2+z
1/2+x,1/2-y,-z
1/2-x,1/2+y,1/2-z
loop_
_atom_site_type_symbol
_atom_site_label
_atom_site_fract_x
_atom_site_fract_y
_atom_site_fract_z
Si Si1 0.367642 0.364309 0.551354
Si Si2 0.328180 0.459853 0.111075
Si Si3 0.500000 0.389585 0.750000
Si Si4 0.864689 0.661522 0.145758
Si Si5 0.613275 0.129959 0.112442
O O1 0.404053 0.500000 0.500000
O O2 0.446251 0.321570 0.648748
O O3 0.247087 0.400759 0.600933
O O4 0.360825 0.247844 0.467123
O O5 0.399016 0.526051 0.201805
O O6 0.349817 0.309290 0.113598
O O7 0.199200 0.509265 0.109307
O O8 0.370796 0.500000 0.000000
O O9 0.869840 0.671557 0.269126
O O10 0.980618 0.601376 0.104449
#
# Coordination Sequence:
#
# PCOD9321755 Si02
#       5
#     8   8   4   8   8
#     4  12  25  44  72 103 143 190 247 306 370 443
#     4  12  23  44  73 100 140 186 240 298 372 431
#     4  12  24  44  70 102 134 194 246 298 364 456
#     4  11  24  45  69 103 146 186 238 305 367 438
#     4  11  25  45  72 104 141 189 240 303 367 441
#
# _framework density 22.599073000000001
#
# number of rings (size 3 to 8) (size 9 to 14) (size 15 to 20)
#    0.000    0.444    4.444    6.000    0.000    0.889 
#    0.000    2.222    0.000    0.000    0.000    0.000 
#    0.000    0.000    0.000    0.000    0.000    0.000 
#
# Total GULP energy -100475.052218 kJ/mol
# GULP energy per Si atom -5581.947345 kJ/mol
# Density = 2.254764 g / cm^3
# Si number density = 22.599073 Si / 1000 Ang^3
#
#
#
# Elastic Constant Matrix: (Units=GPa)
#
#
# Indices 1 2 3 4 5 6 
#
# 1 186.0630 6.6959 36.4773 0.0000 0.0000 0.0000
# 2 6.6959 21.9739 7.5213 0.0000 0.0000 0.0000
# 3 36.4773 7.5213 128.3922 0.0000 0.0000 0.0000
# 4 0.0000 0.0000 0.0000 39.5832 0.0000 0.0000
# 5 0.0000 0.0000 0.0000 0.0000 43.1444 0.0000
# 6 0.0000 0.0000 0.0000 0.0000 0.0000 9.7854
#
#
#
# Elastic Compliance Matrix: (Units=1/GPa)
#
#
# Indices 1 2 3 4 5 6 
#
# 1 0.005723 -0.001212 -0.001555 0.000000 0.000000 0.000000
# 2 -0.001212 0.046696 -0.002391 0.000000 0.000000 0.000000
# 3 -0.001555 -0.002391 0.008370 0.000000 0.000000 0.000000
# 4 0.000000 0.000000 0.000000 0.025263 0.000000 0.000000
# 5 0.000000 0.000000 0.000000 0.000000 0.023178 0.000000
# 6 0.000000 0.000000 0.000000 0.000000 0.000000 0.102193
#
#
# Mechanical properties :
#
#
# Convention : Reuss Voigt Hill
#
# Bulk Modulus (GPa) = 19.81224 48.64646 34.22935
# Shear Modulus (GPa) = 20.95872 37.55157 29.25515
#
# Velocity S-wave (km/s) = 3.04865 4.08075 3.60186
# Velocity P-wave (km/s) = 4.60198 6.61634 5.69887
#
# Compressibility (1/GPa) = 0.05047386
#
# Stress axis : x y z
#
# Youngs Moduli (GPa) = 174.73420 21.41503 119.46723
#
# Poissons Ratio (x) = 0.02595 0.18577
# Poissons Ratio (y) = 0.21172 0.28568
# Poissons Ratio (z) = 0.27171 0.05121
#
# Static dielectric constant tensor:
#      x y z
#    x 1.911520 0.000000 0.000000 
#    y 0.000000 1.615900 0.000000 
#    z 0.000000 0.000000 1.648660 
# 
# From -- ./inp_files/13666.got.cif
#   From: 2010.05.17/outbox.cif.g08.bks.cpg/sg20_7_cif.got.tgz:13666.got - 2010.06.03 22:52:26.
