data_PCOD9321915
_publ_section_title
;
Structure prediction by ZEFSAII (Michael W. Deem and Ramdas Pophale) SiO2 
 PCOD9321915
Probable space group: C 2 2 21
;
_chemical_formula_sum "Si O2"
_cell_formula_units_Z 40
_cell_length_a 18.928076
_cell_length_b 8.958863
_cell_length_c 8.825505
_cell_angle_alpha 90.000000
_cell_angle_beta 90.000000
_cell_angle_gamma 90.000000
_cell_volume 1496.576536
_symmetry_space_group_name_H-M "C 2 2 21"
_symmetry_group_IT_number 20
_symmetry_cell_setting 'orthorhombic'
loop_
_space_group_symop_operation_xyz
x,y,z
-x,-y,1/2+z
x,-y,-z
-x,y,1/2-z
1/2+x,1/2+y,z
1/2-x,1/2-y,1/2+z
1/2+x,1/2-y,-z
1/2-x,1/2+y,1/2-z
loop_
_atom_site_type_symbol
_atom_site_label
_atom_site_fract_x
_atom_site_fract_y
_atom_site_fract_z
Si Si1 0.927278 0.334600 0.545466
Si Si2 0.697716 0.221972 0.569868
Si Si3 0.424693 0.422770 0.661738
Si Si4 0.432748 0.353186 0.088611
Si Si5 0.294008 0.081407 0.247390
O O1 0.949925 0.500000 0.500000
O O2 0.797175 0.411592 0.190728
O O3 0.896365 0.940845 0.229536
O O4 0.867591 0.362417 0.675236
O O5 0.618820 0.264131 0.521197
O O6 0.726173 0.165678 0.408346
O O7 0.736269 0.367893 0.631570
O O8 0.410277 0.500000 0.500000
O O9 0.500000 0.395171 0.750000
O O10 0.496495 0.255114 0.398576
O O11 0.402139 0.256203 0.605630
O O12 0.456338 0.500000 0.000000
#
# Coordination Sequence:
#
# PCOD9321915 Si02
#       5
#     8   8   8   8   8
#     4  12  29  51  87 130 189 229 303 376 457 526
#     4  11  30  58  88 127 173 239 308 365 453 536
#     4  12  23  51  76 124 170 229 290 353 442 527
#     4  12  28  53  87 128 178 237 300 365 450 544
#     4  11  30  58  85 126 175 238 298 375 448 541
#
# _framework density 26.72767
#
# number of rings (size 3 to 8) (size 9 to 14) (size 15 to 20)
#    0.000    0.400    4.000    1.200   11.200    0.000 
#   14.400    0.000    0.000    0.000    0.000    0.000 
#    0.000    0.000    0.000    0.000    0.000    0.000 
#
# Total GULP energy -111515.387111 kJ/mol
# GULP energy per Si atom -5575.769356 kJ/mol
# Density = 2.666684 g / cm^3
# Si number density = 26.727670 Si / 1000 Ang^3
#
#
#
# Elastic Constant Matrix: (Units=GPa)
#
#
# Indices 1 2 3 4 5 6 
#
# 1 113.3109 39.7248 61.1427 0.0000 0.0000 0.0000
# 2 39.7248 180.5771 96.9592 0.0000 0.0000 0.0000
# 3 61.1427 96.9592 196.5608 0.0000 0.0000 0.0000
# 4 0.0000 0.0000 0.0000 70.5433 0.0000 0.0000
# 5 0.0000 0.0000 0.0000 0.0000 28.5637 0.0000
# 6 0.0000 0.0000 0.0000 0.0000 0.0000 36.5470
#
#
#
# Elastic Compliance Matrix: (Units=1/GPa)
#
#
# Indices 1 2 3 4 5 6 
#
# 1 0.010683 -0.000770 -0.002944 0.000000 0.000000 0.000000
# 2 -0.000770 0.007588 -0.003504 0.000000 0.000000 0.000000
# 3 -0.002944 -0.003504 0.007731 0.000000 0.000000 0.000000
# 4 0.000000 0.000000 0.000000 0.014176 0.000000 0.000000
# 5 0.000000 0.000000 0.000000 0.000000 0.035010 0.000000
# 6 0.000000 0.000000 0.000000 0.000000 0.000000 0.027362
#
#
# Mechanical properties :
#
#
# Convention : Reuss Voigt Hill
#
# Bulk Modulus (GPa) = 86.43591 98.45580 92.44585
# Shear Modulus (GPa) = 41.37665 46.63894 44.00779
#
# Velocity S-wave (km/s) = 3.93884 4.18181 4.06214
# Velocity P-wave (km/s) = 7.28667 7.76102 7.52758
#
# Compressibility (1/GPa) = 0.01156927
#
# Stress axis : x y z
#
# Youngs Moduli (GPa) = 93.60264 131.77913 129.34194
#
# Poissons Ratio (x) = 0.10143 0.38072
# Poissons Ratio (y) = 0.07205 0.45319
# Poissons Ratio (z) = 0.27552 0.46173
#
# Static dielectric constant tensor:
#      x y z
#    x 2.313690 0.000000 0.000000 
#    y 0.000000 2.163950 0.000000 
#    z 0.000000 0.000000 2.464560 
# 
# From -- ./inp_files/10977.got.cif
#   From: 2010.05.17/outbox.cif.g08.bks.cpg/sg20_6_cif.got.tgz:10977.got - 2010.06.03 22:52:26.
