data_PCOD9321109
_publ_section_title
;
Structure prediction by ZEFSAII (Michael W. Deem and Ramdas Pophale) SiO2 
 PCOD9321109
Probable space group: C 2 2 21
;
_chemical_formula_sum "Si O2"
_cell_formula_units_Z 36
_cell_length_a 18.964644
_cell_length_b 8.301333
_cell_length_c 10.345465
_cell_angle_alpha 90.000000
_cell_angle_beta 90.000000
_cell_angle_gamma 90.000000
_cell_volume 1628.705436
_symmetry_space_group_name_H-M "C 2 2 21"
_symmetry_group_IT_number 20
_symmetry_cell_setting 'orthorhombic'
loop_
_space_group_symop_operation_xyz
x,y,z
-x,-y,1/2+z
x,-y,-z
-x,y,1/2-z
1/2+x,1/2+y,z
1/2-x,1/2-y,1/2+z
1/2+x,1/2-y,-z
1/2-x,1/2+y,1/2-z
loop_
_atom_site_type_symbol
_atom_site_label
_atom_site_fract_x
_atom_site_fract_y
_atom_site_fract_z
Si Si1 0.798544 0.094810 0.130043
Si Si2 0.078680 0.284814 0.225624
Si Si3 0.050406 0.831380 0.048110
Si Si4 0.199895 0.109668 0.874081
Si Si5 0.500000 0.097646 0.250000
O O1 0.863422 0.199126 0.188031
O O2 0.736334 0.220584 0.104448
O O3 0.774264 0.973706 0.243110
O O4 0.817079 0.000000 0.000000
O O5 0.087870 0.253920 0.073848
O O6 0.066284 0.474730 0.250767
O O7 0.000000 0.214675 0.250000
O O8 0.115440 0.875742 0.140956
O O9 0.001126 0.709068 0.123769
O O10 0.018245 0.000000 0.000000
O O11 0.212795 0.000000 0.000000
#
# Coordination Sequence:
#
# PCOD9321109 Si02
#       5
#     8   8   8   8   4
#     4  12  26  46  75 111 145 190 248 303 354 439
#     4  10  25  47  67 106 146 184 245 289 367 428
#     4  11  23  46  72 101 145 192 235 295 374 427
#     4  11  25  48  74 105 145 195 238 302 372 429
#     4  10  26  42  74 102 132 194 236 298 342 448
#
# _framework density 22.103446999999999
#
# number of rings (size 3 to 8) (size 9 to 14) (size 15 to 20)
#    0.667    0.444    4.444    2.000    4.667    2.667 
#    4.000    0.000    0.000    0.000    0.000    0.000 
#    0.000    0.000    0.000    0.000    0.000    0.000 
#
# Total GULP energy -100584.140934 kJ/mol
# GULP energy per Si atom -5588.007830 kJ/mol
# Density = 2.205314 g / cm^3
# Si number density = 22.103447 Si / 1000 Ang^3
#
#
#
# Elastic Constant Matrix: (Units=GPa)
#
#
# Indices 1 2 3 4 5 6 
#
# 1 26.3417 22.6529 10.0156 0.0000 0.0000 0.0000
# 2 22.6529 155.7544 77.6103 0.0000 0.0000 0.0000
# 3 10.0156 77.6103 132.4600 0.0000 0.0000 0.0000
# 4 0.0000 0.0000 0.0000 51.3869 0.0000 0.0000
# 5 0.0000 0.0000 0.0000 0.0000 19.1889 0.0000
# 6 0.0000 0.0000 0.0000 0.0000 0.0000 37.1374
#
#
#
# Elastic Compliance Matrix: (Units=1/GPa)
#
#
# Indices 1 2 3 4 5 6 
#
# 1 0.043422 -0.006609 0.000589 0.000000 0.000000 0.000000
# 2 -0.006609 0.010074 -0.005403 0.000000 0.000000 0.000000
# 3 0.000589 -0.005403 0.010670 0.000000 0.000000 0.000000
# 4 0.000000 0.000000 0.000000 0.019460 0.000000 0.000000
# 5 0.000000 0.000000 0.000000 0.000000 0.052114 0.000000
# 6 0.000000 0.000000 0.000000 0.000000 0.000000 0.026927
#
#
# Mechanical properties :
#
#
# Convention : Reuss Voigt Hill
#
# Bulk Modulus (GPa) = 24.20067 59.45709 41.82888
# Shear Modulus (GPa) = 25.08968 35.16113 30.12540
#
# Velocity S-wave (km/s) = 3.37278 3.99275 3.69579
# Velocity P-wave (km/s) = 5.11274 6.94363 6.09730
#
# Compressibility (1/GPa) = 0.04132117
#
# Stress axis : x y z
#
# Youngs Moduli (GPa) = 23.02979 99.26973 93.71760
#
# Poissons Ratio (x) = 0.65605 -0.05519
# Poissons Ratio (y) = 0.15220 0.50631
# Poissons Ratio (z) = -0.01356 0.53631
#
# Static dielectric constant tensor:
#      x y z
#    x 1.788850 0.000000 0.000000 
#    y 0.000000 1.838310 0.000000 
#    z 0.000000 0.000000 1.818980 
# 
# From -- ./inp_files/9864.got.cif
#   From: 2010.05.17/outbox.cif.g08.bks.cpg/sg20_5_cif.got.tgz:9864.got - 2010.06.03 22:52:26.
