data_PCOD9321039
_publ_section_title
;
Structure prediction by ZEFSAII (Michael W. Deem and Ramdas Pophale) SiO2 
 PCOD9321039
Probable space group: C 2 2 21
;
_chemical_formula_sum "Si O2"
_cell_formula_units_Z 32
_cell_length_a 18.214223
_cell_length_b 5.642542
_cell_length_c 11.772115
_cell_angle_alpha 90.000000
_cell_angle_beta 90.000000
_cell_angle_gamma 90.000000
_cell_volume 1209.873448
_symmetry_space_group_name_H-M "C 2 2 21"
_symmetry_group_IT_number 20
_symmetry_cell_setting 'orthorhombic'
loop_
_space_group_symop_operation_xyz
x,y,z
-x,-y,1/2+z
x,-y,-z
-x,y,1/2-z
1/2+x,1/2+y,z
1/2-x,1/2-y,1/2+z
1/2+x,1/2-y,-z
1/2-x,1/2+y,1/2-z
loop_
_atom_site_type_symbol
_atom_site_label
_atom_site_fract_x
_atom_site_fract_y
_atom_site_fract_z
Si Si1 0.595680 0.513834 0.841075
Si Si2 0.864178 0.603337 0.795045
Si Si3 0.056083 0.196329 0.592625
Si Si4 0.775407 0.672188 0.391492
O O1 0.593117 0.235640 0.809308
O O2 0.585278 0.599806 0.712421
O O3 0.531798 0.656698 0.905432
O O4 0.672118 0.597428 0.892932
O O5 0.917429 0.466475 0.883089
O O6 0.805934 0.450281 0.722651
O O7 0.808190 0.756683 0.870698
O O8 0.079820 0.000000 0.500000
O O9 0.782877 0.500000 0.500000
#
# Coordination Sequence:
#
# PCOD9321039 Si02
#       4
#     8   8   8   8
#     4  10  24  48  75 117 159 206 278 335 398 496
#     4  11  24  51  77 119 162 204 278 338 400 499
#     4  10  25  48  79 115 157 218 264 336 412 481
#     4  11  25  47  81 115 155 217 269 341 410 481
#
# _framework density 26.449048999999999
#
# number of rings (size 3 to 8) (size 9 to 14) (size 15 to 20)
#    0.000    1.500    2.500    0.000    3.500   10.000 
#    4.500    2.500    0.000    0.000    0.000    0.000 
#    0.000    0.000    0.000    0.000    0.000    0.000 
#
# Total GULP energy -89203.605724 kJ/mol
# GULP energy per Si atom -5575.225358 kJ/mol
# Density = 2.638885 g / cm^3
# Si number density = 26.449049 Si / 1000 Ang^3
#
#
#
# Elastic Constant Matrix: (Units=GPa)
#
#
# Indices 1 2 3 4 5 6 
#
# 1 160.1221 58.0572 12.8582 0.0000 0.0000 0.0000
# 2 58.0572 95.3457 14.4010 0.0000 0.0000 0.0000
# 3 12.8582 14.4010 92.6802 0.0000 0.0000 0.0000
# 4 0.0000 0.0000 0.0000 48.4533 0.0000 0.0000
# 5 0.0000 0.0000 0.0000 0.0000 -6.5488 0.0000
# 6 0.0000 0.0000 0.0000 0.0000 0.0000 43.4365
#
#
#
# Elastic Compliance Matrix: (Units=1/GPa)
#
#
# Indices 1 2 3 4 5 6 
#
# 1 0.008027 -0.004833 -0.000363 0.000000 0.000000 0.000000
# 2 -0.004833 0.013650 -0.001450 0.000000 0.000000 0.000000
# 3 -0.000363 -0.001450 0.011065 0.000000 0.000000 0.000000
# 4 0.000000 0.000000 0.000000 0.020638 0.000000 0.000000
# 5 0.000000 0.000000 0.000000 0.000000 -0.152699 0.000000
# 6 0.000000 0.000000 0.000000 0.000000 0.000000 0.023022
#
#
# Mechanical properties :
#
#
# Convention : Reuss Voigt Hill
#
# Bulk Modulus (GPa) = 51.41319 57.64230 54.52775
# Shear Modulus (GPa) = -88.46198 34.59030 -26.93584
#
# Velocity S-wave (km/s) = -5.78954 3.62029 -3.19471
# Velocity P-wave (km/s) = 5.02105 6.27027 2.65569
#
# Compressibility (1/GPa) = 0.01945026
#
# Stress axis : x y z
#
# Youngs Moduli (GPa) = 124.58558 73.26041 90.37107
#
# Poissons Ratio (x) = 0.35405 0.03277
# Poissons Ratio (y) = 0.60209 0.13108
# Poissons Ratio (z) = 0.04518 0.10626
#
# Static dielectric constant tensor:
#      x y z
#    x 2.031840 0.000000 0.000000 
#    y 0.000000 2.671130 0.000000 
#    z 0.000000 0.000000 2.052730 
# 
# From -- ./inp_files/16483.got.cif
#   From: 2010.05.17/outbox.cif.g08.bks.cpg/sg20_9_cif.got.tgz:16483.got - 2010.06.03 22:52:26.
