data_PCOD9321661
_publ_section_title
;
Structure prediction by ZEFSAII (Michael W. Deem and Ramdas Pophale) SiO2 
 PCOD9321661
Probable space group: C 2 2 21
;
_chemical_formula_sum "Si O2"
_cell_formula_units_Z 24
_cell_length_a 6.899786
_cell_length_b 17.881912
_cell_length_c 7.506592
_cell_angle_alpha 90.000000
_cell_angle_beta 90.000000
_cell_angle_gamma 90.000000
_cell_volume 926.173575
_symmetry_space_group_name_H-M "C 2 2 21"
_symmetry_group_IT_number 20
_symmetry_cell_setting 'orthorhombic'
loop_
_space_group_symop_operation_xyz
x,y,z
-x,-y,1/2+z
x,-y,-z
-x,y,1/2-z
1/2+x,1/2+y,z
1/2-x,1/2-y,1/2+z
1/2+x,1/2-y,-z
1/2-x,1/2+y,1/2-z
loop_
_atom_site_type_symbol
_atom_site_label
_atom_site_fract_x
_atom_site_fract_y
_atom_site_fract_z
Si Si1 0.000000 0.390800 0.250000
Si Si2 0.660368 0.295299 0.089228
Si Si3 0.266878 0.000000 0.500000
Si Si4 0.232707 0.363079 0.785102
O O1 0.157090 0.339505 0.339136
O O2 0.894796 0.445355 0.384005
O O3 0.500000 0.302407 0.250000
O O4 0.715453 0.207712 0.080971
O O5 0.655300 0.330436 0.889561
O O6 0.174974 0.938492 0.632552
O O7 0.000000 0.379715 0.750000
#
# Coordination Sequence:
#
# PCOD9321661 Si02
#       4
#     4   8   4   8
#     4  12  22  46  76 112 154 218 266 330 408 476
#     4  11  26  46  77 121 159 212 273 345 399 496
#     4  12  22  44  80 112 166 218 264 340 414 492
#     4  11  23  46  75 123 161 214 277 333 417 489
#
# _framework density 25.913070000000001
#
# number of rings (size 3 to 8) (size 9 to 14) (size 15 to 20)
#    0.000    0.667    5.000    2.000    4.667    0.000 
#    0.000    5.000    0.000    4.000    0.000    0.000 
#    0.000    0.000    0.000    0.000    0.000    0.000 
#
# Total GULP energy -67106.889944 kJ/mol
# GULP energy per Si atom -5592.240829 kJ/mol
# Density = 2.585409 g / cm^3
# Si number density = 25.913070 Si / 1000 Ang^3
#
#
#
# Elastic Constant Matrix: (Units=GPa)
#
#
# Indices 1 2 3 4 5 6 
#
# 1 92.4747 64.5951 68.4947 0.0000 0.0000 0.0000
# 2 64.5951 257.6331 100.2297 0.0000 0.0000 0.0000
# 3 68.4947 100.2297 204.1258 0.0000 0.0000 0.0000
# 4 0.0000 0.0000 0.0000 -50.0383 0.0000 0.0000
# 5 0.0000 0.0000 0.0000 0.0000 59.9223 0.0000
# 6 0.0000 0.0000 0.0000 0.0000 0.0000 38.2181
#
#
#
# Elastic Compliance Matrix: (Units=1/GPa)
#
#
# Indices 1 2 3 4 5 6 
#
# 1 0.015410 -0.002289 -0.004047 0.000000 0.000000 0.000000
# 2 -0.002289 0.005138 -0.001755 0.000000 0.000000 0.000000
# 3 -0.004047 -0.001755 0.007118 0.000000 0.000000 0.000000
# 4 0.000000 0.000000 0.000000 -0.019985 0.000000 0.000000
# 5 0.000000 0.000000 0.000000 0.000000 0.016688 0.000000
# 6 0.000000 0.000000 0.000000 0.000000 0.000000 0.026166
#
#
# Mechanical properties :
#
#
# Convention : Reuss Voigt Hill
#
# Bulk Modulus (GPa) = 87.06936 113.43026 100.24981
# Shear Modulus (GPa) = 70.87528 31.01470 50.94499
#
# Velocity S-wave (km/s) = 5.23551 3.46334 4.43877
# Velocity P-wave (km/s) = 8.37979 7.73701 8.06481
#
# Compressibility (1/GPa) = 0.01148510
#
# Stress axis : x y z
#
# Youngs Moduli (GPa) = 64.89136 194.62242 140.47969
#
# Poissons Ratio (x) = 0.44557 0.56850
# Poissons Ratio (y) = 0.14856 0.24650
# Poissons Ratio (z) = 0.26260 0.34151
#
# Static dielectric constant tensor:
#      x y z
#    x 2.080740 0.000000 0.000000 
#    y 0.000000 1.955410 0.000000 
#    z 0.000000 0.000000 2.176100 
# 
# From -- ./inp_files/5560.got.cif
#   From: 2010.05.17/outbox.cif.g08.bks.cpg/sg20_3_cif.got.tgz:5560.got - 2010.06.03 22:52:26.
