data_PCOD9321433
_publ_section_title
;
Structure prediction by ZEFSAII (Michael W. Deem and Ramdas Pophale) SiO2 
 PCOD9321433
Probable space group: C 2 2 21
;
_chemical_formula_sum "Si O2"
_cell_formula_units_Z 56
_cell_length_a 21.848731
_cell_length_b 9.448706
_cell_length_c 13.910786
_cell_angle_alpha 90.000000
_cell_angle_beta 90.000000
_cell_angle_gamma 90.000000
_cell_volume 2871.773762
_symmetry_space_group_name_H-M "C 2 2 21"
_symmetry_group_IT_number 20
_symmetry_cell_setting 'orthorhombic'
loop_
_space_group_symop_operation_xyz
x,y,z
-x,-y,1/2+z
x,-y,-z
-x,y,1/2-z
1/2+x,1/2+y,z
1/2-x,1/2-y,1/2+z
1/2+x,1/2-y,-z
1/2-x,1/2+y,1/2-z
loop_
_atom_site_type_symbol
_atom_site_label
_atom_site_fract_x
_atom_site_fract_y
_atom_site_fract_z
Si Si1 0.827179 0.437052 0.892000
Si Si2 0.150980 0.225572 0.021578
Si Si3 0.061783 0.000000 0.500000
Si Si4 0.766286 0.500000 0.500000
Si Si5 0.492292 0.782115 0.472829
Si Si6 0.191446 0.018191 0.849932
Si Si7 0.332129 0.602146 0.863827
Si Si8 0.964040 0.465249 0.846556
O O1 0.765311 0.505461 0.850460
O O2 0.819743 0.266528 0.890504
O O3 0.890528 0.468367 0.836909
O O4 0.834278 0.500000 0.000000
O O5 0.080402 0.268739 0.019993
O O6 0.169079 0.124208 0.933019
O O7 0.192021 0.363404 0.009921
O O8 0.166484 0.135442 0.117255
O O9 0.105581 0.057417 0.584084
O O10 0.020800 0.127886 0.462725
O O11 0.720889 0.496061 0.409129
O O12 0.519186 0.853937 0.569507
O O13 0.512444 0.884633 0.386736
O O14 0.167393 0.074701 0.749040
O O15 0.000000 0.429012 0.750000
#
# Coordination Sequence:
#
# PCOD9321433 Si02
#       8
#     8   8   4   4   8   8   8   8
#     4  12  21  49  71  96 141 179 229 285 339 413
#     4  11  24  43  64  97 141 175 219 285 343 411
#     4  11  22  46  68  96 130 183 224 282 336 401
#     4  11  22  40  66  96 132 175 224 280 346 399
#     4  11  24  44  68  95 136 180 226 274 341 400
#     4  11  25  43  67 100 134 180 219 281 358 396
#     4  11  25  40  69 102 130 175 234 284 339 413
#     4  11  25  44  69 100 129 183 227 277 331 403
#
# _framework density 19.500143999999999
#
# number of rings (size 3 to 8) (size 9 to 14) (size 15 to 20)
#    0.000    0.857    5.714    1.714    4.000    3.429 
#    0.000    2.143    0.000    0.000    0.000    0.000 
#    0.000    0.000    0.000    0.000    0.000    0.000 
#
# Total GULP energy -156519.002197 kJ/mol
# GULP energy per Si atom -5589.964364 kJ/mol
# Density = 1.945576 g / cm^3
# Si number density = 19.500144 Si / 1000 Ang^3
#
#
#
# Elastic Constant Matrix: (Units=GPa)
#
#
# Indices 1 2 3 4 5 6 
#
# 1 112.1022 4.3281 -9.4530 0.0000 0.0000 0.0000
# 2 4.3281 96.9712 3.3713 0.0000 0.0000 0.0000
# 3 -9.4530 3.3713 77.3653 0.0000 0.0000 0.0000
# 4 0.0000 0.0000 0.0000 11.8106 0.0000 0.0000
# 5 0.0000 0.0000 0.0000 0.0000 11.9026 0.0000
# 6 0.0000 0.0000 0.0000 0.0000 0.0000 49.3784
#
#
#
# Elastic Compliance Matrix: (Units=1/GPa)
#
#
# Indices 1 2 3 4 5 6 
#
# 1 0.009032 -0.000442 0.001123 0.000000 0.000000 0.000000
# 2 -0.000442 0.010350 -0.000505 0.000000 0.000000 0.000000
# 3 0.001123 -0.000505 0.013085 0.000000 0.000000 0.000000
# 4 0.000000 0.000000 0.000000 0.084669 0.000000 0.000000
# 5 0.000000 0.000000 0.000000 0.000000 0.084015 0.000000
# 6 0.000000 0.000000 0.000000 0.000000 0.000000 0.020252
#
#
# Mechanical properties :
#
#
# Convention : Reuss Voigt Hill
#
# Bulk Modulus (GPa) = 30.47101 31.43685 30.95393
# Shear Modulus (GPa) = 21.55256 33.83114 27.69185
#
# Velocity S-wave (km/s) = 3.32814 4.16975 3.77249
# Velocity P-wave (km/s) = 5.51622 6.27206 5.90624
#
# Compressibility (1/GPa) = 0.03281808
#
# Stress axis : x y z
#
# Youngs Moduli (GPa) = 110.71515 96.62174 76.42394
#
# Poissons Ratio (x) = 0.04272 -0.08581
# Poissons Ratio (y) = 0.04896 0.03860
# Poissons Ratio (z) = -0.12432 0.04880
#
# Static dielectric constant tensor:
#      x y z
#    x 1.675360 0.000000 0.000000 
#    y 0.000000 1.682720 0.000000 
#    z 0.000000 0.000000 1.671540 
# 
# From -- ./inp_files/21819.got.cif
#   From: 2010.05.17/outbox.cif.g08.bks.cpg/sg20_11_cif.got.tgz:21819.got - 2010.06.03 22:52:26.
