data_PCOD9321454
_publ_section_title
;
Structure prediction by ZEFSAII (Michael W. Deem and Ramdas Pophale) SiO2 
 PCOD9321454
Probable space group: C 2 2 21
;
_chemical_formula_sum "Si O2"
_cell_formula_units_Z 32
_cell_length_a 18.574130
_cell_length_b 7.899323
_cell_length_c 9.231762
_cell_angle_alpha 90.000000
_cell_angle_beta 90.000000
_cell_angle_gamma 90.000000
_cell_volume 1354.512299
_symmetry_space_group_name_H-M "C 2 2 21"
_symmetry_group_IT_number 20
_symmetry_cell_setting 'orthorhombic'
loop_
_space_group_symop_operation_xyz
x,y,z
-x,-y,1/2+z
x,-y,-z
-x,y,1/2-z
1/2+x,1/2+y,z
1/2-x,1/2-y,1/2+z
1/2+x,1/2-y,-z
1/2-x,1/2+y,1/2-z
loop_
_atom_site_type_symbol
_atom_site_label
_atom_site_fract_x
_atom_site_fract_y
_atom_site_fract_z
Si Si1 0.699571 0.355615 0.880273
Si Si2 0.540216 0.331128 0.903081
Si Si3 0.052803 0.384521 0.620417
Si Si4 0.331732 0.389663 0.130955
O O1 0.621451 0.268471 0.877765
O O2 0.699266 0.466628 0.735454
O O3 0.763685 0.226706 0.904895
O O4 0.702319 0.500000 0.000000
O O5 0.500000 0.360800 0.750000
O O6 0.544756 0.500000 0.000000
O O7 0.499281 0.202143 0.004428
O O8 0.095610 0.500000 0.500000
O O9 0.106687 0.241082 0.684303
O O10 0.000000 0.450522 0.750000
O O11 0.363703 0.500000 0.000000
#
# Coordination Sequence:
#
# PCOD9321454 Si02
#       4
#     8   8   8   8
#     4  11  24  42  67  98 134 178 227 279 338 405
#     4  11  22  41  67  96 131 174 225 282 345 408
#     4  12  26  44  69 101 136 178 229 285 343 408
#     4  12  26  45  69  97 136 180 225 280 342 409
#
# _framework density 23.624739000000002
#
# number of rings (size 3 to 8) (size 9 to 14) (size 15 to 20)
#    0.000    0.500    0.000   10.500    0.000    5.000 
#    0.000    0.000    0.000    0.000    0.000    0.000 
#    0.000    0.000    0.000    0.000    0.000    0.000 
#
# Total GULP energy -89397.784354 kJ/mol
# GULP energy per Si atom -5587.361522 kJ/mol
# Density = 2.357097 g / cm^3
# Si number density = 23.624739 Si / 1000 Ang^3
#
#
#
# Elastic Constant Matrix: (Units=GPa)
#
#
# Indices 1 2 3 4 5 6 
#
# 1 133.1336 15.1979 -1.3468 0.0000 0.0000 0.0000
# 2 15.1979 44.4457 6.4074 0.0000 0.0000 0.0000
# 3 -1.3468 6.4074 99.5687 0.0000 0.0000 0.0000
# 4 0.0000 0.0000 0.0000 30.4679 0.0000 0.0000
# 5 0.0000 0.0000 0.0000 0.0000 28.0459 0.0000
# 6 0.0000 0.0000 0.0000 0.0000 0.0000 49.0048
#
#
#
# Elastic Compliance Matrix: (Units=1/GPa)
#
#
# Indices 1 2 3 4 5 6 
#
# 1 0.007824 -0.002716 0.000281 0.000000 0.000000 0.000000
# 2 -0.002716 0.023653 -0.001559 0.000000 0.000000 0.000000
# 3 0.000281 -0.001559 0.010147 0.000000 0.000000 0.000000
# 4 0.000000 0.000000 0.000000 0.032821 0.000000 0.000000
# 5 0.000000 0.000000 0.000000 0.000000 0.035656 0.000000
# 6 0.000000 0.000000 0.000000 0.000000 0.000000 0.020406
#
#
# Mechanical properties :
#
#
# Convention : Reuss Voigt Hill
#
# Bulk Modulus (GPa) = 29.72993 35.29612 32.51303
# Shear Modulus (GPa) = 33.39835 38.62969 36.01402
#
# Velocity S-wave (km/s) = 3.76400 4.04807 3.90862
# Velocity P-wave (km/s) = 5.61265 6.06811 5.84482
#
# Compressibility (1/GPa) = 0.03363613
#
# Stress axis : x y z
#
# Youngs Moduli (GPa) = 127.80990 42.27831 98.54717
#
# Poissons Ratio (x) = 0.11482 -0.02765
# Poissons Ratio (y) = 0.34711 0.15362
# Poissons Ratio (z) = -0.03586 0.06591
#
# Static dielectric constant tensor:
#      x y z
#    x 1.895630 0.000000 0.000000 
#    y 0.000000 1.863660 0.000000 
#    z 0.000000 0.000000 1.830580 
# 
# From -- ./inp_files/9804.got.cif
#   From: 2010.05.17/outbox.cif.g08.bks.cpg/sg20_5_cif.got.tgz:9804.got - 2010.06.03 22:52:26.
