data_PCOD9321787
_publ_section_title
;
Structure prediction by ZEFSAII (Michael W. Deem and Ramdas Pophale) SiO2 
 PCOD9321787
Probable space group: C 2 2 21
;
_chemical_formula_sum "Si O2"
_cell_formula_units_Z 60
_cell_length_a 17.299265
_cell_length_b 25.147059
_cell_length_c 6.548867
_cell_angle_alpha 90.000000
_cell_angle_beta 90.000000
_cell_angle_gamma 90.000000
_cell_volume 2848.925042
_symmetry_space_group_name_H-M "C 2 2 21"
_symmetry_group_IT_number 20
_symmetry_cell_setting 'orthorhombic'
loop_
_space_group_symop_operation_xyz
x,y,z
-x,-y,1/2+z
x,-y,-z
-x,y,1/2-z
1/2+x,1/2+y,z
1/2-x,1/2-y,1/2+z
1/2+x,1/2-y,-z
1/2-x,1/2+y,1/2-z
loop_
_atom_site_type_symbol
_atom_site_label
_atom_site_fract_x
_atom_site_fract_y
_atom_site_fract_z
Si Si1 0.328970 0.936486 0.007099
Si Si2 0.169144 0.721713 0.053374
Si Si3 0.074908 0.632806 0.831196
Si Si4 0.845712 0.097879 0.534175
Si Si5 0.923739 0.454060 0.637421
Si Si6 0.589046 0.306848 0.311926
Si Si7 0.463338 0.500000 0.500000
Si Si8 0.833496 0.812595 0.786471
O O1 0.362108 0.924478 0.781272
O O2 0.375005 0.899024 0.164251
O O3 0.239170 0.927913 0.060016
O O4 0.345966 0.000000 0.000000
O O5 0.124086 0.672622 0.962644
O O6 0.164918 0.767344 0.883490
O O7 0.130459 0.751861 0.244226
O O8 0.254384 0.700366 0.096664
O O9 0.000000 0.662851 0.750000
O O10 0.042047 0.588328 0.981896
O O11 0.869134 0.142105 0.704853
O O12 0.910785 0.052762 0.515943
O O13 0.836310 0.131425 0.326738
O O14 0.885746 0.500000 0.500000
O O15 0.000000 0.476278 0.750000
O O16 0.500000 0.306491 0.250000
O O17 0.597802 0.310756 0.553243
O O18 0.500000 0.497498 0.750000
#
# Coordination Sequence:
#
# PCOD9321787 Si02
#       8
#     8   8   8   8   8   8   4   8
#     4  12  24  45  68 101 144 186 252 296 366 445
#     4  11  25  44  70 105 140 192 241 305 372 455
#     4  12  26  41  65  99 141 187 240 303 359 440
#     4  11  27  48  77 112 146 200 250 316 394 469
#     4  12  23  41  63  92 133 192 241 295 359 425
#     4  11  26  46  76 107 144 193 245 310 387 463
#     4  12  30  56  86 120 164 204 264 342 404 482
#     4  11  24  47  74 102 149 190 250 309 384 465
#
# _framework density 21.060576000000001
#
# number of rings (size 3 to 8) (size 9 to 14) (size 15 to 20)
#    0.000    0.533    4.667    2.800    7.467    2.667 
#    1.200    0.000    0.000    0.000    0.000    0.000 
#    0.000    0.000    0.000    0.000    0.000    0.000 
#
# Total GULP energy -167272.404330 kJ/mol
# GULP energy per Si atom -5575.746811 kJ/mol
# Density = 2.101264 g / cm^3
# Si number density = 21.060576 Si / 1000 Ang^3
#
#
#
# Elastic Constant Matrix: (Units=GPa)
#
#
# Indices 1 2 3 4 5 6 
#
# 1 79.2894 16.1410 13.0032 0.0000 0.0000 0.0000
# 2 16.1410 102.8696 21.4382 0.0000 0.0000 0.0000
# 3 13.0032 21.4382 69.0427 0.0000 0.0000 0.0000
# 4 0.0000 0.0000 0.0000 -3.9776 0.0000 0.0000
# 5 0.0000 0.0000 0.0000 0.0000 30.9770 0.0000
# 6 0.0000 0.0000 0.0000 0.0000 0.0000 24.9861
#
#
#
# Elastic Compliance Matrix: (Units=1/GPa)
#
#
# Indices 1 2 3 4 5 6 
#
# 1 0.013277 -0.001670 -0.001982 0.000000 0.000000 0.000000
# 2 -0.001670 0.010604 -0.002978 0.000000 0.000000 0.000000
# 3 -0.001982 -0.002978 0.015782 0.000000 0.000000 0.000000
# 4 0.000000 0.000000 0.000000 -0.251411 0.000000 0.000000
# 5 0.000000 0.000000 0.000000 0.000000 0.032282 0.000000
# 6 0.000000 0.000000 0.000000 0.000000 0.000000 0.040022
#
#
# Mechanical properties :
#
#
# Convention : Reuss Voigt Hill
#
# Bulk Modulus (GPa) = 37.87552 39.15185 38.51368
# Shear Modulus (GPa) = -42.59565 23.77173 -9.41196
#
# Velocity S-wave (km/s) = -4.50213 3.36330 -2.11629
# Velocity P-wave (km/s) = 3.00041 5.80628 3.51500
#
# Compressibility (1/GPa) = 0.02640228
#
# Stress axis : x y z
#
# Youngs Moduli (GPa) = 75.31788 94.30648 63.36435
#
# Poissons Ratio (x) = 0.15751 0.12558
# Poissons Ratio (y) = 0.12580 0.18870
# Poissons Ratio (z) = 0.14927 0.28084
#
# Static dielectric constant tensor:
#      x y z
#    x 1.741420 0.000000 0.000000 
#    y 0.000000 1.852550 0.000000 
#    z 0.000000 0.000000 1.836110 
# 
# From -- ./inp_files/2827.got.cif
#   From: 2010.05.17/outbox.cif.g08.bks.cpg/sg20_2_cif.got.tgz:2827.got - 2010.06.03 22:52:26.
