data_PCOD9321873
_publ_section_title
;
Structure prediction by ZEFSAII (Michael W. Deem and Ramdas Pophale) SiO2 
 PCOD9321873
Probable space group: C 2 2 21
;
_chemical_formula_sum "Si O2"
_cell_formula_units_Z 40
_cell_length_a 32.999203
_cell_length_b 10.968474
_cell_length_c 4.829340
_cell_angle_alpha 90.000000
_cell_angle_beta 90.000000
_cell_angle_gamma 90.000000
_cell_volume 1747.983960
_symmetry_space_group_name_H-M "C 2 2 21"
_symmetry_group_IT_number 20
_symmetry_cell_setting 'orthorhombic'
loop_
_space_group_symop_operation_xyz
x,y,z
-x,-y,1/2+z
x,-y,-z
-x,y,1/2-z
1/2+x,1/2+y,z
1/2-x,1/2-y,1/2+z
1/2+x,1/2-y,-z
1/2-x,1/2+y,1/2-z
loop_
_atom_site_type_symbol
_atom_site_label
_atom_site_fract_x
_atom_site_fract_y
_atom_site_fract_z
Si Si1 0.686760 0.500000 0.000000
Si Si2 0.892974 0.620301 0.351393
Si Si3 0.129665 0.000000 0.500000
Si Si4 0.246263 0.327409 0.252673
Si Si5 0.918027 0.769272 0.864059
Si Si6 0.821842 0.500000 0.000000
Si Si7 0.500000 0.594301 0.250000
O O1 0.657642 0.463124 0.753722
O O2 0.715264 0.398010 0.129138
O O3 0.909278 0.500000 0.500000
O O4 0.892466 0.719124 0.600401
O O5 0.850502 0.579202 0.205735
O O6 0.919925 0.665316 0.096235
O O7 0.102439 0.880887 0.467501
O O8 0.253017 0.297336 0.931811
O O9 0.206999 0.407927 0.327122
O O10 0.960537 0.820738 0.760390
O O11 0.498079 0.500000 0.500000
#
# Coordination Sequence:
#
# PCOD9321873 Si02
#       7
#     4   8   4   8   8   4   4
#     4  11  26  42  61 100 142 170 236 294 351 424
#     4  12  26  47  76 109 145 196 253 299 361 445
#     4  12  26  44  71 110 141 184 241 310 371 424
#     4  11  27  43  66  97 137 196 236 297 362 424
#     4  12  27  46  79 112 146 193 246 302 378 443
#     4  11  28  46  74 102 149 194 259 292 378 432
#     4  12  26  52  76 112 158 194 238 308 380 464
#
# _framework density 22.883506000000001
#
# number of rings (size 3 to 8) (size 9 to 14) (size 15 to 20)
#    0.000    0.400    3.000    3.600   12.600    1.600 
#    0.000    2.000    2.200    0.000    0.000    0.000 
#    0.000    0.000    0.000    0.000    0.000    0.000 
#
# Total GULP energy -111931.022573 kJ/mol
# GULP energy per Si atom -5596.551129 kJ/mol
# Density = 2.283142 g / cm^3
# Si number density = 22.883506 Si / 1000 Ang^3
#
#
#
# Elastic Constant Matrix: (Units=GPa)
#
#
# Indices 1 2 3 4 5 6 
#
# 1 92.0634 45.9806 21.6840 0.0000 0.0000 0.0000
# 2 45.9806 91.4529 31.5922 0.0000 0.0000 0.0000
# 3 21.6840 31.5922 118.0676 0.0000 0.0000 0.0000
# 4 0.0000 0.0000 0.0000 59.9168 0.0000 0.0000
# 5 0.0000 0.0000 0.0000 0.0000 9.3757 0.0000
# 6 0.0000 0.0000 0.0000 0.0000 0.0000 22.3966
#
#
#
# Elastic Compliance Matrix: (Units=1/GPa)
#
#
# Indices 1 2 3 4 5 6 
#
# 1 0.014571 -0.007053 -0.000789 0.000000 0.000000 0.000000
# 2 -0.007053 0.015463 -0.002842 0.000000 0.000000 0.000000
# 3 -0.000789 -0.002842 0.009375 0.000000 0.000000 0.000000
# 4 0.000000 0.000000 0.000000 0.016690 0.000000 0.000000
# 5 0.000000 0.000000 0.000000 0.000000 0.106659 0.000000
# 6 0.000000 0.000000 0.000000 0.000000 0.000000 0.044650
#
#
# Mechanical properties :
#
#
# Convention : Reuss Voigt Hill
#
# Bulk Modulus (GPa) = 55.43198 55.56638 55.49918
# Shear Modulus (GPa) = 21.29582 31.82629 26.56106
#
# Velocity S-wave (km/s) = 3.05391 3.73338 3.41061
# Velocity P-wave (km/s) = 6.05899 6.55127 6.30993
#
# Compressibility (1/GPa) = 0.01804013
#
# Stress axis : x y z
#
# Youngs Moduli (GPa) = 68.63137 64.67202 106.66619
#
# Poissons Ratio (x) = 0.45615 0.08413
# Poissons Ratio (y) = 0.48408 0.30315
# Poissons Ratio (z) = 0.05413 0.18380
#
# Static dielectric constant tensor:
#      x y z
#    x 1.821750 0.000000 0.000000 
#    y 0.000000 2.285070 0.000000 
#    z 0.000000 0.000000 1.857590 
# 
# From -- ./inp_files/4590.got.cif
#   From: 2010.05.17/outbox.cif.g08.bks.cpg/sg20_3_cif.got.tgz:4590.got - 2010.06.03 22:52:26.
