data_PCOD9321076
_publ_section_title
;
Structure prediction by ZEFSAII (Michael W. Deem and Ramdas Pophale) SiO2 
 PCOD9321076
Probable space group: C 2 2 21
;
_chemical_formula_sum "Si O2"
_cell_formula_units_Z 32
_cell_length_a 6.115308
_cell_length_b 27.537819
_cell_length_c 7.049175
_cell_angle_alpha 90.000000
_cell_angle_beta 90.000000
_cell_angle_gamma 90.000000
_cell_volume 1187.096894
_symmetry_space_group_name_H-M "C 2 2 21"
_symmetry_group_IT_number 20
_symmetry_cell_setting 'orthorhombic'
loop_
_space_group_symop_operation_xyz
x,y,z
-x,-y,1/2+z
x,-y,-z
-x,y,1/2-z
1/2+x,1/2+y,z
1/2-x,1/2-y,1/2+z
1/2+x,1/2-y,-z
1/2-x,1/2+y,1/2-z
loop_
_atom_site_type_symbol
_atom_site_label
_atom_site_fract_x
_atom_site_fract_y
_atom_site_fract_z
Si Si1 0.119962 0.000000 0.000000
Si Si2 0.000000 0.268837 0.250000
Si Si3 0.000000 0.480362 0.750000
Si Si4 0.269118 0.415666 0.992429
Si Si5 0.770153 0.186576 0.068342
Si Si6 0.000000 0.852702 0.250000
O O1 0.276158 0.994917 0.184300
O O2 0.976070 0.048517 0.024994
O O3 0.194830 0.231355 0.295594
O O4 0.071936 0.301039 0.072503
O O5 0.065634 0.447715 0.931540
O O6 0.257982 0.368249 0.854420
O O7 0.300069 0.388369 0.194319
O O8 0.988532 0.181034 0.934055
#
# Coordination Sequence:
#
# PCOD9321076 Si02
#       6
#     4   4   4   8   8   4
#     4  12  28  46  78 110 162 210 258 334 370 480
#     4  12  24  46  74 108 144 195 261 306 398 464
#     4  12  28  44  80 116 148 224 262 304 402 460
#     4  10  26  47  74 110 159 198 261 326 381 458
#     4  10  25  43  78 103 147 194 249 322 381 461
#     4   8  22  48  70 100 148 199 239 324 380 438
#
# _framework density 26.956520000000001
#
# number of rings (size 3 to 8) (size 9 to 14) (size 15 to 20)
#    1.500    0.000    0.000    3.000   10.500    4.000 
#    0.000    1.250    0.000    0.000    0.000    0.000 
#    0.000    0.000    0.000    0.000    0.000    0.000 
#
# Total GULP energy -89210.260262 kJ/mol
# GULP energy per Si atom -5575.641266 kJ/mol
# Density = 2.689517 g / cm^3
# Si number density = 26.956520 Si / 1000 Ang^3
#
#
#
# Elastic Constant Matrix: (Units=GPa)
#
#
# Indices 1 2 3 4 5 6 
#
# 1 91.0181 61.0677 24.4642 0.0000 0.0000 0.0000
# 2 61.0677 180.8164 3.3850 0.0000 0.0000 0.0000
# 3 24.4642 3.3850 46.9029 0.0000 0.0000 0.0000
# 4 0.0000 0.0000 0.0000 26.8834 0.0000 0.0000
# 5 0.0000 0.0000 0.0000 0.0000 66.6248 0.0000
# 6 0.0000 0.0000 0.0000 0.0000 0.0000 36.7842
#
#
#
# Elastic Compliance Matrix: (Units=1/GPa)
#
#
# Indices 1 2 3 4 5 6 
#
# 1 0.017012 -0.005587 -0.008470 0.000000 0.000000 0.000000
# 2 -0.005587 0.007373 0.002382 0.000000 0.000000 0.000000
# 3 -0.008470 0.002382 0.025567 0.000000 0.000000 0.000000
# 4 0.000000 0.000000 0.000000 0.037198 0.000000 0.000000
# 5 0.000000 0.000000 0.000000 0.000000 0.015009 0.000000
# 6 0.000000 0.000000 0.000000 0.000000 0.000000 0.027186
#
#
# Mechanical properties :
#
#
# Convention : Reuss Voigt Hill
#
# Bulk Modulus (GPa) = 37.59207 55.17459 46.38333
# Shear Modulus (GPa) = 30.94801 41.37985 36.16393
#
# Velocity S-wave (km/s) = 3.39200 3.92223 3.66671
# Velocity P-wave (km/s) = 5.41448 6.40502 5.93047
#
# Compressibility (1/GPa) = 0.02660136
#
# Stress axis : x y z
#
# Youngs Moduli (GPa) = 58.78215 135.63412 39.11338
#
# Poissons Ratio (x) = 0.75778 0.33129
# Poissons Ratio (y) = 0.32841 -0.09317
# Poissons Ratio (z) = 0.49789 -0.32308
#
# Static dielectric constant tensor:
#      x y z
#    x 2.079470 0.000000 0.000000 
#    y 0.000000 2.113880 0.000000 
#    z 0.000000 0.000000 2.238100 
# 
# From -- ./inp_files/5297.got.cif
#   From: 2010.05.17/outbox.cif.g08.bks.cpg/sg20_3_cif.got.tgz:5297.got - 2010.06.03 22:52:26.
