data_PCOD9321690
_publ_section_title
;
Structure prediction by ZEFSAII (Michael W. Deem and Ramdas Pophale) SiO2 
 PCOD9321690
Probable space group: C 2 2 21
;
_chemical_formula_sum "Si O2"
_cell_formula_units_Z 64
_cell_length_a 10.123719
_cell_length_b 27.522244
_cell_length_c 10.645882
_cell_angle_alpha 90.000000
_cell_angle_beta 90.000000
_cell_angle_gamma 90.000000
_cell_volume 2966.235109
_symmetry_space_group_name_H-M "C 2 2 21"
_symmetry_group_IT_number 20
_symmetry_cell_setting 'orthorhombic'
loop_
_space_group_symop_operation_xyz
x,y,z
-x,-y,1/2+z
x,-y,-z
-x,y,1/2-z
1/2+x,1/2+y,z
1/2-x,1/2-y,1/2+z
1/2+x,1/2-y,-z
1/2-x,1/2+y,1/2-z
loop_
_atom_site_type_symbol
_atom_site_label
_atom_site_fract_x
_atom_site_fract_y
_atom_site_fract_z
Si Si1 0.154034 0.432265 0.784337
Si Si2 0.507677 0.663648 0.002506
Si Si3 0.103086 0.248519 0.842573
Si Si4 0.021496 0.676158 0.501433
Si Si5 0.769207 0.380424 0.448868
Si Si6 0.245961 0.405379 0.513175
Si Si7 0.844333 0.454231 0.240941
Si Si8 0.608365 0.259650 0.662638
O O1 0.235977 0.421558 0.657924
O O2 0.163435 0.490698 0.791520
O O3 0.000000 0.420410 0.750000
O O4 0.201657 0.405394 0.912832
O O5 0.594670 0.709791 0.954796
O O6 0.370807 0.646825 0.938774
O O7 0.611146 0.619783 0.999618
O O8 0.442243 0.687081 0.127436
O O9 0.049661 0.301337 0.880033
O O10 0.245856 0.256884 0.785802
O O11 0.000000 0.225064 0.750000
O O12 0.893048 0.655716 0.574179
O O13 0.128223 0.634086 0.497019
O O14 0.101941 0.723775 0.545108
O O15 0.771451 0.420214 0.340158
O O16 0.211513 0.443589 0.400355
O O17 0.000000 0.441463 0.250000
O O18 0.500000 0.236616 0.750000
#
# Coordination Sequence:
#
# PCOD9321690 Si02
#       8
#     8   8   8   8   8   8   8   8
#     4  11  24  45  73 106 136 175 229 293 346 406
#     4  11  28  44  63 102 144 184 229 284 342 405
#     4  11  26  42  64  94 141 181 229 287 337 402
#     4  11  24  40  63  96 130 180 231 268 338 397
#     4  12  25  44  73 102 137 182 229 282 341 419
#     4  12  25  44  73 102 137 182 229 282 341 419
#     4  11  24  45  73 106 136 175 229 293 346 406
#     4  11  26  42  64  94 141 181 229 287 337 402
#
# _framework density 21.576172
#
# number of rings (size 3 to 8) (size 9 to 14) (size 15 to 20)
#    0.000    0.750    5.000    0.750   10.500    2.000 
#    0.000    3.750    0.000    0.000    0.000    0.000 
#    0.000    0.000    0.000    0.000    0.000    0.000 
#
# Total GULP energy -178279.483115 kJ/mol
# GULP energy per Si atom -5571.233847 kJ/mol
# Density = 2.152706 g / cm^3
# Si number density = 21.576172 Si / 1000 Ang^3
#
#
#
# Elastic Constant Matrix: (Units=GPa)
#
#
# Indices 1 2 3 4 5 6 
#
# 1 151.7139 14.1658 6.6337 0.0000 0.0000 0.0000
# 2 14.1658 45.9822 -5.1745 0.0000 0.0000 0.0000
# 3 6.6337 -5.1745 41.4558 0.0000 0.0000 0.0000
# 4 0.0000 0.0000 0.0000 -1.7521 0.0000 0.0000
# 5 0.0000 0.0000 0.0000 0.0000 17.5461 0.0000
# 6 0.0000 0.0000 0.0000 0.0000 0.0000 19.4188
#
#
#
# Elastic Compliance Matrix: (Units=1/GPa)
#
#
# Indices 1 2 3 4 5 6 
#
# 1 0.006864 -0.002270 -0.001382 0.000000 0.000000 0.000000
# 2 -0.002270 0.022808 0.003210 0.000000 0.000000 0.000000
# 3 -0.001382 0.003210 0.024744 0.000000 0.000000 0.000000
# 4 0.000000 0.000000 0.000000 -0.570742 0.000000 0.000000
# 5 0.000000 0.000000 0.000000 0.000000 0.056993 0.000000
# 6 0.000000 0.000000 0.000000 0.000000 0.000000 0.051497
#
#
# Mechanical properties :
#
#
# Convention : Reuss Voigt Hill
#
# Bulk Modulus (GPa) = 18.68017 30.04465 24.36241
# Shear Modulus (GPa) = -12.84985 21.94435 4.54725
#
# Velocity S-wave (km/s) = -2.44305 3.19260 1.45331
# Velocity P-wave (km/s) = 0.84768 5.24838 3.75926
#
# Compressibility (1/GPa) = 0.05353272
#
# Stress axis : x y z
#
# Youngs Moduli (GPa) = 145.69359 43.84407 40.41402
#
# Poissons Ratio (x) = 0.09953 0.05584
# Poissons Ratio (y) = 0.33072 -0.12974
# Poissons Ratio (z) = 0.20130 -0.14075
#
# Static dielectric constant tensor:
#      x y z
#    x 1.967740 0.000000 0.000000 
#    y 0.000000 1.804800 0.000000 
#    z 0.000000 0.000000 1.830110 
# 
# From -- ./inp_files/13394.got.cif
#   From: 2010.05.17/outbox.cif.g08.bks.cpg/sg20_7_cif.got.tgz:13394.got - 2010.06.03 22:52:26.
