data_PCOD9321011
_publ_section_title
;
Structure prediction by ZEFSAII (Michael W. Deem and Ramdas Pophale) SiO2 
 PCOD9321011
Probable space group: C 2 2 21
;
_chemical_formula_sum "Si O2"
_cell_formula_units_Z 36
_cell_length_a 25.246663
_cell_length_b 5.002722
_cell_length_c 11.431752
_cell_angle_alpha 90.000000
_cell_angle_beta 90.000000
_cell_angle_gamma 90.000000
_cell_volume 1443.853557
_symmetry_space_group_name_H-M "C 2 2 21"
_symmetry_group_IT_number 20
_symmetry_cell_setting 'orthorhombic'
loop_
_space_group_symop_operation_xyz
x,y,z
-x,-y,1/2+z
x,-y,-z
-x,y,1/2-z
1/2+x,1/2+y,z
1/2-x,1/2-y,1/2+z
1/2+x,1/2-y,-z
1/2-x,1/2+y,1/2-z
loop_
_atom_site_type_symbol
_atom_site_label
_atom_site_fract_x
_atom_site_fract_y
_atom_site_fract_z
Si Si1 0.899733 0.500000 0.000000
Si Si2 0.732033 0.500000 0.000000
Si Si3 0.613085 0.096261 0.247042
Si Si4 0.655105 0.000000 0.000000
Si Si5 0.025675 0.000000 0.500000
Si Si6 0.220108 0.179129 0.705504
Si Si7 0.000000 0.122051 0.750000
O O1 0.876311 0.557529 0.870053
O O2 0.936768 0.248642 0.980282
O O3 0.770586 0.668414 0.084431
O O4 0.690558 0.739780 0.976437
O O5 0.658783 0.323133 0.260486
O O6 0.553493 0.203391 0.243874
O O7 0.623999 0.956189 0.122193
O O8 0.997773 0.037628 0.373750
O O9 0.254334 0.386618 0.786280
#
# Coordination Sequence:
#
# PCOD9321011 Si02
#       7
#     4   4   8   4   4   8   4
#     4  10  25  45  72 101 154 193 245 289 382 434
#     4  12  23  47  69 106 145 190 241 311 366 436
#     4  11  25  48  72 114 144 201 239 312 365 450
#     4  12  26  43  78 104 145 185 253 306 364 422
#     4  10  24  47  71 107 144 204 239 306 354 444
#     4  12  24  44  72 103 147 189 240 301 372 435
#     4  10  26  48  78 108 156 192 256 298 380 440
#
# _framework density 24.933277
#
# number of rings (size 3 to 8) (size 9 to 14) (size 15 to 20)
#    0.000    0.889    4.444    0.667    0.000   16.889 
#    0.000    5.556    0.000    0.000    0.000    0.000 
#    0.000    0.000    0.000    0.000    0.000    0.000 
#
# Total GULP energy -100282.207932 kJ/mol
# GULP energy per Si atom -5571.233774 kJ/mol
# Density = 2.487653 g / cm^3
# Si number density = 24.933277 Si / 1000 Ang^3
#
#
#
# Elastic Constant Matrix: (Units=GPa)
#
#
# Indices 1 2 3 4 5 6 
#
# 1 146.6018 9.3720 21.8265 0.0000 0.0000 0.0000
# 2 9.3720 81.3385 -18.4845 0.0000 0.0000 0.0000
# 3 21.8265 -18.4845 227.9421 0.0000 0.0000 0.0000
# 4 0.0000 0.0000 0.0000 14.2002 0.0000 0.0000
# 5 0.0000 0.0000 0.0000 0.0000 38.9715 0.0000
# 6 0.0000 0.0000 0.0000 0.0000 0.0000 13.6148
#
#
#
# Elastic Compliance Matrix: (Units=1/GPa)
#
#
# Indices 1 2 3 4 5 6 
#
# 1 0.006995 -0.000976 -0.000749 0.000000 0.000000 0.000000
# 2 -0.000976 0.012661 0.001120 0.000000 0.000000 0.000000
# 3 -0.000749 0.001120 0.004550 0.000000 0.000000 0.000000
# 4 0.000000 0.000000 0.000000 0.070421 0.000000 0.000000
# 5 0.000000 0.000000 0.000000 0.000000 0.025660 0.000000
# 6 0.000000 0.000000 0.000000 0.000000 0.000000 0.073449
#
#
# Mechanical properties :
#
#
# Convention : Reuss Voigt Hill
#
# Bulk Modulus (GPa) = 43.48546 53.47895 48.48220
# Shear Modulus (GPa) = 24.67771 42.90187 33.78979
#
# Velocity S-wave (km/s) = 3.14944 4.15259 3.68531
# Velocity P-wave (km/s) = 5.54111 6.66989 6.13153
#
# Compressibility (1/GPa) = 0.02299619
#
# Stress axis : x y z
#
# Youngs Moduli (GPa) = 142.95690 78.98051 219.79765
#
# Poissons Ratio (x) = 0.07710 0.16462
# Poissons Ratio (y) = 0.13955 -0.24622
# Poissons Ratio (z) = 0.10707 -0.08848
#
# Static dielectric constant tensor:
#      x y z
#    x 1.989150 0.000000 0.000000 
#    y 0.000000 1.894490 0.000000 
#    z 0.000000 0.000000 2.238110 
# 
# From -- ./inp_files/12105.got.cif
#   From: 2010.05.17/outbox.cif.g08.bks.cpg/sg20_7_cif.got.tgz:12105.got - 2010.06.03 22:52:26.
