data_PCOD9321377
_publ_section_title
;
Structure prediction by ZEFSAII (Michael W. Deem and Ramdas Pophale) SiO2 
 PCOD9321377
Probable space group: C 2 2 21
;
_chemical_formula_sum "Si O2"
_cell_formula_units_Z 48
_cell_length_a 19.760168
_cell_length_b 10.768444
_cell_length_c 10.926221
_cell_angle_alpha 90.000000
_cell_angle_beta 90.000000
_cell_angle_gamma 90.000000
_cell_volume 2324.949730
_symmetry_space_group_name_H-M "C 2 2 21"
_symmetry_group_IT_number 20
_symmetry_cell_setting 'orthorhombic'
loop_
_space_group_symop_operation_xyz
x,y,z
-x,-y,1/2+z
x,-y,-z
-x,y,1/2-z
1/2+x,1/2+y,z
1/2-x,1/2-y,1/2+z
1/2+x,1/2-y,-z
1/2-x,1/2+y,1/2-z
loop_
_atom_site_type_symbol
_atom_site_label
_atom_site_fract_x
_atom_site_fract_y
_atom_site_fract_z
Si Si1 0.902221 0.566037 0.190305
Si Si2 0.655873 0.609400 0.414086
Si Si3 0.244822 0.014825 0.192608
Si Si4 0.445295 0.818112 0.065015
Si Si5 0.086284 0.358063 0.955926
Si Si6 0.225176 0.210765 0.975869
O O1 0.823901 0.535640 0.220587
O O2 0.936731 0.435717 0.154231
O O3 0.929882 0.632163 0.311231
O O4 0.909620 0.644290 0.064967
O O5 0.630127 0.500000 0.500000
O O6 0.695050 0.547526 0.301729
O O7 0.594913 0.701743 0.382049
O O8 0.713895 0.691361 0.480386
O O9 0.234831 0.874911 0.144462
O O10 0.229069 0.113411 0.085871
O O11 0.523369 0.801517 0.030132
O O12 0.154472 0.281770 0.974544
O O13 0.094861 0.500000 0.000000
#
# Coordination Sequence:
#
# PCOD9321377 Si02
#       6
#     8   8   8   8   8   8
#     4  11  21  43  72  96 132 176 222 288 345 395
#     4  12  26  41  70 102 132 179 233 278 349 414
#     4  11  24  44  71  98 134 180 222 292 350 399
#     4  11  24  45  66 100 139 178 225 286 343 413
#     4  12  26  41  71 102 134 179 236 281 342 412
#     4  11  24  44  67 101 140 175 227 291 340 409
#
# _framework density 20.645607999999999
#
# number of rings (size 3 to 8) (size 9 to 14) (size 15 to 20)
#    0.000    0.667    6.667    2.000    7.000    0.000 
#    3.000    0.000    0.000    0.000    0.000    0.000 
#    0.000    0.000    0.000    0.000    0.000    0.000 
#
# Total GULP energy -134288.490868 kJ/mol
# GULP energy per Si atom -5595.353786 kJ/mol
# Density = 2.059862 g / cm^3
# Si number density = 20.645608 Si / 1000 Ang^3
#
#
#
# Elastic Constant Matrix: (Units=GPa)
#
#
# Indices 1 2 3 4 5 6 
#
# 1 128.2055 26.2063 -1.2522 0.0000 0.0000 0.0000
# 2 26.2063 57.0289 -7.3557 0.0000 0.0000 0.0000
# 3 -1.2522 -7.3557 39.3003 0.0000 0.0000 0.0000
# 4 0.0000 0.0000 0.0000 20.2577 0.0000 0.0000
# 5 0.0000 0.0000 0.0000 0.0000 31.1257 0.0000
# 6 0.0000 0.0000 0.0000 0.0000 0.0000 30.9885
#
#
#
# Elastic Compliance Matrix: (Units=1/GPa)
#
#
# Indices 1 2 3 4 5 6 
#
# 1 0.008617 -0.004022 -0.000478 0.000000 0.000000 0.000000
# 2 -0.004022 0.019846 0.003586 0.000000 0.000000 0.000000
# 3 -0.000478 0.003586 0.026101 0.000000 0.000000 0.000000
# 4 0.000000 0.000000 0.000000 0.049364 0.000000 0.000000
# 5 0.000000 0.000000 0.000000 0.000000 0.032128 0.000000
# 6 0.000000 0.000000 0.000000 0.000000 0.000000 0.032270
#
#
# Mechanical properties :
#
#
# Convention : Reuss Voigt Hill
#
# Bulk Modulus (GPa) = 18.96197 28.85906 23.91051
# Shear Modulus (GPa) = 26.63378 30.27016 28.45197
#
# Velocity S-wave (km/s) = 3.59562 3.83323 3.71632
# Velocity P-wave (km/s) = 5.14222 5.79656 5.47917
#
# Compressibility (1/GPa) = 0.05273715
#
# Stress axis : x y z
#
# Youngs Moduli (GPa) = 116.04496 50.38909 38.31261
#
# Poissons Ratio (x) = 0.20264 0.01832
# Poissons Ratio (y) = 0.46668 -0.13740
# Poissons Ratio (z) = 0.05548 -0.18071
#
# Static dielectric constant tensor:
#      x y z
#    x 1.733140 0.000000 0.000000 
#    y 0.000000 1.699620 0.000000 
#    z 0.000000 0.000000 1.766920 
# 
# From -- ./inp_files/15720.got.cif
#   From: 2010.05.17/outbox.cif.g08.bks.cpg/sg20_8_cif.got.tgz:15720.got - 2010.06.03 22:52:26.
