data_PCOD9321871
_publ_section_title
;
Structure prediction by ZEFSAII (Michael W. Deem and Ramdas Pophale) SiO2 
 PCOD9321871
Probable space group: C 2 2 21
;
_chemical_formula_sum "Si O2"
_cell_formula_units_Z 36
_cell_length_a 9.311326
_cell_length_b 12.183419
_cell_length_c 12.318520
_cell_angle_alpha 90.000000
_cell_angle_beta 90.000000
_cell_angle_gamma 90.000000
_cell_volume 1397.459548
_symmetry_space_group_name_H-M "C 2 2 21"
_symmetry_group_IT_number 20
_symmetry_cell_setting 'orthorhombic'
loop_
_space_group_symop_operation_xyz
x,y,z
-x,-y,1/2+z
x,-y,-z
-x,y,1/2-z
1/2+x,1/2+y,z
1/2-x,1/2-y,1/2+z
1/2+x,1/2-y,-z
1/2-x,1/2+y,1/2-z
loop_
_atom_site_type_symbol
_atom_site_label
_atom_site_fract_x
_atom_site_fract_y
_atom_site_fract_z
Si Si1 0.019508 0.113424 0.936227
Si Si2 0.925362 0.500000 0.500000
Si Si3 0.620892 0.107653 0.326644
Si Si4 0.653323 0.774634 0.084652
Si Si5 0.725626 0.594179 0.747547
O O1 0.162617 0.126484 0.863390
O O2 0.895880 0.106460 0.845424
O O3 0.025791 0.208767 0.026397
O O4 0.023567 0.000000 0.000000
O O5 0.836258 0.611826 0.515898
O O6 0.030732 0.523637 0.399967
O O7 0.500000 0.163930 0.250000
O O8 0.717815 0.186593 0.400104
O O9 0.724659 0.031436 0.255043
O O10 0.650611 0.824836 0.205839
#
# Coordination Sequence:
#
# PCOD9321871 Si02
#       5
#     8   4   8   8   8
#     4  11  25  51  78 122 168 227 292 356 438 529
#     4  12  28  52  78 122 162 224 288 338 442 518
#     4  12  26  53  80 122 172 211 285 356 429 517
#     4  12  27  50  84 118 169 227 279 366 432 521
#     4  11  26  49  78 123 168 223 290 359 433 519
#
# _framework density 25.761030000000002
#
# number of rings (size 3 to 8) (size 9 to 14) (size 15 to 20)
#    0.000    0.444    4.444    2.667    7.778    0.000 
#    8.000    0.000    0.000    0.000    0.000    0.000 
#    0.000    0.000    0.000    0.000    0.000    0.000 
#
# Total GULP energy -100616.292019 kJ/mol
# GULP energy per Si atom -5589.794001 kJ/mol
# Density = 2.570240 g / cm^3
# Si number density = 25.761030 Si / 1000 Ang^3
#
#
#
# Elastic Constant Matrix: (Units=GPa)
#
#
# Indices 1 2 3 4 5 6 
#
# 1 106.7014 55.6845 59.9333 0.0000 0.0000 0.0000
# 2 55.6845 181.9345 57.7135 0.0000 0.0000 0.0000
# 3 59.9333 57.7135 117.5844 0.0000 0.0000 0.0000
# 4 0.0000 0.0000 0.0000 50.5285 0.0000 0.0000
# 5 0.0000 0.0000 0.0000 0.0000 57.3611 0.0000
# 6 0.0000 0.0000 0.0000 0.0000 0.0000 39.0970
#
#
#
# Elastic Compliance Matrix: (Units=1/GPa)
#
#
# Indices 1 2 3 4 5 6 
#
# 1 0.013955 -0.002386 -0.005941 0.000000 0.000000 0.000000
# 2 -0.002386 0.006918 -0.002179 0.000000 0.000000 0.000000
# 3 -0.005941 -0.002179 0.012603 0.000000 0.000000 0.000000
# 4 0.000000 0.000000 0.000000 0.019791 0.000000 0.000000
# 5 0.000000 0.000000 0.000000 0.000000 0.017433 0.000000
# 6 0.000000 0.000000 0.000000 0.000000 0.000000 0.025577
#
#
# Mechanical properties :
#
#
# Convention : Reuss Voigt Hill
#
# Bulk Modulus (GPa) = 80.24914 83.65365 81.95140
# Shear Modulus (GPa) = 41.17096 44.92323 43.04709
#
# Velocity S-wave (km/s) = 4.00207 4.18047 4.09224
# Velocity P-wave (km/s) = 7.25082 7.47296 7.36273
#
# Compressibility (1/GPa) = 0.01246119
#
# Stress axis : x y z
#
# Youngs Moduli (GPa) = 71.66118 144.54661 79.34884
#
# Poissons Ratio (x) = 0.34493 0.47145
# Poissons Ratio (y) = 0.17101 0.17293
# Poissons Ratio (z) = 0.42577 0.31501
#
# Static dielectric constant tensor:
#      x y z
#    x 2.159240 0.000000 0.000000 
#    y 0.000000 2.028230 0.000000 
#    z 0.000000 0.000000 2.049030 
# 
# From -- ./inp_files/19626.got.cif
#   From: 2010.05.17/outbox.cif.g08.bks.cpg/sg20_10_cif.got.tgz:19626.got - 2010.06.03 22:52:26.
