data_PCOD9321912
_publ_section_title
;
Structure prediction by ZEFSAII (Michael W. Deem and Ramdas Pophale) SiO2 
 PCOD9321912
Probable space group: C 2 2 21
;
_chemical_formula_sum "Si O2"
_cell_formula_units_Z 32
_cell_length_a 14.984696
_cell_length_b 4.883297
_cell_length_c 17.118787
_cell_angle_alpha 90.000000
_cell_angle_beta 90.000000
_cell_angle_gamma 90.000000
_cell_volume 1252.662463
_symmetry_space_group_name_H-M "C 2 2 21"
_symmetry_group_IT_number 20
_symmetry_cell_setting 'orthorhombic'
loop_
_space_group_symop_operation_xyz
x,y,z
-x,-y,1/2+z
x,-y,-z
-x,y,1/2-z
1/2+x,1/2+y,z
1/2-x,1/2-y,1/2+z
1/2+x,1/2-y,-z
1/2-x,1/2+y,1/2-z
loop_
_atom_site_type_symbol
_atom_site_label
_atom_site_fract_x
_atom_site_fract_y
_atom_site_fract_z
Si Si1 0.211075 0.149503 0.081975
Si Si2 0.591678 0.235212 0.446853
Si Si3 0.050765 0.898223 0.180951
Si Si4 0.297737 0.965173 0.708981
O O1 0.317710 0.103575 0.087815
O O2 0.211818 0.464841 0.115954
O O3 0.131909 0.045175 0.137386
O O4 0.189277 0.000000 0.000000
O O5 0.614407 0.500000 0.500000
O O6 0.522545 0.321612 0.381937
O O7 0.548667 0.000000 0.500000
O O8 0.102243 0.641407 0.219799
O O9 0.000000 0.052539 0.250000
O O10 0.267072 0.225105 0.759905
#
# Coordination Sequence:
#
# PCOD9321912 Si02
#       4
#     8   8   8   8
#     4  11  28  53  88 119 171 231 287 358 438 513
#     4  11  29  53  82 124 168 219 289 356 424 521
#     4  12  29  51  87 123 171 225 287 360 436 528
#     4  12  27  51  82 121 170 221 287 352 438 513
#
# _framework density 25.545589
#
# number of rings (size 3 to 8) (size 9 to 14) (size 15 to 20)
#    0.000    0.500    2.500    2.250   14.000    1.000 
#    0.000    0.000    0.000    0.000    0.000    0.000 
#    0.000    0.000    0.000    0.000    0.000    0.000 
#
# Total GULP energy -89316.582210 kJ/mol
# GULP energy per Si atom -5582.286388 kJ/mol
# Density = 2.548745 g / cm^3
# Si number density = 25.545589 Si / 1000 Ang^3
#
#
#
# Elastic Constant Matrix: (Units=GPa)
#
#
# Indices 1 2 3 4 5 6 
#
# 1 188.0847 39.8772 116.4674 0.0000 0.0000 0.0000
# 2 39.8772 127.9749 63.4201 0.0000 0.0000 0.0000
# 3 116.4674 63.4201 138.9258 0.0000 0.0000 0.0000
# 4 0.0000 0.0000 0.0000 47.3983 0.0000 0.0000
# 5 0.0000 0.0000 0.0000 0.0000 57.4485 0.0000
# 6 0.0000 0.0000 0.0000 0.0000 0.0000 33.8332
#
#
#
# Elastic Compliance Matrix: (Units=1/GPa)
#
#
# Indices 1 2 3 4 5 6 
#
# 1 0.011279 0.001514 -0.010147 0.000000 0.000000 0.000000
# 2 0.001514 0.010302 -0.005972 0.000000 0.000000 0.000000
# 3 -0.010147 -0.005972 0.018431 0.000000 0.000000 0.000000
# 4 0.000000 0.000000 0.000000 0.021098 0.000000 0.000000
# 5 0.000000 0.000000 0.000000 0.000000 0.017407 0.000000
# 6 0.000000 0.000000 0.000000 0.000000 0.000000 0.029557
#
#
# Mechanical properties :
#
#
# Convention : Reuss Voigt Hill
#
# Bulk Modulus (GPa) = 92.57648 99.39054 95.98351
# Shear Modulus (GPa) = 35.49048 43.41738 39.45393
#
# Velocity S-wave (km/s) = 3.73137 4.12710 3.93421
# Velocity P-wave (km/s) = 7.40828 7.85507 7.63494
#
# Compressibility (1/GPa) = 0.01080188
#
# Stress axis : x y z
#
# Youngs Moduli (GPa) = 88.66126 97.07045 54.25749
#
# Poissons Ratio (x) = -0.14695 0.55053
# Poissons Ratio (y) = -0.13422 0.32402
# Poissons Ratio (z) = 0.89961 0.57970
#
# Static dielectric constant tensor:
#      x y z
#    x 1.900990 0.000000 0.000000 
#    y 0.000000 2.206240 0.000000 
#    z 0.000000 0.000000 2.145460 
# 
# From -- ./inp_files/24622.got.cif
#   From: 2010.05.17/outbox.cif.g08.bks.cpg/sg20_13_cif.got.tgz:24622.got - 2010.06.03 22:52:26.
