data_PCOD9321174
_publ_section_title
;
Structure prediction by ZEFSAII (Michael W. Deem and Ramdas Pophale) SiO2 
 PCOD9321174
Probable space group: C 2 2 21
;
_chemical_formula_sum "Si O2"
_cell_formula_units_Z 56
_cell_length_a 12.775960
_cell_length_b 7.370082
_cell_length_c 22.472809
_cell_angle_alpha 90.000000
_cell_angle_beta 90.000000
_cell_angle_gamma 90.000000
_cell_volume 2116.036838
_symmetry_space_group_name_H-M "C 2 2 21"
_symmetry_group_IT_number 20
_symmetry_cell_setting 'orthorhombic'
loop_
_space_group_symop_operation_xyz
x,y,z
-x,-y,1/2+z
x,-y,-z
-x,y,1/2-z
1/2+x,1/2+y,z
1/2-x,1/2-y,1/2+z
1/2+x,1/2-y,-z
1/2-x,1/2+y,1/2-z
loop_
_atom_site_type_symbol
_atom_site_label
_atom_site_fract_x
_atom_site_fract_y
_atom_site_fract_z
Si Si1 0.594753 0.758198 0.976864
Si Si2 0.322332 0.553636 0.689694
Si Si3 0.566451 0.143832 0.581392
Si Si4 0.755319 0.632742 0.075298
Si Si5 0.402954 0.539622 0.932103
Si Si6 0.104705 0.575656 0.143430
Si Si7 0.623546 0.810876 0.243594
O O1 0.520163 0.618423 0.941131
O O2 0.644320 0.879417 0.923870
O O3 0.509695 0.832473 0.024476
O O4 0.683636 0.687554 0.020211
O O5 0.168448 0.535725 0.563637
O O6 0.389315 0.735834 0.679457
O O7 0.006231 0.515702 0.627485
O O8 0.363261 0.404988 0.736010
O O9 0.314316 0.438491 0.629312
O O10 0.591203 0.348576 0.601599
O O11 0.705214 0.118674 0.707180
O O12 0.828950 0.803099 0.091809
O O13 0.157713 0.575198 0.815375
O O14 0.366733 0.500000 0.000000
O O15 0.500000 0.850323 0.250000
#
# Coordination Sequence:
#
# PCOD9321174 Si02
#       7
#     8   8   8   8   8   8   8
#     4  11  27  49  77 126 175 222 273 347 423 523
#     4  12  30  55  84 125 162 218 298 362 435 517
#     4  11  26  50  73 118 172 223 276 337 428 523
#     4  12  28  51  83 120 174 230 279 351 432 520
#     4  10  26  48  68 118 176 217 283 325 408 520
#     4  12  27  50  85 116 169 218 280 359 426 513
#     4  12  29  60  86 119 162 221 290 372 437 505
#
# _framework density 26.464569000000001
#
# number of rings (size 3 to 8) (size 9 to 14) (size 15 to 20)
#    0.000    0.571    2.857    2.143   10.000    9.714 
#    7.714    0.000    0.000    0.000    0.000    0.000 
#    0.000    0.000    0.000    0.000    0.000    0.000 
#
# Total GULP energy -156873.031082 kJ/mol
# GULP energy per Si atom -5602.608253 kJ/mol
# Density = 2.640433 g / cm^3
# Si number density = 26.464569 Si / 1000 Ang^3
#
#
#
# Elastic Constant Matrix: (Units=GPa)
#
#
# Indices 1 2 3 4 5 6 
#
# 1 103.6041 64.7407 42.6161 0.0000 0.0000 0.0000
# 2 64.7407 220.2988 36.7211 0.0000 0.0000 0.0000
# 3 42.6161 36.7211 75.8480 0.0000 0.0000 0.0000
# 4 0.0000 0.0000 0.0000 45.7744 0.0000 0.0000
# 5 0.0000 0.0000 0.0000 0.0000 34.8535 0.0000
# 6 0.0000 0.0000 0.0000 0.0000 0.0000 56.4315
#
#
#
# Elastic Compliance Matrix: (Units=1/GPa)
#
#
# Indices 1 2 3 4 5 6 
#
# 1 0.014275 -0.003109 -0.006515 0.000000 0.000000 0.000000
# 2 -0.003109 0.005615 -0.000972 0.000000 0.000000 0.000000
# 3 -0.006515 -0.000972 0.017315 0.000000 0.000000 0.000000
# 4 0.000000 0.000000 0.000000 0.021846 0.000000 0.000000
# 5 0.000000 0.000000 0.000000 0.000000 0.028692 0.000000
# 6 0.000000 0.000000 0.000000 0.000000 0.000000 0.017721
#
#
# Mechanical properties :
#
#
# Convention : Reuss Voigt Hill
#
# Bulk Modulus (GPa) = 62.44794 76.43408 69.44101
# Shear Modulus (GPa) = 37.88078 44.45676 41.16877
#
# Velocity S-wave (km/s) = 3.78746 4.10306 3.94841
# Velocity P-wave (km/s) = 6.54022 7.16876 6.86169
#
# Compressibility (1/GPa) = 0.01601334
#
# Stress axis : x y z
#
# Youngs Moduli (GPa) = 70.05311 178.09731 57.75229
#
# Poissons Ratio (x) = 0.55371 0.37627
# Poissons Ratio (y) = 0.21780 0.05611
# Poissons Ratio (z) = 0.45642 0.17303
#
# Static dielectric constant tensor:
#      x y z
#    x 2.041880 0.000000 0.000000 
#    y 0.000000 2.158950 0.000000 
#    z 0.000000 0.000000 2.146160 
# 
# From -- ./inp_files/27738.got.cif
#   From: 2010.05.17/outbox.cif.g08.bks.cpg/sg20_14_cif.got.tgz:27738.got - 2010.06.03 22:52:26.
