data_PCOD9321822
_publ_section_title
;
Structure prediction by ZEFSAII (Michael W. Deem and Ramdas Pophale) SiO2 
 PCOD9321822
Probable space group: C 2 2 21
;
_chemical_formula_sum "Si O2"
_cell_formula_units_Z 48
_cell_length_a 5.392042
_cell_length_b 22.342982
_cell_length_c 17.240794
_cell_angle_alpha 90.000000
_cell_angle_beta 90.000000
_cell_angle_gamma 90.000000
_cell_volume 2077.072543
_symmetry_space_group_name_H-M "C 2 2 21"
_symmetry_group_IT_number 20
_symmetry_cell_setting 'orthorhombic'
loop_
_space_group_symop_operation_xyz
x,y,z
-x,-y,1/2+z
x,-y,-z
-x,y,1/2-z
1/2+x,1/2+y,z
1/2-x,1/2-y,1/2+z
1/2+x,1/2-y,-z
1/2-x,1/2+y,1/2-z
loop_
_atom_site_type_symbol
_atom_site_label
_atom_site_fract_x
_atom_site_fract_y
_atom_site_fract_z
Si Si1 0.045536 0.719954 0.839998
Si Si2 0.409510 0.620583 0.836161
Si Si3 0.008568 0.856484 0.621171
Si Si4 0.398611 0.961312 0.435654
Si Si5 0.979842 0.570880 0.160330
Si Si6 0.265998 0.140601 0.961359
O O1 0.310678 0.687887 0.854177
O O2 0.003711 0.790278 0.842764
O O3 0.000000 0.699675 0.750000
O O4 0.880506 0.694919 0.911650
O O5 0.500000 0.617039 0.750000
O O6 0.208662 0.572698 0.861188
O O7 0.624588 0.604981 0.894942
O O8 0.772018 0.891238 0.654927
O O9 0.925437 0.847916 0.530593
O O10 0.268611 0.890646 0.638226
O O11 0.518144 0.905749 0.482642
O O12 0.243956 0.000000 0.500000
O O13 0.553799 0.013845 0.395594
O O14 0.000000 0.552041 0.250000
#
# Coordination Sequence:
#
# PCOD9321822 Si02
#       6
#     8   8   8   8   8   8
#     4  11  25  46  72 108 150 196 249 312 379 454
#     4  11  25  43  75 107 144 193 256 315 377 446
#     4  12  29  49  77 111 155 199 253 311 386 458
#     4  11  25  47  73 104 150 198 251 314 379 453
#     4  12  28  49  76 112 151 202 254 311 383 458
#     4  11  26  45  74 107 144 197 251 311 375 451
#
# _framework density 23.109449999999999
#
# number of rings (size 3 to 8) (size 9 to 14) (size 15 to 20)
#    0.000    0.667    3.333    2.500   11.667    1.333 
#    0.000    0.000    0.000    0.000    0.000    0.000 
#    0.000    0.000    0.000    0.000    0.000    0.000 
#
# Total GULP energy -133736.039175 kJ/mol
# GULP energy per Si atom -5572.334966 kJ/mol
# Density = 2.305685 g / cm^3
# Si number density = 23.109450 Si / 1000 Ang^3
#
#
#
# Elastic Constant Matrix: (Units=GPa)
#
#
# Indices 1 2 3 4 5 6 
#
# 1 78.4295 17.7871 1.3362 0.0000 0.0000 0.0000
# 2 17.7871 103.5375 -6.9098 0.0000 0.0000 0.0000
# 3 1.3362 -6.9098 120.0149 0.0000 0.0000 0.0000
# 4 0.0000 0.0000 0.0000 20.6777 0.0000 0.0000
# 5 0.0000 0.0000 0.0000 0.0000 15.9137 0.0000
# 6 0.0000 0.0000 0.0000 0.0000 0.0000 3.0297
#
#
#
# Elastic Compliance Matrix: (Units=1/GPa)
#
#
# Indices 1 2 3 4 5 6 
#
# 1 0.013277 -0.002300 -0.000280 0.000000 0.000000 0.000000
# 2 -0.002300 0.010094 0.000607 0.000000 0.000000 0.000000
# 3 -0.000280 0.000607 0.008370 0.000000 0.000000 0.000000
# 4 0.000000 0.000000 0.000000 0.048361 0.000000 0.000000
# 5 0.000000 0.000000 0.000000 0.000000 0.062839 0.000000
# 6 0.000000 0.000000 0.000000 0.000000 0.000000 0.330064
#
#
# Mechanical properties :
#
#
# Convention : Reuss Voigt Hill
#
# Bulk Modulus (GPa) = 35.97791 36.26764 36.12278
# Shear Modulus (GPa) = 10.28350 27.24211 18.76281
#
# Velocity S-wave (km/s) = 2.11177 3.43713 2.85250
# Velocity P-wave (km/s) = 4.64202 5.61068 5.14918
#
# Compressibility (1/GPa) = 0.02779484
#
# Stress axis : x y z
#
# Youngs Moduli (GPa) = 75.32056 99.06995 119.46929
#
# Poissons Ratio (x) = 0.22781 0.03348
# Poissons Ratio (y) = 0.17320 -0.07249
# Poissons Ratio (z) = 0.02111 -0.06011
#
# Static dielectric constant tensor:
#      x y z
#    x 1.875850 0.000000 0.000000 
#    y 0.000000 2.042200 0.000000 
#    z 0.000000 0.000000 1.863930 
# 
# From -- ./inp_files/22819.got.cif
#   From: 2010.05.17/outbox.cif.g08.bks.cpg/sg20_12_cif.got.tgz:22819.got - 2010.06.03 22:52:26.
