data_PCOD9321786
_publ_section_title
;
Structure prediction by ZEFSAII (Michael W. Deem and Ramdas Pophale) SiO2 
 PCOD9321786
Probable space group: C 2 2 21
;
_chemical_formula_sum "Si O2"
_cell_formula_units_Z 40
_cell_length_a 29.579914
_cell_length_b 5.019595
_cell_length_c 12.647118
_cell_angle_alpha 90.000000
_cell_angle_beta 90.000000
_cell_angle_gamma 90.000000
_cell_volume 1877.833816
_symmetry_space_group_name_H-M "C 2 2 21"
_symmetry_group_IT_number 20
_symmetry_cell_setting 'orthorhombic'
loop_
_space_group_symop_operation_xyz
x,y,z
-x,-y,1/2+z
x,-y,-z
-x,y,1/2-z
1/2+x,1/2+y,z
1/2-x,1/2-y,1/2+z
1/2+x,1/2-y,-z
1/2-x,1/2+y,1/2-z
loop_
_atom_site_type_symbol
_atom_site_label
_atom_site_fract_x
_atom_site_fract_y
_atom_site_fract_z
Si Si1 0.625912 0.626120 0.228020
Si Si2 0.272458 0.691346 0.207767
Si Si3 0.988944 0.260277 0.573097
Si Si4 0.570999 0.152884 0.276495
Si Si5 0.271930 0.000000 0.500000
Si Si6 0.660880 0.500000 0.000000
O O1 0.675133 0.720472 0.265995
O O2 0.610920 0.364350 0.291620
O O3 0.590522 0.863428 0.248096
O O4 0.631298 0.537798 0.105602
O O5 0.250960 0.479570 0.290011
O O6 0.260189 0.545958 0.099359
O O7 0.972026 0.500000 0.500000
O O8 0.037089 0.342911 0.624617
O O9 0.956654 0.236401 0.674836
O O10 0.992061 0.000000 0.500000
O O11 0.306251 0.247044 0.498809
#
# Coordination Sequence:
#
# PCOD9321786 Si02
#       6
#     8   8   8   8   4   4
#     4  12  24  42  66 101 136 170 225 290 333 393
#     4  12  23  43  65  93 135 180 223 277 338 394
#     4  11  24  47  73  96 133 178 214 266 345 416
#     4  11  26  44  68 103 135 168 222 280 337 407
#     4  12  22  44  64  92 127 192 229 266 348 396
#     4  12  24  38  70  96 131 172 231 286 334 388
#
# _framework density 21.301138999999999
#
# number of rings (size 3 to 8) (size 9 to 14) (size 15 to 20)
#    0.000    0.400    4.000    4.800    4.200    3.200 
#    5.400    0.000    0.000    0.000    0.000    0.000 
#    0.000    0.000    0.000    0.000    0.000    0.000 
#
# Total GULP energy -111864.460592 kJ/mol
# GULP energy per Si atom -5593.223030 kJ/mol
# Density = 2.125266 g / cm^3
# Si number density = 21.301139 Si / 1000 Ang^3
#
#
#
# Elastic Constant Matrix: (Units=GPa)
#
#
# Indices 1 2 3 4 5 6 
#
# 1 53.9679 7.0606 1.6236 0.0000 0.0000 0.0000
# 2 7.0606 117.0245 11.1639 0.0000 0.0000 0.0000
# 3 1.6236 11.1639 57.8937 0.0000 0.0000 0.0000
# 4 0.0000 0.0000 0.0000 19.7488 0.0000 0.0000
# 5 0.0000 0.0000 0.0000 0.0000 42.6608 0.0000
# 6 0.0000 0.0000 0.0000 0.0000 0.0000 31.6453
#
#
#
# Elastic Compliance Matrix: (Units=1/GPa)
#
#
# Indices 1 2 3 4 5 6 
#
# 1 0.018683 -0.001097 -0.000312 0.000000 0.000000 0.000000
# 2 -0.001097 0.008770 -0.001660 0.000000 0.000000 0.000000
# 3 -0.000312 -0.001660 0.017602 0.000000 0.000000 0.000000
# 4 0.000000 0.000000 0.000000 0.050636 0.000000 0.000000
# 5 0.000000 0.000000 0.000000 0.000000 0.023441 0.000000
# 6 0.000000 0.000000 0.000000 0.000000 0.000000 0.031600
#
#
# Mechanical properties :
#
#
# Convention : Reuss Voigt Hill
#
# Bulk Modulus (GPa) = 25.69759 29.84248 27.77003
# Shear Modulus (GPa) = 29.43900 32.74685 31.09293
#
# Velocity S-wave (km/s) = 3.72161 3.92513 3.82473
# Velocity P-wave (km/s) = 5.52787 5.88068 5.70700
#
# Compressibility (1/GPa) = 0.03891416
#
# Stress axis : x y z
#
# Youngs Moduli (GPa) = 53.52599 114.02738 56.81181
#
# Poissons Ratio (x) = 0.12513 0.01774
# Poissons Ratio (y) = 0.05874 0.09433
# Poissons Ratio (z) = 0.01672 0.18933
#
# Static dielectric constant tensor:
#      x y z
#    x 1.763420 0.000000 0.000000 
#    y 0.000000 1.733800 0.000000 
#    z 0.000000 0.000000 1.787460 
# 
# From -- ./inp_files/16905.got.cif
#   From: 2010.05.17/outbox.cif.g08.bks.cpg/sg20_9_cif.got.tgz:16905.got - 2010.06.03 22:52:26.
