data_PCOD9321372
_publ_section_title
;
Structure prediction by ZEFSAII (Michael W. Deem and Ramdas Pophale) SiO2 
 PCOD9321372
Probable space group: C 2 2 21
;
_chemical_formula_sum "Si O2"
_cell_formula_units_Z 40
_cell_length_a 17.830238
_cell_length_b 5.856107
_cell_length_c 16.269776
_cell_angle_alpha 90.000000
_cell_angle_beta 90.000000
_cell_angle_gamma 90.000000
_cell_volume 1698.821377
_symmetry_space_group_name_H-M "C 2 2 21"
_symmetry_group_IT_number 20
_symmetry_cell_setting 'orthorhombic'
loop_
_space_group_symop_operation_xyz
x,y,z
-x,-y,1/2+z
x,-y,-z
-x,y,1/2-z
1/2+x,1/2+y,z
1/2-x,1/2-y,1/2+z
1/2+x,1/2-y,-z
1/2-x,1/2+y,1/2-z
loop_
_atom_site_type_symbol
_atom_site_label
_atom_site_fract_x
_atom_site_fract_y
_atom_site_fract_z
Si Si1 0.890285 0.500889 0.593778
Si Si2 0.494547 0.621747 0.416453
Si Si3 0.033801 0.699339 0.335491
Si Si4 0.242800 0.665877 0.204418
Si Si5 0.144590 0.391972 0.417476
O O1 0.862189 0.500000 0.500000
O O2 0.919795 0.753616 0.615597
O O3 0.970078 0.374579 0.599476
O O4 0.834625 0.387236 0.657321
O O5 0.471234 0.500000 0.500000
O O6 0.529671 0.468439 0.344567
O O7 0.567579 0.767675 0.442822
O O8 0.000000 0.616319 0.250000
O O9 0.113301 0.591927 0.357641
O O10 0.261045 0.416592 0.248114
O O11 0.303080 0.723704 0.133156
O O12 0.179307 0.500000 0.500000
#
# Coordination Sequence:
#
# PCOD9321372 Si02
#       5
#     8   8   8   8   8
#     4  11  25  47  73 109 151 207 259 320 395 483
#     4  11  21  42  81 114 152 194 268 333 395 476
#     4  11  23  42  74 110 151 193 257 327 395 459
#     4  12  32  52  76 115 168 211 268 336 413 478
#     4  11  25  48  77 113 152 212 267 329 398 489
#
# _framework density 23.545738
#
# number of rings (size 3 to 8) (size 9 to 14) (size 15 to 20)
#    0.000    0.800    4.000    2.400    8.400    5.600 
#    0.000    0.000    0.000    0.000    0.000    0.000 
#    0.000    0.000    0.000    0.000    0.000    0.000 
#
# Total GULP energy -111492.178020 kJ/mol
# GULP energy per Si atom -5574.608901 kJ/mol
# Density = 2.349215 g / cm^3
# Si number density = 23.545738 Si / 1000 Ang^3
#
#
#
# Elastic Constant Matrix: (Units=GPa)
#
#
# Indices 1 2 3 4 5 6 
#
# 1 104.0855 42.2303 26.8881 0.0000 0.0000 0.0000
# 2 42.2303 107.0027 45.5625 0.0000 0.0000 0.0000
# 3 26.8881 45.5625 97.4991 0.0000 0.0000 0.0000
# 4 0.0000 0.0000 0.0000 44.5523 0.0000 0.0000
# 5 0.0000 0.0000 0.0000 0.0000 30.6089 0.0000
# 6 0.0000 0.0000 0.0000 0.0000 0.0000 41.5455
#
#
#
# Elastic Compliance Matrix: (Units=1/GPa)
#
#
# Indices 1 2 3 4 5 6 
#
# 1 0.011574 -0.004006 -0.001320 0.000000 0.000000 0.000000
# 2 -0.004006 0.013054 -0.004995 0.000000 0.000000 0.000000
# 3 -0.001320 -0.004995 0.012955 0.000000 0.000000 0.000000
# 4 0.000000 0.000000 0.000000 0.022446 0.000000 0.000000
# 5 0.000000 0.000000 0.000000 0.000000 0.032670 0.000000
# 6 0.000000 0.000000 0.000000 0.000000 0.000000 0.024070
#
#
# Mechanical properties :
#
#
# Convention : Reuss Voigt Hill
#
# Bulk Modulus (GPa) = 59.03120 59.77213 59.40166
# Shear Modulus (GPa) = 34.95124 36.26845 35.60984
#
# Velocity S-wave (km/s) = 3.85697 3.92897 3.89314
# Velocity P-wave (km/s) = 6.70524 6.78403 6.74475
#
# Compressibility (1/GPa) = 0.01694019
#
# Stress axis : x y z
#
# Youngs Moduli (GPa) = 86.40305 76.60753 77.19095
#
# Poissons Ratio (x) = 0.30687 0.10188
# Poissons Ratio (y) = 0.34611 0.38560
# Poissons Ratio (z) = 0.11404 0.38268
#
# Static dielectric constant tensor:
#      x y z
#    x 1.815040 0.000000 0.000000 
#    y 0.000000 2.328570 0.000000 
#    z 0.000000 0.000000 1.987860 
# 
# From -- ./inp_files/25082.got.cif
#   From: 2010.05.17/outbox.cif.g08.bks.cpg/sg20_13_cif.got.tgz:25082.got - 2010.06.03 22:52:26.
