data_PCOD9321341
_publ_section_title
;
Structure prediction by ZEFSAII (Michael W. Deem and Ramdas Pophale) SiO2 
 PCOD9321341
Probable space group: C 2 2 21
;
_chemical_formula_sum "Si O2"
_cell_formula_units_Z 48
_cell_length_a 16.536006
_cell_length_b 13.619362
_cell_length_c 11.213133
_cell_angle_alpha 90.000000
_cell_angle_beta 90.000000
_cell_angle_gamma 90.000000
_cell_volume 2525.308021
_symmetry_space_group_name_H-M "C 2 2 21"
_symmetry_group_IT_number 20
_symmetry_cell_setting 'orthorhombic'
loop_
_space_group_symop_operation_xyz
x,y,z
-x,-y,1/2+z
x,-y,-z
-x,y,1/2-z
1/2+x,1/2+y,z
1/2-x,1/2-y,1/2+z
1/2+x,1/2-y,-z
1/2-x,1/2+y,1/2-z
loop_
_atom_site_type_symbol
_atom_site_label
_atom_site_fract_x
_atom_site_fract_y
_atom_site_fract_z
Si Si1 0.257476 0.674305 0.319534
Si Si2 0.868137 0.105687 0.533594
Si Si3 0.717539 0.122502 0.706354
Si Si4 0.611588 0.882096 0.510042
Si Si5 0.306008 0.947567 0.624660
Si Si6 0.043347 0.702301 0.121082
O O1 0.326772 0.648457 0.413789
O O2 0.256345 0.788762 0.290129
O O3 0.173623 0.643800 0.383448
O O4 0.261529 0.616755 0.193754
O O5 0.794458 0.087589 0.627609
O O6 0.924773 0.189400 0.588588
O O7 0.904793 0.000000 0.500000
O O8 0.652567 0.157091 0.609874
O O9 0.679277 0.036534 0.784127
O O10 0.525260 0.835217 0.531794
O O11 0.606497 0.000000 0.500000
O O12 0.381829 0.873890 0.613295
O O13 0.285310 0.000000 0.500000
O O14 0.000000 0.700789 0.250000
#
# Coordination Sequence:
#
# PCOD9321341 Si02
#       6
#     8   8   8   8   8   8
#     4  11  21  40  63  96 126 164 220 271 322 390
#     4  11  22  41  67  88 126 172 216 266 327 391
#     4  11  21  39  65  94 124 168 213 269 326 387
#     4  11  21  41  66  89 129 170 205 265 344 383
#     4  12  23  37  62 100 127 165 218 270 328 386
#     4  12  23  42  65  97 132 170 215 275 334 401
#
# _framework density 19.007581999999999
#
# number of rings (size 3 to 8) (size 9 to 14) (size 15 to 20)
#    0.000    0.667    6.667    2.500    2.333    0.000 
#    0.000    4.167    0.000    0.000    0.000    0.000 
#    0.000    0.000    0.000    0.000    0.000    0.000 
#
# Total GULP energy -134023.999461 kJ/mol
# GULP energy per Si atom -5584.333311 kJ/mol
# Density = 1.896432 g / cm^3
# Si number density = 19.007582 Si / 1000 Ang^3
#
#
#
# Elastic Constant Matrix: (Units=GPa)
#
#
# Indices 1 2 3 4 5 6 
#
# 1 43.3782 24.8908 16.3976 0.0000 0.0000 0.0000
# 2 24.8908 127.0184 35.2407 0.0000 0.0000 0.0000
# 3 16.3976 35.2407 71.7342 0.0000 0.0000 0.0000
# 4 0.0000 0.0000 0.0000 38.2321 0.0000 0.0000
# 5 0.0000 0.0000 0.0000 0.0000 19.9662 0.0000
# 6 0.0000 0.0000 0.0000 0.0000 0.0000 18.4944
#
#
#
# Elastic Compliance Matrix: (Units=1/GPa)
#
#
# Indices 1 2 3 4 5 6 
#
# 1 0.026993 -0.004142 -0.004135 0.000000 0.000000 0.000000
# 2 -0.004142 0.009751 -0.003843 0.000000 0.000000 0.000000
# 3 -0.004135 -0.003843 0.016774 0.000000 0.000000 0.000000
# 4 0.000000 0.000000 0.000000 0.026156 0.000000 0.000000
# 5 0.000000 0.000000 0.000000 0.000000 0.050085 0.000000
# 6 0.000000 0.000000 0.000000 0.000000 0.000000 0.054070
#
#
# Mechanical properties :
#
#
# Convention : Reuss Voigt Hill
#
# Bulk Modulus (GPa) = 34.15799 43.90990 39.03394
# Shear Modulus (GPa) = 22.95371 26.37866 24.66619
#
# Velocity S-wave (km/s) = 3.47884 3.72936 3.60627
# Velocity P-wave (km/s) = 5.84347 6.45721 6.15799
#
# Compressibility (1/GPa) = 0.02927573
#
# Stress axis : x y z
#
# Youngs Moduli (GPa) = 37.04645 102.55405 59.61677
#
# Poissons Ratio (x) = 0.42481 0.24653
# Poissons Ratio (y) = 0.15346 0.22913
# Poissons Ratio (z) = 0.15320 0.39416
#
# Static dielectric constant tensor:
#      x y z
#    x 1.637970 0.000000 0.000000 
#    y 0.000000 1.675050 0.000000 
#    z 0.000000 0.000000 1.697310 
# 
# From -- ./inp_files/15710.got.cif
#   From: 2010.05.17/outbox.cif.g08.bks.cpg/sg20_8_cif.got.tgz:15710.got - 2010.06.03 22:52:26.
