data_PCOD9321158
_publ_section_title
;
Structure prediction by ZEFSAII (Michael W. Deem and Ramdas Pophale) SiO2 
 PCOD9321158
Probable space group: C 2 2 21
;
_chemical_formula_sum "Si O2"
_cell_formula_units_Z 52
_cell_length_a 6.887690
_cell_length_b 13.113178
_cell_length_c 23.850770
_cell_angle_alpha 90.000000
_cell_angle_beta 90.000000
_cell_angle_gamma 90.000000
_cell_volume 2154.189740
_symmetry_space_group_name_H-M "C 2 2 21"
_symmetry_group_IT_number 20
_symmetry_cell_setting 'orthorhombic'
loop_
_space_group_symop_operation_xyz
x,y,z
-x,-y,1/2+z
x,-y,-z
-x,y,1/2-z
1/2+x,1/2+y,z
1/2-x,1/2-y,1/2+z
1/2+x,1/2-y,-z
1/2-x,1/2+y,1/2-z
loop_
_atom_site_type_symbol
_atom_site_label
_atom_site_fract_x
_atom_site_fract_y
_atom_site_fract_z
Si Si1 0.281406 0.697412 0.181365
Si Si2 0.835528 0.970657 0.434918
Si Si3 0.761584 0.620068 0.495710
Si Si4 0.041420 0.282518 0.425093
Si Si5 0.156932 0.026424 0.655967
Si Si6 0.000000 0.178324 0.750000
Si Si7 0.994166 0.587329 0.109989
O O1 0.430258 0.753698 0.139876
O O2 0.366978 0.583981 0.186750
O O3 0.193141 0.757332 0.233144
O O4 0.077414 0.677569 0.147457
O O5 0.704846 0.869020 0.434173
O O6 0.841176 0.000000 0.500000
O O7 0.032414 0.958761 0.400467
O O8 0.724001 0.054581 0.396945
O O9 0.724929 0.500000 0.500000
O O10 0.838808 0.676979 0.550696
O O11 0.940323 0.617985 0.452096
O O12 0.598442 0.684036 0.463028
O O13 0.379852 0.009087 0.634350
O O14 0.078292 0.108850 0.699082
#
# Coordination Sequence:
#
# PCOD9321158 Si02
#       7
#     8   8   8   8   8   4   8
#     4   9  24  45  69 106 138 183 251 301 363 441
#     4  12  22  42  76 112 153 195 237 294 371 458
#     4  11  22  41  62  98 151 184 231 289 340 437
#     4  11  22  40  66 104 140 193 236 273 366 441
#     4  10  26  45  75 107 145 191 240 315 366 424
#     4  12  22  52  80  94 144 194 252 322 370 418
#     4   9  21  45  64 102 149 176 233 304 350 428
#
# _framework density 24.139006999999999
#
# number of rings (size 3 to 8) (size 9 to 14) (size 15 to 20)
#    0.923    0.615    4.615    0.000    2.154    3.692 
#    0.000    3.077    3.385    0.000    0.000    0.000 
#    0.000    0.000    0.000    0.000    0.000    0.000 
#
# Total GULP energy -145079.468908 kJ/mol
# GULP energy per Si atom -5579.979573 kJ/mol
# Density = 2.408407 g / cm^3
# Si number density = 24.139007 Si / 1000 Ang^3
#
#
#
# Elastic Constant Matrix: (Units=GPa)
#
#
# Indices 1 2 3 4 5 6 
#
# 1 85.4762 7.9695 23.6371 0.0000 0.0000 0.0000
# 2 7.9695 71.4365 19.3570 0.0000 0.0000 0.0000
# 3 23.6371 19.3570 87.3869 0.0000 0.0000 0.0000
# 4 0.0000 0.0000 0.0000 39.8452 0.0000 0.0000
# 5 0.0000 0.0000 0.0000 0.0000 26.9418 0.0000
# 6 0.0000 0.0000 0.0000 0.0000 0.0000 37.1310
#
#
#
# Elastic Compliance Matrix: (Units=1/GPa)
#
#
# Indices 1 2 3 4 5 6 
#
# 1 0.012663 -0.000516 -0.003311 0.000000 0.000000 0.000000
# 2 -0.000516 0.014913 -0.003164 0.000000 0.000000 0.000000
# 3 -0.003311 -0.003164 0.013040 0.000000 0.000000 0.000000
# 4 0.000000 0.000000 0.000000 0.025097 0.000000 0.000000
# 5 0.000000 0.000000 0.000000 0.000000 0.037117 0.000000
# 6 0.000000 0.000000 0.000000 0.000000 0.000000 0.026932
#
#
# Mechanical properties :
#
#
# Convention : Reuss Voigt Hill
#
# Bulk Modulus (GPa) = 37.54460 38.46966 38.00713
# Shear Modulus (GPa) = 32.76088 33.67266 33.21677
#
# Velocity S-wave (km/s) = 3.68798 3.73895 3.71356
# Velocity P-wave (km/s) = 5.80708 5.88311 5.84522
#
# Compressibility (1/GPa) = 0.02663499
#
# Stress axis : x y z
#
# Youngs Moduli (GPa) = 78.97137 67.05428 76.68838
#
# Poissons Ratio (x) = 0.03457 0.25391
# Poissons Ratio (y) = 0.04071 0.24264
# Poissons Ratio (z) = 0.26147 0.21216
#
# Static dielectric constant tensor:
#      x y z
#    x 1.977840 0.000000 0.000000 
#    y 0.000000 1.991960 0.000000 
#    z 0.000000 0.000000 1.999910 
# 
# From -- ./inp_files/30121.got.cif
#   From: 2010.05.17/outbox.cif.g08.bks.cpg/sg20_16_cif.got.tgz:30121.got - 2010.06.03 22:52:26.
