data_PCOD9321259
_publ_section_title
;
Structure prediction by ZEFSAII (Michael W. Deem and Ramdas Pophale) SiO2 
 PCOD9321259
Probable space group: C 2 2 21
;
_chemical_formula_sum "Si O2"
_cell_formula_units_Z 60
_cell_length_a 25.449084
_cell_length_b 14.238907
_cell_length_c 8.040281
_cell_angle_alpha 90.000000
_cell_angle_beta 90.000000
_cell_angle_gamma 90.000000
_cell_volume 2913.533633
_symmetry_space_group_name_H-M "C 2 2 21"
_symmetry_group_IT_number 20
_symmetry_cell_setting 'orthorhombic'
loop_
_space_group_symop_operation_xyz
x,y,z
-x,-y,1/2+z
x,-y,-z
-x,y,1/2-z
1/2+x,1/2+y,z
1/2-x,1/2-y,1/2+z
1/2+x,1/2-y,-z
1/2-x,1/2+y,1/2-z
loop_
_atom_site_type_symbol
_atom_site_label
_atom_site_fract_x
_atom_site_fract_y
_atom_site_fract_z
Si Si1 0.528011 0.105507 0.569523
Si Si2 0.308030 0.724648 0.385848
Si Si3 0.722862 0.548256 0.282489
Si Si4 0.204110 0.849413 0.395131
Si Si5 0.614767 0.248831 0.189110
Si Si6 0.160146 0.436737 0.732579
Si Si7 0.500000 0.223889 0.250000
Si Si8 0.644219 0.137385 0.629167
O O1 0.500000 0.102547 0.750000
O O2 0.501383 0.161358 0.418159
O O3 0.583654 0.157040 0.594298
O O4 0.537761 0.000000 0.500000
O O5 0.294466 0.615258 0.365736
O O6 0.253908 0.780870 0.424031
O O7 0.355625 0.731832 0.515973
O O8 0.327017 0.777861 0.218371
O O9 0.717942 0.436352 0.270481
O O10 0.692315 0.593180 0.437859
O O11 0.783886 0.570715 0.319704
O O12 0.155264 0.792157 0.323332
O O13 0.617318 0.135422 0.201863
O O14 0.555301 0.278757 0.227352
O O15 0.143966 0.544466 0.744395
O O16 0.168452 0.402146 0.542101
#
# Coordination Sequence:
#
# PCOD9321259 Si02
#       8
#     8   8   8   8   8   8   4   8
#     4  12  23  40  61  93 130 178 229 273 331 396
#     4  12  23  38  66 101 128 169 220 272 332 416
#     4  11  24  39  63  96 133 171 212 266 351 405
#     4  11  23  42  63  94 140 170 209 275 337 407
#     4  12  25  42  67  93 133 178 224 278 330 397
#     4  11  20  36  59  90 130 175 205 255 331 395
#     4  12  26  48  66  92 136 186 238 284 334 398
#     4  11  23  37  58  89 134 171 208 271 320 393
#
# _framework density 20.59355
#
# number of rings (size 3 to 8) (size 9 to 14) (size 15 to 20)
#    0.000    0.533    7.333    1.600    1.867    1.067 
#    0.000    0.000    0.000    3.200    0.000    0.000 
#    0.000    0.000    0.000    0.000    0.000    0.000 
#
# Total GULP energy -167456.938856 kJ/mol
# GULP energy per Si atom -5581.897962 kJ/mol
# Density = 2.054668 g / cm^3
# Si number density = 20.593550 Si / 1000 Ang^3
#
#
#
# Elastic Constant Matrix: (Units=GPa)
#
#
# Indices 1 2 3 4 5 6 
#
# 1 125.7153 28.1714 26.3897 0.0000 0.0000 0.0000
# 2 28.1714 75.8963 9.7295 0.0000 0.0000 0.0000
# 3 26.3897 9.7295 73.8387 0.0000 0.0000 0.0000
# 4 0.0000 0.0000 0.0000 29.5513 0.0000 0.0000
# 5 0.0000 0.0000 0.0000 0.0000 29.9252 0.0000
# 6 0.0000 0.0000 0.0000 0.0000 0.0000 24.5935
#
#
#
# Elastic Compliance Matrix: (Units=1/GPa)
#
#
# Indices 1 2 3 4 5 6 
#
# 1 0.009250 -0.003061 -0.002902 0.000000 0.000000 0.000000
# 2 -0.003061 0.014415 -0.000805 0.000000 0.000000 0.000000
# 3 -0.002902 -0.000805 0.014686 0.000000 0.000000 0.000000
# 4 0.000000 0.000000 0.000000 0.033839 0.000000 0.000000
# 5 0.000000 0.000000 0.000000 0.000000 0.033417 0.000000
# 6 0.000000 0.000000 0.000000 0.000000 0.000000 0.040661
#
#
# Mechanical properties :
#
#
# Convention : Reuss Voigt Hill
#
# Bulk Modulus (GPa) = 40.30076 44.89239 42.59658
# Shear Modulus (GPa) = 29.74803 30.89130 30.31966
#
# Velocity S-wave (km/s) = 3.80482 3.87725 3.84121
# Velocity P-wave (km/s) = 6.23813 6.47230 6.35629
#
# Compressibility (1/GPa) = 0.02481342
#
# Stress axis : x y z
#
# Youngs Moduli (GPa) = 108.11101 69.37024 68.08976
#
# Poissons Ratio (x) = 0.21236 0.19763
# Poissons Ratio (y) = 0.33096 0.05484
# Poissons Ratio (z) = 0.31379 0.05587
#
# Static dielectric constant tensor:
#      x y z
#    x 1.741890 0.000000 0.000000 
#    y 0.000000 1.754620 0.000000 
#    z 0.000000 0.000000 1.883600 
# 
# From -- ./inp_files/10770.got.cif
#   From: 2010.05.17/outbox.cif.g08.bks.cpg/sg20_6_cif.got.tgz:10770.got - 2010.06.03 22:52:26.
