data_PCOD9321826
_publ_section_title
;
Structure prediction by ZEFSAII (Michael W. Deem and Ramdas Pophale) SiO2 
 PCOD9321826
Probable space group: C 2 2 21
;
_chemical_formula_sum "Si O2"
_cell_formula_units_Z 48
_cell_length_a 28.163304
_cell_length_b 9.458006
_cell_length_c 7.509362
_cell_angle_alpha 90.000000
_cell_angle_beta 90.000000
_cell_angle_gamma 90.000000
_cell_volume 2000.258980
_symmetry_space_group_name_H-M "C 2 2 21"
_symmetry_group_IT_number 20
_symmetry_cell_setting 'orthorhombic'
loop_
_space_group_symop_operation_xyz
x,y,z
-x,-y,1/2+z
x,-y,-z
-x,y,1/2-z
1/2+x,1/2+y,z
1/2-x,1/2-y,1/2+z
1/2+x,1/2-y,-z
1/2-x,1/2+y,1/2-z
loop_
_atom_site_type_symbol
_atom_site_label
_atom_site_fract_x
_atom_site_fract_y
_atom_site_fract_z
Si Si1 0.472345 0.626690 0.537757
Si Si2 0.370767 0.096878 0.665276
Si Si3 0.280484 0.903922 0.154938
Si Si4 0.961225 0.348888 0.094377
Si Si5 0.868595 0.160759 0.569584
Si Si6 0.307320 0.354089 0.089829
O O1 0.424203 0.707152 0.571742
O O2 0.410624 0.851165 0.194939
O O3 0.519167 0.721935 0.534703
O O4 0.466754 0.525846 0.362336
O O5 0.327528 0.021063 0.766632
O O6 0.346756 0.233413 0.573792
O O7 0.388295 0.000000 0.500000
O O8 0.241819 0.876956 0.304358
O O9 0.298592 0.763210 0.058226
O O10 0.258383 0.000000 0.000000
O O11 0.000000 0.341741 0.250000
O O12 0.964983 0.500000 0.000000
O O13 0.845997 0.180998 0.760818
O O14 0.864978 0.000000 0.500000
O O15 0.321824 0.500000 0.000000
#
# Coordination Sequence:
#
# PCOD9321826 Si02
#       6
#     8   8   8   8   8   8
#     4  11  26  43  70  98 138 179 232 286 340 405
#     4  12  26  45  69 100 141 179 231 287 343 411
#     4  12  25  45  71 105 138 181 225 281 347 411
#     4  12  25  44  68 100 135 184 230 284 345 406
#     4  11  25  45  68 100 136 180 226 287 341 405
#     4  12  25  45  74 103 139 181 227 282 344 418
#
# _framework density 23.996891999999999
#
# number of rings (size 3 to 8) (size 9 to 14) (size 15 to 20)
#    0.000    0.333    1.667    7.000    7.000    0.667 
#    0.000    0.000    0.000    0.000    0.000    0.000 
#    0.000    0.000    0.000    0.000    0.000    0.000 
#
# Total GULP energy -133819.317961 kJ/mol
# GULP energy per Si atom -5575.804915 kJ/mol
# Density = 2.394227 g / cm^3
# Si number density = 23.996892 Si / 1000 Ang^3
#
#
#
# Elastic Constant Matrix: (Units=GPa)
#
#
# Indices 1 2 3 4 5 6 
#
# 1 120.3168 2.4561 47.0631 0.0000 0.0000 0.0000
# 2 2.4561 124.7783 18.4638 0.0000 0.0000 0.0000
# 3 47.0631 18.4638 64.6256 0.0000 0.0000 0.0000
# 4 0.0000 0.0000 0.0000 24.3565 0.0000 0.0000
# 5 0.0000 0.0000 0.0000 0.0000 35.6661 0.0000
# 6 0.0000 0.0000 0.0000 0.0000 0.0000 20.0672
#
#
#
# Elastic Compliance Matrix: (Units=1/GPa)
#
#
# Indices 1 2 3 4 5 6 
#
# 1 0.011760 0.001082 -0.008873 0.000000 0.000000 0.000000
# 2 0.001082 0.008467 -0.003207 0.000000 0.000000 0.000000
# 3 -0.008873 -0.003207 0.022852 0.000000 0.000000 0.000000
# 4 0.000000 0.000000 0.000000 0.041057 0.000000 0.000000
# 5 0.000000 0.000000 0.000000 0.000000 0.028038 0.000000
# 6 0.000000 0.000000 0.000000 0.000000 0.000000 0.049833
#
#
# Mechanical properties :
#
#
# Convention : Reuss Voigt Hill
#
# Bulk Modulus (GPa) = 47.43297 49.52075 48.47686
# Shear Modulus (GPa) = 26.17375 32.13382 29.15378
#
# Velocity S-wave (km/s) = 3.30618 3.66332 3.48932
# Velocity P-wave (km/s) = 5.86376 6.21082 6.03978
#
# Compressibility (1/GPa) = 0.02108238
#
# Stress axis : x y z
#
# Youngs Moduli (GPa) = 85.03277 118.09943 43.76022
#
# Poissons Ratio (x) = -0.12773 0.38830
# Poissons Ratio (y) = -0.09196 0.14033
# Poissons Ratio (z) = 0.75452 0.37872
#
# Static dielectric constant tensor:
#      x y z
#    x 1.908880 0.000000 0.000000 
#    y 0.000000 1.928360 0.000000 
#    z 0.000000 0.000000 2.126490 
# 
# From -- ./inp_files/11443.got.cif
#   From: 2010.05.17/outbox.cif.g08.bks.cpg/sg20_6_cif.got.tgz:11443.got - 2010.06.03 22:52:26.
