data_PCOD9321854
_publ_section_title
;
Structure prediction by ZEFSAII (Michael W. Deem and Ramdas Pophale) SiO2 
 PCOD9321854
Probable space group: C 2 2 21
;
_chemical_formula_sum "Si O2"
_cell_formula_units_Z 36
_cell_length_a 22.624471
_cell_length_b 12.751145
_cell_length_c 5.564861
_cell_angle_alpha 90.000000
_cell_angle_beta 90.000000
_cell_angle_gamma 90.000000
_cell_volume 1605.395121
_symmetry_space_group_name_H-M "C 2 2 21"
_symmetry_group_IT_number 20
_symmetry_cell_setting 'orthorhombic'
loop_
_space_group_symop_operation_xyz
x,y,z
-x,-y,1/2+z
x,-y,-z
-x,y,1/2-z
1/2+x,1/2+y,z
1/2-x,1/2-y,1/2+z
1/2+x,1/2-y,-z
1/2-x,1/2+y,1/2-z
loop_
_atom_site_type_symbol
_atom_site_label
_atom_site_fract_x
_atom_site_fract_y
_atom_site_fract_z
Si Si1 0.888722 0.198670 0.390739
Si Si2 0.450522 0.000000 0.000000
Si Si3 0.151810 0.598433 0.177274
Si Si4 0.537178 0.500000 0.000000
Si Si5 0.716668 0.564252 0.247400
Si Si6 0.500000 0.181512 0.750000
O O1 0.864861 0.292175 0.555217
O O2 0.834286 0.151724 0.243144
O O3 0.941424 0.250820 0.238890
O O4 0.921648 0.102714 0.523062
O O5 0.402399 0.058283 0.165832
O O6 0.495899 0.904252 0.041985
O O7 0.217158 0.609300 0.289318
O O8 0.159669 0.500000 0.000000
O O9 0.500000 0.491321 0.750000
O O10 0.713470 0.500000 0.500000
O O11 0.705118 0.500000 0.000000
#
# Coordination Sequence:
#
# PCOD9321854 Si02
#       6
#     8   4   8   4   8   4
#     4  12  27  48  77 110 155 205 258 314 387 467
#     4  12  24  47  74 108 159 192 260 320 396 452
#     4  11  25  48  76 110 148 199 256 329 391 452
#     4  12  30  51  74 110 155 204 258 304 372 464
#     4  11  27  51  79 115 156 202 261 322 386 457
#     4  12  26  42  74 112 152 204 250 314 388 460
#
# _framework density 22.424388
#
# number of rings (size 3 to 8) (size 9 to 14) (size 15 to 20)
#    0.000    0.444    5.556    1.333    4.667    7.111 
#    0.000    0.000    0.000    0.000    0.000    0.000 
#    0.000    0.000    0.000    0.000    0.000    0.000 
#
# Total GULP energy -100366.624723 kJ/mol
# GULP energy per Si atom -5575.923596 kJ/mol
# Density = 2.237335 g / cm^3
# Si number density = 22.424388 Si / 1000 Ang^3
#
#
#
# Elastic Constant Matrix: (Units=GPa)
#
#
# Indices 1 2 3 4 5 6 
#
# 1 111.3024 52.3309 28.7023 0.0000 0.0000 0.0000
# 2 52.3309 159.9350 38.7166 0.0000 0.0000 0.0000
# 3 28.7023 38.7166 81.1008 0.0000 0.0000 0.0000
# 4 0.0000 0.0000 0.0000 31.1595 0.0000 0.0000
# 5 0.0000 0.0000 0.0000 0.0000 26.3566 0.0000
# 6 0.0000 0.0000 0.0000 0.0000 0.0000 59.8533
#
#
#
# Elastic Compliance Matrix: (Units=1/GPa)
#
#
# Indices 1 2 3 4 5 6 
#
# 1 0.011038 -0.003014 -0.002467 0.000000 0.000000 0.000000
# 2 -0.003014 0.007893 -0.002701 0.000000 0.000000 0.000000
# 3 -0.002467 -0.002701 0.014493 0.000000 0.000000 0.000000
# 4 0.000000 0.000000 0.000000 0.032093 0.000000 0.000000
# 5 0.000000 0.000000 0.000000 0.000000 0.037941 0.000000
# 6 0.000000 0.000000 0.000000 0.000000 0.000000 0.016708
#
#
# Mechanical properties :
#
#
# Convention : Reuss Voigt Hill
#
# Bulk Modulus (GPa) = 58.62331 65.75976 62.19153
# Shear Modulus (GPa) = 35.15745 38.97975 37.06860
#
# Velocity S-wave (km/s) = 3.96387 4.17379 4.07018
# Velocity P-wave (km/s) = 6.86652 7.25369 7.06276
#
# Compressibility (1/GPa) = 0.01705806
#
# Stress axis : x y z
#
# Youngs Moduli (GPa) = 90.59536 126.69918 68.99854
#
# Poissons Ratio (x) = 0.38192 0.17025
# Poissons Ratio (y) = 0.27309 0.18637
# Poissons Ratio (z) = 0.22354 0.34222
#
# Static dielectric constant tensor:
#      x y z
#    x 2.456700 0.000000 0.000000 
#    y 0.000000 1.811190 0.000000 
#    z 0.000000 0.000000 1.956950 
# 
# From -- ./inp_files/3576.got.cif
#   From: 2010.05.17/outbox.cif.g08.bks.cpg/sg20_2_cif.got.tgz:3576.got - 2010.06.03 22:52:26.
