data_PCOD9321650
_publ_section_title
;
Structure prediction by ZEFSAII (Michael W. Deem and Ramdas Pophale) SiO2 
 PCOD9321650
Probable space group: C 2 2 21
;
_chemical_formula_sum "Si O2"
_cell_formula_units_Z 52
_cell_length_a 22.845895
_cell_length_b 9.772103
_cell_length_c 11.599759
_cell_angle_alpha 90.000000
_cell_angle_beta 90.000000
_cell_angle_gamma 90.000000
_cell_volume 2589.674489
_symmetry_space_group_name_H-M "C 2 2 21"
_symmetry_group_IT_number 20
_symmetry_cell_setting 'orthorhombic'
loop_
_space_group_symop_operation_xyz
x,y,z
-x,-y,1/2+z
x,-y,-z
-x,y,1/2-z
1/2+x,1/2+y,z
1/2-x,1/2-y,1/2+z
1/2+x,1/2-y,-z
1/2-x,1/2+y,1/2-z
loop_
_atom_site_type_symbol
_atom_site_label
_atom_site_fract_x
_atom_site_fract_y
_atom_site_fract_z
Si Si1 0.537578 0.120294 0.069373
Si Si2 0.383539 0.259522 0.236305
Si Si3 0.450430 0.657427 0.995388
Si Si4 0.884220 0.741251 0.781352
Si Si5 0.810276 0.489898 0.864841
Si Si6 0.670501 0.483081 0.864955
Si Si7 0.000000 0.426698 0.250000
O O1 0.576366 0.194574 0.164110
O O2 0.503663 0.234880 0.997421
O O3 0.491334 0.027176 0.140882
O O4 0.570688 0.000000 0.000000
O O5 0.420927 0.314256 0.128257
O O6 0.349760 0.384913 0.293833
O O7 0.341396 0.140941 0.190260
O O8 0.470017 0.500000 0.000000
O O9 0.405203 0.687510 0.099082
O O10 0.835162 0.627372 0.806703
O O11 0.942094 0.662760 0.737889
O O12 0.860798 0.852207 0.691527
O O13 0.740653 0.473595 0.855016
O O14 0.825697 0.500000 0.000000
O O15 0.655556 0.500000 0.000000
#
# Coordination Sequence:
#
# PCOD9321650 Si02
#       7
#     8   8   8   8   8   8   4
#     4  12  25  42  66 102 140 181 228 282 351 422
#     4  12  24  44  69  99 140 177 230 291 341 418
#     4  12  24  42  68 103 137 179 226 284 348 419
#     4  12  24  44  72 102 138 180 234 285 348 426
#     4  11  23  45  75 100 133 183 238 292 344 415
#     4  11  28  46  66 101 141 185 231 291 357 408
#     4  12  24  40  70 102 134 178 228 284 348 418
#
# _framework density 20.079743000000001
#
# number of rings (size 3 to 8) (size 9 to 14) (size 15 to 20)
#    0.000    0.308    7.692    0.923    2.154    1.846 
#    0.000    0.000    0.000    0.000    0.000    0.000 
#    0.000    0.000    0.000    0.000    0.000    0.000 
#
# Total GULP energy -145449.579153 kJ/mol
# GULP energy per Si atom -5594.214583 kJ/mol
# Density = 2.003404 g / cm^3
# Si number density = 20.079743 Si / 1000 Ang^3
#
#
#
# Elastic Constant Matrix: (Units=GPa)
#
#
# Indices 1 2 3 4 5 6 
#
# 1 78.8834 58.1768 44.0000 0.0000 0.0000 0.0000
# 2 58.1768 183.3435 63.7332 0.0000 0.0000 0.0000
# 3 44.0000 63.7332 109.2056 0.0000 0.0000 0.0000
# 4 0.0000 0.0000 0.0000 47.7527 0.0000 0.0000
# 5 0.0000 0.0000 0.0000 0.0000 34.7554 0.0000
# 6 0.0000 0.0000 0.0000 0.0000 0.0000 29.2612
#
#
#
# Elastic Compliance Matrix: (Units=1/GPa)
#
#
# Indices 1 2 3 4 5 6 
#
# 1 0.018543 -0.004123 -0.005065 0.000000 0.000000 0.000000
# 2 -0.004123 0.007759 -0.002867 0.000000 0.000000 0.000000
# 3 -0.005065 -0.002867 0.012871 0.000000 0.000000 0.000000
# 4 0.000000 0.000000 0.000000 0.020941 0.000000 0.000000
# 5 0.000000 0.000000 0.000000 0.000000 0.028773 0.000000
# 6 0.000000 0.000000 0.000000 0.000000 0.000000 0.034175
#
#
# Mechanical properties :
#
#
# Convention : Reuss Voigt Hill
#
# Bulk Modulus (GPa) = 66.38817 78.13917 72.26367
# Shear Modulus (GPa) = 32.85304 36.05534 34.45419
#
# Velocity S-wave (km/s) = 4.04930 4.24206 4.14680
# Velocity P-wave (km/s) = 7.41596 7.93677 7.68078
#
# Compressibility (1/GPa) = 0.01506292
#
# Stress axis : x y z
#
# Youngs Moduli (GPa) = 53.92895 128.87878 77.69464
#
# Poissons Ratio (x) = 0.53140 0.39350
# Poissons Ratio (y) = 0.22236 0.22275
# Poissons Ratio (z) = 0.27314 0.36950
#
# Static dielectric constant tensor:
#      x y z
#    x 1.682820 0.000000 0.000000 
#    y 0.000000 1.694730 0.000000 
#    z 0.000000 0.000000 1.761440 
# 
# From -- ./inp_files/17032.got.cif
#   From: 2010.05.17/outbox.cif.g08.bks.cpg/sg20_9_cif.got.tgz:17032.got - 2010.06.03 22:52:26.
