data_PCOD9321509
_publ_section_title
;
Structure prediction by ZEFSAII (Michael W. Deem and Ramdas Pophale) SiO2 
 PCOD9321509
Probable space group: C 2 2 21
;
_chemical_formula_sum "Si O2"
_cell_formula_units_Z 56
_cell_length_a 16.179394
_cell_length_b 7.949111
_cell_length_c 19.301649
_cell_angle_alpha 90.000000
_cell_angle_beta 90.000000
_cell_angle_gamma 90.000000
_cell_volume 2482.419798
_symmetry_space_group_name_H-M "C 2 2 21"
_symmetry_group_IT_number 20
_symmetry_cell_setting 'orthorhombic'
loop_
_space_group_symop_operation_xyz
x,y,z
-x,-y,1/2+z
x,-y,-z
-x,y,1/2-z
1/2+x,1/2+y,z
1/2-x,1/2-y,1/2+z
1/2+x,1/2-y,-z
1/2-x,1/2+y,1/2-z
loop_
_atom_site_type_symbol
_atom_site_label
_atom_site_fract_x
_atom_site_fract_y
_atom_site_fract_z
Si Si1 0.052621 0.451603 0.680478
Si Si2 0.474010 0.500000 0.500000
Si Si3 0.710284 0.000000 0.500000
Si Si4 0.749982 0.406712 0.358161
Si Si5 0.895491 0.789191 0.069897
Si Si6 0.652475 0.617919 0.896645
Si Si7 0.262077 0.956544 0.786147
Si Si8 0.915350 0.506789 0.419221
O O1 0.064666 0.272611 0.641992
O O2 0.144436 0.519841 0.696737
O O3 0.000000 0.436838 0.750000
O O4 0.994178 0.547503 0.625827
O O5 0.535941 0.651827 0.516389
O O6 0.414890 0.505483 0.432823
O O7 0.654236 0.869999 0.541367
O O8 0.768981 0.896871 0.447997
O O9 0.672757 0.427002 0.409465
O O10 0.742384 0.228882 0.318602
O O11 0.752297 0.540722 0.296372
O O12 0.834161 0.401508 0.400999
O O13 0.689070 0.560649 0.823306
O O14 0.613398 0.803173 0.898877
O O15 0.933472 0.500000 0.500000
#
# Coordination Sequence:
#
# PCOD9321509 Si02
#       8
#     8   4   4   8   8   8   8   8
#     4  11  23  45  68 100 136 183 232 290 351 423
#     4  11  26  44  64 107 142 180 237 296 346 418
#     4  11  22  44  68  99 138 186 225 288 354 426
#     4  11  24  45  70 105 136 184 241 283 354 430
#     4  11  25  43  69 101 141 183 234 288 359 415
#     4  11  24  44  68 101 142 186 229 289 351 424
#     4  11  24  46  74  96 137 189 234 292 357 428
#     4  12  26  42  73 105 143 185 239 299 356 424
#
# _framework density 22.558634000000001
#
# number of rings (size 3 to 8) (size 9 to 14) (size 15 to 20)
#    0.000    0.857    5.714    1.714    8.000    0.000 
#    0.000    0.000    3.143    0.000    0.000    0.000 
#    0.000    0.000    0.000    0.000    0.000    0.000 
#
# Total GULP energy -156535.767853 kJ/mol
# GULP energy per Si atom -5590.563138 kJ/mol
# Density = 2.250729 g / cm^3
# Si number density = 22.558634 Si / 1000 Ang^3
#
#
#
# Elastic Constant Matrix: (Units=GPa)
#
#
# Indices 1 2 3 4 5 6 
#
# 1 159.2811 23.8073 52.2168 0.0000 0.0000 0.0000
# 2 23.8073 39.8804 10.5404 0.0000 0.0000 0.0000
# 3 52.2168 10.5404 109.7402 0.0000 0.0000 0.0000
# 4 0.0000 0.0000 0.0000 34.5118 0.0000 0.0000
# 5 0.0000 0.0000 0.0000 0.0000 37.3384 0.0000
# 6 0.0000 0.0000 0.0000 0.0000 0.0000 31.0176
#
#
#
# Elastic Compliance Matrix: (Units=1/GPa)
#
#
# Indices 1 2 3 4 5 6 
#
# 1 0.007978 -0.003857 -0.003425 0.000000 0.000000 0.000000
# 2 -0.003857 0.027593 -0.000815 0.000000 0.000000 0.000000
# 3 -0.003425 -0.000815 0.010821 0.000000 0.000000 0.000000
# 4 0.000000 0.000000 0.000000 0.028976 0.000000 0.000000
# 5 0.000000 0.000000 0.000000 0.000000 0.026782 0.000000
# 6 0.000000 0.000000 0.000000 0.000000 0.000000 0.032240
#
#
# Mechanical properties :
#
#
# Convention : Reuss Voigt Hill
#
# Bulk Modulus (GPa) = 33.11677 53.55895 43.33786
# Shear Modulus (GPa) = 31.12372 35.39603 33.25987
#
# Velocity S-wave (km/s) = 3.71844 3.96544 3.84392
# Velocity P-wave (km/s) = 5.75742 6.69029 6.24131
#
# Compressibility (1/GPa) = 0.03019618
#
# Stress axis : x y z
#
# Youngs Moduli (GPa) = 125.34965 36.24116 92.41602
#
# Poissons Ratio (x) = 0.13978 0.31657
# Poissons Ratio (y) = 0.48348 0.07532
# Poissons Ratio (z) = 0.42938 0.02954
#
# Static dielectric constant tensor:
#      x y z
#    x 1.864780 0.000000 0.000000 
#    y 0.000000 1.880890 0.000000 
#    z 0.000000 0.000000 1.843460 
# 
# From -- ./inp_files/27620.got.cif
#   From: 2010.05.17/outbox.cif.g08.bks.cpg/sg20_14_cif.got.tgz:27620.got - 2010.06.03 22:52:26.
