data_PCOD9321481
_publ_section_title
;
Structure prediction by ZEFSAII (Michael W. Deem and Ramdas Pophale) SiO2 
 PCOD9321481
Probable space group: C 2 2 21
;
_chemical_formula_sum "Si O2"
_cell_formula_units_Z 48
_cell_length_a 14.947588
_cell_length_b 18.711229
_cell_length_c 7.581939
_cell_angle_alpha 90.000000
_cell_angle_beta 90.000000
_cell_angle_gamma 90.000000
_cell_volume 2120.575399
_symmetry_space_group_name_H-M "C 2 2 21"
_symmetry_group_IT_number 20
_symmetry_cell_setting 'orthorhombic'
loop_
_space_group_symop_operation_xyz
x,y,z
-x,-y,1/2+z
x,-y,-z
-x,y,1/2-z
1/2+x,1/2+y,z
1/2-x,1/2-y,1/2+z
1/2+x,1/2-y,-z
1/2-x,1/2+y,1/2-z
loop_
_atom_site_type_symbol
_atom_site_label
_atom_site_fract_x
_atom_site_fract_y
_atom_site_fract_z
Si Si1 0.640376 0.922352 0.254372
Si Si2 0.899081 0.051989 0.327550
Si Si3 0.664100 0.287917 0.873017
Si Si4 0.351191 0.203473 0.982290
Si Si5 0.000000 0.541486 0.250000
Si Si6 0.223053 0.000000 0.500000
Si Si7 0.947683 0.670472 0.473945
O O1 0.677301 0.876153 0.415074
O O2 0.577919 0.863542 0.161671
O O3 0.577060 0.987139 0.313019
O O4 0.712775 0.946433 0.110462
O O5 0.871216 0.131718 0.386124
O O6 0.836453 0.032494 0.158678
O O7 0.000000 0.049915 0.250000
O O8 0.890301 0.000000 0.500000
O O9 0.642422 0.259477 0.677274
O O10 0.616698 0.238690 0.022425
O O11 0.770181 0.276773 0.892082
O O12 0.450979 0.196110 0.055920
O O13 0.943257 0.596943 0.365315
#
# Coordination Sequence:
#
# PCOD9321481 Si02
#       7
#     8   8   8   8   4   4   8
#     4  11  22  42  69 111 151 190 243 317 374 463
#     4  12  27  54  78 109 145 202 260 326 385 445
#     4  11  27  48  69 105 147 193 253 313 371 462
#     4  11  25  44  72 102 146 199 246 304 386 451
#     4  12  22  40  74 110 154 188 238 302 396 458
#     4  12  26  44  80 110 150 194 256 318 390 452
#     4  11  24  44  67 106 147 199 241 302 389 449
#
# _framework density 22.635366000000001
#
# number of rings (size 3 to 8) (size 9 to 14) (size 15 to 20)
#    0.000    0.667    4.167    3.500    9.333    0.000 
#    1.500    0.000    0.000    0.000    0.000    0.000 
#    0.000    0.000    0.000    0.000    0.000    0.000 
#
# Total GULP energy -133858.369197 kJ/mol
# GULP energy per Si atom -5577.432050 kJ/mol
# Density = 2.258385 g / cm^3
# Si number density = 22.635366 Si / 1000 Ang^3
#
#
#
# Elastic Constant Matrix: (Units=GPa)
#
#
# Indices 1 2 3 4 5 6 
#
# 1 131.2186 45.7298 29.5528 0.0000 0.0000 0.0000
# 2 45.7298 152.6866 43.2908 0.0000 0.0000 0.0000
# 3 29.5528 43.2908 62.8207 0.0000 0.0000 0.0000
# 4 0.0000 0.0000 0.0000 20.4354 0.0000 0.0000
# 5 0.0000 0.0000 0.0000 0.0000 47.3386 0.0000
# 6 0.0000 0.0000 0.0000 0.0000 0.0000 25.3101
#
#
#
# Elastic Compliance Matrix: (Units=1/GPa)
#
#
# Indices 1 2 3 4 5 6 
#
# 1 0.008922 -0.001842 -0.002928 0.000000 0.000000 0.000000
# 2 -0.001842 0.008520 -0.005005 0.000000 0.000000 0.000000
# 3 -0.002928 -0.005005 0.020745 0.000000 0.000000 0.000000
# 4 0.000000 0.000000 0.000000 0.048935 0.000000 0.000000
# 5 0.000000 0.000000 0.000000 0.000000 0.021124 0.000000
# 6 0.000000 0.000000 0.000000 0.000000 0.000000 0.039510
#
#
# Mechanical properties :
#
#
# Convention : Reuss Voigt Hill
#
# Bulk Modulus (GPa) = 53.65551 64.87474 59.26512
# Shear Modulus (GPa) = 28.81549 33.82698 31.32123
#
# Velocity S-wave (km/s) = 3.57182 3.86998 3.72389
# Velocity P-wave (km/s) = 6.38485 6.97797 6.68799
#
# Compressibility (1/GPa) = 0.01863742
#
# Stress axis : x y z
#
# Youngs Moduli (GPa) = 112.07931 117.37026 48.20546
#
# Poissons Ratio (x) = 0.21621 0.14114
# Poissons Ratio (y) = 0.20646 0.24126
# Poissons Ratio (z) = 0.32816 0.58741
#
# Static dielectric constant tensor:
#      x y z
#    x 1.867030 0.000000 0.000000 
#    y 0.000000 1.851580 0.000000 
#    z 0.000000 0.000000 1.941970 
# 
# From -- ./inp_files/8485.got.cif
#   From: 2010.05.17/outbox.cif.g08.bks.cpg/sg20_5_cif.got.tgz:8485.got - 2010.06.03 22:52:26.
