data_PCOD9321035
_publ_section_title
;
Structure prediction by ZEFSAII (Michael W. Deem and Ramdas Pophale) SiO2 
 PCOD9321035
Probable space group: C 2 2 21
;
_chemical_formula_sum "Si O2"
_cell_formula_units_Z 60
_cell_length_a 18.250193
_cell_length_b 25.116228
_cell_length_c 6.155518
_cell_angle_alpha 90.000000
_cell_angle_beta 90.000000
_cell_angle_gamma 90.000000
_cell_volume 2821.541771
_symmetry_space_group_name_H-M "C 2 2 21"
_symmetry_group_IT_number 20
_symmetry_cell_setting 'orthorhombic'
loop_
_space_group_symop_operation_xyz
x,y,z
-x,-y,1/2+z
x,-y,-z
-x,y,1/2-z
1/2+x,1/2+y,z
1/2-x,1/2-y,1/2+z
1/2+x,1/2-y,-z
1/2-x,1/2+y,1/2-z
loop_
_atom_site_type_symbol
_atom_site_label
_atom_site_fract_x
_atom_site_fract_y
_atom_site_fract_z
Si Si1 0.219579 0.904342 0.354725
Si Si2 0.806547 0.192565 0.100730
Si Si3 0.413582 0.473308 0.251493
Si Si4 0.177504 0.500000 0.000000
Si Si5 0.428271 0.948926 0.861814
Si Si6 0.655942 0.765043 0.758957
Si Si7 0.151455 0.645333 0.599012
Si Si8 0.578200 0.760558 0.153568
O O1 0.207549 0.869845 0.574749
O O2 0.143344 0.924625 0.258410
O O3 0.269884 0.868448 0.198263
O O4 0.269972 0.955645 0.397370
O O5 0.842042 0.211322 0.875556
O O6 0.730806 0.225632 0.108807
O O7 0.862170 0.215793 0.277661
O O8 0.401090 0.500000 0.500000
O O9 0.500000 0.460561 0.250000
O O10 0.401564 0.500000 0.000000
O O11 0.127557 0.529372 0.179381
O O12 0.500000 0.924488 0.750000
O O13 0.389084 0.907513 0.020703
O O14 0.453280 0.000000 0.000000
O O15 0.658225 0.815440 0.602616
O O16 0.583252 0.764942 0.898217
O O17 0.105292 0.681595 0.764291
O O18 0.500000 0.748063 0.250000
#
# Coordination Sequence:
#
# PCOD9321035 Si02
#       8
#     8   8   8   4   8   8   8   8
#     4  12  24  44  71 104 134 184 240 298 353 431
#     4  11  22  42  69  99 130 173 229 282 352 409
#     4  10  24  48  73 102 144 192 240 302 373 433
#     4  12  26  44  66  94 138 182 240 286 346 418
#     4  12  26  43  61  95 143 185 229 286 338 408
#     4  11  21  44  68  95 133 175 224 281 348 421
#     4  11  26  39  70 102 131 185 232 276 349 420
#     4  11  26  45  68 102 139 177 224 288 351 429
#
# _framework density 21.264970999999999
#
# number of rings (size 3 to 8) (size 9 to 14) (size 15 to 20)
#    0.000    0.800    5.333    1.600    3.733    3.200 
#    2.400    0.667    0.000    0.000    0.000    0.000 
#    0.000    0.000    0.000    0.000    0.000    0.000 
#
# Total GULP energy -167354.877054 kJ/mol
# GULP energy per Si atom -5578.495902 kJ/mol
# Density = 2.121657 g / cm^3
# Si number density = 21.264971 Si / 1000 Ang^3
#
#
#
# Elastic Constant Matrix: (Units=GPa)
#
#
# Indices 1 2 3 4 5 6 
#
# 1 73.3519 7.3794 5.0002 0.0000 0.0000 0.0000
# 2 7.3794 58.2200 -0.1617 0.0000 0.0000 0.0000
# 3 5.0002 -0.1617 59.3588 0.0000 0.0000 0.0000
# 4 0.0000 0.0000 0.0000 18.4009 0.0000 0.0000
# 5 0.0000 0.0000 0.0000 0.0000 302.6309 0.0000
# 6 0.0000 0.0000 0.0000 0.0000 0.0000 14.5689
#
#
#
# Elastic Compliance Matrix: (Units=1/GPa)
#
#
# Indices 1 2 3 4 5 6 
#
# 1 0.013890 -0.001764 -0.001175 0.000000 0.000000 0.000000
# 2 -0.001764 0.017400 0.000196 0.000000 0.000000 0.000000
# 3 -0.001175 0.000196 0.016946 0.000000 0.000000 0.000000
# 4 0.000000 0.000000 0.000000 0.054345 0.000000 0.000000
# 5 0.000000 0.000000 0.000000 0.000000 0.003304 0.000000
# 6 0.000000 0.000000 0.000000 0.000000 0.000000 0.068639
#
#
# Mechanical properties :
#
#
# Convention : Reuss Voigt Hill
#
# Bulk Modulus (GPa) = 23.39106 23.92963 23.66034
# Shear Modulus (GPa) = 25.73846 79.03432 52.38639
#
# Velocity S-wave (km/s) = 3.48281 6.10304 4.96876
# Velocity P-wave (km/s) = 5.21507 7.80643 6.63842
#
# Compressibility (1/GPa) = 0.04275138
#
# Stress axis : x y z
#
# Youngs Moduli (GPa) = 71.99189 57.47013 59.01027
#
# Poissons Ratio (x) = 0.10137 0.06933
# Poissons Ratio (y) = 0.12699 -0.01156
# Poissons Ratio (z) = 0.08458 -0.01126
#
# Static dielectric constant tensor:
#      x y z
#    x 1.784640 0.000000 0.000000 
#    y 0.000000 0.555900 0.000000 
#    z 0.000000 0.000000 1.994430 
# 
# From -- ./inp_files/2828.got.cif
#   From: 2010.05.17/outbox.cif.g08.bks.cpg/sg20_2_cif.got.tgz:2828.got - 2010.06.03 22:52:26.
