data_PCOD9321549
_publ_section_title
;
Structure prediction by ZEFSAII (Michael W. Deem and Ramdas Pophale) SiO2 
 PCOD9321549
Probable space group: C 2 2 21
;
_chemical_formula_sum "Si O2"
_cell_formula_units_Z 64
_cell_length_a 8.395587
_cell_length_b 17.067119
_cell_length_c 24.474122
_cell_angle_alpha 90.000000
_cell_angle_beta 90.000000
_cell_angle_gamma 90.000000
_cell_volume 3506.859800
_symmetry_space_group_name_H-M "C 2 2 21"
_symmetry_group_IT_number 20
_symmetry_cell_setting 'orthorhombic'
loop_
_space_group_symop_operation_xyz
x,y,z
-x,-y,1/2+z
x,-y,-z
-x,y,1/2-z
1/2+x,1/2+y,z
1/2-x,1/2-y,1/2+z
1/2+x,1/2-y,-z
1/2-x,1/2+y,1/2-z
loop_
_atom_site_type_symbol
_atom_site_label
_atom_site_fract_x
_atom_site_fract_y
_atom_site_fract_z
Si Si1 0.944846 0.657747 0.611186
Si Si2 0.047804 0.846897 0.499873
Si Si3 0.427435 0.175503 0.487978
Si Si4 0.428964 0.519612 0.310279
Si Si5 0.140646 0.415933 0.889061
Si Si6 0.361081 0.562285 0.901419
Si Si7 0.060476 0.478490 0.311287
Si Si8 0.967269 0.163160 0.122995
O O1 0.993398 0.649690 0.547110
O O2 0.757552 0.634019 0.613367
O O3 0.030470 0.596751 0.650591
O O4 0.984388 0.746574 0.627191
O O5 0.236563 0.831612 0.507218
O O6 0.037689 0.913430 0.454233
O O7 0.986445 0.863146 0.560986
O O8 0.972341 0.765706 0.479667
O O9 0.467740 0.121871 0.436198
O O10 0.500000 0.513602 0.250000
O O11 0.530270 0.464979 0.351470
O O12 0.245476 0.497637 0.310229
O O13 0.450358 0.607132 0.333613
O O14 0.241880 0.489501 0.913279
O O15 0.277234 0.353869 0.871717
O O16 0.040789 0.451489 0.839406
O O17 0.000000 0.464864 0.250000
#
# Coordination Sequence:
#
# PCOD9321549 Si02
#       8
#     8   8   8   8   8   8   8   8
#     4   9  19  36  57  82 111 146 180 216 270 329
#     4   9  18  32  54  82 114 144 174 215 266 321
#     4   9  18  32  54  82 114 144 174 215 266 321
#     4  11  23  39  57  78 106 142 186 235 278 323
#     4   9  19  35  56  80 111 148 182 219 268 326
#     4   9  19  35  56  80 111 148 182 219 268 326
#     4  11  23  39  57  78 106 142 186 235 278 323
#     4   9  19  36  57  82 111 146 180 216 270 329
#
# _framework density 18.249946000000001
#
# number of rings (size 3 to 8) (size 9 to 14) (size 15 to 20)
#    0.000    2.500    0.000    2.250    0.000   18.000 
#    0.000    1.250    0.000    5.250    0.000    0.000 
#    0.000    0.000    0.000    0.000    0.000    0.000 
#
# Total GULP energy -178447.257002 kJ/mol
# GULP energy per Si atom -5576.476781 kJ/mol
# Density = 1.820841 g / cm^3
# Si number density = 18.249946 Si / 1000 Ang^3
#
#
#
# Elastic Constant Matrix: (Units=GPa)
#
#
# Indices 1 2 3 4 5 6 
#
# 1 48.8734 28.8006 21.2118 0.0000 0.0000 0.0000
# 2 28.8006 53.4484 12.1130 0.0000 0.0000 0.0000
# 3 21.2118 12.1130 49.4647 0.0000 0.0000 0.0000
# 4 0.0000 0.0000 0.0000 4.7966 0.0000 0.0000
# 5 0.0000 0.0000 0.0000 0.0000 23.9667 0.0000
# 6 0.0000 0.0000 0.0000 0.0000 0.0000 30.4317
#
#
#
# Elastic Compliance Matrix: (Units=1/GPa)
#
#
# Indices 1 2 3 4 5 6 
#
# 1 0.034796 -0.016271 -0.010937 0.000000 0.000000 0.000000
# 2 -0.016271 0.027418 0.000264 0.000000 0.000000 0.000000
# 3 -0.010937 0.000264 0.024842 0.000000 0.000000 0.000000
# 4 0.000000 0.000000 0.000000 0.208479 0.000000 0.000000
# 5 0.000000 0.000000 0.000000 0.000000 0.041725 0.000000
# 6 0.000000 0.000000 0.000000 0.000000 0.000000 0.032860
#
#
# Mechanical properties :
#
#
# Convention : Reuss Voigt Hill
#
# Bulk Modulus (GPa) = 30.15107 30.67078 30.41093
# Shear Modulus (GPa) = 11.49251 17.81641 14.65446
#
# Velocity S-wave (km/s) = 2.51216 3.12788 2.83678
# Velocity P-wave (km/s) = 4.99716 5.46693 5.23732
#
# Compressibility (1/GPa) = 0.03316632
#
# Stress axis : x y z
#
# Youngs Moduli (GPa) = 28.73856 36.47278 40.25432
#
# Poissons Ratio (x) = 0.59346 0.44027
# Poissons Ratio (y) = 0.46761 -0.01061
# Poissons Ratio (z) = 0.31432 -0.00961
#
# Static dielectric constant tensor:
#      x y z
#    x 1.636870 0.000000 0.000000 
#    y 0.000000 1.632840 0.000000 
#    z 0.000000 0.000000 1.648140 
# 
# From -- ./inp_files/26885.got.cif
#   From: 2010.05.17/outbox.cif.g08.bks.cpg/sg20_14_cif.got.tgz:26885.got - 2010.06.03 22:52:26.
