data_PCOD9321017
_publ_section_title
;
Structure prediction by ZEFSAII (Michael W. Deem and Ramdas Pophale) SiO2 
 PCOD9321017
Probable space group: C 2 2 21
;
_chemical_formula_sum "Si O2"
_cell_formula_units_Z 20
_cell_length_a 5.320233
_cell_length_b 13.539264
_cell_length_c 11.942149
_cell_angle_alpha 90.000000
_cell_angle_beta 90.000000
_cell_angle_gamma 90.000000
_cell_volume 860.217344
_symmetry_space_group_name_H-M "C 2 2 21"
_symmetry_group_IT_number 20
_symmetry_cell_setting 'orthorhombic'
loop_
_space_group_symop_operation_xyz
x,y,z
-x,-y,1/2+z
x,-y,-z
-x,y,1/2-z
1/2+x,1/2+y,z
1/2-x,1/2-y,1/2+z
1/2+x,1/2-y,-z
1/2-x,1/2+y,1/2-z
loop_
_atom_site_type_symbol
_atom_site_label
_atom_site_fract_x
_atom_site_fract_y
_atom_site_fract_z
Si Si1 0.000000 0.578239 0.250000
Si Si2 0.114205 0.312506 0.980103
Si Si3 0.245180 0.388818 0.206952
O O1 0.940119 0.638855 0.360627
O O2 0.778526 0.496593 0.236018
O O3 0.207401 0.390526 0.074389
O O4 0.348402 0.236086 0.982142
O O5 0.500000 0.342888 0.250000
O O6 0.000000 0.331054 0.250000
#
# Coordination Sequence:
#
# PCOD9321017 Si02
#       3
#     4   8   8
#     4  10  28  46  76 102 144 192 242 282 364 424
#     4  12  28  45  74 109 147 183 238 300 360 414
#     4  10  24  47  73  99 144 187 241 281 355 428
#
# _framework density 23.249938
#
# number of rings (size 3 to 8) (size 9 to 14) (size 15 to 20)
#    1.200    0.000    0.000    3.600   14.000    0.000 
#    7.200    0.000    0.000    0.000    0.000    0.000 
#    0.000    0.000    0.000    0.000    0.000    0.000 
#
# Total GULP energy -55744.023324 kJ/mol
# GULP energy per Si atom -5574.402332 kJ/mol
# Density = 2.319702 g / cm^3
# Si number density = 23.249938 Si / 1000 Ang^3
#
#
#
# Elastic Constant Matrix: (Units=GPa)
#
#
# Indices 1 2 3 4 5 6 
#
# 1 191.4223 26.4236 51.9513 0.0000 0.0000 0.0000
# 2 26.4236 58.7465 31.0755 0.0000 0.0000 0.0000
# 3 51.9513 31.0755 166.0990 0.0000 0.0000 0.0000
# 4 0.0000 0.0000 0.0000 41.2228 0.0000 0.0000
# 5 0.0000 0.0000 0.0000 0.0000 33.5430 0.0000
# 6 0.0000 0.0000 0.0000 0.0000 0.0000 16.1434
#
#
#
# Elastic Compliance Matrix: (Units=1/GPa)
#
#
# Indices 1 2 3 4 5 6 
#
# 1 0.005886 -0.001857 -0.001493 0.000000 0.000000 0.000000
# 2 -0.001857 0.019478 -0.003063 0.000000 0.000000 0.000000
# 3 -0.001493 -0.003063 0.007061 0.000000 0.000000 0.000000
# 4 0.000000 0.000000 0.000000 0.024258 0.000000 0.000000
# 5 0.000000 0.000000 0.000000 0.000000 0.029812 0.000000
# 6 0.000000 0.000000 0.000000 0.000000 0.000000 0.061945
#
#
# Mechanical properties :
#
#
# Convention : Reuss Voigt Hill
#
# Bulk Modulus (GPa) = 51.02942 70.57428 60.80185
# Shear Modulus (GPa) = 29.79731 38.63633 34.21682
#
# Velocity S-wave (km/s) = 3.58384 4.08092 3.84043
# Velocity P-wave (km/s) = 6.25468 7.25436 6.77299
#
# Compressibility (1/GPa) = 0.01959654
#
# Stress axis : x y z
#
# Youngs Moduli (GPa) = 169.90197 51.33970 141.62901
#
# Poissons Ratio (x) = 0.09536 0.21151
# Poissons Ratio (y) = 0.31557 0.43384
# Poissons Ratio (z) = 0.25373 0.15726
#
# Static dielectric constant tensor:
#      x y z
#    x 1.967770 0.000000 0.000000 
#    y 0.000000 1.886690 0.000000 
#    z 0.000000 0.000000 1.899690 
# 
# From -- ./inp_files/4889.got.cif
#   From: 2010.05.17/outbox.cif.g08.bks.cpg/sg20_3_cif.got.tgz:4889.got - 2010.06.03 22:52:26.
