data_PCOD9321943
_publ_section_title
;
Structure prediction by ZEFSAII (Michael W. Deem and Ramdas Pophale) SiO2 
 PCOD9321943
Probable space group: C 2 2 21
;
_chemical_formula_sum "Si O2"
_cell_formula_units_Z 32
_cell_length_a 9.046735
_cell_length_b 32.728480
_cell_length_c 4.970143
_cell_angle_alpha 90.000000
_cell_angle_beta 90.000000
_cell_angle_gamma 90.000000
_cell_volume 1471.589191
_symmetry_space_group_name_H-M "C 2 2 21"
_symmetry_group_IT_number 20
_symmetry_cell_setting 'orthorhombic'
loop_
_space_group_symop_operation_xyz
x,y,z
-x,-y,1/2+z
x,-y,-z
-x,y,1/2-z
1/2+x,1/2+y,z
1/2-x,1/2-y,1/2+z
1/2+x,1/2-y,-z
1/2-x,1/2+y,1/2-z
loop_
_atom_site_type_symbol
_atom_site_label
_atom_site_fract_x
_atom_site_fract_y
_atom_site_fract_z
Si Si1 0.728730 0.088380 0.857158
Si Si2 0.170345 0.357142 0.654672
Si Si3 0.000000 0.030652 0.750000
Si Si4 0.679108 0.271112 0.764521
Si Si5 0.000000 0.523842 0.750000
O O1 0.674271 0.119348 0.627311
O O2 0.608701 0.053484 0.909587
O O3 0.864328 0.061858 0.754770
O O4 0.749914 0.114190 0.125661
O O5 0.259623 0.315005 0.642365
O O6 0.000000 0.350772 0.750000
O O7 0.002591 0.000000 0.500000
O O8 0.500000 0.269462 0.750000
O O9 0.753993 0.260984 0.478221
O O10 0.074471 0.500000 0.500000
#
# Coordination Sequence:
#
# PCOD9321943 Si02
#       5
#     8   8   4   8   4
#     4  12  25  42  68 100 135 180 230 282 350 405
#     4  12  24  45  70 102 141 179 227 286 343 416
#     4  12  26  46  66  94 136 180 230 292 348 412
#     4  12  27  48  77 110 147 190 235 288 352 424
#     4  12  22  40  64  94 130 174 230 280 338 406
#
# _framework density 21.745199
#
# number of rings (size 3 to 8) (size 9 to 14) (size 15 to 20)
#    0.000    0.000    2.500    8.250    3.500    0.000 
#    0.000    0.000    0.000    0.000    0.000    0.000 
#    0.000    0.000    0.000    0.000    0.000    0.000 
#
# Total GULP energy -89512.219930 kJ/mol
# GULP energy per Si atom -5594.513746 kJ/mol
# Density = 2.169571 g / cm^3
# Si number density = 21.745199 Si / 1000 Ang^3
#
#
#
# Elastic Constant Matrix: (Units=GPa)
#
#
# Indices 1 2 3 4 5 6 
#
# 1 124.5292 32.6712 -9.7243 0.0000 0.0000 0.0000
# 2 32.6712 94.6894 17.7947 0.0000 0.0000 0.0000
# 3 -9.7243 17.7947 108.9410 0.0000 0.0000 0.0000
# 4 0.0000 0.0000 0.0000 20.4309 0.0000 0.0000
# 5 0.0000 0.0000 0.0000 0.0000 22.9178 0.0000
# 6 0.0000 0.0000 0.0000 0.0000 0.0000 35.3920
#
#
#
# Elastic Compliance Matrix: (Units=1/GPa)
#
#
# Indices 1 2 3 4 5 6 
#
# 1 0.009019 -0.003367 0.001355 0.000000 0.000000 0.000000
# 2 -0.003367 0.012152 -0.002285 0.000000 0.000000 0.000000
# 3 0.001355 -0.002285 0.009674 0.000000 0.000000 0.000000
# 4 0.000000 0.000000 0.000000 0.048945 0.000000 0.000000
# 5 0.000000 0.000000 0.000000 0.000000 0.043634 0.000000
# 6 0.000000 0.000000 0.000000 0.000000 0.000000 0.028255
#
#
# Mechanical properties :
#
#
# Convention : Reuss Voigt Hill
#
# Bulk Modulus (GPa) = 44.94250 45.51587 45.22918
# Shear Modulus (GPa) = 29.81684 34.90935 32.36309
#
# Velocity S-wave (km/s) = 3.70698 4.01107 3.86202
# Velocity P-wave (km/s) = 6.24779 6.51371 6.38214
#
# Compressibility (1/GPa) = 0.02225066
#
# Stress axis : x y z
#
# Youngs Moduli (GPa) = 110.87324 82.29139 103.37479
#
# Poissons Ratio (x) = 0.27704 -0.14007
# Poissons Ratio (y) = 0.37327 0.23626
# Poissons Ratio (z) = -0.15023 0.18807
#
# Static dielectric constant tensor:
#      x y z
#    x 1.744870 0.000000 0.000000 
#    y 0.000000 1.741720 0.000000 
#    z 0.000000 0.000000 1.712240 
# 
# From -- ./inp_files/607.got.cif
#   From: 2010.05.17/outbox.cif.g08.bks.cpg/sg20_1_cif.got.tgz:607.got - 2010.06.03 22:52:26.
