data_PCOD9321323
_publ_section_title
;
Structure prediction by ZEFSAII (Michael W. Deem and Ramdas Pophale) SiO2 
 PCOD9321323
Probable space group: C 2 2 21
;
_chemical_formula_sum "Si O2"
_cell_formula_units_Z 36
_cell_length_a 12.561640
_cell_length_b 19.148226
_cell_length_c 6.507812
_cell_angle_alpha 90.000000
_cell_angle_beta 90.000000
_cell_angle_gamma 90.000000
_cell_volume 1565.344335
_symmetry_space_group_name_H-M "C 2 2 21"
_symmetry_group_IT_number 20
_symmetry_cell_setting 'orthorhombic'
loop_
_space_group_symop_operation_xyz
x,y,z
-x,-y,1/2+z
x,-y,-z
-x,y,1/2-z
1/2+x,1/2+y,z
1/2-x,1/2-y,1/2+z
1/2+x,1/2-y,-z
1/2-x,1/2+y,1/2-z
loop_
_atom_site_type_symbol
_atom_site_label
_atom_site_fract_x
_atom_site_fract_y
_atom_site_fract_z
Si Si1 0.616758 0.764516 0.523941
Si Si2 0.000000 0.832355 0.750000
Si Si3 0.826358 0.925089 0.540817
Si Si4 0.720972 0.848626 0.174740
Si Si5 0.117853 0.599032 0.216139
O O1 0.522114 0.714339 0.452173
O O2 0.637923 0.812398 0.326210
O O3 0.716086 0.713345 0.561427
O O4 0.610253 0.819812 0.707240
O O5 0.898344 0.878828 0.691528
O O6 0.803818 0.887646 0.324155
O O7 0.711192 0.934425 0.648232
O O8 0.876993 0.000000 0.500000
O O9 0.660130 0.897940 0.015724
O O10 0.000000 0.568945 0.250000
#
# Coordination Sequence:
#
# PCOD9321323 Si02
#       5
#     8   4   8   8   8
#     4  11  21  37  67 106 135 167 222 284 363 416
#     4  12  24  44  70 102 142 182 222 294 354 420
#     4  11  28  48  65 100 139 187 242 277 336 415
#     4  11  21  42  69  98 142 176 220 295 341 417
#     4  11  24  43  71 100 137 180 228 291 348 413
#
# _framework density 22.998134
#
# number of rings (size 3 to 8) (size 9 to 14) (size 15 to 20)
#    0.000    0.889    4.444    2.667    3.111    5.333 
#    4.000    0.000    0.000    0.000    0.000    0.000 
#    0.000    0.000    0.000    0.000    0.000    0.000 
#
# Total GULP energy -100678.218325 kJ/mol
# GULP energy per Si atom -5593.234351 kJ/mol
# Density = 2.294579 g / cm^3
# Si number density = 22.998134 Si / 1000 Ang^3
#
#
#
# Elastic Constant Matrix: (Units=GPa)
#
#
# Indices 1 2 3 4 5 6 
#
# 1 66.8171 -6.4814 10.4695 0.0000 0.0000 0.0000
# 2 -6.4814 51.2574 7.1120 0.0000 0.0000 0.0000
# 3 10.4695 7.1120 96.4214 0.0000 0.0000 0.0000
# 4 0.0000 0.0000 0.0000 15.7851 0.0000 0.0000
# 5 0.0000 0.0000 0.0000 0.0000 24.4678 0.0000
# 6 0.0000 0.0000 0.0000 0.0000 0.0000 6.3826
#
#
#
# Elastic Compliance Matrix: (Units=1/GPa)
#
#
# Indices 1 2 3 4 5 6 
#
# 1 0.015470 0.002212 -0.001843 0.000000 0.000000 0.000000
# 2 0.002212 0.020027 -0.001717 0.000000 0.000000 0.000000
# 3 -0.001843 -0.001717 0.010698 0.000000 0.000000 0.000000
# 4 0.000000 0.000000 0.000000 0.063351 0.000000 0.000000
# 5 0.000000 0.000000 0.000000 0.000000 0.040870 0.000000
# 6 0.000000 0.000000 0.000000 0.000000 0.000000 0.156675
#
#
# Mechanical properties :
#
#
# Convention : Reuss Voigt Hill
#
# Bulk Modulus (GPa) = 22.98959 26.29956 24.64458
# Shear Modulus (GPa) = 15.41845 22.88681 19.15263
#
# Velocity S-wave (km/s) = 2.59206 3.15804 2.88894
# Velocity P-wave (km/s) = 4.35618 4.97574 4.67623
#
# Compressibility (1/GPa) = 0.04349795
#
# Stress axis : x y z
#
# Youngs Moduli (GPa) = 64.64321 49.93173 93.47618
#
# Poissons Ratio (x) = -0.11044 0.17226
# Poissons Ratio (y) = -0.14298 0.16053
# Poissons Ratio (z) = 0.11913 0.08575
#
# Static dielectric constant tensor:
#      x y z
#    x 1.870700 0.000000 0.000000 
#    y 0.000000 1.848960 0.000000 
#    z 0.000000 0.000000 1.882350 
# 
# From -- ./inp_files/1740.got.cif
#   From: 2010.05.17/outbox.cif.g08.bks.cpg/sg20_1_cif.got.tgz:1740.got - 2010.06.03 22:52:26.
