data_PCOD9321565
_publ_section_title
;
Structure prediction by ZEFSAII (Michael W. Deem and Ramdas Pophale) SiO2 
 PCOD9321565
Probable space group: C 2 2 21
;
_chemical_formula_sum "Si O2"
_cell_formula_units_Z 32
_cell_length_a 24.904234
_cell_length_b 4.919299
_cell_length_c 12.507119
_cell_angle_alpha 90.000000
_cell_angle_beta 90.000000
_cell_angle_gamma 90.000000
_cell_volume 1532.264326
_symmetry_space_group_name_H-M "C 2 2 21"
_symmetry_group_IT_number 20
_symmetry_cell_setting 'orthorhombic'
loop_
_space_group_symop_operation_xyz
x,y,z
-x,-y,1/2+z
x,-y,-z
-x,y,1/2-z
1/2+x,1/2+y,z
1/2-x,1/2-y,1/2+z
1/2+x,1/2-y,-z
1/2-x,1/2+y,1/2-z
loop_
_atom_site_type_symbol
_atom_site_label
_atom_site_fract_x
_atom_site_fract_y
_atom_site_fract_z
Si Si1 0.438741 0.613401 0.768033
Si Si2 0.107914 0.394024 0.379579
Si Si3 0.864149 0.747963 0.428221
Si Si4 0.213361 0.488725 0.242373
O O1 0.500000 0.535064 0.750000
O O2 0.409798 0.411267 0.851567
O O3 0.406275 0.628022 0.656777
O O4 0.433364 0.914183 0.815710
O O5 0.107827 0.500000 0.500000
O O6 0.166582 0.438571 0.328305
O O7 0.887038 0.500000 0.500000
O O8 0.816152 0.614158 0.360618
O O9 0.846085 0.000000 0.500000
O O10 0.243698 0.209651 0.218552
#
# Coordination Sequence:
#
# PCOD9321565 Si02
#       4
#     8   8   8   8
#     4  11  24  43  65  93 128 164 207 260 313 372
#     4  11  24  43  64  93 127 164 209 259 310 374
#     4  11  23  41  63  92 127 164 208 259 310 372
#     4  11  23  41  63  90 124 162 206 256 309 368
#
# _framework density 20.884128
#
# number of rings (size 3 to 8) (size 9 to 14) (size 15 to 20)
#    0.000    1.000    0.000    9.000    0.000    6.000 
#    0.000    2.500    0.000    0.000    0.000    0.000 
#    0.000    0.000    0.000    0.000    0.000    0.000 
#
# Total GULP energy -89481.460585 kJ/mol
# GULP energy per Si atom -5592.591287 kJ/mol
# Density = 2.083659 g / cm^3
# Si number density = 20.884128 Si / 1000 Ang^3
#
#
#
# Elastic Constant Matrix: (Units=GPa)
#
#
# Indices 1 2 3 4 5 6 
#
# 1 88.6879 14.6020 32.7143 0.0000 0.0000 0.0000
# 2 14.6020 78.1791 -10.9696 0.0000 0.0000 0.0000
# 3 32.7143 -10.9696 54.5688 0.0000 0.0000 0.0000
# 4 0.0000 0.0000 0.0000 53.2878 0.0000 0.0000
# 5 0.0000 0.0000 0.0000 0.0000 -0.7607 0.0000
# 6 0.0000 0.0000 0.0000 0.0000 0.0000 17.5899
#
#
#
# Elastic Compliance Matrix: (Units=1/GPa)
#
#
# Indices 1 2 3 4 5 6 
#
# 1 0.015830 -0.004413 -0.010377 0.000000 0.000000 0.000000
# 2 -0.004413 0.014392 0.005539 0.000000 0.000000 0.000000
# 3 -0.010377 0.005539 0.025660 0.000000 0.000000 0.000000
# 4 0.000000 0.000000 0.000000 0.018766 0.000000 0.000000
# 5 0.000000 0.000000 0.000000 0.000000 -1.314548 0.000000
# 6 0.000000 0.000000 0.000000 0.000000 0.000000 0.056851
#
#
# Mechanical properties :
#
#
# Convention : Reuss Voigt Hill
#
# Bulk Modulus (GPa) = 26.75224 32.68101 29.71662
# Shear Modulus (GPa) = -4.33995 26.36267 11.01136
#
# Velocity S-wave (km/s) = -1.44313 3.55678 2.29870
# Velocity P-wave (km/s) = 3.17188 5.70529 4.61580
#
# Compressibility (1/GPa) = 0.03738005
#
# Stress axis : x y z
#
# Youngs Moduli (GPa) = 63.17179 69.48071 38.97105
#
# Poissons Ratio (x) = 0.30660 0.40441
# Poissons Ratio (y) = 0.27876 -0.21585
# Poissons Ratio (z) = 0.65554 -0.38483
#
# Static dielectric constant tensor:
#      x y z
#    x 1.721220 0.000000 0.000000 
#    y 0.000000 1.730140 0.000000 
#    z 0.000000 0.000000 1.754290 
# 
# From -- ./inp_files/11894.got.cif
#   From: 2010.05.17/outbox.cif.g08.bks.cpg/sg20_6_cif.got.tgz:11894.got - 2010.06.03 22:52:26.
