data_PCOD9321981
_publ_section_title
;
Structure prediction by ZEFSAII (Michael W. Deem and Ramdas Pophale) SiO2 
 PCOD9321981
Probable space group: C 2 2 21
;
_chemical_formula_sum "Si O2"
_cell_formula_units_Z 40
_cell_length_a 22.258678
_cell_length_b 9.510494
_cell_length_c 8.736864
_cell_angle_alpha 90.000000
_cell_angle_beta 90.000000
_cell_angle_gamma 90.000000
_cell_volume 1849.515683
_symmetry_space_group_name_H-M "C 2 2 21"
_symmetry_group_IT_number 20
_symmetry_cell_setting 'orthorhombic'
loop_
_space_group_symop_operation_xyz
x,y,z
-x,-y,1/2+z
x,-y,-z
-x,y,1/2-z
1/2+x,1/2+y,z
1/2-x,1/2-y,1/2+z
1/2+x,1/2-y,-z
1/2-x,1/2+y,1/2-z
loop_
_atom_site_type_symbol
_atom_site_label
_atom_site_fract_x
_atom_site_fract_y
_atom_site_fract_z
Si Si1 0.871443 0.500000 0.500000
Si Si2 0.928656 0.313541 0.234932
Si Si3 0.679259 0.712500 0.872202
Si Si4 0.633835 0.479573 0.679317
Si Si5 0.357456 0.000000 0.000000
Si Si6 0.246950 0.130770 0.175128
O O1 0.908086 0.415555 0.371790
O O2 0.836935 0.628594 0.418880
O O3 0.902481 0.155328 0.241126
O O4 0.000000 0.306468 0.250000
O O5 0.899515 0.385432 0.083378
O O6 0.628894 0.618564 0.787292
O O7 0.733984 0.723733 0.752203
O O8 0.705523 0.646960 0.026169
O O9 0.619841 0.500000 0.500000
O O10 0.703924 0.439982 0.700689
O O11 0.309932 0.933375 0.881081
#
# Coordination Sequence:
#
# PCOD9321981 Si02
#       6
#     4   8   8   8   4   8
#     4  12  27  46  76 104 142 201 248 308 370 446
#     4  12  28  53  76 106 149 206 265 313 373 455
#     4  12  25  44  69 113 154 192 240 300 392 460
#     4  12  27  47  72 113 153 202 247 314 390 460
#     4  12  23  46  74 112 150 197 248 316 378 452
#     4  12  24  41  74 112 157 189 235 318 385 464
#
# _framework density 21.627282000000001
#
# number of rings (size 3 to 8) (size 9 to 14) (size 15 to 20)
#    0.000    0.000    6.000    4.200    4.200    0.000 
#    3.600    0.000    0.000    0.000    0.000    0.000 
#    0.000    0.000    0.000    0.000    0.000    0.000 
#
# Total GULP energy -111620.146530 kJ/mol
# GULP energy per Si atom -5581.007327 kJ/mol
# Density = 2.157806 g / cm^3
# Si number density = 21.627282 Si / 1000 Ang^3
#
#
#
# Elastic Constant Matrix: (Units=GPa)
#
#
# Indices 1 2 3 4 5 6 
#
# 1 111.7654 48.2615 44.9016 0.0000 0.0000 0.0000
# 2 48.2615 149.1990 67.1545 0.0000 0.0000 0.0000
# 3 44.9016 67.1545 76.3398 0.0000 0.0000 0.0000
# 4 0.0000 0.0000 0.0000 35.6713 0.0000 0.0000
# 5 0.0000 0.0000 0.0000 0.0000 15.5464 0.0000
# 6 0.0000 0.0000 0.0000 0.0000 0.0000 18.0065
#
#
#
# Elastic Compliance Matrix: (Units=1/GPa)
#
#
# Indices 1 2 3 4 5 6 
#
# 1 0.011834 -0.001151 -0.005948 0.000000 0.000000 0.000000
# 2 -0.001151 0.011208 -0.009182 0.000000 0.000000 0.000000
# 3 -0.005948 -0.009182 0.024676 0.000000 0.000000 0.000000
# 4 0.000000 0.000000 0.000000 0.028034 0.000000 0.000000
# 5 0.000000 0.000000 0.000000 0.000000 0.064324 0.000000
# 6 0.000000 0.000000 0.000000 0.000000 0.000000 0.055535
#
#
# Mechanical properties :
#
#
# Convention : Reuss Voigt Hill
#
# Bulk Modulus (GPa) = 65.98689 73.10439 69.54564
# Shear Modulus (GPa) = 21.43864 25.64396 23.54130
#
# Velocity S-wave (km/s) = 3.15187 3.44717 3.30282
# Velocity P-wave (km/s) = 6.61989 7.05119 6.83894
#
# Compressibility (1/GPa) = 0.01515453
#
# Stress axis : x y z
#
# Youngs Moduli (GPa) = 84.50318 89.22508 40.52594
#
# Poissons Ratio (x) = 0.10266 0.24106
# Poissons Ratio (y) = 0.09723 0.37212
# Poissons Ratio (z) = 0.50265 0.81930
#
# Static dielectric constant tensor:
#      x y z
#    x 1.767590 0.000000 0.000000 
#    y 0.000000 1.911940 0.000000 
#    z 0.000000 0.000000 1.897760 
# 
# From -- ./inp_files/10543.got.cif
#   From: 2010.05.17/outbox.cif.g08.bks.cpg/sg20_6_cif.got.tgz:10543.got - 2010.06.03 22:52:26.
