data_PCOD9321495
_publ_section_title
;
Structure prediction by ZEFSAII (Michael W. Deem and Ramdas Pophale) SiO2 
 PCOD9321495
Probable space group: C 2 2 21
;
_chemical_formula_sum "Si O2"
_cell_formula_units_Z 64
_cell_length_a 11.921496
_cell_length_b 9.191352
_cell_length_c 27.720404
_cell_angle_alpha 90.000000
_cell_angle_beta 90.000000
_cell_angle_gamma 90.000000
_cell_volume 3037.454013
_symmetry_space_group_name_H-M "C 2 2 21"
_symmetry_group_IT_number 20
_symmetry_cell_setting 'orthorhombic'
loop_
_space_group_symop_operation_xyz
x,y,z
-x,-y,1/2+z
x,-y,-z
-x,y,1/2-z
1/2+x,1/2+y,z
1/2-x,1/2-y,1/2+z
1/2+x,1/2-y,-z
1/2-x,1/2+y,1/2-z
loop_
_atom_site_type_symbol
_atom_site_label
_atom_site_fract_x
_atom_site_fract_y
_atom_site_fract_z
Si Si1 0.062084 0.378659 0.398598
Si Si2 0.889508 0.582769 0.727028
Si Si3 0.015394 0.709459 0.091285
Si Si4 0.052151 0.269977 0.801759
Si Si5 0.843887 0.222095 0.359456
Si Si6 0.239282 0.191100 0.450226
Si Si7 0.251493 0.934845 0.181287
Si Si8 0.305634 0.643538 0.941533
O O1 0.139981 0.303416 0.438644
O O2 0.147411 0.399951 0.354363
O O3 0.013294 0.537009 0.412754
O O4 0.962779 0.271517 0.381626
O O5 0.937875 0.443598 0.699584
O O6 0.828953 0.685399 0.689391
O O7 0.808651 0.521816 0.768355
O O8 0.000000 0.658384 0.750000
O O9 0.993718 0.760005 0.146834
O O10 0.144810 0.730648 0.076422
O O11 0.933530 0.802793 0.057769
O O12 0.174559 0.201984 0.806794
O O13 0.000000 0.224241 0.750000
O O14 0.753438 0.267808 0.399034
O O15 0.825489 0.056931 0.343451
O O16 0.253321 0.179508 0.507734
O O17 0.204631 0.028854 0.433176
#
# Coordination Sequence:
#
# PCOD9321495 Si02
#       8
#     8   8   8   8   8   8   8   8
#     4  12  24  46  72 101 139 183 233 291 348 419
#     4  11  22  43  67  97 139 190 231 282 343 417
#     4  12  24  49  73 102 146 183 234 293 350 422
#     4  11  24  44  67  99 145 192 229 290 350 412
#     4  12  25  45  72 102 140 186 235 289 348 420
#     4  11  27  48  72 106 136 185 237 290 361 418
#     4  12  25  43  65 109 141 181 240 283 354 418
#     4  11  27  46  73 104 137 185 232 294 356 416
#
# _framework density 21.070278999999999
#
# number of rings (size 3 to 8) (size 9 to 14) (size 15 to 20)
#    0.000    0.500    6.250    1.500    5.250    1.000 
#    2.250    0.000    0.000    0.000    0.000    0.000 
#    0.000    0.000    0.000    0.000    0.000    0.000 
#
# Total GULP energy -178876.893097 kJ/mol
# GULP energy per Si atom -5589.902909 kJ/mol
# Density = 2.102232 g / cm^3
# Si number density = 21.070279 Si / 1000 Ang^3
#
#
#
# Elastic Constant Matrix: (Units=GPa)
#
#
# Indices 1 2 3 4 5 6 
#
# 1 101.4941 28.2645 9.8068 0.0000 0.0000 0.0000
# 2 28.2645 24.3816 14.3834 0.0000 0.0000 0.0000
# 3 9.8068 14.3834 71.3514 0.0000 0.0000 0.0000
# 4 0.0000 0.0000 0.0000 24.7770 0.0000 0.0000
# 5 0.0000 0.0000 0.0000 0.0000 39.7586 0.0000
# 6 0.0000 0.0000 0.0000 0.0000 0.0000 38.9625
#
#
#
# Elastic Compliance Matrix: (Units=1/GPa)
#
#
# Indices 1 2 3 4 5 6 
#
# 1 0.014711 -0.018001 0.001607 0.000000 0.000000 0.000000
# 2 -0.018001 0.068579 -0.011350 0.000000 0.000000 0.000000
# 3 0.001607 -0.011350 0.016082 0.000000 0.000000 0.000000
# 4 0.000000 0.000000 0.000000 0.040360 0.000000 0.000000
# 5 0.000000 0.000000 0.000000 0.000000 0.025152 0.000000
# 6 0.000000 0.000000 0.000000 0.000000 0.000000 0.025666
#
#
# Mechanical properties :
#
#
# Convention : Reuss Voigt Hill
#
# Bulk Modulus (GPa) = 22.78828 33.57073 28.17951
# Shear Modulus (GPa) = 19.18163 30.35112 24.76637
#
# Velocity S-wave (km/s) = 3.02050 3.79947 3.43216
# Velocity P-wave (km/s) = 4.79618 5.93425 5.39531
#
# Compressibility (1/GPa) = 0.04388220
#
# Stress axis : x y z
#
# Youngs Moduli (GPa) = 67.97807 14.58178 62.18004
#
# Poissons Ratio (x) = 0.26249 -0.09992
# Poissons Ratio (y) = 1.22370 0.70576
# Poissons Ratio (z) = -0.10924 0.16551
#
# Static dielectric constant tensor:
#      x y z
#    x 1.770300 0.000000 0.000000 
#    y 0.000000 1.728610 0.000000 
#    z 0.000000 0.000000 1.793020 
# 
# From -- ./inp_files/31194.got.cif
#   From: 2010.05.17/outbox.cif.g08.bks.cpg/sg20_16_cif.got.tgz:31194.got - 2010.06.03 22:52:26.
