data_PCOD9321214
_publ_section_title
;
Structure prediction by ZEFSAII (Michael W. Deem and Ramdas Pophale) SiO2 
 PCOD9321214
Probable space group: C 2 2 21
;
_chemical_formula_sum "Si O2"
_cell_formula_units_Z 64
_cell_length_a 25.205940
_cell_length_b 8.865866
_cell_length_c 13.556146
_cell_angle_alpha 90.000000
_cell_angle_beta 90.000000
_cell_angle_gamma 90.000000
_cell_volume 3029.425653
_symmetry_space_group_name_H-M "C 2 2 21"
_symmetry_group_IT_number 20
_symmetry_cell_setting 'orthorhombic'
loop_
_space_group_symop_operation_xyz
x,y,z
-x,-y,1/2+z
x,-y,-z
-x,y,1/2-z
1/2+x,1/2+y,z
1/2-x,1/2-y,1/2+z
1/2+x,1/2-y,-z
1/2-x,1/2+y,1/2-z
loop_
_atom_site_type_symbol
_atom_site_label
_atom_site_fract_x
_atom_site_fract_y
_atom_site_fract_z
Si Si1 0.437602 0.528763 0.249891
Si Si2 0.656319 0.015187 0.250116
Si Si3 0.788746 0.372907 0.082188
Si Si4 0.928963 0.725897 0.149365
Si Si5 0.903088 0.225643 0.066840
Si Si6 0.100702 0.277604 0.110740
Si Si7 0.811040 0.660379 0.450772
Si Si8 0.494797 0.945140 0.134372
O O1 0.500000 0.560574 0.250000
O O2 0.431716 0.349824 0.235478
O O3 0.414012 0.605083 0.151666
O O4 0.413658 0.613808 0.345082
O O5 0.706482 0.955021 0.311655
O O6 0.627460 0.871959 0.200292
O O7 0.617109 0.107578 0.321397
O O8 0.669737 0.121107 0.158589
O O9 0.842557 0.277016 0.074399
O O10 0.737731 0.272670 0.060947
O O11 0.791095 0.500000 0.000000
O O12 0.981484 0.623174 0.132785
O O13 0.915570 0.808928 0.046964
O O14 0.944130 0.360910 0.090215
O O15 0.047730 0.374806 0.086827
O O16 0.141630 0.277654 0.020182
O O17 0.794859 0.500000 0.500000
O O18 0.500000 0.907571 0.250000
#
# Coordination Sequence:
#
# PCOD9321214 Si02
#       8
#     8   8   8   8   8   8   8   8
#     4  12  24  44  66 107 153 190 239 294 375 448
#     4  11  23  47  69 103 137 187 244 298 368 442
#     4  12  23  47  76 101 139 184 252 307 366 438
#     4  12  25  38  68 108 140 183 245 298 354 438
#     4  12  22  44  68 103 139 185 238 301 363 435
#     4  11  22  47  72  99 151 190 235 295 371 458
#     4  10  28  47  72 109 139 190 251 307 377 440
#     4  12  19  41  72 101 141 193 238 285 367 452
#
# _framework density 21.126117000000001
#
# number of rings (size 3 to 8) (size 9 to 14) (size 15 to 20)
#    0.000    0.500    7.500    1.125    0.000    7.000 
#    2.250    0.000    0.000    0.000    0.000    0.000 
#    0.000    0.000    0.000    0.000    0.000    0.000 
#
# Total GULP energy -178849.345286 kJ/mol
# GULP energy per Si atom -5589.042040 kJ/mol
# Density = 2.107803 g / cm^3
# Si number density = 21.126117 Si / 1000 Ang^3
#
#
#
# Elastic Constant Matrix: (Units=GPa)
#
#
# Indices 1 2 3 4 5 6 
#
# 1 145.7577 60.8873 66.4701 0.0000 0.0000 0.0000
# 2 60.8873 104.5160 36.4446 0.0000 0.0000 0.0000
# 3 66.4701 36.4446 106.3628 0.0000 0.0000 0.0000
# 4 0.0000 0.0000 0.0000 29.7756 0.0000 0.0000
# 5 0.0000 0.0000 0.0000 0.0000 27.1825 0.0000
# 6 0.0000 0.0000 0.0000 0.0000 0.0000 114.8906
#
#
#
# Elastic Compliance Matrix: (Units=1/GPa)
#
#
# Indices 1 2 3 4 5 6 
#
# 1 0.011308 -0.004683 -0.005462 0.000000 0.000000 0.000000
# 2 -0.004683 0.012806 -0.001461 0.000000 0.000000 0.000000
# 3 -0.005462 -0.001461 0.013316 0.000000 0.000000 0.000000
# 4 0.000000 0.000000 0.000000 0.033585 0.000000 0.000000
# 5 0.000000 0.000000 0.000000 0.000000 0.036788 0.000000
# 6 0.000000 0.000000 0.000000 0.000000 0.000000 0.008704
#
#
# Mechanical properties :
#
#
# Convention : Reuss Voigt Hill
#
# Bulk Modulus (GPa) = 70.33921 76.02672 73.18296
# Shear Modulus (GPa) = 34.61232 47.22539 40.91886
#
# Velocity S-wave (km/s) = 4.05207 4.73313 4.40578
# Velocity P-wave (km/s) = 7.43367 8.12005 7.78443
#
# Compressibility (1/GPa) = 0.01421682
#
# Stress axis : x y z
#
# Youngs Moduli (GPa) = 88.43496 78.09137 75.09812
#
# Poissons Ratio (x) = 0.36569 0.41019
# Poissons Ratio (y) = 0.41413 0.10974
# Poissons Ratio (z) = 0.48304 0.11411
#
# Static dielectric constant tensor:
#      x y z
#    x 1.759140 0.000000 0.000000 
#    y 0.000000 1.796200 0.000000 
#    z 0.000000 0.000000 1.784050 
# 
# From -- ./inp_files/22050.got.cif
#   From: 2010.05.17/outbox.cif.g08.bks.cpg/sg20_12_cif.got.tgz:22050.got - 2010.06.03 22:52:26.
