data_PCOD9321262
_publ_section_title
;
Structure prediction by ZEFSAII (Michael W. Deem and Ramdas Pophale) SiO2 
 PCOD9321262
Probable space group: C 2 2 21
;
_chemical_formula_sum "Si O2"
_cell_formula_units_Z 40
_cell_length_a 21.225368
_cell_length_b 12.245689
_cell_length_c 8.250225
_cell_angle_alpha 90.000000
_cell_angle_beta 90.000000
_cell_angle_gamma 90.000000
_cell_volume 2144.392339
_symmetry_space_group_name_H-M "C 2 2 21"
_symmetry_group_IT_number 20
_symmetry_cell_setting 'orthorhombic'
loop_
_space_group_symop_operation_xyz
x,y,z
-x,-y,1/2+z
x,-y,-z
-x,y,1/2-z
1/2+x,1/2+y,z
1/2-x,1/2-y,1/2+z
1/2+x,1/2-y,-z
1/2-x,1/2+y,1/2-z
loop_
_atom_site_type_symbol
_atom_site_label
_atom_site_fract_x
_atom_site_fract_y
_atom_site_fract_z
Si Si1 0.684881 0.481015 0.187211
Si Si2 0.296504 0.286713 0.800987
Si Si3 0.430754 0.055030 0.176651
Si Si4 0.816533 0.435709 0.336291
Si Si5 0.662475 0.251875 0.332473
O O1 0.672981 0.595617 0.274089
O O2 0.760016 0.459167 0.209558
O O3 0.653100 0.375283 0.268350
O O4 0.670118 0.500000 0.000000
O O5 0.318966 0.195917 0.670438
O O6 0.221233 0.293699 0.772940
O O7 0.313456 0.251635 0.982307
O O8 0.500000 0.059793 0.250000
O O9 0.397247 0.173262 0.175877
O O10 0.383285 0.981335 0.281723
O O11 0.432573 0.000000 0.000000
O O12 0.798444 0.500000 0.500000
#
# Coordination Sequence:
#
# PCOD9321262 Si02
#       5
#     8   8   8   8   8
#     4  11  22  35  59  97 133 167 207 271 344 398
#     4  11  20  37  61  94 135 169 206 280 348 392
#     4  12  25  46  65  92 132 179 226 274 321 399
#     4  11  22  36  63  94 131 168 220 270 332 395
#     4  11  23  37  64  95 133 171 219 274 336 407
#
# _framework density 18.653303000000001
#
# number of rings (size 3 to 8) (size 9 to 14) (size 15 to 20)
#    0.000    0.800    4.000    6.600    2.800    0.000 
#    0.000    0.000    0.000    3.600    0.000    0.000 
#    0.000    0.000    0.000    0.000    0.000    0.000 
#
# Total GULP energy -111707.441760 kJ/mol
# GULP energy per Si atom -5585.372088 kJ/mol
# Density = 1.861085 g / cm^3
# Si number density = 18.653303 Si / 1000 Ang^3
#
#
#
# Elastic Constant Matrix: (Units=GPa)
#
#
# Indices 1 2 3 4 5 6 
#
# 1 91.9485 45.1620 29.0833 0.0000 0.0000 0.0000
# 2 45.1620 171.4946 38.9329 0.0000 0.0000 0.0000
# 3 29.0833 38.9329 87.1161 0.0000 0.0000 0.0000
# 4 0.0000 0.0000 0.0000 32.7078 0.0000 0.0000
# 5 0.0000 0.0000 0.0000 0.0000 21.8129 0.0000
# 6 0.0000 0.0000 0.0000 0.0000 0.0000 25.0660
#
#
#
# Elastic Compliance Matrix: (Units=1/GPa)
#
#
# Indices 1 2 3 4 5 6 
#
# 1 0.013241 -0.002764 -0.003185 0.000000 0.000000 0.000000
# 2 -0.002764 0.007066 -0.002235 0.000000 0.000000 0.000000
# 3 -0.003185 -0.002235 0.013541 0.000000 0.000000 0.000000
# 4 0.000000 0.000000 0.000000 0.030574 0.000000 0.000000
# 5 0.000000 0.000000 0.000000 0.000000 0.045844 0.000000
# 6 0.000000 0.000000 0.000000 0.000000 0.000000 0.039895
#
#
# Mechanical properties :
#
#
# Convention : Reuss Voigt Hill
#
# Bulk Modulus (GPa) = 57.20918 64.10176 60.65547
# Shear Modulus (GPa) = 29.00972 31.74276 30.37624
#
# Velocity S-wave (km/s) = 3.94789 4.12967 4.03980
# Velocity P-wave (km/s) = 7.17756 7.56164 7.37210
#
# Compressibility (1/GPa) = 0.01747971
#
# Stress axis : x y z
#
# Youngs Moduli (GPa) = 75.52549 141.51538 73.84820
#
# Poissons Ratio (x) = 0.39111 0.23522
# Poissons Ratio (y) = 0.20873 0.16508
# Poissons Ratio (z) = 0.24056 0.31634
#
# Static dielectric constant tensor:
#      x y z
#    x 1.590140 0.000000 0.000000 
#    y 0.000000 1.724960 0.000000 
#    z 0.000000 0.000000 1.691950 
# 
# From -- ./inp_files/7210.got.cif
#   From: 2010.05.17/outbox.cif.g08.bks.cpg/sg20_4_cif.got.tgz:7210.got - 2010.06.03 22:52:26.
