data_PCOD9321961
_publ_section_title
;
Structure prediction by ZEFSAII (Michael W. Deem and Ramdas Pophale) SiO2 
 PCOD9321961
Probable space group: C 2 2 21
;
_chemical_formula_sum "Si O2"
_cell_formula_units_Z 36
_cell_length_a 21.903945
_cell_length_b 5.936016
_cell_length_c 12.798220
_cell_angle_alpha 90.000000
_cell_angle_beta 90.000000
_cell_angle_gamma 90.000000
_cell_volume 1664.052311
_symmetry_space_group_name_H-M "C 2 2 21"
_symmetry_group_IT_number 20
_symmetry_cell_setting 'orthorhombic'
loop_
_space_group_symop_operation_xyz
x,y,z
-x,-y,1/2+z
x,-y,-z
-x,y,1/2-z
1/2+x,1/2+y,z
1/2-x,1/2-y,1/2+z
1/2+x,1/2-y,-z
1/2-x,1/2+y,1/2-z
loop_
_atom_site_type_symbol
_atom_site_label
_atom_site_fract_x
_atom_site_fract_y
_atom_site_fract_z
Si Si1 0.500000 0.080425 0.750000
Si Si2 0.817127 0.500000 0.000000
Si Si3 0.570683 0.756149 0.596006
Si Si4 0.593404 0.543856 0.202574
Si Si5 0.023258 0.000000 0.000000
Si Si6 0.763753 0.967361 0.299672
O O1 0.444187 0.224854 0.703058
O O2 0.534930 0.937827 0.663626
O O3 0.864015 0.680223 0.049201
O O4 0.774035 0.424289 0.094411
O O5 0.579088 0.564397 0.684779
O O6 0.526632 0.698531 0.499552
O O7 0.665384 0.532291 0.187263
O O8 0.563506 0.435594 0.099475
O O9 0.738368 0.213629 0.254570
#
# Coordination Sequence:
#
# PCOD9321961 Si02
#       6
#     4   4   8   8   4   8
#     4  12  22  48  74 110 154 198 248 330 384 462
#     4  12  27  50  80 108 155 212 262 310 394 468
#     4  12  25  46  74 112 150 200 257 315 390 475
#     4  12  25  47  73 110 158 193 259 326 379 466
#     4  12  23  44  72 110 151 196 250 318 414 440
#     4  12  29  52  77 113 155 208 267 319 380 466
#
# _framework density 21.633937
#
# number of rings (size 3 to 8) (size 9 to 14) (size 15 to 20)
#    0.000    0.000    6.667    3.333    3.111    0.889 
#    0.000    2.222    0.000    0.000    0.000    0.000 
#    0.000    0.000    0.000    0.000    0.000    0.000 
#
# Total GULP energy -100203.828868 kJ/mol
# GULP energy per Si atom -5566.879382 kJ/mol
# Density = 2.158470 g / cm^3
# Si number density = 21.633937 Si / 1000 Ang^3
#
#
#
# Elastic Constant Matrix: (Units=GPa)
#
#
# Indices 1 2 3 4 5 6 
#
# 1 181.1560 37.1112 63.4302 0.0000 0.0000 0.0000
# 2 37.1112 64.7485 33.1887 0.0000 0.0000 0.0000
# 3 63.4302 33.1887 122.9920 0.0000 0.0000 0.0000
# 4 0.0000 0.0000 0.0000 32.6637 0.0000 0.0000
# 5 0.0000 0.0000 0.0000 0.0000 54.7134 0.0000
# 6 0.0000 0.0000 0.0000 0.0000 0.0000 -42.3134
#
#
#
# Elastic Compliance Matrix: (Units=1/GPa)
#
#
# Indices 1 2 3 4 5 6 
#
# 1 0.007078 -0.002537 -0.002966 0.000000 0.000000 0.000000
# 2 -0.002537 0.018833 -0.003774 0.000000 0.000000 0.000000
# 3 -0.002966 -0.003774 0.010679 0.000000 0.000000 0.000000
# 4 0.000000 0.000000 0.000000 0.030615 0.000000 0.000000
# 5 0.000000 0.000000 0.000000 0.000000 0.018277 0.000000
# 6 0.000000 0.000000 0.000000 0.000000 0.000000 -0.023633
#
#
# Mechanical properties :
#
#
# Convention : Reuss Voigt Hill
#
# Bulk Modulus (GPa) = 55.44203 70.70628 63.07416
# Shear Modulus (GPa) = 57.86162 24.69050 41.27606
#
# Velocity S-wave (km/s) = 5.17724 3.38196 4.37273
# Velocity P-wave (km/s) = 7.83718 6.92850 7.39681
#
# Compressibility (1/GPa) = 0.01803686
#
# Stress axis : x y z
#
# Youngs Moduli (GPa) = 141.27766 53.09944 93.64602
#
# Poissons Ratio (x) = 0.13470 0.27775
# Poissons Ratio (y) = 0.35838 0.35338
# Poissons Ratio (z) = 0.41902 0.20038
#
# Static dielectric constant tensor:
#      x y z
#    x 1.742380 0.000000 0.000000 
#    y 0.000000 1.998520 0.000000 
#    z 0.000000 0.000000 3.853040 
# 
# From -- ./inp_files/12095.got.cif
#   From: 2010.05.17/outbox.cif.g08.bks.cpg/sg20_7_cif.got.tgz:12095.got - 2010.06.03 22:52:26.
