data_PCOD9321036
_publ_section_title
;
Structure prediction by ZEFSAII (Michael W. Deem and Ramdas Pophale) SiO2 
 PCOD9321036
Probable space group: C 2 2 21
;
_chemical_formula_sum "Si O2"
_cell_formula_units_Z 20
_cell_length_a 7.046081
_cell_length_b 11.604387
_cell_length_c 9.980731
_cell_angle_alpha 90.000000
_cell_angle_beta 90.000000
_cell_angle_gamma 90.000000
_cell_volume 816.078969
_symmetry_space_group_name_H-M "C 2 2 21"
_symmetry_group_IT_number 20
_symmetry_cell_setting 'orthorhombic'
loop_
_space_group_symop_operation_xyz
x,y,z
-x,-y,1/2+z
x,-y,-z
-x,y,1/2-z
1/2+x,1/2+y,z
1/2-x,1/2-y,1/2+z
1/2+x,1/2-y,-z
1/2-x,1/2+y,1/2-z
loop_
_atom_site_type_symbol
_atom_site_label
_atom_site_fract_x
_atom_site_fract_y
_atom_site_fract_z
Si Si1 0.500000 0.000094 0.250000
Si Si2 0.773379 0.201569 0.768432
Si Si3 0.245956 0.619810 0.054544
O O1 0.322760 0.917467 0.222195
O O2 0.550141 0.074030 0.120142
O O3 0.686065 0.303803 0.679171
O O4 0.000000 0.197258 0.750000
O O5 0.729074 0.201958 0.926699
O O6 0.340170 0.500000 0.000000
#
# Coordination Sequence:
#
# PCOD9321036 Si02
#       3
#     4   8   8
#     4  10  24  50  76 114 158 200 256 334 390 442
#     4  11  25  47  80 114 155 212 263 312 399 473
#     4  10  24  48  74 112 158 199 256 329 377 458
#
# _framework density 24.507431
#
# number of rings (size 3 to 8) (size 9 to 14) (size 15 to 20)
#    0.000    1.600    2.000    0.000   11.200    0.000 
#   14.400   24.000    0.000    0.000    0.000    0.000 
#    0.000    0.000    0.000    0.000    0.000    0.000 
#
# Total GULP energy -55766.384797 kJ/mol
# GULP energy per Si atom -5576.638480 kJ/mol
# Density = 2.445165 g / cm^3
# Si number density = 24.507431 Si / 1000 Ang^3
#
#
#
# Elastic Constant Matrix: (Units=GPa)
#
#
# Indices 1 2 3 4 5 6 
#
# 1 118.0228 41.8697 47.5126 0.0000 0.0000 0.0000
# 2 41.8697 142.8001 104.0918 0.0000 0.0000 0.0000
# 3 47.5126 104.0918 223.6947 0.0000 0.0000 0.0000
# 4 0.0000 0.0000 0.0000 64.5222 0.0000 0.0000
# 5 0.0000 0.0000 0.0000 0.0000 39.2733 0.0000
# 6 0.0000 0.0000 0.0000 0.0000 0.0000 18.8765
#
#
#
# Elastic Compliance Matrix: (Units=1/GPa)
#
#
# Indices 1 2 3 4 5 6 
#
# 1 0.009635 -0.002018 -0.001108 0.000000 0.000000 0.000000
# 2 -0.002018 0.011020 -0.004699 0.000000 0.000000 0.000000
# 3 -0.001108 -0.004699 0.006892 0.000000 0.000000 0.000000
# 4 0.000000 0.000000 0.000000 0.015499 0.000000 0.000000
# 5 0.000000 0.000000 0.000000 0.000000 0.025463 0.000000
# 6 0.000000 0.000000 0.000000 0.000000 0.000000 0.052976
#
#
# Mechanical properties :
#
#
# Convention : Reuss Voigt Hill
#
# Bulk Modulus (GPa) = 84.04861 96.82954 90.43907
# Shear Modulus (GPa) = 35.43620 43.93730 39.68675
#
# Velocity S-wave (km/s) = 3.80667 4.23876 4.02851
# Velocity P-wave (km/s) = 7.32739 7.97196 7.65646
#
# Compressibility (1/GPa) = 0.01189788
#
# Stress axis : x y z
#
# Youngs Moduli (GPa) = 103.79302 90.74522 145.08819
#
# Poissons Ratio (x) = 0.18309 0.16069
# Poissons Ratio (y) = 0.20941 0.68182
# Poissons Ratio (z) = 0.11495 0.42644
#
# Static dielectric constant tensor:
#      x y z
#    x 1.935450 0.000000 0.000000 
#    y 0.000000 2.057280 0.000000 
#    z 0.000000 0.000000 2.010200 
# 
# From -- ./inp_files/5367.got.cif
#   From: 2010.05.17/outbox.cif.g08.bks.cpg/sg20_3_cif.got.tgz:5367.got - 2010.06.03 22:52:26.
