data_PCOD9321700
_publ_section_title
;
Structure prediction by ZEFSAII (Michael W. Deem and Ramdas Pophale) SiO2 
 PCOD9321700
Probable space group: C 2 2 21
;
_chemical_formula_sum "Si O2"
_cell_formula_units_Z 48
_cell_length_a 7.925810
_cell_length_b 28.310706
_cell_length_c 8.829357
_cell_angle_alpha 90.000000
_cell_angle_beta 90.000000
_cell_angle_gamma 90.000000
_cell_volume 1981.177714
_symmetry_space_group_name_H-M "C 2 2 21"
_symmetry_group_IT_number 20
_symmetry_cell_setting 'orthorhombic'
loop_
_space_group_symop_operation_xyz
x,y,z
-x,-y,1/2+z
x,-y,-z
-x,y,1/2-z
1/2+x,1/2+y,z
1/2-x,1/2-y,1/2+z
1/2+x,1/2-y,-z
1/2-x,1/2+y,1/2-z
loop_
_atom_site_type_symbol
_atom_site_label
_atom_site_fract_x
_atom_site_fract_y
_atom_site_fract_z
Si Si1 0.000000 0.426237 0.250000
Si Si2 0.217013 0.705225 0.494131
Si Si3 0.971979 0.500000 0.500000
Si Si4 0.261362 0.922811 0.683630
Si Si5 0.322385 0.377108 0.297423
Si Si6 0.000000 0.758934 0.750000
Si Si7 0.500000 0.163328 0.250000
Si Si8 0.564320 0.553287 0.024633
O O1 0.051743 0.461741 0.385221
O O2 0.843087 0.392282 0.297953
O O3 0.257394 0.654521 0.565818
O O4 0.375046 0.718967 0.382677
O O5 0.060230 0.696653 0.383696
O O6 0.142712 0.734188 0.639556
O O7 0.866217 0.464358 0.605730
O O8 0.355184 0.873308 0.699088
O O9 0.206734 0.941799 0.848251
O O10 0.092093 0.916899 0.587202
O O11 0.500000 0.353462 0.250000
O O12 0.382308 0.426024 0.367183
O O13 0.510447 0.500000 0.000000
#
# Coordination Sequence:
#
# PCOD9321700 Si02
#       8
#     4   8   4   8   8   4   4   8
#     4  12  28  46  68 114 150 226 276 344 404 464
#     4  12  29  55  89 123 166 204 269 336 437 519
#     4  12  24  42  68  98 154 208 282 348 380 458
#     4  11  24  41  67 101 147 208 273 331 396 462
#     4  12  28  48  77 115 162 213 268 341 402 498
#     4  12  31  56  92 131 160 212 259 350 432 547
#     4  12  25  50  80 117 160 216 269 342 418 513
#     4  11  24  42  66 105 152 217 275 326 391 463
#
# _framework density 24.228012
#
# number of rings (size 3 to 8) (size 9 to 14) (size 15 to 20)
#    0.000    0.333    2.500    5.000   10.500    1.333 
#    0.000    0.000    0.000    0.000    0.000    0.000 
#    0.000    0.000    0.000    0.000    0.000    0.000 
#
# Total GULP energy -133935.135453 kJ/mol
# GULP energy per Si atom -5580.630644 kJ/mol
# Density = 2.417287 g / cm^3
# Si number density = 24.228012 Si / 1000 Ang^3
#
#
#
# Elastic Constant Matrix: (Units=GPa)
#
#
# Indices 1 2 3 4 5 6 
#
# 1 90.0975 20.9732 52.7681 0.0000 0.0000 0.0000
# 2 20.9732 53.2621 24.7942 0.0000 0.0000 0.0000
# 3 52.7681 24.7942 89.0431 0.0000 0.0000 0.0000
# 4 0.0000 0.0000 0.0000 -200.7095 0.0000 0.0000
# 5 0.0000 0.0000 0.0000 0.0000 60.8019 0.0000
# 6 0.0000 0.0000 0.0000 0.0000 0.0000 -72.1635
#
#
#
# Elastic Compliance Matrix: (Units=1/GPa)
#
#
# Indices 1 2 3 4 5 6 
#
# 1 0.017249 -0.002337 -0.009571 0.000000 0.000000 0.000000
# 2 -0.002337 0.021888 -0.004710 0.000000 0.000000 0.000000
# 3 -0.009571 -0.004710 0.018214 0.000000 0.000000 0.000000
# 4 0.000000 0.000000 0.000000 -0.004982 0.000000 0.000000
# 5 0.000000 0.000000 0.000000 0.000000 0.016447 0.000000
# 6 0.000000 0.000000 0.000000 0.000000 0.000000 -0.013857
#
#
# Mechanical properties :
#
#
# Convention : Reuss Voigt Hill
#
# Bulk Modulus (GPa) = 41.46805 47.71930 44.59368
# Shear Modulus (GPa) = 51.95828 -33.48975 9.23427
#
# Velocity S-wave (km/s) = 4.63596 -3.72193 1.95440
# Velocity P-wave (km/s) = 6.76824 1.12621 4.85167
#
# Compressibility (1/GPa) = 0.02411495
#
# Stress axis : x y z
#
# Youngs Moduli (GPa) = 57.97575 45.68778 54.90283
#
# Poissons Ratio (x) = 0.10675 0.52548
# Poissons Ratio (y) = 0.13546 0.25859
# Poissons Ratio (z) = 0.55489 0.21519
#
# Static dielectric constant tensor:
#      x y z
#    x 2.557580 0.000000 0.000000 
#    y 0.000000 1.862900 0.000000 
#    z 0.000000 0.000000 2.048180 
# 
# From -- ./inp_files/6605.got.cif
#   From: 2010.05.17/outbox.cif.g08.bks.cpg/sg20_4_cif.got.tgz:6605.got - 2010.06.03 22:52:26.
