data_PCOD9321523
_publ_section_title
;
Structure prediction by ZEFSAII (Michael W. Deem and Ramdas Pophale) SiO2 
 PCOD9321523
Probable space group: C 2 2 21
;
_chemical_formula_sum "Si O2"
_cell_formula_units_Z 64
_cell_length_a 8.534812
_cell_length_b 20.190891
_cell_length_c 18.161928
_cell_angle_alpha 90.000000
_cell_angle_beta 90.000000
_cell_angle_gamma 90.000000
_cell_volume 3129.762575
_symmetry_space_group_name_H-M "C 2 2 21"
_symmetry_group_IT_number 20
_symmetry_cell_setting 'orthorhombic'
loop_
_space_group_symop_operation_xyz
x,y,z
-x,-y,1/2+z
x,-y,-z
-x,y,1/2-z
1/2+x,1/2+y,z
1/2-x,1/2-y,1/2+z
1/2+x,1/2-y,-z
1/2-x,1/2+y,1/2-z
loop_
_atom_site_type_symbol
_atom_site_label
_atom_site_fract_x
_atom_site_fract_y
_atom_site_fract_z
Si Si1 0.661680 0.758242 0.073630
Si Si2 0.863474 0.948551 0.940712
Si Si3 0.316146 0.856955 0.833192
Si Si4 0.636946 0.369667 0.193584
Si Si5 0.985076 0.169782 0.960733
Si Si6 0.603382 0.520429 0.180241
Si Si7 0.903438 0.730782 0.820554
Si Si8 0.823688 0.347867 0.656140
O O1 0.711055 0.697318 0.126433
O O2 0.813384 0.801848 0.058275
O O3 0.525183 0.794851 0.118681
O O4 0.586290 0.725961 0.001383
O O5 0.742854 0.910643 0.887655
O O6 0.983441 0.986122 0.887234
O O7 0.957187 0.891836 0.984871
O O8 0.795443 0.000000 0.000000
O O9 0.238507 0.928911 0.843598
O O10 0.317906 0.851093 0.744827
O O11 0.492313 0.843708 0.861572
O O12 0.500000 0.350127 0.250000
O O13 0.573778 0.352905 0.112499
O O14 0.665058 0.447992 0.201230
O O15 0.789798 0.326542 0.207765
O O16 0.500000 0.546347 0.250000
O O17 0.793508 0.786550 0.858133
O O18 0.000000 0.756985 0.750000
#
# Coordination Sequence:
#
# PCOD9321523 Si02
#       8
#     8   8   8   8   8   8   8   8
#     4  12  25  41  68 100 140 172 224 282 345 406
#     4  12  24  46  70  99 137 182 230 279 348 412
#     4  11  23  42  73 103 133 173 236 291 328 409
#     4  11  26  45  66  95 138 180 227 280 340 412
#     4  12  25  42  66  99 135 180 220 280 346 410
#     4  11  22  45  71  97 132 181 231 274 335 409
#     4  12  23  43  68 100 136 179 224 284 346 409
#     4  11  24  42  71 105 132 175 235 288 337 400
#
# _framework density 20.448837000000001
#
# number of rings (size 3 to 8) (size 9 to 14) (size 15 to 20)
#    0.000    0.500    6.250    2.250    3.500    0.000 
#    4.500    0.625    0.000    0.000    0.000    0.000 
#    0.000    0.000    0.000    0.000    0.000    0.000 
#
# Total GULP energy -178915.002621 kJ/mol
# GULP energy per Si atom -5591.093832 kJ/mol
# Density = 2.040229 g / cm^3
# Si number density = 20.448837 Si / 1000 Ang^3
#
#
#
# Elastic Constant Matrix: (Units=GPa)
#
#
# Indices 1 2 3 4 5 6 
#
# 1 107.4725 37.2926 18.1608 0.0000 0.0000 0.0000
# 2 37.2926 65.5841 2.5152 0.0000 0.0000 0.0000
# 3 18.1608 2.5152 75.4285 0.0000 0.0000 0.0000
# 4 0.0000 0.0000 0.0000 27.8222 0.0000 0.0000
# 5 0.0000 0.0000 0.0000 0.0000 29.7464 0.0000
# 6 0.0000 0.0000 0.0000 0.0000 0.0000 30.8038
#
#
#
# Elastic Compliance Matrix: (Units=1/GPa)
#
#
# Indices 1 2 3 4 5 6 
#
# 1 0.012114 -0.006785 -0.002690 0.000000 0.000000 0.000000
# 2 -0.006785 0.019067 0.000998 0.000000 0.000000 0.000000
# 3 -0.002690 0.000998 0.013872 0.000000 0.000000 0.000000
# 4 0.000000 0.000000 0.000000 0.035943 0.000000 0.000000
# 5 0.000000 0.000000 0.000000 0.000000 0.033617 0.000000
# 6 0.000000 0.000000 0.000000 0.000000 0.000000 0.032463
#
#
# Mechanical properties :
#
#
# Convention : Reuss Voigt Hill
#
# Bulk Modulus (GPa) = 35.58951 40.49135 38.04043
# Shear Modulus (GPa) = 28.83545 30.37559 29.60552
#
# Velocity S-wave (km/s) = 3.75924 3.85833 3.80910
# Velocity P-wave (km/s) = 6.02366 6.30025 6.16351
#
# Compressibility (1/GPa) = 0.02809817
#
# Stress axis : x y z
#
# Youngs Moduli (GPa) = 82.55143 52.44555 72.08733
#
# Poissons Ratio (x) = 0.35584 0.19394
# Poissons Ratio (y) = 0.56010 -0.07193
# Poissons Ratio (z) = 0.22209 -0.05233
#
# Static dielectric constant tensor:
#      x y z
#    x 1.710870 0.000000 0.000000 
#    y 0.000000 1.718690 0.000000 
#    z 0.000000 0.000000 1.737170 
# 
# From -- ./inp_files/23887.got.cif
#   From: 2010.05.17/outbox.cif.g08.bks.cpg/sg20_12_cif.got.tgz:23887.got - 2010.06.03 22:52:26.
