data_PCOD9321688
_publ_section_title
;
Structure prediction by ZEFSAII (Michael W. Deem and Ramdas Pophale) SiO2 
 PCOD9321688
Probable space group: C 2 2 21
;
_chemical_formula_sum "Si O2"
_cell_formula_units_Z 32
_cell_length_a 11.626063
_cell_length_b 15.090529
_cell_length_c 9.072025
_cell_angle_alpha 90.000000
_cell_angle_beta 90.000000
_cell_angle_gamma 90.000000
_cell_volume 1591.627282
_symmetry_space_group_name_H-M "C 2 2 21"
_symmetry_group_IT_number 20
_symmetry_cell_setting 'orthorhombic'
loop_
_space_group_symop_operation_xyz
x,y,z
-x,-y,1/2+z
x,-y,-z
-x,y,1/2-z
1/2+x,1/2+y,z
1/2-x,1/2-y,1/2+z
1/2+x,1/2-y,-z
1/2-x,1/2+y,1/2-z
loop_
_atom_site_type_symbol
_atom_site_label
_atom_site_fract_x
_atom_site_fract_y
_atom_site_fract_z
Si Si1 0.396544 0.570895 0.872211
Si Si2 0.011082 0.409975 0.423727
Si Si3 0.777242 0.913490 0.410030
Si Si4 0.969626 0.765087 0.417432
O O1 0.500000 0.556780 0.750000
O O2 0.286537 0.569023 0.765771
O O3 0.393727 0.500000 0.000000
O O4 0.425824 0.334356 0.054014
O O5 0.969180 0.500000 0.500000
O O6 0.147141 0.399461 0.459042
O O7 0.000000 0.418015 0.250000
O O8 0.955769 0.320213 0.483170
O O9 0.857595 0.827782 0.431542
O O10 0.820581 0.000000 0.500000
O O11 0.000000 0.736001 0.250000
#
# Coordination Sequence:
#
# PCOD9321688 Si02
#       4
#     8   8   8   8
#     4   9  17  32  56  88 118 145 184 240 288 333
#     4  11  24  40  57  81 115 153 190 234 286 342
#     4   9  20  38  59  84 115 149 188 234 285 339
#     4   9  19  36  58  83 113 145 187 238 282 332
#
# _framework density 20.105208999999999
#
# number of rings (size 3 to 8) (size 9 to 14) (size 15 to 20)
#    0.000    3.000    0.000    3.750    0.000    8.000 
#    0.000    5.000    0.000    1.500    0.000    0.000 
#    0.000    0.000    0.000    0.000    0.000    0.000 
#
# Total GULP energy -89163.591851 kJ/mol
# GULP energy per Si atom -5572.724491 kJ/mol
# Density = 2.005945 g / cm^3
# Si number density = 20.105209 Si / 1000 Ang^3
#
#
#
# Elastic Constant Matrix: (Units=GPa)
#
#
# Indices 1 2 3 4 5 6 
#
# 1 28.6797 11.7398 -7.6559 0.0000 0.0000 0.0000
# 2 11.7398 170.7758 101.4079 0.0000 0.0000 0.0000
# 3 -7.6559 101.4079 93.0449 0.0000 0.0000 0.0000
# 4 0.0000 0.0000 0.0000 46.1589 0.0000 0.0000
# 5 0.0000 0.0000 0.0000 0.0000 16.8127 0.0000
# 6 0.0000 0.0000 0.0000 0.0000 0.0000 21.3681
#
#
#
# Elastic Compliance Matrix: (Units=1/GPa)
#
#
# Indices 1 2 3 4 5 6 
#
# 1 0.046827 -0.015608 0.020864 0.000000 0.000000 0.000000
# 2 -0.015608 0.021799 -0.025043 0.000000 0.000000 0.000000
# 3 0.020864 -0.025043 0.039758 0.000000 0.000000 0.000000
# 4 0.000000 0.000000 0.000000 0.021664 0.000000 0.000000
# 5 0.000000 0.000000 0.000000 0.000000 0.059479 0.000000
# 6 0.000000 0.000000 0.000000 0.000000 0.000000 0.046799
#
#
# Mechanical properties :
#
#
# Convention : Reuss Voigt Hill
#
# Bulk Modulus (GPa) = 14.53281 55.94268 35.23774
# Shear Modulus (GPa) = 16.73157 29.33519 23.03338
#
# Velocity S-wave (km/s) = 2.88792 3.82394 3.38841
# Velocity P-wave (km/s) = 4.28534 6.88346 5.73351
#
# Compressibility (1/GPa) = 0.06880981
#
# Stress axis : x y z
#
# Youngs Moduli (GPa) = 21.35539 45.87317 25.15218
#
# Poissons Ratio (x) = 0.71601 -0.52478
# Poissons Ratio (y) = 0.33332 0.62988
# Poissons Ratio (z) = -0.44556 1.14880
#
# Static dielectric constant tensor:
#      x y z
#    x 1.802040 0.000000 0.000000 
#    y 0.000000 1.699220 0.000000 
#    z 0.000000 0.000000 1.688640 
# 
# From -- ./inp_files/6779.got.cif
#   From: 2010.05.17/outbox.cif.g08.bks.cpg/sg20_4_cif.got.tgz:6779.got - 2010.06.03 22:52:26.
