data_PCOD9321985
_publ_section_title
;
Structure prediction by ZEFSAII (Michael W. Deem and Ramdas Pophale) SiO2 
 PCOD9321985
Probable space group: C 2 2 21
;
_chemical_formula_sum "Si O2"
_cell_formula_units_Z 28
_cell_length_a 16.313465
_cell_length_b 4.795393
_cell_length_c 13.742521
_cell_angle_alpha 90.000000
_cell_angle_beta 90.000000
_cell_angle_gamma 90.000000
_cell_volume 1075.070215
_symmetry_space_group_name_H-M "C 2 2 21"
_symmetry_group_IT_number 20
_symmetry_cell_setting 'orthorhombic'
loop_
_space_group_symop_operation_xyz
x,y,z
-x,-y,1/2+z
x,-y,-z
-x,y,1/2-z
1/2+x,1/2+y,z
1/2-x,1/2-y,1/2+z
1/2+x,1/2-y,-z
1/2-x,1/2+y,1/2-z
loop_
_atom_site_type_symbol
_atom_site_label
_atom_site_fract_x
_atom_site_fract_y
_atom_site_fract_z
Si Si1 0.736221 0.901572 0.314717
Si Si2 0.514184 0.693778 0.138200
Si Si3 0.082045 0.676923 0.403009
Si Si4 0.840818 0.000000 0.500000
O O1 0.782368 0.117105 0.242234
O O2 0.653928 0.077708 0.333272
O O3 0.781782 0.852391 0.418887
O O4 0.500000 0.620278 0.250000
O O5 0.441155 0.498729 0.094896
O O6 0.595704 0.646743 0.074848
O O7 0.500692 0.024113 0.131234
O O8 0.100705 0.500000 0.500000
#
# Coordination Sequence:
#
# PCOD9321985 Si02
#       4
#     8   8   8   4
#     4  12  28  48  74 108 146 195 249 300 366 445
#     4  12  26  45  75 106 144 190 246 299 365 438
#     4  12  23  48  68  99 146 187 229 299 369 419
#     4  12  26  48  76 112 148 194 248 310 362 436
#
# _framework density 26.044809000000001
#
# number of rings (size 3 to 8) (size 9 to 14) (size 15 to 20)
#    0.000    0.000    4.286    6.000    0.000    5.714 
#    0.000    0.000    0.000    0.000    0.000    0.000 
#    0.000    0.000    0.000    0.000    0.000    0.000 
#
# Total GULP energy -78074.758535 kJ/mol
# GULP energy per Si atom -5576.768467 kJ/mol
# Density = 2.598553 g / cm^3
# Si number density = 26.044809 Si / 1000 Ang^3
#
#
#
# Elastic Constant Matrix: (Units=GPa)
#
#
# Indices 1 2 3 4 5 6 
#
# 1 77.1674 0.5655 26.3354 0.0000 0.0000 0.0000
# 2 0.5655 132.4071 28.3343 0.0000 0.0000 0.0000
# 3 26.3354 28.3343 195.2662 0.0000 0.0000 0.0000
# 4 0.0000 0.0000 0.0000 24.0923 0.0000 0.0000
# 5 0.0000 0.0000 0.0000 0.0000 52.1586 0.0000
# 6 0.0000 0.0000 0.0000 0.0000 0.0000 11.0608
#
#
#
# Elastic Compliance Matrix: (Units=1/GPa)
#
#
# Indices 1 2 3 4 5 6 
#
# 1 0.013599 0.000345 -0.001884 0.000000 0.000000 0.000000
# 2 0.000345 0.007803 -0.001179 0.000000 0.000000 0.000000
# 3 -0.001884 -0.001179 0.005546 0.000000 0.000000 0.000000
# 4 0.000000 0.000000 0.000000 0.041507 0.000000 0.000000
# 5 0.000000 0.000000 0.000000 0.000000 0.019172 0.000000
# 6 0.000000 0.000000 0.000000 0.000000 0.000000 0.090409
#
#
# Mechanical properties :
#
#
# Convention : Reuss Voigt Hill
#
# Bulk Modulus (GPa) = 46.48324 57.25679 51.87002
# Shear Modulus (GPa) = 26.22687 40.76939 33.49813
#
# Velocity S-wave (km/s) = 3.17675 3.96075 3.59022
# Velocity P-wave (km/s) = 5.59838 6.55350 6.09468
#
# Compressibility (1/GPa) = 0.02151313
#
# Stress axis : x y z
#
# Youngs Moduli (GPa) = 73.53295 128.15163 180.29732
#
# Poissons Ratio (x) = -0.04423 0.33972
# Poissons Ratio (y) = -0.02538 0.21254
# Poissons Ratio (z) = 0.13855 0.15107
#
# Static dielectric constant tensor:
#      x y z
#    x 2.092840 0.000000 0.000000 
#    y 0.000000 1.950030 0.000000 
#    z 0.000000 0.000000 2.192800 
# 
# From -- ./inp_files/21007.got.cif
#   From: 2010.05.17/outbox.cif.g08.bks.cpg/sg20_11_cif.got.tgz:21007.got - 2010.06.03 22:52:26.
