data_PCOD9321567
_publ_section_title
;
Structure prediction by ZEFSAII (Michael W. Deem and Ramdas Pophale) SiO2 
 PCOD9321567
Probable space group: C 2 2 21
;
_chemical_formula_sum "Si O2"
_cell_formula_units_Z 48
_cell_length_a 15.714928
_cell_length_b 17.567942
_cell_length_c 7.894054
_cell_angle_alpha 90.000000
_cell_angle_beta 90.000000
_cell_angle_gamma 90.000000
_cell_volume 2179.382089
_symmetry_space_group_name_H-M "C 2 2 21"
_symmetry_group_IT_number 20
_symmetry_cell_setting 'orthorhombic'
loop_
_space_group_symop_operation_xyz
x,y,z
-x,-y,1/2+z
x,-y,-z
-x,y,1/2-z
1/2+x,1/2+y,z
1/2-x,1/2-y,1/2+z
1/2+x,1/2-y,-z
1/2-x,1/2+y,1/2-z
loop_
_atom_site_type_symbol
_atom_site_label
_atom_site_fract_x
_atom_site_fract_y
_atom_site_fract_z
Si Si1 0.878537 0.579809 0.206689
Si Si2 0.787137 0.922520 0.890390
Si Si3 0.228702 0.686161 0.816287
Si Si4 0.914321 0.581027 0.815166
Si Si5 0.092295 0.750449 0.297903
Si Si6 0.595222 0.701722 0.314803
O O1 0.777350 0.571200 0.233116
O O2 0.911768 0.500345 0.281979
O O3 0.904694 0.663368 0.268457
O O4 0.913087 0.576540 0.016519
O O5 0.876567 0.885895 0.839507
O O6 0.747360 0.854882 0.006195
O O7 0.791495 0.000000 0.000000
O O8 0.173032 0.623373 0.722359
O O9 0.321025 0.707662 0.740909
O O10 0.165893 0.758692 0.806369
O O11 0.000000 0.620689 0.750000
O O12 0.099099 0.755444 0.502736
O O13 0.000000 0.783282 0.250000
O O14 0.500000 0.706330 0.250000
#
# Coordination Sequence:
#
# PCOD9321567 Si02
#       6
#     8   8   8   8   8   8
#     4  11  23  41  65  96 134 177 223 271 348 413
#     4  11  24  45  71  97 137 184 233 291 350 414
#     4  11  23  43  67  95 137 174 223 290 345 412
#     4  11  24  41  63  98 138 175 223 270 345 421
#     4  11  25  40  66  99 129 173 228 281 343 413
#     4  11  25  44  69  98 135 180 229 284 350 411
#
# _framework density 22.024591999999998
#
# number of rings (size 3 to 8) (size 9 to 14) (size 15 to 20)
#    0.000    1.000    5.000    1.000    2.333    4.000 
#    0.000    3.333    3.667    0.000    0.000    0.000 
#    0.000    0.000    0.000    0.000    0.000    0.000 
#
# Total GULP energy -133848.621974 kJ/mol
# GULP energy per Si atom -5577.025916 kJ/mol
# Density = 2.197446 g / cm^3
# Si number density = 22.024592 Si / 1000 Ang^3
#
#
#
# Elastic Constant Matrix: (Units=GPa)
#
#
# Indices 1 2 3 4 5 6 
#
# 1 195.1995 71.5164 28.5941 0.0000 0.0000 0.0000
# 2 71.5164 106.8292 21.8942 0.0000 0.0000 0.0000
# 3 28.5941 21.8942 48.6535 0.0000 0.0000 0.0000
# 4 0.0000 0.0000 0.0000 14.8160 0.0000 0.0000
# 5 0.0000 0.0000 0.0000 0.0000 36.2673 0.0000
# 6 0.0000 0.0000 0.0000 0.0000 0.0000 9.1684
#
#
#
# Elastic Compliance Matrix: (Units=1/GPa)
#
#
# Indices 1 2 3 4 5 6 
#
# 1 0.006997 -0.004231 -0.002208 0.000000 0.000000 0.000000
# 2 -0.004231 0.012871 -0.003305 0.000000 0.000000 0.000000
# 3 -0.002208 -0.003305 0.023338 0.000000 0.000000 0.000000
# 4 0.000000 0.000000 0.000000 0.067495 0.000000 0.000000
# 5 0.000000 0.000000 0.000000 0.000000 0.027573 0.000000
# 6 0.000000 0.000000 0.000000 0.000000 0.000000 0.109070
#
#
# Mechanical properties :
#
#
# Convention : Reuss Voigt Hill
#
# Bulk Modulus (GPa) = 42.16349 66.07683 54.12016
# Shear Modulus (GPa) = 18.19916 27.29551 22.74734
#
# Velocity S-wave (km/s) = 2.87768 3.52422 3.21723
# Velocity P-wave (km/s) = 5.49789 6.82837 6.19893
#
# Compressibility (1/GPa) = 0.02371720
#
# Stress axis : x y z
#
# Youngs Moduli (GPa) = 142.92521 77.69536 42.84785
#
# Poissons Ratio (x) = 0.32876 0.09460
# Poissons Ratio (y) = 0.60477 0.14161
# Poissons Ratio (z) = 0.31556 0.25679
#
# Static dielectric constant tensor:
#      x y z
#    x 1.835790 0.000000 0.000000 
#    y 0.000000 1.901400 0.000000 
#    z 0.000000 0.000000 1.883030 
# 
# From -- ./inp_files/8447.got.cif
#   From: 2010.05.17/outbox.cif.g08.bks.cpg/sg20_5_cif.got.tgz:8447.got - 2010.06.03 22:52:26.
