data_PCOD9321188
_publ_section_title
;
Structure prediction by ZEFSAII (Michael W. Deem and Ramdas Pophale) SiO2 
 PCOD9321188
Probable space group: C 2 2 21
;
_chemical_formula_sum "Si O2"
_cell_formula_units_Z 32
_cell_length_a 30.066492
_cell_length_b 5.078482
_cell_length_c 7.553217
_cell_angle_alpha 90.000000
_cell_angle_beta 90.000000
_cell_angle_gamma 90.000000
_cell_volume 1153.316856
_symmetry_space_group_name_H-M "C 2 2 21"
_symmetry_group_IT_number 20
_symmetry_cell_setting 'orthorhombic'
loop_
_space_group_symop_operation_xyz
x,y,z
-x,-y,1/2+z
x,-y,-z
-x,y,1/2-z
1/2+x,1/2+y,z
1/2-x,1/2-y,1/2+z
1/2+x,1/2-y,-z
1/2-x,1/2+y,1/2-z
loop_
_atom_site_type_symbol
_atom_site_label
_atom_site_fract_x
_atom_site_fract_y
_atom_site_fract_z
Si Si1 0.771795 0.000000 0.500000
Si Si2 0.164632 0.500000 0.000000
Si Si3 0.500000 0.137216 0.250000
Si Si4 0.372930 0.671749 0.210773
Si Si5 0.927056 0.500000 0.000000
Si Si6 0.943142 0.000000 0.500000
Si Si7 0.791517 0.000000 0.000000
O O1 0.807336 0.762675 0.458544
O O2 0.735336 0.766500 0.557192
O O3 0.135954 0.565825 0.828111
O O4 0.540923 0.983411 0.332523
O O5 0.478076 0.296248 0.412435
O O6 0.408549 0.532031 0.336682
O O7 0.394648 0.757043 0.024968
O O8 0.323425 0.576696 0.162184
#
# Coordination Sequence:
#
# PCOD9321188 Si02
#       7
#     4   4   4   8   4   4   4
#     4  10  26  50  80 112 154 202 258 316 384 454
#     4  11  26  49  78 113 155 204 257 317 382 455
#     4  12  24  44  72 106 148 196 248 308 372 448
#     4  12  26  47  74 109 152 200 252 313 378 451
#     4  12  25  45  72 108 148 196 248 308 374 447
#     4  12  25  45  72 108 148 196 248 308 374 447
#     4  11  26  49  78 113 155 204 257 317 382 455
#
# _framework density 27.746061999999998
#
# number of rings (size 3 to 8) (size 9 to 14) (size 15 to 20)
#    0.000    0.500    0.000    7.500    0.000   10.000 
#    0.000    0.000    0.000    0.000    0.000    0.000 
#    0.000    0.000    0.000    0.000    0.000    0.000 
#
# Total GULP energy -89145.937508 kJ/mol
# GULP energy per Si atom -5571.621094 kJ/mol
# Density = 2.768291 g / cm^3
# Si number density = 27.746062 Si / 1000 Ang^3
#
#
#
# Elastic Constant Matrix: (Units=GPa)
#
#
# Indices 1 2 3 4 5 6 
#
# 1 136.5191 59.2487 -4.4918 0.0000 0.0000 0.0000
# 2 59.2487 174.5416 0.5317 0.0000 0.0000 0.0000
# 3 -4.4918 0.5317 79.7484 0.0000 0.0000 0.0000
# 4 0.0000 0.0000 0.0000 48.4544 0.0000 0.0000
# 5 0.0000 0.0000 0.0000 0.0000 112.3267 0.0000
# 6 0.0000 0.0000 0.0000 0.0000 0.0000 74.5259
#
#
#
# Elastic Compliance Matrix: (Units=1/GPa)
#
#
# Indices 1 2 3 4 5 6 
#
# 1 0.008611 -0.002925 0.000505 0.000000 0.000000 0.000000
# 2 -0.002925 0.006723 -0.000210 0.000000 0.000000 0.000000
# 3 0.000505 -0.000210 0.012569 0.000000 0.000000 0.000000
# 4 0.000000 0.000000 0.000000 0.020638 0.000000 0.000000
# 5 0.000000 0.000000 0.000000 0.000000 0.008903 0.000000
# 6 0.000000 0.000000 0.000000 0.000000 0.000000 0.013418
#
#
# Mechanical properties :
#
#
# Convention : Reuss Voigt Hill
#
# Bulk Modulus (GPa) = 44.16255 55.70959 49.93607
# Shear Modulus (GPa) = 59.75973 69.42945 64.59459
#
# Velocity S-wave (km/s) = 4.64595 5.00774 4.83024
# Velocity P-wave (km/s) = 6.68813 7.31838 7.01034
#
# Compressibility (1/GPa) = 0.02264362
#
# Stress axis : x y z
#
# Youngs Moduli (GPa) = 116.13319 148.75058 79.55929
#
# Poissons Ratio (x) = 0.43502 -0.04014
# Poissons Ratio (y) = 0.33963 0.01667
# Poissons Ratio (z) = -0.05859 0.03117
#
# Static dielectric constant tensor:
#      x y z
#    x 2.099180 0.000000 0.000000 
#    y 0.000000 2.167140 0.000000 
#    z 0.000000 0.000000 2.307340 
# 
# From -- ./inp_files/662.got.cif
#   From: 2010.05.17/outbox.cif.g08.bks.cpg/sg20_1_cif.got.tgz:662.got - 2010.06.03 22:52:26.
