data_PCOD9321897
_publ_section_title
;
Structure prediction by ZEFSAII (Michael W. Deem and Ramdas Pophale) SiO2 
 PCOD9321897
Probable space group: C 2 2 21
;
_chemical_formula_sum "Si O2"
_cell_formula_units_Z 32
_cell_length_a 4.991754
_cell_length_b 30.397094
_cell_length_c 8.850774
_cell_angle_alpha 90.000000
_cell_angle_beta 90.000000
_cell_angle_gamma 90.000000
_cell_volume 1342.970560
_symmetry_space_group_name_H-M "C 2 2 21"
_symmetry_group_IT_number 20
_symmetry_cell_setting 'orthorhombic'
loop_
_space_group_symop_operation_xyz
x,y,z
-x,-y,1/2+z
x,-y,-z
-x,y,1/2-z
1/2+x,1/2+y,z
1/2-x,1/2-y,1/2+z
1/2+x,1/2-y,-z
1/2-x,1/2+y,1/2-z
loop_
_atom_site_type_symbol
_atom_site_label
_atom_site_fract_x
_atom_site_fract_y
_atom_site_fract_z
Si Si1 0.080468 0.458929 0.577684
Si Si2 0.754100 0.087602 0.854722
Si Si3 0.879807 0.230769 0.420243
Si Si4 0.900133 0.132497 0.420543
O O1 0.226808 0.500000 0.500000
O O2 0.225894 0.411730 0.566806
O O3 0.000000 0.467283 0.750000
O O4 0.827536 0.450600 0.469362
O O5 0.500000 0.098431 0.750000
O O6 0.000000 0.074331 0.750000
O O7 0.861591 0.126973 0.958920
O O8 0.127776 0.239440 0.533783
O O9 0.000000 0.236524 0.250000
O O10 0.775966 0.180491 0.439743
O O11 0.000000 0.131542 0.250000
#
# Coordination Sequence:
#
# PCOD9321897 Si02
#       4
#     8   8   8   8
#     4  12  27  50  79 114 154 206 261 316 374 452
#     4  12  26  47  74 113 149 196 254 316 374 440
#     4  11  27  49  80 116 153 197 252 314 386 457
#     4  11  26  50  81 108 157 207 252 307 390 460
#
# _framework density 23.827774999999999
#
# number of rings (size 3 to 8) (size 9 to 14) (size 15 to 20)
#    0.000    0.500    5.000    1.500    3.500    4.000 
#    4.500    0.000    0.000    0.000    0.000    0.000 
#    0.000    0.000    0.000    0.000    0.000    0.000 
#
# Total GULP energy -89504.290425 kJ/mol
# GULP energy per Si atom -5594.018152 kJ/mol
# Density = 2.377354 g / cm^3
# Si number density = 23.827775 Si / 1000 Ang^3
#
#
#
# Elastic Constant Matrix: (Units=GPa)
#
#
# Indices 1 2 3 4 5 6 
#
# 1 105.8381 36.7680 45.9346 0.0000 0.0000 0.0000
# 2 36.7680 165.4025 51.4675 0.0000 0.0000 0.0000
# 3 45.9346 51.4675 169.3440 0.0000 0.0000 0.0000
# 4 0.0000 0.0000 0.0000 8.0117 0.0000 0.0000
# 5 0.0000 0.0000 0.0000 0.0000 21.8812 0.0000
# 6 0.0000 0.0000 0.0000 0.0000 0.0000 37.8124
#
#
#
# Elastic Compliance Matrix: (Units=1/GPa)
#
#
# Indices 1 2 3 4 5 6 
#
# 1 0.011123 -0.001694 -0.002502 0.000000 0.000000 0.000000
# 2 -0.001694 0.006935 -0.001648 0.000000 0.000000 0.000000
# 3 -0.002502 -0.001648 0.007085 0.000000 0.000000 0.000000
# 4 0.000000 0.000000 0.000000 0.124817 0.000000 0.000000
# 5 0.000000 0.000000 0.000000 0.000000 0.045701 0.000000
# 6 0.000000 0.000000 0.000000 0.000000 0.000000 0.026446
#
#
# Mechanical properties :
#
#
# Convention : Reuss Voigt Hill
#
# Bulk Modulus (GPa) = 74.32733 78.76941 76.54837
# Shear Modulus (GPa) = 20.98360 33.96871 27.47616
#
# Velocity S-wave (km/s) = 2.97077 3.77980 3.39944
# Velocity P-wave (km/s) = 6.55962 7.22349 6.89954
#
# Compressibility (1/GPa) = 0.01345400
#
# Stress axis : x y z
#
# Youngs Moduli (GPa) = 89.90492 144.18968 141.14652
#
# Poissons Ratio (x) = 0.24425 0.35318
# Poissons Ratio (y) = 0.15229 0.23265
# Poissons Ratio (z) = 0.22496 0.23767
#
# Static dielectric constant tensor:
#      x y z
#    x 1.985980 0.000000 0.000000 
#    y 0.000000 1.958790 0.000000 
#    z 0.000000 0.000000 1.903970 
# 
# From -- ./inp_files/5135.got.cif
#   From: 2010.05.17/outbox.cif.g08.bks.cpg/sg20_3_cif.got.tgz:5135.got - 2010.06.03 22:52:26.
