data_PCOD9321908
_publ_section_title
;
Structure prediction by ZEFSAII (Michael W. Deem and Ramdas Pophale) SiO2 
 PCOD9321908
Probable space group: C 2 2 21
;
_chemical_formula_sum "Si O2"
_cell_formula_units_Z 24
_cell_length_a 18.298602
_cell_length_b 5.004349
_cell_length_c 10.430757
_cell_angle_alpha 90.000000
_cell_angle_beta 90.000000
_cell_angle_gamma 90.000000
_cell_volume 955.171441
_symmetry_space_group_name_H-M "C 2 2 21"
_symmetry_group_IT_number 20
_symmetry_cell_setting 'orthorhombic'
loop_
_space_group_symop_operation_xyz
x,y,z
-x,-y,1/2+z
x,-y,-z
-x,y,1/2-z
1/2+x,1/2+y,z
1/2-x,1/2-y,1/2+z
1/2+x,1/2-y,-z
1/2-x,1/2+y,1/2-z
loop_
_atom_site_type_symbol
_atom_site_label
_atom_site_fract_x
_atom_site_fract_y
_atom_site_fract_z
Si Si1 0.987653 0.196731 0.112881
Si Si2 0.120609 0.500000 0.000000
Si Si3 0.631219 0.000000 0.500000
Si Si4 0.746025 0.258519 0.159961
O O1 0.929446 0.442846 0.112469
O O2 0.000000 0.065589 0.250000
O O3 0.066243 0.306708 0.074539
O O4 0.961427 0.000000 0.000000
O O5 0.172302 0.666749 0.092789
O O6 0.691072 0.213271 0.552318
O O7 0.736147 0.539310 0.232143
#
# Coordination Sequence:
#
# PCOD9321908 Si02
#       4
#     8   4   4   8
#     4  11  28  50  80 115 165 216 273 335 408 487
#     4  11  28  50  76 119 158 218 270 335 410 490
#     4  11  28  50  74 121 156 216 268 335 406 490
#     4  12  28  48  84 118 164 208 275 340 413 482
#
# _framework density 25.126377999999999
#
# number of rings (size 3 to 8) (size 9 to 14) (size 15 to 20)
#    0.000    0.667    0.000    4.000   18.667    5.333 
#    0.000    0.000    0.000    0.000    0.000    0.000 
#    0.000    0.000    0.000    0.000    0.000    0.000 
#
# Total GULP energy -67006.612376 kJ/mol
# GULP energy per Si atom -5583.884365 kJ/mol
# Density = 2.506919 g / cm^3
# Si number density = 25.126378 Si / 1000 Ang^3
#
#
#
# Elastic Constant Matrix: (Units=GPa)
#
#
# Indices 1 2 3 4 5 6 
#
# 1 181.2754 37.3061 31.2505 0.0000 0.0000 0.0000
# 2 37.3061 84.7009 59.3879 0.0000 0.0000 0.0000
# 3 31.2505 59.3879 130.9032 0.0000 0.0000 0.0000
# 4 0.0000 0.0000 0.0000 55.4736 0.0000 0.0000
# 5 0.0000 0.0000 0.0000 0.0000 2.2456 0.0000
# 6 0.0000 0.0000 0.0000 0.0000 0.0000 21.9900
#
#
#
# Elastic Compliance Matrix: (Units=1/GPa)
#
#
# Indices 1 2 3 4 5 6 
#
# 1 0.006077 -0.002433 -0.000347 0.000000 0.000000 0.000000
# 2 -0.002433 0.018288 -0.007716 0.000000 0.000000 0.000000
# 3 -0.000347 -0.007716 0.011223 0.000000 0.000000 0.000000
# 4 0.000000 0.000000 0.000000 0.018027 0.000000 0.000000
# 5 0.000000 0.000000 0.000000 0.000000 0.445306 0.000000
# 6 0.000000 0.000000 0.000000 0.000000 0.000000 0.045475
#
#
# Mechanical properties :
#
#
# Convention : Reuss Voigt Hill
#
# Bulk Modulus (GPa) = 68.51508 72.52983 70.52246
# Shear Modulus (GPa) = 8.76804 33.87085 21.31945
#
# Velocity S-wave (km/s) = 1.87007 3.67552 2.91604
# Velocity P-wave (km/s) = 5.65599 6.85137 6.28218
#
# Compressibility (1/GPa) = 0.01459533
#
# Stress axis : x y z
#
# Youngs Moduli (GPa) = 164.55352 54.68040 89.10610
#
# Poissons Ratio (x) = 0.13306 0.03090
# Poissons Ratio (y) = 0.40044 0.68754
# Poissons Ratio (z) = 0.05706 0.42191
#
# Static dielectric constant tensor:
#      x y z
#    x 1.898170 0.000000 0.000000 
#    y 0.000000 2.094940 0.000000 
#    z 0.000000 0.000000 2.005860 
# 
# From -- ./inp_files/11781.got.cif
#   From: 2010.05.17/outbox.cif.g08.bks.cpg/sg20_6_cif.got.tgz:11781.got - 2010.06.03 22:52:26.
