data_PCOD9321820
_publ_section_title
;
Structure prediction by ZEFSAII (Michael W. Deem and Ramdas Pophale) SiO2 
 PCOD9321820
Probable space group: C 2 2 21
;
_chemical_formula_sum "Si O2"
_cell_formula_units_Z 32
_cell_length_a 5.140881
_cell_length_b 13.550104
_cell_length_c 20.991004
_cell_angle_alpha 90.000000
_cell_angle_beta 90.000000
_cell_angle_gamma 90.000000
_cell_volume 1462.222260
_symmetry_space_group_name_H-M "C 2 2 21"
_symmetry_group_IT_number 20
_symmetry_cell_setting 'orthorhombic'
loop_
_space_group_symop_operation_xyz
x,y,z
-x,-y,1/2+z
x,-y,-z
-x,y,1/2-z
1/2+x,1/2+y,z
1/2-x,1/2-y,1/2+z
1/2+x,1/2-y,-z
1/2-x,1/2+y,1/2-z
loop_
_atom_site_type_symbol
_atom_site_label
_atom_site_fract_x
_atom_site_fract_y
_atom_site_fract_z
Si Si1 0.252712 0.201162 0.206646
Si Si2 0.575934 0.835300 0.092187
Si Si3 0.860750 0.452065 0.901144
Si Si4 0.369208 0.638340 0.032132
O O1 0.500000 0.224683 0.250000
O O2 0.191304 0.286606 0.155531
O O3 0.310341 0.103285 0.165338
O O4 0.000000 0.186803 0.250000
O O5 0.412488 0.749871 0.056588
O O6 0.407932 0.932067 0.105376
O O7 0.802828 0.862181 0.042172
O O8 0.120449 0.406742 0.932259
O O9 0.622704 0.421229 0.946414
#
# Coordination Sequence:
#
# PCOD9321820 Si02
#       4
#     8   8   8   8
#     4  11  25  47  69  98 138 182 239 285 321 400
#     4  11  25  46  73 101 141 184 219 282 355 401
#     4  11  26  46  70 101 138 180 223 282 347 407
#     4  11  25  43  70 108 139 168 226 283 343 424
#
# _framework density 21.884499999999999
#
# number of rings (size 3 to 8) (size 9 to 14) (size 15 to 20)
#    0.000    1.000    0.000    6.750    0.000   17.000 
#    0.000    7.500    0.000    0.000    0.000    0.000 
#    0.000    0.000    0.000    0.000    0.000    0.000 
#
# Total GULP energy -89729.707857 kJ/mol
# GULP energy per Si atom -5608.106741 kJ/mol
# Density = 2.183469 g / cm^3
# Si number density = 21.884500 Si / 1000 Ang^3
#
#
#
# Elastic Constant Matrix: (Units=GPa)
#
#
# Indices 1 2 3 4 5 6 
#
# 1 167.0730 83.0011 63.9422 0.0000 0.0000 0.0000
# 2 83.0011 198.2584 91.4876 0.0000 0.0000 0.0000
# 3 63.9422 91.4876 154.4688 0.0000 0.0000 0.0000
# 4 0.0000 0.0000 0.0000 22.8348 0.0000 0.0000
# 5 0.0000 0.0000 0.0000 0.0000 34.3959 0.0000
# 6 0.0000 0.0000 0.0000 0.0000 0.0000 32.8987
#
#
#
# Elastic Compliance Matrix: (Units=1/GPa)
#
#
# Indices 1 2 3 4 5 6 
#
# 1 0.007907 -0.002477 -0.001806 0.000000 0.000000 0.000000
# 2 -0.002477 0.007717 -0.003545 0.000000 0.000000 0.000000
# 3 -0.001806 -0.003545 0.009321 0.000000 0.000000 0.000000
# 4 0.000000 0.000000 0.000000 0.043793 0.000000 0.000000
# 5 0.000000 0.000000 0.000000 0.000000 0.029073 0.000000
# 6 0.000000 0.000000 0.000000 0.000000 0.000000 0.030396
#
#
# Mechanical properties :
#
#
# Convention : Reuss Voigt Hill
#
# Bulk Modulus (GPa) = 107.65743 110.74024 109.19884
# Shear Modulus (GPa) = 34.02284 36.78384 35.40334
#
# Velocity S-wave (km/s) = 3.94719 4.10422 4.02647
# Velocity P-wave (km/s) = 8.37102 8.55404 8.46302
#
# Compressibility (1/GPa) = 0.00928872
#
# Stress axis : x y z
#
# Youngs Moduli (GPa) = 126.46756 129.58743 107.28279
#
# Poissons Ratio (x) = 0.32097 0.19377
# Poissons Ratio (y) = 0.31324 0.38033
# Poissons Ratio (z) = 0.22842 0.45941
#
# Static dielectric constant tensor:
#      x y z
#    x 1.783510 0.000000 0.000000 
#    y 0.000000 1.814120 0.000000 
#    z 0.000000 0.000000 1.775550 
# 
# From -- ./inp_files/25889.got.cif
#   From: 2010.05.17/outbox.cif.g08.bks.cpg/sg20_13_cif.got.tgz:25889.got - 2010.06.03 22:52:26.
