data_PCOD9321799
_publ_section_title
;
Structure prediction by ZEFSAII (Michael W. Deem and Ramdas Pophale) SiO2 
 PCOD9321799
Probable space group: C 2 2 21
;
_chemical_formula_sum "Si O2"
_cell_formula_units_Z 40
_cell_length_a 5.311723
_cell_length_b 17.560537
_cell_length_c 19.217230
_cell_angle_alpha 90.000000
_cell_angle_beta 90.000000
_cell_angle_gamma 90.000000
_cell_volume 1792.519957
_symmetry_space_group_name_H-M "C 2 2 21"
_symmetry_group_IT_number 20
_symmetry_cell_setting 'orthorhombic'
loop_
_space_group_symop_operation_xyz
x,y,z
-x,-y,1/2+z
x,-y,-z
-x,y,1/2-z
1/2+x,1/2+y,z
1/2-x,1/2-y,1/2+z
1/2+x,1/2-y,-z
1/2-x,1/2+y,1/2-z
loop_
_atom_site_type_symbol
_atom_site_label
_atom_site_fract_x
_atom_site_fract_y
_atom_site_fract_z
Si Si1 0.390655 0.904321 0.825643
Si Si2 0.562436 0.264201 0.831981
Si Si3 0.904130 0.387799 0.415446
Si Si4 0.286127 0.623692 0.064171
Si Si5 0.590639 0.512310 0.904578
O O1 0.500000 0.913741 0.750000
O O2 0.584648 0.919169 0.887599
O O3 0.309272 0.816878 0.836161
O O4 0.163481 0.963374 0.835755
O O5 0.500000 0.267132 0.750000
O O6 0.574770 0.179034 0.859421
O O7 0.383021 0.308749 0.886715
O O8 0.841977 0.353811 0.492024
O O9 0.654461 0.435853 0.397057
O O10 0.161461 0.436957 0.419850
O O11 0.505406 0.561211 0.048306
#
# Coordination Sequence:
#
# PCOD9321799 Si02
#       5
#     8   8   8   8   8
#     4  11  24  48  77 103 147 204 255 292 365 456
#     4  11  27  49  73 110 153 198 249 309 372 447
#     4  12  29  46  78 112 152 189 247 321 377 425
#     4  11  26  47  78 103 146 200 252 297 363 455
#     4  11  27  48  74 110 148 189 245 311 374 437
#
# _framework density 22.314952999999999
#
# number of rings (size 3 to 8) (size 9 to 14) (size 15 to 20)
#    0.000    0.800    4.000    0.600   14.000    0.800 
#    3.600    0.000    0.000    0.000    0.000    0.000 
#    0.000    0.000    0.000    0.000    0.000    0.000 
#
# Total GULP energy -111646.118100 kJ/mol
# GULP energy per Si atom -5582.305905 kJ/mol
# Density = 2.226416 g / cm^3
# Si number density = 22.314953 Si / 1000 Ang^3
#
#
#
# Elastic Constant Matrix: (Units=GPa)
#
#
# Indices 1 2 3 4 5 6 
#
# 1 128.3748 52.5026 22.9460 0.0000 0.0000 0.0000
# 2 52.5026 104.5402 24.8971 0.0000 0.0000 0.0000
# 3 22.9460 24.8971 58.4495 0.0000 0.0000 0.0000
# 4 0.0000 0.0000 0.0000 8.7129 0.0000 0.0000
# 5 0.0000 0.0000 0.0000 0.0000 42.8263 0.0000
# 6 0.0000 0.0000 0.0000 0.0000 0.0000 20.5820
#
#
#
# Elastic Compliance Matrix: (Units=1/GPa)
#
#
# Indices 1 2 3 4 5 6 
#
# 1 0.010007 -0.004552 -0.001990 0.000000 0.000000 0.000000
# 2 -0.004552 0.012716 -0.003630 0.000000 0.000000 0.000000
# 3 -0.001990 -0.003630 0.019436 0.000000 0.000000 0.000000
# 4 0.000000 0.000000 0.000000 0.114772 0.000000 0.000000
# 5 0.000000 0.000000 0.000000 0.000000 0.023350 0.000000
# 6 0.000000 0.000000 0.000000 0.000000 0.000000 0.048586
#
#
# Mechanical properties :
#
#
# Convention : Reuss Voigt Hill
#
# Bulk Modulus (GPa) = 45.83605 54.67287 50.25446
# Shear Modulus (GPa) = 19.49455 27.15884 23.32669
#
# Velocity S-wave (km/s) = 2.95889 3.49244 3.23668
# Velocity P-wave (km/s) = 5.67966 6.38878 6.04463
#
# Compressibility (1/GPa) = 0.02181689
#
# Stress axis : x y z
#
# Youngs Moduli (GPa) = 99.93060 78.63998 51.45117
#
# Poissons Ratio (x) = 0.35796 0.10237
# Poissons Ratio (y) = 0.45487 0.18675
# Poissons Ratio (z) = 0.19882 0.28543
#
# Static dielectric constant tensor:
#      x y z
#    x 1.887430 0.000000 0.000000 
#    y 0.000000 1.813060 0.000000 
#    z 0.000000 0.000000 1.874100 
# 
# From -- ./inp_files/22624.got.cif
#   From: 2010.05.17/outbox.cif.g08.bks.cpg/sg20_12_cif.got.tgz:22624.got - 2010.06.03 22:52:26.
