data_PCOD9321409
_publ_section_title
;
Structure prediction by ZEFSAII (Michael W. Deem and Ramdas Pophale) SiO2 
 PCOD9321409
Probable space group: C 2 2 21
;
_chemical_formula_sum "Si O2"
_cell_formula_units_Z 48
_cell_length_a 14.340871
_cell_length_b 8.474581
_cell_length_c 17.544083
_cell_angle_alpha 90.000000
_cell_angle_beta 90.000000
_cell_angle_gamma 90.000000
_cell_volume 2132.182809
_symmetry_space_group_name_H-M "C 2 2 21"
_symmetry_group_IT_number 20
_symmetry_cell_setting 'orthorhombic'
loop_
_space_group_symop_operation_xyz
x,y,z
-x,-y,1/2+z
x,-y,-z
-x,y,1/2-z
1/2+x,1/2+y,z
1/2-x,1/2-y,1/2+z
1/2+x,1/2-y,-z
1/2-x,1/2+y,1/2-z
loop_
_atom_site_type_symbol
_atom_site_label
_atom_site_fract_x
_atom_site_fract_y
_atom_site_fract_z
Si Si1 0.014015 0.162399 0.091900
Si Si2 0.166153 0.684165 0.009493
Si Si3 0.050565 0.882998 0.321704
Si Si4 0.683775 0.194030 0.611592
Si Si5 0.361367 0.681815 0.267877
Si Si6 0.200702 0.338280 0.610666
O O1 0.079847 0.213694 0.022684
O O2 0.059336 0.233369 0.170802
O O3 0.908010 0.217376 0.079263
O O4 0.011094 0.978777 0.116720
O O5 0.248596 0.732007 0.951786
O O6 0.143503 0.500000 0.000000
O O7 0.217353 0.726098 0.089058
O O8 0.110798 0.754500 0.363173
O O9 0.000000 0.805715 0.250000
O O10 0.107592 0.025067 0.278943
O O11 0.666604 0.196688 0.702409
O O12 0.683489 0.015119 0.584199
O O13 0.272632 0.647840 0.319528
#
# Coordination Sequence:
#
# PCOD9321409 Si02
#       6
#     8   8   8   8   8   8
#     4   9  21  42  64  88 122 164 210 257 310 375
#     4  11  24  42  62  86 122 169 214 260 315 371
#     4   9  18  37  63  90 122 162 205 252 310 372
#     4  11  22  40  64  93 127 162 209 265 314 372
#     4   9  19  39  64  90 123 163 206 254 309 375
#     4  11  22  38  61  93 127 160 205 260 317 375
#
# _framework density 22.512141
#
# number of rings (size 3 to 8) (size 9 to 14) (size 15 to 20)
#    0.000    2.000    0.000    5.000    0.000    4.000 
#    0.000   20.000    0.000    0.000    0.000    0.000 
#    0.000    0.000    0.000    0.000    0.000    0.000 
#
# Total GULP energy -134010.996822 kJ/mol
# GULP energy per Si atom -5583.791534 kJ/mol
# Density = 2.246090 g / cm^3
# Si number density = 22.512141 Si / 1000 Ang^3
#
#
#
# Elastic Constant Matrix: (Units=GPa)
#
#
# Indices 1 2 3 4 5 6 
#
# 1 73.5037 2.9985 32.4922 0.0000 0.0000 0.0000
# 2 2.9985 45.6310 21.8839 0.0000 0.0000 0.0000
# 3 32.4922 21.8839 86.7699 0.0000 0.0000 0.0000
# 4 0.0000 0.0000 0.0000 18.5440 0.0000 0.0000
# 5 0.0000 0.0000 0.0000 0.0000 34.8024 0.0000
# 6 0.0000 0.0000 0.0000 0.0000 0.0000 -58.1582
#
#
#
# Elastic Compliance Matrix: (Units=1/GPa)
#
#
# Indices 1 2 3 4 5 6 
#
# 1 0.016484 0.002135 -0.006711 0.000000 0.000000 0.000000
# 2 0.002135 0.025207 -0.007157 0.000000 0.000000 0.000000
# 3 -0.006711 -0.007157 0.015843 0.000000 0.000000 0.000000
# 4 0.000000 0.000000 0.000000 0.053926 0.000000 0.000000
# 5 0.000000 0.000000 0.000000 0.000000 0.028734 0.000000
# 6 0.000000 0.000000 0.000000 0.000000 0.000000 -0.017194
#
#
# Mechanical properties :
#
#
# Convention : Reuss Voigt Hill
#
# Bulk Modulus (GPa) = 29.35268 35.62820 32.49044
# Shear Modulus (GPa) = 31.68142 8.93966 20.31054
#
# Velocity S-wave (km/s) = 3.75547 1.99491 3.00693
# Velocity P-wave (km/s) = 5.64550 4.60074 5.14968
#
# Compressibility (1/GPa) = 0.03406844
#
# Stress axis : x y z
#
# Youngs Moduli (GPa) = 60.66341 39.67155 63.11954
#
# Poissons Ratio (x) = -0.08472 0.42362
# Poissons Ratio (y) = -0.12954 0.45175
# Poissons Ratio (z) = 0.40714 0.28393
#
# Static dielectric constant tensor:
#      x y z
#    x 1.855620 0.000000 0.000000 
#    y 0.000000 1.780110 0.000000 
#    z 0.000000 0.000000 2.867360 
# 
# From -- ./inp_files/24809.got.cif
#   From: 2010.05.17/outbox.cif.g08.bks.cpg/sg20_13_cif.got.tgz:24809.got - 2010.06.03 22:52:26.
