data_PCOD9321145
_publ_section_title
;
Structure prediction by ZEFSAII (Michael W. Deem and Ramdas Pophale) SiO2 
 PCOD9321145
Probable space group: C 2 2 21
;
_chemical_formula_sum "Si O2"
_cell_formula_units_Z 32
_cell_length_a 29.270727
_cell_length_b 4.944319
_cell_length_c 9.121881
_cell_angle_alpha 90.000000
_cell_angle_beta 90.000000
_cell_angle_gamma 90.000000
_cell_volume 1320.153388
_symmetry_space_group_name_H-M "C 2 2 21"
_symmetry_group_IT_number 20
_symmetry_cell_setting 'orthorhombic'
loop_
_space_group_symop_operation_xyz
x,y,z
-x,-y,1/2+z
x,-y,-z
-x,y,1/2-z
1/2+x,1/2+y,z
1/2-x,1/2-y,1/2+z
1/2+x,1/2-y,-z
1/2-x,1/2+y,1/2-z
loop_
_atom_site_type_symbol
_atom_site_label
_atom_site_fract_x
_atom_site_fract_y
_atom_site_fract_z
Si Si1 0.094529 0.322315 0.362265
Si Si2 0.500000 0.214177 0.750000
Si Si3 0.373775 0.708793 0.728419
Si Si4 0.774632 0.995178 0.181162
Si Si5 0.558499 0.500000 0.000000
O O1 0.109551 0.500000 0.500000
O O2 0.043112 0.424623 0.326616
O O3 0.126926 0.468039 0.246038
O O4 0.099345 0.001702 0.342050
O O5 0.525155 0.373271 0.879681
O O6 0.323003 0.602263 0.751969
O O7 0.405760 0.682635 0.587160
O O8 0.761421 0.281774 0.251908
O O9 0.776105 0.000000 0.000000
#
# Coordination Sequence:
#
# PCOD9321145 Si02
#       5
#     8   4   8   8   4
#     4  11  24  41  71  97 144 188 247 298 360 448
#     4  10  26  40  72 104 150 194 252 304 384 430
#     4  11  26  47  71 106 148 195 245 304 385 447
#     4  12  27  49  83 115 157 202 265 329 403 480
#     4  10  26  46  74 106 152 192 250 312 370 458
#
# _framework density 24.239609999999999
#
# number of rings (size 3 to 8) (size 9 to 14) (size 15 to 20)
#    0.000    1.000    0.000    4.500   14.000    4.000 
#    0.000    0.000    0.000    0.000    0.000    0.000 
#    0.000    0.000    0.000    0.000    0.000    0.000 
#
# Total GULP energy -89089.487953 kJ/mol
# GULP energy per Si atom -5568.092997 kJ/mol
# Density = 2.418444 g / cm^3
# Si number density = 24.239610 Si / 1000 Ang^3
#
#
#
# Elastic Constant Matrix: (Units=GPa)
#
#
# Indices 1 2 3 4 5 6 
#
# 1 142.7077 1.8807 23.9156 0.0000 0.0000 0.0000
# 2 1.8807 95.3690 23.4875 0.0000 0.0000 0.0000
# 3 23.9156 23.4875 125.1454 0.0000 0.0000 0.0000
# 4 0.0000 0.0000 0.0000 19.1915 0.0000 0.0000
# 5 0.0000 0.0000 0.0000 0.0000 -3.7968 0.0000
# 6 0.0000 0.0000 0.0000 0.0000 0.0000 45.0041
#
#
#
# Elastic Compliance Matrix: (Units=1/GPa)
#
#
# Indices 1 2 3 4 5 6 
#
# 1 0.007243 0.000208 -0.001423 0.000000 0.000000 0.000000
# 2 0.000208 0.011000 -0.002104 0.000000 0.000000 0.000000
# 3 -0.001423 -0.002104 0.008658 0.000000 0.000000 0.000000
# 4 0.000000 0.000000 0.000000 0.052106 0.000000 0.000000
# 5 0.000000 0.000000 0.000000 0.000000 -0.263377 0.000000
# 6 0.000000 0.000000 0.000000 0.000000 0.000000 0.022220
#
#
# Mechanical properties :
#
#
# Convention : Reuss Voigt Hill
#
# Bulk Modulus (GPa) = 49.35556 51.30996 50.33276
# Shear Modulus (GPa) = -33.61186 33.00897 -0.30144
#
# Velocity S-wave (km/s) = -3.72782 3.69423 -0.35303
# Velocity P-wave (km/s) = 1.37001 6.27776 4.54352
#
# Compressibility (1/GPa) = 0.02026114
#
# Stress axis : x y z
#
# Youngs Moduli (GPa) = 138.06257 90.91162 115.50576
#
# Poissons Ratio (x) = -0.01888 0.16438
# Poissons Ratio (y) = -0.02867 0.24304
# Poissons Ratio (z) = 0.19648 0.19129
#
# Static dielectric constant tensor:
#      x y z
#    x 1.952820 0.000000 0.000000 
#    y 0.000000 1.992960 0.000000 
#    z 0.000000 0.000000 1.976040 
# 
# From -- ./inp_files/5263.got.cif
#   From: 2010.05.17/outbox.cif.g08.bks.cpg/sg20_3_cif.got.tgz:5263.got - 2010.06.03 22:52:26.
