data_PCOD9321078
_publ_section_title
;
Structure prediction by ZEFSAII (Michael W. Deem and Ramdas Pophale) SiO2 
 PCOD9321078
Probable space group: C 2 2 21
;
_chemical_formula_sum "Si O2"
_cell_formula_units_Z 36
_cell_length_a 7.220088
_cell_length_b 13.209347
_cell_length_c 17.053364
_cell_angle_alpha 90.000000
_cell_angle_beta 90.000000
_cell_angle_gamma 90.000000
_cell_volume 1626.424478
_symmetry_space_group_name_H-M "C 2 2 21"
_symmetry_group_IT_number 20
_symmetry_cell_setting 'orthorhombic'
loop_
_space_group_symop_operation_xyz
x,y,z
-x,-y,1/2+z
x,-y,-z
-x,y,1/2-z
1/2+x,1/2+y,z
1/2-x,1/2-y,1/2+z
1/2+x,1/2-y,-z
1/2-x,1/2+y,1/2-z
loop_
_atom_site_type_symbol
_atom_site_label
_atom_site_fract_x
_atom_site_fract_y
_atom_site_fract_z
Si Si1 0.519243 0.888830 0.033180
Si Si2 0.223897 0.860883 0.169029
Si Si3 0.630222 0.852363 0.868406
Si Si4 0.902436 0.978546 0.086395
Si Si5 0.000000 0.509145 0.750000
O O1 0.373660 0.854253 0.097601
O O2 0.722044 0.907736 0.070879
O O3 0.546474 0.824307 0.953708
O O4 0.465807 0.000000 0.000000
O O5 0.162584 0.746432 0.182649
O O6 0.324855 0.918090 0.239728
O O7 0.051676 0.927018 0.140802
O O8 0.819265 0.915346 0.882859
O O9 0.505352 0.934874 0.824101
O O10 0.983839 0.000000 0.000000
#
# Coordination Sequence:
#
# PCOD9321078 Si02
#       5
#     8   8   8   8   4
#     4   9  19  45  66 100 134 155 234 290 306 387
#     4  12  24  43  73  92 135 188 206 279 342 374
#     4  10  25  44  65 104 132 174 231 266 326 409
#     4   9  21  42  66 101 130 161 223 281 322 385
#     4  12  26  46  60 100 150 172 216 270 322 418
#
# _framework density 22.134443999999998
#
# number of rings (size 3 to 8) (size 9 to 14) (size 15 to 20)
#    0.000    2.222    4.444    0.667    6.222    4.444 
#    4.000    0.000    0.000    0.000    0.000    0.000 
#    0.000    0.000    0.000    0.000    0.000    0.000 
#
# Total GULP energy -100564.866178 kJ/mol
# GULP energy per Si atom -5586.937010 kJ/mol
# Density = 2.208407 g / cm^3
# Si number density = 22.134444 Si / 1000 Ang^3
#
#
#
# Elastic Constant Matrix: (Units=GPa)
#
#
# Indices 1 2 3 4 5 6 
#
# 1 67.9713 14.1003 19.9459 0.0000 0.0000 0.0000
# 2 14.1003 75.0758 9.0030 0.0000 0.0000 0.0000
# 3 19.9459 9.0030 72.9412 0.0000 0.0000 0.0000
# 4 0.0000 0.0000 0.0000 18.0677 0.0000 0.0000
# 5 0.0000 0.0000 0.0000 0.0000 47.1804 0.0000
# 6 0.0000 0.0000 0.0000 0.0000 0.0000 20.0282
#
#
#
# Elastic Compliance Matrix: (Units=1/GPa)
#
#
# Indices 1 2 3 4 5 6 
#
# 1 0.016478 -0.002593 -0.004186 0.000000 0.000000 0.000000
# 2 -0.002593 0.013928 -0.001010 0.000000 0.000000 0.000000
# 3 -0.004186 -0.001010 0.014979 0.000000 0.000000 0.000000
# 4 0.000000 0.000000 0.000000 0.055348 0.000000 0.000000
# 5 0.000000 0.000000 0.000000 0.000000 0.021195 0.000000
# 6 0.000000 0.000000 0.000000 0.000000 0.000000 0.049930
#
#
# Mechanical properties :
#
#
# Convention : Reuss Voigt Hill
#
# Bulk Modulus (GPa) = 33.54869 33.56517 33.55693
# Shear Modulus (GPa) = 25.33293 28.58451 26.95872
#
# Velocity S-wave (km/s) = 3.38672 3.59751 3.49371
# Velocity P-wave (km/s) = 5.52113 5.69678 5.60964
#
# Compressibility (1/GPa) = 0.02980743
#
# Stress axis : x y z
#
# Youngs Moduli (GPa) = 60.68580 71.79791 66.76006
#
# Poissons Ratio (x) = 0.18616 0.27946
# Poissons Ratio (y) = 0.15735 0.06743
# Poissons Ratio (z) = 0.25403 0.07252
#
# Static dielectric constant tensor:
#      x y z
#    x 1.796000 0.000000 0.000000 
#    y 0.000000 1.799040 0.000000 
#    z 0.000000 0.000000 1.898200 
# 
# From -- ./inp_files/23151.got.cif
#   From: 2010.05.17/outbox.cif.g08.bks.cpg/sg20_12_cif.got.tgz:23151.got - 2010.06.03 22:52:26.
