data_PCOD9321187
_publ_section_title
;
Structure prediction by ZEFSAII (Michael W. Deem and Ramdas Pophale) SiO2 
 PCOD9321187
Probable space group: C 2 2 21
;
_chemical_formula_sum "Si O2"
_cell_formula_units_Z 20
_cell_length_a 5.715336
_cell_length_b 8.050193
_cell_length_c 16.350705
_cell_angle_alpha 90.000000
_cell_angle_beta 90.000000
_cell_angle_gamma 90.000000
_cell_volume 752.288708
_symmetry_space_group_name_H-M "C 2 2 21"
_symmetry_group_IT_number 20
_symmetry_cell_setting 'orthorhombic'
loop_
_space_group_symop_operation_xyz
x,y,z
-x,-y,1/2+z
x,-y,-z
-x,y,1/2-z
1/2+x,1/2+y,z
1/2-x,1/2-y,1/2+z
1/2+x,1/2-y,-z
1/2-x,1/2+y,1/2-z
loop_
_atom_site_type_symbol
_atom_site_label
_atom_site_fract_x
_atom_site_fract_y
_atom_site_fract_z
Si Si1 0.500000 0.871017 0.750000
Si Si2 0.032412 0.500000 0.500000
Si Si3 0.000000 0.928619 0.750000
Si Si4 0.271520 0.238253 0.611246
O O1 0.270662 0.984970 0.745527
O O2 0.547908 0.749632 0.672711
O O3 0.868442 0.573202 0.570871
O O4 0.196157 0.357523 0.537022
O O5 0.026786 0.819820 0.833055
#
# Coordination Sequence:
#
# PCOD9321187 Si02
#       4
#     4   4   4   8
#     4   8  20  49  79 112 148 222 254 324 368 514
#     4  12  28  50  76 124 158 200 258 348 394 448
#     4   8  20  49  79 112 148 222 254 324 368 514
#     4  10  26  50  78 114 158 208 260 326 392 474
#
# _framework density 26.585536999999999
#
# number of rings (size 3 to 8) (size 9 to 14) (size 15 to 20)
#    2.400    0.000    0.000    0.000    5.600    3.200 
#    0.000    4.000    0.000    0.000    0.000    0.000 
#    0.000    0.000    0.000    0.000    0.000    0.000 
#
# Total GULP energy -55818.203996 kJ/mol
# GULP energy per Si atom -5581.820400 kJ/mol
# Density = 2.652503 g / cm^3
# Si number density = 26.585537 Si / 1000 Ang^3
#
#
#
# Elastic Constant Matrix: (Units=GPa)
#
#
# Indices 1 2 3 4 5 6 
#
# 1 214.9553 49.7813 22.0793 0.0000 0.0000 0.0000
# 2 49.7813 59.9779 3.6666 0.0000 0.0000 0.0000
# 3 22.0793 3.6666 102.8203 0.0000 0.0000 0.0000
# 4 0.0000 0.0000 0.0000 42.8535 0.0000 0.0000
# 5 0.0000 0.0000 0.0000 0.0000 64.2334 0.0000
# 6 0.0000 0.0000 0.0000 0.0000 0.0000 40.3381
#
#
#
# Elastic Compliance Matrix: (Units=1/GPa)
#
#
# Indices 1 2 3 4 5 6 
#
# 1 0.005879 -0.004813 -0.001091 0.000000 0.000000 0.000000
# 2 -0.004813 0.020649 0.000297 0.000000 0.000000 0.000000
# 3 -0.001091 0.000297 0.009949 0.000000 0.000000 0.000000
# 4 0.000000 0.000000 0.000000 0.023335 0.000000 0.000000
# 5 0.000000 0.000000 0.000000 0.000000 0.015568 0.000000
# 6 0.000000 0.000000 0.000000 0.000000 0.000000 0.024790
#
#
# Mechanical properties :
#
#
# Convention : Reuss Voigt Hill
#
# Bulk Modulus (GPa) = 39.58110 58.75643 49.16877
# Shear Modulus (GPa) = 41.73443 49.63344 45.68393
#
# Velocity S-wave (km/s) = 3.96639 4.32549 4.14983
# Velocity P-wave (km/s) = 5.99140 6.86261 6.44175
#
# Compressibility (1/GPa) = 0.02526458
#
# Stress axis : x y z
#
# Youngs Moduli (GPa) = 170.10518 48.42834 100.50916
#
# Poissons Ratio (x) = 0.23307 0.10963
# Poissons Ratio (y) = 0.81865 -0.02986
# Poissons Ratio (z) = 0.18554 -0.01439
#
# Static dielectric constant tensor:
#      x y z
#    x 2.073860 0.000000 0.000000 
#    y 0.000000 2.335990 0.000000 
#    z 0.000000 0.000000 2.143400 
# 
# From -- ./inp_files/19424.got.cif
#   From: 2010.05.17/outbox.cif.g08.bks.cpg/sg20_10_cif.got.tgz:19424.got - 2010.06.03 22:52:26.
