data_PCOD9321862
_publ_section_title
;
Structure prediction by ZEFSAII (Michael W. Deem and Ramdas Pophale) SiO2 
 PCOD9321862
Probable space group: C 2 2 21
;
_chemical_formula_sum "Si O2"
_cell_formula_units_Z 60
_cell_length_a 11.576692
_cell_length_b 12.381758
_cell_length_c 16.204669
_cell_angle_alpha 90.000000
_cell_angle_beta 90.000000
_cell_angle_gamma 90.000000
_cell_volume 2322.773994
_symmetry_space_group_name_H-M "C 2 2 21"
_symmetry_group_IT_number 20
_symmetry_cell_setting 'orthorhombic'
loop_
_space_group_symop_operation_xyz
x,y,z
-x,-y,1/2+z
x,-y,-z
-x,y,1/2-z
1/2+x,1/2+y,z
1/2-x,1/2-y,1/2+z
1/2+x,1/2-y,-z
1/2-x,1/2+y,1/2-z
loop_
_atom_site_type_symbol
_atom_site_label
_atom_site_fract_x
_atom_site_fract_y
_atom_site_fract_z
Si Si1 0.547346 0.217540 0.397911
Si Si2 0.116588 0.121959 0.968798
Si Si3 0.580542 0.017198 0.168123
Si Si4 0.500000 0.542726 0.750000
Si Si5 0.915629 0.697956 0.609132
Si Si6 0.661333 0.226933 0.571556
Si Si7 0.711172 0.289010 0.260872
Si Si8 0.679284 0.598069 0.342401
O O1 0.489959 0.334579 0.414236
O O2 0.452868 0.131591 0.371330
O O3 0.609156 0.191039 0.482758
O O4 0.634583 0.217038 0.322606
O O5 0.235777 0.140966 0.920060
O O6 0.122354 0.214173 0.041226
O O7 0.104816 0.000000 0.000000
O O8 0.500000 0.997393 0.250000
O O9 0.716740 0.022444 0.186584
O O10 0.567283 0.929479 0.095470
O O11 0.386480 0.620821 0.737032
O O12 0.440135 0.457314 0.814876
O O13 0.824483 0.692281 0.682809
O O14 0.046628 0.729054 0.629014
O O15 0.683393 0.357983 0.563691
O O16 0.767951 0.213118 0.191534
#
# Coordination Sequence:
#
# PCOD9321862 Si02
#       8
#     8   8   8   4   8   8   8   8
#     4  11  25  49  76 113 160 207 280 345 426 509
#     4  11  26  49  75 112 160 216 273 344 427 520
#     4  12  25  49  80 111 152 216 280 352 430 511
#     4  12  28  48  80 118 156 224 266 348 426 500
#     4  11  27  47  75 112 157 206 269 346 409 510
#     4  11  26  47  76 117 155 211 272 345 418 505
#     4  12  25  49  77 116 160 209 277 338 419 511
#     4  12  26  50  76 114 165 212 278 342 423 515
#
# _framework density 25.831182999999999
#
# number of rings (size 3 to 8) (size 9 to 14) (size 15 to 20)
#    0.000    0.533    5.333    1.600    3.733    4.800 
#    0.000    1.333    0.000    0.000    0.000    0.000 
#    0.000    0.000    0.000    0.000    0.000    0.000 
#
# Total GULP energy -167002.794894 kJ/mol
# GULP energy per Si atom -5566.759830 kJ/mol
# Density = 2.577239 g / cm^3
# Si number density = 25.831183 Si / 1000 Ang^3
#
#
#
# Elastic Constant Matrix: (Units=GPa)
#
#
# Indices 1 2 3 4 5 6 
#
# 1 168.7843 35.1566 14.8352 0.0000 0.0000 0.0000
# 2 35.1566 143.6194 31.8664 0.0000 0.0000 0.0000
# 3 14.8352 31.8664 21.0779 0.0000 0.0000 0.0000
# 4 0.0000 0.0000 0.0000 5.9857 0.0000 0.0000
# 5 0.0000 0.0000 0.0000 0.0000 17.3870 0.0000
# 6 0.0000 0.0000 0.0000 0.0000 0.0000 7.8055
#
#
#
# Elastic Compliance Matrix: (Units=1/GPa)
#
#
# Indices 1 2 3 4 5 6 
#
# 1 0.006384 -0.000851 -0.003206 0.000000 0.000000 0.000000
# 2 -0.000851 0.010591 -0.015413 0.000000 0.000000 0.000000
# 3 -0.003206 -0.015413 0.073001 0.000000 0.000000 0.000000
# 4 0.000000 0.000000 0.000000 0.167064 0.000000 0.000000
# 5 0.000000 0.000000 0.000000 0.000000 0.057514 0.000000
# 6 0.000000 0.000000 0.000000 0.000000 0.000000 0.128115
#
#
# Mechanical properties :
#
#
# Convention : Reuss Voigt Hill
#
# Bulk Modulus (GPa) = 19.59412 55.24424 37.41918
# Shear Modulus (GPa) = 10.02766 23.01054 16.51910
#
# Velocity S-wave (km/s) = 1.97242 2.98787 2.53158
# Velocity P-wave (km/s) = 3.57619 5.77376 4.80236
#
# Compressibility (1/GPa) = 0.05103573
#
# Stress axis : x y z
#
# Youngs Moduli (GPa) = 156.64550 94.41936 13.69843
#
# Poissons Ratio (x) = 0.08038 0.04392
# Poissons Ratio (y) = 0.13336 0.21113
# Poissons Ratio (z) = 0.50221 1.45526
#
# Static dielectric constant tensor:
#      x y z
#    x 2.470070 0.000000 0.000000 
#    y 0.000000 2.355560 0.000000 
#    z 0.000000 0.000000 2.464210 
# 
# From -- ./inp_files/27282.got.cif
#   From: 2010.05.17/outbox.cif.g08.bks.cpg/sg20_14_cif.got.tgz:27282.got - 2010.06.03 22:52:26.
