data_PCOD9321284
_publ_section_title
;
Structure prediction by ZEFSAII (Michael W. Deem and Ramdas Pophale) SiO2 
 PCOD9321284
Probable space group: C 2 2 21
;
_chemical_formula_sum "Si O2"
_cell_formula_units_Z 60
_cell_length_a 12.136377
_cell_length_b 15.541492
_cell_length_c 17.202406
_cell_angle_alpha 90.000000
_cell_angle_beta 90.000000
_cell_angle_gamma 90.000000
_cell_volume 3244.673198
_symmetry_space_group_name_H-M "C 2 2 21"
_symmetry_group_IT_number 20
_symmetry_cell_setting 'orthorhombic'
loop_
_space_group_symop_operation_xyz
x,y,z
-x,-y,1/2+z
x,-y,-z
-x,y,1/2-z
1/2+x,1/2+y,z
1/2-x,1/2-y,1/2+z
1/2+x,1/2-y,-z
1/2-x,1/2+y,1/2-z
loop_
_atom_site_type_symbol
_atom_site_label
_atom_site_fract_x
_atom_site_fract_y
_atom_site_fract_z
Si Si1 0.463468 0.396338 0.839951
Si Si2 0.825004 0.028509 0.412658
Si Si3 0.500000 0.751761 0.750000
Si Si4 0.867824 0.595857 0.179462
Si Si5 0.476482 0.032714 0.586840
Si Si6 0.195399 0.868443 0.203584
Si Si7 0.757869 0.496039 0.672530
Si Si8 0.562748 0.805750 0.330416
O O1 0.500000 0.415796 0.750000
O O2 0.555367 0.432675 0.897320
O O3 0.346358 0.440840 0.854532
O O4 0.458264 0.293778 0.847312
O O5 0.734399 0.095402 0.379997
O O6 0.804106 0.000000 0.500000
O O7 0.816563 0.943952 0.359147
O O8 0.569724 0.815227 0.694203
O O9 0.410560 0.692143 0.707459
O O10 0.819120 0.560183 0.260585
O O11 0.952745 0.526457 0.145429
O O12 0.348883 0.020568 0.609374
O O13 0.497022 0.000000 0.500000
O O14 0.517684 0.129208 0.604368
O O15 0.307648 0.818900 0.183895
O O16 0.213292 0.918175 0.285069
O O17 0.500000 0.829002 0.250000
#
# Coordination Sequence:
#
# PCOD9321284 Si02
#       8
#     8   8   4   8   8   8   8   8
#     4  11  22  39  67  93 125 161 214 263 321 376
#     4  11  24  44  65  92 130 177 207 251 327 398
#     4  12  24  38  66 102 122 160 220 282 308 370
#     4  11  21  39  67  87 122 162 218 259 310 372
#     4  12  23  40  64  90 126 172 214 260 325 388
#     4  11  22  38  66  93 126 160 217 261 321 381
#     4  11  20  41  66  92 122 167 212 265 317 385
#     4  11  22  39  64  94 120 162 216 269 309 382
#
# _framework density 18.491845999999999
#
# number of rings (size 3 to 8) (size 9 to 14) (size 15 to 20)
#    0.000    0.800    8.000    2.000    1.867    0.533 
#    2.400    0.000    0.000    0.000    0.000    0.000 
#    0.000    0.000    0.000    0.000    0.000    0.000 
#
# Total GULP energy -167637.646895 kJ/mol
# GULP energy per Si atom -5587.921563 kJ/mol
# Density = 1.844976 g / cm^3
# Si number density = 18.491846 Si / 1000 Ang^3
#
#
#
# Elastic Constant Matrix: (Units=GPa)
#
#
# Indices 1 2 3 4 5 6 
#
# 1 148.6949 45.0977 40.0807 0.0000 0.0000 0.0000
# 2 45.0977 39.3944 15.8885 0.0000 0.0000 0.0000
# 3 40.0807 15.8885 56.8765 0.0000 0.0000 0.0000
# 4 0.0000 0.0000 0.0000 -0.9414 0.0000 0.0000
# 5 0.0000 0.0000 0.0000 0.0000 -74.6230 0.0000
# 6 0.0000 0.0000 0.0000 0.0000 0.0000 57.5100
#
#
#
# Elastic Compliance Matrix: (Units=1/GPa)
#
#
# Indices 1 2 3 4 5 6 
#
# 1 0.011419 -0.011075 -0.004953 0.000000 0.000000 0.000000
# 2 -0.011075 0.039348 -0.003188 0.000000 0.000000 0.000000
# 3 -0.004953 -0.003188 0.021963 0.000000 0.000000 0.000000
# 4 0.000000 0.000000 0.000000 -1.062193 0.000000 0.000000
# 5 0.000000 0.000000 0.000000 0.000000 -0.013401 0.000000
# 6 0.000000 0.000000 0.000000 0.000000 0.000000 0.017388
#
#
# Mechanical properties :
#
#
# Convention : Reuss Voigt Hill
#
# Bulk Modulus (GPa) = 29.15544 49.67772 39.41658
# Shear Modulus (GPa) = -5.34410 5.98237 0.31914
#
# Velocity S-wave (km/s) = -1.70184 1.80060 0.41588
# Velocity P-wave (km/s) = 3.45532 5.58980 4.64678
#
# Compressibility (1/GPa) = 0.03429891
#
# Stress axis : x y z
#
# Youngs Moduli (GPa) = 87.57201 25.41432 45.53102
#
# Poissons Ratio (x) = 0.28145 0.22553
# Poissons Ratio (y) = 0.96983 0.14514
# Poissons Ratio (z) = 0.43377 0.08101
#
# Static dielectric constant tensor:
#      x y z
#    x 1.660520 0.000000 0.000000 
#    y 0.000000 1.624860 0.000000 
#    z 0.000000 0.000000 1.618350 
# 
# From -- ./inp_files/24432.got.cif
#   From: 2010.05.17/outbox.cif.g08.bks.cpg/sg20_13_cif.got.tgz:24432.got - 2010.06.03 22:52:26.
