data_PCOD9321009
_publ_section_title
;
Structure prediction by ZEFSAII (Michael W. Deem and Ramdas Pophale) SiO2 
 PCOD9321009
Probable space group: C 2 2 21
;
_chemical_formula_sum "Si O2"
_cell_formula_units_Z 40
_cell_length_a 9.068695
_cell_length_b 18.179976
_cell_length_c 9.777543
_cell_angle_alpha 90.000000
_cell_angle_beta 90.000000
_cell_angle_gamma 90.000000
_cell_volume 1612.010388
_symmetry_space_group_name_H-M "C 2 2 21"
_symmetry_group_IT_number 20
_symmetry_cell_setting 'orthorhombic'
loop_
_space_group_symop_operation_xyz
x,y,z
-x,-y,1/2+z
x,-y,-z
-x,y,1/2-z
1/2+x,1/2+y,z
1/2-x,1/2-y,1/2+z
1/2+x,1/2-y,-z
1/2-x,1/2+y,1/2-z
loop_
_atom_site_type_symbol
_atom_site_label
_atom_site_fract_x
_atom_site_fract_y
_atom_site_fract_z
Si Si1 0.708044 0.604644 0.535487
Si Si2 0.333330 0.881389 0.762589
Si Si3 0.915255 0.149255 0.604626
Si Si4 0.871157 0.750194 0.633481
Si Si5 0.668434 0.044986 0.710090
O O1 0.783943 0.605080 0.391588
O O2 0.533031 0.603538 0.516042
O O3 0.773266 0.677898 0.611814
O O4 0.748432 0.543442 0.644505
O O5 0.500000 0.855605 0.750000
O O6 0.229125 0.818779 0.821465
O O7 0.332166 0.960505 0.840506
O O8 0.913910 0.225256 0.520911
O O9 0.761863 0.105184 0.624082
O O10 0.000000 0.155395 0.750000
O O11 0.000000 0.741913 0.750000
O O12 0.500000 0.065193 0.750000
#
# Coordination Sequence:
#
# PCOD9321009 Si02
#       5
#     8   8   8   8   8
#     4  11  25  44  73 102 151 191 249 304 375 442
#     4  11  27  45  72 107 148 195 249 309 369 449
#     4  10  25  46  71 105 145 195 243 307 374 443
#     4  12  27  45  75 112 149 194 249 306 375 453
#     4  10  24  47  71 102 142 195 249 304 371 442
#
# _framework density 24.813737
#
# number of rings (size 3 to 8) (size 9 to 14) (size 15 to 20)
#    0.000    1.200    2.000    1.200   11.200    3.200 
#    7.200    0.000    0.000    0.000    0.000    0.000 
#    0.000    0.000    0.000    0.000    0.000    0.000 
#
# Total GULP energy -111754.645870 kJ/mol
# GULP energy per Si atom -5587.732293 kJ/mol
# Density = 2.475726 g / cm^3
# Si number density = 24.813737 Si / 1000 Ang^3
#
#
#
# Elastic Constant Matrix: (Units=GPa)
#
#
# Indices 1 2 3 4 5 6 
#
# 1 163.9962 57.2226 26.4181 0.0000 0.0000 0.0000
# 2 57.2226 144.7039 32.3794 0.0000 0.0000 0.0000
# 3 26.4181 32.3794 76.7897 0.0000 0.0000 0.0000
# 4 0.0000 0.0000 0.0000 44.4852 0.0000 0.0000
# 5 0.0000 0.0000 0.0000 0.0000 35.9485 0.0000
# 6 0.0000 0.0000 0.0000 0.0000 0.0000 65.7374
#
#
#
# Elastic Compliance Matrix: (Units=1/GPa)
#
#
# Indices 1 2 3 4 5 6 
#
# 1 0.007210 -0.002535 -0.001411 0.000000 0.000000 0.000000
# 2 -0.002535 0.008522 -0.002721 0.000000 0.000000 0.000000
# 3 -0.001411 -0.002721 0.014656 0.000000 0.000000 0.000000
# 4 0.000000 0.000000 0.000000 0.022479 0.000000 0.000000
# 5 0.000000 0.000000 0.000000 0.000000 0.027818 0.000000
# 6 0.000000 0.000000 0.000000 0.000000 0.000000 0.015212
#
#
# Mechanical properties :
#
#
# Convention : Reuss Voigt Hill
#
# Bulk Modulus (GPa) = 58.64520 68.61445 63.62983
# Shear Modulus (GPa) = 43.51005 47.19886 45.35446
#
# Velocity S-wave (km/s) = 4.19198 4.36607 4.27991
# Velocity P-wave (km/s) = 6.86409 7.28894 7.07970
#
# Compressibility (1/GPa) = 0.01705170
#
# Stress axis : x y z
#
# Youngs Moduli (GPa) = 138.70277 117.34150 68.23336
#
# Poissons Ratio (x) = 0.29749 0.09630
# Poissons Ratio (y) = 0.35164 0.18568
# Poissons Ratio (z) = 0.19576 0.31932
#
# Static dielectric constant tensor:
#      x y z
#    x 1.850750 0.000000 0.000000 
#    y 0.000000 2.030160 0.000000 
#    z 0.000000 0.000000 2.084280 
# 
# From -- ./inp_files/12728.got.cif
#   From: 2010.05.17/outbox.cif.g08.bks.cpg/sg20_7_cif.got.tgz:12728.got - 2010.06.03 22:52:26.
