data_PCOD9321224
_publ_section_title
;
Structure prediction by ZEFSAII (Michael W. Deem and Ramdas Pophale) SiO2 
 PCOD9321224
Probable space group: C 2 2 21
;
_chemical_formula_sum "Si O2"
_cell_formula_units_Z 40
_cell_length_a 5.332144
_cell_length_b 15.492622
_cell_length_c 20.402605
_cell_angle_alpha 90.000000
_cell_angle_beta 90.000000
_cell_angle_gamma 90.000000
_cell_volume 1685.436582
_symmetry_space_group_name_H-M "C 2 2 21"
_symmetry_group_IT_number 20
_symmetry_cell_setting 'orthorhombic'
loop_
_space_group_symop_operation_xyz
x,y,z
-x,-y,1/2+z
x,-y,-z
-x,y,1/2-z
1/2+x,1/2+y,z
1/2-x,1/2-y,1/2+z
1/2+x,1/2-y,-z
1/2-x,1/2+y,1/2-z
loop_
_atom_site_type_symbol
_atom_site_label
_atom_site_fract_x
_atom_site_fract_y
_atom_site_fract_z
Si Si1 0.467193 0.500000 0.500000
Si Si2 0.816260 0.035157 0.136091
Si Si3 0.760254 0.303885 0.980095
Si Si4 0.129683 0.192087 0.158969
Si Si5 0.000000 0.331718 0.250000
Si Si6 0.500000 0.094649 0.250000
Si Si7 0.500000 0.435968 0.250000
O O1 0.648118 0.502956 0.564192
O O2 0.309041 0.593074 0.497467
O O3 0.581686 0.039614 0.185951
O O4 0.909795 0.132283 0.132199
O O5 0.016509 0.990316 0.183883
O O6 0.813956 0.301799 0.902054
O O7 0.509671 0.243085 0.990159
O O8 0.004486 0.278295 0.183196
O O9 0.276228 0.153801 0.222107
O O10 0.255578 0.380920 0.246496
#
# Coordination Sequence:
#
# PCOD9321224 Si02
#       7
#     4   8   8   8   4   4   4
#     4  10  28  52  78 112 158 208 262 326 402 458
#     4  11  24  48  72 106 146 205 254 319 381 472
#     4  11  29  52  78 114 157 209 260 320 389 474
#     4  11  25  45  75 103 149 201 252 314 386 455
#     4  12  26  40  69 109 148 186 242 316 378 442
#     4  12  20  46  82 104 150 196 268 312 392 466
#     4  12  26  42  71 111 150 192 246 312 378 460
#
# _framework density 23.732721999999999
#
# number of rings (size 3 to 8) (size 9 to 14) (size 15 to 20)
#    0.000    0.800    4.000    1.200   11.200    0.800 
#    3.600    0.000    0.000    0.000    0.000    0.000 
#    0.000    0.000    0.000    0.000    0.000    0.000 
#
# Total GULP energy -111482.304067 kJ/mol
# GULP energy per Si atom -5574.115203 kJ/mol
# Density = 2.367870 g / cm^3
# Si number density = 23.732722 Si / 1000 Ang^3
#
#
#
# Elastic Constant Matrix: (Units=GPa)
#
#
# Indices 1 2 3 4 5 6 
#
# 1 109.1499 42.2808 17.1963 0.0000 0.0000 0.0000
# 2 42.2808 106.3890 18.8847 0.0000 0.0000 0.0000
# 3 17.1963 18.8847 156.7960 0.0000 0.0000 0.0000
# 4 0.0000 0.0000 0.0000 27.6424 0.0000 0.0000
# 5 0.0000 0.0000 0.0000 0.0000 31.1096 0.0000
# 6 0.0000 0.0000 0.0000 0.0000 0.0000 28.6257
#
#
#
# Elastic Compliance Matrix: (Units=1/GPa)
#
#
# Indices 1 2 3 4 5 6 
#
# 1 0.010901 -0.004210 -0.000688 0.000000 0.000000 0.000000
# 2 -0.004210 0.011231 -0.000891 0.000000 0.000000 0.000000
# 3 -0.000688 -0.000891 0.006561 0.000000 0.000000 0.000000
# 4 0.000000 0.000000 0.000000 0.036176 0.000000 0.000000
# 5 0.000000 0.000000 0.000000 0.000000 0.032144 0.000000
# 6 0.000000 0.000000 0.000000 0.000000 0.000000 0.034934
#
#
# Mechanical properties :
#
#
# Convention : Reuss Voigt Hill
#
# Bulk Modulus (GPa) = 58.43375 58.78429 58.60902
# Shear Modulus (GPa) = 33.50533 37.07375 35.28954
#
# Velocity S-wave (km/s) = 3.76144 3.95667 3.86029
# Velocity P-wave (km/s) = 6.59846 6.75994 6.67969
#
# Compressibility (1/GPa) = 0.01711340
#
# Stress axis : x y z
#
# Youngs Moduli (GPa) = 91.73468 89.04127 152.42683
#
# Poissons Ratio (x) = 0.37487 0.10494
# Poissons Ratio (y) = 0.38621 0.13580
# Poissons Ratio (z) = 0.06316 0.07933
#
# Static dielectric constant tensor:
#      x y z
#    x 1.925300 0.000000 0.000000 
#    y 0.000000 2.035290 0.000000 
#    z 0.000000 0.000000 1.943410 
# 
# From -- ./inp_files/25995.got.cif
#   From: 2010.05.17/outbox.cif.g08.bks.cpg/sg20_13_cif.got.tgz:25995.got - 2010.06.03 22:52:26.
