data_PCOD9321836
_publ_section_title
;
Structure prediction by ZEFSAII (Michael W. Deem and Ramdas Pophale) SiO2 
 PCOD9321836
Probable space group: C 2 2 21
;
_chemical_formula_sum "Si O2"
_cell_formula_units_Z 28
_cell_length_a 8.272198
_cell_length_b 16.814754
_cell_length_c 7.756837
_cell_angle_alpha 90.000000
_cell_angle_beta 90.000000
_cell_angle_gamma 90.000000
_cell_volume 1078.937044
_symmetry_space_group_name_H-M "C 2 2 21"
_symmetry_group_IT_number 20
_symmetry_cell_setting 'orthorhombic'
loop_
_space_group_symop_operation_xyz
x,y,z
-x,-y,1/2+z
x,-y,-z
-x,y,1/2-z
1/2+x,1/2+y,z
1/2-x,1/2-y,1/2+z
1/2+x,1/2-y,-z
1/2-x,1/2+y,1/2-z
loop_
_atom_site_type_symbol
_atom_site_label
_atom_site_fract_x
_atom_site_fract_y
_atom_site_fract_z
Si Si1 0.358197 0.446582 0.347237
Si Si2 0.351939 0.693717 0.387437
Si Si3 0.121174 0.621090 0.908943
Si Si4 0.000000 0.365522 0.750000
O O1 0.286433 0.500000 0.500000
O O2 0.500000 0.494529 0.250000
O O3 0.387866 0.364258 0.451310
O O4 0.270106 0.420914 0.174429
O O5 0.500000 0.685824 0.250000
O O6 0.351128 0.785456 0.446125
O O7 0.168541 0.676039 0.317381
O O8 0.000000 0.618868 0.750000
O O9 0.058099 0.585493 0.085556
#
# Coordination Sequence:
#
# PCOD9321836 Si02
#       4
#     8   8   8   4
#     4  12  27  50  78 117 168 221 269 334 413 496
#     4  11  25  45  78 119 166 212 273 342 403 494
#     4  11  25  46  76 119 155 209 271 340 409 473
#     4  12  24  44  76 118 156 212 268 330 422 456
#
# _framework density 25.951467999999998
#
# number of rings (size 3 to 8) (size 9 to 14) (size 15 to 20)
#    0.000    0.571    2.857    4.286   12.000    0.000 
#    2.571    1.429    0.000    0.000    0.000    0.000 
#    0.000    0.000    0.000    0.000    0.000    0.000 
#
# Total GULP energy -78197.147953 kJ/mol
# GULP energy per Si atom -5585.510568 kJ/mol
# Density = 2.589240 g / cm^3
# Si number density = 25.951468 Si / 1000 Ang^3
#
#
#
# Elastic Constant Matrix: (Units=GPa)
#
#
# Indices 1 2 3 4 5 6 
#
# 1 113.1657 12.3208 44.4962 0.0000 0.0000 0.0000
# 2 12.3208 86.3291 36.5334 0.0000 0.0000 0.0000
# 3 44.4962 36.5334 235.1265 0.0000 0.0000 0.0000
# 4 0.0000 0.0000 0.0000 52.4246 0.0000 0.0000
# 5 0.0000 0.0000 0.0000 0.0000 24.4183 0.0000
# 6 0.0000 0.0000 0.0000 0.0000 0.0000 72.1756
#
#
#
# Elastic Compliance Matrix: (Units=1/GPa)
#
#
# Indices 1 2 3 4 5 6 
#
# 1 0.009580 -0.000642 -0.001713 0.000000 0.000000 0.000000
# 2 -0.000642 0.012442 -0.001812 0.000000 0.000000 0.000000
# 3 -0.001713 -0.001812 0.004859 0.000000 0.000000 0.000000
# 4 0.000000 0.000000 0.000000 0.019075 0.000000 0.000000
# 5 0.000000 0.000000 0.000000 0.000000 0.040953 0.000000
# 6 0.000000 0.000000 0.000000 0.000000 0.000000 0.013855
#
#
# Mechanical properties :
#
#
# Convention : Reuss Voigt Hill
#
# Bulk Modulus (GPa) = 53.91832 69.03578 61.47705
# Shear Modulus (GPa) = 43.37256 52.55508 47.96382
#
# Velocity S-wave (km/s) = 4.09258 4.50503 4.30375
# Velocity P-wave (km/s) = 6.56917 7.32939 6.95967
#
# Compressibility (1/GPa) = 0.01854657
#
# Stress axis : x y z
#
# Youngs Moduli (GPa) = 104.38257 80.37352 205.81519
#
# Poissons Ratio (x) = 0.05162 0.35260
# Poissons Ratio (y) = 0.06704 0.37286
# Poissons Ratio (z) = 0.17883 0.14561
#
# Static dielectric constant tensor:
#      x y z
#    x 1.631400 0.000000 0.000000 
#    y 0.000000 2.023750 0.000000 
#    z 0.000000 0.000000 1.629820 
# 
# From -- ./inp_files/5700.got.cif
#   From: 2010.05.17/outbox.cif.g08.bks.cpg/sg20_3_cif.got.tgz:5700.got - 2010.06.03 22:52:26.
