data_PCOD9321283
_publ_section_title
;
Structure prediction by ZEFSAII (Michael W. Deem and Ramdas Pophale) SiO2 
 PCOD9321283
Probable space group: C 2 2 21
;
_chemical_formula_sum "Si O2"
_cell_formula_units_Z 48
_cell_length_a 16.872615
_cell_length_b 8.114096
_cell_length_c 18.239084
_cell_angle_alpha 90.000000
_cell_angle_beta 90.000000
_cell_angle_gamma 90.000000
_cell_volume 2497.040360
_symmetry_space_group_name_H-M "C 2 2 21"
_symmetry_group_IT_number 20
_symmetry_cell_setting 'orthorhombic'
loop_
_space_group_symop_operation_xyz
x,y,z
-x,-y,1/2+z
x,-y,-z
-x,y,1/2-z
1/2+x,1/2+y,z
1/2-x,1/2-y,1/2+z
1/2+x,1/2-y,-z
1/2-x,1/2+y,1/2-z
loop_
_atom_site_type_symbol
_atom_site_label
_atom_site_fract_x
_atom_site_fract_y
_atom_site_fract_z
Si Si1 0.186067 0.500403 0.182810
Si Si2 0.248212 0.330177 0.038920
Si Si3 0.375428 0.374963 0.439234
Si Si4 0.521654 0.171531 0.171022
Si Si5 0.743439 0.863759 0.337695
Si Si6 0.620891 0.948134 0.576290
O O1 0.207355 0.384300 0.114896
O O2 0.092296 0.540235 0.185131
O O3 0.229073 0.676106 0.170047
O O4 0.219027 0.430480 0.258784
O O5 0.317678 0.200259 0.058038
O O6 0.276523 0.500000 0.000000
O O7 0.182687 0.247917 0.984960
O O8 0.406102 0.500000 0.500000
O O9 0.442643 0.288628 0.391806
O O10 0.317334 0.453918 0.377790
O O11 0.500000 0.248803 0.250000
O O12 0.442314 0.099086 0.136892
O O13 0.671390 0.899564 0.392213
O O14 0.581418 0.000000 0.500000
#
# Coordination Sequence:
#
# PCOD9321283 Si02
#       6
#     8   8   8   8   8   8
#     4  11  24  38  68  94 129 175 221 266 319 392
#     4  12  21  40  67 100 121 166 229 267 313 393
#     4  11  23  43  68  96 128 176 223 275 328 391
#     4  11  25  42  63  95 137 172 214 266 349 388
#     4  11  20  41  62  96 123 169 220 266 315 380
#     4  12  23  40  66  95 132 167 215 275 324 384
#
# _framework density 19.222757999999999
#
# number of rings (size 3 to 8) (size 9 to 14) (size 15 to 20)
#    0.000    0.667    8.333    1.000    4.667    0.667 
#    0.000    0.000    0.000    5.000    0.000    0.000 
#    0.000    0.000    0.000    0.000    0.000    0.000 
#
# Total GULP energy -133935.183369 kJ/mol
# GULP energy per Si atom -5580.632640 kJ/mol
# Density = 1.917901 g / cm^3
# Si number density = 19.222758 Si / 1000 Ang^3
#
#
#
# Elastic Constant Matrix: (Units=GPa)
#
#
# Indices 1 2 3 4 5 6 
#
# 1 81.3442 27.4938 33.2605 0.0000 0.0000 0.0000
# 2 27.4938 62.8371 33.3505 0.0000 0.0000 0.0000
# 3 33.2605 33.3505 150.4074 0.0000 0.0000 0.0000
# 4 0.0000 0.0000 0.0000 46.4833 0.0000 0.0000
# 5 0.0000 0.0000 0.0000 0.0000 40.6450 0.0000
# 6 0.0000 0.0000 0.0000 0.0000 0.0000 10.6060
#
#
#
# Elastic Compliance Matrix: (Units=1/GPa)
#
#
# Indices 1 2 3 4 5 6 
#
# 1 0.014995 -0.005441 -0.002109 0.000000 0.000000 0.000000
# 2 -0.005441 0.020011 -0.003234 0.000000 0.000000 0.000000
# 3 -0.002109 -0.003234 0.007832 0.000000 0.000000 0.000000
# 4 0.000000 0.000000 0.000000 0.021513 0.000000 0.000000
# 5 0.000000 0.000000 0.000000 0.000000 0.024603 0.000000
# 6 0.000000 0.000000 0.000000 0.000000 0.000000 0.094286
#
#
# Mechanical properties :
#
#
# Convention : Reuss Voigt Hill
#
# Bulk Modulus (GPa) = 47.01644 53.64426 50.33035
# Shear Modulus (GPa) = 23.59599 32.91247 28.25423
#
# Velocity S-wave (km/s) = 3.50737 4.14232 3.83800
# Velocity P-wave (km/s) = 6.39641 7.13061 6.77347
#
# Compressibility (1/GPa) = 0.02126916
#
# Stress axis : x y z
#
# Youngs Moduli (GPa) = 66.68837 49.97147 127.67893
#
# Poissons Ratio (x) = 0.27192 0.26933
# Poissons Ratio (y) = 0.36288 0.41290
# Poissons Ratio (z) = 0.14067 0.16160
#
# Static dielectric constant tensor:
#      x y z
#    x 1.661300 0.000000 0.000000 
#    y 0.000000 1.698420 0.000000 
#    z 0.000000 0.000000 1.698950 
# 
# From -- ./inp_files/24801.got.cif
#   From: 2010.05.17/outbox.cif.g08.bks.cpg/sg20_13_cif.got.tgz:24801.got - 2010.06.03 22:52:26.
