data_PCOD9321696
_publ_section_title
;
Structure prediction by ZEFSAII (Michael W. Deem and Ramdas Pophale) SiO2 
 PCOD9321696
Probable space group: C 2 2 21
;
_chemical_formula_sum "Si O2"
_cell_formula_units_Z 28
_cell_length_a 8.061360
_cell_length_b 32.233301
_cell_length_c 5.022037
_cell_angle_alpha 90.000000
_cell_angle_beta 90.000000
_cell_angle_gamma 90.000000
_cell_volume 1304.947404
_symmetry_space_group_name_H-M "C 2 2 21"
_symmetry_group_IT_number 20
_symmetry_cell_setting 'orthorhombic'
loop_
_space_group_symop_operation_xyz
x,y,z
-x,-y,1/2+z
x,-y,-z
-x,y,1/2-z
1/2+x,1/2+y,z
1/2-x,1/2-y,1/2+z
1/2+x,1/2-y,-z
1/2-x,1/2+y,1/2-z
loop_
_atom_site_type_symbol
_atom_site_label
_atom_site_fract_x
_atom_site_fract_y
_atom_site_fract_z
Si Si1 0.313155 0.582374 0.150307
Si Si2 0.615614 0.000000 0.000000
Si Si3 0.685766 0.227204 0.634723
Si Si4 0.190778 0.630737 0.656126
O O1 0.500000 0.576462 0.250000
O O2 0.227463 0.538929 0.081424
O O3 0.215289 0.605099 0.387263
O O4 0.301210 0.610993 0.889339
O O5 0.500000 0.988551 0.250000
O O6 0.500000 0.229439 0.750000
O O7 0.702217 0.249430 0.351855
O O8 0.732172 0.178911 0.610252
O O9 0.000000 0.628094 0.750000
#
# Coordination Sequence:
#
# PCOD9321696 Si02
#       4
#     8   4   8   8
#     4  12  26  43  67  99 130 164 212 270 318 370
#     4  12  26  46  70  94 128 174 212 254 318 390
#     4  11  24  41  65  95 130 170 216 266 317 377
#     4  11  24  44  66  93 130 174 216 257 317 389
#
# _framework density 21.456803000000001
#
# number of rings (size 3 to 8) (size 9 to 14) (size 15 to 20)
#    0.000    0.571    0.000    8.571    0.000   14.857 
#    0.000    0.000    0.000    0.000    0.000    0.000 
#    0.000    0.000    0.000    0.000    0.000    0.000 
#
# Total GULP energy -78499.658782 kJ/mol
# GULP energy per Si atom -5607.118484 kJ/mol
# Density = 2.140797 g / cm^3
# Si number density = 21.456803 Si / 1000 Ang^3
#
#
#
# Elastic Constant Matrix: (Units=GPa)
#
#
# Indices 1 2 3 4 5 6 
#
# 1 88.0875 73.0325 29.9217 0.0000 0.0000 0.0000
# 2 73.0325 211.6601 82.4096 0.0000 0.0000 0.0000
# 3 29.9217 82.4096 143.2417 0.0000 0.0000 0.0000
# 4 0.0000 0.0000 0.0000 81.3908 0.0000 0.0000
# 5 0.0000 0.0000 0.0000 0.0000 42.0779 0.0000
# 6 0.0000 0.0000 0.0000 0.0000 0.0000 42.2386
#
#
#
# Elastic Compliance Matrix: (Units=1/GPa)
#
#
# Indices 1 2 3 4 5 6 
#
# 1 0.015906 -0.005406 -0.000213 0.000000 0.000000 0.000000
# 2 -0.005406 0.007925 -0.003430 0.000000 0.000000 0.000000
# 3 -0.000213 -0.003430 0.008999 0.000000 0.000000 0.000000
# 4 0.000000 0.000000 0.000000 0.012286 0.000000 0.000000
# 5 0.000000 0.000000 0.000000 0.000000 0.023765 0.000000
# 6 0.000000 0.000000 0.000000 0.000000 0.000000 0.023675
#
#
# Mechanical properties :
#
#
# Convention : Reuss Voigt Hill
#
# Bulk Modulus (GPa) = 67.87288 90.41299 79.14293
# Shear Modulus (GPa) = 43.26512 50.31648 46.79080
#
# Velocity S-wave (km/s) = 4.49529 4.84779 4.67486
# Velocity P-wave (km/s) = 7.65797 8.57691 8.13043
#
# Compressibility (1/GPa) = 0.01473343
#
# Stress axis : x y z
#
# Youngs Moduli (GPa) = 62.86798 126.17687 111.12045
#
# Poissons Ratio (x) = 0.68206 0.02364
# Poissons Ratio (y) = 0.33984 0.38119
# Poissons Ratio (z) = 0.01337 0.43284
#
# Static dielectric constant tensor:
#      x y z
#    x 1.775540 0.000000 0.000000 
#    y 0.000000 1.733220 0.000000 
#    z 0.000000 0.000000 1.746100 
# 
# From -- ./inp_files/523.got.cif
#   From: 2010.05.17/outbox.cif.g08.bks.cpg/sg20_1_cif.got.tgz:523.got - 2010.06.03 22:52:26.
