data_PCOD9321182
_publ_section_title
;
Structure prediction by ZEFSAII (Michael W. Deem and Ramdas Pophale) SiO2 
 PCOD9321182
Probable space group: C 2 2 21
;
_chemical_formula_sum "Si O2"
_cell_formula_units_Z 40
_cell_length_a 17.288384
_cell_length_b 17.163765
_cell_length_c 6.019173
_cell_angle_alpha 90.000000
_cell_angle_beta 90.000000
_cell_angle_gamma 90.000000
_cell_volume 1786.091838
_symmetry_space_group_name_H-M "C 2 2 21"
_symmetry_group_IT_number 20
_symmetry_cell_setting 'orthorhombic'
loop_
_space_group_symop_operation_xyz
x,y,z
-x,-y,1/2+z
x,-y,-z
-x,y,1/2-z
1/2+x,1/2+y,z
1/2-x,1/2-y,1/2+z
1/2+x,1/2-y,-z
1/2-x,1/2+y,1/2-z
loop_
_atom_site_type_symbol
_atom_site_label
_atom_site_fract_x
_atom_site_fract_y
_atom_site_fract_z
Si Si1 0.558817 0.182325 0.432424
Si Si2 0.864036 0.795378 0.740273
Si Si3 0.307389 0.832603 0.604404
Si Si4 0.500000 0.947483 0.250000
Si Si5 0.860653 0.500000 0.500000
Si Si6 0.590631 0.526948 0.246209
O O1 0.500000 0.213151 0.250000
O O2 0.577993 0.247146 0.609170
O O3 0.641084 0.160926 0.325430
O O4 0.516598 0.109690 0.545701
O O5 0.780470 0.809962 0.852591
O O6 0.845788 0.737507 0.535676
O O7 0.899125 0.880661 0.717504
O O8 0.314482 0.918982 0.498287
O O9 0.578209 0.993849 0.202660
O O10 0.619595 0.500000 0.500000
O O11 0.500000 0.503930 0.250000
O O12 0.623265 0.500000 0.000000
#
# Coordination Sequence:
#
# PCOD9321182 Si02
#       6
#     8   8   8   4   4   8
#     4  12  24  46  76 109 144 200 242 307 374 451
#     4  12  27  48  74 107 151 198 252 309 382 460
#     4  12  27  47  71 106 151 197 245 309 375 463
#     4  12  24  46  70 114 146 184 250 304 374 456
#     4  12  24  44  72 106 150 188 238 302 382 446
#     4  10  26  49  76 112 146 195 259 324 383 451
#
# _framework density 22.395265999999999
#
# number of rings (size 3 to 8) (size 9 to 14) (size 15 to 20)
#    0.000    0.400    6.000    1.200    8.400    0.800 
#    3.600    0.000    0.000    0.000    0.000    0.000 
#    0.000    0.000    0.000    0.000    0.000    0.000 
#
# Total GULP energy -111645.451601 kJ/mol
# GULP energy per Si atom -5582.272580 kJ/mol
# Density = 2.234429 g / cm^3
# Si number density = 22.395266 Si / 1000 Ang^3
#
#
#
# Elastic Constant Matrix: (Units=GPa)
#
#
# Indices 1 2 3 4 5 6 
#
# 1 71.4716 1.5209 16.2297 0.0000 0.0000 0.0000
# 2 1.5209 126.8306 42.1371 0.0000 0.0000 0.0000
# 3 16.2297 42.1371 99.3605 0.0000 0.0000 0.0000
# 4 0.0000 0.0000 0.0000 2.8094 0.0000 0.0000
# 5 0.0000 0.0000 0.0000 0.0000 30.8217 0.0000
# 6 0.0000 0.0000 0.0000 0.0000 0.0000 73.4879
#
#
#
# Elastic Compliance Matrix: (Units=1/GPa)
#
#
# Indices 1 2 3 4 5 6 
#
# 1 0.014586 0.000718 -0.002687 0.000000 0.000000 0.000000
# 2 0.000718 0.009213 -0.004024 0.000000 0.000000 0.000000
# 3 -0.002687 -0.004024 0.012210 0.000000 0.000000 0.000000
# 4 0.000000 0.000000 0.000000 0.355944 0.000000 0.000000
# 5 0.000000 0.000000 0.000000 0.000000 0.032445 0.000000
# 6 0.000000 0.000000 0.000000 0.000000 0.000000 0.013608
#
#
# Mechanical properties :
#
#
# Convention : Reuss Voigt Hill
#
# Bulk Modulus (GPa) = 41.62797 46.38200 44.00498
# Shear Modulus (GPa) = 10.91703 37.27547 24.09625
#
# Velocity S-wave (km/s) = 2.21027 4.08418 3.28373
# Velocity P-wave (km/s) = 5.01417 6.55715 5.83687
#
# Compressibility (1/GPa) = 0.02402231
#
# Stress axis : x y z
#
# Youngs Moduli (GPa) = 68.55675 108.54330 81.90086
#
# Poissons Ratio (x) = -0.07791 0.22007
# Poissons Ratio (y) = -0.04921 0.32959
# Poissons Ratio (z) = 0.18421 0.43681
#
# Static dielectric constant tensor:
#      x y z
#    x 1.791730 0.000000 0.000000 
#    y 0.000000 1.877010 0.000000 
#    z 0.000000 0.000000 1.933570 
# 
# From -- ./inp_files/2528.got.cif
#   From: 2010.05.17/outbox.cif.g08.bks.cpg/sg20_2_cif.got.tgz:2528.got - 2010.06.03 22:52:26.
