data_PCOD9321607
_publ_section_title
;
Structure prediction by ZEFSAII (Michael W. Deem and Ramdas Pophale) SiO2 
 PCOD9321607
Probable space group: C 2 2 21
;
_chemical_formula_sum "Si O2"
_cell_formula_units_Z 40
_cell_length_a 17.986966
_cell_length_b 5.134308
_cell_length_c 18.173950
_cell_angle_alpha 90.000000
_cell_angle_beta 90.000000
_cell_angle_gamma 90.000000
_cell_volume 1678.375613
_symmetry_space_group_name_H-M "C 2 2 21"
_symmetry_group_IT_number 20
_symmetry_cell_setting 'orthorhombic'
loop_
_space_group_symop_operation_xyz
x,y,z
-x,-y,1/2+z
x,-y,-z
-x,y,1/2-z
1/2+x,1/2+y,z
1/2-x,1/2-y,1/2+z
1/2+x,1/2-y,-z
1/2-x,1/2+y,1/2-z
loop_
_atom_site_type_symbol
_atom_site_label
_atom_site_fract_x
_atom_site_fract_y
_atom_site_fract_z
Si Si1 0.257652 0.966208 0.341264
Si Si2 0.916228 0.080139 0.823873
Si Si3 0.809028 0.033349 0.578608
Si Si4 0.403056 0.927990 0.272439
Si Si5 0.962043 0.348583 0.578235
O O1 0.171004 0.912718 0.343082
O O2 0.299594 0.751546 0.390034
O O3 0.312104 0.933517 0.271448
O O4 0.269687 0.254449 0.371395
O O5 0.924585 0.300059 0.762737
O O6 0.969290 0.172938 0.890868
O O7 0.926957 0.807276 0.780701
O O8 0.891646 0.153212 0.570400
O O9 0.772399 0.000000 0.500000
O O10 0.438384 0.952754 0.354845
O O11 0.974011 0.500000 0.500000
#
# Coordination Sequence:
#
# PCOD9321607 Si02
#       5
#     8   8   8   8   8
#     4  11  23  43  73 105 139 186 244 302 360 433
#     4  12  26  46  73 109 147 186 242 311 368 425
#     4  11  23  44  70  99 141 194 240 287 363 449
#     4  11  24  45  72 105 144 194 239 293 369 448
#     4  11  27  48  75 108 149 196 249 305 369 443
#
# _framework density 23.832567999999998
#
# number of rings (size 3 to 8) (size 9 to 14) (size 15 to 20)
#    0.000    0.800    0.000    8.400    0.000   10.400 
#    0.000    4.000    0.000    2.400    0.000    0.000 
#    0.000    0.000    0.000    0.000    0.000    0.000 
#
# Total GULP energy -111687.605431 kJ/mol
# GULP energy per Si atom -5584.380272 kJ/mol
# Density = 2.377832 g / cm^3
# Si number density = 23.832568 Si / 1000 Ang^3
#
#
#
# Elastic Constant Matrix: (Units=GPa)
#
#
# Indices 1 2 3 4 5 6 
#
# 1 301.2568 223.6661 109.5347 0.0000 0.0000 0.0000
# 2 223.6661 477.0096 156.7104 0.0000 0.0000 0.0000
# 3 109.5347 156.7104 159.7763 0.0000 0.0000 0.0000
# 4 0.0000 0.0000 0.0000 31.7998 0.0000 0.0000
# 5 0.0000 0.0000 0.0000 0.0000 33.2764 0.0000
# 6 0.0000 0.0000 0.0000 0.0000 0.0000 -303.0968
#
#
#
# Elastic Compliance Matrix: (Units=1/GPa)
#
#
# Indices 1 2 3 4 5 6 
#
# 1 0.005424 -0.001950 -0.001806 0.000000 0.000000 0.000000
# 2 -0.001950 0.003794 -0.002385 0.000000 0.000000 0.000000
# 3 -0.001806 -0.002385 0.009835 0.000000 0.000000 0.000000
# 4 0.000000 0.000000 0.000000 0.031447 0.000000 0.000000
# 5 0.000000 0.000000 0.000000 0.000000 0.030051 0.000000
# 6 0.000000 0.000000 0.000000 0.000000 0.000000 -0.003299
#
#
# Mechanical properties :
#
#
# Convention : Reuss Voigt Hill
#
# Bulk Modulus (GPa) = 147.64729 213.09614 180.37171
# Shear Modulus (GPa) = 54.47236 -17.72866 18.37185
#
# Velocity S-wave (km/s) = 4.78601 -2.73038 2.77947
# Velocity P-wave (km/s) = 9.62432 8.92569 9.28158
#
# Compressibility (1/GPa) = 0.00677290
#
# Stress axis : x y z
#
# Youngs Moduli (GPa) = 184.37774 263.57048 101.67344
#
# Poissons Ratio (x) = 0.51393 0.18359
# Poissons Ratio (y) = 0.35951 0.24244
# Poissons Ratio (z) = 0.33293 0.62849
#
# Static dielectric constant tensor:
#      x y z
#    x 1.936760 0.000000 0.000000 
#    y 0.000000 1.784070 0.000000 
#    z 0.000000 0.000000 2.574560 
# 
# From -- ./inp_files/25092.got.cif
#   From: 2010.05.17/outbox.cif.g08.bks.cpg/sg20_13_cif.got.tgz:25092.got - 2010.06.03 22:52:26.
