data_PCOD9321288
_publ_section_title
;
Structure prediction by ZEFSAII (Michael W. Deem and Ramdas Pophale) SiO2 
 PCOD9321288
Probable space group: C 2 2 21
;
_chemical_formula_sum "Si O2"
_cell_formula_units_Z 48
_cell_length_a 14.884575
_cell_length_b 15.786505
_cell_length_c 9.583680
_cell_angle_alpha 90.000000
_cell_angle_beta 90.000000
_cell_angle_gamma 90.000000
_cell_volume 2251.929211
_symmetry_space_group_name_H-M "C 2 2 21"
_symmetry_group_IT_number 20
_symmetry_cell_setting 'orthorhombic'
loop_
_space_group_symop_operation_xyz
x,y,z
-x,-y,1/2+z
x,-y,-z
-x,y,1/2-z
1/2+x,1/2+y,z
1/2-x,1/2-y,1/2+z
1/2+x,1/2-y,-z
1/2-x,1/2+y,1/2-z
loop_
_atom_site_type_symbol
_atom_site_label
_atom_site_fract_x
_atom_site_fract_y
_atom_site_fract_z
Si Si1 0.141521 0.251061 0.999913
Si Si2 0.601436 0.102867 0.779565
Si Si3 0.216443 0.027486 0.660386
Si Si4 0.150563 0.259511 0.440439
Si Si5 0.594204 0.310953 0.289693
Si Si6 0.398023 0.615368 0.284312
O O1 0.105493 0.328642 0.093085
O O2 0.106718 0.163941 0.069216
O O3 0.249699 0.247216 0.002603
O O4 0.118695 0.250508 0.837363
O O5 0.500000 0.074151 0.750000
O O6 0.677303 0.034417 0.813965
O O7 0.633665 0.154485 0.642595
O O8 0.170029 0.118285 0.687024
O O9 0.199418 0.000000 0.500000
O O10 0.168829 0.962084 0.763919
O O11 0.085065 0.242254 0.569054
O O12 0.133153 0.185674 0.328342
O O13 0.500000 0.353377 0.250000
O O14 0.500000 0.590525 0.250000
#
# Coordination Sequence:
#
# PCOD9321288 Si02
#       6
#     8   8   8   8   8   8
#     4  11  21  39  67  97 127 164 213 270 327 391
#     4  11  23  44  68  92 126 174 221 267 326 386
#     4  12  24  42  64  93 136 176 211 266 329 393
#     4  11  20  42  66  96 129 164 213 269 324 386
#     4  12  22  37  64 100 129 160 212 269 327 389
#     4  11  23  41  64  93 132 174 211 260 331 391
#
# _framework density 21.315055999999998
#
# number of rings (size 3 to 8) (size 9 to 14) (size 15 to 20)
#    0.000    0.667    5.000    5.500    0.000    0.667 
#    0.000    1.667    0.000    2.000    0.000    0.000 
#    0.000    0.000    0.000    0.000    0.000    0.000 
#
# Total GULP energy -134229.987369 kJ/mol
# GULP energy per Si atom -5592.916140 kJ/mol
# Density = 2.126654 g / cm^3
# Si number density = 21.315056 Si / 1000 Ang^3
#
#
#
# Elastic Constant Matrix: (Units=GPa)
#
#
# Indices 1 2 3 4 5 6 
#
# 1 127.5361 7.9728 -7.7322 0.0000 0.0000 0.0000
# 2 7.9728 29.5102 3.9704 0.0000 0.0000 0.0000
# 3 -7.7322 3.9704 92.2768 0.0000 0.0000 0.0000
# 4 0.0000 0.0000 0.0000 11.1328 0.0000 0.0000
# 5 0.0000 0.0000 0.0000 0.0000 35.5364 0.0000
# 6 0.0000 0.0000 0.0000 0.0000 0.0000 19.1669
#
#
#
# Elastic Compliance Matrix: (Units=1/GPa)
#
#
# Indices 1 2 3 4 5 6 
#
# 1 0.008030 -0.002273 0.000771 0.000000 0.000000 0.000000
# 2 -0.002273 0.034727 -0.001685 0.000000 0.000000 0.000000
# 3 0.000771 -0.001685 0.010974 0.000000 0.000000 0.000000
# 4 0.000000 0.000000 0.000000 0.089825 0.000000 0.000000
# 5 0.000000 0.000000 0.000000 0.000000 0.028140 0.000000
# 6 0.000000 0.000000 0.000000 0.000000 0.000000 0.052173
#
#
# Mechanical properties :
#
#
# Convention : Reuss Voigt Hill
#
# Bulk Modulus (GPa) = 21.11627 28.63834 24.87730
# Shear Modulus (GPa) = 20.32279 29.50803 24.91541
#
# Velocity S-wave (km/s) = 3.09114 3.72476 3.42264
# Velocity P-wave (km/s) = 4.76114 5.65361 5.22646
#
# Compressibility (1/GPa) = 0.04735686
#
# Stress axis : x y z
#
# Youngs Moduli (GPa) = 124.53701 28.79574 91.12428
#
# Poissons Ratio (x) = 0.06546 -0.07022
# Poissons Ratio (y) = 0.28308 0.15352
# Poissons Ratio (z) = -0.09597 0.04851
#
# Static dielectric constant tensor:
#      x y z
#    x 1.810050 0.000000 0.000000 
#    y 0.000000 1.764690 0.000000 
#    z 0.000000 0.000000 1.769210 
# 
# From -- ./inp_files/8416.got.cif
#   From: 2010.05.17/outbox.cif.g08.bks.cpg/sg20_5_cif.got.tgz:8416.got - 2010.06.03 22:52:26.
