data_PCOD9321676
_publ_section_title
;
Structure prediction by ZEFSAII (Michael W. Deem and Ramdas Pophale) SiO2 
 PCOD9321676
Probable space group: C 2 2 21
;
_chemical_formula_sum "Si O2"
_cell_formula_units_Z 48
_cell_length_a 8.301333
_cell_length_b 27.295446
_cell_length_c 9.086842
_cell_angle_alpha 90.000000
_cell_angle_beta 90.000000
_cell_angle_gamma 90.000000
_cell_volume 2058.974686
_symmetry_space_group_name_H-M "C 2 2 21"
_symmetry_group_IT_number 20
_symmetry_cell_setting 'orthorhombic'
loop_
_space_group_symop_operation_xyz
x,y,z
-x,-y,1/2+z
x,-y,-z
-x,y,1/2-z
1/2+x,1/2+y,z
1/2-x,1/2-y,1/2+z
1/2+x,1/2-y,-z
1/2-x,1/2+y,1/2-z
loop_
_atom_site_type_symbol
_atom_site_label
_atom_site_fract_x
_atom_site_fract_y
_atom_site_fract_z
Si Si1 0.529966 0.873072 0.086421
Si Si2 0.249718 0.195217 0.453045
Si Si3 0.000000 0.136522 0.250000
Si Si4 0.000000 0.964741 0.250000
Si Si5 0.170688 0.107809 0.970555
Si Si6 0.330905 0.709248 0.707642
Si Si7 0.342527 0.973940 0.349238
O O1 0.500000 0.850144 0.250000
O O2 0.362489 0.899541 0.043912
O O3 0.661738 0.915294 0.117575
O O4 0.585045 0.836497 0.957760
O O5 0.114543 0.167455 0.359477
O O6 0.245111 0.249859 0.389313
O O7 0.228929 0.196798 0.629404
O O8 0.884767 0.108236 0.361689
O O9 0.938077 0.930693 0.383544
O O10 0.832876 0.990901 0.207331
O O11 0.146910 0.160647 0.890090
O O12 0.500000 0.733279 0.750000
O O13 0.500000 0.982033 0.250000
O O14 0.374525 0.000000 0.500000
#
# Coordination Sequence:
#
# PCOD9321676 Si02
#       7
#     8   8   4   4   8   8   8
#     4  11  23  48  77  99 138 195 241 298 372 441
#     4  12  27  43  65 100 139 192 249 304 370 430
#     4  12  26  42  63 100 140 184 258 302 357 430
#     4  12  22  50  81 108 148 196 246 288 381 434
#     4  12  23  45  73 102 142 195 242 300 359 430
#     4  12  25  40  64  94 141 187 245 306 360 427
#     4  11  25  50  79 113 147 189 239 301 374 453
#
# _framework density 23.312571999999999
#
# number of rings (size 3 to 8) (size 9 to 14) (size 15 to 20)
#    0.000    0.333    7.500    2.000    4.667    0.667 
#    7.500    0.833    0.000    0.000    0.000    0.000 
#    0.000    0.000    0.000    0.000    0.000    0.000 
#
# Total GULP energy -134045.938107 kJ/mol
# GULP energy per Si atom -5585.247421 kJ/mol
# Density = 2.325951 g / cm^3
# Si number density = 23.312572 Si / 1000 Ang^3
#
#
#
# Elastic Constant Matrix: (Units=GPa)
#
#
# Indices 1 2 3 4 5 6 
#
# 1 126.5966 9.1883 43.5065 0.0000 0.0000 0.0000
# 2 9.1883 34.3650 40.8460 0.0000 0.0000 0.0000
# 3 43.5065 40.8460 151.4426 0.0000 0.0000 0.0000
# 4 0.0000 0.0000 0.0000 116.5163 0.0000 0.0000
# 5 0.0000 0.0000 0.0000 0.0000 32.2737 0.0000
# 6 0.0000 0.0000 0.0000 0.0000 0.0000 -1.4549
#
#
#
# Elastic Compliance Matrix: (Units=1/GPa)
#
#
# Indices 1 2 3 4 5 6 
#
# 1 0.008786 0.000958 -0.002782 0.000000 0.000000 0.000000
# 2 0.000958 0.042934 -0.011855 0.000000 0.000000 0.000000
# 3 -0.002782 -0.011855 0.010600 0.000000 0.000000 0.000000
# 4 0.000000 0.000000 0.000000 0.008582 0.000000 0.000000
# 5 0.000000 0.000000 0.000000 0.000000 0.030985 0.000000
# 6 0.000000 0.000000 0.000000 0.000000 0.000000 -0.687326
#
#
# Mechanical properties :
#
#
# Convention : Reuss Voigt Hill
#
# Bulk Modulus (GPa) = 28.60333 55.49841 42.05087
# Shear Modulus (GPa) = -9.15037 44.05791 17.45377
#
# Velocity S-wave (km/s) = -1.98333 4.35199 2.73918
# Velocity P-wave (km/s) = 2.65543 7.00792 5.29916
#
# Compressibility (1/GPa) = 0.03496096
#
# Stress axis : x y z
#
# Youngs Moduli (GPa) = 113.82041 23.29147 94.33999
#
# Poissons Ratio (x) = -0.02231 0.26249
# Poissons Ratio (y) = -0.10904 1.11841
# Poissons Ratio (z) = 0.31669 0.27612
#
# Static dielectric constant tensor:
#      x y z
#    x 1.908980 0.000000 0.000000 
#    y 0.000000 1.886650 0.000000 
#    z 0.000000 0.000000 1.935090 
# 
# From -- ./inp_files/6579.got.cif
#   From: 2010.05.17/outbox.cif.g08.bks.cpg/sg20_4_cif.got.tgz:6579.got - 2010.06.03 22:52:26.
