data_PCOD9321154
_publ_section_title
;
Structure prediction by ZEFSAII (Michael W. Deem and Ramdas Pophale) SiO2 
 PCOD9321154
Probable space group: C 2 2 21
;
_chemical_formula_sum "Si O2"
_cell_formula_units_Z 28
_cell_length_a 9.655183
_cell_length_b 7.546420
_cell_length_c 16.100695
_cell_angle_alpha 90.000000
_cell_angle_beta 90.000000
_cell_angle_gamma 90.000000
_cell_volume 1173.129903
_symmetry_space_group_name_H-M "C 2 2 21"
_symmetry_group_IT_number 20
_symmetry_cell_setting 'orthorhombic'
loop_
_space_group_symop_operation_xyz
x,y,z
-x,-y,1/2+z
x,-y,-z
-x,y,1/2-z
1/2+x,1/2+y,z
1/2-x,1/2-y,1/2+z
1/2+x,1/2-y,-z
1/2-x,1/2+y,1/2-z
loop_
_atom_site_type_symbol
_atom_site_label
_atom_site_fract_x
_atom_site_fract_y
_atom_site_fract_z
Si Si1 0.874714 0.072080 0.162039
Si Si2 0.783249 0.500000 0.500000
Si Si3 0.646660 0.365410 0.923356
Si Si4 0.358267 0.163300 0.209747
O O1 0.762056 0.159231 0.221537
O O2 0.031152 0.131750 0.148855
O O3 0.884568 0.866652 0.186755
O O4 0.810700 0.085036 0.070688
O O5 0.859268 0.334234 0.458584
O O6 0.790841 0.411892 0.875427
O O7 0.623789 0.500000 0.000000
O O8 0.500000 0.087213 0.250000
#
# Coordination Sequence:
#
# PCOD9321154 Si02
#       4
#     8   4   8   8
#     4  11  25  49  73 109 151 198 252 313 377 445
#     4  10  26  44  74 116 142 194 254 308 382 446
#     4  11  25  51  77 108 154 197 250 319 375 447
#     4  11  26  46  73 108 152 199 252 311 378 449
#
# _framework density 23.867774000000001
#
# number of rings (size 3 to 8) (size 9 to 14) (size 15 to 20)
#    0.000    1.143    1.429    2.571    8.000    4.571 
#    5.143    0.000    0.000    0.000    0.000    0.000 
#    0.000    0.000    0.000    0.000    0.000    0.000 
#
# Total GULP energy -78267.622058 kJ/mol
# GULP energy per Si atom -5590.544433 kJ/mol
# Density = 2.381345 g / cm^3
# Si number density = 23.867774 Si / 1000 Ang^3
#
#
#
# Elastic Constant Matrix: (Units=GPa)
#
#
# Indices 1 2 3 4 5 6 
#
# 1 158.3872 40.9933 76.4339 0.0000 0.0000 0.0000
# 2 40.9933 37.6105 8.5450 0.0000 0.0000 0.0000
# 3 76.4339 8.5450 125.2318 0.0000 0.0000 0.0000
# 4 0.0000 0.0000 0.0000 53.0630 0.0000 0.0000
# 5 0.0000 0.0000 0.0000 0.0000 40.3439 0.0000
# 6 0.0000 0.0000 0.0000 0.0000 0.0000 139.8228
#
#
#
# Elastic Compliance Matrix: (Units=1/GPa)
#
#
# Indices 1 2 3 4 5 6 
#
# 1 0.012959 -0.012522 -0.007055 0.000000 0.000000 0.000000
# 2 -0.012522 0.039106 0.004974 0.000000 0.000000 0.000000
# 3 -0.007055 0.004974 0.011952 0.000000 0.000000 0.000000
# 4 0.000000 0.000000 0.000000 0.018846 0.000000 0.000000
# 5 0.000000 0.000000 0.000000 0.000000 0.024787 0.000000
# 6 0.000000 0.000000 0.000000 0.000000 0.000000 0.007152
#
#
# Mechanical properties :
#
#
# Convention : Reuss Voigt Hill
#
# Bulk Modulus (GPa) = 28.72591 63.68599 46.20595
# Shear Modulus (GPa) = 32.13150 59.66310 45.89730
#
# Velocity S-wave (km/s) = 3.67308 5.00516 4.38994
# Velocity P-wave (km/s) = 5.48181 7.75519 6.71540
#
# Compressibility (1/GPa) = 0.03481178
#
# Stress axis : x y z
#
# Youngs Moduli (GPa) = 77.16594 25.57140 83.66971
#
# Poissons Ratio (x) = 0.32020 0.59029
# Poissons Ratio (y) = 0.96625 -0.41619
# Poissons Ratio (z) = 0.54441 -0.12720
#
# Static dielectric constant tensor:
#      x y z
#    x 2.032500 0.000000 0.000000 
#    y 0.000000 1.895830 0.000000 
#    z 0.000000 0.000000 1.636870 
# 
# From -- ./inp_files/23059.got.cif
#   From: 2010.05.17/outbox.cif.g08.bks.cpg/sg20_12_cif.got.tgz:23059.got - 2010.06.03 22:52:26.
