data_PCOD9321215
_publ_section_title
;
Structure prediction by ZEFSAII (Michael W. Deem and Ramdas Pophale) SiO2 
 PCOD9321215
Probable space group: C 2 2 21
;
_chemical_formula_sum "Si O2"
_cell_formula_units_Z 32
_cell_length_a 5.491537
_cell_length_b 20.460477
_cell_length_c 11.964673
_cell_angle_alpha 90.000000
_cell_angle_beta 90.000000
_cell_angle_gamma 90.000000
_cell_volume 1344.344275
_symmetry_space_group_name_H-M "C 2 2 21"
_symmetry_group_IT_number 20
_symmetry_cell_setting 'orthorhombic'
loop_
_space_group_symop_operation_xyz
x,y,z
-x,-y,1/2+z
x,-y,-z
-x,y,1/2-z
1/2+x,1/2+y,z
1/2-x,1/2-y,1/2+z
1/2+x,1/2-y,-z
1/2-x,1/2+y,1/2-z
loop_
_atom_site_type_symbol
_atom_site_label
_atom_site_fract_x
_atom_site_fract_y
_atom_site_fract_z
Si Si1 0.634494 0.604867 0.857981
Si Si2 0.500000 0.793309 0.250000
Si Si3 0.062764 0.500000 0.500000
Si Si4 0.915329 0.821084 0.583209
Si Si5 0.903236 0.387480 0.634993
O O1 0.500000 0.574940 0.750000
O O2 0.795874 0.658652 0.794711
O O3 0.769698 0.544586 0.919415
O O4 0.524620 0.651061 0.958065
O O5 0.576318 0.750297 0.140977
O O6 0.886180 0.447496 0.553805
O O7 0.147356 0.852484 0.647405
O O8 0.633059 0.842682 0.598031
O O9 0.000000 0.415871 0.750000
#
# Coordination Sequence:
#
# PCOD9321215 Si02
#       5
#     8   4   4   8   8
#     4  11  30  49  80 117 158 218 262 341 399 479
#     4  12  28  50  78 120 156 210 270 336 398 498
#     4  10  28  48  74 114 156 204 278 316 404 474
#     4  11  27  49  78 114 157 202 263 324 405 467
#     4  11  23  47  77 110 149 210 255 327 388 470
#
# _framework density 23.803425000000001
#
# number of rings (size 3 to 8) (size 9 to 14) (size 15 to 20)
#    0.000    1.000    2.500    0.000   15.750    8.000 
#    0.000    0.000    0.000    0.000    0.000    0.000 
#    0.000    0.000    0.000    0.000    0.000    0.000 
#
# Total GULP energy -89116.443803 kJ/mol
# GULP energy per Si atom -5569.777738 kJ/mol
# Density = 2.374925 g / cm^3
# Si number density = 23.803425 Si / 1000 Ang^3
#
#
#
# Elastic Constant Matrix: (Units=GPa)
#
#
# Indices 1 2 3 4 5 6 
#
# 1 102.6068 43.8208 32.5861 0.0000 0.0000 0.0000
# 2 43.8208 114.7961 21.2350 0.0000 0.0000 0.0000
# 3 32.5861 21.2350 86.3133 0.0000 0.0000 0.0000
# 4 0.0000 0.0000 0.0000 72.8004 0.0000 0.0000
# 5 0.0000 0.0000 0.0000 0.0000 31.9472 0.0000
# 6 0.0000 0.0000 0.0000 0.0000 0.0000 26.7233
#
#
#
# Elastic Compliance Matrix: (Units=1/GPa)
#
#
# Indices 1 2 3 4 5 6 
#
# 1 0.012722 -0.004157 -0.003780 0.000000 0.000000 0.000000
# 2 -0.004157 0.010485 -0.001010 0.000000 0.000000 0.000000
# 3 -0.003780 -0.001010 0.013261 0.000000 0.000000 0.000000
# 4 0.000000 0.000000 0.000000 0.013736 0.000000 0.000000
# 5 0.000000 0.000000 0.000000 0.000000 0.031302 0.000000
# 6 0.000000 0.000000 0.000000 0.000000 0.000000 0.037421
#
#
# Mechanical properties :
#
#
# Convention : Reuss Voigt Hill
#
# Bulk Modulus (GPa) = 53.84043 55.44443 54.64243
# Shear Modulus (GPa) = 34.96210 40.03247 37.49728
#
# Velocity S-wave (km/s) = 3.83663 4.10542 3.97330
# Velocity P-wave (km/s) = 6.50340 6.76874 6.63739
#
# Compressibility (1/GPa) = 0.01857340
#
# Stress axis : x y z
#
# Youngs Moduli (GPa) = 78.60518 95.37636 75.40711
#
# Poissons Ratio (x) = 0.39648 0.28505
# Poissons Ratio (y) = 0.32676 0.07617
# Poissons Ratio (z) = 0.29714 0.09634
#
# Static dielectric constant tensor:
#      x y z
#    x 2.044400 0.000000 0.000000 
#    y 0.000000 1.875550 0.000000 
#    z 0.000000 0.000000 2.000170 
# 
# From -- ./inp_files/11944.got.cif
#   From: 2010.05.17/outbox.cif.g08.bks.cpg/sg20_6_cif.got.tgz:11944.got - 2010.06.03 22:52:26.
