data_PCOD9321584
_publ_section_title
;
Structure prediction by ZEFSAII (Michael W. Deem and Ramdas Pophale) SiO2 
 PCOD9321584
Probable space group: C 2 2 21
;
_chemical_formula_sum "Si O2"
_cell_formula_units_Z 48
_cell_length_a 16.372209
_cell_length_b 12.748513
_cell_length_c 9.562425
_cell_angle_alpha 90.000000
_cell_angle_beta 90.000000
_cell_angle_gamma 90.000000
_cell_volume 1995.881961
_symmetry_space_group_name_H-M "C 2 2 21"
_symmetry_group_IT_number 20
_symmetry_cell_setting 'orthorhombic'
loop_
_space_group_symop_operation_xyz
x,y,z
-x,-y,1/2+z
x,-y,-z
-x,y,1/2-z
1/2+x,1/2+y,z
1/2-x,1/2-y,1/2+z
1/2+x,1/2-y,-z
1/2-x,1/2+y,1/2-z
loop_
_atom_site_type_symbol
_atom_site_label
_atom_site_fract_x
_atom_site_fract_y
_atom_site_fract_z
Si Si1 0.848969 0.583986 0.875780
Si Si2 0.340372 0.599358 0.693543
Si Si3 0.903671 0.123398 0.257319
Si Si4 0.653381 0.229300 0.979046
Si Si5 0.847104 0.204669 0.981017
Si Si6 0.059828 0.449305 0.860524
O O1 0.758358 0.606125 0.814319
O O2 0.899225 0.534361 0.745155
O O3 0.836661 0.500000 0.000000
O O4 0.883390 0.685840 0.959402
O O5 0.365474 0.479654 0.674129
O O6 0.373612 0.672712 0.572548
O O7 0.372322 0.652567 0.836148
O O8 0.881542 0.234114 0.330484
O O9 0.000000 0.113586 0.250000
O O10 0.864814 0.124323 0.104109
O O11 0.623385 0.127803 0.063667
O O12 0.750585 0.225531 0.968126
O O13 0.000000 0.392893 0.750000
O O14 0.018820 0.500000 0.000000
#
# Coordination Sequence:
#
# PCOD9321584 Si02
#       6
#     8   8   8   8   8   8
#     4  11  23  43  70 101 135 175 234 298 351 422
#     4  11  23  42  69  98 131 176 227 280 343 417
#     4  12  27  44  66 100 142 180 224 290 360 426
#     4  11  24  45  69  96 131 179 236 286 341 419
#     4  11  23  43  71  98 130 178 231 283 346 417
#     4  12  26  43  66  97 136 180 230 293 364 429
#
# _framework density 24.049516000000001
#
# number of rings (size 3 to 8) (size 9 to 14) (size 15 to 20)
#    0.000    0.667    0.000    9.500    0.000    8.667 
#    0.000    0.000    0.000    0.000    0.000    0.000 
#    0.000    0.000    0.000    0.000    0.000    0.000 
#
# Total GULP energy -134205.488459 kJ/mol
# GULP energy per Si atom -5591.895352 kJ/mol
# Density = 2.399478 g / cm^3
# Si number density = 24.049516 Si / 1000 Ang^3
#
#
#
# Elastic Constant Matrix: (Units=GPa)
#
#
# Indices 1 2 3 4 5 6 
#
# 1 41.2976 -0.2743 6.4167 0.0000 0.0000 0.0000
# 2 -0.2743 110.0539 34.9541 0.0000 0.0000 0.0000
# 3 6.4167 34.9541 178.7008 0.0000 0.0000 0.0000
# 4 0.0000 0.0000 0.0000 54.6491 0.0000 0.0000
# 5 0.0000 0.0000 0.0000 0.0000 -84.3392 0.0000
# 6 0.0000 0.0000 0.0000 0.0000 0.0000 9.6824
#
#
#
# Elastic Compliance Matrix: (Units=1/GPa)
#
#
# Indices 1 2 3 4 5 6 
#
# 1 0.024364 0.000361 -0.000945 0.000000 0.000000 0.000000
# 2 0.000361 0.009694 -0.001909 0.000000 0.000000 0.000000
# 3 -0.000945 -0.001909 0.006003 0.000000 0.000000 0.000000
# 4 0.000000 0.000000 0.000000 0.018299 0.000000 0.000000
# 5 0.000000 0.000000 0.000000 0.000000 -0.011857 0.000000
# 6 0.000000 0.000000 0.000000 0.000000 0.000000 0.103280
#
#
# Mechanical properties :
#
#
# Convention : Reuss Voigt Hill
#
# Bulk Modulus (GPa) = 28.51131 45.80502 37.15817
# Shear Modulus (GPa) = 30.03711 15.26220 22.64965
#
# Velocity S-wave (km/s) = 3.53791 2.52189 3.07219
# Velocity P-wave (km/s) = 5.34510 5.25047 5.29799
#
# Compressibility (1/GPa) = 0.03507380
#
# Stress axis : x y z
#
# Youngs Moduli (GPa) = 41.04448 103.15985 166.57475
#
# Poissons Ratio (x) = -0.03724 0.15749
# Poissons Ratio (y) = -0.01482 0.31800
# Poissons Ratio (z) = 0.03881 0.19694
#
# Static dielectric constant tensor:
#      x y z
#    x 1.879230 0.000000 0.000000 
#    y 0.000000 1.974180 0.000000 
#    z 0.000000 0.000000 1.897210 
# 
# From -- ./inp_files/15696.got.cif
#   From: 2010.05.17/outbox.cif.g08.bks.cpg/sg20_8_cif.got.tgz:15696.got - 2010.06.03 22:52:26.
