data_PCOD9321469
_publ_section_title
;
Structure prediction by ZEFSAII (Michael W. Deem and Ramdas Pophale) SiO2 
 PCOD9321469
Probable space group: C 2 2 21
;
_chemical_formula_sum "Si O2"
_cell_formula_units_Z 64
_cell_length_a 11.798986
_cell_length_b 9.381914
_cell_length_c 27.545916
_cell_angle_alpha 90.000000
_cell_angle_beta 90.000000
_cell_angle_gamma 90.000000
_cell_volume 3049.252245
_symmetry_space_group_name_H-M "C 2 2 21"
_symmetry_group_IT_number 20
_symmetry_cell_setting 'orthorhombic'
loop_
_space_group_symop_operation_xyz
x,y,z
-x,-y,1/2+z
x,-y,-z
-x,y,1/2-z
1/2+x,1/2+y,z
1/2-x,1/2-y,1/2+z
1/2+x,1/2-y,-z
1/2-x,1/2+y,1/2-z
loop_
_atom_site_type_symbol
_atom_site_label
_atom_site_fract_x
_atom_site_fract_y
_atom_site_fract_z
Si Si1 0.240730 0.367738 0.818620
Si Si2 0.315725 0.444420 0.444984
Si Si3 0.402323 0.721062 0.396729
Si Si4 0.550595 0.942104 0.445423
Si Si5 0.675162 0.661366 0.639224
Si Si6 0.444904 0.786872 0.603551
Si Si7 0.108716 0.631664 0.276750
Si Si8 0.956371 0.320917 0.196161
O O1 0.299513 0.501398 0.844617
O O2 0.138229 0.308302 0.851032
O O3 0.192076 0.414400 0.766454
O O4 0.334318 0.247452 0.811883
O O5 0.323919 0.500000 0.500000
O O6 0.378270 0.557531 0.409856
O O7 0.182926 0.432349 0.431956
O O8 0.373692 0.292327 0.437840
O O9 0.277683 0.791194 0.395416
O O10 0.459882 0.759998 0.345002
O O11 0.484745 0.795446 0.435777
O O12 0.489750 0.060366 0.412791
O O13 0.544275 0.000000 0.500000
O O14 0.553901 0.690623 0.615477
O O15 0.670975 0.763711 0.686476
O O16 0.060008 0.491971 0.303780
O O17 0.000000 0.702054 0.250000
O O18 0.000000 0.284243 0.250000
#
# Coordination Sequence:
#
# PCOD9321469 Si02
#       8
#     8   8   8   8   8   8   8   8
#     4  12  24  42  64  98 136 180 233 279 336 401
#     4  11  26  46  72 102 134 178 229 287 353 420
#     4  12  23  45  69 100 137 182 228 284 348 412
#     4  11  24  46  72  99 136 178 225 284 352 412
#     4  12  24  41  67  97 136 182 224 282 339 403
#     4  12  24  44  68 101 134 175 228 279 344 410
#     4  11  22  42  64  93 136 184 230 277 327 400
#     4  11  25  43  67  99 139 187 232 285 342 407
#
# _framework density 20.988752000000002
#
# number of rings (size 3 to 8) (size 9 to 14) (size 15 to 20)
#    0.000    0.500    3.750    6.000    1.750    0.500 
#    4.500    0.625    0.000    0.000    0.000    0.000 
#    0.000    0.000    0.000    0.000    0.000    0.000 
#
# Total GULP energy -179072.692920 kJ/mol
# GULP energy per Si atom -5596.021654 kJ/mol
# Density = 2.094098 g / cm^3
# Si number density = 20.988752 Si / 1000 Ang^3
#
#
#
# Elastic Constant Matrix: (Units=GPa)
#
#
# Indices 1 2 3 4 5 6 
#
# 1 135.0962 29.2824 26.8554 0.0000 0.0000 0.0000
# 2 29.2824 32.0624 -3.5453 0.0000 0.0000 0.0000
# 3 26.8554 -3.5453 52.4650 0.0000 0.0000 0.0000
# 4 0.0000 0.0000 0.0000 30.3342 0.0000 0.0000
# 5 0.0000 0.0000 0.0000 0.0000 40.6092 0.0000
# 6 0.0000 0.0000 0.0000 0.0000 0.0000 32.8887
#
#
#
# Elastic Compliance Matrix: (Units=1/GPa)
#
#
# Indices 1 2 3 4 5 6 
#
# 1 0.010994 -0.010743 -0.006353 0.000000 0.000000 0.000000
# 2 -0.010743 0.041922 0.008332 0.000000 0.000000 0.000000
# 3 -0.006353 0.008332 0.022875 0.000000 0.000000 0.000000
# 4 0.000000 0.000000 0.000000 0.032966 0.000000 0.000000
# 5 0.000000 0.000000 0.000000 0.000000 0.024625 0.000000
# 6 0.000000 0.000000 0.000000 0.000000 0.000000 0.030406
#
#
# Mechanical properties :
#
#
# Convention : Reuss Voigt Hill
#
# Bulk Modulus (GPa) = 17.16376 36.08986 26.62681
# Shear Modulus (GPa) = 24.90820 31.90184 28.40502
#
# Velocity S-wave (km/s) = 3.44865 3.90288 3.68277
# Velocity P-wave (km/s) = 4.90438 6.12717 5.54955
#
# Compressibility (1/GPa) = 0.05826228
#
# Stress axis : x y z
#
# Youngs Moduli (GPa) = 90.96156 23.85387 43.71499
#
# Poissons Ratio (x) = 0.25626 0.27774
# Poissons Ratio (y) = 0.97720 -0.36423
# Poissons Ratio (z) = 0.57791 -0.19875
#
# Static dielectric constant tensor:
#      x y z
#    x 1.737180 0.000000 0.000000 
#    y 0.000000 1.731900 0.000000 
#    z 0.000000 0.000000 1.793160 
# 
# From -- ./inp_files/31189.got.cif
#   From: 2010.05.17/outbox.cif.g08.bks.cpg/sg20_16_cif.got.tgz:31189.got - 2010.06.03 22:52:26.
