data_PCOD9321189
_publ_section_title
;
Structure prediction by ZEFSAII (Michael W. Deem and Ramdas Pophale) SiO2 
 PCOD9321189
Probable space group: C 2 2 21
;
_chemical_formula_sum "Si O2"
_cell_formula_units_Z 56
_cell_length_a 5.918527
_cell_length_b 14.078949
_cell_length_c 27.113177
_cell_angle_alpha 90.000000
_cell_angle_beta 90.000000
_cell_angle_gamma 90.000000
_cell_volume 2259.249933
_symmetry_space_group_name_H-M "C 2 2 21"
_symmetry_group_IT_number 20
_symmetry_cell_setting 'orthorhombic'
loop_
_space_group_symop_operation_xyz
x,y,z
-x,-y,1/2+z
x,-y,-z
-x,y,1/2-z
1/2+x,1/2+y,z
1/2-x,1/2-y,1/2+z
1/2+x,1/2-y,-z
1/2-x,1/2+y,1/2-z
loop_
_atom_site_type_symbol
_atom_site_label
_atom_site_fract_x
_atom_site_fract_y
_atom_site_fract_z
Si Si1 0.454975 0.335169 0.877763
Si Si2 0.816760 0.889518 0.717418
Si Si3 0.641756 0.500000 0.500000
Si Si4 0.448852 0.291318 0.516767
Si Si5 0.322546 0.542470 0.895717
Si Si6 0.394916 0.304150 0.353973
Si Si7 0.500000 0.254941 0.250000
Si Si8 0.519205 0.933499 0.307565
O O1 0.589615 0.328104 0.827314
O O2 0.558084 0.280267 0.923791
O O3 0.466690 0.447149 0.888169
O O4 0.197857 0.297520 0.871363
O O5 0.710024 0.815519 0.755349
O O6 0.000000 0.944717 0.750000
O O7 0.640623 0.965127 0.698401
O O8 0.493260 0.404086 0.506802
O O9 0.781955 0.477221 0.449837
O O10 0.198117 0.256593 0.497868
O O11 0.473296 0.637099 0.894878
O O12 0.182037 0.548229 0.845457
O O13 0.526560 0.304976 0.301878
O O14 0.173641 0.361735 0.338034
O O15 0.500000 0.900422 0.250000
#
# Coordination Sequence:
#
# PCOD9321189 Si02
#       8
#     8   8   4   8   8   8   4   8
#     4  11  25  46  71 105 144 193 247 307 386 455
#     4  12  24  45  67 102 147 192 244 305 377 460
#     4  10  26  50  82 110 152 206 262 334 400 478
#     4  11  27  51  80 116 154 203 261 333 397 473
#     4  11  25  50  69 106 142 191 252 313 387 458
#     4  12  26  42  68 103 145 191 248 308 370 471
#     4  12  26  40  68 102 144 200 248 306 384 466
#     4  12  26  41  70 103 142 194 244 307 380 459
#
# _framework density 24.786988999999998
#
# number of rings (size 3 to 8) (size 9 to 14) (size 15 to 20)
#    0.000    0.571    3.571    3.429    7.000    4.000 
#    0.000    0.000    0.000    0.000    0.000    0.000 
#    0.000    0.000    0.000    0.000    0.000    0.000 
#
# Total GULP energy -156297.165452 kJ/mol
# GULP energy per Si atom -5582.041623 kJ/mol
# Density = 2.473057 g / cm^3
# Si number density = 24.786989 Si / 1000 Ang^3
#
#
#
# Elastic Constant Matrix: (Units=GPa)
#
#
# Indices 1 2 3 4 5 6 
#
# 1 61.6615 29.5427 27.6846 0.0000 0.0000 0.0000
# 2 29.5427 100.1893 5.2653 0.0000 0.0000 0.0000
# 3 27.6846 5.2653 137.7490 0.0000 0.0000 0.0000
# 4 0.0000 0.0000 0.0000 30.1393 0.0000 0.0000
# 5 0.0000 0.0000 0.0000 0.0000 28.8649 0.0000
# 6 0.0000 0.0000 0.0000 0.0000 0.0000 30.5107
#
#
#
# Elastic Compliance Matrix: (Units=1/GPa)
#
#
# Indices 1 2 3 4 5 6 
#
# 1 0.020841 -0.005937 -0.003962 0.000000 0.000000 0.000000
# 2 -0.005937 0.011693 0.000746 0.000000 0.000000 0.000000
# 3 -0.003962 0.000746 0.008027 0.000000 0.000000 0.000000
# 4 0.000000 0.000000 0.000000 0.033179 0.000000 0.000000
# 5 0.000000 0.000000 0.000000 0.000000 0.034644 0.000000
# 6 0.000000 0.000000 0.000000 0.000000 0.000000 0.032775
#
#
# Mechanical properties :
#
#
# Convention : Reuss Voigt Hill
#
# Bulk Modulus (GPa) = 44.93222 47.17612 46.05417
# Shear Modulus (GPa) = 29.96117 33.71014 31.83565
#
# Velocity S-wave (km/s) = 3.48047 3.69181 3.58770
# Velocity P-wave (km/s) = 5.85818 6.10299 5.98184
#
# Compressibility (1/GPa) = 0.02225575
#
# Stress axis : x y z
#
# Youngs Moduli (GPa) = 47.98291 85.52455 124.57564
#
# Poissons Ratio (x) = 0.50777 0.49352
# Poissons Ratio (y) = 0.28488 -0.09297
# Poissons Ratio (z) = 0.19009 -0.06383
#
# Static dielectric constant tensor:
#      x y z
#    x 2.119060 0.000000 0.000000 
#    y 0.000000 1.973330 0.000000 
#    z 0.000000 0.000000 2.028900 
# 
# From -- ./inp_files/30765.got.cif
#   From: 2010.05.17/outbox.cif.g08.bks.cpg/sg20_16_cif.got.tgz:30765.got - 2010.06.03 22:52:26.
