data_PCOD9321032
_publ_section_title
;
Structure prediction by ZEFSAII (Michael W. Deem and Ramdas Pophale) SiO2 
 PCOD9321032
Probable space group: C 2 2 21
;
_chemical_formula_sum "Si O2"
_cell_formula_units_Z 44
_cell_length_a 12.829444
_cell_length_b 5.613740
_cell_length_c 25.410943
_cell_angle_alpha 90.000000
_cell_angle_beta 90.000000
_cell_angle_gamma 90.000000
_cell_volume 1830.125667
_symmetry_space_group_name_H-M "C 2 2 21"
_symmetry_group_IT_number 20
_symmetry_cell_setting 'orthorhombic'
loop_
_space_group_symop_operation_xyz
x,y,z
-x,-y,1/2+z
x,-y,-z
-x,y,1/2-z
1/2+x,1/2+y,z
1/2-x,1/2-y,1/2+z
1/2+x,1/2-y,-z
1/2-x,1/2+y,1/2-z
loop_
_atom_site_type_symbol
_atom_site_label
_atom_site_fract_x
_atom_site_fract_y
_atom_site_fract_z
Si Si1 0.244122 0.000000 0.500000
Si Si2 0.021951 0.593177 0.132657
Si Si3 0.339260 0.108528 0.057614
Si Si4 0.234384 0.507134 0.819736
Si Si5 0.881200 0.902205 0.445663
Si Si6 0.157944 0.502991 0.699037
O O1 0.169895 0.113262 0.544465
O O2 0.323103 0.170038 0.468910
O O3 0.136654 0.492841 0.141075
O O4 0.047394 0.846700 0.104413
O O5 0.931376 0.508110 0.092970
O O6 0.963405 0.544520 0.187365
O O7 0.220035 0.048957 0.072078
O O8 0.355636 0.000000 0.000000
O O9 0.189765 0.504490 0.760041
O O10 0.294708 0.756838 0.825049
O O11 0.300066 0.258376 0.823418
O O12 0.931244 0.000000 0.500000
#
# Coordination Sequence:
#
# PCOD9321032 Si02
#       6
#     4   8   8   8   8   8
#     4   8  18  40  60  74 130 176 202 276 324 374
#     4  12  23  38  70 100 126 178 237 272 338 402
#     4   9  21  41  57  88 131 173 221 269 330 389
#     4  10  24  48  71 100 140 175 219 283 345 406
#     4   9  21  41  57  88 131 173 221 269 330 389
#     4  10  24  48  71 100 140 175 219 283 345 406
#
# _framework density 24.042064
#
# number of rings (size 3 to 8) (size 9 to 14) (size 15 to 20)
#    0.000    2.545    0.000    1.636    5.091    1.455 
#   13.091    5.455    0.000    0.000    0.000    0.000 
#    0.000    0.000    0.000    0.000    0.000    0.000 
#
# Total GULP energy -122478.057470 kJ/mol
# GULP energy per Si atom -5567.184430 kJ/mol
# Density = 2.398734 g / cm^3
# Si number density = 24.042064 Si / 1000 Ang^3
#
#
#
# Elastic Constant Matrix: (Units=GPa)
#
#
# Indices 1 2 3 4 5 6 
#
# 1 110.4715 46.1629 21.0164 0.0000 0.0000 0.0000
# 2 46.1629 114.2057 25.5802 0.0000 0.0000 0.0000
# 3 21.0164 25.5802 61.8952 0.0000 0.0000 0.0000
# 4 0.0000 0.0000 0.0000 34.5710 0.0000 0.0000
# 5 0.0000 0.0000 0.0000 0.0000 54.2145 0.0000
# 6 0.0000 0.0000 0.0000 0.0000 0.0000 5.2957
#
#
#
# Elastic Compliance Matrix: (Units=1/GPa)
#
#
# Indices 1 2 3 4 5 6 
#
# 1 0.011138 -0.004028 -0.002117 0.000000 0.000000 0.000000
# 2 -0.004028 0.011106 -0.003222 0.000000 0.000000 0.000000
# 3 -0.002117 -0.003222 0.018207 0.000000 0.000000 0.000000
# 4 0.000000 0.000000 0.000000 0.028926 0.000000 0.000000
# 5 0.000000 0.000000 0.000000 0.000000 0.018445 0.000000
# 6 0.000000 0.000000 0.000000 0.000000 0.000000 0.188833
#
#
# Mechanical properties :
#
#
# Convention : Reuss Voigt Hill
#
# Bulk Modulus (GPa) = 46.04853 52.45459 49.25156
# Shear Modulus (GPa) = 16.52190 31.73710 24.12950
#
# Velocity S-wave (km/s) = 2.62431 3.63721 3.17146
# Velocity P-wave (km/s) = 5.32706 6.28524 5.82588
#
# Compressibility (1/GPa) = 0.02171622
#
# Stress axis : x y z
#
# Youngs Moduli (GPa) = 89.78251 90.04187 54.92414
#
# Poissons Ratio (x) = 0.36268 0.11629
# Poissons Ratio (y) = 0.36163 0.17698
# Poissons Ratio (z) = 0.19009 0.29014
#
# Static dielectric constant tensor:
#      x y z
#    x 1.894330 0.000000 0.000000 
#    y 0.000000 2.046360 0.000000 
#    z 0.000000 0.000000 1.990680 
# 
# From -- ./inp_files/29771.got.cif
#   From: 2010.05.17/outbox.cif.g08.bks.cpg/sg20_15_cif.got.tgz:29771.got - 2010.06.03 22:52:26.
