data_PCOD9321280
_publ_section_title
;
Structure prediction by ZEFSAII (Michael W. Deem and Ramdas Pophale) SiO2 
 PCOD9321280
Probable space group: C 2 2 21
;
_chemical_formula_sum "Si O2"
_cell_formula_units_Z 48
_cell_length_a 8.941051
_cell_length_b 18.241994
_cell_length_c 15.214278
_cell_angle_alpha 90.000000
_cell_angle_beta 90.000000
_cell_angle_gamma 90.000000
_cell_volume 2481.488279
_symmetry_space_group_name_H-M "C 2 2 21"
_symmetry_group_IT_number 20
_symmetry_cell_setting 'orthorhombic'
loop_
_space_group_symop_operation_xyz
x,y,z
-x,-y,1/2+z
x,-y,-z
-x,y,1/2-z
1/2+x,1/2+y,z
1/2-x,1/2-y,1/2+z
1/2+x,1/2-y,-z
1/2-x,1/2+y,1/2-z
loop_
_atom_site_type_symbol
_atom_site_label
_atom_site_fract_x
_atom_site_fract_y
_atom_site_fract_z
Si Si1 0.170342 0.042508 0.270884
Si Si2 0.608733 0.565191 0.569056
Si Si3 0.630342 0.065508 0.678832
Si Si4 0.392046 0.670802 0.665887
Si Si5 0.576664 0.085677 0.986599
Si Si6 0.898889 0.660634 0.337203
O O1 0.256680 0.110777 0.312489
O O2 0.000000 0.061651 0.250000
O O3 0.159228 0.978021 0.343224
O O4 0.263925 0.006451 0.190235
O O5 0.568835 0.500000 0.500000
O O6 0.472798 0.619283 0.593302
O O7 0.755461 0.611409 0.539379
O O8 0.500000 0.055643 0.750000
O O9 0.738916 0.133427 0.695324
O O10 0.547890 0.084812 0.588241
O O11 0.500000 0.670261 0.750000
O O12 0.367942 0.754916 0.640048
O O13 0.529220 0.123226 0.077021
O O14 0.605313 0.000000 0.000000
O O15 0.000000 0.658453 0.250000
#
# Coordination Sequence:
#
# PCOD9321280 Si02
#       6
#     8   8   8   8   8   8
#     4  12  21  41  68  95 125 173 225 267 327 402
#     4  11  20  40  68  92 129 175 220 266 330 396
#     4  12  21  37  68  95 128 172 226 265 331 407
#     4  11  23  43  64  94 137 183 215 277 345 390
#     4  11  21  38  64  94 130 171 219 278 332 382
#     4  11  25  44  64  94 138 174 223 284 339 393
#
# _framework density 19.343232
#
# number of rings (size 3 to 8) (size 9 to 14) (size 15 to 20)
#    0.000    0.667    8.333    1.500    0.000    2.667 
#    3.000    0.000    0.000    0.000    0.000    0.000 
#    0.000    0.000    0.000    0.000    0.000    0.000 
#
# Total GULP energy -133910.065705 kJ/mol
# GULP energy per Si atom -5579.586071 kJ/mol
# Density = 1.929921 g / cm^3
# Si number density = 19.343232 Si / 1000 Ang^3
#
#
#
# Elastic Constant Matrix: (Units=GPa)
#
#
# Indices 1 2 3 4 5 6 
#
# 1 105.9319 45.7891 31.7914 0.0000 0.0000 0.0000
# 2 45.7891 122.5426 34.0938 0.0000 0.0000 0.0000
# 3 31.7914 34.0938 86.4080 0.0000 0.0000 0.0000
# 4 0.0000 0.0000 0.0000 27.4055 0.0000 0.0000
# 5 0.0000 0.0000 0.0000 0.0000 30.7710 0.0000
# 6 0.0000 0.0000 0.0000 0.0000 0.0000 26.6051
#
#
#
# Elastic Compliance Matrix: (Units=1/GPa)
#
#
# Indices 1 2 3 4 5 6 
#
# 1 0.011890 -0.003624 -0.002945 0.000000 0.000000 0.000000
# 2 -0.003624 0.010271 -0.002719 0.000000 0.000000 0.000000
# 3 -0.002945 -0.002719 0.013730 0.000000 0.000000 0.000000
# 4 0.000000 0.000000 0.000000 0.036489 0.000000 0.000000
# 5 0.000000 0.000000 0.000000 0.000000 0.032498 0.000000
# 6 0.000000 0.000000 0.000000 0.000000 0.000000 0.037587
#
#
# Mechanical properties :
#
#
# Convention : Reuss Voigt Hill
#
# Bulk Modulus (GPa) = 57.75380 59.80348 58.77864
# Shear Modulus (GPa) = 29.97390 30.50354 30.23872
#
# Velocity S-wave (km/s) = 3.94074 3.97541 3.95811
# Velocity P-wave (km/s) = 7.11534 7.21498 7.16533
#
# Compressibility (1/GPa) = 0.01731488
#
# Stress axis : x y z
#
# Youngs Moduli (GPa) = 84.10362 97.36170 72.83586
#
# Poissons Ratio (x) = 0.35279 0.21450
# Poissons Ratio (y) = 0.30475 0.19807
# Poissons Ratio (z) = 0.24768 0.26477
#
# Static dielectric constant tensor:
#      x y z
#    x 1.766830 0.000000 0.000000 
#    y 0.000000 1.664060 0.000000 
#    z 0.000000 0.000000 1.643060 
# 
# From -- ./inp_files/18850.got.cif
#   From: 2010.05.17/outbox.cif.g08.bks.cpg/sg20_10_cif.got.tgz:18850.got - 2010.06.03 22:52:26.
