data_PCOD9321537
_publ_section_title
;
Structure prediction by ZEFSAII (Michael W. Deem and Ramdas Pophale) SiO2 
 PCOD9321537
Probable space group: C 2 2 21
;
_chemical_formula_sum "Si O2"
_cell_formula_units_Z 32
_cell_length_a 9.270518
_cell_length_b 11.126914
_cell_length_c 14.906921
_cell_angle_alpha 90.000000
_cell_angle_beta 90.000000
_cell_angle_gamma 90.000000
_cell_volume 1537.682539
_symmetry_space_group_name_H-M "C 2 2 21"
_symmetry_group_IT_number 20
_symmetry_cell_setting 'orthorhombic'
loop_
_space_group_symop_operation_xyz
x,y,z
-x,-y,1/2+z
x,-y,-z
-x,y,1/2-z
1/2+x,1/2+y,z
1/2-x,1/2-y,1/2+z
1/2+x,1/2-y,-z
1/2-x,1/2+y,1/2-z
loop_
_atom_site_type_symbol
_atom_site_label
_atom_site_fract_x
_atom_site_fract_y
_atom_site_fract_z
Si Si1 0.572636 0.761502 0.165792
Si Si2 0.360409 0.963501 0.098223
Si Si3 0.385904 0.773059 0.829160
Si Si4 0.444477 0.371217 0.476721
O O1 0.500000 0.693273 0.250000
O O2 0.468914 0.873397 0.146122
O O3 0.735842 0.792592 0.191874
O O4 0.583024 0.690834 0.072188
O O5 0.205762 0.902237 0.074775
O O6 0.349431 0.087008 0.153205
O O7 0.420260 0.000000 0.000000
O O8 0.500000 0.762557 0.750000
O O9 0.456376 0.713084 0.916670
O O10 0.513912 0.500000 0.500000
#
# Coordination Sequence:
#
# PCOD9321537 Si02
#       4
#     8   8   8   8
#     4  12  24  44  69 101 139 181 231 288 346 415
#     4  11  22  47  73  97 137 181 231 287 350 409
#     4  12  26  45  71 102 139 183 233 290 349 414
#     4  11  23  47  72  98 141 184 229 287 348 415
#
# _framework density 20.810535000000002
#
# number of rings (size 3 to 8) (size 9 to 14) (size 15 to 20)
#    0.000    0.500    7.500    2.250    0.000    2.000 
#   13.500    0.000    0.000    0.000    0.000    0.000 
#    0.000    0.000    0.000    0.000    0.000    0.000 
#
# Total GULP energy -89416.451592 kJ/mol
# GULP energy per Si atom -5588.528225 kJ/mol
# Density = 2.076317 g / cm^3
# Si number density = 20.810535 Si / 1000 Ang^3
#
#
#
# Elastic Constant Matrix: (Units=GPa)
#
#
# Indices 1 2 3 4 5 6 
#
# 1 145.3064 50.5768 64.6104 0.0000 0.0000 0.0000
# 2 50.5768 92.9311 9.0498 0.0000 0.0000 0.0000
# 3 64.6104 9.0498 99.6743 0.0000 0.0000 0.0000
# 4 0.0000 0.0000 0.0000 21.8574 0.0000 0.0000
# 5 0.0000 0.0000 0.0000 0.0000 34.0042 0.0000
# 6 0.0000 0.0000 0.0000 0.0000 0.0000 20.1842
#
#
#
# Elastic Compliance Matrix: (Units=1/GPa)
#
#
# Indices 1 2 3 4 5 6 
#
# 1 0.012237 -0.005940 -0.007393 0.000000 0.000000 0.000000
# 2 -0.005940 0.013740 0.002603 0.000000 0.000000 0.000000
# 3 -0.007393 0.002603 0.014588 0.000000 0.000000 0.000000
# 4 0.000000 0.000000 0.000000 0.045751 0.000000 0.000000
# 5 0.000000 0.000000 0.000000 0.000000 0.029408 0.000000
# 6 0.000000 0.000000 0.000000 0.000000 0.000000 0.049544
#
#
# Mechanical properties :
#
#
# Convention : Reuss Voigt Hill
#
# Bulk Modulus (GPa) = 52.34091 65.15398 58.74745
# Shear Modulus (GPa) = 25.89391 29.45415 27.67403
#
# Velocity S-wave (km/s) = 3.53125 3.76619 3.65061
# Velocity P-wave (km/s) = 6.46777 7.09143 6.78677
#
# Compressibility (1/GPa) = 0.01910551
#
# Stress axis : x y z
#
# Youngs Moduli (GPa) = 81.72216 72.78110 68.54768
#
# Poissons Ratio (x) = 0.43230 0.50675
# Poissons Ratio (y) = 0.48541 -0.17841
# Poissons Ratio (z) = 0.60414 -0.18943
#
# Static dielectric constant tensor:
#      x y z
#    x 1.745560 0.000000 0.000000 
#    y 0.000000 1.751310 0.000000 
#    z 0.000000 0.000000 1.760130 
# 
# From -- ./inp_files/18180.got.cif
#   From: 2010.05.17/outbox.cif.g08.bks.cpg/sg20_10_cif.got.tgz:18180.got - 2010.06.03 22:52:26.
