data_PCOD9321492
_publ_section_title
;
Structure prediction by ZEFSAII (Michael W. Deem and Ramdas Pophale) SiO2 
 PCOD9321492
Probable space group: C 2 2 21
;
_chemical_formula_sum "Si O2"
_cell_formula_units_Z 48
_cell_length_a 8.477062
_cell_length_b 10.283329
_cell_length_c 23.004791
_cell_angle_alpha 90.000000
_cell_angle_beta 90.000000
_cell_angle_gamma 90.000000
_cell_volume 2005.383246
_symmetry_space_group_name_H-M "C 2 2 21"
_symmetry_group_IT_number 20
_symmetry_cell_setting 'orthorhombic'
loop_
_space_group_symop_operation_xyz
x,y,z
-x,-y,1/2+z
x,-y,-z
-x,y,1/2-z
1/2+x,1/2+y,z
1/2-x,1/2-y,1/2+z
1/2+x,1/2-y,-z
1/2-x,1/2+y,1/2-z
loop_
_atom_site_type_symbol
_atom_site_label
_atom_site_fract_x
_atom_site_fract_y
_atom_site_fract_z
Si Si1 0.527856 0.267816 0.182174
Si Si2 0.107010 0.352343 0.517750
Si Si3 0.168538 0.990646 0.782229
Si Si4 0.236097 0.883704 0.545436
Si Si5 0.215213 0.244732 0.129436
Si Si6 0.331675 0.004350 0.340868
O O1 0.500000 0.251946 0.250000
O O2 0.663997 0.376012 0.180104
O O3 0.371109 0.321211 0.152945
O O4 0.546503 0.124063 0.158340
O O5 0.140903 0.500000 0.500000
O O6 0.135884 0.243565 0.468765
O O7 0.230882 0.310125 0.568028
O O8 0.922297 0.350041 0.536020
O O9 0.185082 0.867992 0.824257
O O10 0.285369 0.001062 0.727315
O O11 0.000000 0.978430 0.750000
O O12 0.211874 0.937053 0.610497
O O13 0.199135 0.000000 0.500000
O O14 0.100008 0.368575 0.134250
#
# Coordination Sequence:
#
# PCOD9321492 Si02
#       6
#     8   8   8   8   8   8
#     4  11  22  43  65  96 138 173 219 275 332 401
#     4  11  27  47  68 101 133 178 237 288 343 411
#     4  11  24  42  65 103 138 172 222 270 336 417
#     4  11  25  46  69  98 135 178 231 284 339 405
#     4  12  24  44  68  95 136 178 219 280 342 406
#     4  12  22  42  70  96 130 178 219 275 337 402
#
# _framework density 23.935573999999999
#
# number of rings (size 3 to 8) (size 9 to 14) (size 15 to 20)
#    0.000    0.667    8.333    0.000    2.333    2.667 
#    3.000    0.000    0.000    0.000    0.000    0.000 
#    0.000    0.000    0.000    0.000    0.000    0.000 
#
# Total GULP energy -133973.854841 kJ/mol
# GULP energy per Si atom -5582.243952 kJ/mol
# Density = 2.388110 g / cm^3
# Si number density = 23.935574 Si / 1000 Ang^3
#
#
#
# Elastic Constant Matrix: (Units=GPa)
#
#
# Indices 1 2 3 4 5 6 
#
# 1 30.8560 38.7209 11.2881 0.0000 0.0000 0.0000
# 2 38.7209 194.5861 43.5472 0.0000 0.0000 0.0000
# 3 11.2881 43.5472 70.1330 0.0000 0.0000 0.0000
# 4 0.0000 0.0000 0.0000 46.3477 0.0000 0.0000
# 5 0.0000 0.0000 0.0000 0.0000 25.7633 0.0000
# 6 0.0000 0.0000 0.0000 0.0000 0.0000 12.2495
#
#
#
# Elastic Compliance Matrix: (Units=1/GPa)
#
#
# Indices 1 2 3 4 5 6 
#
# 1 0.043408 -0.008216 -0.001885 0.000000 0.000000 0.000000
# 2 -0.008216 0.007524 -0.003349 0.000000 0.000000 0.000000
# 3 -0.001885 -0.003349 0.016642 0.000000 0.000000 0.000000
# 4 0.000000 0.000000 0.000000 0.021576 0.000000 0.000000
# 5 0.000000 0.000000 0.000000 0.000000 0.038815 0.000000
# 6 0.000000 0.000000 0.000000 0.000000 0.000000 0.081636
#
#
# Mechanical properties :
#
#
# Convention : Reuss Voigt Hill
#
# Bulk Modulus (GPa) = 24.58643 53.63194 39.10919
# Shear Modulus (GPa) = 19.99532 30.34003 25.16768
#
# Velocity S-wave (km/s) = 2.89343 3.56416 3.24616
# Velocity P-wave (km/s) = 4.63215 6.27639 5.51588
#
# Compressibility (1/GPa) = 0.04067284
#
# Stress axis : x y z
#
# Youngs Moduli (GPa) = 23.03704 132.91623 60.09031
#
# Poissons Ratio (x) = 1.09204 0.11328
# Poissons Ratio (y) = 0.18927 0.20125
# Poissons Ratio (z) = 0.04343 0.44516
#
# Static dielectric constant tensor:
#      x y z
#    x 1.978620 0.000000 0.000000 
#    y 0.000000 1.953260 0.000000 
#    z 0.000000 0.000000 1.919500 
# 
# From -- ./inp_files/29082.got.cif
#   From: 2010.05.17/outbox.cif.g08.bks.cpg/sg20_15_cif.got.tgz:29082.got - 2010.06.03 22:52:26.
