data_PCOD9321759
_publ_section_title
;
Structure prediction by ZEFSAII (Michael W. Deem and Ramdas Pophale) SiO2 
 PCOD9321759
Probable space group: C 2 2 21
;
_chemical_formula_sum "Si O2"
_cell_formula_units_Z 36
_cell_length_a 22.307052
_cell_length_b 9.777026
_cell_length_c 7.758065
_cell_angle_alpha 90.000000
_cell_angle_beta 90.000000
_cell_angle_gamma 90.000000
_cell_volume 1692.007812
_symmetry_space_group_name_H-M "C 2 2 21"
_symmetry_group_IT_number 20
_symmetry_cell_setting 'orthorhombic'
loop_
_space_group_symop_operation_xyz
x,y,z
-x,-y,1/2+z
x,-y,-z
-x,y,1/2-z
1/2+x,1/2+y,z
1/2-x,1/2-y,1/2+z
1/2+x,1/2-y,-z
1/2-x,1/2+y,1/2-z
loop_
_atom_site_type_symbol
_atom_site_label
_atom_site_fract_x
_atom_site_fract_y
_atom_site_fract_z
Si Si1 0.699422 0.339570 0.472145
Si Si2 0.573599 0.613710 0.648535
Si Si3 0.907199 0.500000 0.500000
Si Si4 0.171947 0.746966 0.851554
Si Si5 0.000000 0.352380 0.750000
Si Si6 0.901722 0.000000 0.500000
O O1 0.714253 0.500000 0.500000
O O2 0.643520 0.340528 0.342249
O O3 0.759285 0.266195 0.411018
O O4 0.674806 0.271990 0.646985
O O5 0.569918 0.500000 0.500000
O O6 0.535247 0.749713 0.621612
O O7 0.560394 0.549555 0.835815
O O8 0.865370 0.384691 0.413358
O O9 0.950950 0.436644 0.644887
O O10 0.139260 0.877148 0.932974
#
# Coordination Sequence:
#
# PCOD9321759 Si02
#       6
#     8   8   4   8   4   4
#     4  11  24  45  73 112 148 191 245 311 384 452
#     4  11  25  48  73 111 145 195 256 305 378 444
#     4  12  30  50  73 109 156 208 252 314 384 454
#     4  12  25  45  77 109 155 190 252 312 384 456
#     4  12  30  48  74 106 156 202 258 308 378 456
#     4  12  22  46  75 109 142 196 244 312 366 450
#
# _framework density 21.276499999999999
#
# number of rings (size 3 to 8) (size 9 to 14) (size 15 to 20)
#    0.000    0.444    7.778    1.333    4.667    0.000 
#    0.000    0.000    0.000    0.000    0.000    0.000 
#    0.000    0.000    0.000    0.000    0.000    0.000 
#
# Total GULP energy -100713.069383 kJ/mol
# GULP energy per Si atom -5595.170521 kJ/mol
# Density = 2.122807 g / cm^3
# Si number density = 21.276500 Si / 1000 Ang^3
#
#
#
# Elastic Constant Matrix: (Units=GPa)
#
#
# Indices 1 2 3 4 5 6 
#
# 1 107.2446 48.7540 32.4464 0.0000 0.0000 0.0000
# 2 48.7540 113.8687 29.8375 0.0000 0.0000 0.0000
# 3 32.4464 29.8375 123.2065 0.0000 0.0000 0.0000
# 4 0.0000 0.0000 0.0000 33.6270 0.0000 0.0000
# 5 0.0000 0.0000 0.0000 0.0000 35.5690 0.0000
# 6 0.0000 0.0000 0.0000 0.0000 0.0000 49.1960
#
#
#
# Elastic Compliance Matrix: (Units=1/GPa)
#
#
# Indices 1 2 3 4 5 6 
#
# 1 0.012046 -0.004619 -0.002054 0.000000 0.000000 0.000000
# 2 -0.004619 0.011149 -0.001483 0.000000 0.000000 0.000000
# 3 -0.002054 -0.001483 0.009016 0.000000 0.000000 0.000000
# 4 0.000000 0.000000 0.000000 0.029738 0.000000 0.000000
# 5 0.000000 0.000000 0.000000 0.000000 0.028114 0.000000
# 6 0.000000 0.000000 0.000000 0.000000 0.000000 0.020327
#
#
# Mechanical properties :
#
#
# Convention : Reuss Voigt Hill
#
# Bulk Modulus (GPa) = 62.90034 62.93285 62.91659
# Shear Modulus (GPa) = 37.87816 39.23053 38.55434
#
# Velocity S-wave (km/s) = 4.22392 4.29866 4.26145
# Velocity P-wave (km/s) = 7.30863 7.36755 7.33815
#
# Compressibility (1/GPa) = 0.01589817
#
# Stress axis : x y z
#
# Youngs Moduli (GPa) = 83.01654 89.69738 110.90790
#
# Poissons Ratio (x) = 0.41435 0.22775
# Poissons Ratio (y) = 0.38349 0.16452
# Poissons Ratio (z) = 0.17048 0.13306
#
# Static dielectric constant tensor:
#      x y z
#    x 1.772100 0.000000 0.000000 
#    y 0.000000 1.731430 0.000000 
#    z 0.000000 0.000000 1.770760 
# 
# From -- ./inp_files/9894.got.cif
#   From: 2010.05.17/outbox.cif.g08.bks.cpg/sg20_5_cif.got.tgz:9894.got - 2010.06.03 22:52:26.
