data_PCOD9321046
_publ_section_title
;
Structure prediction by ZEFSAII (Michael W. Deem and Ramdas Pophale) SiO2 
 PCOD9321046
Probable space group: C 2 2 21
;
_chemical_formula_sum "Si O2"
_cell_formula_units_Z 32
_cell_length_a 9.242307
_cell_length_b 13.545960
_cell_length_c 10.207160
_cell_angle_alpha 90.000000
_cell_angle_beta 90.000000
_cell_angle_gamma 90.000000
_cell_volume 1277.894796
_symmetry_space_group_name_H-M "C 2 2 21"
_symmetry_group_IT_number 20
_symmetry_cell_setting 'orthorhombic'
loop_
_space_group_symop_operation_xyz
x,y,z
-x,-y,1/2+z
x,-y,-z
-x,y,1/2-z
1/2+x,1/2+y,z
1/2-x,1/2-y,1/2+z
1/2+x,1/2-y,-z
1/2-x,1/2+y,1/2-z
loop_
_atom_site_type_symbol
_atom_site_label
_atom_site_fract_x
_atom_site_fract_y
_atom_site_fract_z
Si Si1 0.500000 0.322531 0.750000
Si Si2 0.677796 0.000000 0.000000
Si Si3 0.276559 0.811223 0.087429
Si Si4 0.654187 0.510540 0.773342
Si Si5 0.992866 0.326654 0.603442
O O1 0.610393 0.253234 0.673244
O O2 0.598736 0.404227 0.827397
O O3 0.773480 0.004192 0.131188
O O4 0.574970 0.094421 0.004254
O O5 0.256813 0.922808 0.138171
O O6 0.120756 0.761527 0.099220
O O7 0.348704 0.800705 0.945632
O O8 0.500000 0.564031 0.750000
O O9 0.000000 0.367973 0.750000
#
# Coordination Sequence:
#
# PCOD9321046 Si02
#       5
#     4   4   8   8   8
#     4  10  24  48  82 118 156 206 262 328 398 480
#     4  12  26  52  76 118 158 204 270 340 390 492
#     4  12  27  51  82 111 163 211 261 335 410 476
#     4  10  25  49  82 116 158 207 265 324 409 479
#     4  12  31  49  77 117 157 204 274 334 401 490
#
# _framework density 25.041186
#
# number of rings (size 3 to 8) (size 9 to 14) (size 15 to 20)
#    0.750    0.000    2.500    2.250   14.000    0.000 
#    4.500    0.000    0.000    0.000    0.000    0.000 
#    0.000    0.000    0.000    0.000    0.000    0.000 
#
# Total GULP energy -89546.599844 kJ/mol
# GULP energy per Si atom -5596.662490 kJ/mol
# Density = 2.498419 g / cm^3
# Si number density = 25.041186 Si / 1000 Ang^3
#
#
#
# Elastic Constant Matrix: (Units=GPa)
#
#
# Indices 1 2 3 4 5 6 
#
# 1 146.4181 51.6746 51.7256 0.0000 0.0000 0.0000
# 2 51.6746 113.9905 19.8905 0.0000 0.0000 0.0000
# 3 51.7256 19.8905 55.7175 0.0000 0.0000 0.0000
# 4 0.0000 0.0000 0.0000 108.7966 0.0000 0.0000
# 5 0.0000 0.0000 0.0000 0.0000 51.9056 0.0000
# 6 0.0000 0.0000 0.0000 0.0000 0.0000 35.3512
#
#
#
# Elastic Compliance Matrix: (Units=1/GPa)
#
#
# Indices 1 2 3 4 5 6 
#
# 1 0.011353 -0.003527 -0.009281 0.000000 0.000000 0.000000
# 2 -0.003527 0.010451 -0.000456 0.000000 0.000000 0.000000
# 3 -0.009281 -0.000456 0.026726 0.000000 0.000000 0.000000
# 4 0.000000 0.000000 0.000000 0.009191 0.000000 0.000000
# 5 0.000000 0.000000 0.000000 0.000000 0.019266 0.000000
# 6 0.000000 0.000000 0.000000 0.000000 0.000000 0.028288
#
#
# Mechanical properties :
#
#
# Convention : Reuss Voigt Hill
#
# Bulk Modulus (GPa) = 45.44999 62.52305 53.98652
# Shear Modulus (GPa) = 35.93547 52.06638 44.00092
#
# Velocity S-wave (km/s) = 3.79232 4.56480 4.19638
# Velocity P-wave (km/s) = 6.11270 7.26674 6.71456
#
# Compressibility (1/GPa) = 0.02200221
#
# Stress axis : x y z
#
# Youngs Moduli (GPa) = 88.08075 95.68181 37.41631
#
# Poissons Ratio (x) = 0.33750 0.34725
# Poissons Ratio (y) = 0.31069 0.01708
# Poissons Ratio (z) = 0.81744 0.04367
#
# Static dielectric constant tensor:
#      x y z
#    x 1.824880 0.000000 0.000000 
#    y 0.000000 2.002590 0.000000 
#    z 0.000000 0.000000 2.112590 
# 
# From -- ./inp_files/12513.got.cif
#   From: 2010.05.17/outbox.cif.g08.bks.cpg/sg20_7_cif.got.tgz:12513.got - 2010.06.03 22:52:26.
