data_PCOD9321459
_publ_section_title
;
Structure prediction by ZEFSAII (Michael W. Deem and Ramdas Pophale) SiO2 
 PCOD9321459
Probable space group: C 2 2 21
;
_chemical_formula_sum "Si O2"
_cell_formula_units_Z 48
_cell_length_a 8.911334
_cell_length_b 16.378914
_cell_length_c 15.725044
_cell_angle_alpha 90.000000
_cell_angle_beta 90.000000
_cell_angle_gamma 90.000000
_cell_volume 2295.195551
_symmetry_space_group_name_H-M "C 2 2 21"
_symmetry_group_IT_number 20
_symmetry_cell_setting 'orthorhombic'
loop_
_space_group_symop_operation_xyz
x,y,z
-x,-y,1/2+z
x,-y,-z
-x,y,1/2-z
1/2+x,1/2+y,z
1/2-x,1/2-y,1/2+z
1/2+x,1/2-y,-z
1/2-x,1/2+y,1/2-z
loop_
_atom_site_type_symbol
_atom_site_label
_atom_site_fract_x
_atom_site_fract_y
_atom_site_fract_z
Si Si1 0.924655 0.212752 0.970629
Si Si2 0.613118 0.171312 0.928718
Si Si3 0.825437 0.248432 0.262852
Si Si4 0.116116 0.864833 0.170934
Si Si5 0.900232 0.643066 0.168304
Si Si6 0.629642 0.028479 0.592160
O O1 0.759512 0.176657 0.989305
O O2 0.916395 0.293545 0.909596
O O3 0.021646 0.150486 0.914782
O O4 0.013482 0.248664 0.050616
O O5 0.689778 0.183691 0.837294
O O6 0.502988 0.094191 0.925152
O O7 0.720184 0.285179 0.189793
O O8 0.765294 0.162584 0.296881
O O9 0.000000 0.245072 0.250000
O O10 0.239074 0.933569 0.149839
O O11 0.000000 0.876436 0.250000
O O12 0.930321 0.552448 0.137718
O O13 0.000000 0.663310 0.250000
O O14 0.688634 0.000000 0.500000
#
# Coordination Sequence:
#
# PCOD9321459 Si02
#       6
#     8   8   8   8   8   8
#     4  11  22  42  71  96 130 178 230 274 323 400
#     4  11  23  40  68  99 131 177 223 273 331 402
#     4  11  22  41  69 101 123 173 232 272 323 400
#     4  12  23  44  72  98 132 179 231 283 333 408
#     4  11  23  41  65  96 136 168 220 280 334 391
#     4  12  27  44  65  99 141 178 219 281 357 403
#
# _framework density 20.913250999999999
#
# number of rings (size 3 to 8) (size 9 to 14) (size 15 to 20)
#    0.000    0.667    8.333    1.000    4.667    0.667 
#    0.000    0.833    3.667    0.000    0.000    0.000 
#    0.000    0.000    0.000    0.000    0.000    0.000 
#
# Total GULP energy -133845.950260 kJ/mol
# GULP energy per Si atom -5576.914594 kJ/mol
# Density = 2.086565 g / cm^3
# Si number density = 20.913251 Si / 1000 Ang^3
#
#
#
# Elastic Constant Matrix: (Units=GPa)
#
#
# Indices 1 2 3 4 5 6 
#
# 1 119.0125 23.6685 17.0365 0.0000 0.0000 0.0000
# 2 23.6685 69.5858 11.0863 0.0000 0.0000 0.0000
# 3 17.0365 11.0863 47.9955 0.0000 0.0000 0.0000
# 4 0.0000 0.0000 0.0000 29.2200 0.0000 0.0000
# 5 0.0000 0.0000 0.0000 0.0000 37.5071 0.0000
# 6 0.0000 0.0000 0.0000 0.0000 0.0000 12.1799
#
#
#
# Elastic Compliance Matrix: (Units=1/GPa)
#
#
# Indices 1 2 3 4 5 6 
#
# 1 0.009332 -0.002748 -0.002678 0.000000 0.000000 0.000000
# 2 -0.002748 0.015729 -0.002658 0.000000 0.000000 0.000000
# 3 -0.002678 -0.002658 0.022400 0.000000 0.000000 0.000000
# 4 0.000000 0.000000 0.000000 0.034223 0.000000 0.000000
# 5 0.000000 0.000000 0.000000 0.000000 0.026662 0.000000
# 6 0.000000 0.000000 0.000000 0.000000 0.000000 0.082102
#
#
# Mechanical properties :
#
#
# Convention : Reuss Voigt Hill
#
# Bulk Modulus (GPa) = 31.95491 37.79737 34.87614
# Shear Modulus (GPa) = 23.03660 28.10157 25.56909
#
# Velocity S-wave (km/s) = 3.32253 3.66966 3.50040
# Velocity P-wave (km/s) = 5.48013 6.00565 5.74890
#
# Compressibility (1/GPa) = 0.03129410
#
# Stress axis : x y z
#
# Youngs Moduli (GPa) = 107.15540 63.57790 44.64330
#
# Poissons Ratio (x) = 0.17469 0.11955
# Poissons Ratio (y) = 0.29442 0.11865
# Poissons Ratio (z) = 0.28695 0.16898
#
# Static dielectric constant tensor:
#      x y z
#    x 1.801040 0.000000 0.000000 
#    y 0.000000 1.718240 0.000000 
#    z 0.000000 0.000000 1.840000 
# 
# From -- ./inp_files/23444.got.cif
#   From: 2010.05.17/outbox.cif.g08.bks.cpg/sg20_12_cif.got.tgz:23444.got - 2010.06.03 22:52:26.
