data_PCOD9321183
_publ_section_title
;
Structure prediction by ZEFSAII (Michael W. Deem and Ramdas Pophale) SiO2 
 PCOD9321183
Probable space group: C 2 2 21
;
_chemical_formula_sum "Si O2"
_cell_formula_units_Z 40
_cell_length_a 5.825402
_cell_length_b 17.434966
_cell_length_c 16.466347
_cell_angle_alpha 90.000000
_cell_angle_beta 90.000000
_cell_angle_gamma 90.000000
_cell_volume 1672.415826
_symmetry_space_group_name_H-M "C 2 2 21"
_symmetry_group_IT_number 20
_symmetry_cell_setting 'orthorhombic'
loop_
_space_group_symop_operation_xyz
x,y,z
-x,-y,1/2+z
x,-y,-z
-x,y,1/2-z
1/2+x,1/2+y,z
1/2-x,1/2-y,1/2+z
1/2+x,1/2-y,-z
1/2-x,1/2+y,1/2-z
loop_
_atom_site_type_symbol
_atom_site_label
_atom_site_fract_x
_atom_site_fract_y
_atom_site_fract_z
Si Si1 0.288546 0.378972 0.880330
Si Si2 0.534582 0.291005 0.999476
Si Si3 0.000000 0.017295 0.250000
Si Si4 0.124213 0.213962 0.834504
Si Si5 0.370546 0.926558 0.165838
Si Si6 0.940294 0.500000 0.500000
O O1 0.333996 0.428111 0.801122
O O2 0.144739 0.304003 0.854366
O O3 0.519664 0.345267 0.921543
O O4 0.187119 0.431381 0.951872
O O5 0.499519 0.325684 0.089014
O O6 0.795710 0.258476 0.004745
O O7 0.125117 0.964218 0.185009
O O8 0.359736 0.165929 0.833333
O O9 0.000000 0.203718 0.750000
O O10 0.500000 0.947725 0.250000
O O11 0.441781 0.958121 0.077788
#
# Coordination Sequence:
#
# PCOD9321183 Si02
#       6
#     8   8   4   8   8   4
#     4  11  29  48  82 114 157 213 272 334 414 500
#     4  10  26  49  78 117 156 207 275 334 400 489
#     4  12  28  52  76 120 154 210 274 340 418 494
#     4  11  28  47  81 112 157 210 275 336 410 496
#     4  12  29  54  77 116 162 213 272 347 414 500
#     4  12  30  52  84 110 170 216 270 338 428 490
#
# _framework density 23.917498999999999
#
# number of rings (size 3 to 8) (size 9 to 14) (size 15 to 20)
#    0.000    0.800    3.000    0.000   26.600    0.000 
#    0.000    0.000    0.000    0.000    0.000    0.000 
#    0.000    0.000    0.000    0.000    0.000    0.000 
#
# Total GULP energy -111433.103855 kJ/mol
# GULP energy per Si atom -5571.655193 kJ/mol
# Density = 2.386306 g / cm^3
# Si number density = 23.917499 Si / 1000 Ang^3
#
#
#
# Elastic Constant Matrix: (Units=GPa)
#
#
# Indices 1 2 3 4 5 6 
#
# 1 55.0744 37.4653 33.2262 0.0000 0.0000 0.0000
# 2 37.4653 131.0361 49.5276 0.0000 0.0000 0.0000
# 3 33.2262 49.5276 188.3356 0.0000 0.0000 0.0000
# 4 0.0000 0.0000 0.0000 35.8474 0.0000 0.0000
# 5 0.0000 0.0000 0.0000 0.0000 49.8525 0.0000
# 6 0.0000 0.0000 0.0000 0.0000 0.0000 22.2750
#
#
#
# Elastic Compliance Matrix: (Units=1/GPa)
#
#
# Indices 1 2 3 4 5 6 
#
# 1 0.023686 -0.005766 -0.002662 0.000000 0.000000 0.000000
# 2 -0.005766 0.009877 -0.001580 0.000000 0.000000 0.000000
# 3 -0.002662 -0.001580 0.006195 0.000000 0.000000 0.000000
# 4 0.000000 0.000000 0.000000 0.027896 0.000000 0.000000
# 5 0.000000 0.000000 0.000000 0.000000 0.020059 0.000000
# 6 0.000000 0.000000 0.000000 0.000000 0.000000 0.044893
#
#
# Mechanical properties :
#
#
# Convention : Reuss Voigt Hill
#
# Bulk Modulus (GPa) = 50.65587 68.32047 59.48817
# Shear Modulus (GPa) = 31.40627 38.54346 34.97486
#
# Velocity S-wave (km/s) = 3.62761 4.01873 3.82817
# Velocity P-wave (km/s) = 6.22668 7.08242 6.66829
#
# Compressibility (1/GPa) = 0.01974105
#
# Stress axis : x y z
#
# Youngs Moduli (GPa) = 42.21942 101.24196 161.42203
#
# Poissons Ratio (x) = 0.58375 0.42977
# Poissons Ratio (y) = 0.24343 0.25509
# Poissons Ratio (z) = 0.11240 0.15999
#
# Static dielectric constant tensor:
#      x y z
#    x 2.047390 0.000000 0.000000 
#    y 0.000000 2.000840 0.000000 
#    z 0.000000 0.000000 1.929900 
# 
# From -- ./inp_files/22661.got.cif
#   From: 2010.05.17/outbox.cif.g08.bks.cpg/sg20_12_cif.got.tgz:22661.got - 2010.06.03 22:52:26.
