data_PCOD9321628
_publ_section_title
;
Structure prediction by ZEFSAII (Michael W. Deem and Ramdas Pophale) SiO2 
 PCOD9321628
Probable space group: C 2 2 21
;
_chemical_formula_sum "Si O2"
_cell_formula_units_Z 40
_cell_length_a 5.350706
_cell_length_b 19.735029
_cell_length_c 15.072004
_cell_angle_alpha 90.000000
_cell_angle_beta 90.000000
_cell_angle_gamma 90.000000
_cell_volume 1591.548430
_symmetry_space_group_name_H-M "C 2 2 21"
_symmetry_group_IT_number 20
_symmetry_cell_setting 'orthorhombic'
loop_
_space_group_symop_operation_xyz
x,y,z
-x,-y,1/2+z
x,-y,-z
-x,y,1/2-z
1/2+x,1/2+y,z
1/2-x,1/2-y,1/2+z
1/2+x,1/2-y,-z
1/2-x,1/2+y,1/2-z
loop_
_atom_site_type_symbol
_atom_site_label
_atom_site_fract_x
_atom_site_fract_y
_atom_site_fract_z
Si Si1 0.513502 0.746789 0.651866
Si Si2 0.567878 0.435024 0.556436
Si Si3 0.667111 0.820017 0.023960
Si Si4 0.330623 0.118345 0.837357
Si Si5 0.596140 0.960061 0.655142
O O1 0.500000 0.778597 0.750000
O O2 0.380487 0.786380 0.571148
O O3 0.776875 0.732794 0.603126
O O4 0.388666 0.672988 0.666402
O O5 0.487730 0.500000 0.500000
O O6 0.606681 0.370687 0.494494
O O7 0.339844 0.420359 0.622472
O O8 0.843171 0.453299 0.596355
O O9 0.459190 0.866604 0.068268
O O10 0.500000 0.132651 0.750000
O O11 0.300542 0.037348 0.834645
O O12 0.500000 0.937467 0.750000
#
# Coordination Sequence:
#
# PCOD9321628 Si02
#       5
#     8   8   8   8   8
#     4  12  26  46  75 106 148 195 257 318 379 454
#     4  12  25  45  72 109 150 195 250 309 382 454
#     4  12  26  44  73 107 150 201 245 313 387 453
#     4  11  23  44  73 107 144 196 255 307 370 455
#     4  11  26  46  73 106 149 196 255 312 375 453
#
# _framework density 25.132757000000002
#
# number of rings (size 3 to 8) (size 9 to 14) (size 15 to 20)
#    0.000    0.400    6.000    2.400    2.800    0.800 
#    0.000    4.000    0.000    0.000    0.000    0.000 
#    0.000    0.000    0.000    0.000    0.000    0.000 
#
# Total GULP energy -111789.629810 kJ/mol
# GULP energy per Si atom -5589.481491 kJ/mol
# Density = 2.507555 g / cm^3
# Si number density = 25.132757 Si / 1000 Ang^3
#
#
#
# Elastic Constant Matrix: (Units=GPa)
#
#
# Indices 1 2 3 4 5 6 
#
# 1 75.1664 7.4536 29.7804 0.0000 0.0000 0.0000
# 2 7.4536 68.4211 36.0655 0.0000 0.0000 0.0000
# 3 29.7804 36.0655 196.2997 0.0000 0.0000 0.0000
# 4 0.0000 0.0000 0.0000 35.8543 0.0000 0.0000
# 5 0.0000 0.0000 0.0000 0.0000 59.9556 0.0000
# 6 0.0000 0.0000 0.0000 0.0000 0.0000 36.8656
#
#
#
# Elastic Compliance Matrix: (Units=1/GPa)
#
#
# Indices 1 2 3 4 5 6 
#
# 1 0.014167 -0.000454 -0.002066 0.000000 0.000000 0.000000
# 2 -0.000454 0.016197 -0.002907 0.000000 0.000000 0.000000
# 3 -0.002066 -0.002907 0.005942 0.000000 0.000000 0.000000
# 4 0.000000 0.000000 0.000000 0.027891 0.000000 0.000000
# 5 0.000000 0.000000 0.000000 0.000000 0.016679 0.000000
# 6 0.000000 0.000000 0.000000 0.000000 0.000000 0.027126
#
#
# Mechanical properties :
#
#
# Convention : Reuss Voigt Hill
#
# Bulk Modulus (GPa) = 39.28981 54.05402 46.67192
# Shear Modulus (GPa) = 39.26505 44.30761 41.78633
#
# Velocity S-wave (km/s) = 3.95689 4.20330 4.08195
# Velocity P-wave (km/s) = 6.04506 6.71647 6.38959
#
# Compressibility (1/GPa) = 0.02545189
#
# Stress axis : x y z
#
# Youngs Moduli (GPa) = 70.58483 61.73928 168.30110
#
# Poissons Ratio (x) = 0.02806 0.34768
# Poissons Ratio (y) = 0.03208 0.48924
# Poissons Ratio (z) = 0.14582 0.17947
#
# Static dielectric constant tensor:
#      x y z
#    x 2.190630 0.000000 0.000000 
#    y 0.000000 2.008300 0.000000 
#    z 0.000000 0.000000 1.964490 
# 
# From -- ./inp_files/17625.got.cif
#   From: 2010.05.17/outbox.cif.g08.bks.cpg/sg20_9_cif.got.tgz:17625.got - 2010.06.03 22:52:26.
