data_PCOD9321633
_publ_section_title
;
Structure prediction by ZEFSAII (Michael W. Deem and Ramdas Pophale) SiO2 
 PCOD9321633
Probable space group: C 2 2 21
;
_chemical_formula_sum "Si O2"
_cell_formula_units_Z 52
_cell_length_a 21.683992
_cell_length_b 7.149644
_cell_length_c 14.537204
_cell_angle_alpha 90.000000
_cell_angle_beta 90.000000
_cell_angle_gamma 90.000000
_cell_volume 2253.743779
_symmetry_space_group_name_H-M "C 2 2 21"
_symmetry_group_IT_number 20
_symmetry_cell_setting 'orthorhombic'
loop_
_space_group_symop_operation_xyz
x,y,z
-x,-y,1/2+z
x,-y,-z
-x,y,1/2-z
1/2+x,1/2+y,z
1/2-x,1/2-y,1/2+z
1/2+x,1/2-y,-z
1/2-x,1/2+y,1/2-z
loop_
_atom_site_type_symbol
_atom_site_label
_atom_site_fract_x
_atom_site_fract_y
_atom_site_fract_z
Si Si1 0.732911 0.747689 0.363221
Si Si2 0.606197 0.595080 0.396459
Si Si3 0.302203 0.202488 0.543789
Si Si4 0.498952 0.682686 0.856670
Si Si5 0.906802 0.529992 0.097902
Si Si6 0.595247 0.500000 0.000000
Si Si7 0.294658 0.830366 0.811686
O O1 0.676016 0.602778 0.357458
O O2 0.753441 0.766460 0.467120
O O3 0.586792 0.812630 0.377663
O O4 0.788751 0.697260 0.296543
O O5 0.610357 0.500000 0.500000
O O6 0.551198 0.481858 0.352532
O O7 0.635591 0.178575 0.347219
O O8 0.359935 0.341872 0.543856
O O9 0.261130 0.221690 0.636480
O O10 0.319742 0.000000 0.500000
O O11 0.500000 0.747126 0.750000
O O12 0.470885 0.860781 0.910939
O O13 0.554473 0.597111 0.918725
O O14 0.785256 0.451523 0.168784
O O15 0.874528 0.500000 0.000000
#
# Coordination Sequence:
#
# PCOD9321633 Si02
#       7
#     8   8   8   8   8   4   8
#     4  11  24  41  71 108 151 185 237 306 370 436
#     4  11  23  45  74 105 140 194 253 302 362 440
#     4  12  26  44  70 104 150 196 232 298 377 439
#     4  12  29  48  77 104 148 203 250 313 356 443
#     4  11  23  44  75 105 135 190 257 304 363 431
#     4  12  28  52  68 106 156 196 248 300 370 444
#     4  11  24  42  70 111 148 186 238 304 371 445
#
# _framework density 23.072721999999999
#
# number of rings (size 3 to 8) (size 9 to 14) (size 15 to 20)
#    0.000    0.615    3.846    3.231    8.615    2.462 
#    0.000    0.000    0.000    0.000    0.000    0.000 
#    0.000    0.000    0.000    0.000    0.000    0.000 
#
# Total GULP energy -144892.379254 kJ/mol
# GULP energy per Si atom -5572.783817 kJ/mol
# Density = 2.302021 g / cm^3
# Si number density = 23.072722 Si / 1000 Ang^3
#
#
#
# Elastic Constant Matrix: (Units=GPa)
#
#
# Indices 1 2 3 4 5 6 
#
# 1 92.5418 58.7004 8.3748 0.0000 0.0000 0.0000
# 2 58.7004 125.0741 -4.2525 0.0000 0.0000 0.0000
# 3 8.3748 -4.2525 62.0694 0.0000 0.0000 0.0000
# 4 0.0000 0.0000 0.0000 27.5298 0.0000 0.0000
# 5 0.0000 0.0000 0.0000 0.0000 -46.5379 0.0000
# 6 0.0000 0.0000 0.0000 0.0000 0.0000 36.2859
#
#
#
# Elastic Compliance Matrix: (Units=1/GPa)
#
#
# Indices 1 2 3 4 5 6 
#
# 1 0.015809 -0.007510 -0.002648 0.000000 0.000000 0.000000
# 2 -0.007510 0.011581 0.001807 0.000000 0.000000 0.000000
# 3 -0.002648 0.001807 0.016592 0.000000 0.000000 0.000000
# 4 0.000000 0.000000 0.000000 0.036324 0.000000 0.000000
# 5 0.000000 0.000000 0.000000 0.000000 -0.021488 0.000000
# 6 0.000000 0.000000 0.000000 0.000000 0.000000 0.027559
#
#
# Mechanical properties :
#
#
# Convention : Reuss Voigt Hill
#
# Bulk Modulus (GPa) = 36.65524 45.03675 40.84599
# Shear Modulus (GPa) = 44.57445 17.91306 31.24375
#
# Velocity S-wave (km/s) = 4.40012 2.78937 3.68386
# Velocity P-wave (km/s) = 6.46034 5.47138 5.98632
#
# Compressibility (1/GPa) = 0.02728123
#
# Stress axis : x y z
#
# Youngs Moduli (GPa) = 63.25542 86.34759 60.27004
#
# Poissons Ratio (x) = 0.64843 0.15957
# Poissons Ratio (y) = 0.47502 -0.10889
# Poissons Ratio (z) = 0.16747 -0.15600
#
# Static dielectric constant tensor:
#      x y z
#    x 1.975060 0.000000 0.000000 
#    y 0.000000 8.285080 0.000000 
#    z 0.000000 0.000000 2.081200 
# 
# From -- ./inp_files/21727.got.cif
#   From: 2010.05.17/outbox.cif.g08.bks.cpg/sg20_11_cif.got.tgz:21727.got - 2010.06.03 22:52:26.
