data_PCOD9321806
_publ_section_title
;
Structure prediction by ZEFSAII (Michael W. Deem and Ramdas Pophale) SiO2 
 PCOD9321806
Probable space group: C 2 2 21
;
_chemical_formula_sum "Si O2"
_cell_formula_units_Z 44
_cell_length_a 12.925756
_cell_length_b 8.691224
_cell_length_c 17.028605
_cell_angle_alpha 90.000000
_cell_angle_beta 90.000000
_cell_angle_gamma 90.000000
_cell_volume 1913.004397
_symmetry_space_group_name_H-M "C 2 2 21"
_symmetry_group_IT_number 20
_symmetry_cell_setting 'orthorhombic'
loop_
_space_group_symop_operation_xyz
x,y,z
-x,-y,1/2+z
x,-y,-z
-x,y,1/2-z
1/2+x,1/2+y,z
1/2-x,1/2-y,1/2+z
1/2+x,1/2-y,-z
1/2-x,1/2+y,1/2-z
loop_
_atom_site_type_symbol
_atom_site_label
_atom_site_fract_x
_atom_site_fract_y
_atom_site_fract_z
Si Si1 0.369536 0.294132 0.876580
Si Si2 0.371471 0.358256 0.140328
Si Si3 0.754963 0.180048 0.497268
Si Si4 0.939576 0.649456 0.553705
Si Si5 0.340177 0.101052 0.723421
Si Si6 0.000000 0.664921 0.250000
O O1 0.401465 0.469935 0.884259
O O2 0.261692 0.266605 0.919885
O O3 0.442973 0.189539 0.930212
O O4 0.367902 0.227554 0.789019
O O5 0.282526 0.391318 0.206998
O O6 0.470192 0.270675 0.175863
O O7 0.313715 0.264605 0.070692
O O8 0.874911 0.209151 0.479424
O O9 0.733034 0.000000 0.500000
O O10 0.926641 0.500000 0.500000
O O11 0.892070 0.628503 0.639796
O O12 0.397386 0.942877 0.747457
#
# Coordination Sequence:
#
# PCOD9321806 Si02
#       6
#     8   8   8   8   8   4
#     4  12  24  47  75 103 155 193 257 321 390 468
#     4  11  27  45  72 111 148 196 260 321 382 484
#     4  11  25  47  70 104 146 195 250 318 391 467
#     4  11  25  46  74 104 147 195 252 316 394 466
#     4  11  24  49  72 109 147 197 252 324 388 467
#     4  12  24  44  76 104 150 200 252 312 404 444
#
# _framework density 23.000471000000001
#
# number of rings (size 3 to 8) (size 9 to 14) (size 15 to 20)
#    0.000    0.727    1.818    5.455    5.091    2.909 
#    3.273    0.000    0.000    0.000    0.000    0.000 
#    0.000    0.000    0.000    0.000    0.000    0.000 
#
# Total GULP energy -122958.340746 kJ/mol
# GULP energy per Si atom -5589.015488 kJ/mol
# Density = 2.294812 g / cm^3
# Si number density = 23.000471 Si / 1000 Ang^3
#
#
#
# Elastic Constant Matrix: (Units=GPa)
#
#
# Indices 1 2 3 4 5 6 
#
# 1 39.9557 9.8760 20.9694 0.0000 0.0000 0.0000
# 2 9.8760 152.7366 56.7355 0.0000 0.0000 0.0000
# 3 20.9694 56.7355 107.4968 0.0000 0.0000 0.0000
# 4 0.0000 0.0000 0.0000 18.8870 0.0000 0.0000
# 5 0.0000 0.0000 0.0000 0.0000 29.5407 0.0000
# 6 0.0000 0.0000 0.0000 0.0000 0.0000 30.6022
#
#
#
# Elastic Compliance Matrix: (Units=1/GPa)
#
#
# Indices 1 2 3 4 5 6 
#
# 1 0.027891 0.000271 -0.005584 0.000000 0.000000 0.000000
# 2 0.000271 0.008146 -0.004352 0.000000 0.000000 0.000000
# 3 -0.005584 -0.004352 0.012689 0.000000 0.000000 0.000000
# 4 0.000000 0.000000 0.000000 0.052946 0.000000 0.000000
# 5 0.000000 0.000000 0.000000 0.000000 0.033852 0.000000
# 6 0.000000 0.000000 0.000000 0.000000 0.000000 0.032677
#
#
# Mechanical properties :
#
#
# Convention : Reuss Voigt Hill
#
# Bulk Modulus (GPa) = 34.01838 52.81678 43.41758
# Shear Modulus (GPa) = 25.33810 29.97986 27.65898
#
# Velocity S-wave (km/s) = 3.32269 3.61424 3.47153
# Velocity P-wave (km/s) = 5.43532 6.35847 5.91494
#
# Compressibility (1/GPa) = 0.02939588
#
# Stress axis : x y z
#
# Youngs Moduli (GPa) = 35.85363 122.75271 78.80879
#
# Poissons Ratio (x) = -0.03322 0.44003
# Poissons Ratio (y) = -0.00970 0.34301
# Poissons Ratio (z) = 0.20019 0.53427
#
# Static dielectric constant tensor:
#      x y z
#    x 1.919190 0.000000 0.000000 
#    y 0.000000 1.838900 0.000000 
#    z 0.000000 0.000000 2.032800 
# 
# From -- ./inp_files/24735.got.cif
#   From: 2010.05.17/outbox.cif.g08.bks.cpg/sg20_13_cif.got.tgz:24735.got - 2010.06.03 22:52:26.
