data_PCOD9321099
_publ_section_title
;
Structure prediction by ZEFSAII (Michael W. Deem and Ramdas Pophale) SiO2 
 PCOD9321099
Probable space group: C 2 2 21
;
_chemical_formula_sum "Si O2"
_cell_formula_units_Z 28
_cell_length_a 7.382184
_cell_length_b 19.694166
_cell_length_c 7.027690
_cell_angle_alpha 90.000000
_cell_angle_beta 90.000000
_cell_angle_gamma 90.000000
_cell_volume 1021.727437
_symmetry_space_group_name_H-M "C 2 2 21"
_symmetry_group_IT_number 20
_symmetry_cell_setting 'orthorhombic'
loop_
_space_group_symop_operation_xyz
x,y,z
-x,-y,1/2+z
x,-y,-z
-x,y,1/2-z
1/2+x,1/2+y,z
1/2-x,1/2-y,1/2+z
1/2+x,1/2-y,-z
1/2-x,1/2+y,1/2-z
loop_
_atom_site_type_symbol
_atom_site_label
_atom_site_fract_x
_atom_site_fract_y
_atom_site_fract_z
Si Si1 0.199012 0.651095 0.227708
Si Si2 0.500000 0.254945 0.750000
Si Si3 0.715140 0.648272 0.727179
Si Si4 0.784373 0.996873 0.777176
O O1 0.357678 0.691042 0.336169
O O2 0.197967 0.572748 0.291914
O O3 0.000000 0.681202 0.250000
O O4 0.247625 0.653876 0.001707
O O5 0.350380 0.201574 0.824942
O O6 0.500000 0.657851 0.750000
O O7 0.763110 0.571811 0.793417
O O8 0.000000 0.988844 0.750000
O O9 0.745336 0.000000 0.000000
#
# Coordination Sequence:
#
# PCOD9321099 Si02
#       4
#     8   4   8   8
#     4  11  25  43  70 102 142 182 236 290 356 420
#     4  12  26  40  70 100 142 184 230 298 350 426
#     4  10  25  45  71  98 141 185 238 289 354 420
#     4   9  19  44  67  98 132 182 235 289 341 421
#
# _framework density 27.404568000000001
#
# number of rings (size 3 to 8) (size 9 to 14) (size 15 to 20)
#    0.000    1.714    1.429    0.857   10.000    0.000 
#    5.143    0.000    0.000    0.000    0.000    0.000 
#    0.000    0.000    0.000    0.000    0.000    0.000 
#
# Total GULP energy -78291.796752 kJ/mol
# GULP energy per Si atom -5592.271197 kJ/mol
# Density = 2.734219 g / cm^3
# Si number density = 27.404568 Si / 1000 Ang^3
#
#
#
# Elastic Constant Matrix: (Units=GPa)
#
#
# Indices 1 2 3 4 5 6 
#
# 1 232.2565 91.7974 46.2914 0.0000 0.0000 0.0000
# 2 91.7974 250.2793 -0.9090 0.0000 0.0000 0.0000
# 3 46.2914 -0.9090 155.9856 0.0000 0.0000 0.0000
# 4 0.0000 0.0000 0.0000 -15.3269 0.0000 0.0000
# 5 0.0000 0.0000 0.0000 0.0000 40.5830 0.0000
# 6 0.0000 0.0000 0.0000 0.0000 0.0000 55.6961
#
#
#
# Elastic Compliance Matrix: (Units=1/GPa)
#
#
# Indices 1 2 3 4 5 6 
#
# 1 0.005416 -0.001992 -0.001619 0.000000 0.000000 0.000000
# 2 -0.001992 0.004728 0.000619 0.000000 0.000000 0.000000
# 3 -0.001619 0.000619 0.006895 0.000000 0.000000 0.000000
# 4 0.000000 0.000000 0.000000 -0.065245 0.000000 0.000000
# 5 0.000000 0.000000 0.000000 0.000000 0.024641 0.000000
# 6 0.000000 0.000000 0.000000 0.000000 0.000000 0.017955
#
#
# Mechanical properties :
#
#
# Convention : Reuss Voigt Hill
#
# Bulk Modulus (GPa) = 90.46076 101.43121 95.94599
# Shear Modulus (GPa) = 1231.82980 49.61322 640.72151
#
# Velocity S-wave (km/s) = 21.22437 4.25949 15.30714
# Velocity P-wave (km/s) = 25.17365 7.82841 18.64131
#
# Compressibility (1/GPa) = 0.01105452
#
# Stress axis : x y z
#
# Youngs Moduli (GPa) = 184.65041 211.48395 145.03560
#
# Poissons Ratio (x) = 0.42132 0.23478
# Poissons Ratio (y) = 0.36787 -0.08975
# Poissons Ratio (z) = 0.29891 -0.13086
#
# Static dielectric constant tensor:
#      x y z
#    x 2.008350 0.000000 0.000000 
#    y 0.000000 2.132620 0.000000 
#    z 0.000000 0.000000 2.408440 
# 
# From -- ./inp_files/11831.got.cif
#   From: 2010.05.17/outbox.cif.g08.bks.cpg/sg20_6_cif.got.tgz:11831.got - 2010.06.03 22:52:26.
