data_PCOD9321194
_publ_section_title
;
Structure prediction by ZEFSAII (Michael W. Deem and Ramdas Pophale) SiO2 
 PCOD9321194
Probable space group: C 2 2 21
;
_chemical_formula_sum "Si O2"
_cell_formula_units_Z 36
_cell_length_a 19.655564
_cell_length_b 7.927396
_cell_length_c 10.254172
_cell_angle_alpha 90.000000
_cell_angle_beta 90.000000
_cell_angle_gamma 90.000000
_cell_volume 1597.778825
_symmetry_space_group_name_H-M "C 2 2 21"
_symmetry_group_IT_number 20
_symmetry_cell_setting 'orthorhombic'
loop_
_space_group_symop_operation_xyz
x,y,z
-x,-y,1/2+z
x,-y,-z
-x,y,1/2-z
1/2+x,1/2+y,z
1/2-x,1/2-y,1/2+z
1/2+x,1/2-y,-z
1/2-x,1/2+y,1/2-z
loop_
_atom_site_type_symbol
_atom_site_label
_atom_site_fract_x
_atom_site_fract_y
_atom_site_fract_z
Si Si1 0.500000 0.500000 0.250000
Si Si2 0.621185 0.344161 0.598004
Si Si3 0.170871 0.500000 0.000000
Si Si4 0.170871 0.500000 0.500000
Si Si5 0.878814 0.844160 0.401996
Si Si6 0.734976 0.499999 0.750001
O O1 0.450479 0.616400 0.164601
O O2 0.450477 0.383601 0.335394
O O3 0.633430 0.500000 0.500000
O O4 0.681829 0.355198 0.704256
O O5 0.626911 0.165615 0.528843
O O6 0.126911 0.665615 0.028842
O O7 0.218697 0.465442 0.124711
O O8 0.218697 0.534561 0.375289
O O9 0.866570 0.000000 0.500000
O O10 0.818168 0.855194 0.295746
#
# Coordination Sequence:
#
# PCOD9321194 Si02
#       6
#     4   8   4   4   8   8
#     4  10  26  52  78 106 156 210 268 304 386 424
#     4  11  26  48  77 110 155 205 251 319 371 461
#     4  12  28  44  79 119 152 196 254 308 398 452
#     4  12  28  44  79 119 152 196 254 308 398 452
#     4  11  26  48  77 110 155 205 251 319 371 461
#     4  11  26  43  76 119 156 187 246 316 388 459
#
# _framework density 22.531278
#
# number of rings (size 3 to 8) (size 9 to 14) (size 15 to 20)
#    0.000    0.889    2.222    2.000   18.667    0.000 
#    0.000    6.667    0.000    0.000    0.000    0.000 
#    0.000    0.000    0.000    0.000    0.000    0.000 
#
# Total GULP energy -100845.584221 kJ/mol
# GULP energy per Si atom -5602.532457 kJ/mol
# Density = 2.248000 g / cm^3
# Si number density = 22.531278 Si / 1000 Ang^3
#
#
#
# Elastic Constant Matrix: (Units=GPa)
#
#
# Indices 1 2 3 4 5 6 
#
# 1 177.9750 90.7069 88.8850 0.0000 0.0000 0.0000
# 2 90.7069 215.7436 79.7207 0.0000 0.0000 0.0000
# 3 88.8850 79.7207 164.6923 0.0000 0.0000 0.0000
# 4 0.0000 0.0000 0.0000 44.5516 0.0000 0.0000
# 5 0.0000 0.0000 0.0000 0.0000 39.7194 0.0000
# 6 0.0000 0.0000 0.0000 0.0000 0.0000 16.6553
#
#
#
# Elastic Compliance Matrix: (Units=1/GPa)
#
#
# Indices 1 2 3 4 5 6 
#
# 1 0.008535 -0.002297 -0.003494 0.000000 0.000000 0.000000
# 2 -0.002297 0.006263 -0.001792 0.000000 0.000000 0.000000
# 3 -0.003494 -0.001792 0.008825 0.000000 0.000000 0.000000
# 4 0.000000 0.000000 0.000000 0.022446 0.000000 0.000000
# 5 0.000000 0.000000 0.000000 0.000000 0.025177 0.000000
# 6 0.000000 0.000000 0.000000 0.000000 0.000000 0.060041
#
#
# Mechanical properties :
#
#
# Convention : Reuss Voigt Hill
#
# Bulk Modulus (GPa) = 118.25471 119.67069 118.96270
# Shear Modulus (GPa) = 33.49594 40.12512 36.81053
#
# Velocity S-wave (km/s) = 3.85988 4.22461 4.04636
# Velocity P-wave (km/s) = 8.51255 8.77638 8.64547
#
# Compressibility (1/GPa) = 0.00845632
#
# Stress axis : x y z
#
# Youngs Moduli (GPa) = 117.16988 159.66601 113.31217
#
# Poissons Ratio (x) = 0.36677 0.39594
# Poissons Ratio (y) = 0.26915 0.20305
# Poissons Ratio (z) = 0.40942 0.28611
#
# Static dielectric constant tensor:
#      x y z
#    x 1.804300 0.000000 0.000000 
#    y 0.000000 1.917180 0.000000 
#    z 0.000000 0.000000 1.878020 
# 
# From -- ./inp_files/9893.got.cif
#   From: 2010.05.17/outbox.cif.g08.bks.cpg/sg20_5_cif.got.tgz:9893.got - 2010.06.03 22:52:26.
