data_PCOD9321735
_publ_section_title
;
Structure prediction by ZEFSAII (Michael W. Deem and Ramdas Pophale) SiO2 
 PCOD9321735
Probable space group: C 2 2 21
;
_chemical_formula_sum "Si O2"
_cell_formula_units_Z 20
_cell_length_a 17.123801
_cell_length_b 6.036080
_cell_length_c 7.398739
_cell_angle_alpha 90.000000
_cell_angle_beta 90.000000
_cell_angle_gamma 90.000000
_cell_volume 764.738345
_symmetry_space_group_name_H-M "C 2 2 21"
_symmetry_group_IT_number 20
_symmetry_cell_setting 'orthorhombic'
loop_
_space_group_symop_operation_xyz
x,y,z
-x,-y,1/2+z
x,-y,-z
-x,y,1/2-z
1/2+x,1/2+y,z
1/2-x,1/2-y,1/2+z
1/2+x,1/2-y,-z
1/2-x,1/2+y,1/2-z
loop_
_atom_site_type_symbol
_atom_site_label
_atom_site_fract_x
_atom_site_fract_y
_atom_site_fract_z
Si Si1 0.654780 0.301851 0.357287
Si Si2 0.210461 0.000000 0.000000
Si Si3 0.991205 0.736844 0.533806
O O1 0.664706 0.500000 0.500000
O O2 0.660660 0.374610 0.150492
O O3 0.570595 0.207252 0.413327
O O4 0.729737 0.150265 0.388060
O O5 0.946399 0.500000 0.500000
O O6 0.000000 0.736823 0.750000
O O7 0.974663 0.000000 0.500000
#
# Coordination Sequence:
#
# PCOD9321735 Si02
#       3
#     8   4   8
#     4  11  24  43  72 112 150 196 249 316 387 458
#     4  12  22  44  74 108 154 190 250 316 392 462
#     4  11  25  51  76 110 152 202 266 315 379 454
#
# _framework density 26.152735
#
# number of rings (size 3 to 8) (size 9 to 14) (size 15 to 20)
#    0.000    0.800    6.000    1.200    0.000    0.000 
#   28.800    2.000    0.000    0.000    0.000    0.000 
#    0.000    0.000    0.000    0.000    0.000    0.000 
#
# Total GULP energy -55848.141848 kJ/mol
# GULP energy per Si atom -5584.814185 kJ/mol
# Density = 2.609321 g / cm^3
# Si number density = 26.152735 Si / 1000 Ang^3
#
#
#
# Elastic Constant Matrix: (Units=GPa)
#
#
# Indices 1 2 3 4 5 6 
#
# 1 128.6677 38.5119 46.9598 0.0000 0.0000 0.0000
# 2 38.5119 225.2802 74.2183 0.0000 0.0000 0.0000
# 3 46.9598 74.2183 224.4003 0.0000 0.0000 0.0000
# 4 0.0000 0.0000 0.0000 62.7936 0.0000 0.0000
# 5 0.0000 0.0000 0.0000 0.0000 141.8292 0.0000
# 6 0.0000 0.0000 0.0000 0.0000 0.0000 134.3455
#
#
#
# Elastic Compliance Matrix: (Units=1/GPa)
#
#
# Indices 1 2 3 4 5 6 
#
# 1 0.008605 -0.000985 -0.001475 0.000000 0.000000 0.000000
# 2 -0.000985 0.005095 -0.001479 0.000000 0.000000 0.000000
# 3 -0.001475 -0.001479 0.005254 0.000000 0.000000 0.000000
# 4 0.000000 0.000000 0.000000 0.015925 0.000000 0.000000
# 5 0.000000 0.000000 0.000000 0.000000 0.007051 0.000000
# 6 0.000000 0.000000 0.000000 0.000000 0.000000 0.007443
#
#
# Mechanical properties :
#
#
# Convention : Reuss Voigt Hill
#
# Bulk Modulus (GPa) = 90.28578 99.74759 95.01668
# Shear Modulus (GPa) = 82.04397 95.70420 88.87408
#
# Velocity S-wave (km/s) = 5.60707 6.05589 5.83579
# Velocity P-wave (km/s) = 8.74736 9.33389 9.04538
#
# Compressibility (1/GPa) = 0.01107594
#
# Stress axis : x y z
#
# Youngs Moduli (GPa) = 116.20968 196.28946 190.32819
#
# Poissons Ratio (x) = 0.19337 0.28073
# Poissons Ratio (y) = 0.11448 0.28146
# Poissons Ratio (z) = 0.17140 0.29027
#
# Static dielectric constant tensor:
#      x y z
#    x 2.076610 0.000000 0.000000 
#    y 0.000000 -0.747240 0.000000 
#    z 0.000000 0.000000 1.561890 
# 
# From -- ./inp_files/139.got.cif
#   From: 2010.05.17/outbox.cif.g08.bks.cpg/sg20_1_cif.got.tgz:139.got - 2010.06.03 22:52:26.
