data_PCOD9321059
_publ_section_title
;
Structure prediction by ZEFSAII (Michael W. Deem and Ramdas Pophale) SiO2 
 PCOD9321059
Probable space group: C 2 2 21
;
_chemical_formula_sum "Si O2"
_cell_formula_units_Z 24
_cell_length_a 4.969177
_cell_length_b 21.966914
_cell_length_c 8.432717
_cell_angle_alpha 90.000000
_cell_angle_beta 90.000000
_cell_angle_gamma 90.000000
_cell_volume 920.494169
_symmetry_space_group_name_H-M "C 2 2 21"
_symmetry_group_IT_number 20
_symmetry_cell_setting 'orthorhombic'
loop_
_space_group_symop_operation_xyz
x,y,z
-x,-y,1/2+z
x,-y,-z
-x,y,1/2-z
1/2+x,1/2+y,z
1/2-x,1/2-y,1/2+z
1/2+x,1/2-y,-z
1/2-x,1/2+y,1/2-z
loop_
_atom_site_type_symbol
_atom_site_label
_atom_site_fract_x
_atom_site_fract_y
_atom_site_fract_z
Si Si1 0.500000 0.004839 0.750000
Si Si2 0.500000 0.362294 0.250000
Si Si3 0.630747 0.087671 0.014476
Si Si4 0.866231 0.709898 0.970655
O O1 0.305735 0.956815 0.660406
O O2 0.432255 0.050341 0.894229
O O3 0.621478 0.398468 0.398440
O O4 0.264491 0.319360 0.314671
O O5 0.496584 0.151689 0.059143
O O6 0.605233 0.741546 0.048447
#
# Coordination Sequence:
#
# PCOD9321059 Si02
#       4
#     4   4   8   8
#     4  10  24  51  80 116 163 216 282 340 404 516
#     4  12  24  51  76 120 163 220 274 350 424 498
#     4  11  24  52  80 119 163 216 278 344 428 485
#     4  12  26  48  79 112 163 215 273 340 420 495
#
# _framework density 26.072952000000001
#
# number of rings (size 3 to 8) (size 9 to 14) (size 15 to 20)
#    0.000    0.667    6.667    0.000    0.000    1.333 
#   18.000    0.000    0.000    0.000    0.000    0.000 
#    0.000    0.000    0.000    0.000    0.000    0.000 
#
# Total GULP energy -67003.072194 kJ/mol
# GULP energy per Si atom -5583.589349 kJ/mol
# Density = 2.601361 g / cm^3
# Si number density = 26.072952 Si / 1000 Ang^3
#
#
#
# Elastic Constant Matrix: (Units=GPa)
#
#
# Indices 1 2 3 4 5 6 
#
# 1 184.8610 83.5483 49.1984 0.0000 0.0000 0.0000
# 2 83.5483 174.8885 45.9862 0.0000 0.0000 0.0000
# 3 49.1984 45.9862 90.9960 0.0000 0.0000 0.0000
# 4 0.0000 0.0000 0.0000 46.8820 0.0000 0.0000
# 5 0.0000 0.0000 0.0000 0.0000 33.7225 0.0000
# 6 0.0000 0.0000 0.0000 0.0000 0.0000 -11.8517
#
#
#
# Elastic Compliance Matrix: (Units=1/GPa)
#
#
# Indices 1 2 3 4 5 6 
#
# 1 0.007377 -0.002855 -0.002546 0.000000 0.000000 0.000000
# 2 -0.002855 0.007699 -0.002347 0.000000 0.000000 0.000000
# 3 -0.002546 -0.002347 0.013552 0.000000 0.000000 0.000000
# 4 0.000000 0.000000 0.000000 0.021330 0.000000 0.000000
# 5 0.000000 0.000000 0.000000 0.000000 0.029654 0.000000
# 6 0.000000 0.000000 0.000000 0.000000 0.000000 -0.084376
#
#
# Mechanical properties :
#
#
# Convention : Reuss Voigt Hill
#
# Bulk Modulus (GPa) = 76.14754 89.80127 82.97441
# Shear Modulus (GPa) = 330.90690 31.88473 181.39581
#
# Velocity S-wave (km/s) = 11.27791 3.50080 8.35006
# Velocity P-wave (km/s) = 14.10168 7.13147 11.17397
#
# Compressibility (1/GPa) = 0.01313240
#
# Stress axis : x y z
#
# Youngs Moduli (GPa) = 135.55105 129.88756 73.78880
#
# Poissons Ratio (x) = 0.37081 0.18786
# Poissons Ratio (y) = 0.38698 0.17320
# Poissons Ratio (z) = 0.34510 0.30488
#
# Static dielectric constant tensor:
#      x y z
#    x 2.086720 0.000000 0.000000 
#    y 0.000000 2.099390 0.000000 
#    z 0.000000 0.000000 2.126090 
# 
# From -- ./inp_files/4992.got.cif
#   From: 2010.05.17/outbox.cif.g08.bks.cpg/sg20_3_cif.got.tgz:4992.got - 2010.06.03 22:52:26.
