data_PCOD9321052
_publ_section_title
;
Structure prediction by ZEFSAII (Michael W. Deem and Ramdas Pophale) SiO2 
 PCOD9321052
Probable space group: C 2 2 21
;
_chemical_formula_sum "Si O2"
_cell_formula_units_Z 28
_cell_length_a 5.184121
_cell_length_b 14.290493
_cell_length_c 13.499543
_cell_angle_alpha 90.000000
_cell_angle_beta 90.000000
_cell_angle_gamma 90.000000
_cell_volume 1000.095349
_symmetry_space_group_name_H-M "C 2 2 21"
_symmetry_group_IT_number 20
_symmetry_cell_setting 'orthorhombic'
loop_
_space_group_symop_operation_xyz
x,y,z
-x,-y,1/2+z
x,-y,-z
-x,y,1/2-z
1/2+x,1/2+y,z
1/2-x,1/2-y,1/2+z
1/2+x,1/2-y,-z
1/2-x,1/2+y,1/2-z
loop_
_atom_site_type_symbol
_atom_site_label
_atom_site_fract_x
_atom_site_fract_y
_atom_site_fract_z
Si Si1 0.755953 0.939087 0.697058
Si Si2 0.144133 0.233211 0.857856
Si Si3 0.103277 0.896205 0.522035
Si Si4 0.000000 0.622164 0.750000
O O1 0.500000 0.903312 0.750000
O O2 0.000000 0.894574 0.750000
O O3 0.843145 0.921911 0.585416
O O4 0.727955 0.046683 0.732421
O O5 0.200122 0.328886 0.918521
O O6 0.432097 0.190943 0.839520
O O7 0.000000 0.230225 0.750000
O O8 0.986806 0.162945 0.928176
O O9 0.218243 0.000000 0.500000
#
# Coordination Sequence:
#
# PCOD9321052 Si02
#       4
#     8   8   8   4
#     4  10  24  49  87 131 178 235 306 379 461 554
#     4  12  31  58  88 137 187 245 318 392 471 557
#     4  12  29  57  93 132 181 250 313 384 473 568
#     4  10  24  54  90 122 186 232 300 384 466 560
#
# _framework density 27.997329000000001
#
# number of rings (size 3 to 8) (size 9 to 14) (size 15 to 20)
#    0.857    0.000    2.857    0.857    6.000    3.429 
#    0.000    5.714    0.000    0.000    0.000    0.000 
#    0.000    0.000    0.000    0.000    0.000    0.000 
#
# Total GULP energy -78075.133796 kJ/mol
# GULP energy per Si atom -5576.795271 kJ/mol
# Density = 2.793361 g / cm^3
# Si number density = 27.997329 Si / 1000 Ang^3
#
#
#
# Elastic Constant Matrix: (Units=GPa)
#
#
# Indices 1 2 3 4 5 6 
#
# 1 139.2329 52.8773 78.3251 0.0000 0.0000 0.0000
# 2 52.8773 257.6171 105.6440 0.0000 0.0000 0.0000
# 3 78.3251 105.6440 220.7127 0.0000 0.0000 0.0000
# 4 0.0000 0.0000 0.0000 46.2268 0.0000 0.0000
# 5 0.0000 0.0000 0.0000 0.0000 58.8718 0.0000
# 6 0.0000 0.0000 0.0000 0.0000 0.0000 20.1199
#
#
#
# Elastic Compliance Matrix: (Units=1/GPa)
#
#
# Indices 1 2 3 4 5 6 
#
# 1 0.009067 -0.000674 -0.002895 0.000000 0.000000 0.000000
# 2 -0.000674 0.004880 -0.002097 0.000000 0.000000 0.000000
# 3 -0.002895 -0.002097 0.006562 0.000000 0.000000 0.000000
# 4 0.000000 0.000000 0.000000 0.021632 0.000000 0.000000
# 5 0.000000 0.000000 0.000000 0.000000 0.016986 0.000000
# 6 0.000000 0.000000 0.000000 0.000000 0.000000 0.049702
#
#
# Mechanical properties :
#
#
# Convention : Reuss Voigt Hill
#
# Bulk Modulus (GPa) = 108.96399 121.25060 115.10730
# Shear Modulus (GPa) = 40.57822 50.42477 45.50150
#
# Velocity S-wave (km/s) = 3.81118 4.24849 4.03576
# Velocity P-wave (km/s) = 7.64007 8.21390 7.93218
#
# Compressibility (1/GPa) = 0.00917734
#
# Stress axis : x y z
#
# Youngs Moduli (GPa) = 110.29387 204.92610 152.39995
#
# Poissons Ratio (x) = 0.13808 0.44120
# Poissons Ratio (y) = 0.07432 0.31952
# Poissons Ratio (z) = 0.31930 0.42965
#
# Static dielectric constant tensor:
#      x y z
#    x 2.734320 0.000000 0.000000 
#    y 0.000000 2.434810 0.000000 
#    z 0.000000 0.000000 2.289500 
# 
# From -- ./inp_files/17374.got.cif
#   From: 2010.05.17/outbox.cif.g08.bks.cpg/sg20_9_cif.got.tgz:17374.got - 2010.06.03 22:52:26.
