data_PCOD9321911
_publ_section_title
;
Structure prediction by ZEFSAII (Michael W. Deem and Ramdas Pophale) SiO2 
 PCOD9321911
Probable space group: C 2 2 21
;
_chemical_formula_sum "Si O2"
_cell_formula_units_Z 32
_cell_length_a 13.812483
_cell_length_b 5.387139
_cell_length_c 16.858773
_cell_angle_alpha 90.000000
_cell_angle_beta 90.000000
_cell_angle_gamma 90.000000
_cell_volume 1254.457352
_symmetry_space_group_name_H-M "C 2 2 21"
_symmetry_group_IT_number 20
_symmetry_cell_setting 'orthorhombic'
loop_
_space_group_symop_operation_xyz
x,y,z
-x,-y,1/2+z
x,-y,-z
-x,y,1/2-z
1/2+x,1/2+y,z
1/2-x,1/2-y,1/2+z
1/2+x,1/2-y,-z
1/2-x,1/2+y,1/2-z
loop_
_atom_site_type_symbol
_atom_site_label
_atom_site_fract_x
_atom_site_fract_y
_atom_site_fract_z
Si Si1 0.400276 0.244761 0.448689
Si Si2 0.236216 0.979574 0.853671
Si Si3 0.891455 0.116901 0.912427
Si Si4 0.393617 0.231622 0.764504
O O1 0.398504 0.500000 0.500000
O O2 0.305766 0.275291 0.394371
O O3 0.505348 0.240131 0.406902
O O4 0.393112 0.000000 0.500000
O O5 0.311439 0.033585 0.783612
O O6 0.299998 0.800630 0.907829
O O7 0.141210 0.860693 0.815826
O O8 0.892488 0.920210 0.839755
O O9 0.890241 0.000000 0.000000
O O10 0.500000 0.130943 0.750000
#
# Coordination Sequence:
#
# PCOD9321911 Si02
#       4
#     8   8   8   8
#     4  11  29  51  80 121 166 215 277 350 415 490
#     4  12  28  48  82 114 162 221 275 342 422 504
#     4  11  28  52  79 118 167 219 281 350 418 498
#     4  12  27  50  77 118 161 213 274 338 418 500
#
# _framework density 25.509038
#
# number of rings (size 3 to 8) (size 9 to 14) (size 15 to 20)
#    0.000    0.500    5.000    0.000   14.000    3.000 
#    0.000    0.000    0.000    0.000    0.000    0.000 
#    0.000    0.000    0.000    0.000    0.000    0.000 
#
# Total GULP energy -89715.523104 kJ/mol
# GULP energy per Si atom -5607.220194 kJ/mol
# Density = 2.545098 g / cm^3
# Si number density = 25.509038 Si / 1000 Ang^3
#
#
#
# Elastic Constant Matrix: (Units=GPa)
#
#
# Indices 1 2 3 4 5 6 
#
# 1 161.9972 22.0282 47.8416 0.0000 0.0000 0.0000
# 2 22.0282 74.2098 30.5903 0.0000 0.0000 0.0000
# 3 47.8416 30.5903 89.6719 0.0000 0.0000 0.0000
# 4 0.0000 0.0000 0.0000 57.1198 0.0000 0.0000
# 5 0.0000 0.0000 0.0000 0.0000 36.8254 0.0000
# 6 0.0000 0.0000 0.0000 0.0000 0.0000 31.3679
#
#
#
# Elastic Compliance Matrix: (Units=1/GPa)
#
#
# Indices 1 2 3 4 5 6 
#
# 1 0.007355 -0.000658 -0.003699 0.000000 0.000000 0.000000
# 2 -0.000658 0.015739 -0.005018 0.000000 0.000000 0.000000
# 3 -0.003699 -0.005018 0.014837 0.000000 0.000000 0.000000
# 4 0.000000 0.000000 0.000000 0.017507 0.000000 0.000000
# 5 0.000000 0.000000 0.000000 0.000000 0.027155 0.000000
# 6 0.000000 0.000000 0.000000 0.000000 0.000000 0.031880
#
#
# Mechanical properties :
#
#
# Convention : Reuss Voigt Hill
#
# Bulk Modulus (GPa) = 52.13755 58.53323 55.33539
# Shear Modulus (GPa) = 35.81192 40.09054 37.95123
#
# Velocity S-wave (km/s) = 3.75092 3.96867 3.86133
# Velocity P-wave (km/s) = 6.26438 6.63297 6.45131
#
# Compressibility (1/GPa) = 0.01918003
#
# Stress axis : x y z
#
# Youngs Moduli (GPa) = 135.96202 63.53563 67.39758
#
# Poissons Ratio (x) = 0.04182 0.24934
# Poissons Ratio (y) = 0.08950 0.33820
# Poissons Ratio (z) = 0.50299 0.31882
#
# Static dielectric constant tensor:
#      x y z
#    x 1.958880 0.000000 0.000000 
#    y 0.000000 2.063990 0.000000 
#    z 0.000000 0.000000 2.069260 
# 
# From -- ./inp_files/24605.got.cif
#   From: 2010.05.17/outbox.cif.g08.bks.cpg/sg20_13_cif.got.tgz:24605.got - 2010.06.03 22:52:26.
