data_PCOD9321269
_publ_section_title
;
Structure prediction by ZEFSAII (Michael W. Deem and Ramdas Pophale) SiO2 
 PCOD9321269
Probable space group: C 2 2 21
;
_chemical_formula_sum "Si O2"
_cell_formula_units_Z 48
_cell_length_a 20.600197
_cell_length_b 17.921278
_cell_length_c 6.134497
_cell_angle_alpha 90.000000
_cell_angle_beta 90.000000
_cell_angle_gamma 90.000000
_cell_volume 2264.744996
_symmetry_space_group_name_H-M "C 2 2 21"
_symmetry_group_IT_number 20
_symmetry_cell_setting 'orthorhombic'
loop_
_space_group_symop_operation_xyz
x,y,z
-x,-y,1/2+z
x,-y,-z
-x,y,1/2-z
1/2+x,1/2+y,z
1/2-x,1/2-y,1/2+z
1/2+x,1/2-y,-z
1/2-x,1/2+y,1/2-z
loop_
_atom_site_type_symbol
_atom_site_label
_atom_site_fract_x
_atom_site_fract_y
_atom_site_fract_z
Si Si1 0.936028 0.196669 0.606188
Si Si2 0.658712 0.816527 0.053077
Si Si3 0.567202 0.552570 0.183378
Si Si4 0.272866 0.068568 0.842062
Si Si5 0.156722 0.104413 0.568042
Si Si6 0.244367 0.182311 0.211494
O O1 0.906851 0.268225 0.475647
O O2 0.948457 0.131048 0.431872
O O3 0.882521 0.158389 0.767130
O O4 0.000000 0.212924 0.750000
O O5 0.670499 0.892202 0.193692
O O6 0.712734 0.760574 0.152787
O O7 0.683307 0.824645 0.804974
O O8 0.500000 0.513667 0.250000
O O9 0.606753 0.567443 0.400569
O O10 0.599422 0.500000 0.000000
O O11 0.210296 0.053011 0.689497
O O12 0.243721 0.130753 0.002521
O O13 0.291910 0.000000 0.000000
O O14 0.199800 0.152009 0.402875
#
# Coordination Sequence:
#
# PCOD9321269 Si02
#       6
#     8   8   8   8   8   8
#     4  12  24  41  62  94 132 185 244 290 334 412
#     4  11  21  38  65  96 132 177 226 286 344 409
#     4  12  26  42  58  86 133 192 239 282 323 392
#     4  11  25  42  65  99 135 180 225 288 365 423
#     4  11  23  40  62  87 130 181 235 278 331 409
#     4  11  20  38  65  92 130 173 216 276 347 399
#
# _framework density 21.19444
#
# number of rings (size 3 to 8) (size 9 to 14) (size 15 to 20)
#    0.000    0.667    6.667    1.500    0.000    6.667 
#    0.000    0.000    0.000    0.000    0.000    0.000 
#    5.000    0.000    0.333    0.000    0.000    0.000 
#
# Total GULP energy -133991.935719 kJ/mol
# GULP energy per Si atom -5582.997322 kJ/mol
# Density = 2.114620 g / cm^3
# Si number density = 21.194440 Si / 1000 Ang^3
#
#
#
# Elastic Constant Matrix: (Units=GPa)
#
#
# Indices 1 2 3 4 5 6 
#
# 1 74.6822 46.4180 34.6368 0.0000 0.0000 0.0000
# 2 46.4180 93.5662 47.6533 0.0000 0.0000 0.0000
# 3 34.6368 47.6533 105.4521 0.0000 0.0000 0.0000
# 4 0.0000 0.0000 0.0000 54.6184 0.0000 0.0000
# 5 0.0000 0.0000 0.0000 0.0000 28.3873 0.0000
# 6 0.0000 0.0000 0.0000 0.0000 0.0000 27.8217
#
#
#
# Elastic Compliance Matrix: (Units=1/GPa)
#
#
# Indices 1 2 3 4 5 6 
#
# 1 0.019934 -0.008514 -0.002700 0.000000 0.000000 0.000000
# 2 -0.008514 0.017519 -0.005120 0.000000 0.000000 0.000000
# 3 -0.002700 -0.005120 0.012684 0.000000 0.000000 0.000000
# 4 0.000000 0.000000 0.000000 0.018309 0.000000 0.000000
# 5 0.000000 0.000000 0.000000 0.000000 0.035227 0.000000
# 6 0.000000 0.000000 0.000000 0.000000 0.000000 0.035943
#
#
# Mechanical properties :
#
#
# Convention : Reuss Voigt Hill
#
# Bulk Modulus (GPa) = 57.24736 59.01297 58.13016
# Shear Modulus (GPa) = 28.07285 31.83164 29.95224
#
# Velocity S-wave (km/s) = 3.64337 3.87962 3.76335
# Velocity P-wave (km/s) = 6.69089 6.92623 6.80958
#
# Compressibility (1/GPa) = 0.01746805
#
# Stress axis : x y z
#
# Youngs Moduli (GPa) = 50.16492 57.07996 78.84147
#
# Poissons Ratio (x) = 0.48599 0.21288
# Poissons Ratio (y) = 0.42711 0.40369
# Poissons Ratio (z) = 0.13545 0.29227
#
# Static dielectric constant tensor:
#      x y z
#    x 1.808830 0.000000 0.000000 
#    y 0.000000 1.936960 0.000000 
#    z 0.000000 0.000000 1.863860 
# 
# From -- ./inp_files/3739.got.cif
#   From: 2010.05.17/outbox.cif.g08.bks.cpg/sg20_2_cif.got.tgz:3739.got - 2010.06.03 22:52:26.
