data_PCOD9321060
_publ_section_title
;
Structure prediction by ZEFSAII (Michael W. Deem and Ramdas Pophale) SiO2 
 PCOD9321060
Probable space group: C 2 2 21
;
_chemical_formula_sum "Si O2"
_cell_formula_units_Z 40
_cell_length_a 8.311247
_cell_length_b 10.980408
_cell_length_c 17.550352
_cell_angle_alpha 90.000000
_cell_angle_beta 90.000000
_cell_angle_gamma 90.000000
_cell_volume 1601.660621
_symmetry_space_group_name_H-M "C 2 2 21"
_symmetry_group_IT_number 20
_symmetry_cell_setting 'orthorhombic'
loop_
_space_group_symop_operation_xyz
x,y,z
-x,-y,1/2+z
x,-y,-z
-x,y,1/2-z
1/2+x,1/2+y,z
1/2-x,1/2-y,1/2+z
1/2+x,1/2-y,-z
1/2-x,1/2+y,1/2-z
loop_
_atom_site_type_symbol
_atom_site_label
_atom_site_fract_x
_atom_site_fract_y
_atom_site_fract_z
Si Si1 0.077701 0.801564 0.591509
Si Si2 0.500000 0.705576 0.250000
Si Si3 0.839210 0.465869 0.133207
Si Si4 0.843824 0.463065 0.588462
Si Si5 0.091126 0.000000 0.000000
Si Si6 0.311786 0.617892 0.778267
O O1 0.064477 0.658938 0.608476
O O2 0.263595 0.831274 0.587345
O O3 0.019808 0.861442 0.670617
O O4 0.004363 0.877096 0.522041
O O5 0.327620 0.777247 0.263733
O O6 0.704241 0.478047 0.071147
O O7 0.760544 0.473231 0.215129
O O8 0.983714 0.558307 0.125710
O O9 0.858496 0.500000 0.500000
O O10 0.732796 0.557959 0.638698
O O11 0.500000 0.642448 0.750000
#
# Coordination Sequence:
#
# PCOD9321060 Si02
#       6
#     8   4   8   8   4   8
#     4  11  26  45  72 103 149 191 251 310 378 443
#     4  10  24  52  72 114 148 200 258 322 368 470
#     4  11  26  49  70 107 151 196 254 312 372 462
#     4  12  24  46  74 108 151 196 247 319 380 449
#     4  12  26  42  72 106 144 202 246 308 378 448
#     4  11  23  48  80 105 152 199 253 316 378 454
#
# _framework density 24.974080000000001
#
# number of rings (size 3 to 8) (size 9 to 14) (size 15 to 20)
#    0.000    0.800    6.000    1.200    7.000    0.000 
#    7.200    0.000    0.000    0.000    0.000    0.000 
#    0.000    0.000    0.000    0.000    0.000    0.000 
#
# Total GULP energy -111404.971130 kJ/mol
# GULP energy per Si atom -5570.248557 kJ/mol
# Density = 2.491724 g / cm^3
# Si number density = 24.974080 Si / 1000 Ang^3
#
#
#
# Elastic Constant Matrix: (Units=GPa)
#
#
# Indices 1 2 3 4 5 6 
#
# 1 178.5103 23.6254 40.0673 0.0000 0.0000 0.0000
# 2 23.6254 23.2296 -10.5644 0.0000 0.0000 0.0000
# 3 40.0673 -10.5644 130.5413 0.0000 0.0000 0.0000
# 4 0.0000 0.0000 0.0000 27.1556 0.0000 0.0000
# 5 0.0000 0.0000 0.0000 0.0000 39.2286 0.0000
# 6 0.0000 0.0000 0.0000 0.0000 0.0000 8.8911
#
#
#
# Elastic Compliance Matrix: (Units=1/GPa)
#
#
# Indices 1 2 3 4 5 6 
#
# 1 0.007466 -0.008965 -0.003017 0.000000 0.000000 0.000000
# 2 -0.008965 0.055458 0.007240 0.000000 0.000000 0.000000
# 3 -0.003017 0.007240 0.009172 0.000000 0.000000 0.000000
# 4 0.000000 0.000000 0.000000 0.036825 0.000000 0.000000
# 5 0.000000 0.000000 0.000000 0.000000 0.025492 0.000000
# 6 0.000000 0.000000 0.000000 0.000000 0.000000 0.112473
#
#
# Mechanical properties :
#
#
# Convention : Reuss Voigt Hill
#
# Bulk Modulus (GPa) = 15.97130 48.72642 32.34886
# Shear Modulus (GPa) = 18.03491 33.66524 25.85008
#
# Velocity S-wave (km/s) = 2.69019 3.67550 3.22075
# Velocity P-wave (km/s) = 4.00731 6.12908 5.17804
#
# Compressibility (1/GPa) = 0.06261230
#
# Stress axis : x y z
#
# Youngs Moduli (GPa) = 133.94879 18.03153 109.02405
#
# Poissons Ratio (x) = 0.16165 0.32892
# Poissons Ratio (y) = 1.20082 -0.78930
# Poissons Ratio (z) = 0.40411 -0.13054
#
# Static dielectric constant tensor:
#      x y z
#    x 2.062340 0.000000 0.000000 
#    y 0.000000 2.298820 0.000000 
#    z 0.000000 0.000000 1.998910 
# 
# From -- ./inp_files/23216.got.cif
#   From: 2010.05.17/outbox.cif.g08.bks.cpg/sg20_12_cif.got.tgz:23216.got - 2010.06.03 22:52:26.
