data_PCOD9321629
_publ_section_title
;
Structure prediction by ZEFSAII (Michael W. Deem and Ramdas Pophale) SiO2 
 PCOD9321629
Probable space group: C 2 2 21
;
_chemical_formula_sum "Si O2"
_cell_formula_units_Z 40
_cell_length_a 14.927977
_cell_length_b 16.067540
_cell_length_c 7.493763
_cell_angle_alpha 90.000000
_cell_angle_beta 90.000000
_cell_angle_gamma 90.000000
_cell_volume 1797.423026
_symmetry_space_group_name_H-M "C 2 2 21"
_symmetry_group_IT_number 20
_symmetry_cell_setting 'orthorhombic'
loop_
_space_group_symop_operation_xyz
x,y,z
-x,-y,1/2+z
x,-y,-z
-x,y,1/2-z
1/2+x,1/2+y,z
1/2-x,1/2-y,1/2+z
1/2+x,1/2-y,-z
1/2-x,1/2+y,1/2-z
loop_
_atom_site_type_symbol
_atom_site_label
_atom_site_fract_x
_atom_site_fract_y
_atom_site_fract_z
Si Si1 0.150654 0.237112 0.480410
Si Si2 0.652182 0.196507 0.141678
Si Si3 0.902490 0.940893 0.831319
Si Si4 0.787374 0.479441 0.799430
Si Si5 0.405653 0.123527 0.701720
O O1 0.258415 0.231324 0.454737
O O2 0.127761 0.246427 0.689695
O O3 0.111706 0.153509 0.395357
O O4 0.118950 0.314270 0.361414
O O5 0.673850 0.107513 0.231115
O O6 0.585465 0.176893 0.979924
O O7 0.819364 0.967951 0.708110
O O8 0.000000 0.950507 0.750000
O O9 0.894352 0.000000 0.000000
O O10 0.826777 0.555790 0.684118
O O11 0.816062 0.500000 0.000000
O O12 0.500000 0.081538 0.750000
#
# Coordination Sequence:
#
# PCOD9321629 Si02
#       5
#     8   8   8   8   8
#     4  11  23  45  74 105 138 192 243 296 362 421
#     4  11  23  44  74 101 144 194 235 293 362 427
#     4  11  25  47  72 106 140 187 246 304 360 428
#     4  11  23  44  75 104 145 193 233 291 372 430
#     4  12  26  45  71 111 150 187 242 295 351 438
#
# _framework density 22.254080999999999
#
# number of rings (size 3 to 8) (size 9 to 14) (size 15 to 20)
#    0.000    0.800    4.000    4.200    0.000    2.400 
#    7.200    0.000    0.000    0.000    0.000    0.000 
#    0.000    0.000    0.000    0.000    0.000    0.000 
#
# Total GULP energy -111918.372496 kJ/mol
# GULP energy per Si atom -5595.918625 kJ/mol
# Density = 2.220343 g / cm^3
# Si number density = 22.254081 Si / 1000 Ang^3
#
#
#
# Elastic Constant Matrix: (Units=GPa)
#
#
# Indices 1 2 3 4 5 6 
#
# 1 72.9694 21.5505 6.2928 0.0000 0.0000 0.0000
# 2 21.5505 73.7719 -3.2399 0.0000 0.0000 0.0000
# 3 6.2928 -3.2399 110.2796 0.0000 0.0000 0.0000
# 4 0.0000 0.0000 0.0000 24.3835 0.0000 0.0000
# 5 0.0000 0.0000 0.0000 0.0000 65.7209 0.0000
# 6 0.0000 0.0000 0.0000 0.0000 0.0000 6.7767
#
#
#
# Elastic Compliance Matrix: (Units=1/GPa)
#
#
# Indices 1 2 3 4 5 6 
#
# 1 0.015106 -0.004456 -0.000993 0.000000 0.000000 0.000000
# 2 -0.004456 0.014888 0.000692 0.000000 0.000000 0.000000
# 3 -0.000993 0.000692 0.009145 0.000000 0.000000 0.000000
# 4 0.000000 0.000000 0.000000 0.041011 0.000000 0.000000
# 5 0.000000 0.000000 0.000000 0.000000 0.015216 0.000000
# 6 0.000000 0.000000 0.000000 0.000000 0.000000 0.147564
#
#
# Mechanical properties :
#
#
# Convention : Reuss Voigt Hill
#
# Bulk Modulus (GPa) = 33.75746 34.02531 33.89138
# Shear Modulus (GPa) = 19.06073 34.87072 26.96573
#
# Velocity S-wave (km/s) = 2.92979 3.96275 3.48475
# Velocity P-wave (km/s) = 5.16206 6.02167 5.60836
#
# Compressibility (1/GPa) = 0.02962308
#
# Stress axis : x y z
#
# Youngs Moduli (GPa) = 66.19813 67.17035 109.35123
#
# Poissons Ratio (x) = 0.29934 0.10858
# Poissons Ratio (y) = 0.29501 -0.07564
# Poissons Ratio (z) = 0.06573 -0.04646
#
# Static dielectric constant tensor:
#      x y z
#    x 1.877510 0.000000 0.000000 
#    y 0.000000 1.789790 0.000000 
#    z 0.000000 0.000000 1.905490 
# 
# From -- ./inp_files/8101.got.cif
#   From: 2010.05.17/outbox.cif.g08.bks.cpg/sg20_5_cif.got.tgz:8101.got - 2010.06.03 22:52:26.
