data_PCOD9321242
_publ_section_title
;
Structure prediction by ZEFSAII (Michael W. Deem and Ramdas Pophale) SiO2 
 PCOD9321242
Probable space group: C 2 2 21
;
_chemical_formula_sum "Si O2"
_cell_formula_units_Z 40
_cell_length_a 28.466730
_cell_length_b 11.413990
_cell_length_c 5.367967
_cell_angle_alpha 90.000000
_cell_angle_beta 90.000000
_cell_angle_gamma 90.000000
_cell_volume 1744.154317
_symmetry_space_group_name_H-M "C 2 2 21"
_symmetry_group_IT_number 20
_symmetry_cell_setting 'orthorhombic'
loop_
_space_group_symop_operation_xyz
x,y,z
-x,-y,1/2+z
x,-y,-z
-x,y,1/2-z
1/2+x,1/2+y,z
1/2-x,1/2-y,1/2+z
1/2+x,1/2-y,-z
1/2-x,1/2+y,1/2-z
loop_
_atom_site_type_symbol
_atom_site_label
_atom_site_fract_x
_atom_site_fract_y
_atom_site_fract_z
Si Si1 0.736842 0.000000 0.500000
Si Si2 0.159202 0.347214 0.686685
Si Si3 0.187079 0.091227 0.696715
Si Si4 0.603094 0.180896 0.801754
Si Si5 0.086363 0.041667 0.245598
Si Si6 0.472657 0.000000 0.500000
O O1 0.700740 0.059378 0.310726
O O2 0.774059 0.096679 0.590065
O O3 0.178874 0.220697 0.604429
O O4 0.122501 0.369507 0.460517
O O5 0.137952 0.332958 0.961682
O O6 0.207607 0.000000 0.500000
O O7 0.136263 0.032361 0.757309
O O8 0.594038 0.319360 0.762934
O O9 0.558639 0.106568 0.893366
O O10 0.063401 0.000000 0.500000
O O11 0.060385 0.000000 0.000000
O O12 0.500000 0.959538 0.750000
#
# Coordination Sequence:
#
# PCOD9321242 Si02
#       6
#     4   8   8   8   8   4
#     4  12  28  37  58  92 142 194 250 298 360 395
#     4  12  26  41  67  95 137 188 245 295 349 406
#     4  11  23  40  58  90 134 186 241 300 351 382
#     4  12  23  47  71  99 135 177 235 283 341 444
#     4  11  19  39  65  98 123 176 237 275 333 395
#     4  12  28  49  78 110 146 176 212 278 374 447
#
# _framework density 22.933748999999999
#
# number of rings (size 3 to 8) (size 9 to 14) (size 15 to 20)
#    0.000    0.400    7.000    2.400    5.600    0.000 
#    0.000    0.000    0.000    2.400    0.000    0.000 
#    0.000    0.000    0.000    0.000    0.000    0.000 
#
# Total GULP energy -111663.851823 kJ/mol
# GULP energy per Si atom -5583.192591 kJ/mol
# Density = 2.288155 g / cm^3
# Si number density = 22.933749 Si / 1000 Ang^3
#
#
#
# Elastic Constant Matrix: (Units=GPa)
#
#
# Indices 1 2 3 4 5 6 
#
# 1 50.1415 32.3322 11.7654 0.0000 0.0000 0.0000
# 2 32.3322 118.3749 16.8509 0.0000 0.0000 0.0000
# 3 11.7654 16.8509 136.6509 0.0000 0.0000 0.0000
# 4 0.0000 0.0000 0.0000 28.0014 0.0000 0.0000
# 5 0.0000 0.0000 0.0000 0.0000 17.6800 0.0000
# 6 0.0000 0.0000 0.0000 0.0000 0.0000 1.4705
#
#
#
# Elastic Compliance Matrix: (Units=1/GPa)
#
#
# Indices 1 2 3 4 5 6 
#
# 1 0.024433 -0.006488 -0.001304 0.000000 0.000000 0.000000
# 2 -0.006488 0.010321 -0.000714 0.000000 0.000000 0.000000
# 3 -0.001304 -0.000714 0.007518 0.000000 0.000000 0.000000
# 4 0.000000 0.000000 0.000000 0.035712 0.000000 0.000000
# 5 0.000000 0.000000 0.000000 0.000000 0.056561 0.000000
# 6 0.000000 0.000000 0.000000 0.000000 0.000000 0.680052
#
#
# Mechanical properties :
#
#
# Convention : Reuss Voigt Hill
#
# Bulk Modulus (GPa) = 39.58624 47.45161 43.51893
# Shear Modulus (GPa) = 5.95217 25.71163 15.83190
#
# Velocity S-wave (km/s) = 1.61276 3.35195 2.63027
# Velocity P-wave (km/s) = 4.55704 5.97632 5.31428
#
# Compressibility (1/GPa) = 0.02526130
#
# Stress axis : x y z
#
# Youngs Moduli (GPa) = 40.92831 96.88549 133.01016
#
# Poissons Ratio (x) = 0.62858 0.17339
# Poissons Ratio (y) = 0.26554 0.09499
# Poissons Ratio (z) = 0.05335 0.06919
#
# Static dielectric constant tensor:
#      x y z
#    x 1.835620 0.000000 0.000000 
#    y 0.000000 1.832310 0.000000 
#    z 0.000000 0.000000 1.469600 
# 
# From -- ./inp_files/4102.got.cif
#   From: 2010.05.17/outbox.cif.g08.bks.cpg/sg20_3_cif.got.tgz:4102.got - 2010.06.03 22:52:26.
