data_PCOD9321846
_publ_section_title
;
Structure prediction by ZEFSAII (Michael W. Deem and Ramdas Pophale) SiO2 
 PCOD9321846
Probable space group: C 2 2 21
;
_chemical_formula_sum "Si O2"
_cell_formula_units_Z 56
_cell_length_a 5.162327
_cell_length_b 13.878027
_cell_length_c 29.552729
_cell_angle_alpha 90.000000
_cell_angle_beta 90.000000
_cell_angle_gamma 90.000000
_cell_volume 2117.243607
_symmetry_space_group_name_H-M "C 2 2 21"
_symmetry_group_IT_number 20
_symmetry_cell_setting 'orthorhombic'
loop_
_space_group_symop_operation_xyz
x,y,z
-x,-y,1/2+z
x,-y,-z
-x,y,1/2-z
1/2+x,1/2+y,z
1/2-x,1/2-y,1/2+z
1/2+x,1/2-y,-z
1/2-x,1/2+y,1/2-z
loop_
_atom_site_type_symbol
_atom_site_label
_atom_site_fract_x
_atom_site_fract_y
_atom_site_fract_z
Si Si1 0.262680 0.602152 0.135140
Si Si2 0.000000 0.745066 0.750000
Si Si3 0.757894 0.601464 0.192050
Si Si4 0.933529 0.420969 0.408488
Si Si5 0.720312 0.391825 0.179004
Si Si6 0.885640 0.811981 0.490378
Si Si7 0.339128 0.000000 0.000000
Si Si8 0.967174 0.215805 0.894631
O O1 0.549026 0.629133 0.152309
O O2 0.274278 0.500551 0.109524
O O3 0.106466 0.681131 0.105619
O O4 0.057033 0.595103 0.176833
O O5 0.210271 0.817771 0.770899
O O6 0.118129 0.676855 0.711506
O O7 0.666158 0.492544 0.203677
O O8 0.997554 0.458152 0.458461
O O9 0.825113 0.311888 0.407359
O O10 0.132833 0.424126 0.366872
O O11 0.498935 0.326786 0.155915
O O12 0.650963 0.739765 0.498369
O O13 0.833469 0.910549 0.516604
O O14 0.894646 0.836681 0.437013
#
# Coordination Sequence:
#
# PCOD9321846 Si02
#       8
#     8   4   8   8   8   8   4   8
#     4  11  25  46  77 107 156 199 256 319 387 463
#     4  12  26  52  82 114 160 206 260 338 416 470
#     4  11  26  49  74 115 148 198 258 318 393 474
#     4  11  25  48  76 115 154 210 264 324 393 481
#     4  11  25  50  78 112 155 206 266 326 397 485
#     4  12  29  48  74 118 158 208 271 324 386 474
#     4  12  26  50  78 114 162 212 264 332 402 462
#     4  12  24  46  78 107 157 208 259 322 397 460
#
# _framework density 26.449486
#
# number of rings (size 3 to 8) (size 9 to 14) (size 15 to 20)
#    0.000    0.571    4.286    2.571    0.000    8.571 
#    5.143    0.000    0.000    0.000    0.000    0.000 
#    0.000    0.000    0.000    0.000    0.000    0.000 
#
# Total GULP energy -156631.705038 kJ/mol
# GULP energy per Si atom -5593.989466 kJ/mol
# Density = 2.638929 g / cm^3
# Si number density = 26.449486 Si / 1000 Ang^3
#
#
#
# Elastic Constant Matrix: (Units=GPa)
#
#
# Indices 1 2 3 4 5 6 
#
# 1 94.5611 15.9196 36.2723 0.0000 0.0000 0.0000
# 2 15.9196 136.4294 41.0460 0.0000 0.0000 0.0000
# 3 36.2723 41.0460 123.8462 0.0000 0.0000 0.0000
# 4 0.0000 0.0000 0.0000 22.5484 0.0000 0.0000
# 5 0.0000 0.0000 0.0000 0.0000 41.2647 0.0000
# 6 0.0000 0.0000 0.0000 0.0000 0.0000 35.8560
#
#
#
# Elastic Compliance Matrix: (Units=1/GPa)
#
#
# Indices 1 2 3 4 5 6 
#
# 1 0.011931 -0.000379 -0.003369 0.000000 0.000000 0.000000
# 2 -0.000379 0.008154 -0.002591 0.000000 0.000000 0.000000
# 3 -0.003369 -0.002591 0.009920 0.000000 0.000000 0.000000
# 4 0.000000 0.000000 0.000000 0.044349 0.000000 0.000000
# 5 0.000000 0.000000 0.000000 0.000000 0.024234 0.000000
# 6 0.000000 0.000000 0.000000 0.000000 0.000000 0.027889
#
#
# Mechanical properties :
#
#
# Convention : Reuss Voigt Hill
#
# Bulk Modulus (GPa) = 57.71374 60.14582 58.92978
# Shear Modulus (GPa) = 34.49925 37.37376 35.93650
#
# Velocity S-wave (km/s) = 3.61549 3.76310 3.69003
# Velocity P-wave (km/s) = 6.26871 6.45527 6.36267
#
# Compressibility (1/GPa) = 0.01732690
#
# Stress axis : x y z
#
# Youngs Moduli (GPa) = 83.81395 122.64464 100.80542
#
# Poissons Ratio (x) = 0.04644 0.33961
# Poissons Ratio (y) = 0.03174 0.26123
# Poissons Ratio (z) = 0.28236 0.31783
#
# Static dielectric constant tensor:
#      x y z
#    x 2.196510 0.000000 0.000000 
#    y 0.000000 2.099770 0.000000 
#    z 0.000000 0.000000 2.201440 
# 
# From -- ./inp_files/30759.got.cif
#   From: 2010.05.17/outbox.cif.g08.bks.cpg/sg20_16_cif.got.tgz:30759.got - 2010.06.03 22:52:26.
