data_PCOD9321710
_publ_section_title
;
Structure prediction by ZEFSAII (Michael W. Deem and Ramdas Pophale) SiO2 
 PCOD9321710
Probable space group: C 2 2 21
;
_chemical_formula_sum "Si O2"
_cell_formula_units_Z 36
_cell_length_a 19.735141
_cell_length_b 11.882980
_cell_length_c 7.126586
_cell_angle_alpha 90.000000
_cell_angle_beta 90.000000
_cell_angle_gamma 90.000000
_cell_volume 1671.271973
_symmetry_space_group_name_H-M "C 2 2 21"
_symmetry_group_IT_number 20
_symmetry_cell_setting 'orthorhombic'
loop_
_space_group_symop_operation_xyz
x,y,z
-x,-y,1/2+z
x,-y,-z
-x,y,1/2-z
1/2+x,1/2+y,z
1/2-x,1/2-y,1/2+z
1/2+x,1/2-y,-z
1/2-x,1/2+y,1/2-z
loop_
_atom_site_type_symbol
_atom_site_label
_atom_site_fract_x
_atom_site_fract_y
_atom_site_fract_z
Si Si1 0.329051 0.683223 0.728208
Si Si2 0.420320 0.139645 0.722960
Si Si3 0.806790 0.191163 0.288805
Si Si4 0.420128 0.109525 0.280314
Si Si5 0.181725 0.000000 0.500000
O O1 0.253123 0.717303 0.788989
O O2 0.323923 0.658492 0.504747
O O3 0.374210 0.789438 0.787531
O O4 0.355045 0.578720 0.849378
O O5 0.500000 0.161587 0.750000
O O6 0.373093 0.241987 0.783462
O O7 0.408916 0.120177 0.502472
O O8 0.403889 0.014496 0.797421
O O9 0.785032 0.090225 0.147501
O O10 0.500000 0.127071 0.250000
#
# Coordination Sequence:
#
# PCOD9321710 Si02
#       5
#     8   8   8   8   4
#     4  11  24  42  68  97 131 172 217 268 323 393
#     4   9  20  38  65  97 127 162 215 270 322 378
#     4  11  24  42  68  97 131 172 217 268 323 393
#     4   9  20  38  65  97 127 162 215 270 322 378
#     4  12  26  44  64  94 136 172 220 258 338 382
#
# _framework density 21.540481
#
# number of rings (size 3 to 8) (size 9 to 14) (size 15 to 20)
#    0.000    1.778    2.222    0.667    6.222    0.000 
#    0.000    1.111    0.000    0.000    0.000    0.000 
#    0.000    0.000    0.000    0.000    0.000    0.000 
#
# Total GULP energy -100299.225780 kJ/mol
# GULP energy per Si atom -5572.179210 kJ/mol
# Density = 2.149145 g / cm^3
# Si number density = 21.540481 Si / 1000 Ang^3
#
#
#
# Elastic Constant Matrix: (Units=GPa)
#
#
# Indices 1 2 3 4 5 6 
#
# 1 51.2629 45.6735 4.5435 0.0000 0.0000 0.0000
# 2 45.6735 103.0356 43.6668 0.0000 0.0000 0.0000
# 3 4.5435 43.6668 155.0945 0.0000 0.0000 0.0000
# 4 0.0000 0.0000 0.0000 38.4582 0.0000 0.0000
# 5 0.0000 0.0000 0.0000 0.0000 19.8952 0.0000
# 6 0.0000 0.0000 0.0000 0.0000 0.0000 39.9748
#
#
#
# Elastic Compliance Matrix: (Units=1/GPa)
#
#
# Indices 1 2 3 4 5 6 
#
# 1 0.034002 -0.016635 0.003687 0.000000 0.000000 0.000000
# 2 -0.016635 0.019159 -0.004907 0.000000 0.000000 0.000000
# 3 0.003687 -0.004907 0.007721 0.000000 0.000000 0.000000
# 4 0.000000 0.000000 0.000000 0.026002 0.000000 0.000000
# 5 0.000000 0.000000 0.000000 0.000000 0.050263 0.000000
# 6 0.000000 0.000000 0.000000 0.000000 0.000000 0.025016
#
#
# Mechanical properties :
#
#
# Convention : Reuss Voigt Hill
#
# Bulk Modulus (GPa) = 39.72509 55.24007 47.48258
# Shear Modulus (GPa) = 24.24095 34.03292 29.13694
#
# Velocity S-wave (km/s) = 3.35829 3.97917 3.68184
# Velocity P-wave (km/s) = 5.78961 6.84194 6.33766
#
# Compressibility (1/GPa) = 0.02517301
#
# Stress axis : x y z
#
# Youngs Moduli (GPa) = 29.41037 52.19528 129.51395
#
# Poissons Ratio (x) = 0.86827 -0.47758
# Poissons Ratio (y) = 0.48924 0.63550
# Poissons Ratio (z) = -0.10845 0.25611
#
# Static dielectric constant tensor:
#      x y z
#    x 1.751280 0.000000 0.000000 
#    y 0.000000 1.834970 0.000000 
#    z 0.000000 0.000000 1.866530 
# 
# From -- ./inp_files/9944.got.cif
#   From: 2010.05.17/outbox.cif.g08.bks.cpg/sg20_5_cif.got.tgz:9944.got - 2010.06.03 22:52:26.
