data_PCOD9321220
_publ_section_title
;
Structure prediction by ZEFSAII (Michael W. Deem and Ramdas Pophale) SiO2 
 PCOD9321220
Probable space group: C 2 2 21
;
_chemical_formula_sum "Si O2"
_cell_formula_units_Z 56
_cell_length_a 21.598635
_cell_length_b 5.267231
_cell_length_c 20.686530
_cell_angle_alpha 90.000000
_cell_angle_beta 90.000000
_cell_angle_gamma 90.000000
_cell_volume 2353.403082
_symmetry_space_group_name_H-M "C 2 2 21"
_symmetry_group_IT_number 20
_symmetry_cell_setting 'orthorhombic'
loop_
_space_group_symop_operation_xyz
x,y,z
-x,-y,1/2+z
x,-y,-z
-x,y,1/2-z
1/2+x,1/2+y,z
1/2-x,1/2-y,1/2+z
1/2+x,1/2-y,-z
1/2-x,1/2+y,1/2-z
loop_
_atom_site_type_symbol
_atom_site_label
_atom_site_fract_x
_atom_site_fract_y
_atom_site_fract_z
Si Si1 0.262552 0.500000 0.500000
Si Si2 0.612051 0.177962 0.765288
Si Si3 0.837711 0.713700 0.093023
Si Si4 0.036384 0.000836 0.863190
Si Si5 0.589521 0.710262 0.383878
Si Si6 0.718639 0.167198 0.263353
Si Si7 0.382616 0.257068 0.460522
Si Si8 0.000000 0.303343 0.750000
O O1 0.218537 0.326941 0.543529
O O2 0.309949 0.334214 0.455456
O O3 0.589733 0.359164 0.822506
O O4 0.611236 0.290571 0.692390
O O5 0.672305 0.009980 0.778336
O O6 0.557987 0.975168 0.759881
O O7 0.875111 0.973009 0.084641
O O8 0.808711 0.703106 0.165263
O O9 0.884069 0.474080 0.088822
O O10 0.072726 0.222775 0.899954
O O11 0.991512 0.132310 0.811713
O O12 0.984844 0.816236 0.894592
O O13 0.772989 0.950583 0.265796
O O14 0.407671 0.500000 0.500000
O O15 0.387126 0.000000 0.500000
#
# Coordination Sequence:
#
# PCOD9321220 Si02
#       8
#     4   8   8   8   8   8   8   4
#     4  10  28  54  72  98 138 198 256 294 362 416
#     4  11  24  40  68 108 149 187 222 282 374 442
#     4  11  26  45  73  95 140 188 236 297 346 427
#     4  12  24  44  76 107 152 190 232 305 369 444
#     4  11  23  45  69 108 139 177 230 288 361 438
#     4  11  25  42  64 105 144 179 234 289 355 424
#     4  10  28  50  73 100 141 192 255 297 348 431
#     4  12  22  38  78 108 152 194 226 288 390 454
#
# _framework density 23.795328000000001
#
# number of rings (size 3 to 8) (size 9 to 14) (size 15 to 20)
#    0.429    0.571    2.857    3.429    8.000    0.000 
#    3.857    0.000    0.000    0.000    0.000    0.000 
#    0.000    0.000    0.000    0.000    0.000    0.000 
#
# Total GULP energy -156380.842470 kJ/mol
# GULP energy per Si atom -5585.030088 kJ/mol
# Density = 2.374117 g / cm^3
# Si number density = 23.795328 Si / 1000 Ang^3
#
#
#
# Elastic Constant Matrix: (Units=GPa)
#
#
# Indices 1 2 3 4 5 6 
#
# 1 58.8594 -3.1879 12.5424 0.0000 0.0000 0.0000
# 2 -3.1879 99.4529 6.7385 0.0000 0.0000 0.0000
# 3 12.5424 6.7385 21.1188 0.0000 0.0000 0.0000
# 4 0.0000 0.0000 0.0000 27.8519 0.0000 0.0000
# 5 0.0000 0.0000 0.0000 0.0000 38.5734 0.0000
# 6 0.0000 0.0000 0.0000 0.0000 0.0000 52.6710
#
#
#
# Elastic Compliance Matrix: (Units=1/GPa)
#
#
# Indices 1 2 3 4 5 6 
#
# 1 0.019654 0.001452 -0.012136 0.000000 0.000000 0.000000
# 2 0.001452 0.010385 -0.004176 0.000000 0.000000 0.000000
# 3 -0.012136 -0.004176 0.055891 0.000000 0.000000 0.000000
# 4 0.000000 0.000000 0.000000 0.035904 0.000000 0.000000
# 5 0.000000 0.000000 0.000000 0.000000 0.025925 0.000000
# 6 0.000000 0.000000 0.000000 0.000000 0.000000 0.018986
#
#
# Mechanical properties :
#
#
# Convention : Reuss Voigt Hill
#
# Bulk Modulus (GPa) = 17.79024 23.51304 20.65164
# Shear Modulus (GPa) = 23.23405 34.70846 28.97125
#
# Velocity S-wave (km/s) = 3.12815 3.82334 3.49308
# Velocity P-wave (km/s) = 4.53207 5.42157 4.99665
#
# Compressibility (1/GPa) = 0.05621061
#
# Stress axis : x y z
#
# Youngs Moduli (GPa) = 50.87920 96.29729 17.89184
#
# Poissons Ratio (x) = -0.13985 0.21714
# Poissons Ratio (y) = -0.07389 0.07472
# Poissons Ratio (z) = 0.61748 0.40214
#
# Static dielectric constant tensor:
#      x y z
#    x 1.925780 0.000000 0.000000 
#    y 0.000000 1.901780 0.000000 
#    z 0.000000 0.000000 1.945640 
# 
# From -- ./inp_files/28006.got.cif
#   From: 2010.05.17/outbox.cif.g08.bks.cpg/sg20_15_cif.got.tgz:28006.got - 2010.06.03 22:52:26.
