data_PCOD9321913
_publ_section_title
;
Structure prediction by ZEFSAII (Michael W. Deem and Ramdas Pophale) SiO2 
 PCOD9321913
Probable space group: C 2 2 21
;
_chemical_formula_sum "Si O2"
_cell_formula_units_Z 28
_cell_length_a 5.065475
_cell_length_b 12.857905
_cell_length_c 17.781685
_cell_angle_alpha 90.000000
_cell_angle_beta 90.000000
_cell_angle_gamma 90.000000
_cell_volume 1158.145973
_symmetry_space_group_name_H-M "C 2 2 21"
_symmetry_group_IT_number 20
_symmetry_cell_setting 'orthorhombic'
loop_
_space_group_symop_operation_xyz
x,y,z
-x,-y,1/2+z
x,-y,-z
-x,y,1/2-z
1/2+x,1/2+y,z
1/2-x,1/2-y,1/2+z
1/2+x,1/2-y,-z
1/2-x,1/2+y,1/2-z
loop_
_atom_site_type_symbol
_atom_site_label
_atom_site_fract_x
_atom_site_fract_y
_atom_site_fract_z
Si Si1 0.000000 0.259312 0.750000
Si Si2 0.000000 0.095751 0.250000
Si Si3 0.682960 0.000000 0.500000
Si Si4 0.953475 0.084838 0.867707
Si Si5 0.380045 0.815698 0.485742
O O1 0.250460 0.331433 0.731882
O O2 0.934922 0.180035 0.681803
O O3 0.080162 0.016440 0.316586
O O4 0.499470 0.090282 0.466086
O O5 0.862038 0.050916 0.563539
O O6 0.692775 0.132327 0.906272
O O7 0.611441 0.731485 0.481986
#
# Coordination Sequence:
#
# PCOD9321913 Si02
#       5
#     4   4   4   8   8
#     4  11  30  49  80 106 154 207 264 315 386 454
#     4  11  30  53  80 108 154 213 254 325 372 452
#     4  12  28  48  80 118 160 200 254 328 382 468
#     4  11  29  51  78 116 154 201 267 309 391 466
#     4  12  28  46  75 118 157 199 246 317 390 457
#
# _framework density 24.176573000000001
#
# number of rings (size 3 to 8) (size 9 to 14) (size 15 to 20)
#    0.000    0.571    2.857    0.857   12.000    4.571 
#    0.000    0.000    0.000    0.000    0.000    0.000 
#    0.000    0.000    0.000    0.000    0.000    0.000 
#
# Total GULP energy -78428.830561 kJ/mol
# GULP energy per Si atom -5602.059326 kJ/mol
# Density = 2.412155 g / cm^3
# Si number density = 24.176573 Si / 1000 Ang^3
#
#
#
# Elastic Constant Matrix: (Units=GPa)
#
#
# Indices 1 2 3 4 5 6 
#
# 1 151.2011 81.4281 55.2987 0.0000 0.0000 0.0000
# 2 81.4281 191.0592 77.7397 0.0000 0.0000 0.0000
# 3 55.2987 77.7397 115.4123 0.0000 0.0000 0.0000
# 4 0.0000 0.0000 0.0000 37.1241 0.0000 0.0000
# 5 0.0000 0.0000 0.0000 0.0000 19.8593 0.0000
# 6 0.0000 0.0000 0.0000 0.0000 0.0000 -22.4717
#
#
#
# Elastic Compliance Matrix: (Units=1/GPa)
#
#
# Indices 1 2 3 4 5 6 
#
# 1 0.009039 -0.002879 -0.002392 0.000000 0.000000 0.000000
# 2 -0.002879 0.008127 -0.004095 0.000000 0.000000 0.000000
# 3 -0.002392 -0.004095 0.012569 0.000000 0.000000 0.000000
# 4 0.000000 0.000000 0.000000 0.026937 0.000000 0.000000
# 5 0.000000 0.000000 0.000000 0.000000 0.050354 0.000000
# 6 0.000000 0.000000 0.000000 0.000000 0.000000 -0.044500
#
#
# Mechanical properties :
#
#
# Convention : Reuss Voigt Hill
#
# Bulk Modulus (GPa) = 90.87852 98.51173 94.69513
# Shear Modulus (GPa) = 58.87597 23.11607 40.99602
#
# Velocity S-wave (km/s) = 4.94018 3.09550 4.12235
# Velocity P-wave (km/s) = 8.37923 7.32198 7.86838
#
# Compressibility (1/GPa) = 0.01100370
#
# Stress axis : x y z
#
# Youngs Moduli (GPa) = 110.63216 123.04333 79.56318
#
# Poissons Ratio (x) = 0.35427 0.19028
# Poissons Ratio (y) = 0.31854 0.32579
# Poissons Ratio (z) = 0.26458 0.50383
#
# Static dielectric constant tensor:
#      x y z
#    x 1.928030 0.000000 0.000000 
#    y 0.000000 2.052920 0.000000 
#    z 0.000000 0.000000 1.963790 
# 
# From -- ./inp_files/24010.got.cif
#   From: 2010.05.17/outbox.cif.g08.bks.cpg/sg20_13_cif.got.tgz:24010.got - 2010.06.03 22:52:26.
