data_PCOD9321792
_publ_section_title
;
Structure prediction by ZEFSAII (Michael W. Deem and Ramdas Pophale) SiO2 
 PCOD9321792
Probable space group: C 2 2 21
;
_chemical_formula_sum "Si O2"
_cell_formula_units_Z 40
_cell_length_a 14.318993
_cell_length_b 5.395257
_cell_length_c 22.176428
_cell_angle_alpha 90.000000
_cell_angle_beta 90.000000
_cell_angle_gamma 90.000000
_cell_volume 1713.232122
_symmetry_space_group_name_H-M "C 2 2 21"
_symmetry_group_IT_number 20
_symmetry_cell_setting 'orthorhombic'
loop_
_space_group_symop_operation_xyz
x,y,z
-x,-y,1/2+z
x,-y,-z
-x,y,1/2-z
1/2+x,1/2+y,z
1/2-x,1/2-y,1/2+z
1/2+x,1/2-y,-z
1/2-x,1/2+y,1/2-z
loop_
_atom_site_type_symbol
_atom_site_label
_atom_site_fract_x
_atom_site_fract_y
_atom_site_fract_z
Si Si1 0.291994 0.149729 0.438250
Si Si2 0.031877 0.500000 0.500000
Si Si3 0.136372 0.434177 0.387348
Si Si4 0.730986 0.819654 0.172090
Si Si5 0.076753 0.000000 0.000000
Si Si6 0.597855 0.362111 0.724350
O O1 0.185109 0.223555 0.427722
O O2 0.356617 0.389300 0.447873
O O3 0.299509 0.000000 0.500000
O O4 0.314094 0.987239 0.380075
O O5 0.083426 0.586037 0.438551
O O6 0.979016 0.246607 0.480714
O O7 0.223480 0.575616 0.357077
O O8 0.078694 0.319279 0.332437
O O9 0.654193 0.775055 0.222721
O O10 0.823736 0.948110 0.200145
O O11 0.500000 0.462509 0.750000
#
# Coordination Sequence:
#
# PCOD9321792 Si02
#       6
#     8   4   8   8   4   8
#     4  11  24  47  77 107 148 205 250 326 407 462
#     4  12  29  46  71 116 154 200 266 321 406 471
#     4  11  26  47  76 105 158 203 264 330 399 474
#     4  11  24  50  73 111 155 207 265 327 393 478
#     4  12  27  46  71 118 156 194 262 327 392 491
#     4  11  26  46  76 111 153 209 265 326 393 469
#
# _framework density 23.347684000000001
#
# number of rings (size 3 to 8) (size 9 to 14) (size 15 to 20)
#    0.000    0.800    3.000    3.000    9.800    0.800 
#    0.000    0.000    0.000    0.000    0.000    0.000 
#    0.000    0.000    0.000    0.000    0.000    0.000 
#
# Total GULP energy -111706.640710 kJ/mol
# GULP energy per Si atom -5585.332036 kJ/mol
# Density = 2.329454 g / cm^3
# Si number density = 23.347684 Si / 1000 Ang^3
#
#
#
# Elastic Constant Matrix: (Units=GPa)
#
#
# Indices 1 2 3 4 5 6 
#
# 1 82.1106 13.5115 60.1471 0.0000 0.0000 0.0000
# 2 13.5115 69.1951 37.0642 0.0000 0.0000 0.0000
# 3 60.1471 37.0642 137.4030 0.0000 0.0000 0.0000
# 4 0.0000 0.0000 0.0000 37.4754 0.0000 0.0000
# 5 0.0000 0.0000 0.0000 0.0000 23.6450 0.0000
# 6 0.0000 0.0000 0.0000 0.0000 0.0000 18.2309
#
#
#
# Elastic Compliance Matrix: (Units=1/GPa)
#
#
# Indices 1 2 3 4 5 6 
#
# 1 0.017967 0.000823 -0.008087 0.000000 0.000000 0.000000
# 2 0.000823 0.016930 -0.004927 0.000000 0.000000 0.000000
# 3 -0.008087 -0.004927 0.012147 0.000000 0.000000 0.000000
# 4 0.000000 0.000000 0.000000 0.026684 0.000000 0.000000
# 5 0.000000 0.000000 0.000000 0.000000 0.042292 0.000000
# 6 0.000000 0.000000 0.000000 0.000000 0.000000 0.054852
#
#
# Mechanical properties :
#
#
# Convention : Reuss Voigt Hill
#
# Bulk Modulus (GPa) = 44.12572 56.68383 50.40478
# Shear Modulus (GPa) = 24.65372 27.73599 26.19485
#
# Velocity S-wave (km/s) = 3.25305 3.45041 3.35318
# Velocity P-wave (km/s) = 5.74893 6.34071 6.05206
#
# Compressibility (1/GPa) = 0.02266252
#
# Stress axis : x y z
#
# Youngs Moduli (GPa) = 55.65731 59.06519 82.32433
#
# Poissons Ratio (x) = -0.04864 0.66576
# Poissons Ratio (y) = -0.04583 0.40565
# Poissons Ratio (z) = 0.45011 0.29104
#
# Static dielectric constant tensor:
#      x y z
#    x 1.918730 0.000000 0.000000 
#    y 0.000000 1.988510 0.000000 
#    z 0.000000 0.000000 1.929380 
# 
# From -- ./inp_files/29226.got.cif
#   From: 2010.05.17/outbox.cif.g08.bks.cpg/sg20_15_cif.got.tgz:29226.got - 2010.06.03 22:52:26.
