data_PCOD9321202
_publ_section_title
;
Structure prediction by ZEFSAII (Michael W. Deem and Ramdas Pophale) SiO2 
 PCOD9321202
Probable space group: C 2 2 21
;
_chemical_formula_sum "Si O2"
_cell_formula_units_Z 44
_cell_length_a 7.587829
_cell_length_b 28.517573
_cell_length_c 8.831631
_cell_angle_alpha 90.000000
_cell_angle_beta 90.000000
_cell_angle_gamma 90.000000
_cell_volume 1911.045434
_symmetry_space_group_name_H-M "C 2 2 21"
_symmetry_group_IT_number 20
_symmetry_cell_setting 'orthorhombic'
loop_
_space_group_symop_operation_xyz
x,y,z
-x,-y,1/2+z
x,-y,-z
-x,y,1/2-z
1/2+x,1/2+y,z
1/2-x,1/2-y,1/2+z
1/2+x,1/2-y,-z
1/2-x,1/2+y,1/2-z
loop_
_atom_site_type_symbol
_atom_site_label
_atom_site_fract_x
_atom_site_fract_y
_atom_site_fract_z
Si Si1 0.704660 0.083896 0.709253
Si Si2 0.197295 0.513351 0.180631
Si Si3 0.788747 0.802219 0.772737
Si Si4 0.689312 0.601295 0.125664
Si Si5 0.611763 0.349954 0.453052
Si Si6 0.000000 0.774369 0.250000
O O1 0.500000 0.085418 0.750000
O O2 0.716421 0.088903 0.530397
O O3 0.781956 0.033024 0.747903
O O4 0.802530 0.121591 0.815675
O O5 0.286210 0.559799 0.252363
O O6 0.000000 0.516375 0.250000
O O7 0.192500 0.500000 0.000000
O O8 0.738152 0.848912 0.681783
O O9 0.756799 0.819478 0.945076
O O10 0.669881 0.758212 0.733688
O O11 0.000000 0.793785 0.750000
O O12 0.493431 0.615234 0.064622
O O13 0.481327 0.310096 0.389485
#
# Coordination Sequence:
#
# PCOD9321202 Si02
#       6
#     8   8   8   8   8   4
#     4  11  23  42  74 108 148 198 247 313 376 462
#     4  11  23  42  73 112 150 198 260 306 380 470
#     4  10  27  45  71 104 146 194 253 320 382 460
#     4  11  23  47  69 104 151 194 246 324 379 456
#     4  11  25  48  67 106 149 190 260 312 390 463
#     4  12  26  46  76 102 144 198 262 312 392 450
#
# _framework density 23.024049000000002
#
# number of rings (size 3 to 8) (size 9 to 14) (size 15 to 20)
#    0.000    1.091    1.818    3.818    8.909    0.727 
#    0.000   14.545    0.000    0.000    0.000    0.000 
#    0.000    0.000    0.000    0.000    0.000    0.000 
#
# Total GULP energy -122817.048715 kJ/mol
# GULP energy per Si atom -5582.593123 kJ/mol
# Density = 2.297165 g / cm^3
# Si number density = 23.024049 Si / 1000 Ang^3
#
#
#
# Elastic Constant Matrix: (Units=GPa)
#
#
# Indices 1 2 3 4 5 6 
#
# 1 88.2774 74.1025 36.6520 0.0000 0.0000 0.0000
# 2 74.1025 192.9954 96.7726 0.0000 0.0000 0.0000
# 3 36.6520 96.7726 157.9083 0.0000 0.0000 0.0000
# 4 0.0000 0.0000 0.0000 39.0430 0.0000 0.0000
# 5 0.0000 0.0000 0.0000 0.0000 33.9618 0.0000
# 6 0.0000 0.0000 0.0000 0.0000 0.0000 41.8748
#
#
#
# Elastic Compliance Matrix: (Units=1/GPa)
#
#
# Indices 1 2 3 4 5 6 
#
# 1 0.016716 -0.006457 0.000077 0.000000 0.000000 0.000000
# 2 -0.006457 0.009974 -0.004614 0.000000 0.000000 0.000000
# 3 0.000077 -0.004614 0.009142 0.000000 0.000000 0.000000
# 4 0.000000 0.000000 0.000000 0.025613 0.000000 0.000000
# 5 0.000000 0.000000 0.000000 0.000000 0.029445 0.000000
# 6 0.000000 0.000000 0.000000 0.000000 0.000000 0.023881
#
#
# Mechanical properties :
#
#
# Convention : Reuss Voigt Hill
#
# Bulk Modulus (GPa) = 72.22665 94.91504 83.57084
# Shear Modulus (GPa) = 35.36730 38.41953 36.89341
#
# Velocity S-wave (km/s) = 3.92357 4.08937 4.00732
# Velocity P-wave (km/s) = 7.20861 7.97565 7.60181
#
# Compressibility (1/GPa) = 0.01384530
#
# Stress axis : x y z
#
# Youngs Moduli (GPa) = 59.82269 100.25870 109.37993
#
# Poissons Ratio (x) = 0.64737 -0.00844
# Poissons Ratio (y) = 0.38627 0.50466
# Poissons Ratio (z) = -0.00462 0.46258
#
# Static dielectric constant tensor:
#      x y z
#    x 1.926040 0.000000 0.000000 
#    y 0.000000 1.856450 0.000000 
#    z 0.000000 0.000000 1.960550 
# 
# From -- ./inp_files/6371.got.cif
#   From: 2010.05.17/outbox.cif.g08.bks.cpg/sg20_4_cif.got.tgz:6371.got - 2010.06.03 22:52:26.
