data_PCOD9321667
_publ_section_title
;
Structure prediction by ZEFSAII (Michael W. Deem and Ramdas Pophale) SiO2 
 PCOD9321667
Probable space group: C 2 2 21
;
_chemical_formula_sum "Si O2"
_cell_formula_units_Z 40
_cell_length_a 7.907165
_cell_length_b 11.521142
_cell_length_c 20.385320
_cell_angle_alpha 90.000000
_cell_angle_beta 90.000000
_cell_angle_gamma 90.000000
_cell_volume 1857.093902
_symmetry_space_group_name_H-M "C 2 2 21"
_symmetry_group_IT_number 20
_symmetry_cell_setting 'orthorhombic'
loop_
_space_group_symop_operation_xyz
x,y,z
-x,-y,1/2+z
x,-y,-z
-x,y,1/2-z
1/2+x,1/2+y,z
1/2-x,1/2-y,1/2+z
1/2+x,1/2-y,-z
1/2-x,1/2+y,1/2-z
loop_
_atom_site_type_symbol
_atom_site_label
_atom_site_fract_x
_atom_site_fract_y
_atom_site_fract_z
Si Si1 0.199783 0.243333 0.238089
Si Si2 0.627142 0.446796 0.573176
Si Si3 0.047215 0.632847 0.018571
Si Si4 0.200642 0.203487 0.086402
Si Si5 0.817839 0.995211 0.217142
O O1 0.236368 0.225746 0.161731
O O2 0.266782 0.123686 0.272209
O O3 0.252197 0.377077 0.251352
O O4 0.000000 0.244741 0.250000
O O5 0.624078 0.500000 0.500000
O O6 0.788516 0.360255 0.566203
O O7 0.439843 0.397840 0.583977
O O8 0.667441 0.520606 0.638345
O O9 0.877102 0.681660 0.049932
O O10 0.014727 0.500000 0.000000
O O11 0.102312 0.696087 0.952260
O O12 0.000000 0.009392 0.250000
#
# Coordination Sequence:
#
# PCOD9321667 Si02
#       5
#     8   8   8   8   8
#     4  11  25  47  70 100 146 187 246 297 362 434
#     4  11  23  47  73 106 148 186 245 307 358 438
#     4  11  25  42  70 109 140 184 235 293 371 428
#     4  12  23  46  72 104 144 190 236 303 363 434
#     4  11  25  48  72 103 146 194 240 305 365 432
#
# _framework density 21.539027999999998
#
# number of rings (size 3 to 8) (size 9 to 14) (size 15 to 20)
#    0.000    0.800    6.000    3.000    0.000    5.600 
#    3.600    0.000    0.000    0.000    0.000    0.000 
#    0.000    0.000    0.000    0.000    0.000    0.000 
#
# Total GULP energy -111439.596413 kJ/mol
# GULP energy per Si atom -5571.979821 kJ/mol
# Density = 2.149000 g / cm^3
# Si number density = 21.539028 Si / 1000 Ang^3
#
#
#
# Elastic Constant Matrix: (Units=GPa)
#
#
# Indices 1 2 3 4 5 6 
#
# 1 83.2647 25.8787 7.5153 0.0000 0.0000 0.0000
# 2 25.8787 111.2343 20.9222 0.0000 0.0000 0.0000
# 3 7.5153 20.9222 98.5988 0.0000 0.0000 0.0000
# 4 0.0000 0.0000 0.0000 36.8692 0.0000 0.0000
# 5 0.0000 0.0000 0.0000 0.0000 15.4333 0.0000
# 6 0.0000 0.0000 0.0000 0.0000 0.0000 16.1341
#
#
#
# Elastic Compliance Matrix: (Units=1/GPa)
#
#
# Indices 1 2 3 4 5 6 
#
# 1 0.012958 -0.002947 -0.000362 0.000000 0.000000 0.000000
# 2 -0.002947 0.010034 -0.001905 0.000000 0.000000 0.000000
# 3 -0.000362 -0.001905 0.010574 0.000000 0.000000 0.000000
# 4 0.000000 0.000000 0.000000 0.027123 0.000000 0.000000
# 5 0.000000 0.000000 0.000000 0.000000 0.064795 0.000000
# 6 0.000000 0.000000 0.000000 0.000000 0.000000 0.061981
#
#
# Mechanical properties :
#
#
# Convention : Reuss Voigt Hill
#
# Bulk Modulus (GPa) = 43.21724 44.63667 43.92695
# Shear Modulus (GPa) = 24.31849 29.60608 26.96228
#
# Velocity S-wave (km/s) = 3.36377 3.71149 3.54190
# Velocity P-wave (km/s) = 5.93252 6.25584 6.09632
#
# Compressibility (1/GPa) = 0.02313891
#
# Stress axis : x y z
#
# Youngs Moduli (GPa) = 77.16994 99.66330 94.57278
#
# Poissons Ratio (x) = 0.29367 0.03428
# Poissons Ratio (y) = 0.22739 0.18012
# Poissons Ratio (z) = 0.02797 0.18981
#
# Static dielectric constant tensor:
#      x y z
#    x 1.776130 0.000000 0.000000 
#    y 0.000000 1.939620 0.000000 
#    z 0.000000 0.000000 1.777280 
# 
# From -- ./inp_files/26462.got.cif
#   From: 2010.05.17/outbox.cif.g08.bks.cpg/sg20_14_cif.got.tgz:26462.got - 2010.06.03 22:52:26.
