data_PCOD9321616
_publ_section_title
;
Structure prediction by ZEFSAII (Michael W. Deem and Ramdas Pophale) SiO2 
 PCOD9321616
Probable space group: C 2 2 21
;
_chemical_formula_sum "Si O2"
_cell_formula_units_Z 48
_cell_length_a 14.330619
_cell_length_b 28.464939
_cell_length_c 5.235593
_cell_angle_alpha 90.000000
_cell_angle_beta 90.000000
_cell_angle_gamma 90.000000
_cell_volume 2135.704121
_symmetry_space_group_name_H-M "C 2 2 21"
_symmetry_group_IT_number 20
_symmetry_cell_setting 'orthorhombic'
loop_
_space_group_symop_operation_xyz
x,y,z
-x,-y,1/2+z
x,-y,-z
-x,y,1/2-z
1/2+x,1/2+y,z
1/2-x,1/2-y,1/2+z
1/2+x,1/2-y,-z
1/2-x,1/2+y,1/2-z
loop_
_atom_site_type_symbol
_atom_site_label
_atom_site_fract_x
_atom_site_fract_y
_atom_site_fract_z
Si Si1 0.500000 0.474133 0.250000
Si Si2 0.646005 0.337770 0.634313
Si Si3 0.500000 0.741989 0.250000
Si Si4 0.000000 0.302738 0.750000
Si Si5 0.348430 0.865227 0.617456
Si Si6 0.325933 0.945009 0.996487
Si Si7 0.500000 0.905689 0.250000
Si Si8 0.144805 0.897524 0.151088
O O1 0.540499 0.500000 0.500000
O O2 0.580394 0.442577 0.126484
O O3 0.586735 0.290960 0.667359
O O4 0.756168 0.334901 0.569021
O O5 0.610676 0.369391 0.399435
O O6 0.638259 0.365245 0.901808
O O7 0.476243 0.771966 0.501633
O O8 0.089158 0.335306 0.683893
O O9 0.319392 0.915872 0.732275
O O10 0.424859 0.874955 0.402088
O O11 0.432975 0.938014 0.078894
O O12 0.250906 0.916734 0.169696
O O13 0.302989 0.000000 0.000000
#
# Coordination Sequence:
#
# PCOD9321616 Si02
#       8
#     4   8   4   4   8   8   4   8
#     4  12  24  40  64  96 137 187 238 296 364 424
#     4  11  24  46  71 100 134 182 233 288 366 426
#     4  12  27  45  74 107 132 175 240 301 344 441
#     4  12  26  44  72 103 142 177 230 295 361 424
#     4  11  25  44  69  97 144 188 225 287 366 427
#     4  11  25  40  66 103 138 186 239 284 338 423
#     4  12  21  43  64  98 135 193 230 284 351 417
#     4  11  23  44  68  97 139 183 229 295 353 424
#
# _framework density 22.475023
#
# number of rings (size 3 to 8) (size 9 to 14) (size 15 to 20)
#    0.000    0.667    3.333    4.000    2.333    2.667 
#    0.000    0.000    0.000    0.000    0.000    0.000 
#    0.000    0.000    0.000    0.000    0.000    0.000 
#
# Total GULP energy -134097.647427 kJ/mol
# GULP energy per Si atom -5587.401976 kJ/mol
# Density = 2.242387 g / cm^3
# Si number density = 22.475023 Si / 1000 Ang^3
#
#
#
# Elastic Constant Matrix: (Units=GPa)
#
#
# Indices 1 2 3 4 5 6 
#
# 1 88.0898 21.0547 4.2306 0.0000 0.0000 0.0000
# 2 21.0547 108.9874 39.1474 0.0000 0.0000 0.0000
# 3 4.2306 39.1474 77.1427 0.0000 0.0000 0.0000
# 4 0.0000 0.0000 0.0000 -34.9610 0.0000 0.0000
# 5 0.0000 0.0000 0.0000 0.0000 11.0961 0.0000
# 6 0.0000 0.0000 0.0000 0.0000 0.0000 17.8833
#
#
#
# Elastic Compliance Matrix: (Units=1/GPa)
#
#
# Indices 1 2 3 4 5 6 
#
# 1 0.011927 -0.002530 0.000630 0.000000 0.000000 0.000000
# 2 -0.002530 0.011757 -0.005828 0.000000 0.000000 0.000000
# 3 0.000630 -0.005828 0.015886 0.000000 0.000000 0.000000
# 4 0.000000 0.000000 0.000000 -0.028603 0.000000 0.000000
# 5 0.000000 0.000000 0.000000 0.000000 0.090122 0.000000
# 6 0.000000 0.000000 0.000000 0.000000 0.000000 0.055918
#
#
# Mechanical properties :
#
#
# Convention : Reuss Voigt Hill
#
# Bulk Modulus (GPa) = 41.47021 44.78724 43.12872
# Shear Modulus (GPa) = 27.70078 12.78951 20.24515
#
# Velocity S-wave (km/s) = 3.51453 2.38807 3.00456
# Velocity P-wave (km/s) = 5.91278 5.25116 5.59176
#
# Compressibility (1/GPa) = 0.02411370
#
# Stress axis : x y z
#
# Youngs Moduli (GPa) = 83.84636 85.05234 62.94919
#
# Poissons Ratio (x) = 0.21521 -0.03966
# Poissons Ratio (y) = 0.21216 0.36685
# Poissons Ratio (z) = -0.05282 0.49566
#
# Static dielectric constant tensor:
#      x y z
#    x 1.977280 0.000000 0.000000 
#    y 0.000000 1.843760 0.000000 
#    z 0.000000 0.000000 2.029170 
# 
# From -- ./inp_files/2113.got.cif
#   From: 2010.05.17/outbox.cif.g08.bks.cpg/sg20_2_cif.got.tgz:2113.got - 2010.06.03 22:52:26.
