data_PCOD9321839
_publ_section_title
;
Structure prediction by ZEFSAII (Michael W. Deem and Ramdas Pophale) SiO2 
 PCOD9321839
Probable space group: C 2 2 21
;
_chemical_formula_sum "Si O2"
_cell_formula_units_Z 32
_cell_length_a 4.979849
_cell_length_b 24.610823
_cell_length_c 11.317925
_cell_angle_alpha 90.000000
_cell_angle_beta 90.000000
_cell_angle_gamma 90.000000
_cell_volume 1387.104315
_symmetry_space_group_name_H-M "C 2 2 21"
_symmetry_group_IT_number 20
_symmetry_cell_setting 'orthorhombic'
loop_
_space_group_symop_operation_xyz
x,y,z
-x,-y,1/2+z
x,-y,-z
-x,y,1/2-z
1/2+x,1/2+y,z
1/2-x,1/2-y,1/2+z
1/2+x,1/2-y,-z
1/2-x,1/2+y,1/2-z
loop_
_atom_site_type_symbol
_atom_site_label
_atom_site_fract_x
_atom_site_fract_y
_atom_site_fract_z
Si Si1 0.317551 0.996797 0.631121
Si Si2 0.000000 0.085843 0.750000
Si Si3 0.763025 0.874632 0.830485
Si Si4 0.239861 0.284242 0.024255
Si Si5 0.500000 0.161136 0.750000
O O1 0.500000 0.000888 0.750000
O O2 0.184620 0.937397 0.637741
O O3 0.447508 0.000000 0.500000
O O4 0.107645 0.045784 0.647738
O O5 0.748362 0.122650 0.710668
O O6 0.500000 0.873121 0.750000
O O7 0.000000 0.852290 0.750000
O O8 0.735350 0.837765 0.944396
O O9 0.121320 0.301444 0.149003
O O10 0.536725 0.259832 0.030750
#
# Coordination Sequence:
#
# PCOD9321839 Si02
#       5
#     8   4   8   8   4
#     4  11  25  47  77 114 158 204 249 310 381 463
#     4  12  24  48  75 114 155 202 234 320 378 472
#     4  11  25  46  72 109 147 193 244 299 368 451
#     4  12  28  49  79 107 147 200 250 321 376 440
#     4  12  28  50  75 116 151 192 262 310 382 456
#
# _framework density 23.069645000000001
#
# number of rings (size 3 to 8) (size 9 to 14) (size 15 to 20)
#    0.000    0.500    2.500    4.500    5.250    3.000 
#    4.500    0.000    0.000    0.000    0.000    0.000 
#    0.000    0.000    0.000    0.000    0.000    0.000 
#
# Total GULP energy -89600.212569 kJ/mol
# GULP energy per Si atom -5600.013286 kJ/mol
# Density = 2.301714 g / cm^3
# Si number density = 23.069645 Si / 1000 Ang^3
#
#
#
# Elastic Constant Matrix: (Units=GPa)
#
#
# Indices 1 2 3 4 5 6 
#
# 1 78.1481 -5.6198 1.7933 0.0000 0.0000 0.0000
# 2 -5.6198 73.5428 8.4548 0.0000 0.0000 0.0000
# 3 1.7933 8.4548 140.4914 0.0000 0.0000 0.0000
# 4 0.0000 0.0000 0.0000 -20.8225 0.0000 0.0000
# 5 0.0000 0.0000 0.0000 0.0000 32.6564 0.0000
# 6 0.0000 0.0000 0.0000 0.0000 0.0000 39.6719
#
#
#
# Elastic Compliance Matrix: (Units=1/GPa)
#
#
# Indices 1 2 3 4 5 6 
#
# 1 0.012874 0.001010 -0.000225 0.000000 0.000000 0.000000
# 2 0.001010 0.013771 -0.000842 0.000000 0.000000 0.000000
# 3 -0.000225 -0.000842 0.007171 0.000000 0.000000 0.000000
# 4 0.000000 0.000000 0.000000 -0.048025 0.000000 0.000000
# 5 0.000000 0.000000 0.000000 0.000000 0.030622 0.000000
# 6 0.000000 0.000000 0.000000 0.000000 0.000000 0.025207
#
#
# Mechanical properties :
#
#
# Convention : Reuss Voigt Hill
#
# Bulk Modulus (GPa) = 29.67128 33.49322 31.58225
# Shear Modulus (GPa) = 94.39492 29.47141 61.93317
#
# Velocity S-wave (km/s) = 6.40361 3.57809 5.18695
# Velocity P-wave (km/s) = 8.21976 5.62318 7.04218
#
# Compressibility (1/GPa) = 0.03370263
#
# Stress axis : x y z
#
# Youngs Moduli (GPa) = 77.67601 72.61401 139.44278
#
# Poissons Ratio (x) = -0.07331 0.03139
# Poissons Ratio (y) = -0.07843 0.11736
# Poissons Ratio (z) = 0.01748 0.06112
#
# Static dielectric constant tensor:
#      x y z
#    x 1.857000 0.000000 0.000000 
#    y 0.000000 1.848400 0.000000 
#    z 0.000000 0.000000 1.833250 
# 
# From -- ./inp_files/12009.got.cif
#   From: 2010.05.17/outbox.cif.g08.bks.cpg/sg20_7_cif.got.tgz:12009.got - 2010.06.03 22:52:26.
