data_PCOD9321410
_publ_section_title
;
Structure prediction by ZEFSAII (Michael W. Deem and Ramdas Pophale) SiO2 
 PCOD9321410
Probable space group: C 2 2 21
;
_chemical_formula_sum "Si O2"
_cell_formula_units_Z 48
_cell_length_a 20.801213
_cell_length_b 14.108984
_cell_length_c 8.172199
_cell_angle_alpha 90.000000
_cell_angle_beta 90.000000
_cell_angle_gamma 90.000000
_cell_volume 2398.409499
_symmetry_space_group_name_H-M "C 2 2 21"
_symmetry_group_IT_number 20
_symmetry_cell_setting 'orthorhombic'
loop_
_space_group_symop_operation_xyz
x,y,z
-x,-y,1/2+z
x,-y,-z
-x,y,1/2-z
1/2+x,1/2+y,z
1/2-x,1/2-y,1/2+z
1/2+x,1/2-y,-z
1/2-x,1/2+y,1/2-z
loop_
_atom_site_type_symbol
_atom_site_label
_atom_site_fract_x
_atom_site_fract_y
_atom_site_fract_z
Si Si1 0.570902 0.155104 0.679327
Si Si2 0.310193 0.656469 0.694598
Si Si3 0.930360 0.729836 0.190710
Si Si4 0.311551 0.731907 0.325494
Si Si5 0.379288 0.964911 0.686299
Si Si6 0.727522 0.462534 0.684932
O O1 0.500000 0.166475 0.750000
O O2 0.571440 0.194805 0.496049
O O3 0.623746 0.212338 0.783669
O O4 0.591040 0.045041 0.696579
O O5 0.375022 0.693593 0.778122
O O6 0.309013 0.697066 0.511500
O O7 0.248492 0.699613 0.788311
O O8 0.302749 0.543745 0.701863
O O9 0.913190 0.635501 0.293389
O O10 0.000000 0.763813 0.250000
O O11 0.304102 0.638978 0.213304
O O12 0.386364 0.000000 0.500000
O O13 0.303527 0.953113 0.721772
O O14 0.720888 0.500000 0.500000
#
# Coordination Sequence:
#
# PCOD9321410 Si02
#       6
#     8   8   8   8   8   8
#     4  12  25  42  64  92 129 169 211 259 317 377
#     4  12  24  41  65  94 127 166 211 259 312 371
#     4  12  25  42  64  92 129 169 211 259 317 377
#     4  12  24  41  65  94 127 166 211 259 312 371
#     4  11  22  38  63  94 130 166 208 259 315 376
#     4  11  23  40  65  96 128 164 210 260 312 369
#
# _framework density 20.013262999999998
#
# number of rings (size 3 to 8) (size 9 to 14) (size 15 to 20)
#    0.000    0.333    3.333    7.500    0.000    1.333 
#    0.000    0.833    0.000    0.000    0.000    0.000 
#    0.000    0.000    0.000    0.000    0.000    0.000 
#
# Total GULP energy -134460.821473 kJ/mol
# GULP energy per Si atom -5602.534228 kJ/mol
# Density = 1.996771 g / cm^3
# Si number density = 20.013263 Si / 1000 Ang^3
#
#
#
# Elastic Constant Matrix: (Units=GPa)
#
#
# Indices 1 2 3 4 5 6 
#
# 1 136.7938 31.0421 13.3920 0.0000 0.0000 0.0000
# 2 31.0421 77.9845 -16.4567 0.0000 0.0000 0.0000
# 3 13.3920 -16.4567 56.0056 0.0000 0.0000 0.0000
# 4 0.0000 0.0000 0.0000 33.4089 0.0000 0.0000
# 5 0.0000 0.0000 0.0000 0.0000 21.3609 0.0000
# 6 0.0000 0.0000 0.0000 0.0000 0.0000 7.3556
#
#
#
# Elastic Compliance Matrix: (Units=1/GPa)
#
#
# Indices 1 2 3 4 5 6 
#
# 1 0.008557 -0.004092 -0.003248 0.000000 0.000000 0.000000
# 2 -0.004092 0.015627 0.005570 0.000000 0.000000 0.000000
# 3 -0.003248 0.005570 0.020269 0.000000 0.000000 0.000000
# 4 0.000000 0.000000 0.000000 0.029932 0.000000 0.000000
# 5 0.000000 0.000000 0.000000 0.000000 0.046815 0.000000
# 6 0.000000 0.000000 0.000000 0.000000 0.000000 0.135950
#
#
# Mechanical properties :
#
#
# Convention : Reuss Voigt Hill
#
# Bulk Modulus (GPa) = 24.44180 36.30430 30.37305
# Shear Modulus (GPa) = 18.22644 28.61218 23.41931
#
# Velocity S-wave (km/s) = 3.02108 3.78519 3.42451
# Velocity P-wave (km/s) = 4.94050 6.10598 5.55390
#
# Compressibility (1/GPa) = 0.04091352
#
# Stress axis : x y z
#
# Youngs Moduli (GPa) = 116.86676 63.99111 49.33682
#
# Poissons Ratio (x) = 0.26182 0.16026
# Poissons Ratio (y) = 0.47816 -0.27482
# Poissons Ratio (z) = 0.37962 -0.35645
#
# Static dielectric constant tensor:
#      x y z
#    x 1.675770 0.000000 0.000000 
#    y 0.000000 1.684600 0.000000 
#    z 0.000000 0.000000 1.747750 
# 
# From -- ./inp_files/9321.got.cif
#   From: 2010.05.17/outbox.cif.g08.bks.cpg/sg20_5_cif.got.tgz:9321.got - 2010.06.03 22:52:26.
