data_PCOD9321391
_publ_section_title
;
Structure prediction by ZEFSAII (Michael W. Deem and Ramdas Pophale) SiO2 
 PCOD9321391
Probable space group: C 2 2 21
;
_chemical_formula_sum "Si O2"
_cell_formula_units_Z 48
_cell_length_a 17.348156
_cell_length_b 16.098946
_cell_length_c 8.902548
_cell_angle_alpha 90.000000
_cell_angle_beta 90.000000
_cell_angle_gamma 90.000000
_cell_volume 2486.366160
_symmetry_space_group_name_H-M "C 2 2 21"
_symmetry_group_IT_number 20
_symmetry_cell_setting 'orthorhombic'
loop_
_space_group_symop_operation_xyz
x,y,z
-x,-y,1/2+z
x,-y,-z
-x,y,1/2-z
1/2+x,1/2+y,z
1/2-x,1/2-y,1/2+z
1/2+x,1/2-y,-z
1/2-x,1/2+y,1/2-z
loop_
_atom_site_type_symbol
_atom_site_label
_atom_site_fract_x
_atom_site_fract_y
_atom_site_fract_z
Si Si1 0.936532 0.500000 0.000000
Si Si2 0.669751 0.107469 0.719238
Si Si3 0.776088 0.500000 0.500000
Si Si4 0.040623 0.643827 0.115360
Si Si5 0.927232 0.240850 0.343560
Si Si6 0.781673 0.647989 0.327886
Si Si7 0.783716 0.180053 0.497247
O O1 0.884514 0.446854 0.112715
O O2 0.991709 0.561942 0.088502
O O3 0.629691 0.197376 0.749038
O O4 0.749788 0.121486 0.628289
O O5 0.681039 0.058293 0.875828
O O6 0.735762 0.569644 0.396212
O O7 0.128124 0.625706 0.159616
O O8 0.000000 0.692544 0.250000
O O9 0.037760 0.696676 0.965462
O O10 0.871840 0.178584 0.436704
O O11 0.000000 0.207275 0.250000
O O12 0.771663 0.728074 0.433383
O O13 0.763815 0.665774 0.155265
#
# Coordination Sequence:
#
# PCOD9321391 Si02
#       7
#     4   8   4   8   8   8   8
#     4  12  25  34  56  90 143 168 210 250 337 414
#     4  12  23  39  58  88 134 179 214 265 327 403
#     4  12  21  36  58  96 117 166 216 268 319 386
#     4  11  22  32  50  84 126 173 202 251 314 397
#     4  11  23  39  60  88 127 175 225 268 318 384
#     4  11  22  36  61  82 130 175 222 265 320 392
#     4  11  22  43  59  85 128 187 223 270 317 400
#
# _framework density 19.305281000000001
#
# number of rings (size 3 to 8) (size 9 to 14) (size 15 to 20)
#    0.000    0.667    6.667    3.500    2.333    0.000 
#    0.000    0.000    0.000    0.000    0.000    3.500 
#    0.000    5.333    0.000    0.000    0.000    0.083 
#
# Total GULP energy -133875.004657 kJ/mol
# GULP energy per Si atom -5578.125194 kJ/mol
# Density = 1.926134 g / cm^3
# Si number density = 19.305281 Si / 1000 Ang^3
#
#
#
# Elastic Constant Matrix: (Units=GPa)
#
#
# Indices 1 2 3 4 5 6 
#
# 1 90.2186 36.7140 49.3042 0.0000 0.0000 0.0000
# 2 36.7140 47.2577 26.4902 0.0000 0.0000 0.0000
# 3 49.3042 26.4902 116.6228 0.0000 0.0000 0.0000
# 4 0.0000 0.0000 0.0000 27.1071 0.0000 0.0000
# 5 0.0000 0.0000 0.0000 0.0000 40.0802 0.0000
# 6 0.0000 0.0000 0.0000 0.0000 0.0000 31.1549
#
#
#
# Elastic Compliance Matrix: (Units=1/GPa)
#
#
# Indices 1 2 3 4 5 6 
#
# 1 0.018661 -0.011545 -0.005267 0.000000 0.000000 0.000000
# 2 -0.011545 0.031391 -0.002249 0.000000 0.000000 0.000000
# 3 -0.005267 -0.002249 0.011312 0.000000 0.000000 0.000000
# 4 0.000000 0.000000 0.000000 0.036891 0.000000 0.000000
# 5 0.000000 0.000000 0.000000 0.000000 0.024950 0.000000
# 6 0.000000 0.000000 0.000000 0.000000 0.000000 0.032098
#
#
# Mechanical properties :
#
#
# Convention : Reuss Voigt Hill
#
# Bulk Modulus (GPa) = 43.02684 53.23507 48.13095
# Shear Modulus (GPa) = 24.85448 29.10782 26.98115
#
# Velocity S-wave (km/s) = 3.59199 3.88721 3.74251
# Velocity P-wave (km/s) = 6.28802 6.91248 6.60763
#
# Compressibility (1/GPa) = 0.02324131
#
# Stress axis : x y z
#
# Youngs Moduli (GPa) = 53.58882 31.85661 88.40039
#
# Poissons Ratio (x) = 0.36778 0.46558
# Poissons Ratio (y) = 0.61868 0.19884
# Poissons Ratio (z) = 0.28224 0.07166
#
# Static dielectric constant tensor:
#      x y z
#    x 1.713350 0.000000 0.000000 
#    y 0.000000 1.705280 0.000000 
#    z 0.000000 0.000000 1.743940 
# 
# From -- ./inp_files/9473.got.cif
#   From: 2010.05.17/outbox.cif.g08.bks.cpg/sg20_5_cif.got.tgz:9473.got - 2010.06.03 22:52:26.
