data_PCOD9321054
_publ_section_title
;
Structure prediction by ZEFSAII (Michael W. Deem and Ramdas Pophale) SiO2 
 PCOD9321054
Probable space group: C 2 2 21
;
_chemical_formula_sum "Si O2"
_cell_formula_units_Z 60
_cell_length_a 15.981812
_cell_length_b 5.143562
_cell_length_c 30.623343
_cell_angle_alpha 90.000000
_cell_angle_beta 90.000000
_cell_angle_gamma 90.000000
_cell_volume 2517.344166
_symmetry_space_group_name_H-M "C 2 2 21"
_symmetry_group_IT_number 20
_symmetry_cell_setting 'orthorhombic'
loop_
_space_group_symop_operation_xyz
x,y,z
-x,-y,1/2+z
x,-y,-z
-x,y,1/2-z
1/2+x,1/2+y,z
1/2-x,1/2-y,1/2+z
1/2+x,1/2-y,-z
1/2-x,1/2+y,1/2-z
loop_
_atom_site_type_symbol
_atom_site_label
_atom_site_fract_x
_atom_site_fract_y
_atom_site_fract_z
Si Si1 0.111737 0.300091 0.927719
Si Si2 0.332901 0.324015 0.151992
Si Si3 0.519322 0.438432 0.148906
Si Si4 0.452708 0.500000 0.500000
Si Si5 0.285989 0.818492 0.107886
Si Si6 0.051343 0.560540 0.794250
Si Si7 0.951728 0.373797 0.049048
Si Si8 0.296492 0.880494 0.754620
O O1 0.209881 0.320226 0.917622
O O2 0.084880 0.099246 0.889760
O O3 0.033648 0.502249 0.927180
O O4 0.105721 0.208472 0.977684
O O5 0.426173 0.363531 0.133265
O O6 0.340518 0.211254 0.200686
O O7 0.270973 0.396687 0.265781
O O8 0.277806 0.111898 0.126143
O O9 0.527002 0.719397 0.171095
O O10 0.536694 0.221969 0.185517
O O11 0.514397 0.410024 0.537615
O O12 0.368281 0.850963 0.077214
O O13 0.299514 0.616981 0.147827
O O14 0.146906 0.545867 0.778787
O O15 0.000000 0.604401 0.750000
O O16 0.939507 0.500000 0.000000
#
# Coordination Sequence:
#
# PCOD9321054 Si02
#       8
#     8   8   8   4   8   8   8   8
#     4  11  27  47  75 114 149 203 254 323 379 475
#     4  12  27  50  69 110 146 205 245 323 389 458
#     4  12  26  46  77 102 153 190 260 313 383 460
#     4  10  24  50  78 102 156 196 254 310 392 446
#     4  12  28  46  79 110 154 194 261 308 391 459
#     4  12  27  47  72 108 136 205 253 308 382 462
#     4  10  24  50  75 113 152 205 248 315 389 459
#     4  12  28  48  71 103 154 194 256 322 385 454
#
# _framework density 23.834641999999999
#
# number of rings (size 3 to 8) (size 9 to 14) (size 15 to 20)
#    0.000    0.533    2.667    3.600   14.000    0.000 
#    3.600    0.000    0.000    0.000    0.000    0.000 
#    0.000    0.000    0.000    0.000    0.000    0.000 
#
# Total GULP energy -167400.051723 kJ/mol
# GULP energy per Si atom -5580.001724 kJ/mol
# Density = 2.378039 g / cm^3
# Si number density = 23.834642 Si / 1000 Ang^3
#
#
#
# Elastic Constant Matrix: (Units=GPa)
#
#
# Indices 1 2 3 4 5 6 
#
# 1 103.9847 29.8690 24.3848 0.0000 0.0000 0.0000
# 2 29.8690 112.5732 20.0790 0.0000 0.0000 0.0000
# 3 24.3848 20.0790 63.9496 0.0000 0.0000 0.0000
# 4 0.0000 0.0000 0.0000 48.3618 0.0000 0.0000
# 5 0.0000 0.0000 0.0000 0.0000 38.6504 0.0000
# 6 0.0000 0.0000 0.0000 0.0000 0.0000 12.6530
#
#
#
# Elastic Compliance Matrix: (Units=1/GPa)
#
#
# Indices 1 2 3 4 5 6 
#
# 1 0.011106 -0.002321 -0.003506 0.000000 0.000000 0.000000
# 2 -0.002321 0.009895 -0.002222 0.000000 0.000000 0.000000
# 3 -0.003506 -0.002222 0.017672 0.000000 0.000000 0.000000
# 4 0.000000 0.000000 0.000000 0.020677 0.000000 0.000000
# 5 0.000000 0.000000 0.000000 0.000000 0.025873 0.000000
# 6 0.000000 0.000000 0.000000 0.000000 0.000000 0.079033
#
#
# Mechanical properties :
#
#
# Convention : Reuss Voigt Hill
#
# Bulk Modulus (GPa) = 44.29728 47.68590 45.99159
# Shear Modulus (GPa) = 26.61289 33.67803 30.14546
#
# Velocity S-wave (km/s) = 3.34513 3.76305 3.56023
# Velocity P-wave (km/s) = 5.79184 6.23948 6.01982
#
# Compressibility (1/GPa) = 0.02257475
#
# Stress axis : x y z
#
# Youngs Moduli (GPa) = 90.04349 101.05787 56.58746
#
# Poissons Ratio (x) = 0.23459 0.19839
# Poissons Ratio (y) = 0.20902 0.12573
# Poissons Ratio (z) = 0.31568 0.22453
#
# Static dielectric constant tensor:
#      x y z
#    x 1.985650 0.000000 0.000000 
#    y 0.000000 1.932560 0.000000 
#    z 0.000000 0.000000 1.909150 
# 
# From -- ./inp_files/30509.got.cif
#   From: 2010.05.17/outbox.cif.g08.bks.cpg/sg20_16_cif.got.tgz:30509.got - 2010.06.03 22:52:26.
