data_PCOD9321460
_publ_section_title
;
Structure prediction by ZEFSAII (Michael W. Deem and Ramdas Pophale) SiO2 
 PCOD9321460
Probable space group: C 2 2 21
;
_chemical_formula_sum "Si O2"
_cell_formula_units_Z 60
_cell_length_a 18.736799
_cell_length_b 5.149911
_cell_length_c 29.759029
_cell_angle_alpha 90.000000
_cell_angle_beta 90.000000
_cell_angle_gamma 90.000000
_cell_volume 2871.533440
_symmetry_space_group_name_H-M "C 2 2 21"
_symmetry_group_IT_number 20
_symmetry_cell_setting 'orthorhombic'
loop_
_space_group_symop_operation_xyz
x,y,z
-x,-y,1/2+z
x,-y,-z
-x,y,1/2-z
1/2+x,1/2+y,z
1/2-x,1/2-y,1/2+z
1/2+x,1/2-y,-z
1/2-x,1/2+y,1/2-z
loop_
_atom_site_type_symbol
_atom_site_label
_atom_site_fract_x
_atom_site_fract_y
_atom_site_fract_z
Si Si1 0.556532 0.219510 0.710740
Si Si2 0.778233 0.256836 0.225177
Si Si3 0.454743 0.749091 0.468326
Si Si4 0.296607 0.153188 0.548121
Si Si5 0.425963 0.296161 0.155045
Si Si6 0.191629 0.500000 0.500000
Si Si7 0.793708 0.092762 0.128276
Si Si8 0.086097 0.559977 0.579267
O O1 0.500000 0.237658 0.750000
O O2 0.636426 0.280495 0.727314
O O3 0.540664 0.437230 0.672869
O O4 0.560011 0.931072 0.690625
O O5 0.758235 0.534610 0.245163
O O6 0.758968 0.221318 0.172328
O O7 0.450432 0.500000 0.500000
O O8 0.379102 0.787054 0.443481
O O9 0.524114 0.749375 0.437281
O O10 0.462366 0.000000 0.500000
O O11 0.252680 0.410520 0.536572
O O12 0.258459 0.000606 0.588694
O O13 0.288401 0.000000 0.500000
O O14 0.341593 0.354181 0.147316
O O15 0.449001 0.168510 0.108256
O O16 0.129165 0.446260 0.537554
O O17 0.854283 0.281804 0.107421
#
# Coordination Sequence:
#
# PCOD9321460 Si02
#       8
#     8   8   8   8   8   4   8   8
#     4  11  24  46  72  97 133 178 220 275 351 415
#     4  11  24  45  70  99 135 174 223 292 350 403
#     4  11  27  44  62  95 142 187 223 283 338 395
#     4  11  23  43  64 100 144 180 225 281 344 401
#     4  11  22  41  69 101 134 167 226 290 325 397
#     4  12  22  36  72 102 132 196 230 276 322 424
#     4  11  24  42  73 101 133 182 238 283 337 423
#     4  12  24  41  71 101 139 180 243 274 337 404
#
# _framework density 20.894757999999999
#
# number of rings (size 3 to 8) (size 9 to 14) (size 15 to 20)
#    0.000    0.800    6.667    2.000    3.733    0.000 
#    4.800    0.000    0.000    0.000    0.000    0.000 
#    0.000    0.000    0.000    0.000    0.000    0.000 
#
# Total GULP energy -167073.258673 kJ/mol
# GULP energy per Si atom -5569.108622 kJ/mol
# Density = 2.084720 g / cm^3
# Si number density = 20.894758 Si / 1000 Ang^3
#
#
#
# Elastic Constant Matrix: (Units=GPa)
#
#
# Indices 1 2 3 4 5 6 
#
# 1 109.2756 53.9143 88.9292 0.0000 0.0000 0.0000
# 2 53.9143 138.4669 81.8257 0.0000 0.0000 0.0000
# 3 88.9292 81.8257 185.0954 0.0000 0.0000 0.0000
# 4 0.0000 0.0000 0.0000 59.2790 0.0000 0.0000
# 5 0.0000 0.0000 0.0000 0.0000 40.4902 0.0000
# 6 0.0000 0.0000 0.0000 0.0000 0.0000 16.6582
#
#
#
# Elastic Compliance Matrix: (Units=1/GPa)
#
#
# Indices 1 2 3 4 5 6 
#
# 1 0.015512 -0.002214 -0.006474 0.000000 0.000000 0.000000
# 2 -0.002214 0.010092 -0.003398 0.000000 0.000000 0.000000
# 3 -0.006474 -0.003398 0.010015 0.000000 0.000000 0.000000
# 4 0.000000 0.000000 0.000000 0.016869 0.000000 0.000000
# 5 0.000000 0.000000 0.000000 0.000000 0.024697 0.000000
# 6 0.000000 0.000000 0.000000 0.000000 0.000000 0.060031
#
#
# Mechanical properties :
#
#
# Convention : Reuss Voigt Hill
#
# Bulk Modulus (GPa) = 87.35446 98.01959 92.68702
# Shear Modulus (GPa) = 30.26568 37.16339 33.71453
#
# Velocity S-wave (km/s) = 3.81002 4.22192 4.02125
# Velocity P-wave (km/s) = 7.82641 8.41303 8.12501
#
# Compressibility (1/GPa) = 0.01144761
#
# Stress axis : x y z
#
# Youngs Moduli (GPa) = 64.46534 99.09046 99.85000
#
# Poissons Ratio (x) = 0.21940 0.64643
# Poissons Ratio (y) = 0.14274 0.33924
# Poissons Ratio (z) = 0.41735 0.33666
#
# Static dielectric constant tensor:
#      x y z
#    x 1.716900 0.000000 0.000000 
#    y 0.000000 1.868190 0.000000 
#    z 0.000000 0.000000 1.802720 
# 
# From -- ./inp_files/30511.got.cif
#   From: 2010.05.17/outbox.cif.g08.bks.cpg/sg20_16_cif.got.tgz:30511.got - 2010.06.03 22:52:26.
