data_PCOD9321544
_publ_section_title
;
Structure prediction by ZEFSAII (Michael W. Deem and Ramdas Pophale) SiO2 
 PCOD9321544
Probable space group: C 2 2 21
;
_chemical_formula_sum "Si O2"
_cell_formula_units_Z 36
_cell_length_a 16.195158
_cell_length_b 11.949232
_cell_length_c 9.415504
_cell_angle_alpha 90.000000
_cell_angle_beta 90.000000
_cell_angle_gamma 90.000000
_cell_volume 1822.085511
_symmetry_space_group_name_H-M "C 2 2 21"
_symmetry_group_IT_number 20
_symmetry_cell_setting 'orthorhombic'
loop_
_space_group_symop_operation_xyz
x,y,z
-x,-y,1/2+z
x,-y,-z
-x,y,1/2-z
1/2+x,1/2+y,z
1/2-x,1/2-y,1/2+z
1/2+x,1/2-y,-z
1/2-x,1/2+y,1/2-z
loop_
_atom_site_type_symbol
_atom_site_label
_atom_site_fract_x
_atom_site_fract_y
_atom_site_fract_z
Si Si1 0.583932 0.661142 0.839233
Si Si2 0.700956 0.629951 0.467955
Si Si3 0.513438 0.379474 0.581388
Si Si4 0.788040 0.306318 0.818233
Si Si5 0.712043 0.500000 0.000000
O O1 0.500000 0.630073 0.750000
O O2 0.626517 0.759669 0.749445
O O3 0.552798 0.694173 0.996435
O O4 0.652373 0.563627 0.881395
O O5 0.706857 0.500000 0.500000
O O6 0.604662 0.660453 0.455442
O O7 0.737461 0.662231 0.319041
O O8 0.742368 0.699727 0.592792
O O9 0.506119 0.500000 0.500000
O O10 0.500000 0.384195 0.750000
O O11 0.771136 0.409406 0.924490
#
# Coordination Sequence:
#
# PCOD9321544 Si02
#       5
#     8   8   8   8   4
#     4  12  24  43  72 104 137 179 235 291 338 405
#     4  11  25  42  68 104 141 180 230 282 347 412
#     4  11  23  37  65 102 140 170 222 292 346 390
#     4  12  25  44  68 102 144 186 225 285 345 417
#     4  12  26  44  70 102 144 180 224 288 348 406
#
# _framework density 19.757580999999998
#
# number of rings (size 3 to 8) (size 9 to 14) (size 15 to 20)
#    0.000    0.444    5.556    3.333    6.222    0.000 
#    0.000    0.000    2.444    1.333    0.000    0.000 
#    0.000    0.000    0.000    0.000    0.000    0.000 
#
# Total GULP energy -100254.000760 kJ/mol
# GULP energy per Si atom -5569.666709 kJ/mol
# Density = 1.971261 g / cm^3
# Si number density = 19.757581 Si / 1000 Ang^3
#
#
#
# Elastic Constant Matrix: (Units=GPa)
#
#
# Indices 1 2 3 4 5 6 
#
# 1 79.0928 61.7911 47.8261 0.0000 0.0000 0.0000
# 2 61.7911 95.8517 65.4723 0.0000 0.0000 0.0000
# 3 47.8261 65.4723 172.8318 0.0000 0.0000 0.0000
# 4 0.0000 0.0000 0.0000 38.9248 0.0000 0.0000
# 5 0.0000 0.0000 0.0000 0.0000 12.9875 0.0000
# 6 0.0000 0.0000 0.0000 0.0000 0.0000 30.5561
#
#
#
# Elastic Compliance Matrix: (Units=1/GPa)
#
#
# Indices 1 2 3 4 5 6 
#
# 1 0.025633 -0.015756 -0.001124 0.000000 0.000000 0.000000
# 2 -0.015756 0.023760 -0.004641 0.000000 0.000000 0.000000
# 3 -0.001124 -0.004641 0.007855 0.000000 0.000000 0.000000
# 4 0.000000 0.000000 0.000000 0.025691 0.000000 0.000000
# 5 0.000000 0.000000 0.000000 0.000000 0.076997 0.000000
# 6 0.000000 0.000000 0.000000 0.000000 0.000000 0.032727
#
#
# Mechanical properties :
#
#
# Convention : Reuss Voigt Hill
#
# Bulk Modulus (GPa) = 70.39635 77.55060 73.97347
# Shear Modulus (GPa) = 20.79521 28.00613 24.40067
#
# Velocity S-wave (km/s) = 3.24777 3.76904 3.51807
# Velocity P-wave (km/s) = 7.05489 7.63395 7.35012
#
# Compressibility (1/GPa) = 0.01420528
#
# Stress axis : x y z
#
# Youngs Moduli (GPa) = 39.01243 42.08750 127.30614
#
# Poissons Ratio (x) = 0.66315 0.14313
# Poissons Ratio (y) = 0.61469 0.59079
# Poissons Ratio (z) = 0.04386 0.19531
#
# Static dielectric constant tensor:
#      x y z
#    x 1.766880 0.000000 0.000000 
#    y 0.000000 1.711780 0.000000 
#    z 0.000000 0.000000 1.721460 
# 
# From -- ./inp_files/7994.got.cif
#   From: 2010.05.17/outbox.cif.g08.bks.cpg/sg20_4_cif.got.tgz:7994.got - 2010.06.03 22:52:26.
