data_PCOD9321766
_publ_section_title
;
Structure prediction by ZEFSAII (Michael W. Deem and Ramdas Pophale) SiO2 
 PCOD9321766
Probable space group: C 2 2 21
;
_chemical_formula_sum "Si O2"
_cell_formula_units_Z 48
_cell_length_a 14.921442
_cell_length_b 9.470321
_cell_length_c 17.245937
_cell_angle_alpha 90.000000
_cell_angle_beta 90.000000
_cell_angle_gamma 90.000000
_cell_volume 2437.037939
_symmetry_space_group_name_H-M "C 2 2 21"
_symmetry_group_IT_number 20
_symmetry_cell_setting 'orthorhombic'
loop_
_space_group_symop_operation_xyz
x,y,z
-x,-y,1/2+z
x,-y,-z
-x,y,1/2-z
1/2+x,1/2+y,z
1/2-x,1/2-y,1/2+z
1/2+x,1/2-y,-z
1/2-x,1/2+y,1/2-z
loop_
_atom_site_type_symbol
_atom_site_label
_atom_site_fract_x
_atom_site_fract_y
_atom_site_fract_z
Si Si1 0.500317 0.167806 0.004821
Si Si2 0.771154 0.512221 0.146687
Si Si3 0.309068 0.218721 0.570051
Si Si4 0.321038 0.717320 0.070211
Si Si5 0.197258 0.042213 0.683750
Si Si6 0.942947 0.294731 0.827114
O O1 0.503341 0.208171 0.095617
O O2 0.590481 0.201469 0.958709
O O3 0.417102 0.248827 0.966840
O O4 0.483661 0.000000 0.000000
O O5 0.716546 0.621805 0.093509
O O6 0.783669 0.361495 0.107146
O O7 0.722501 0.495292 0.228823
O O8 0.868378 0.583648 0.160356
O O9 0.244321 0.174804 0.499646
O O10 0.281078 0.121550 0.642720
O O11 0.324149 0.596535 0.134440
O O12 0.114772 0.151418 0.680255
O O13 0.000000 0.317990 0.750000
#
# Coordination Sequence:
#
# PCOD9321766 Si02
#       6
#     8   8   8   8   8   8
#     4  12  24  44  71 101 134 179 232 285 335 407
#     4  11  24  46  68  99 139 178 223 281 344 408
#     4  11  25  43  70 101 130 179 229 274 345 398
#     4  12  22  46  69  98 136 174 228 282 328 410
#     4  11  25  44  68  98 141 176 221 284 344 405
#     4  11  26  45  65 100 138 178 227 282 343 403
#
# _framework density 19.696041000000001
#
# number of rings (size 3 to 8) (size 9 to 14) (size 15 to 20)
#    0.000    0.667    5.000    4.000    7.000    1.333 
#    3.000    2.500    0.000    0.000    0.000    0.000 
#    0.000    0.000    0.000    0.000    0.000    0.000 
#
# Total GULP energy -134326.928505 kJ/mol
# GULP energy per Si atom -5596.955354 kJ/mol
# Density = 1.965121 g / cm^3
# Si number density = 19.696041 Si / 1000 Ang^3
#
#
#
# Elastic Constant Matrix: (Units=GPa)
#
#
# Indices 1 2 3 4 5 6 
#
# 1 44.5537 -6.1422 17.7774 0.0000 0.0000 0.0000
# 2 -6.1422 79.5588 12.0466 0.0000 0.0000 0.0000
# 3 17.7774 12.0466 105.2635 0.0000 0.0000 0.0000
# 4 0.0000 0.0000 0.0000 29.1674 0.0000 0.0000
# 5 0.0000 0.0000 0.0000 0.0000 36.7413 0.0000
# 6 0.0000 0.0000 0.0000 0.0000 0.0000 0.1078
#
#
#
# Elastic Compliance Matrix: (Units=1/GPa)
#
#
# Indices 1 2 3 4 5 6 
#
# 1 0.024572 0.002570 -0.004444 0.000000 0.000000 0.000000
# 2 0.002570 0.013060 -0.001929 0.000000 0.000000 0.000000
# 3 -0.004444 -0.001929 0.010471 0.000000 0.000000 0.000000
# 4 0.000000 0.000000 0.000000 0.034285 0.000000 0.000000
# 5 0.000000 0.000000 0.000000 0.000000 0.027217 0.000000
# 6 0.000000 0.000000 0.000000 0.000000 0.000000 9.276838
#
#
# Mechanical properties :
#
#
# Convention : Reuss Voigt Hill
#
# Bulk Modulus (GPa) = 24.69261 30.74885 27.72073
# Shear Modulus (GPa) = 0.53149 26.91624 13.72386
#
# Velocity S-wave (km/s) = 0.52003 3.70074 2.64253
# Velocity P-wave (km/s) = 3.59508 5.82290 4.83895
#
# Compressibility (1/GPa) = 0.04049794
#
# Stress axis : x y z
#
# Youngs Moduli (GPa) = 40.69623 76.57112 95.49999
#
# Poissons Ratio (x) = -0.19678 0.42440
# Poissons Ratio (y) = -0.10459 0.18418
# Poissons Ratio (z) = 0.18085 0.14768
#
# Static dielectric constant tensor:
#      x y z
#    x 1.663590 0.000000 0.000000 
#    y 0.000000 1.678940 0.000000 
#    z 0.000000 0.000000 1.668710 
# 
# From -- ./inp_files/23470.got.cif
#   From: 2010.05.17/outbox.cif.g08.bks.cpg/sg20_12_cif.got.tgz:23470.got - 2010.06.03 22:52:26.
