data_PCOD9321844
_publ_section_title
;
Structure prediction by ZEFSAII (Michael W. Deem and Ramdas Pophale) SiO2 
 PCOD9321844
Probable space group: C 2 2 21
;
_chemical_formula_sum "Si O2"
_cell_formula_units_Z 20
_cell_length_a 8.771978
_cell_length_b 4.504231
_cell_length_c 17.706350
_cell_angle_alpha 90.000000
_cell_angle_beta 90.000000
_cell_angle_gamma 90.000000
_cell_volume 699.595865
_symmetry_space_group_name_H-M "C 2 2 21"
_symmetry_group_IT_number 20
_symmetry_cell_setting 'orthorhombic'
loop_
_space_group_symop_operation_xyz
x,y,z
-x,-y,1/2+z
x,-y,-z
-x,y,1/2-z
1/2+x,1/2+y,z
1/2-x,1/2-y,1/2+z
1/2+x,1/2-y,-z
1/2-x,1/2+y,1/2-z
loop_
_atom_site_type_symbol
_atom_site_label
_atom_site_fract_x
_atom_site_fract_y
_atom_site_fract_z
Si Si1 0.175873 0.629652 0.206803
Si Si2 0.422525 0.335479 0.607280
Si Si3 0.692144 0.500000 0.500000
O O1 0.305630 0.376261 0.225615
O O2 0.049073 0.395025 0.176328
O O3 0.150877 0.865036 0.139520
O O4 0.576876 0.368044 0.561572
O O5 0.300972 0.208758 0.548370
#
# Coordination Sequence:
#
# PCOD9321844 Si02
#       3
#     8   8   4
#     4   9  21  46  74 108 147 197 250 306 366 437
#     4  11  25  46  76 110 151 195 248 308 372 443
#     4  12  28  48  78 114 152 196 244 308 376 444
#
# _framework density 28.587933
#
# number of rings (size 3 to 8) (size 9 to 14) (size 15 to 20)
#    0.000    1.600    0.000    2.400    0.000   14.400 
#    0.000   30.000    0.000    0.000    0.000    0.000 
#    0.000    0.000    0.000    0.000    0.000    0.000 
#
# Total GULP energy -55787.924717 kJ/mol
# GULP energy per Si atom -5578.792472 kJ/mol
# Density = 2.852287 g / cm^3
# Si number density = 28.587933 Si / 1000 Ang^3
#
#
#
# Elastic Constant Matrix: (Units=GPa)
#
#
# Indices 1 2 3 4 5 6 
#
# 1 175.3439 66.1033 62.9823 0.0000 0.0000 0.0000
# 2 66.1033 230.0722 87.2028 0.0000 0.0000 0.0000
# 3 62.9823 87.2028 159.5790 0.0000 0.0000 0.0000
# 4 0.0000 0.0000 0.0000 71.3672 0.0000 0.0000
# 5 0.0000 0.0000 0.0000 0.0000 51.4961 0.0000
# 6 0.0000 0.0000 0.0000 0.0000 0.0000 -177.8683
#
#
#
# Elastic Compliance Matrix: (Units=1/GPa)
#
#
# Indices 1 2 3 4 5 6 
#
# 1 0.006897 -0.001198 -0.002068 0.000000 0.000000 0.000000
# 2 -0.001198 0.005690 -0.002636 0.000000 0.000000 0.000000
# 3 -0.002068 -0.002636 0.008523 0.000000 0.000000 0.000000
# 4 0.000000 0.000000 0.000000 0.014012 0.000000 0.000000
# 5 0.000000 0.000000 0.000000 0.000000 0.019419 0.000000
# 6 0.000000 0.000000 0.000000 0.000000 0.000000 -0.005622
#
#
# Mechanical properties :
#
#
# Convention : Reuss Voigt Hill
#
# Bulk Modulus (GPa) = 107.45297 110.84133 109.14715
# Shear Modulus (GPa) = 78.33831 12.24611 45.29221
#
# Velocity S-wave (km/s) = 5.24043 2.07195 3.98466
# Velocity P-wave (km/s) = 8.61885 6.67684 7.70924
#
# Compressibility (1/GPa) = 0.00930640
#
# Stress axis : x y z
#
# Youngs Moduli (GPa) = 144.98226 175.74789 117.32668
#
# Poissons Ratio (x) = 0.21056 0.24258
# Poissons Ratio (y) = 0.17370 0.30933
# Poissons Ratio (z) = 0.29976 0.46335
#
# Static dielectric constant tensor:
#      x y z
#    x 2.258010 0.000000 0.000000 
#    y 0.000000 2.201160 0.000000 
#    z 0.000000 0.000000 2.583040 
# 
# From -- ./inp_files/22359.got.cif
#   From: 2010.05.17/outbox.cif.g08.bks.cpg/sg20_12_cif.got.tgz:22359.got - 2010.06.03 22:52:26.
