data_PCOD9321363
_publ_section_title
;
Structure prediction by ZEFSAII (Michael W. Deem and Ramdas Pophale) SiO2 
 PCOD9321363
Probable space group: C 2 2 21
;
_chemical_formula_sum "Si O2"
_cell_formula_units_Z 60
_cell_length_a 9.354095
_cell_length_b 14.983465
_cell_length_c 18.198553
_cell_angle_alpha 90.000000
_cell_angle_beta 90.000000
_cell_angle_gamma 90.000000
_cell_volume 2550.650135
_symmetry_space_group_name_H-M "C 2 2 21"
_symmetry_group_IT_number 20
_symmetry_cell_setting 'orthorhombic'
loop_
_space_group_symop_operation_xyz
x,y,z
-x,-y,1/2+z
x,-y,-z
-x,y,1/2-z
1/2+x,1/2+y,z
1/2-x,1/2-y,1/2+z
1/2+x,1/2-y,-z
1/2-x,1/2+y,1/2-z
loop_
_atom_site_type_symbol
_atom_site_label
_atom_site_fract_x
_atom_site_fract_y
_atom_site_fract_z
Si Si1 0.000000 0.721727 0.250000
Si Si2 0.798946 0.386016 0.654322
Si Si3 0.704256 0.426606 0.906098
Si Si4 0.840725 0.978918 0.252850
Si Si5 0.846611 0.243631 0.894479
Si Si6 0.106098 0.897837 0.522707
Si Si7 0.019859 0.486986 0.417389
Si Si8 0.108266 0.344537 0.192873
O O1 0.144683 0.670125 0.223746
O O2 0.040290 0.763201 0.328311
O O3 0.688422 0.460028 0.682502
O O4 0.714820 0.353409 0.582448
O O5 0.944741 0.434044 0.628822
O O6 0.670514 0.454661 0.822016
O O7 0.811464 0.343308 0.921627
O O8 0.555497 0.408922 0.946839
O O9 0.809196 0.509680 0.923506
O O10 0.000000 0.940535 0.250000
O O11 0.716444 0.905253 0.242527
O O12 0.698572 0.221677 0.854860
O O13 0.886064 0.169565 0.954138
O O14 0.148592 0.000000 0.500000
O O15 0.964585 0.500000 0.500000
O O16 0.971679 0.403633 0.368563
O O17 0.000000 0.301688 0.250000
#
# Coordination Sequence:
#
# PCOD9321363 Si02
#       8
#     4   8   8   8   8   8   8   8
#     4  12  26  46  72 108 154 198 250 316 384 440
#     4  11  21  43  74  99 143 191 245 300 372 444
#     4  12  25  46  76 105 149 188 256 304 379 449
#     4  11  21  41  73 107 139 198 246 304 370 447
#     4  12  29  47  71 115 151 197 254 315 381 447
#     4  12  28  49  73 110 152 201 248 312 387 459
#     4  11  22  43  73 104 138 189 244 304 365 452
#     4  11  25  44  74 103 150 187 254 304 373 442
#
# _framework density 23.523413999999999
#
# number of rings (size 3 to 8) (size 9 to 14) (size 15 to 20)
#    0.000    0.533    5.333    3.200    4.667    2.667 
#    2.400    0.000    0.000    0.000    0.000    0.000 
#    0.000    0.000    0.000    0.000    0.000    0.000 
#
# Total GULP energy -167348.921766 kJ/mol
# GULP energy per Si atom -5578.297392 kJ/mol
# Density = 2.346987 g / cm^3
# Si number density = 23.523414 Si / 1000 Ang^3
#
#
#
# Elastic Constant Matrix: (Units=GPa)
#
#
# Indices 1 2 3 4 5 6 
#
# 1 91.0010 -9.0726 5.5880 0.0000 0.0000 0.0000
# 2 -9.0726 34.0056 0.7825 0.0000 0.0000 0.0000
# 3 5.5880 0.7825 85.6358 0.0000 0.0000 0.0000
# 4 0.0000 0.0000 0.0000 16.8259 0.0000 0.0000
# 5 0.0000 0.0000 0.0000 0.0000 38.3572 0.0000
# 6 0.0000 0.0000 0.0000 0.0000 0.0000 21.8057
#
#
#
# Elastic Compliance Matrix: (Units=1/GPa)
#
#
# Indices 1 2 3 4 5 6 
#
# 1 0.011339 0.003043 -0.000768 0.000000 0.000000 0.000000
# 2 0.003043 0.030230 -0.000475 0.000000 0.000000 0.000000
# 3 -0.000768 -0.000475 0.011732 0.000000 0.000000 0.000000
# 4 0.000000 0.000000 0.000000 0.059432 0.000000 0.000000
# 5 0.000000 0.000000 0.000000 0.000000 0.026071 0.000000
# 6 0.000000 0.000000 0.000000 0.000000 0.000000 0.045860
#
#
# Mechanical properties :
#
#
# Convention : Reuss Voigt Hill
#
# Bulk Modulus (GPa) = 17.57412 22.80424 20.18918
# Shear Modulus (GPa) = 24.99628 29.62072 27.30850
#
# Velocity S-wave (km/s) = 3.26331 3.55237 3.41091
# Velocity P-wave (km/s) = 4.65683 5.15181 4.91056
#
# Compressibility (1/GPa) = 0.05690187
#
# Stress axis : x y z
#
# Youngs Moduli (GPa) = 88.18798 33.08004 85.23841
#
# Poissons Ratio (x) = -0.10066 0.06544
# Poissons Ratio (y) = -0.26836 0.04047
# Poissons Ratio (z) = 0.06771 0.01571
#
# Static dielectric constant tensor:
#      x y z
#    x 1.955550 0.000000 0.000000 
#    y 0.000000 1.961790 0.000000 
#    z 0.000000 0.000000 1.751500 
# 
# From -- ./inp_files/23789.got.cif
#   From: 2010.05.17/outbox.cif.g08.bks.cpg/sg20_12_cif.got.tgz:23789.got - 2010.06.03 22:52:26.
