data_PCOD9321153
_publ_section_title
;
Structure prediction by ZEFSAII (Michael W. Deem and Ramdas Pophale) SiO2 
 PCOD9321153
Probable space group: C 2 2 21
;
_chemical_formula_sum "Si O2"
_cell_formula_units_Z 40
_cell_length_a 11.299714
_cell_length_b 15.706744
_cell_length_c 10.915103
_cell_angle_alpha 90.000000
_cell_angle_beta 90.000000
_cell_angle_gamma 90.000000
_cell_volume 1937.231201
_symmetry_space_group_name_H-M "C 2 2 21"
_symmetry_group_IT_number 20
_symmetry_cell_setting 'orthorhombic'
loop_
_space_group_symop_operation_xyz
x,y,z
-x,-y,1/2+z
x,-y,-z
-x,y,1/2-z
1/2+x,1/2+y,z
1/2-x,1/2-y,1/2+z
1/2+x,1/2-y,-z
1/2-x,1/2+y,1/2-z
loop_
_atom_site_type_symbol
_atom_site_label
_atom_site_fract_x
_atom_site_fract_y
_atom_site_fract_z
Si Si1 0.424846 0.271779 0.863316
Si Si2 0.013693 0.349561 0.945535
Si Si3 0.730984 0.401921 0.490919
Si Si4 0.762817 0.127610 0.702284
Si Si5 0.500000 0.713456 0.750000
Si Si6 0.338886 0.000000 0.000000
O O1 0.500000 0.308021 0.750000
O O2 0.315408 0.210814 0.827276
O O3 0.510186 0.203720 0.929032
O O4 0.371445 0.343003 0.952667
O O5 0.960820 0.280699 0.852330
O O6 0.148348 0.381087 0.933507
O O7 0.926131 0.429095 0.944040
O O8 0.698123 0.500000 0.500000
O O9 0.754875 0.390239 0.346198
O O10 0.730749 0.051278 0.607604
O O11 0.898620 0.155930 0.692429
#
# Coordination Sequence:
#
# PCOD9321153 Si02
#       6
#     8   8   8   8   4   4
#     4  11  23  45  73 101 142 187 240 297 366 428
#     4  11  23  41  73 102 137 185 241 296 353 425
#     4  12  25  45  68 107 140 184 241 302 361 429
#     4  11  25  46  71 103 142 189 241 295 363 436
#     4  12  24  44  70 100 142 192 240 284 356 446
#     4  10  26  44  70 108 142 182 240 306 356 410
#
# _framework density 20.648026999999999
#
# number of rings (size 3 to 8) (size 9 to 14) (size 15 to 20)
#    0.000    0.800    7.000    0.000    2.800    0.000 
#    7.200    0.000    0.000    0.000    0.000    0.000 
#    0.000    0.000    0.000    0.000    0.000    0.000 
#
# Total GULP energy -111568.147665 kJ/mol
# GULP energy per Si atom -5578.407383 kJ/mol
# Density = 2.060103 g / cm^3
# Si number density = 20.648027 Si / 1000 Ang^3
#
#
#
# Elastic Constant Matrix: (Units=GPa)
#
#
# Indices 1 2 3 4 5 6 
#
# 1 92.1214 70.3256 35.7312 0.0000 0.0000 0.0000
# 2 70.3256 161.6066 62.3162 0.0000 0.0000 0.0000
# 3 35.7312 62.3162 89.4507 0.0000 0.0000 0.0000
# 4 0.0000 0.0000 0.0000 36.7408 0.0000 0.0000
# 5 0.0000 0.0000 0.0000 0.0000 31.5561 0.0000
# 6 0.0000 0.0000 0.0000 0.0000 0.0000 52.1989
#
#
#
# Elastic Compliance Matrix: (Units=1/GPa)
#
#
# Indices 1 2 3 4 5 6 
#
# 1 0.016561 -0.006366 -0.002180 0.000000 0.000000 0.000000
# 2 -0.006366 0.010908 -0.005056 0.000000 0.000000 0.000000
# 3 -0.002180 -0.005056 0.015573 0.000000 0.000000 0.000000
# 4 0.000000 0.000000 0.000000 0.027218 0.000000 0.000000
# 5 0.000000 0.000000 0.000000 0.000000 0.031690 0.000000
# 6 0.000000 0.000000 0.000000 0.000000 0.000000 0.019157
#
#
# Mechanical properties :
#
#
# Convention : Reuss Voigt Hill
#
# Bulk Modulus (GPa) = 63.14563 75.54718 69.34641
# Shear Modulus (GPa) = 32.55440 35.75287 34.15364
#
# Velocity S-wave (km/s) = 3.97499 4.16569 4.07146
# Velocity P-wave (km/s) = 7.19137 7.73336 7.46728
#
# Compressibility (1/GPa) = 0.01583641
#
# Stress axis : x y z
#
# Youngs Moduli (GPa) = 60.38411 91.67845 64.21534
#
# Poissons Ratio (x) = 0.58361 0.14001
# Poissons Ratio (y) = 0.38440 0.32467
# Poissons Ratio (z) = 0.13166 0.46353
#
# Static dielectric constant tensor:
#      x y z
#    x 1.751140 0.000000 0.000000 
#    y 0.000000 1.696750 0.000000 
#    z 0.000000 0.000000 1.802890 
# 
# From -- ./inp_files/13922.got.cif
#   From: 2010.05.17/outbox.cif.g08.bks.cpg/sg20_7_cif.got.tgz:13922.got - 2010.06.03 22:52:26.
