data_PCOD9321532
_publ_section_title
;
Structure prediction by ZEFSAII (Michael W. Deem and Ramdas Pophale) SiO2 
 PCOD9321532
Probable space group: C 2 2 21
;
_chemical_formula_sum "Si O2"
_cell_formula_units_Z 36
_cell_length_a 9.342514
_cell_length_b 19.578464
_cell_length_c 7.419963
_cell_angle_alpha 90.000000
_cell_angle_beta 90.000000
_cell_angle_gamma 90.000000
_cell_volume 1357.200821
_symmetry_space_group_name_H-M "C 2 2 21"
_symmetry_group_IT_number 20
_symmetry_cell_setting 'orthorhombic'
loop_
_space_group_symop_operation_xyz
x,y,z
-x,-y,1/2+z
x,-y,-z
-x,y,1/2-z
1/2+x,1/2+y,z
1/2-x,1/2-y,1/2+z
1/2+x,1/2-y,-z
1/2-x,1/2+y,1/2-z
loop_
_atom_site_type_symbol
_atom_site_label
_atom_site_fract_x
_atom_site_fract_y
_atom_site_fract_z
Si Si1 0.807952 0.998465 0.220909
Si Si2 0.500000 0.379299 0.750000
Si Si3 0.500000 0.626830 0.750000
Si Si4 0.000000 0.457997 0.250000
Si Si5 0.512756 0.160474 0.035830
Si Si6 0.672103 0.716270 0.463670
O O1 0.642544 0.001283 0.262779
O O2 0.871865 0.926289 0.284478
O O3 0.890263 0.060271 0.315025
O O4 0.827940 0.000000 0.000000
O O5 0.374121 0.324174 0.786907
O O6 0.564646 0.675350 0.598457
O O7 0.981676 0.408426 0.421897
O O8 0.500000 0.152631 0.250000
O O9 0.662794 0.200724 0.000432
O O10 0.380233 0.206556 0.966942
#
# Coordination Sequence:
#
# PCOD9321532 Si02
#       6
#     8   4   4   4   8   8
#     4  11  24  50  72 113 155 211 268 331 396 476
#     4  11  25  48  80 106 153 208 269 324 406 473
#     4  11  22  46  73  99 162 192 263 322 380 485
#     4  12  27  54  79 115 169 210 270 336 410 482
#     4  12  30  51  82 121 168 207 270 341 415 492
#     4  12  27  50  78 118 156 209 269 330 412 484
#
# _framework density 26.525181
#
# number of rings (size 3 to 8) (size 9 to 14) (size 15 to 20)
#    0.000    0.444    5.556    0.667    9.333    0.000 
#   12.000    0.000    0.000    0.000    0.000    0.000 
#    0.000    0.000    0.000    0.000    0.000    0.000 
#
# Total GULP energy -100643.764943 kJ/mol
# GULP energy per Si atom -5591.320275 kJ/mol
# Density = 2.646481 g / cm^3
# Si number density = 26.525181 Si / 1000 Ang^3
#
#
#
# Elastic Constant Matrix: (Units=GPa)
#
#
# Indices 1 2 3 4 5 6 
#
# 1 181.8109 20.6868 38.4746 0.0000 0.0000 0.0000
# 2 20.6868 86.3113 32.4657 0.0000 0.0000 0.0000
# 3 38.4746 32.4657 77.1858 0.0000 0.0000 0.0000
# 4 0.0000 0.0000 0.0000 43.4009 0.0000 0.0000
# 5 0.0000 0.0000 0.0000 0.0000 23.7935 0.0000
# 6 0.0000 0.0000 0.0000 0.0000 0.0000 28.9506
#
#
#
# Elastic Compliance Matrix: (Units=1/GPa)
#
#
# Indices 1 2 3 4 5 6 
#
# 1 0.006159 -0.000382 -0.002910 0.000000 0.000000 0.000000
# 2 -0.000382 0.013787 -0.005609 0.000000 0.000000 0.000000
# 3 -0.002910 -0.005609 0.016765 0.000000 0.000000 0.000000
# 4 0.000000 0.000000 0.000000 0.023041 0.000000 0.000000
# 5 0.000000 0.000000 0.000000 0.000000 0.042028 0.000000
# 6 0.000000 0.000000 0.000000 0.000000 0.000000 0.034542
#
#
# Mechanical properties :
#
#
# Convention : Reuss Voigt Hill
#
# Bulk Modulus (GPa) = 52.87838 58.72912 55.80375
# Shear Modulus (GPa) = 31.16680 36.14107 33.65394
#
# Velocity S-wave (km/s) = 3.43153 3.69524 3.56582
# Velocity P-wave (km/s) = 5.97319 6.35573 6.16743
#
# Compressibility (1/GPa) = 0.01891132
#
# Stress axis : x y z
#
# Youngs Moduli (GPa) = 162.35337 72.53095 59.64702
#
# Poissons Ratio (x) = 0.02769 0.17355
# Poissons Ratio (y) = 0.06199 0.33455
# Poissons Ratio (z) = 0.47239 0.40681
#
# Static dielectric constant tensor:
#      x y z
#    x 2.025510 0.000000 0.000000 
#    y 0.000000 2.011220 0.000000 
#    z 0.000000 0.000000 2.287530 
# 
# From -- ./inp_files/5965.got.cif
#   From: 2010.05.17/outbox.cif.g08.bks.cpg/sg20_3_cif.got.tgz:5965.got - 2010.06.03 22:52:26.
