data_PCOD9321514
_publ_section_title
;
Structure prediction by ZEFSAII (Michael W. Deem and Ramdas Pophale) SiO2 
 PCOD9321514
Probable space group: C 2 2 21
;
_chemical_formula_sum "Si O2"
_cell_formula_units_Z 60
_cell_length_a 12.291071
_cell_length_b 13.883240
_cell_length_c 15.612140
_cell_angle_alpha 90.000000
_cell_angle_beta 90.000000
_cell_angle_gamma 90.000000
_cell_volume 2664.053830
_symmetry_space_group_name_H-M "C 2 2 21"
_symmetry_group_IT_number 20
_symmetry_cell_setting 'orthorhombic'
loop_
_space_group_symop_operation_xyz
x,y,z
-x,-y,1/2+z
x,-y,-z
-x,y,1/2-z
1/2+x,1/2+y,z
1/2-x,1/2-y,1/2+z
1/2+x,1/2-y,-z
1/2-x,1/2+y,1/2-z
loop_
_atom_site_type_symbol
_atom_site_label
_atom_site_fract_x
_atom_site_fract_y
_atom_site_fract_z
Si Si1 0.794972 0.352344 0.310935
Si Si2 0.783930 0.767227 0.862874
Si Si3 0.843530 0.537806 0.116530
Si Si4 0.142161 0.246443 0.022323
Si Si5 0.500000 0.027502 0.750000
Si Si6 0.902068 0.059488 0.369653
Si Si7 0.429531 0.849949 0.026095
Si Si8 0.138321 0.966371 0.675464
O O1 0.774363 0.281497 0.230084
O O2 0.791551 0.297367 0.400948
O O3 0.706052 0.436966 0.311579
O O4 0.915097 0.400698 0.298904
O O5 0.895190 0.730707 0.906218
O O6 0.789075 0.882577 0.866311
O O7 0.699747 0.727019 0.932436
O O8 0.716175 0.510219 0.114612
O O9 0.908437 0.449137 0.074926
O O10 0.910512 0.541819 0.204244
O O11 0.859605 0.632715 0.059798
O O12 0.098491 0.148878 0.065757
O O13 0.049488 0.323789 0.999954
O O14 0.887813 0.080962 0.268446
O O15 0.022815 0.013841 0.371621
#
# Coordination Sequence:
#
# PCOD9321514 Si02
#       8
#     8   8   8   8   4   8   8   8
#     4  12  25  47  71 113 149 192 251 308 378 449
#     4  12  24  44  75 106 148 198 247 304 383 442
#     4  11  23  40  71 103 143 183 247 296 366 437
#     4  12  25  43  76 106 148 195 247 314 367 452
#     4  12  22  40  78 100 142 192 242 302 376 422
#     4  11  22  44  71 102 142 195 248 290 363 448
#     4  11  23  41  66 110 138 185 243 303 360 451
#     4  11  25  42  75 106 146 194 248 304 372 443
#
# _framework density 22.522067
#
# number of rings (size 3 to 8) (size 9 to 14) (size 15 to 20)
#    0.000    0.533    8.000    0.000    1.867    0.533 
#    0.000    6.667    2.933    3.200    0.000    0.000 
#    0.000    0.000    0.000    0.000    0.000    0.000 
#
# Total GULP energy -167239.431417 kJ/mol
# GULP energy per Si atom -5574.647714 kJ/mol
# Density = 2.247081 g / cm^3
# Si number density = 22.522067 Si / 1000 Ang^3
#
#
#
# Elastic Constant Matrix: (Units=GPa)
#
#
# Indices 1 2 3 4 5 6 
#
# 1 148.8520 53.0276 36.6945 0.0000 0.0000 0.0000
# 2 53.0276 69.5954 19.0797 0.0000 0.0000 0.0000
# 3 36.6945 19.0797 61.0406 0.0000 0.0000 0.0000
# 4 0.0000 0.0000 0.0000 17.4174 0.0000 0.0000
# 5 0.0000 0.0000 0.0000 0.0000 7.9950 0.0000
# 6 0.0000 0.0000 0.0000 0.0000 0.0000 32.0971
#
#
#
# Elastic Compliance Matrix: (Units=1/GPa)
#
#
# Indices 1 2 3 4 5 6 
#
# 1 0.010035 -0.006554 -0.003984 0.000000 0.000000 0.000000
# 2 -0.006554 0.019996 -0.002310 0.000000 0.000000 0.000000
# 3 -0.003984 -0.002310 0.019500 0.000000 0.000000 0.000000
# 4 0.000000 0.000000 0.000000 0.057414 0.000000 0.000000
# 5 0.000000 0.000000 0.000000 0.000000 0.125078 0.000000
# 6 0.000000 0.000000 0.000000 0.000000 0.000000 0.031155
#
#
# Mechanical properties :
#
#
# Convention : Reuss Voigt Hill
#
# Bulk Modulus (GPa) = 41.95661 55.23241 48.59451
# Shear Modulus (GPa) = 16.84528 22.88099 19.86314
#
# Velocity S-wave (km/s) = 2.73783 3.19083 2.97297
# Velocity P-wave (km/s) = 5.35386 6.17674 5.77996
#
# Compressibility (1/GPa) = 0.02383415
#
# Stress axis : x y z
#
# Youngs Moduli (GPa) = 99.65171 50.01058 51.28302
#
# Poissons Ratio (x) = 0.32776 0.20431
# Poissons Ratio (y) = 0.65310 0.11848
# Poissons Ratio (z) = 0.39701 0.11554
#
# Static dielectric constant tensor:
#      x y z
#    x 1.873170 0.000000 0.000000 
#    y 0.000000 1.882820 0.000000 
#    z 0.000000 0.000000 1.960500 
# 
# From -- ./inp_files/24417.got.cif
#   From: 2010.05.17/outbox.cif.g08.bks.cpg/sg20_13_cif.got.tgz:24417.got - 2010.06.03 22:52:26.
