data_PCOD9321290
_publ_section_title
;
Structure prediction by ZEFSAII (Michael W. Deem and Ramdas Pophale) SiO2 
 PCOD9321290
Probable space group: C 2 2 21
;
_chemical_formula_sum "Si O2"
_cell_formula_units_Z 40
_cell_length_a 7.970688
_cell_length_b 16.660436
_cell_length_c 13.075425
_cell_angle_alpha 90.000000
_cell_angle_beta 90.000000
_cell_angle_gamma 90.000000
_cell_volume 1736.352858
_symmetry_space_group_name_H-M "C 2 2 21"
_symmetry_group_IT_number 20
_symmetry_cell_setting 'orthorhombic'
loop_
_space_group_symop_operation_xyz
x,y,z
-x,-y,1/2+z
x,-y,-z
-x,y,1/2-z
1/2+x,1/2+y,z
1/2-x,1/2-y,1/2+z
1/2+x,1/2-y,-z
1/2-x,1/2+y,1/2-z
loop_
_atom_site_type_symbol
_atom_site_label
_atom_site_fract_x
_atom_site_fract_y
_atom_site_fract_z
Si Si1 0.401934 0.962939 0.114604
Si Si2 0.209684 0.166571 0.996317
Si Si3 0.566018 0.729869 0.633474
Si Si4 0.219675 0.053798 0.603479
Si Si5 0.419602 0.557479 0.340935
O O1 0.592664 0.953640 0.150280
O O2 0.265540 0.019685 0.169792
O O3 0.317104 0.877061 0.091474
O O4 0.409810 0.000000 0.000000
O O5 0.318032 0.199441 0.090464
O O6 0.087803 0.102581 0.051020
O O7 0.096283 0.231139 0.940056
O O8 0.500000 0.734225 0.750000
O O9 0.668183 0.647498 0.610033
O O10 0.234589 0.000000 0.500000
O O11 0.060153 0.011082 0.653980
O O12 0.500000 0.610877 0.250000
#
# Coordination Sequence:
#
# PCOD9321290 Si02
#       5
#     8   8   8   8   8
#     4   9  20  39  67 102 137 185 241 301 367 433
#     4  11  24  47  67 102 159 189 243 317 371 444
#     4  12  26  46  74 106 153 203 251 308 386 458
#     4  11  20  42  74 102 141 194 241 310 379 432
#     4  11  22  42  70 105 144 191 244 304 368 452
#
# _framework density 23.036792999999999
#
# number of rings (size 3 to 8) (size 9 to 14) (size 15 to 20)
#    0.000    1.200    4.000    2.400    0.000    2.400 
#   10.800    2.000    0.000    0.000    0.000    0.000 
#    0.000    0.000    0.000    0.000    0.000    0.000 
#
# Total GULP energy -111521.663267 kJ/mol
# GULP energy per Si atom -5576.083163 kJ/mol
# Density = 2.298436 g / cm^3
# Si number density = 23.036793 Si / 1000 Ang^3
#
#
#
# Elastic Constant Matrix: (Units=GPa)
#
#
# Indices 1 2 3 4 5 6 
#
# 1 151.1575 22.8928 61.6953 0.0000 0.0000 0.0000
# 2 22.8928 55.6351 18.3646 0.0000 0.0000 0.0000
# 3 61.6953 18.3646 108.7597 0.0000 0.0000 0.0000
# 4 0.0000 0.0000 0.0000 12.1468 0.0000 0.0000
# 5 0.0000 0.0000 0.0000 0.0000 52.3519 0.0000
# 6 0.0000 0.0000 0.0000 0.0000 0.0000 18.6880
#
#
#
# Elastic Compliance Matrix: (Units=1/GPa)
#
#
# Indices 1 2 3 4 5 6 
#
# 1 0.008834 -0.002098 -0.004657 0.000000 0.000000 0.000000
# 2 -0.002098 0.019533 -0.002108 0.000000 0.000000 0.000000
# 3 -0.004657 -0.002108 0.012192 0.000000 0.000000 0.000000
# 4 0.000000 0.000000 0.000000 0.082326 0.000000 0.000000
# 5 0.000000 0.000000 0.000000 0.000000 0.019102 0.000000
# 6 0.000000 0.000000 0.000000 0.000000 0.000000 0.053510
#
#
# Mechanical properties :
#
#
# Convention : Reuss Voigt Hill
#
# Bulk Modulus (GPa) = 43.79519 57.93973 50.86746
# Shear Modulus (GPa) = 22.64134 30.81066 26.72600
#
# Velocity S-wave (km/s) = 3.13842 3.66109 3.40978
# Velocity P-wave (km/s) = 5.67320 6.56331 6.13442
#
# Compressibility (1/GPa) = 0.02283356
#
# Stress axis : x y z
#
# Youngs Moduli (GPa) = 113.19758 51.19435 82.01879
#
# Poissons Ratio (x) = 0.10740 0.38196
# Poissons Ratio (y) = 0.23747 0.17292
# Poissons Ratio (z) = 0.52716 0.10793
#
# Static dielectric constant tensor:
#      x y z
#    x 1.841000 0.000000 0.000000 
#    y 0.000000 1.885790 0.000000 
#    z 0.000000 0.000000 2.151140 
# 
# From -- ./inp_files/12710.got.cif
#   From: 2010.05.17/outbox.cif.g08.bks.cpg/sg20_7_cif.got.tgz:12710.got - 2010.06.03 22:52:26.
