data_PCOD9321061
_publ_section_title
;
Structure prediction by ZEFSAII (Michael W. Deem and Ramdas Pophale) SiO2 
 PCOD9321061
Probable space group: C 2 2 21
;
_chemical_formula_sum "Si O2"
_cell_formula_units_Z 48
_cell_length_a 8.934910
_cell_length_b 11.165726
_cell_length_c 17.340164
_cell_angle_alpha 90.000000
_cell_angle_beta 90.000000
_cell_angle_gamma 90.000000
_cell_volume 1729.937246
_symmetry_space_group_name_H-M "C 2 2 21"
_symmetry_group_IT_number 20
_symmetry_cell_setting 'orthorhombic'
loop_
_space_group_symop_operation_xyz
x,y,z
-x,-y,1/2+z
x,-y,-z
-x,y,1/2-z
1/2+x,1/2+y,z
1/2-x,1/2-y,1/2+z
1/2+x,1/2-y,-z
1/2-x,1/2+y,1/2-z
loop_
_atom_site_type_symbol
_atom_site_label
_atom_site_fract_x
_atom_site_fract_y
_atom_site_fract_z
Si Si1 0.499079 0.839597 0.580845
Si Si2 0.973728 0.000000 0.500000
Si Si3 0.439808 0.649153 0.133089
Si Si4 0.304443 0.280068 0.534306
Si Si5 0.559328 0.076906 0.636416
Si Si6 0.753740 0.961407 0.215374
Si Si7 0.000000 0.237190 0.750000
O O1 0.633911 0.756469 0.551374
O O2 0.461526 0.809029 0.670424
O O3 0.572510 0.969737 0.577701
O O4 0.146442 0.918497 0.701390
O O5 0.076298 0.047020 0.431474
O O6 0.862244 0.109465 0.519515
O O7 0.388362 0.786557 0.123061
O O8 0.126201 0.673152 0.015806
O O9 0.616170 0.677574 0.115034
O O10 0.380400 0.069944 0.655824
O O11 0.658893 0.030998 0.706937
O O12 0.865687 0.850721 0.225755
#
# Coordination Sequence:
#
# PCOD9321061 Si02
#       7
#     8   4   8   8   8   8   4
#     4  12  28  51  82 130 168 233 289 372 450 543
#     4   8  22  48  76 114 156 222 278 358 430 520
#     4  10  24  52  80 122 165 226 293 360 442 532
#     4  10  26  50  84 118 170 224 296 355 449 539
#     4  11  28  49  80 128 173 223 297 368 446 537
#     4  11  27  49  81 123 169 231 288 365 447 533
#     4  12  28  50  88 116 178 222 294 364 456 538
#
# _framework density 27.746670999999999
#
# number of rings (size 3 to 8) (size 9 to 14) (size 15 to 20)
#    1.000    0.333    0.000    3.000    9.333    3.333 
#    0.000    0.000    0.000    0.000    0.000    0.000 
#    0.000    0.000    0.000    0.000    0.000    0.000 
#
# Total GULP energy -134007.109386 kJ/mol
# GULP energy per Si atom -5583.629558 kJ/mol
# Density = 2.768352 g / cm^3
# Si number density = 27.746671 Si / 1000 Ang^3
#
#
#
# Elastic Constant Matrix: (Units=GPa)
#
#
# Indices 1 2 3 4 5 6 
#
# 1 155.2222 22.2084 46.1334 0.0000 0.0000 0.0000
# 2 22.2084 150.3667 33.4452 0.0000 0.0000 0.0000
# 3 46.1334 33.4452 127.8195 0.0000 0.0000 0.0000
# 4 0.0000 0.0000 0.0000 17.8083 0.0000 0.0000
# 5 0.0000 0.0000 0.0000 0.0000 39.4748 0.0000
# 6 0.0000 0.0000 0.0000 0.0000 0.0000 45.7561
#
#
#
# Elastic Compliance Matrix: (Units=1/GPa)
#
#
# Indices 1 2 3 4 5 6 
#
# 1 0.007254 -0.000519 -0.002482 0.000000 0.000000 0.000000
# 2 -0.000519 0.007099 -0.001670 0.000000 0.000000 0.000000
# 3 -0.002482 -0.001670 0.009156 0.000000 0.000000 0.000000
# 4 0.000000 0.000000 0.000000 0.056154 0.000000 0.000000
# 5 0.000000 0.000000 0.000000 0.000000 0.025333 0.000000
# 6 0.000000 0.000000 0.000000 0.000000 0.000000 0.021855
#
#
# Mechanical properties :
#
#
# Convention : Reuss Voigt Hill
#
# Bulk Modulus (GPa) = 70.59122 70.77580 70.68351
# Shear Modulus (GPa) = 35.48204 42.71593 39.09898
#
# Velocity S-wave (km/s) = 3.57989 3.92790 3.75793
# Velocity P-wave (km/s) = 6.52565 6.79223 6.66027
#
# Compressibility (1/GPa) = 0.01416607
#
# Stress axis : x y z
#
# Youngs Moduli (GPa) = 137.84581 140.87390 109.21229
#
# Poissons Ratio (x) = 0.07315 0.27111
# Poissons Ratio (y) = 0.07158 0.18238
# Poissons Ratio (z) = 0.34220 0.23526
#
# Static dielectric constant tensor:
#      x y z
#    x 2.138860 0.000000 0.000000 
#    y 0.000000 2.232420 0.000000 
#    z 0.000000 0.000000 2.244910 
# 
# From -- ./inp_files/30098.got.cif
#   From: 2010.05.17/outbox.cif.g08.bks.cpg/sg20_16_cif.got.tgz:30098.got - 2010.06.03 22:52:26.
