data_PCOD9321878
_publ_section_title
;
Structure prediction by ZEFSAII (Michael W. Deem and Ramdas Pophale) SiO2 
 PCOD9321878
Probable space group: C 2 2 21
;
_chemical_formula_sum "Si O2"
_cell_formula_units_Z 40
_cell_length_a 8.589097
_cell_length_b 17.867436
_cell_length_c 11.233499
_cell_angle_alpha 90.000000
_cell_angle_beta 90.000000
_cell_angle_gamma 90.000000
_cell_volume 1723.950507
_symmetry_space_group_name_H-M "C 2 2 21"
_symmetry_group_IT_number 20
_symmetry_cell_setting 'orthorhombic'
loop_
_space_group_symop_operation_xyz
x,y,z
-x,-y,1/2+z
x,-y,-z
-x,y,1/2-z
1/2+x,1/2+y,z
1/2-x,1/2-y,1/2+z
1/2+x,1/2-y,-z
1/2-x,1/2+y,1/2-z
loop_
_atom_site_type_symbol
_atom_site_label
_atom_site_fract_x
_atom_site_fract_y
_atom_site_fract_z
Si Si1 0.844547 0.898180 0.329277
Si Si2 0.906728 0.582925 0.490521
Si Si3 0.314312 0.445573 0.771511
Si Si4 0.343663 0.200582 0.680879
Si Si5 0.226677 0.343824 0.567485
O O1 0.769343 0.820170 0.288284
O O2 0.834126 0.888595 0.471803
O O3 0.000000 0.900987 0.250000
O O4 0.763593 0.976449 0.291535
O O5 0.978820 0.500000 0.500000
O O6 0.760939 0.567226 0.401657
O O7 0.854976 0.620948 0.613013
O O8 0.045825 0.639862 0.457381
O O9 0.500000 0.442575 0.750000
O O10 0.249777 0.377611 0.696802
O O11 0.500000 0.223995 0.750000
O O12 0.279956 0.258732 0.584641
#
# Coordination Sequence:
#
# PCOD9321878 Si02
#       5
#     8   8   8   8   8
#     4  11  26  46  74 109 156 203 261 328 400 480
#     4  12  26  49  82 111 157 215 267 330 407 493
#     4  11  26  46  75 113 152 203 264 328 396 479
#     4  12  28  49  74 112 160 204 266 337 405 476
#     4  12  28  44  77 109 158 201 269 323 406 476
#
# _framework density 23.202524
#
# number of rings (size 3 to 8) (size 9 to 14) (size 15 to 20)
#    0.000    0.400    4.000    3.000    8.400    0.000 
#    0.000    0.000    0.000    0.000    0.000    0.000 
#    0.000    0.000    0.000    0.000    0.000    0.000 
#
# Total GULP energy -111478.098152 kJ/mol
# GULP energy per Si atom -5573.904908 kJ/mol
# Density = 2.314971 g / cm^3
# Si number density = 23.202524 Si / 1000 Ang^3
#
#
#
# Elastic Constant Matrix: (Units=GPa)
#
#
# Indices 1 2 3 4 5 6 
#
# 1 73.7511 5.5535 17.7539 0.0000 0.0000 0.0000
# 2 5.5535 90.1349 6.8106 0.0000 0.0000 0.0000
# 3 17.7539 6.8106 73.8143 0.0000 0.0000 0.0000
# 4 0.0000 0.0000 0.0000 48.1351 0.0000 0.0000
# 5 0.0000 0.0000 0.0000 0.0000 35.7935 0.0000
# 6 0.0000 0.0000 0.0000 0.0000 0.0000 18.8033
#
#
#
# Elastic Compliance Matrix: (Units=1/GPa)
#
#
# Indices 1 2 3 4 5 6 
#
# 1 0.014428 -0.000631 -0.003412 0.000000 0.000000 0.000000
# 2 -0.000631 0.011200 -0.000882 0.000000 0.000000 0.000000
# 3 -0.003412 -0.000882 0.014450 0.000000 0.000000 0.000000
# 4 0.000000 0.000000 0.000000 0.020775 0.000000 0.000000
# 5 0.000000 0.000000 0.000000 0.000000 0.027938 0.000000
# 6 0.000000 0.000000 0.000000 0.000000 0.000000 0.053182
#
#
# Mechanical properties :
#
#
# Convention : Reuss Voigt Hill
#
# Bulk Modulus (GPa) = 33.08188 33.10404 33.09296
# Shear Modulus (GPa) = 30.88364 34.38521 32.63442
#
# Velocity S-wave (km/s) = 3.65231 3.85380 3.75441
# Velocity P-wave (km/s) = 5.66345 5.83959 5.75219
#
# Compressibility (1/GPa) = 0.03022803
#
# Stress axis : x y z
#
# Youngs Moduli (GPa) = 69.30963 89.28592 69.20650
#
# Poissons Ratio (x) = 0.05635 0.23613
# Poissons Ratio (y) = 0.04374 0.06101
# Poissons Ratio (z) = 0.23649 0.07871
#
# Static dielectric constant tensor:
#      x y z
#    x 2.367350 0.000000 0.000000 
#    y 0.000000 1.881340 0.000000 
#    z 0.000000 0.000000 1.198740 
# 
# From -- ./inp_files/12696.got.cif
#   From: 2010.05.17/outbox.cif.g08.bks.cpg/sg20_7_cif.got.tgz:12696.got - 2010.06.03 22:52:26.
