data_PCOD9321324
_publ_section_title
;
Structure prediction by ZEFSAII (Michael W. Deem and Ramdas Pophale) SiO2 
 PCOD9321324
Probable space group: C 2 2 21
;
_chemical_formula_sum "Si O2"
_cell_formula_units_Z 64
_cell_length_a 18.629859
_cell_length_b 18.290392
_cell_length_c 9.832023
_cell_angle_alpha 90.000000
_cell_angle_beta 90.000000
_cell_angle_gamma 90.000000
_cell_volume 3350.236510
_symmetry_space_group_name_H-M "C 2 2 21"
_symmetry_group_IT_number 20
_symmetry_cell_setting 'orthorhombic'
loop_
_space_group_symop_operation_xyz
x,y,z
-x,-y,1/2+z
x,-y,-z
-x,y,1/2-z
1/2+x,1/2+y,z
1/2-x,1/2-y,1/2+z
1/2+x,1/2-y,-z
1/2-x,1/2+y,1/2-z
loop_
_atom_site_type_symbol
_atom_site_label
_atom_site_fract_x
_atom_site_fract_y
_atom_site_fract_z
Si Si1 0.074686 0.423722 0.463751
Si Si2 0.782490 0.568307 0.398534
Si Si3 0.033976 0.737590 0.604421
Si Si4 0.790626 0.181022 0.703644
Si Si5 0.443912 0.288538 0.349782
Si Si6 0.417455 0.125118 0.254943
Si Si7 0.694793 0.288556 0.520957
Si Si8 0.722289 0.972342 0.351191
O O1 0.034241 0.500000 0.500000
O O2 0.036175 0.351450 0.409083
O O3 0.110142 0.393769 0.604190
O O4 0.137719 0.450911 0.364575
O O5 0.783515 0.500000 0.500000
O O6 0.863763 0.597173 0.370603
O O7 0.728296 0.632186 0.441792
O O8 0.761030 0.535953 0.253410
O O9 0.113397 0.770247 0.570777
O O10 0.000000 0.755937 0.750000
O O11 0.981586 0.768542 0.489368
O O12 0.869248 0.171667 0.640244
O O13 0.744220 0.231762 0.603778
O O14 0.756504 0.101417 0.704706
O O15 0.797323 0.214300 0.856409
O O16 0.500000 0.327325 0.250000
O O17 0.424459 0.211393 0.277315
O O18 0.500000 0.097139 0.250000
O O19 0.744417 0.000000 0.500000
#
# Coordination Sequence:
#
# PCOD9321324 Si02
#       8
#     8   8   8   8   8   8   8   8
#     4  11  21  39  60  91 135 178 213 267 327 408
#     4  12  25  44  65 100 138 177 230 280 346 402
#     4  12  27  45  66 102 138 176 234 287 345 405
#     4  12  25  42  72 103 130 187 238 280 348 403
#     4  11  22  43  68  90 135 177 220 271 345 408
#     4  11  21  38  61  91 131 185 214 260 328 410
#     4  12  27  43  73  99 138 177 238 299 333 415
#     4  11  24  42  67  94 139 178 225 275 341 407
#
# _framework density 19.103128999999999
#
# number of rings (size 3 to 8) (size 9 to 14) (size 15 to 20)
#    0.000    0.500   10.000    0.000    3.500    2.000 
#    0.000    0.000    0.000    4.500    0.000    0.000 
#    0.000    0.000    0.000    0.000    0.000    0.000 
#
# Total GULP energy -178505.585585 kJ/mol
# GULP energy per Si atom -5578.299550 kJ/mol
# Density = 1.905965 g / cm^3
# Si number density = 19.103129 Si / 1000 Ang^3
#
#
#
# Elastic Constant Matrix: (Units=GPa)
#
#
# Indices 1 2 3 4 5 6 
#
# 1 92.3806 29.0414 37.8366 0.0000 0.0000 0.0000
# 2 29.0414 56.4475 11.8854 0.0000 0.0000 0.0000
# 3 37.8366 11.8854 115.3455 0.0000 0.0000 0.0000
# 4 0.0000 0.0000 0.0000 22.8591 0.0000 0.0000
# 5 0.0000 0.0000 0.0000 0.0000 29.7959 0.0000
# 6 0.0000 0.0000 0.0000 0.0000 0.0000 13.2310
#
#
#
# Elastic Compliance Matrix: (Units=1/GPa)
#
#
# Indices 1 2 3 4 5 6 
#
# 1 0.014594 -0.006645 -0.004103 0.000000 0.000000 0.000000
# 2 -0.006645 0.021134 0.000002 0.000000 0.000000 0.000000
# 3 -0.004103 0.000002 0.010015 0.000000 0.000000 0.000000
# 4 0.000000 0.000000 0.000000 0.043746 0.000000 0.000000
# 5 0.000000 0.000000 0.000000 0.000000 0.033562 0.000000
# 6 0.000000 0.000000 0.000000 0.000000 0.000000 0.075580
#
#
# Mechanical properties :
#
#
# Convention : Reuss Voigt Hill
#
# Bulk Modulus (GPa) = 41.23293 46.85561 44.04427
# Shear Modulus (GPa) = 21.91011 25.53789 23.72400
#
# Velocity S-wave (km/s) = 3.39032 3.66025 3.52787
# Velocity P-wave (km/s) = 6.07922 6.51492 6.30084
#
# Compressibility (1/GPa) = 0.02425246
#
# Stress axis : x y z
#
# Youngs Moduli (GPa) = 68.52179 47.31786 99.84868
#
# Poissons Ratio (x) = 0.31440 0.40963
# Poissons Ratio (y) = 0.45529 -0.00019
# Poissons Ratio (z) = 0.28111 -0.00009
#
# Static dielectric constant tensor:
#      x y z
#    x 1.707630 0.000000 0.000000 
#    y 0.000000 1.669820 0.000000 
#    z 0.000000 0.000000 1.697950 
# 
# From -- ./inp_files/9648.got.cif
#   From: 2010.05.17/outbox.cif.g08.bks.cpg/sg20_5_cif.got.tgz:9648.got - 2010.06.03 22:52:26.
