data_PCOD9321760
_publ_section_title
;
Structure prediction by ZEFSAII (Michael W. Deem and Ramdas Pophale) SiO2 
 PCOD9321760
Probable space group: C 2 2 21
;
_chemical_formula_sum "Si O2"
_cell_formula_units_Z 32
_cell_length_a 7.522370
_cell_length_b 10.205290
_cell_length_c 16.012701
_cell_angle_alpha 90.000000
_cell_angle_beta 90.000000
_cell_angle_gamma 90.000000
_cell_volume 1229.262507
_symmetry_space_group_name_H-M "C 2 2 21"
_symmetry_group_IT_number 20
_symmetry_cell_setting 'orthorhombic'
loop_
_space_group_symop_operation_xyz
x,y,z
-x,-y,1/2+z
x,-y,-z
-x,y,1/2-z
1/2+x,1/2+y,z
1/2-x,1/2-y,1/2+z
1/2+x,1/2-y,-z
1/2-x,1/2+y,1/2-z
loop_
_atom_site_type_symbol
_atom_site_label
_atom_site_fract_x
_atom_site_fract_y
_atom_site_fract_z
Si Si1 0.347354 0.038135 0.407454
Si Si2 0.793012 0.167322 0.778736
Si Si3 0.767992 0.398956 0.908266
Si Si4 0.736015 0.661312 0.901896
O O1 0.557974 0.006941 0.403529
O O2 0.352691 0.193869 0.398124
O O3 0.282831 0.000000 0.500000
O O4 0.254611 0.959159 0.333946
O O5 0.754252 0.293301 0.836591
O O6 0.684417 0.169954 0.692579
O O7 0.000000 0.168310 0.750000
O O8 0.630097 0.520045 0.901698
O O9 0.783322 0.332858 0.998420
#
# Coordination Sequence:
#
# PCOD9321760 Si02
#       4
#     8   8   8   8
#     4  12  24  49  73 104 144 195 237 300 363 421
#     4  12  26  47  73 107 148 188 241 302 355 436
#     4  11  25  50  72 102 153 186 238 306 355 428
#     4  11  24  45  75 107 137 194 241 289 366 423
#
# _framework density 26.031867999999999
#
# number of rings (size 3 to 8) (size 9 to 14) (size 15 to 20)
#    0.000    0.500    7.500    1.500    0.000    0.000 
#   22.500    0.000    0.000    0.000    0.000    0.000 
#    0.000    0.000    0.000    0.000    0.000    0.000 
#
# Total GULP energy -89113.663365 kJ/mol
# GULP energy per Si atom -5569.603960 kJ/mol
# Density = 2.597262 g / cm^3
# Si number density = 26.031868 Si / 1000 Ang^3
#
#
#
# Elastic Constant Matrix: (Units=GPa)
#
#
# Indices 1 2 3 4 5 6 
#
# 1 26.6032 4.6024 37.3485 0.0000 0.0000 0.0000
# 2 4.6024 126.3336 100.6468 0.0000 0.0000 0.0000
# 3 37.3485 100.6468 283.5838 0.0000 0.0000 0.0000
# 4 0.0000 0.0000 0.0000 88.4549 0.0000 0.0000
# 5 0.0000 0.0000 0.0000 0.0000 35.1767 0.0000
# 6 0.0000 0.0000 0.0000 0.0000 0.0000 3.4544
#
#
#
# Elastic Compliance Matrix: (Units=1/GPa)
#
#
# Indices 1 2 3 4 5 6 
#
# 1 0.047943 0.004578 -0.007939 0.000000 0.000000 0.000000
# 2 0.004578 0.011473 -0.004675 0.000000 0.000000 0.000000
# 3 -0.007939 -0.004675 0.006231 0.000000 0.000000 0.000000
# 4 0.000000 0.000000 0.000000 0.011305 0.000000 0.000000
# 5 0.000000 0.000000 0.000000 0.000000 0.028428 0.000000
# 6 0.000000 0.000000 0.000000 0.000000 0.000000 0.289484
#
#
# Mechanical properties :
#
#
# Convention : Reuss Voigt Hill
#
# Bulk Modulus (GPa) = 20.17104 80.19067 50.18086
# Shear Modulus (GPa) = 11.69696 45.01205 28.35451
#
# Velocity S-wave (km/s) = 2.12205 4.16277 3.30392
# Velocity P-wave (km/s) = 3.71073 7.34688 5.82006
#
# Compressibility (1/GPa) = 0.04957602
#
# Stress axis : x y z
#
# Youngs Moduli (GPa) = 20.85798 87.16011 160.48633
#
# Poissons Ratio (x) = -0.39904 1.27412
# Poissons Ratio (y) = -0.09549 0.75026
# Poissons Ratio (z) = 0.16559 0.40747
#
# Static dielectric constant tensor:
#      x y z
#    x 2.229940 0.000000 0.000000 
#    y 0.000000 2.088070 0.000000 
#    z 0.000000 0.000000 1.993350 
# 
# From -- ./inp_files/18267.got.cif
#   From: 2010.05.17/outbox.cif.g08.bks.cpg/sg20_10_cif.got.tgz:18267.got - 2010.06.03 22:52:26.
