data_PCOD9321255
_publ_section_title
;
Structure prediction by ZEFSAII (Michael W. Deem and Ramdas Pophale) SiO2 
 PCOD9321255
Probable space group: C 2 2 21
;
_chemical_formula_sum "Si O2"
_cell_formula_units_Z 64
_cell_length_a 20.136529
_cell_length_b 9.173759
_cell_length_c 17.309641
_cell_angle_alpha 90.000000
_cell_angle_beta 90.000000
_cell_angle_gamma 90.000000
_cell_volume 3197.569549
_symmetry_space_group_name_H-M "C 2 2 21"
_symmetry_group_IT_number 20
_symmetry_cell_setting 'orthorhombic'
loop_
_space_group_symop_operation_xyz
x,y,z
-x,-y,1/2+z
x,-y,-z
-x,y,1/2-z
1/2+x,1/2+y,z
1/2-x,1/2-y,1/2+z
1/2+x,1/2-y,-z
1/2-x,1/2+y,1/2-z
loop_
_atom_site_type_symbol
_atom_site_label
_atom_site_fract_x
_atom_site_fract_y
_atom_site_fract_z
Si Si1 0.461003 0.953974 0.329038
Si Si2 0.323849 0.247984 0.516671
Si Si3 0.538997 0.546026 0.670962
Si Si4 0.539348 0.175351 0.429440
Si Si5 0.460652 0.324650 0.570560
Si Si6 0.823866 0.958279 0.874410
Si Si7 0.323849 0.252017 0.016671
Si Si8 0.676133 0.041721 0.125590
O O1 0.500000 0.965097 0.250000
O O2 0.499547 0.038300 0.397495
O O3 0.387725 0.023326 0.321199
O O4 0.456907 0.788763 0.358416
O O5 0.385298 0.345945 0.542051
O O6 0.250000 0.311955 0.523111
O O7 0.332669 0.179983 0.431167
O O8 0.325146 0.103059 0.571297
O O9 0.500000 0.534902 0.750000
O O10 0.543093 0.711236 0.641584
O O11 0.500454 0.461700 0.602505
O O12 0.612275 0.476673 0.678801
O O13 0.500000 0.250000 0.500000
O O14 0.614702 0.154055 0.457949
O O15 0.750000 0.950168 0.839220
O O16 0.825146 0.103060 0.928702
O O17 0.832669 0.820017 0.931167
#
# Coordination Sequence:
#
# PCOD9321255 Si02
#       8
#     8   8   8   8   8   8   8   8
#     4  11  22  35  53  81 113 141 173 223 275 322
#     4   8  14  27  51  79 100 129 181 227 251 297
#     4  11  22  35  53  81 113 141 173 223 275 322
#     4  11  20  35  57  80 106 140 183 222 267 319
#     4  11  20  35  57  80 106 140 183 222 267 319
#     4   8  14  28  51  76 100 134 182 220 248 304
#     4   8  14  27  51  79 100 129 181 227 251 297
#     4   8  14  28  51  76 100 134 182 220 248 304
#
# _framework density 20.015201999999999
#
# number of rings (size 3 to 8) (size 9 to 14) (size 15 to 20)
#    0.000    2.500    2.500    3.000    0.000    0.000 
#    0.000    1.250    0.000   10.500    0.000    0.000 
#    0.000    0.000    0.000    0.000    0.000    0.000 
#
# Total GULP energy -178546.281970 kJ/mol
# GULP energy per Si atom -5579.571312 kJ/mol
# Density = 1.996965 g / cm^3
# Si number density = 20.015202 Si / 1000 Ang^3
#
#
#
# Elastic Constant Matrix: (Units=GPa)
#
#
# Indices 1 2 3 4 5 6 
#
# 1 181.7049 15.9049 45.1743 0.0000 0.0000 0.0000
# 2 15.9049 46.3861 1.6973 0.0000 0.0000 0.0000
# 3 45.1743 1.6973 71.9353 0.0000 0.0000 0.0000
# 4 0.0000 0.0000 0.0000 18.5716 0.0000 0.0000
# 5 0.0000 0.0000 0.0000 0.0000 37.4373 0.0000
# 6 0.0000 0.0000 0.0000 0.0000 0.0000 16.4070
#
#
#
# Elastic Compliance Matrix: (Units=1/GPa)
#
#
# Indices 1 2 3 4 5 6 
#
# 1 0.006730 -0.002155 -0.004176 0.000000 0.000000 0.000000
# 2 -0.002155 0.022267 0.000828 0.000000 0.000000 0.000000
# 3 -0.004176 0.000828 0.016504 0.000000 0.000000 0.000000
# 4 0.000000 0.000000 0.000000 0.053846 0.000000 0.000000
# 5 0.000000 0.000000 0.000000 0.000000 0.026711 0.000000
# 6 0.000000 0.000000 0.000000 0.000000 0.000000 0.060949
#
#
# Mechanical properties :
#
#
# Convention : Reuss Voigt Hill
#
# Bulk Modulus (GPa) = 28.98907 47.28657 38.13782
# Shear Modulus (GPa) = 23.86505 30.29983 27.08244
#
# Velocity S-wave (km/s) = 3.45678 3.89503 3.68243
# Velocity P-wave (km/s) = 5.51792 6.62608 6.09723
#
# Compressibility (1/GPa) = 0.03449576
#
# Stress axis : x y z
#
# Youngs Moduli (GPa) = 148.58500 44.91000 60.59112
#
# Poissons Ratio (x) = 0.09677 0.25300
# Poissons Ratio (y) = 0.32018 -0.05016
# Poissons Ratio (z) = 0.62043 -0.03718
#
# Static dielectric constant tensor:
#      x y z
#    x 1.743270 0.000000 0.000000 
#    y 0.000000 1.706980 0.000000 
#    z 0.000000 0.000000 1.680210 
# 
# From -- ./inp_files/25521.got.cif
#   From: 2010.05.17/outbox.cif.g08.bks.cpg/sg20_13_cif.got.tgz:25521.got - 2010.06.03 22:52:26.
