data_PCOD9321385
_publ_section_title
;
Structure prediction by ZEFSAII (Michael W. Deem and Ramdas Pophale) SiO2 
 PCOD9321385
Probable space group: C 2 2 21
;
_chemical_formula_sum "Si O2"
_cell_formula_units_Z 56
_cell_length_a 12.235679
_cell_length_b 14.493746
_cell_length_c 13.249239
_cell_angle_alpha 90.000000
_cell_angle_beta 90.000000
_cell_angle_gamma 90.000000
_cell_volume 2349.630956
_symmetry_space_group_name_H-M "C 2 2 21"
_symmetry_group_IT_number 20
_symmetry_cell_setting 'orthorhombic'
loop_
_space_group_symop_operation_xyz
x,y,z
-x,-y,1/2+z
x,-y,-z
-x,y,1/2-z
1/2+x,1/2+y,z
1/2-x,1/2-y,1/2+z
1/2+x,1/2-y,-z
1/2-x,1/2+y,1/2-z
loop_
_atom_site_type_symbol
_atom_site_label
_atom_site_fract_x
_atom_site_fract_y
_atom_site_fract_z
Si Si1 0.975546 0.472801 0.614006
Si Si2 0.611887 0.554308 0.310261
Si Si3 0.452595 0.766837 0.637756
Si Si4 0.629300 0.705195 0.475894
Si Si5 0.272277 0.075390 0.589446
Si Si6 0.755818 0.139309 0.574602
Si Si7 0.220469 0.563879 0.352292
O O1 0.012222 0.500000 0.500000
O O2 0.090686 0.447728 0.667638
O O3 0.918069 0.372794 0.616181
O O4 0.889368 0.554298 0.642053
O O5 0.500000 0.541021 0.250000
O O6 0.592591 0.619440 0.407130
O O7 0.669210 0.459472 0.345519
O O8 0.705192 0.599612 0.238821
O O9 0.500000 0.759141 0.750000
O O10 0.544175 0.739006 0.557585
O O11 0.356779 0.696078 0.616000
O O12 0.736859 0.670539 0.538200
O O13 0.654538 0.792756 0.405606
O O14 0.278523 0.000000 0.500000
O O15 0.746402 0.120030 0.454191
O O16 0.756006 0.040456 0.625071
#
# Coordination Sequence:
#
# PCOD9321385 Si02
#       7
#     8   8   8   8   8   8   8
#     4  11  21  46  71 103 139 188 235 300 366 439
#     4  11  25  44  69 101 146 188 243 298 368 436
#     4  12  27  42  74 108 144 192 250 302 361 447
#     4  11  24  46  69 105 142 192 238 310 368 427
#     4   9  22  39  69  98 136 184 234 288 363 434
#     4  11  24  44  69 105 144 185 240 302 369 435
#     4  11  24  43  73 102 144 191 237 299 371 440
#
# _framework density 23.833531000000001
#
# number of rings (size 3 to 8) (size 9 to 14) (size 15 to 20)
#    0.000    1.143    2.857    3.429    8.000    0.000 
#    0.000    0.000    3.143    0.000    0.000    0.000 
#    0.000    0.000    0.000    0.000    0.000    0.000 
#
# Total GULP energy -156503.994023 kJ/mol
# GULP energy per Si atom -5589.428358 kJ/mol
# Density = 2.377929 g / cm^3
# Si number density = 23.833531 Si / 1000 Ang^3
#
#
#
# Elastic Constant Matrix: (Units=GPa)
#
#
# Indices 1 2 3 4 5 6 
#
# 1 130.1511 15.8212 46.0890 0.0000 0.0000 0.0000
# 2 15.8212 94.6657 25.8092 0.0000 0.0000 0.0000
# 3 46.0890 25.8092 93.0717 0.0000 0.0000 0.0000
# 4 0.0000 0.0000 0.0000 26.5840 0.0000 0.0000
# 5 0.0000 0.0000 0.0000 0.0000 33.2113 0.0000
# 6 0.0000 0.0000 0.0000 0.0000 0.0000 34.1869
#
#
#
# Elastic Compliance Matrix: (Units=1/GPa)
#
#
# Indices 1 2 3 4 5 6 
#
# 1 0.009326 -0.000324 -0.004529 0.000000 0.000000 0.000000
# 2 -0.000324 0.011439 -0.003012 0.000000 0.000000 0.000000
# 3 -0.004529 -0.003012 0.013822 0.000000 0.000000 0.000000
# 4 0.000000 0.000000 0.000000 0.037617 0.000000 0.000000
# 5 0.000000 0.000000 0.000000 0.000000 0.030110 0.000000
# 6 0.000000 0.000000 0.000000 0.000000 0.000000 0.029251
#
#
# Mechanical properties :
#
#
# Convention : Reuss Voigt Hill
#
# Bulk Modulus (GPa) = 53.02545 54.81414 53.91979
# Shear Modulus (GPa) = 32.55644 34.14107 33.34875
#
# Velocity S-wave (km/s) = 3.69994 3.78892 3.74470
# Velocity P-wave (km/s) = 6.36784 6.49537 6.43192
#
# Compressibility (1/GPa) = 0.01885887
#
# Stress axis : x y z
#
# Youngs Moduli (GPa) = 107.22229 87.42262 72.34815
#
# Poissons Ratio (x) = 0.02833 0.32763
# Poissons Ratio (y) = 0.03475 0.21788
# Poissons Ratio (z) = 0.48556 0.26328
#
# Static dielectric constant tensor:
#      x y z
#    x 2.024560 0.000000 0.000000 
#    y 0.000000 1.868060 0.000000 
#    z 0.000000 0.000000 2.020570 
# 
# From -- ./inp_files/20050.got.cif
#   From: 2010.05.17/outbox.cif.g08.bks.cpg/sg20_11_cif.got.tgz:20050.got - 2010.06.03 22:52:26.
