data_PCOD9321084
_publ_section_title
;
Structure prediction by ZEFSAII (Michael W. Deem and Ramdas Pophale) SiO2 
 PCOD9321084
Probable space group: C 2 2 21
;
_chemical_formula_sum "Si O2"
_cell_formula_units_Z 40
_cell_length_a 19.131971
_cell_length_b 5.587745
_cell_length_c 17.166301
_cell_angle_alpha 90.000000
_cell_angle_beta 90.000000
_cell_angle_gamma 90.000000
_cell_volume 1835.156118
_symmetry_space_group_name_H-M "C 2 2 21"
_symmetry_group_IT_number 20
_symmetry_cell_setting 'orthorhombic'
loop_
_space_group_symop_operation_xyz
x,y,z
-x,-y,1/2+z
x,-y,-z
-x,y,1/2-z
1/2+x,1/2+y,z
1/2-x,1/2-y,1/2+z
1/2+x,1/2-y,-z
1/2-x,1/2+y,1/2-z
loop_
_atom_site_type_symbol
_atom_site_label
_atom_site_fract_x
_atom_site_fract_y
_atom_site_fract_z
Si Si1 0.330866 0.054722 0.676648
Si Si2 0.425826 0.268322 0.227162
Si Si3 0.186068 0.849794 0.669090
Si Si4 0.933533 0.603780 0.914050
Si Si5 0.418873 0.256458 0.547914
O O1 0.306442 0.169533 0.758235
O O2 0.362088 0.241396 0.616138
O O3 0.394123 0.879484 0.700371
O O4 0.262342 0.928934 0.643165
O O5 0.500000 0.383609 0.250000
O O6 0.363767 0.440969 0.201374
O O7 0.440435 0.089721 0.155024
O O8 0.138810 0.735350 0.602683
O O9 0.003391 0.763333 0.914900
O O10 0.930254 0.500000 0.000000
O O11 0.409294 0.500000 0.500000
O O12 0.414075 0.000000 0.500000
#
# Coordination Sequence:
#
# PCOD9321084 Si02
#       5
#     8   8   8   8   8
#     4  11  24  46  66 104 143 180 244 298 366 437
#     4  11  23  42  72 103 133 187 240 297 359 430
#     4  11  25  41  73  99 139 190 231 311 362 436
#     4  10  25  44  69 104 140 184 244 304 361 435
#     4  11  27  47  74 104 145 195 240 301 363 438
#
# _framework density 21.796510999999999
#
# number of rings (size 3 to 8) (size 9 to 14) (size 15 to 20)
#    0.000    1.200    4.000    0.000   11.200    0.000 
#    3.600    0.000    0.000    0.000    0.000    0.000 
#    0.000    0.000    0.000    0.000    0.000    0.000 
#
# Total GULP energy -111814.420722 kJ/mol
# GULP energy per Si atom -5590.721036 kJ/mol
# Density = 2.174690 g / cm^3
# Si number density = 21.796511 Si / 1000 Ang^3
#
#
#
# Elastic Constant Matrix: (Units=GPa)
#
#
# Indices 1 2 3 4 5 6 
#
# 1 153.9570 18.5706 49.7394 0.0000 0.0000 0.0000
# 2 18.5706 48.3920 7.8198 0.0000 0.0000 0.0000
# 3 49.7394 7.8198 54.1616 0.0000 0.0000 0.0000
# 4 0.0000 0.0000 0.0000 19.8049 0.0000 0.0000
# 5 0.0000 0.0000 0.0000 0.0000 19.4750 0.0000
# 6 0.0000 0.0000 0.0000 0.0000 0.0000 34.0359
#
#
#
# Elastic Compliance Matrix: (Units=1/GPa)
#
#
# Indices 1 2 3 4 5 6 
#
# 1 0.009476 -0.002283 -0.008372 0.000000 0.000000 0.000000
# 2 -0.002283 0.021708 -0.001037 0.000000 0.000000 0.000000
# 3 -0.008372 -0.001037 0.026302 0.000000 0.000000 0.000000
# 4 0.000000 0.000000 0.000000 0.050493 0.000000 0.000000
# 5 0.000000 0.000000 0.000000 0.000000 0.051348 0.000000
# 6 0.000000 0.000000 0.000000 0.000000 0.000000 0.029381
#
#
# Mechanical properties :
#
#
# Convention : Reuss Voigt Hill
#
# Bulk Modulus (GPa) = 29.32560 45.41890 37.37225
# Shear Modulus (GPa) = 22.37541 26.68853 24.53197
#
# Velocity S-wave (km/s) = 3.20747 3.50300 3.35849
# Velocity P-wave (km/s) = 5.21542 6.10281 5.67648
#
# Compressibility (1/GPa) = 0.03409990
#
# Stress axis : x y z
#
# Youngs Moduli (GPa) = 105.53415 46.06500 38.02034
#
# Poissons Ratio (x) = 0.10519 0.31832
# Poissons Ratio (y) = 0.24098 0.03944
# Poissons Ratio (z) = 0.88356 0.04778
#
# Static dielectric constant tensor:
#      x y z
#    x 1.823300 0.000000 0.000000 
#    y 0.000000 1.876110 0.000000 
#    z 0.000000 0.000000 1.789460 
# 
# From -- ./inp_files/22604.got.cif
#   From: 2010.05.17/outbox.cif.g08.bks.cpg/sg20_12_cif.got.tgz:22604.got - 2010.06.03 22:52:26.
