data_PCOD9321193
_publ_section_title
;
Structure prediction by ZEFSAII (Michael W. Deem and Ramdas Pophale) SiO2 
 PCOD9321193
Probable space group: C 2 2 21
;
_chemical_formula_sum "Si O2"
_cell_formula_units_Z 40
_cell_length_a 18.311105
_cell_length_b 5.129291
_cell_length_c 18.096442
_cell_angle_alpha 90.000000
_cell_angle_beta 90.000000
_cell_angle_gamma 90.000000
_cell_volume 1699.671870
_symmetry_space_group_name_H-M "C 2 2 21"
_symmetry_group_IT_number 20
_symmetry_cell_setting 'orthorhombic'
loop_
_space_group_symop_operation_xyz
x,y,z
-x,-y,1/2+z
x,-y,-z
-x,y,1/2-z
1/2+x,1/2+y,z
1/2-x,1/2-y,1/2+z
1/2+x,1/2-y,-z
1/2-x,1/2+y,1/2-z
loop_
_atom_site_type_symbol
_atom_site_label
_atom_site_fract_x
_atom_site_fract_y
_atom_site_fract_z
Si Si1 0.000000 0.938371 0.750000
Si Si2 0.370054 0.500000 0.000000
Si Si3 0.105544 0.445744 0.156394
Si Si4 0.263373 0.485825 0.873834
Si Si5 0.460856 0.188616 0.117171
Si Si6 0.834051 0.493339 0.189258
O O1 0.940050 0.781848 0.699971
O O2 0.961737 0.115711 0.812576
O O3 0.312000 0.617459 0.057964
O O4 0.423589 0.311163 0.045681
O O5 0.179549 0.439500 0.108608
O O6 0.141765 0.572116 0.228946
O O7 0.043775 0.596697 0.111385
O O8 0.296591 0.760596 0.848603
O O9 0.283360 0.260929 0.813993
O O10 0.409911 0.952303 0.144786
#
# Coordination Sequence:
#
# PCOD9321193 Si02
#       6
#     4   4   8   8   8   8
#     4  12  22  44  74 114 140 182 252 312 360 422
#     4  10  26  52  62 102 142 208 226 300 364 456
#     4  12  23  41  71 109 135 185 238 311 350 431
#     4  11  27  43  71  99 147 186 241 286 372 430
#     4  11  24  43  75 100 149 188 245 295 374 431
#     4  11  22  45  70 106 138 185 228 308 358 428
#
# _framework density 23.533954000000001
#
# number of rings (size 3 to 8) (size 9 to 14) (size 15 to 20)
#    0.000    0.800    4.000    3.600    2.800    3.200 
#    3.600    0.000    0.000    0.000    0.000    0.000 
#    0.000    0.000    0.000    0.000    0.000    0.000 
#
# Total GULP energy -111484.681840 kJ/mol
# GULP energy per Si atom -5574.234092 kJ/mol
# Density = 2.348039 g / cm^3
# Si number density = 23.533954 Si / 1000 Ang^3
#
#
#
# Elastic Constant Matrix: (Units=GPa)
#
#
# Indices 1 2 3 4 5 6 
#
# 1 213.8527 52.4817 32.8962 0.0000 0.0000 0.0000
# 2 52.4817 64.4168 -12.2147 0.0000 0.0000 0.0000
# 3 32.8962 -12.2147 57.4315 0.0000 0.0000 0.0000
# 4 0.0000 0.0000 0.0000 17.5167 0.0000 0.0000
# 5 0.0000 0.0000 0.0000 0.0000 44.0544 0.0000
# 6 0.0000 0.0000 0.0000 0.0000 0.0000 -15.9102
#
#
#
# Elastic Compliance Matrix: (Units=1/GPa)
#
#
# Indices 1 2 3 4 5 6 
#
# 1 0.007258 -0.006983 -0.005642 0.000000 0.000000 0.000000
# 2 -0.006983 0.022895 0.008869 0.000000 0.000000 0.000000
# 3 -0.005642 0.008869 0.022530 0.000000 0.000000 0.000000
# 4 0.000000 0.000000 0.000000 0.057088 0.000000 0.000000
# 5 0.000000 0.000000 0.000000 0.000000 0.022699 0.000000
# 6 0.000000 0.000000 0.000000 0.000000 0.000000 -0.062853
#
#
# Mechanical properties :
#
#
# Convention : Reuss Voigt Hill
#
# Bulk Modulus (GPa) = 22.13837 53.55859 37.84848
# Shear Modulus (GPa) = 54.23778 26.63471 40.43624
#
# Velocity S-wave (km/s) = 4.80590 3.36781 4.14963
# Velocity P-wave (km/s) = 6.34216 6.15875 6.25113
#
# Compressibility (1/GPa) = 0.04517045
#
# Stress axis : x y z
#
# Youngs Moduli (GPa) = 137.78411 43.67808 44.38483
#
# Poissons Ratio (x) = 0.30500 0.25043
# Poissons Ratio (y) = 0.96213 -0.39365
# Poissons Ratio (z) = 0.77742 -0.38738
#
# Static dielectric constant tensor:
#      x y z
#    x 1.997830 0.000000 0.000000 
#    y 0.000000 1.968690 0.000000 
#    z 0.000000 0.000000 2.026010 
# 
# From -- ./inp_files/25120.got.cif
#   From: 2010.05.17/outbox.cif.g08.bks.cpg/sg20_13_cif.got.tgz:25120.got - 2010.06.03 22:52:26.
