data_PCOD9321331
_publ_section_title
;
Structure prediction by ZEFSAII (Michael W. Deem and Ramdas Pophale) SiO2 
 PCOD9321331
Probable space group: C 2 2 21
;
_chemical_formula_sum "Si O2"
_cell_formula_units_Z 36
_cell_length_a 20.225771
_cell_length_b 6.527507
_cell_length_c 12.794258
_cell_angle_alpha 90.000000
_cell_angle_beta 90.000000
_cell_angle_gamma 90.000000
_cell_volume 1689.147350
_symmetry_space_group_name_H-M "C 2 2 21"
_symmetry_group_IT_number 20
_symmetry_cell_setting 'orthorhombic'
loop_
_space_group_symop_operation_xyz
x,y,z
-x,-y,1/2+z
x,-y,-z
-x,y,1/2-z
1/2+x,1/2+y,z
1/2-x,1/2-y,1/2+z
1/2+x,1/2-y,-z
1/2-x,1/2+y,1/2-z
loop_
_atom_site_type_symbol
_atom_site_label
_atom_site_fract_x
_atom_site_fract_y
_atom_site_fract_z
Si Si1 0.360245 0.500000 0.500000
Si Si2 0.267384 0.180550 0.382888
Si Si3 0.350555 0.603501 0.897077
Si Si4 0.844559 0.508174 0.807162
Si Si5 0.575590 0.366430 0.782624
O O1 0.314442 0.307182 0.462280
O O2 0.403725 0.576190 0.400916
O O3 0.208720 0.336502 0.354483
O O4 0.309786 0.127768 0.281437
O O5 0.226743 0.966312 0.399942
O O6 0.362842 0.844208 0.895043
O O7 0.382397 0.510851 0.793935
O O8 0.380620 0.500000 0.000000
O O9 0.901117 0.638630 0.750713
O O10 0.500000 0.393902 0.750000
#
# Coordination Sequence:
#
# PCOD9321331 Si02
#       5
#     4   8   8   8   8
#     4  12  24  46  74 102 138 188 244 302 360 428
#     4  11  21  38  68 107 136 170 229 290 368 425
#     4  11  24  41  72  99 144 180 223 297 358 421
#     4  11  21  43  67 105 144 177 226 295 356 427
#     4  11  28  47  66 101 139 194 249 286 345 425
#
# _framework density 21.312529000000001
#
# number of rings (size 3 to 8) (size 9 to 14) (size 15 to 20)
#    0.000    0.889    4.444    2.667    4.667    3.556 
#    0.000    2.222    0.000    0.000    0.000    0.000 
#    0.000    0.000    0.000    0.000    0.000    0.000 
#
# Total GULP energy -100473.835635 kJ/mol
# GULP energy per Si atom -5581.879757 kJ/mol
# Density = 2.126402 g / cm^3
# Si number density = 21.312529 Si / 1000 Ang^3
#
#
#
# Elastic Constant Matrix: (Units=GPa)
#
#
# Indices 1 2 3 4 5 6 
#
# 1 110.9065 31.1605 53.8874 0.0000 0.0000 0.0000
# 2 31.1605 115.0521 33.9871 0.0000 0.0000 0.0000
# 3 53.8874 33.9871 130.5402 0.0000 0.0000 0.0000
# 4 0.0000 0.0000 0.0000 36.2298 0.0000 0.0000
# 5 0.0000 0.0000 0.0000 0.0000 25.8174 0.0000
# 6 0.0000 0.0000 0.0000 0.0000 0.0000 -3.1894
#
#
#
# Elastic Compliance Matrix: (Units=1/GPa)
#
#
# Indices 1 2 3 4 5 6 
#
# 1 0.011642 -0.001878 -0.004317 0.000000 0.000000 0.000000
# 2 -0.001878 0.009719 -0.001755 0.000000 0.000000 0.000000
# 3 -0.004317 -0.001755 0.009899 0.000000 0.000000 0.000000
# 4 0.000000 0.000000 0.000000 0.027602 0.000000 0.000000
# 5 0.000000 0.000000 0.000000 0.000000 0.038734 0.000000
# 6 0.000000 0.000000 0.000000 0.000000 0.000000 -0.313539
#
#
# Mechanical properties :
#
#
# Convention : Reuss Voigt Hill
#
# Bulk Modulus (GPa) = 65.10301 66.06323 65.58312
# Shear Modulus (GPa) = -25.65101 27.60249 0.97574
#
# Velocity S-wave (km/s) = -3.47301 3.60270 0.67736
# Velocity P-wave (km/s) = 3.81193 6.95489 5.60809
#
# Compressibility (1/GPa) = 0.01536027
#
# Stress axis : x y z
#
# Youngs Moduli (GPa) = 85.89843 102.89347 101.01571
#
# Poissons Ratio (x) = 0.19321 0.43607
# Poissons Ratio (y) = 0.16130 0.17730
# Poissons Ratio (z) = 0.37081 0.18060
#
# Static dielectric constant tensor:
#      x y z
#    x 1.726720 0.000000 0.000000 
#    y 0.000000 1.866670 0.000000 
#    z 0.000000 0.000000 1.902090 
# 
# From -- ./inp_files/21589.got.cif
#   From: 2010.05.17/outbox.cif.g08.bks.cpg/sg20_11_cif.got.tgz:21589.got - 2010.06.03 22:52:26.
