data_PCOD9321435
_publ_section_title
;
Structure prediction by ZEFSAII (Michael W. Deem and Ramdas Pophale) SiO2 
 PCOD9321435
Probable space group: C 2 2 21
;
_chemical_formula_sum "Si O2"
_cell_formula_units_Z 32
_cell_length_a 9.217060
_cell_length_b 18.516287
_cell_length_c 8.087837
_cell_angle_alpha 90.000000
_cell_angle_beta 90.000000
_cell_angle_gamma 90.000000
_cell_volume 1380.316592
_symmetry_space_group_name_H-M "C 2 2 21"
_symmetry_group_IT_number 20
_symmetry_cell_setting 'orthorhombic'
loop_
_space_group_symop_operation_xyz
x,y,z
-x,-y,1/2+z
x,-y,-z
-x,y,1/2-z
1/2+x,1/2+y,z
1/2-x,1/2-y,1/2+z
1/2+x,1/2-y,-z
1/2-x,1/2+y,1/2-z
loop_
_atom_site_type_symbol
_atom_site_label
_atom_site_fract_x
_atom_site_fract_y
_atom_site_fract_z
Si Si1 0.581068 0.304092 0.419333
Si Si2 0.217250 0.417595 0.925920
Si Si3 0.923439 0.577736 0.927280
Si Si4 0.709702 0.666366 0.090185
O O1 0.500000 0.312320 0.250000
O O2 0.681139 0.371549 0.457471
O O3 0.452779 0.305548 0.557583
O O4 0.684804 0.235099 0.399545
O O5 0.268778 0.390239 0.743357
O O6 0.222596 0.500000 0.000000
O O7 0.050269 0.393601 0.951165
O O8 0.000000 0.572171 0.750000
O O9 0.885904 0.500000 0.000000
O O10 0.779288 0.624488 0.933900
#
# Coordination Sequence:
#
# PCOD9321435 Si02
#       4
#     8   8   8   8
#     4  12  26  43  69 102 141 186 237 297 361 430
#     4  11  25  46  70 103 146 192 243 297 361 433
#     4  11  22  40  67  98 136 183 236 293 357 428
#     4  12  25  45  71 103 144 189 239 297 359 433
#
# _framework density 23.183088000000001
#
# number of rings (size 3 to 8) (size 9 to 14) (size 15 to 20)
#    0.000    0.500    0.000   10.500    0.000    5.000 
#    0.000    0.000    0.000    0.000    0.000    0.000 
#    0.000    0.000    0.000    0.000    0.000    0.000 
#
# Total GULP energy -89385.305125 kJ/mol
# GULP energy per Si atom -5586.581570 kJ/mol
# Density = 2.313032 g / cm^3
# Si number density = 23.183088 Si / 1000 Ang^3
#
#
#
# Elastic Constant Matrix: (Units=GPa)
#
#
# Indices 1 2 3 4 5 6 
#
# 1 105.0765 65.5920 4.3979 0.0000 0.0000 0.0000
# 2 65.5920 118.3666 41.3372 0.0000 0.0000 0.0000
# 3 4.3979 41.3372 108.7405 0.0000 0.0000 0.0000
# 4 0.0000 0.0000 0.0000 25.9137 0.0000 0.0000
# 5 0.0000 0.0000 0.0000 0.0000 59.3806 0.0000
# 6 0.0000 0.0000 0.0000 0.0000 0.0000 24.5542
#
#
#
# Elastic Compliance Matrix: (Units=1/GPa)
#
#
# Indices 1 2 3 4 5 6 
#
# 1 0.015362 -0.009566 0.003015 0.000000 0.000000 0.000000
# 2 -0.009566 0.015698 -0.005581 0.000000 0.000000 0.000000
# 3 0.003015 -0.005581 0.011196 0.000000 0.000000 0.000000
# 4 0.000000 0.000000 0.000000 0.038590 0.000000 0.000000
# 5 0.000000 0.000000 0.000000 0.000000 0.016841 0.000000
# 6 0.000000 0.000000 0.000000 0.000000 0.000000 0.040726
#
#
# Mechanical properties :
#
#
# Convention : Reuss Voigt Hill
#
# Bulk Modulus (GPa) = 55.57687 61.64864 58.61275
# Shear Modulus (GPa) = 29.64335 36.69347 33.16841
#
# Velocity S-wave (km/s) = 3.57972 3.98272 3.78658
# Velocity P-wave (km/s) = 6.41178 6.91370 6.66746
#
# Compressibility (1/GPa) = 0.01799310
#
# Stress axis : x y z
#
# Youngs Moduli (GPa) = 65.09656 63.70261 89.31984
#
# Poissons Ratio (x) = 0.60935 -0.26930
# Poissons Ratio (y) = 0.62268 0.49846
# Poissons Ratio (z) = -0.19627 0.35550
#
# Static dielectric constant tensor:
#      x y z
#    x 1.855940 0.000000 0.000000 
#    y 0.000000 1.806900 0.000000 
#    z 0.000000 0.000000 2.055110 
# 
# From -- ./inp_files/5822.got.cif
#   From: 2010.05.17/outbox.cif.g08.bks.cpg/sg20_3_cif.got.tgz:5822.got - 2010.06.03 22:52:26.
