data_PCOD9321146
_publ_section_title
;
Structure prediction by ZEFSAII (Michael W. Deem and Ramdas Pophale) SiO2 
 PCOD9321146
Probable space group: C 2 2 21
;
_chemical_formula_sum "Si O2"
_cell_formula_units_Z 32
_cell_length_a 23.224810
_cell_length_b 13.069671
_cell_length_c 5.147548
_cell_angle_alpha 90.000000
_cell_angle_beta 90.000000
_cell_angle_gamma 90.000000
_cell_volume 1562.489941
_symmetry_space_group_name_H-M "C 2 2 21"
_symmetry_group_IT_number 20
_symmetry_cell_setting 'orthorhombic'
loop_
_space_group_symop_operation_xyz
x,y,z
-x,-y,1/2+z
x,-y,-z
-x,y,1/2-z
1/2+x,1/2+y,z
1/2-x,1/2-y,1/2+z
1/2+x,1/2-y,-z
1/2-x,1/2+y,1/2-z
loop_
_atom_site_type_symbol
_atom_site_label
_atom_site_fract_x
_atom_site_fract_y
_atom_site_fract_z
Si Si1 0.837733 0.000000 0.500000
Si Si2 0.783828 0.214433 0.641603
Si Si3 0.413420 0.750778 0.720073
Si Si4 0.436424 0.616805 0.220648
Si Si5 0.500000 0.930292 0.750000
O O1 0.799329 0.094639 0.597622
O O2 0.882534 0.044073 0.286070
O O3 0.759122 0.262343 0.377168
O O4 0.845148 0.263767 0.712051
O O5 0.432772 0.704291 0.443392
O O6 0.445955 0.854891 0.777139
O O7 0.429166 0.669222 0.942704
O O8 0.500000 0.568880 0.250000
O O9 0.493330 0.000000 0.500000
#
# Coordination Sequence:
#
# PCOD9321146 Si02
#       5
#     4   8   8   8   4
#     4  10  26  42  72 102 130 178 232 272 346 418
#     4  11  25  47  69  94 137 179 227 286 333 397
#     4  11  23  44  68  97 135 178 218 276 349 391
#     4  11  21  40  70 102 139 165 204 278 352 420
#     4  12  24  42  70 100 136 178 234 282 334 410
#
# _framework density 20.480132000000001
#
# number of rings (size 3 to 8) (size 9 to 14) (size 15 to 20)
#    0.000    1.000    2.500    4.500    0.000   13.000 
#    6.750    0.000    0.000    0.000    0.000    0.000 
#    0.000    0.000    0.000    0.000    0.000    0.000 
#
# Total GULP energy -89546.203830 kJ/mol
# GULP energy per Si atom -5596.637739 kJ/mol
# Density = 2.043352 g / cm^3
# Si number density = 20.480132 Si / 1000 Ang^3
#
#
#
# Elastic Constant Matrix: (Units=GPa)
#
#
# Indices 1 2 3 4 5 6 
#
# 1 129.9973 69.6832 26.9002 0.0000 0.0000 0.0000
# 2 69.6832 138.3755 41.5043 0.0000 0.0000 0.0000
# 3 26.9002 41.5043 100.7291 0.0000 0.0000 0.0000
# 4 0.0000 0.0000 0.0000 36.9326 0.0000 0.0000
# 5 0.0000 0.0000 0.0000 0.0000 31.7445 0.0000
# 6 0.0000 0.0000 0.0000 0.0000 0.0000 47.1699
#
#
#
# Elastic Compliance Matrix: (Units=1/GPa)
#
#
# Indices 1 2 3 4 5 6 
#
# 1 0.010582 -0.005113 -0.000719 0.000000 0.000000 0.000000
# 2 -0.005113 0.010716 -0.003050 0.000000 0.000000 0.000000
# 3 -0.000719 -0.003050 0.011376 0.000000 0.000000 0.000000
# 4 0.000000 0.000000 0.000000 0.027076 0.000000 0.000000
# 5 0.000000 0.000000 0.000000 0.000000 0.031501 0.000000
# 6 0.000000 0.000000 0.000000 0.000000 0.000000 0.021200
#
#
# Mechanical properties :
#
#
# Convention : Reuss Voigt Hill
#
# Bulk Modulus (GPa) = 67.06878 71.69747 69.38312
# Shear Modulus (GPa) = 36.98555 38.57036 37.77795
#
# Velocity S-wave (km/s) = 4.25423 4.34442 4.29956
# Velocity P-wave (km/s) = 7.54656 7.76206 7.65507
#
# Compressibility (1/GPa) = 0.01491007
#
# Stress axis : x y z
#
# Youngs Moduli (GPa) = 94.49855 93.31411 87.90108
#
# Poissons Ratio (x) = 0.47714 0.06321
# Poissons Ratio (y) = 0.48320 0.26811
# Poissons Ratio (z) = 0.06796 0.28462
#
# Static dielectric constant tensor:
#      x y z
#    x 1.724720 0.000000 0.000000 
#    y 0.000000 1.712160 0.000000 
#    z 0.000000 0.000000 1.728450 
# 
# From -- ./inp_files/2984.got.cif
#   From: 2010.05.17/outbox.cif.g08.bks.cpg/sg20_2_cif.got.tgz:2984.got - 2010.06.03 22:52:26.
