data_PCOD9321334
_publ_section_title
;
Structure prediction by ZEFSAII (Michael W. Deem and Ramdas Pophale) SiO2 
 PCOD9321334
Probable space group: C 2 2 21
;
_chemical_formula_sum "Si O2"
_cell_formula_units_Z 40
_cell_length_a 6.724197
_cell_length_b 12.730207
_cell_length_c 19.000877
_cell_angle_alpha 90.000000
_cell_angle_beta 90.000000
_cell_angle_gamma 90.000000
_cell_volume 1626.483046
_symmetry_space_group_name_H-M "C 2 2 21"
_symmetry_group_IT_number 20
_symmetry_cell_setting 'orthorhombic'
loop_
_space_group_symop_operation_xyz
x,y,z
-x,-y,1/2+z
x,-y,-z
-x,y,1/2-z
1/2+x,1/2+y,z
1/2-x,1/2-y,1/2+z
1/2+x,1/2-y,-z
1/2-x,1/2+y,1/2-z
loop_
_atom_site_type_symbol
_atom_site_label
_atom_site_fract_x
_atom_site_fract_y
_atom_site_fract_z
Si Si1 0.575508 0.320229 0.672721
Si Si2 0.149057 0.489998 0.422634
Si Si3 0.088093 0.864253 0.173000
Si Si4 0.781650 0.404316 0.553024
Si Si5 0.705675 0.811407 0.079868
O O1 0.500000 0.344288 0.750000
O O2 0.750802 0.231525 0.677158
O O3 0.666995 0.411140 0.625379
O O4 0.395907 0.279666 0.624167
O O5 0.247642 0.500000 0.500000
O O6 0.290404 0.461691 0.359513
O O7 0.010818 0.592211 0.422847
O O8 0.974527 0.399498 0.420182
O O9 0.000000 0.882297 0.250000
O O10 0.906290 0.840607 0.120501
O O11 0.728739 0.500000 0.500000
O O12 0.747511 0.302700 0.503652
#
# Coordination Sequence:
#
# PCOD9321334 Si02
#       5
#     8   8   8   8   8
#     4  11  22  40  69 104 144 171 233 307 348 414
#     4   8  19  40  64  98 140 174 227 284 338 415
#     4  11  21  38  71 102 135 186 225 286 353 421
#     4   9  21  44  68  97 140 183 231 286 351 425
#     4   9  20  39  64 102 133 175 240 280 341 415
#
# _framework density 24.592943000000002
#
# number of rings (size 3 to 8) (size 9 to 14) (size 15 to 20)
#    0.000    2.800    2.000    0.000    2.800    3.200 
#    0.000    8.000    8.800    0.000    5.200    0.000 
#    0.000    0.000    0.000    0.000    0.000    0.000 
#
# Total GULP energy -111669.995620 kJ/mol
# GULP energy per Si atom -5583.499781 kJ/mol
# Density = 2.453697 g / cm^3
# Si number density = 24.592943 Si / 1000 Ang^3
#
#
#
# Elastic Constant Matrix: (Units=GPa)
#
#
# Indices 1 2 3 4 5 6 
#
# 1 139.1045 27.8931 90.1849 0.0000 0.0000 0.0000
# 2 27.8931 56.4941 50.1795 0.0000 0.0000 0.0000
# 3 90.1849 50.1795 206.3064 0.0000 0.0000 0.0000
# 4 0.0000 0.0000 0.0000 32.9329 0.0000 0.0000
# 5 0.0000 0.0000 0.0000 0.0000 55.9285 0.0000
# 6 0.0000 0.0000 0.0000 0.0000 0.0000 28.6842
#
#
#
# Elastic Compliance Matrix: (Units=1/GPa)
#
#
# Indices 1 2 3 4 5 6 
#
# 1 0.010113 -0.001360 -0.004090 0.000000 0.000000 0.000000
# 2 -0.001360 0.022762 -0.004942 0.000000 0.000000 0.000000
# 3 -0.004090 -0.004942 0.007837 0.000000 0.000000 0.000000
# 4 0.000000 0.000000 0.000000 0.030365 0.000000 0.000000
# 5 0.000000 0.000000 0.000000 0.000000 0.017880 0.000000
# 6 0.000000 0.000000 0.000000 0.000000 0.000000 0.034862
#
#
# Mechanical properties :
#
#
# Convention : Reuss Voigt Hill
#
# Bulk Modulus (GPa) = 50.18050 82.04666 66.11358
# Shear Modulus (GPa) = 33.05866 39.08563 36.07215
#
# Velocity S-wave (km/s) = 3.67036 3.99093 3.83400
# Velocity P-wave (km/s) = 6.19764 7.39398 6.82209
#
# Compressibility (1/GPa) = 0.01992806
#
# Stress axis : x y z
#
# Youngs Moduli (GPa) = 98.87968 43.93300 127.59933
#
# Poissons Ratio (x) = 0.05977 0.52189
# Poissons Ratio (y) = 0.13452 0.63055
# Poissons Ratio (z) = 0.40442 0.21710
#
# Static dielectric constant tensor:
#      x y z
#    x 2.003240 0.000000 0.000000 
#    y 0.000000 2.196430 0.000000 
#    z 0.000000 0.000000 1.935320 
# 
# From -- ./inp_files/22605.got.cif
#   From: 2010.05.17/outbox.cif.g08.bks.cpg/sg20_12_cif.got.tgz:22605.got - 2010.06.03 22:52:26.
