data_PCOD9321601
_publ_section_title
;
Structure prediction by ZEFSAII (Michael W. Deem and Ramdas Pophale) SiO2 
 PCOD9321601
Probable space group: C 2 2 21
;
_chemical_formula_sum "Si O2"
_cell_formula_units_Z 64
_cell_length_a 11.584828
_cell_length_b 13.960897
_cell_length_c 18.584109
_cell_angle_alpha 90.000000
_cell_angle_beta 90.000000
_cell_angle_gamma 90.000000
_cell_volume 3005.693258
_symmetry_space_group_name_H-M "C 2 2 21"
_symmetry_group_IT_number 20
_symmetry_cell_setting 'orthorhombic'
loop_
_space_group_symop_operation_xyz
x,y,z
-x,-y,1/2+z
x,-y,-z
-x,y,1/2-z
1/2+x,1/2+y,z
1/2-x,1/2-y,1/2+z
1/2+x,1/2-y,-z
1/2-x,1/2+y,1/2-z
loop_
_atom_site_type_symbol
_atom_site_label
_atom_site_fract_x
_atom_site_fract_y
_atom_site_fract_z
Si Si1 0.994157 0.439592 0.167370
Si Si2 0.183345 0.194364 0.206440
Si Si3 0.404729 0.753530 0.546444
Si Si4 0.445390 0.160517 0.174841
Si Si5 0.591566 0.521808 0.810390
Si Si6 0.816688 0.646857 0.593573
Si Si7 0.062413 0.082817 0.555231
Si Si8 0.282335 0.177279 0.845348
O O1 0.949253 0.546657 0.171894
O O2 0.899788 0.373014 0.129490
O O3 0.000000 0.405329 0.250000
O O4 0.115813 0.442964 0.126818
O O5 0.313317 0.186746 0.178172
O O6 0.137526 0.271579 0.149228
O O7 0.188889 0.241515 0.285856
O O8 0.127537 0.088991 0.202526
O O9 0.484150 0.799480 0.608123
O O10 0.364358 0.823463 0.483907
O O11 0.483093 0.665008 0.518927
O O12 0.291150 0.717112 0.588374
O O13 0.500000 0.194595 0.250000
O O14 0.500000 0.550900 0.750000
O O15 0.521837 0.537804 0.884382
O O16 0.701449 0.593553 0.810174
O O17 0.680138 0.626862 0.588479
O O18 0.096095 0.000000 0.500000
#
# Coordination Sequence:
#
# PCOD9321601 Si02
#       8
#     8   8   8   8   8   8   8   8
#     4  11  25  43  67 101 141 178 227 288 341 414
#     4  12  23  44  69 102 136 181 226 287 345 415
#     4  11  26  44  70 102 135 186 230 288 350 419
#     4  11  23  43  70 101 136 179 232 280 345 413
#     4  11  26  42  71 102 134 181 230 282 350 414
#     4  12  27  43  70  99 142 182 232 287 352 411
#     4  11  26  48  66  95 142 180 231 285 346 424
#     4  11  24  44  70 102 139 179 229 286 348 416
#
# _framework density 21.292923999999999
#
# number of rings (size 3 to 8) (size 9 to 14) (size 15 to 20)
#    0.000    0.750    5.000    1.500    7.000    1.000 
#    0.000    0.000    0.000    0.000    0.000    0.000 
#    0.000    0.000    0.000    0.000    0.000    0.000 
#
# Total GULP energy -178845.125756 kJ/mol
# GULP energy per Si atom -5588.910180 kJ/mol
# Density = 2.124446 g / cm^3
# Si number density = 21.292924 Si / 1000 Ang^3
#
#
#
# Elastic Constant Matrix: (Units=GPa)
#
#
# Indices 1 2 3 4 5 6 
#
# 1 88.8058 17.0715 5.4686 0.0000 0.0000 0.0000
# 2 17.0715 68.3018 22.4478 0.0000 0.0000 0.0000
# 3 5.4686 22.4478 55.1426 0.0000 0.0000 0.0000
# 4 0.0000 0.0000 0.0000 23.5748 0.0000 0.0000
# 5 0.0000 0.0000 0.0000 0.0000 21.9324 0.0000
# 6 0.0000 0.0000 0.0000 0.0000 0.0000 246.7656
#
#
#
# Elastic Compliance Matrix: (Units=1/GPa)
#
#
# Indices 1 2 3 4 5 6 
#
# 1 0.011829 -0.002968 0.000035 0.000000 0.000000 0.000000
# 2 -0.002968 0.017647 -0.006890 0.000000 0.000000 0.000000
# 3 0.000035 -0.006890 0.020936 0.000000 0.000000 0.000000
# 4 0.000000 0.000000 0.000000 0.042418 0.000000 0.000000
# 5 0.000000 0.000000 0.000000 0.000000 0.045595 0.000000
# 6 0.000000 0.000000 0.000000 0.000000 0.000000 0.004052
#
#
# Mechanical properties :
#
#
# Convention : Reuss Voigt Hill
#
# Bulk Modulus (GPa) = 32.50232 33.58064 33.04148
# Shear Modulus (GPa) = 29.00610 69.60540 49.30575
#
# Velocity S-wave (km/s) = 3.69486 5.72367 4.81728
# Velocity P-wave (km/s) = 5.78793 7.71269 6.81857
#
# Compressibility (1/GPa) = 0.03076704
#
# Stress axis : x y z
#
# Youngs Moduli (GPa) = 84.53855 56.66674 47.76480
#
# Poissons Ratio (x) = 0.16819 -0.00168
# Poissons Ratio (y) = 0.25092 0.32908
# Poissons Ratio (z) = -0.00297 0.39041
#
# Static dielectric constant tensor:
#      x y z
#    x 1.816030 0.000000 0.000000 
#    y 0.000000 1.783770 0.000000 
#    z 0.000000 0.000000 1.365100 
# 
# From -- ./inp_files/24457.got.cif
#   From: 2010.05.17/outbox.cif.g08.bks.cpg/sg20_13_cif.got.tgz:24457.got - 2010.06.03 22:52:26.
