data_PCOD9321707
_publ_section_title
;
Structure prediction by ZEFSAII (Michael W. Deem and Ramdas Pophale) SiO2 
 PCOD9321707
Probable space group: C 2 2 21
;
_chemical_formula_sum "Si O2"
_cell_formula_units_Z 56
_cell_length_a 20.560203
_cell_length_b 12.695056
_cell_length_c 9.832321
_cell_angle_alpha 90.000000
_cell_angle_beta 90.000000
_cell_angle_gamma 90.000000
_cell_volume 2566.362898
_symmetry_space_group_name_H-M "C 2 2 21"
_symmetry_group_IT_number 20
_symmetry_cell_setting 'orthorhombic'
loop_
_space_group_symop_operation_xyz
x,y,z
-x,-y,1/2+z
x,-y,-z
-x,y,1/2-z
1/2+x,1/2+y,z
1/2-x,1/2-y,1/2+z
1/2+x,1/2-y,-z
1/2-x,1/2+y,1/2-z
loop_
_atom_site_type_symbol
_atom_site_label
_atom_site_fract_x
_atom_site_fract_y
_atom_site_fract_z
Si Si1 0.808399 0.704259 0.301732
Si Si2 0.999062 0.903087 0.097305
Si Si3 0.054302 0.644207 0.850478
Si Si4 0.858955 0.155530 0.922876
Si Si5 0.634384 0.675722 0.032932
Si Si6 0.055188 0.405341 0.845008
Si Si7 0.820517 0.927800 0.798551
O O1 0.815571 0.759438 0.155567
O O2 0.810138 0.791722 0.423909
O O3 0.876801 0.650317 0.331247
O O4 0.753146 0.615918 0.302824
O O5 0.935940 0.828456 0.098313
O O6 0.000000 0.945252 0.250000
O O7 0.067959 0.856717 0.047014
O O8 0.982896 0.000000 0.000000
O O9 0.113910 0.722747 0.875346
O O10 0.069030 0.526170 0.800841
O O11 0.000000 0.690722 0.750000
O O12 0.030548 0.615537 0.002323
O O13 0.835981 0.045012 0.852650
O O14 0.851472 0.145881 0.084284
O O15 0.653606 0.589350 0.145539
O O16 0.000000 0.361466 0.750000
#
# Coordination Sequence:
#
# PCOD9321707 Si02
#       7
#     8   8   8   8   8   8   8
#     4  11  24  42  68  93 130 181 225 285 334 415
#     4  12  24  42  69 104 139 175 223 288 351 406
#     4   9  20  35  57  90 123 162 208 265 329 399
#     4  11  25  43  66  98 132 179 225 281 343 412
#     4  11  25  38  67  99 133 177 222 286 341 413
#     4   9  20  38  60  90 124 166 221 274 336 391
#     4  11  25  45  63  95 137 176 230 271 341 424
#
# _framework density 21.820765000000002
#
# number of rings (size 3 to 8) (size 9 to 14) (size 15 to 20)
#    0.000    1.429    2.857    1.714    6.000    5.714 
#    0.000    0.000    0.000    5.143    0.000    0.000 
#    0.000    0.000    0.000    0.000    0.000    0.000 
#
# Total GULP energy -156215.755182 kJ/mol
# GULP energy per Si atom -5579.134114 kJ/mol
# Density = 2.177110 g / cm^3
# Si number density = 21.820765 Si / 1000 Ang^3
#
#
#
# Elastic Constant Matrix: (Units=GPa)
#
#
# Indices 1 2 3 4 5 6 
#
# 1 91.0913 18.3319 39.2705 0.0000 0.0000 0.0000
# 2 18.3319 46.6799 4.4707 0.0000 0.0000 0.0000
# 3 39.2705 4.4707 97.1167 0.0000 0.0000 0.0000
# 4 0.0000 0.0000 0.0000 27.4034 0.0000 0.0000
# 5 0.0000 0.0000 0.0000 0.0000 32.3461 0.0000
# 6 0.0000 0.0000 0.0000 0.0000 0.0000 24.4645
#
#
#
# Elastic Compliance Matrix: (Units=1/GPa)
#
#
# Indices 1 2 3 4 5 6 
#
# 1 0.014422 -0.005128 -0.005596 0.000000 0.000000 0.000000
# 2 -0.005128 0.023341 0.000999 0.000000 0.000000 0.000000
# 3 -0.005596 0.000999 0.012514 0.000000 0.000000 0.000000
# 4 0.000000 0.000000 0.000000 0.036492 0.000000 0.000000
# 5 0.000000 0.000000 0.000000 0.000000 0.030916 0.000000
# 6 0.000000 0.000000 0.000000 0.000000 0.000000 0.040876
#
#
# Mechanical properties :
#
#
# Convention : Reuss Voigt Hill
#
# Bulk Modulus (GPa) = 32.43880 39.89269 36.16575
# Shear Modulus (GPa) = 26.55547 28.36376 27.45961
#
# Velocity S-wave (km/s) = 3.49231 3.60926 3.55127
# Velocity P-wave (km/s) = 5.58211 5.97417 5.78146
#
# Compressibility (1/GPa) = 0.03082728
#
# Stress axis : x y z
#
# Youngs Moduli (GPa) = 69.33647 42.84370 79.91266
#
# Poissons Ratio (x) = 0.21970 0.44718
# Poissons Ratio (y) = 0.35556 -0.07984
# Poissons Ratio (z) = 0.38800 -0.04280
#
# Static dielectric constant tensor:
#      x y z
#    x 1.785200 0.000000 0.000000 
#    y 0.000000 1.889050 0.000000 
#    z 0.000000 0.000000 1.819000 
# 
# From -- ./inp_files/10211.got.cif
#   From: 2010.05.17/outbox.cif.g08.bks.cpg/sg20_6_cif.got.tgz:10211.got - 2010.06.03 22:52:26.
