data_PCOD9321815
_publ_section_title
;
Structure prediction by ZEFSAII (Michael W. Deem and Ramdas Pophale) SiO2 
 PCOD9321815
Probable space group: C 2 2 21
;
_chemical_formula_sum "Si O2"
_cell_formula_units_Z 60
_cell_length_a 9.112325
_cell_length_b 28.341730
_cell_length_c 10.522346
_cell_angle_alpha 90.000000
_cell_angle_beta 90.000000
_cell_angle_gamma 90.000000
_cell_volume 2717.491132
_symmetry_space_group_name_H-M "C 2 2 21"
_symmetry_group_IT_number 20
_symmetry_cell_setting 'orthorhombic'
loop_
_space_group_symop_operation_xyz
x,y,z
-x,-y,1/2+z
x,-y,-z
-x,y,1/2-z
1/2+x,1/2+y,z
1/2-x,1/2-y,1/2+z
1/2+x,1/2-y,-z
1/2-x,1/2+y,1/2-z
loop_
_atom_site_type_symbol
_atom_site_label
_atom_site_fract_x
_atom_site_fract_y
_atom_site_fract_z
Si Si1 0.590745 0.688138 0.876890
Si Si2 0.728178 0.996549 0.674631
Si Si3 0.415273 0.200671 0.383024
Si Si4 0.365113 0.635172 0.048198
Si Si5 0.261540 0.455778 0.061014
Si Si6 0.078337 0.661611 0.612461
Si Si7 0.944248 0.437178 0.978312
Si Si8 0.500000 0.437696 0.750000
O O1 0.500000 0.677697 0.750000
O O2 0.623458 0.744128 0.874807
O O3 0.748525 0.664529 0.871350
O O4 0.494217 0.668818 0.995130
O O5 0.625199 0.950753 0.655699
O O6 0.888123 0.972404 0.676021
O O7 0.718969 0.026620 0.801346
O O8 0.664604 0.034282 0.573512
O O9 0.500000 0.188059 0.250000
O O10 0.273951 0.166996 0.408702
O O11 0.516594 0.198648 0.509605
O O12 0.414648 0.598459 0.157520
O O13 0.327154 0.596451 0.939284
O O14 0.112525 0.452311 0.980251
O O15 0.349338 0.500000 0.000000
O O16 0.049969 0.614212 0.534267
O O17 0.000000 0.663426 0.750000
#
# Coordination Sequence:
#
# PCOD9321815 Si02
#       8
#     8   8   8   8   8   8   8   4
#     4  11  27  50  74 112 151 193 249 325 403 464
#     4  11  25  42  63  99 143 191 245 291 357 431
#     4  11  27  50  79 111 149 197 257 327 392 464
#     4  12  27  49  75 111 152 198 247 320 383 462
#     4  12  23  43  69 100 145 190 242 298 356 431
#     4  12  25  47  80 110 147 199 259 315 387 470
#     4  11  25  42  71 100 135 195 250 300 352 439
#     4  12  28  44  68 102 150 198 242 300 382 442
#
# _framework density 22.079189
#
# number of rings (size 3 to 8) (size 9 to 14) (size 15 to 20)
#    0.000    0.533    4.000    3.600    5.600    4.267 
#    2.400    0.000    0.000    0.000    0.000    0.000 
#    0.000    0.000    0.000    0.000    0.000    0.000 
#
# Total GULP energy -167359.311902 kJ/mol
# GULP energy per Si atom -5578.643730 kJ/mol
# Density = 2.202894 g / cm^3
# Si number density = 22.079189 Si / 1000 Ang^3
#
#
#
# Elastic Constant Matrix: (Units=GPa)
#
#
# Indices 1 2 3 4 5 6 
#
# 1 131.8756 29.4221 29.2917 0.0000 0.0000 0.0000
# 2 29.4221 85.2466 20.2313 0.0000 0.0000 0.0000
# 3 29.2917 20.2313 82.4329 0.0000 0.0000 0.0000
# 4 0.0000 0.0000 0.0000 31.4947 0.0000 0.0000
# 5 0.0000 0.0000 0.0000 0.0000 35.2069 0.0000
# 6 0.0000 0.0000 0.0000 0.0000 0.0000 24.6173
#
#
#
# Elastic Compliance Matrix: (Units=1/GPa)
#
#
# Indices 1 2 3 4 5 6 
#
# 1 0.008672 -0.002402 -0.002492 0.000000 0.000000 0.000000
# 2 -0.002402 0.013121 -0.002367 0.000000 0.000000 0.000000
# 3 -0.002492 -0.002367 0.013598 0.000000 0.000000 0.000000
# 4 0.000000 0.000000 0.000000 0.031751 0.000000 0.000000
# 5 0.000000 0.000000 0.000000 0.000000 0.028404 0.000000
# 6 0.000000 0.000000 0.000000 0.000000 0.000000 0.040622
#
#
# Mechanical properties :
#
#
# Convention : Reuss Voigt Hill
#
# Bulk Modulus (GPa) = 47.91662 50.82729 49.37195
# Shear Modulus (GPa) = 31.71664 32.97112 32.34388
#
# Velocity S-wave (km/s) = 3.79422 3.86853 3.83156
# Velocity P-wave (km/s) = 6.39876 6.55930 6.47953
#
# Compressibility (1/GPa) = 0.02086959
#
# Stress axis : x y z
#
# Youngs Moduli (GPa) = 115.30982 76.21178 73.54266
#
# Poissons Ratio (x) = 0.18304 0.18328
# Poissons Ratio (y) = 0.27694 0.17407
# Poissons Ratio (z) = 0.28737 0.18039
#
# Static dielectric constant tensor:
#      x y z
#    x 1.821650 0.000000 0.000000 
#    y 0.000000 1.848680 0.000000 
#    z 0.000000 0.000000 1.987510 
# 
# From -- ./inp_files/13291.got.cif
#   From: 2010.05.17/outbox.cif.g08.bks.cpg/sg20_7_cif.got.tgz:13291.got - 2010.06.03 22:52:26.
