data_PCOD9321767
_publ_section_title
;
Structure prediction by ZEFSAII (Michael W. Deem and Ramdas Pophale) SiO2 
 PCOD9321767
Probable space group: C 2 2 21
;
_chemical_formula_sum "Si O2"
_cell_formula_units_Z 16
_cell_length_a 6.890922
_cell_length_b 11.363657
_cell_length_c 9.194195
_cell_angle_alpha 90.000000
_cell_angle_beta 90.000000
_cell_angle_gamma 90.000000
_cell_volume 719.961314
_symmetry_space_group_name_H-M "C 2 2 21"
_symmetry_group_IT_number 20
_symmetry_cell_setting 'orthorhombic'
loop_
_space_group_symop_operation_xyz
x,y,z
-x,-y,1/2+z
x,-y,-z
-x,y,1/2-z
1/2+x,1/2+y,z
1/2-x,1/2-y,1/2+z
1/2+x,1/2-y,-z
1/2-x,1/2+y,1/2-z
loop_
_atom_site_type_symbol
_atom_site_label
_atom_site_fract_x
_atom_site_fract_y
_atom_site_fract_z
Si Si1 0.567305 0.368092 0.025633
Si Si2 0.691079 0.825517 0.196344
O O1 0.345796 0.377417 0.082233
O O2 0.684801 0.308276 0.157750
O O3 0.639963 0.500000 0.000000
O O4 0.606016 0.289021 0.885049
O O5 0.500000 0.895816 0.250000
#
# Coordination Sequence:
#
# PCOD9321767 Si02
#       2
#     8   8
#     4  11  26  46  70 105 145 184 235 290 349 418
#     4  11  24  46  69 103 144 179 237 291 337 425
#
# _framework density 22.223417000000001
#
# number of rings (size 3 to 8) (size 9 to 14) (size 15 to 20)
#    0.000    1.000    5.000    0.000    7.000    2.000 
#    9.000    0.000    0.000    0.000    0.000    0.000 
#    0.000    0.000    0.000    0.000    0.000    0.000 
#
# Total GULP energy -44591.156207 kJ/mol
# GULP energy per Si atom -5573.894526 kJ/mol
# Density = 2.217284 g / cm^3
# Si number density = 22.223417 Si / 1000 Ang^3
#
#
#
# Elastic Constant Matrix: (Units=GPa)
#
#
# Indices 1 2 3 4 5 6 
#
# 1 149.9044 21.9183 54.1897 0.0000 0.0000 0.0000
# 2 21.9183 57.8402 63.6600 0.0000 0.0000 0.0000
# 3 54.1897 63.6600 168.9994 0.0000 0.0000 0.0000
# 4 0.0000 0.0000 0.0000 4.9300 0.0000 0.0000
# 5 0.0000 0.0000 0.0000 0.0000 59.8798 0.0000
# 6 0.0000 0.0000 0.0000 0.0000 0.0000 8.0203
#
#
#
# Elastic Compliance Matrix: (Units=1/GPa)
#
#
# Indices 1 2 3 4 5 6 
#
# 1 0.007549 -0.000336 -0.002294 0.000000 0.000000 0.000000
# 2 -0.000336 0.029548 -0.011023 0.000000 0.000000 0.000000
# 3 -0.002294 -0.011023 0.010805 0.000000 0.000000 0.000000
# 4 0.000000 0.000000 0.000000 0.202840 0.000000 0.000000
# 5 0.000000 0.000000 0.000000 0.000000 0.016700 0.000000
# 6 0.000000 0.000000 0.000000 0.000000 0.000000 0.124684
#
#
# Mechanical properties :
#
#
# Convention : Reuss Voigt Hill
#
# Bulk Modulus (GPa) = 48.55081 72.92000 60.73540
# Shear Modulus (GPa) = 11.72890 30.36443 21.04666
#
# Velocity S-wave (km/s) = 2.29982 3.70039 3.08075
# Velocity P-wave (km/s) = 5.38018 7.15127 6.32800
#
# Compressibility (1/GPa) = 0.02059698
#
# Stress axis : x y z
#
# Youngs Moduli (GPa) = 132.46152 33.84319 92.55009
#
# Poissons Ratio (x) = 0.01136 0.21233
# Poissons Ratio (y) = 0.04447 1.02016
# Poissons Ratio (z) = 0.30390 0.37304
#
# Static dielectric constant tensor:
#      x y z
#    x 1.920120 0.000000 0.000000 
#    y 0.000000 1.730570 0.000000 
#    z 0.000000 0.000000 1.817970 
# 
# From -- ./inp_files/5305.got.cif
#   From: 2010.05.17/outbox.cif.g08.bks.cpg/sg20_3_cif.got.tgz:5305.got - 2010.06.03 22:52:26.
