data_PCOD9321257
_publ_section_title
;
Structure prediction by ZEFSAII (Michael W. Deem and Ramdas Pophale) SiO2 
 PCOD9321257
Probable space group: C 2 2 21
;
_chemical_formula_sum "Si O2"
_cell_formula_units_Z 36
_cell_length_a 20.475203
_cell_length_b 12.469082
_cell_length_c 7.308151
_cell_angle_alpha 90.000000
_cell_angle_beta 90.000000
_cell_angle_gamma 90.000000
_cell_volume 1865.821999
_symmetry_space_group_name_H-M "C 2 2 21"
_symmetry_group_IT_number 20
_symmetry_cell_setting 'orthorhombic'
loop_
_space_group_symop_operation_xyz
x,y,z
-x,-y,1/2+z
x,-y,-z
-x,y,1/2-z
1/2+x,1/2+y,z
1/2-x,1/2-y,1/2+z
1/2+x,1/2-y,-z
1/2-x,1/2+y,1/2-z
loop_
_atom_site_type_symbol
_atom_site_label
_atom_site_fract_x
_atom_site_fract_y
_atom_site_fract_z
Si Si1 0.239364 0.400836 0.140259
Si Si2 0.243200 0.000000 0.000000
Si Si3 0.018757 0.874645 0.965272
Si Si4 0.878791 0.128780 0.969868
Si Si5 0.654279 0.696704 0.123179
O O1 0.217654 0.446078 0.335867
O O2 0.194814 0.302743 0.080246
O O3 0.238906 0.500000 0.000000
O O4 0.314942 0.360308 0.156381
O O5 0.197532 0.907774 0.916715
O O6 0.085938 0.810942 0.983986
O O7 0.000000 0.867085 0.750000
O O8 0.953551 0.841186 0.075801
O O9 0.033515 0.000000 0.000000
O O10 0.860599 0.187108 0.159657
O O11 0.884441 0.000000 0.000000
#
# Coordination Sequence:
#
# PCOD9321257 Si02
#       5
#     8   4   8   8   8
#     4  11  23  39  56  88 121 154 199 243 286 356
#     4  12  22  34  58  86 118 156 190 232 310 340
#     4   9  18  30  55  85 115 149 183 240 309 348
#     4   9  17  36  53  83 120 143 185 250 292 340
#     4  11  20  35  57  89 120 153 192 238 297 361
#
# _framework density 19.294446000000001
#
# number of rings (size 3 to 8) (size 9 to 14) (size 15 to 20)
#    0.000    1.778    5.556    1.333    0.000    0.000 
#    0.000    0.000    0.000    0.000   46.222    0.000 
#    0.000    0.000    0.000    0.000    0.000    0.000 
#
# Total GULP energy -100437.964695 kJ/mol
# GULP energy per Si atom -5579.886928 kJ/mol
# Density = 1.925053 g / cm^3
# Si number density = 19.294446 Si / 1000 Ang^3
#
#
#
# Elastic Constant Matrix: (Units=GPa)
#
#
# Indices 1 2 3 4 5 6 
#
# 1 122.6007 67.8342 11.0526 0.0000 0.0000 0.0000
# 2 67.8342 91.4061 12.2905 0.0000 0.0000 0.0000
# 3 11.0526 12.2905 44.0050 0.0000 0.0000 0.0000
# 4 0.0000 0.0000 0.0000 23.2920 0.0000 0.0000
# 5 0.0000 0.0000 0.0000 0.0000 15.0710 0.0000
# 6 0.0000 0.0000 0.0000 0.0000 0.0000 40.8657
#
#
#
# Elastic Compliance Matrix: (Units=1/GPa)
#
#
# Indices 1 2 3 4 5 6 
#
# 1 0.013856 -0.010198 -0.000632 0.000000 0.000000 0.000000
# 2 -0.010198 0.018872 -0.002710 0.000000 0.000000 0.000000
# 3 -0.000632 -0.002710 0.023640 0.000000 0.000000 0.000000
# 4 0.000000 0.000000 0.000000 0.042933 0.000000 0.000000
# 5 0.000000 0.000000 0.000000 0.000000 0.066353 0.000000
# 6 0.000000 0.000000 0.000000 0.000000 0.000000 0.024470
#
#
# Mechanical properties :
#
#
# Convention : Reuss Voigt Hill
#
# Bulk Modulus (GPa) = 34.14155 48.92960 41.53558
# Shear Modulus (GPa) = 22.02965 26.96803 24.49884
#
# Velocity S-wave (km/s) = 3.38266 3.74265 3.56720
# Velocity P-wave (km/s) = 5.74369 6.64011 6.20810
#
# Compressibility (1/GPa) = 0.02928982
#
# Stress axis : x y z
#
# Youngs Moduli (GPa) = 72.17162 52.98728 42.30075
#
# Poissons Ratio (x) = 0.54035 0.02673
# Poissons Ratio (y) = 0.73599 0.11462
# Poissons Ratio (z) = 0.04561 0.14358
#
# Static dielectric constant tensor:
#      x y z
#    x 1.712320 0.000000 0.000000 
#    y 0.000000 1.635250 0.000000 
#    z 0.000000 0.000000 1.802840 
# 
# From -- ./inp_files/7168.got.cif
#   From: 2010.05.17/outbox.cif.g08.bks.cpg/sg20_4_cif.got.tgz:7168.got - 2010.06.03 22:52:26.
