data_PCOD9321639
_publ_section_title
;
Structure prediction by ZEFSAII (Michael W. Deem and Ramdas Pophale) SiO2 
 PCOD9321639
Probable space group: C 2 2 21
;
_chemical_formula_sum "Si O2"
_cell_formula_units_Z 36
_cell_length_a 9.186965
_cell_length_b 8.742689
_cell_length_c 20.946891
_cell_angle_alpha 90.000000
_cell_angle_beta 90.000000
_cell_angle_gamma 90.000000
_cell_volume 1682.428685
_symmetry_space_group_name_H-M "C 2 2 21"
_symmetry_group_IT_number 20
_symmetry_cell_setting 'orthorhombic'
loop_
_space_group_symop_operation_xyz
x,y,z
-x,-y,1/2+z
x,-y,-z
-x,y,1/2-z
1/2+x,1/2+y,z
1/2-x,1/2-y,1/2+z
1/2+x,1/2-y,-z
1/2-x,1/2+y,1/2-z
loop_
_atom_site_type_symbol
_atom_site_label
_atom_site_fract_x
_atom_site_fract_y
_atom_site_fract_z
Si Si1 0.163908 0.672005 0.868305
Si Si2 0.533402 0.251529 0.317115
Si Si3 0.844464 0.658962 0.425829
Si Si4 0.985609 0.833647 0.968511
Si Si5 0.000000 0.547257 0.750000
O O1 0.335612 0.684737 0.858071
O O2 0.139481 0.519651 0.910067
O O3 0.095308 0.645611 0.798301
O O4 0.087500 0.808455 0.906610
O O5 0.500000 0.333006 0.250000
O O6 0.389318 0.239659 0.359512
O O7 0.580802 0.078640 0.295026
O O8 0.681401 0.692399 0.448656
O O9 0.957538 0.715896 0.478431
O O10 0.999542 0.000000 0.000000
#
# Coordination Sequence:
#
# PCOD9321639 Si02
#       5
#     8   8   8   8   4
#     4  11  23  45  69 100 138 175 226 280 336 404
#     4   9  21  44  67 100 136 174 219 277 339 400
#     4  11  24  46  65 100 136 176 228 280 335 403
#     4  12  26  42  69 101 132 181 226 279 340 396
#     4   8  22  38  66 100 138 176 216 278 338 400
#
# _framework density 21.397639999999999
#
# number of rings (size 3 to 8) (size 9 to 14) (size 15 to 20)
#    0.667    0.889    0.000    4.667    3.111    5.333 
#    4.000    1.111    0.000    0.000    0.000    0.000 
#    0.000    0.000    0.000    0.000    0.000    0.000 
#
# Total GULP energy -100487.434470 kJ/mol
# GULP energy per Si atom -5582.635248 kJ/mol
# Density = 2.134894 g / cm^3
# Si number density = 21.397640 Si / 1000 Ang^3
#
#
#
# Elastic Constant Matrix: (Units=GPa)
#
#
# Indices 1 2 3 4 5 6 
#
# 1 115.4993 52.0235 66.1135 0.0000 0.0000 0.0000
# 2 52.0235 61.6478 46.5701 0.0000 0.0000 0.0000
# 3 66.1135 46.5701 123.6699 0.0000 0.0000 0.0000
# 4 0.0000 0.0000 0.0000 21.0613 0.0000 0.0000
# 5 0.0000 0.0000 0.0000 0.0000 43.8966 0.0000
# 6 0.0000 0.0000 0.0000 0.0000 0.0000 18.8582
#
#
#
# Elastic Compliance Matrix: (Units=1/GPa)
#
#
# Indices 1 2 3 4 5 6 
#
# 1 0.015755 -0.009689 -0.004774 0.000000 0.000000 0.000000
# 2 -0.009689 0.028629 -0.005601 0.000000 0.000000 0.000000
# 3 -0.004774 -0.005601 0.012747 0.000000 0.000000 0.000000
# 4 0.000000 0.000000 0.000000 0.047480 0.000000 0.000000
# 5 0.000000 0.000000 0.000000 0.000000 0.022781 0.000000
# 6 0.000000 0.000000 0.000000 0.000000 0.000000 0.053027
#
#
# Mechanical properties :
#
#
# Convention : Reuss Voigt Hill
#
# Bulk Modulus (GPa) = 58.81270 70.02568 64.41919
# Shear Modulus (GPa) = 22.10291 25.83722 23.97007
#
# Velocity S-wave (km/s) = 3.21746 3.47865 3.35060
# Velocity P-wave (km/s) = 6.43024 6.99511 6.71862
#
# Compressibility (1/GPa) = 0.01700313
#
# Stress axis : x y z
#
# Youngs Moduli (GPa) = 63.47251 34.93019 78.44782
#
# Poissons Ratio (x) = 0.33843 0.37451
# Poissons Ratio (y) = 0.61498 0.43938
# Poissons Ratio (z) = 0.30302 0.19564
#
# Static dielectric constant tensor:
#      x y z
#    x 1.746480 0.000000 0.000000 
#    y 0.000000 1.793420 0.000000 
#    z 0.000000 0.000000 1.822140 
# 
# From -- ./inp_files/26385.got.cif
#   From: 2010.05.17/outbox.cif.g08.bks.cpg/sg20_14_cif.got.tgz:26385.got - 2010.06.03 22:52:26.
