data_PCOD9321201
_publ_section_title
;
Structure prediction by ZEFSAII (Michael W. Deem and Ramdas Pophale) SiO2 
 PCOD9321201
Probable space group: C 2 2 21
;
_chemical_formula_sum "Si O2"
_cell_formula_units_Z 40
_cell_length_a 26.214838
_cell_length_b 12.042263
_cell_length_c 5.854208
_cell_angle_alpha 90.000000
_cell_angle_beta 90.000000
_cell_angle_gamma 90.000000
_cell_volume 1848.091353
_symmetry_space_group_name_H-M "C 2 2 21"
_symmetry_group_IT_number 20
_symmetry_cell_setting 'orthorhombic'
loop_
_space_group_symop_operation_xyz
x,y,z
-x,-y,1/2+z
x,-y,-z
-x,y,1/2-z
1/2+x,1/2+y,z
1/2-x,1/2-y,1/2+z
1/2+x,1/2-y,-z
1/2-x,1/2+y,1/2-z
loop_
_atom_site_type_symbol
_atom_site_label
_atom_site_fract_x
_atom_site_fract_y
_atom_site_fract_z
Si Si1 0.000000 0.434883 0.250000
Si Si2 0.846161 0.385985 0.521128
Si Si3 0.915388 0.755010 0.764539
Si Si4 0.820396 0.761841 0.086941
Si Si5 0.753798 0.604830 0.832281
Si Si6 0.000000 0.060520 0.250000
O O1 0.952343 0.351327 0.200301
O O2 0.994503 0.500000 0.500000
O O3 0.876953 0.500000 0.500000
O O4 0.879941 0.282188 0.444739
O O5 0.828202 0.350047 0.767048
O O6 0.799204 0.409045 0.350600
O O7 0.950780 0.860136 0.729052
O O8 0.873350 0.777533 0.958404
O O9 0.800723 0.868857 0.221069
O O10 0.771619 0.723206 0.938350
O O11 0.750574 0.500000 0.000000
O O12 0.003937 0.000000 0.500000
#
# Coordination Sequence:
#
# PCOD9321201 Si02
#       6
#     4   8   8   8   8   4
#     4  11  26  45  76 114 148 179 226 303 390 458
#     4  11  22  39  70  99 146 185 234 293 369 429
#     4  10  27  44  73 108 138 184 244 301 364 441
#     4  11  23  41  66 100 147 188 243 296 354 433
#     4  11  22  40  63  98 142 201 238 292 354 423
#     4  11  28  57  82 100 144 195 244 307 374 428
#
# _framework density 21.643951000000001
#
# number of rings (size 3 to 8) (size 9 to 14) (size 15 to 20)
#    0.000    1.200    4.000    0.600    8.400    1.600 
#    3.600    0.000    0.000    0.000    0.000    0.000 
#    0.000    0.000    0.000    0.000    0.000    0.000 
#
# Total GULP energy -111405.554498 kJ/mol
# GULP energy per Si atom -5570.277725 kJ/mol
# Density = 2.159469 g / cm^3
# Si number density = 21.643951 Si / 1000 Ang^3
#
#
#
# Elastic Constant Matrix: (Units=GPa)
#
#
# Indices 1 2 3 4 5 6 
#
# 1 124.9230 51.8249 38.3076 0.0000 0.0000 0.0000
# 2 51.8249 102.5120 47.2654 0.0000 0.0000 0.0000
# 3 38.3076 47.2654 80.4219 0.0000 0.0000 0.0000
# 4 0.0000 0.0000 0.0000 40.3759 0.0000 0.0000
# 5 0.0000 0.0000 0.0000 0.0000 12.0760 0.0000
# 6 0.0000 0.0000 0.0000 0.0000 0.0000 30.3517
#
#
#
# Elastic Compliance Matrix: (Units=1/GPa)
#
#
# Indices 1 2 3 4 5 6 
#
# 1 0.010506 -0.004121 -0.002583 0.000000 0.000000 0.000000
# 2 -0.004121 0.014997 -0.006851 0.000000 0.000000 0.000000
# 3 -0.002583 -0.006851 0.017691 0.000000 0.000000 0.000000
# 4 0.000000 0.000000 0.000000 0.024767 0.000000 0.000000
# 5 0.000000 0.000000 0.000000 0.000000 0.082809 0.000000
# 6 0.000000 0.000000 0.000000 0.000000 0.000000 0.032947
#
#
# Mechanical properties :
#
#
# Convention : Reuss Voigt Hill
#
# Bulk Modulus (GPa) = 62.16809 64.73918 63.45363
# Shear Modulus (GPa) = 23.12790 27.92467 25.52629
#
# Velocity S-wave (km/s) = 3.27243 3.59581 3.43793
# Velocity P-wave (km/s) = 6.56231 6.87137 6.71861
#
# Compressibility (1/GPa) = 0.01608542
#
# Stress axis : x y z
#
# Youngs Moduli (GPa) = 95.18002 66.67967 56.52505
#
# Poissons Ratio (x) = 0.27477 0.14599
# Poissons Ratio (y) = 0.39221 0.38727
# Poissons Ratio (z) = 0.24583 0.45684
#
# Static dielectric constant tensor:
#      x y z
#    x 1.785430 0.000000 0.000000 
#    y 0.000000 1.839580 0.000000 
#    z 0.000000 0.000000 1.891890 
# 
# From -- ./inp_files/4077.got.cif
#   From: 2010.05.17/outbox.cif.g08.bks.cpg/sg20_3_cif.got.tgz:4077.got - 2010.06.03 22:52:26.
