data_PCOD9321473
_publ_section_title
;
Structure prediction by ZEFSAII (Michael W. Deem and Ramdas Pophale) SiO2 
 PCOD9321473
Probable space group: C 2 2 21
;
_chemical_formula_sum "Si O2"
_cell_formula_units_Z 48
_cell_length_a 33.280063
_cell_length_b 8.035807
_cell_length_c 7.991081
_cell_angle_alpha 90.000000
_cell_angle_beta 90.000000
_cell_angle_gamma 90.000000
_cell_volume 2137.072078
_symmetry_space_group_name_H-M "C 2 2 21"
_symmetry_group_IT_number 20
_symmetry_cell_setting 'orthorhombic'
loop_
_space_group_symop_operation_xyz
x,y,z
-x,-y,1/2+z
x,-y,-z
-x,y,1/2-z
1/2+x,1/2+y,z
1/2-x,1/2-y,1/2+z
1/2+x,1/2-y,-z
1/2-x,1/2+y,1/2-z
loop_
_atom_site_type_symbol
_atom_site_label
_atom_site_fract_x
_atom_site_fract_y
_atom_site_fract_z
Si Si1 0.408468 0.551590 0.171411
Si Si2 0.524556 0.833632 0.418475
Si Si3 0.834429 0.186579 0.354883
Si Si4 0.701181 0.675157 0.808036
Si Si5 0.211608 0.687299 0.556441
Si Si6 0.465297 0.369934 0.360849
O O1 0.442853 0.688450 0.122485
O O2 0.378951 0.629607 0.306621
O O3 0.427400 0.377584 0.240254
O O4 0.386815 0.500000 0.000000
O O5 0.500000 0.870913 0.250000
O O6 0.489806 0.775681 0.550528
O O7 0.543140 0.000000 0.500000
O O8 0.828918 0.242634 0.546641
O O9 0.819257 0.308089 0.210489
O O10 0.806352 0.023087 0.324996
O O11 0.744745 0.737268 0.871208
O O12 0.698046 0.717441 0.611935
O O13 0.216685 0.500000 0.500000
O O14 0.453533 0.500000 0.500000
O O15 0.500000 0.452915 0.250000
#
# Coordination Sequence:
#
# PCOD9321473 Si02
#       6
#     8   8   8   8   8   8
#     4  12  24  43  70 101 138 179 231 289 341 410
#     4  12  25  41  68 103 137 179 226 284 347 411
#     4  11  26  43  65 104 137 178 231 286 349 405
#     4  11  22  42  67 100 129 177 233 286 335 410
#     4  12  22  41  69  96 135 177 232 284 339 418
#     4  12  19  40  68  98 128 173 236 279 334 407
#
# _framework density 22.460637999999999
#
# number of rings (size 3 to 8) (size 9 to 14) (size 15 to 20)
#    0.000    0.333    8.333    2.000    2.333    1.333 
#    0.000    0.000    3.667    0.000    0.000    0.000 
#    0.000    0.000    0.000    0.000    0.000    0.000 
#
# Total GULP energy -133792.095025 kJ/mol
# GULP energy per Si atom -5574.670626 kJ/mol
# Density = 2.240952 g / cm^3
# Si number density = 22.460638 Si / 1000 Ang^3
#
#
#
# Elastic Constant Matrix: (Units=GPa)
#
#
# Indices 1 2 3 4 5 6 
#
# 1 80.0514 9.6590 35.1440 0.0000 0.0000 0.0000
# 2 9.6590 45.3946 8.0164 0.0000 0.0000 0.0000
# 3 35.1440 8.0164 103.9714 0.0000 0.0000 0.0000
# 4 0.0000 0.0000 0.0000 34.9806 0.0000 0.0000
# 5 0.0000 0.0000 0.0000 0.0000 35.7263 0.0000
# 6 0.0000 0.0000 0.0000 0.0000 0.0000 24.4280
#
#
#
# Elastic Compliance Matrix: (Units=1/GPa)
#
#
# Indices 1 2 3 4 5 6 
#
# 1 0.014905 -0.002313 -0.004860 0.000000 0.000000 0.000000
# 2 -0.002313 0.022692 -0.000968 0.000000 0.000000 0.000000
# 3 -0.004860 -0.000968 0.011335 0.000000 0.000000 0.000000
# 4 0.000000 0.000000 0.000000 0.028587 0.000000 0.000000
# 5 0.000000 0.000000 0.000000 0.000000 0.027991 0.000000
# 6 0.000000 0.000000 0.000000 0.000000 0.000000 0.040937
#
#
# Mechanical properties :
#
#
# Convention : Reuss Voigt Hill
#
# Bulk Modulus (GPa) = 30.62701 37.22846 33.92773
# Shear Modulus (GPa) = 28.80000 30.80019 29.80009
#
# Velocity S-wave (km/s) = 3.58473 3.70712 3.64644
# Velocity P-wave (km/s) = 5.54970 5.91055 5.73296
#
# Compressibility (1/GPa) = 0.03265092
#
# Stress axis : x y z
#
# Youngs Moduli (GPa) = 67.09362 44.06810 88.22015
#
# Poissons Ratio (x) = 0.10194 0.42872
# Poissons Ratio (y) = 0.15520 0.08537
# Poissons Ratio (z) = 0.32605 0.04265
#
# Static dielectric constant tensor:
#      x y z
#    x 1.847230 0.000000 0.000000 
#    y 0.000000 1.837220 0.000000 
#    z 0.000000 0.000000 1.858480 
# 
# From -- ./inp_files/11457.got.cif
#   From: 2010.05.17/outbox.cif.g08.bks.cpg/sg20_6_cif.got.tgz:11457.got - 2010.06.03 22:52:26.
