data_PCOD9321947
_publ_section_title
;
Structure prediction by ZEFSAII (Michael W. Deem and Ramdas Pophale) SiO2 
 PCOD9321947
Probable space group: C 2 2 21
;
_chemical_formula_sum "Si O2"
_cell_formula_units_Z 32
_cell_length_a 24.417108
_cell_length_b 6.862005
_cell_length_c 6.843006
_cell_angle_alpha 90.000000
_cell_angle_beta 90.000000
_cell_angle_gamma 90.000000
_cell_volume 1146.547826
_symmetry_space_group_name_H-M "C 2 2 21"
_symmetry_group_IT_number 20
_symmetry_cell_setting 'orthorhombic'
loop_
_space_group_symop_operation_xyz
x,y,z
-x,-y,1/2+z
x,-y,-z
-x,y,1/2-z
1/2+x,1/2+y,z
1/2-x,1/2-y,1/2+z
1/2+x,1/2-y,-z
1/2-x,1/2+y,1/2-z
loop_
_atom_site_type_symbol
_atom_site_label
_atom_site_fract_x
_atom_site_fract_y
_atom_site_fract_z
Si Si1 0.266578 0.000000 0.500000
Si Si2 0.439728 0.878833 0.341492
Si Si3 0.440622 0.623531 0.644946
Si Si4 0.858722 0.500000 0.000000
Si Si5 0.682885 0.318502 0.236996
O O1 0.302753 0.807622 0.543866
O O2 0.227971 0.968035 0.311745
O O3 0.500000 0.894880 0.250000
O O4 0.443292 0.628478 0.395687
O O5 0.433389 0.126931 0.406437
O O6 0.395664 0.894713 0.164860
O O7 0.500000 0.638982 0.750000
O O8 0.378833 0.604382 0.730342
O O9 0.820599 0.340461 0.905822
#
# Coordination Sequence:
#
# PCOD9321947 Si02
#       5
#     4   8   8   4   8
#     4  12  30  52  83 114 159 210 276 334 392 468
#     4  12  22  42  69 110 154 201 253 305 384 478
#     4  12  28  47  76 115 164 205 256 326 405 479
#     4  12  24  44  77 110 153 198 258 328 392 462
#     4  12  28  50  81 115 157 209 266 333 396 472
#
# _framework density 27.909872
#
# number of rings (size 3 to 8) (size 9 to 14) (size 15 to 20)
#    0.000    0.000    3.750    6.000    8.750    0.000 
#    0.000    0.000    0.000    0.000    0.000    0.000 
#    0.000    0.000    0.000    0.000    0.000    0.000 
#
# Total GULP energy -89541.723735 kJ/mol
# GULP energy per Si atom -5596.357733 kJ/mol
# Density = 2.784635 g / cm^3
# Si number density = 27.909872 Si / 1000 Ang^3
#
#
#
# Elastic Constant Matrix: (Units=GPa)
#
#
# Indices 1 2 3 4 5 6 
#
# 1 193.0293 51.9959 67.9477 0.0000 0.0000 0.0000
# 2 51.9959 198.9131 59.0952 0.0000 0.0000 0.0000
# 3 67.9477 59.0952 118.6198 0.0000 0.0000 0.0000
# 4 0.0000 0.0000 0.0000 91.3997 0.0000 0.0000
# 5 0.0000 0.0000 0.0000 0.0000 52.9950 0.0000
# 6 0.0000 0.0000 0.0000 0.0000 0.0000 42.7328
#
#
#
# Elastic Compliance Matrix: (Units=1/GPa)
#
#
# Indices 1 2 3 4 5 6 
#
# 1 0.006572 -0.000704 -0.003414 0.000000 0.000000 0.000000
# 2 -0.000704 0.005976 -0.002574 0.000000 0.000000 0.000000
# 3 -0.003414 -0.002574 0.011668 0.000000 0.000000 0.000000
# 4 0.000000 0.000000 0.000000 0.010941 0.000000 0.000000
# 5 0.000000 0.000000 0.000000 0.000000 0.018870 0.000000
# 6 0.000000 0.000000 0.000000 0.000000 0.000000 0.023401
#
#
# Mechanical properties :
#
#
# Convention : Reuss Voigt Hill
#
# Bulk Modulus (GPa) = 92.31297 96.51554 94.41426
# Shear Modulus (GPa) = 52.95364 59.52708 56.24036
#
# Velocity S-wave (km/s) = 4.36054 4.62327 4.49382
# Velocity P-wave (km/s) = 7.64850 7.94706 7.79921
#
# Compressibility (1/GPa) = 0.01083271
#
# Stress axis : x y z
#
# Youngs Moduli (GPa) = 152.16478 167.33603 85.70256
#
# Poissons Ratio (x) = 0.11774 0.29258
# Poissons Ratio (y) = 0.10707 0.22061
# Poissons Ratio (z) = 0.51948 0.43074
#
# Static dielectric constant tensor:
#      x y z
#    x 2.031250 0.000000 0.000000 
#    y 0.000000 2.510090 0.000000 
#    z 0.000000 0.000000 2.227010 
# 
# From -- ./inp_files/9835.got.cif
#   From: 2010.05.17/outbox.cif.g08.bks.cpg/sg20_5_cif.got.tgz:9835.got - 2010.06.03 22:52:26.
