data_PCOD9321075
_publ_section_title
;
Structure prediction by ZEFSAII (Michael W. Deem and Ramdas Pophale) SiO2 
 PCOD9321075
Probable space group: C 2 2 21
;
_chemical_formula_sum "Si O2"
_cell_formula_units_Z 40
_cell_length_a 16.419317
_cell_length_b 9.111412
_cell_length_c 11.871242
_cell_angle_alpha 90.000000
_cell_angle_beta 90.000000
_cell_angle_gamma 90.000000
_cell_volume 1775.975339
_symmetry_space_group_name_H-M "C 2 2 21"
_symmetry_group_IT_number 20
_symmetry_cell_setting 'orthorhombic'
loop_
_space_group_symop_operation_xyz
x,y,z
-x,-y,1/2+z
x,-y,-z
-x,y,1/2-z
1/2+x,1/2+y,z
1/2-x,1/2-y,1/2+z
1/2+x,1/2-y,-z
1/2-x,1/2+y,1/2-z
loop_
_atom_site_type_symbol
_atom_site_label
_atom_site_fract_x
_atom_site_fract_y
_atom_site_fract_z
Si Si1 0.442021 0.408997 0.095547
Si Si2 0.878319 0.126006 0.289976
Si Si3 0.000000 0.345717 0.750000
Si Si4 0.466980 0.091228 0.609548
Si Si5 0.784404 0.000000 0.500000
Si Si6 0.850124 0.721170 0.923876
O O1 0.421211 0.512342 0.201882
O O2 0.479538 0.261905 0.148135
O O3 0.491758 0.500000 0.000000
O O4 0.370513 0.346135 0.016083
O O5 0.930733 0.253156 0.351893
O O6 0.825872 0.214964 0.197944
O O7 0.834629 0.037983 0.388134
O O8 0.060817 0.469123 0.797539
O O9 0.563984 0.131314 0.592321
O O10 0.442023 0.000000 0.500000
O O11 0.723716 0.868773 0.471908
#
# Coordination Sequence:
#
# PCOD9321075 Si02
#       6
#     8   8   4   8   4   8
#     4  10  25  43  71 106 145 195 241 305 376 444
#     4  11  28  47  72 112 149 186 255 314 365 440
#     4  12  22  36  76 102 142 190 242 304 372 430
#     4  12  24  46  72 110 142 195 251 305 360 446
#     4  12  28  48  78 110 148 196 246 308 374 446
#     4  11  23  51  76  98 150 199 243 294 380 447
#
# _framework density 22.522835000000001
#
# number of rings (size 3 to 8) (size 9 to 14) (size 15 to 20)
#    0.000    0.800    5.000    0.000   11.200    0.000 
#    3.600    0.000    0.000    0.000    0.000    0.000 
#    0.000    0.000    0.000    0.000    0.000    0.000 
#
# Total GULP energy -111351.874157 kJ/mol
# GULP energy per Si atom -5567.593708 kJ/mol
# Density = 2.247157 g / cm^3
# Si number density = 22.522835 Si / 1000 Ang^3
#
#
#
# Elastic Constant Matrix: (Units=GPa)
#
#
# Indices 1 2 3 4 5 6 
#
# 1 47.7624 43.9971 55.1655 0.0000 0.0000 0.0000
# 2 43.9971 178.2142 89.9256 0.0000 0.0000 0.0000
# 3 55.1655 89.9256 194.2481 0.0000 0.0000 0.0000
# 4 0.0000 0.0000 0.0000 81.1747 0.0000 0.0000
# 5 0.0000 0.0000 0.0000 0.0000 6.1986 0.0000
# 6 0.0000 0.0000 0.0000 0.0000 0.0000 23.7081
#
#
#
# Elastic Compliance Matrix: (Units=1/GPa)
#
#
# Indices 1 2 3 4 5 6 
#
# 1 0.033783 -0.004566 -0.007480 0.000000 0.000000 0.000000
# 2 -0.004566 0.007939 -0.002378 0.000000 0.000000 0.000000
# 3 -0.007480 -0.002378 0.008374 0.000000 0.000000 0.000000
# 4 0.000000 0.000000 0.000000 0.012319 0.000000 0.000000
# 5 0.000000 0.000000 0.000000 0.000000 0.161327 0.000000
# 6 0.000000 0.000000 0.000000 0.000000 0.000000 0.042180
#
#
# Mechanical properties :
#
#
# Convention : Reuss Voigt Hill
#
# Bulk Modulus (GPa) = 47.06855 88.71122 67.88989
# Shear Modulus (GPa) = 16.56445 37.62537 27.09491
#
# Velocity S-wave (km/s) = 2.71486 4.09166 3.47219
# Velocity P-wave (km/s) = 5.54715 7.86098 6.80315
#
# Compressibility (1/GPa) = 0.02124561
#
# Stress axis : x y z
#
# Youngs Moduli (GPa) = 29.60105 125.96794 119.42330
#
# Poissons Ratio (x) = 0.57512 0.89334
# Poissons Ratio (y) = 0.13515 0.28405
# Poissons Ratio (z) = 0.22143 0.29961
#
# Static dielectric constant tensor:
#      x y z
#    x 1.848920 0.000000 0.000000 
#    y 0.000000 2.039840 0.000000 
#    z 0.000000 0.000000 1.961450 
# 
# From -- ./inp_files/15585.got.cif
#   From: 2010.05.17/outbox.cif.g08.bks.cpg/sg20_8_cif.got.tgz:15585.got - 2010.06.03 22:52:26.
