data_PCOD9321924
_publ_section_title
;
Structure prediction by ZEFSAII (Michael W. Deem and Ramdas Pophale) SiO2 
 PCOD9321924
Probable space group: C 2 2 21
;
_chemical_formula_sum "Si O2"
_cell_formula_units_Z 28
_cell_length_a 5.471412
_cell_length_b 13.599597
_cell_length_c 16.503418
_cell_angle_alpha 90.000000
_cell_angle_beta 90.000000
_cell_angle_gamma 90.000000
_cell_volume 1228.002801
_symmetry_space_group_name_H-M "C 2 2 21"
_symmetry_group_IT_number 20
_symmetry_cell_setting 'orthorhombic'
loop_
_space_group_symop_operation_xyz
x,y,z
-x,-y,1/2+z
x,-y,-z
-x,y,1/2-z
1/2+x,1/2+y,z
1/2-x,1/2-y,1/2+z
1/2+x,1/2-y,-z
1/2-x,1/2+y,1/2-z
loop_
_atom_site_type_symbol
_atom_site_label
_atom_site_fract_x
_atom_site_fract_y
_atom_site_fract_z
Si Si1 0.316133 0.151568 0.589602
Si Si2 0.326822 0.000000 0.000000
Si Si3 0.247507 0.021753 0.298774
Si Si4 0.538314 0.646644 0.426297
O O1 0.751948 0.400133 0.627353
O O2 0.431434 0.255333 0.612415
O O3 0.514790 0.079728 0.547954
O O4 0.217181 0.087152 0.663229
O O5 0.156700 0.059751 0.062037
O O6 0.500000 0.025977 0.250000
O O7 0.000000 0.045243 0.250000
O O8 0.122838 0.828991 0.482225
#
# Coordination Sequence:
#
# PCOD9321924 Si02
#       4
#     8   4   8   8
#     4  12  25  44  77 109 139 192 253 309 359 429
#     4  12  20  44  72 110 144 174 246 314 366 408
#     4  12  28  50  73 105 160 200 232 298 374 448
#     4  12  25  44  77 109 139 192 253 309 359 429
#
# _framework density 22.801251000000001
#
# number of rings (size 3 to 8) (size 9 to 14) (size 15 to 20)
#    0.000    0.000    8.571    1.714    0.000    1.143 
#    0.000    8.571    0.000    0.000    0.000    0.000 
#    0.000    0.000    0.000    0.000    0.000    0.000 
#
# Total GULP energy -78398.725679 kJ/mol
# GULP energy per Si atom -5599.908977 kJ/mol
# Density = 2.274935 g / cm^3
# Si number density = 22.801251 Si / 1000 Ang^3
#
#
#
# Elastic Constant Matrix: (Units=GPa)
#
#
# Indices 1 2 3 4 5 6 
#
# 1 72.9136 9.9088 18.4817 0.0000 0.0000 0.0000
# 2 9.9088 131.1221 2.3957 0.0000 0.0000 0.0000
# 3 18.4817 2.3957 56.4742 0.0000 0.0000 0.0000
# 4 0.0000 0.0000 0.0000 17.1685 0.0000 0.0000
# 5 0.0000 0.0000 0.0000 0.0000 49.7880 0.0000
# 6 0.0000 0.0000 0.0000 0.0000 0.0000 36.3955
#
#
#
# Elastic Compliance Matrix: (Units=1/GPa)
#
#
# Indices 1 2 3 4 5 6 
#
# 1 0.015099 -0.001052 -0.004897 0.000000 0.000000 0.000000
# 2 -0.001052 0.007706 0.000017 0.000000 0.000000 0.000000
# 3 -0.004897 0.000017 0.019309 0.000000 0.000000 0.000000
# 4 0.000000 0.000000 0.000000 0.058246 0.000000 0.000000
# 5 0.000000 0.000000 0.000000 0.000000 0.020085 0.000000
# 6 0.000000 0.000000 0.000000 0.000000 0.000000 0.027476
#
#
# Mechanical properties :
#
#
# Convention : Reuss Voigt Hill
#
# Bulk Modulus (GPa) = 33.05614 35.78695 34.42154
# Shear Modulus (GPa) = 29.43487 35.98531 32.71009
#
# Velocity S-wave (km/s) = 3.59685 3.97699 3.79169
# Velocity P-wave (km/s) = 5.63727 6.06777 5.85647
#
# Compressibility (1/GPa) = 0.03025157
#
# Stress axis : x y z
#
# Youngs Moduli (GPa) = 66.22985 129.77525 51.78951
#
# Poissons Ratio (x) = 0.13647 0.25360
# Poissons Ratio (y) = 0.06964 -0.00089
# Poissons Ratio (z) = 0.32430 -0.00224
#
# Static dielectric constant tensor:
#      x y z
#    x 1.883080 0.000000 0.000000 
#    y 0.000000 1.792020 0.000000 
#    z 0.000000 0.000000 1.947040 
# 
# From -- ./inp_files/25822.got.cif
#   From: 2010.05.17/outbox.cif.g08.bks.cpg/sg20_13_cif.got.tgz:25822.got - 2010.06.03 22:52:26.
