data_PCOD9321012
_publ_section_title
;
Structure prediction by ZEFSAII (Michael W. Deem and Ramdas Pophale) SiO2 
 PCOD9321012
Probable space group: C 2 2 21
;
_chemical_formula_sum "Si O2"
_cell_formula_units_Z 24
_cell_length_a 23.336390
_cell_length_b 8.933514
_cell_length_c 5.170843
_cell_angle_alpha 90.000000
_cell_angle_beta 90.000000
_cell_angle_gamma 90.000000
_cell_volume 1077.996493
_symmetry_space_group_name_H-M "C 2 2 21"
_symmetry_group_IT_number 20
_symmetry_cell_setting 'orthorhombic'
loop_
_space_group_symop_operation_xyz
x,y,z
-x,-y,1/2+z
x,-y,-z
-x,y,1/2-z
1/2+x,1/2+y,z
1/2-x,1/2-y,1/2+z
1/2+x,1/2-y,-z
1/2-x,1/2+y,1/2-z
loop_
_atom_site_type_symbol
_atom_site_label
_atom_site_fract_x
_atom_site_fract_y
_atom_site_fract_z
Si Si1 0.283945 0.602880 0.753349
Si Si2 0.434124 0.395065 0.750743
Si Si3 0.342293 0.168568 0.565916
O O1 0.287066 0.500000 0.500000
O O2 0.325986 0.740073 0.694675
O O3 0.218909 0.659749 0.788023
O O4 0.296755 0.500000 0.000000
O O5 0.426687 0.500000 0.500000
O O6 0.500000 0.340631 0.750000
O O7 0.389594 0.260618 0.720459
O O8 0.426246 0.500000 0.000000
O O9 0.359848 0.000000 0.500000
#
# Coordination Sequence:
#
# PCOD9321012 Si02
#       3
#     8   8   8
#     4  11  25  43  64  98 143 182 214 258 331 410
#     4  10  24  47  71  94 127 177 227 269 327 400
#     4  11  24  42  69 104 135 171 220 279 329 382
#
# _framework density 22.263522999999999
#
# number of rings (size 3 to 8) (size 9 to 14) (size 15 to 20)
#    0.000    1.333    0.000    5.000    0.000   17.333 
#    0.000    6.667    0.000    0.000    0.000    0.000 
#    0.000    0.000    0.000    0.000    0.000    0.000 
#
# Total GULP energy -67276.569779 kJ/mol
# GULP energy per Si atom -5606.380815 kJ/mol
# Density = 2.221285 g / cm^3
# Si number density = 22.263523 Si / 1000 Ang^3
#
#
#
# Elastic Constant Matrix: (Units=GPa)
#
#
# Indices 1 2 3 4 5 6 
#
# 1 182.6184 98.7048 50.1288 0.0000 0.0000 0.0000
# 2 98.7048 197.0157 86.8175 0.0000 0.0000 0.0000
# 3 50.1288 86.8175 182.4967 0.0000 0.0000 0.0000
# 4 0.0000 0.0000 0.0000 26.0451 0.0000 0.0000
# 5 0.0000 0.0000 0.0000 0.0000 -12.6794 0.0000
# 6 0.0000 0.0000 0.0000 0.0000 0.0000 18.2542
#
#
#
# Elastic Compliance Matrix: (Units=1/GPa)
#
#
# Indices 1 2 3 4 5 6 
#
# 1 0.007527 -0.003618 -0.000346 0.000000 0.000000 0.000000
# 2 -0.003618 0.008161 -0.002889 0.000000 0.000000 0.000000
# 3 -0.000346 -0.002889 0.006949 0.000000 0.000000 0.000000
# 4 0.000000 0.000000 0.000000 0.038395 0.000000 0.000000
# 5 0.000000 0.000000 0.000000 0.000000 -0.078868 0.000000
# 6 0.000000 0.000000 0.000000 0.000000 0.000000 0.054782
#
#
# Mechanical properties :
#
#
# Convention : Reuss Voigt Hill
#
# Bulk Modulus (GPa) = 111.97391 114.82587 113.39989
# Shear Modulus (GPa) = 93.23409 28.08931 60.66170
#
# Velocity S-wave (km/s) = 6.47830 3.55586 5.22554
# Velocity P-wave (km/s) = 10.31319 8.27929 9.35170
#
# Compressibility (1/GPa) = 0.00893065
#
# Stress axis : x y z
#
# Youngs Moduli (GPa) = 132.86230 122.52743 143.90897
#
# Poissons Ratio (x) = 0.44334 0.04981
# Poissons Ratio (y) = 0.48073 0.41571
# Poissons Ratio (z) = 0.04599 0.35394
#
# Static dielectric constant tensor:
#      x y z
#    x 1.853690 0.000000 0.000000 
#    y 0.000000 1.852460 0.000000 
#    z 0.000000 0.000000 1.841330 
# 
# From -- ./inp_files/3457.got.cif
#   From: 2010.05.17/outbox.cif.g08.bks.cpg/sg20_2_cif.got.tgz:3457.got - 2010.06.03 22:52:26.
