data_PCOD9321640
_publ_section_title
;
Structure prediction by ZEFSAII (Michael W. Deem and Ramdas Pophale) SiO2 
 PCOD9321640
Probable space group: C 2 2 21
;
_chemical_formula_sum "Si O2"
_cell_formula_units_Z 32
_cell_length_a 6.533170
_cell_length_b 12.192894
_cell_length_c 14.815509
_cell_angle_alpha 90.000000
_cell_angle_beta 90.000000
_cell_angle_gamma 90.000000
_cell_volume 1180.177509
_symmetry_space_group_name_H-M "C 2 2 21"
_symmetry_group_IT_number 20
_symmetry_cell_setting 'orthorhombic'
loop_
_space_group_symop_operation_xyz
x,y,z
-x,-y,1/2+z
x,-y,-z
-x,y,1/2-z
1/2+x,1/2+y,z
1/2-x,1/2-y,1/2+z
1/2+x,1/2-y,-z
1/2-x,1/2+y,1/2-z
loop_
_atom_site_type_symbol
_atom_site_label
_atom_site_fract_x
_atom_site_fract_y
_atom_site_fract_z
Si Si1 0.891540 0.417325 0.164013
Si Si2 0.281600 0.699250 0.923010
Si Si3 0.495253 0.510897 0.142027
Si Si4 0.318792 0.786012 0.625384
O O1 0.737974 0.503761 0.118871
O O2 0.753529 0.311707 0.190328
O O3 0.000000 0.470456 0.250000
O O4 0.070239 0.351681 0.113393
O O5 0.410863 0.586923 0.919434
O O6 0.433662 0.783751 0.871685
O O7 0.226093 0.745624 0.020700
O O8 0.500000 0.489240 0.250000
O O9 0.334566 0.611207 0.135917
#
# Coordination Sequence:
#
# PCOD9321640 Si02
#       4
#     8   8   8   8
#     4  11  23  45  72 103 151 193 244 311 369 440
#     4  11  23  45  69 105 148 192 243 314 365 444
#     4  11  24  44  71 109 146 191 249 307 373 446
#     4  11  24  43  72 107 145 192 253 301 381 441
#
# _framework density 27.114561999999999
#
# number of rings (size 3 to 8) (size 9 to 14) (size 15 to 20)
#    0.000    1.000    5.000    1.500    0.000    2.000 
#    0.000    2.500    0.000    0.000    0.000    0.000 
#    0.000    0.000    0.000    0.000    0.000    0.000 
#
# Total GULP energy -89175.414266 kJ/mol
# GULP energy per Si atom -5573.463392 kJ/mol
# Density = 2.705285 g / cm^3
# Si number density = 27.114562 Si / 1000 Ang^3
#
#
#
# Elastic Constant Matrix: (Units=GPa)
#
#
# Indices 1 2 3 4 5 6 
#
# 1 251.4916 87.2051 41.8143 0.0000 0.0000 0.0000
# 2 87.2051 161.7141 0.5937 0.0000 0.0000 0.0000
# 3 41.8143 0.5937 51.2334 0.0000 0.0000 0.0000
# 4 0.0000 0.0000 0.0000 21.9535 0.0000 0.0000
# 5 0.0000 0.0000 0.0000 0.0000 50.5948 0.0000
# 6 0.0000 0.0000 0.0000 0.0000 0.0000 72.2411
#
#
#
# Elastic Compliance Matrix: (Units=1/GPa)
#
#
# Indices 1 2 3 4 5 6 
#
# 1 0.005853 -0.003139 -0.004740 0.000000 0.000000 0.000000
# 2 -0.003139 0.007867 0.002471 0.000000 0.000000 0.000000
# 3 -0.004740 0.002471 0.023359 0.000000 0.000000 0.000000
# 4 0.000000 0.000000 0.000000 0.045551 0.000000 0.000000
# 5 0.000000 0.000000 0.000000 0.000000 0.019765 0.000000
# 6 0.000000 0.000000 0.000000 0.000000 0.000000 0.013843
#
#
# Mechanical properties :
#
#
# Convention : Reuss Voigt Hill
#
# Bulk Modulus (GPa) = 38.07841 80.40725 59.24283
# Shear Modulus (GPa) = 36.81662 51.27962 44.04812
#
# Velocity S-wave (km/s) = 3.68885 4.35353 4.03490
# Velocity P-wave (km/s) = 5.67605 7.41553 6.60332
#
# Compressibility (1/GPa) = 0.02626160
#
# Stress axis : x y z
#
# Youngs Moduli (GPa) = 170.85821 127.10894 42.81045
#
# Poissons Ratio (x) = 0.39896 0.20294
# Poissons Ratio (y) = 0.53628 -0.10576
# Poissons Ratio (z) = 0.80994 -0.31403
#
# Static dielectric constant tensor:
#      x y z
#    x 2.331960 0.000000 0.000000 
#    y 0.000000 2.143260 0.000000 
#    z 0.000000 0.000000 2.299150 
# 
# From -- ./inp_files/22497.got.cif
#   From: 2010.05.17/outbox.cif.g08.bks.cpg/sg20_12_cif.got.tgz:22497.got - 2010.06.03 22:52:26.
