data_PCOD9321325
_publ_section_title
;
Structure prediction by ZEFSAII (Michael W. Deem and Ramdas Pophale) SiO2 
 PCOD9321325
Probable space group: C 2 2 21
;
_chemical_formula_sum "Si O2"
_cell_formula_units_Z 32
_cell_length_a 4.866317
_cell_length_b 18.300895
_cell_length_c 15.175698
_cell_angle_alpha 90.000000
_cell_angle_beta 90.000000
_cell_angle_gamma 90.000000
_cell_volume 1351.516652
_symmetry_space_group_name_H-M "C 2 2 21"
_symmetry_group_IT_number 20
_symmetry_cell_setting 'orthorhombic'
loop_
_space_group_symop_operation_xyz
x,y,z
-x,-y,1/2+z
x,-y,-z
-x,y,1/2-z
1/2+x,1/2+y,z
1/2-x,1/2-y,1/2+z
1/2+x,1/2-y,-z
1/2-x,1/2+y,1/2-z
loop_
_atom_site_type_symbol
_atom_site_label
_atom_site_fract_x
_atom_site_fract_y
_atom_site_fract_z
Si Si1 0.004721 0.106118 0.078110
Si Si2 0.741139 0.167814 0.689996
Si Si3 0.002848 0.689800 0.143999
Si Si4 0.736019 0.036542 0.581088
O O1 0.208163 0.172126 0.103518
O O2 0.705423 0.129452 0.105039
O O3 0.119028 0.032691 0.126181
O O4 0.041838 0.082587 0.976633
O O5 0.500000 0.201258 0.750000
O O6 0.867169 0.230456 0.627431
O O7 0.612859 0.096944 0.643488
O O8 0.000000 0.144473 0.750000
O O9 0.000000 0.683726 0.250000
O O10 0.565040 0.000000 0.500000
#
# Coordination Sequence:
#
# PCOD9321325 Si02
#       4
#     8   8   8   8
#     4   9  22  39  62  88 123 161 204 260 297 380
#     4  11  24  41  63  90 125 161 205 259 313 371
#     4  11  21  38  61  93 124 162 207 254 308 368
#     4   8  23  45  59  97 120 167 209 257 311 378
#
# _framework density 23.677101
#
# number of rings (size 3 to 8) (size 9 to 14) (size 15 to 20)
#    1.500    0.500    0.000    3.750    0.000   13.000 
#    0.000    0.000    0.000    0.000    0.000    0.000 
#    0.000    0.000    0.000    0.000    0.000    0.000 
#
# Total GULP energy -89214.719490 kJ/mol
# GULP energy per Si atom -5575.919968 kJ/mol
# Density = 2.362321 g / cm^3
# Si number density = 23.677101 Si / 1000 Ang^3
#
#
#
# Elastic Constant Matrix: (Units=GPa)
#
#
# Indices 1 2 3 4 5 6 
#
# 1 81.7337 1.1188 13.4648 0.0000 0.0000 0.0000
# 2 1.1188 124.8371 27.5871 0.0000 0.0000 0.0000
# 3 13.4648 27.5871 26.4925 0.0000 0.0000 0.0000
# 4 0.0000 0.0000 0.0000 51.4775 0.0000 0.0000
# 5 0.0000 0.0000 0.0000 0.0000 24.3509 0.0000
# 6 0.0000 0.0000 0.0000 0.0000 0.0000 174.7775
#
#
#
# Elastic Compliance Matrix: (Units=1/GPa)
#
#
# Indices 1 2 3 4 5 6 
#
# 1 0.013669 0.001835 -0.008858 0.000000 0.000000 0.000000
# 2 0.001835 0.010651 -0.012024 0.000000 0.000000 0.000000
# 3 -0.008858 -0.012024 0.054769 0.000000 0.000000 0.000000
# 4 0.000000 0.000000 0.000000 0.019426 0.000000 0.000000
# 5 0.000000 0.000000 0.000000 0.000000 0.041066 0.000000
# 6 0.000000 0.000000 0.000000 0.000000 0.000000 0.005722
#
#
# Mechanical properties :
#
#
# Convention : Reuss Voigt Hill
#
# Bulk Modulus (GPa) = 24.39292 35.26720 29.83006
# Shear Modulus (GPa) = 25.37275 62.84737 44.11006
#
# Velocity S-wave (km/s) = 3.27711 5.15763 4.32091
# Velocity P-wave (km/s) = 4.96426 7.09899 6.12534
#
# Compressibility (1/GPa) = 0.04099551
#
# Stress axis : x y z
#
# Youngs Moduli (GPa) = 73.15818 93.88727 18.25845
#
# Poissons Ratio (x) = -0.17228 0.16173
# Poissons Ratio (y) = -0.13425 0.21954
# Poissons Ratio (z) = 0.64804 1.12888
#
# Static dielectric constant tensor:
#      x y z
#    x 1.845680 0.000000 0.000000 
#    y 0.000000 1.956390 0.000000 
#    z 0.000000 0.000000 1.638730 
# 
# From -- ./inp_files/17434.got.cif
#   From: 2010.05.17/outbox.cif.g08.bks.cpg/sg20_9_cif.got.tgz:17434.got - 2010.06.03 22:52:26.
