data_PCOD9321062
_publ_section_title
;
Structure prediction by ZEFSAII (Michael W. Deem and Ramdas Pophale) SiO2 
 PCOD9321062
Probable space group: C 2 2 21
;
_chemical_formula_sum "Si O2"
_cell_formula_units_Z 44
_cell_length_a 6.788419
_cell_length_b 12.533034
_cell_length_c 18.338128
_cell_angle_alpha 90.000000
_cell_angle_beta 90.000000
_cell_angle_gamma 90.000000
_cell_volume 1560.198507
_symmetry_space_group_name_H-M "C 2 2 21"
_symmetry_group_IT_number 20
_symmetry_cell_setting 'orthorhombic'
loop_
_space_group_symop_operation_xyz
x,y,z
-x,-y,1/2+z
x,-y,-z
-x,y,1/2-z
1/2+x,1/2+y,z
1/2-x,1/2-y,1/2+z
1/2+x,1/2-y,-z
1/2-x,1/2+y,1/2-z
loop_
_atom_site_type_symbol
_atom_site_label
_atom_site_fract_x
_atom_site_fract_y
_atom_site_fract_z
Si Si1 0.965493 0.290315 0.060893
Si Si2 0.000000 0.183700 0.250000
Si Si3 0.271451 0.411543 0.160402
Si Si4 0.125472 0.750791 0.166951
Si Si5 0.370569 0.000000 0.000000
Si Si6 0.000000 0.554937 0.250000
Si Si7 0.043504 0.067486 0.097415
O O1 0.749759 0.265645 0.093772
O O2 0.972444 0.385016 0.002832
O O3 0.037037 0.170740 0.045078
O O4 0.105159 0.337746 0.124650
O O5 0.804065 0.246273 0.226106
O O6 0.051543 0.112687 0.179474
O O7 0.467665 0.343653 0.173569
O O8 0.346724 0.497170 0.099836
O O9 0.178805 0.476837 0.227933
O O10 0.012203 0.639137 0.182470
O O11 0.230707 0.001824 0.071214
#
# Coordination Sequence:
#
# PCOD9321062 Si02
#       7
#     8   4   8   8   4   4   8
#     4  11  28  52  80 122 163 220 296 352 430 530
#     4  10  24  54  84 126 174 222 291 373 434 514
#     4  12  28  49  83 118 170 231 281 354 453 513
#     4  11  27  51  77 120 172 215 282 357 425 520
#     4  12  28  52  90 122 166 238 294 354 454 518
#     4  12  28  46  82 124 170 220 283 359 436 518
#     4  11  27  55  82 122 172 222 289 362 437 521
#
# _framework density 28.201539
#
# number of rings (size 3 to 8) (size 9 to 14) (size 15 to 20)
#    0.000    0.727    5.455    0.000   10.182    5.091 
#    0.000    0.000    0.000    0.000    0.000    0.000 
#    0.000    0.000    0.000    0.000    0.000    0.000 
#
# Total GULP energy -123240.935501 kJ/mol
# GULP energy per Si atom -5601.860705 kJ/mol
# Density = 2.813735 g / cm^3
# Si number density = 28.201539 Si / 1000 Ang^3
#
#
#
# Elastic Constant Matrix: (Units=GPa)
#
#
# Indices 1 2 3 4 5 6 
#
# 1 161.0649 72.0247 48.7401 0.0000 0.0000 0.0000
# 2 72.0247 183.1478 21.4890 0.0000 0.0000 0.0000
# 3 48.7401 21.4890 89.2898 0.0000 0.0000 0.0000
# 4 0.0000 0.0000 0.0000 56.1279 0.0000 0.0000
# 5 0.0000 0.0000 0.0000 0.0000 52.9296 0.0000
# 6 0.0000 0.0000 0.0000 0.0000 0.0000 72.1014
#
#
#
# Elastic Compliance Matrix: (Units=1/GPa)
#
#
# Indices 1 2 3 4 5 6 
#
# 1 0.008769 -0.002971 -0.004072 0.000000 0.000000 0.000000
# 2 -0.002971 0.006625 0.000027 0.000000 0.000000 0.000000
# 3 -0.004072 0.000027 0.013416 0.000000 0.000000 0.000000
# 4 0.000000 0.000000 0.000000 0.017816 0.000000 0.000000
# 5 0.000000 0.000000 0.000000 0.000000 0.018893 0.000000
# 6 0.000000 0.000000 0.000000 0.000000 0.000000 0.013869
#
#
# Mechanical properties :
#
#
# Convention : Reuss Voigt Hill
#
# Bulk Modulus (GPa) = 67.66299 79.77892 73.72096
# Shear Modulus (GPa) = 50.84062 55.64838 53.24450
#
# Velocity S-wave (km/s) = 4.25050 4.44693 4.34983
# Velocity P-wave (km/s) = 6.93785 7.39711 7.17116
#
# Compressibility (1/GPa) = 0.01477913
#
# Stress axis : x y z
#
# Youngs Moduli (GPa) = 114.03284 150.93871 74.53984
#
# Poissons Ratio (x) = 0.44842 0.30352
# Poissons Ratio (y) = 0.33878 -0.00203
# Poissons Ratio (z) = 0.46433 -0.00411
#
# Static dielectric constant tensor:
#      x y z
#    x 2.139200 0.000000 0.000000 
#    y 0.000000 2.195290 0.000000 
#    z 0.000000 0.000000 2.262940 
# 
# From -- ./inp_files/28689.got.cif
#   From: 2010.05.17/outbox.cif.g08.bks.cpg/sg20_15_cif.got.tgz:28689.got - 2010.06.03 22:52:26.
