data_PCOD9321239
_publ_section_title
;
Structure prediction by ZEFSAII (Michael W. Deem and Ramdas Pophale) SiO2 
 PCOD9321239
Probable space group: C 2 2 21
;
_chemical_formula_sum "Si O2"
_cell_formula_units_Z 48
_cell_length_a 7.258503
_cell_length_b 12.491149
_cell_length_c 22.584023
_cell_angle_alpha 90.000000
_cell_angle_beta 90.000000
_cell_angle_gamma 90.000000
_cell_volume 2047.626573
_symmetry_space_group_name_H-M "C 2 2 21"
_symmetry_group_IT_number 20
_symmetry_cell_setting 'orthorhombic'
loop_
_space_group_symop_operation_xyz
x,y,z
-x,-y,1/2+z
x,-y,-z
-x,y,1/2-z
1/2+x,1/2+y,z
1/2-x,1/2-y,1/2+z
1/2+x,1/2-y,-z
1/2-x,1/2+y,1/2-z
loop_
_atom_site_type_symbol
_atom_site_label
_atom_site_fract_x
_atom_site_fract_y
_atom_site_fract_z
Si Si1 0.889933 0.630065 0.651269
Si Si2 0.070342 0.995901 0.127485
Si Si3 0.972164 0.199379 0.073270
Si Si4 0.312164 0.054283 0.767918
Si Si5 0.043186 0.543357 0.434085
Si Si6 0.926507 0.211548 0.560857
O O1 0.877756 0.731964 0.609504
O O2 0.753787 0.606237 0.705882
O O3 0.920401 0.527347 0.610231
O O4 0.085476 0.639018 0.688399
O O5 0.936924 0.092475 0.110557
O O6 0.248353 0.021370 0.086115
O O7 0.153985 0.998131 0.193493
O O8 0.005289 0.879680 0.105645
O O9 0.792497 0.273438 0.068106
O O10 0.029944 0.175966 0.006125
O O11 0.500000 0.986985 0.750000
O O12 0.011153 0.500000 0.500000
O O13 0.002575 0.668890 0.431033
#
# Coordination Sequence:
#
# PCOD9321239 Si02
#       6
#     8   8   8   8   8   8
#     4   8  17  37  59  86 109 160 197 237 298 357
#     4  11  22  40  59  91 117 157 200 245 300 361
#     4  12  22  38  62  89 125 159 198 246 306 360
#     4   7  15  37  64  77 116 154 205 240 293 361
#     4  11  19  38  63  81 122 158 191 244 302 353
#     4  12  23  39  58  91 125 157 194 250 300 364
#
# _framework density 23.441773999999999
#
# number of rings (size 3 to 8) (size 9 to 14) (size 15 to 20)
#    1.000    0.667    5.000    2.500    0.000    1.333 
#    6.000    0.000    0.000    0.000    0.000    0.000 
#    0.000    0.000    0.000    0.000    0.000    0.000 
#
# Total GULP energy -133992.636774 kJ/mol
# GULP energy per Si atom -5583.026532 kJ/mol
# Density = 2.338842 g / cm^3
# Si number density = 23.441774 Si / 1000 Ang^3
#
#
#
# Elastic Constant Matrix: (Units=GPa)
#
#
# Indices 1 2 3 4 5 6 
#
# 1 48.1919 15.9466 18.9342 0.0000 0.0000 0.0000
# 2 15.9466 108.4288 24.3108 0.0000 0.0000 0.0000
# 3 18.9342 24.3108 159.6396 0.0000 0.0000 0.0000
# 4 0.0000 0.0000 0.0000 13.1006 0.0000 0.0000
# 5 0.0000 0.0000 0.0000 0.0000 17.4559 0.0000
# 6 0.0000 0.0000 0.0000 0.0000 0.0000 20.1607
#
#
#
# Elastic Compliance Matrix: (Units=1/GPa)
#
#
# Indices 1 2 3 4 5 6 
#
# 1 0.022565 -0.002815 -0.002248 0.000000 0.000000 0.000000
# 2 -0.002815 0.009900 -0.001174 0.000000 0.000000 0.000000
# 3 -0.002248 -0.001174 0.006709 0.000000 0.000000 0.000000
# 4 0.000000 0.000000 0.000000 0.076332 0.000000 0.000000
# 5 0.000000 0.000000 0.000000 0.000000 0.057287 0.000000
# 6 0.000000 0.000000 0.000000 0.000000 0.000000 0.049602
#
#
# Mechanical properties :
#
#
# Convention : Reuss Voigt Hill
#
# Bulk Modulus (GPa) = 37.45057 48.29372 42.87215
# Shear Modulus (GPa) = 20.51133 27.28136 23.89634
#
# Velocity S-wave (km/s) = 2.96123 3.41514 3.19625
# Velocity P-wave (km/s) = 5.26332 6.01641 5.65242
#
# Compressibility (1/GPa) = 0.02670186
#
# Stress axis : x y z
#
# Youngs Moduli (GPa) = 44.31671 101.01259 149.04361
#
# Poissons Ratio (x) = 0.28431 0.33500
# Poissons Ratio (y) = 0.12474 0.17494
# Poissons Ratio (z) = 0.09961 0.11856
#
# Static dielectric constant tensor:
#      x y z
#    x 1.986080 0.000000 0.000000 
#    y 0.000000 1.877140 0.000000 
#    z 0.000000 0.000000 1.883070 
# 
# From -- ./inp_files/28697.got.cif
#   From: 2010.05.17/outbox.cif.g08.bks.cpg/sg20_15_cif.got.tgz:28697.got - 2010.06.03 22:52:26.
