data_PCOD9321066
_publ_section_title
;
Structure prediction by ZEFSAII (Michael W. Deem and Ramdas Pophale) SiO2 
 PCOD9321066
Probable space group: C 2 2 21
;
_chemical_formula_sum "Si O2"
_cell_formula_units_Z 40
_cell_length_a 24.841445
_cell_length_b 12.644783
_cell_length_c 6.214153
_cell_angle_alpha 90.000000
_cell_angle_beta 90.000000
_cell_angle_gamma 90.000000
_cell_volume 1951.956690
_symmetry_space_group_name_H-M "C 2 2 21"
_symmetry_group_IT_number 20
_symmetry_cell_setting 'orthorhombic'
loop_
_space_group_symop_operation_xyz
x,y,z
-x,-y,1/2+z
x,-y,-z
-x,y,1/2-z
1/2+x,1/2+y,z
1/2-x,1/2-y,1/2+z
1/2+x,1/2-y,-z
1/2-x,1/2+y,1/2-z
loop_
_atom_site_type_symbol
_atom_site_label
_atom_site_fract_x
_atom_site_fract_y
_atom_site_fract_z
Si Si1 0.524727 0.500000 0.000000
Si Si2 0.355423 0.111172 0.395993
Si Si3 0.610237 0.675212 0.116398
Si Si4 0.838604 0.270837 0.004094
Si Si5 0.254096 0.871022 0.332941
Si Si6 0.197893 0.000000 0.000000
O O1 0.500000 0.514277 0.750000
O O2 0.560362 0.394863 0.958600
O O3 0.385215 0.212247 0.498787
O O4 0.359503 0.133391 0.142543
O O5 0.292189 0.118331 0.460748
O O6 0.373649 0.000000 0.500000
O O7 0.616046 0.704908 0.368932
O O8 0.661129 0.600350 0.059577
O O9 0.800576 0.192921 0.869637
O O10 0.796155 0.314646 0.175290
O O11 0.233972 0.972823 0.204680
#
# Coordination Sequence:
#
# PCOD9321066 Si02
#       6
#     4   8   8   8   8   4
#     4  11  28  52  86 112 132 164 214 294 388 467
#     4  11  23  36  57  85 137 189 239 281 329 398
#     4  10  25  41  63 100 128 172 220 294 359 417
#     4  11  20  36  55  83 136 180 242 289 323 397
#     4  11  20  31  50  84 124 191 242 281 316 374
#     4  11  20  36  54  84 130 176 238 280 336 401
#
# _framework density 20.492259000000001
#
# number of rings (size 3 to 8) (size 9 to 14) (size 15 to 20)
#    0.000    1.200    4.000    2.400    5.600    2.400 
#    0.000    0.000    0.000    1.200    0.000    0.000 
#    0.000    0.000    0.000    0.000    0.000    0.000 
#
# Total GULP energy -111431.903520 kJ/mol
# GULP energy per Si atom -5571.595176 kJ/mol
# Density = 2.044562 g / cm^3
# Si number density = 20.492259 Si / 1000 Ang^3
#
#
#
# Elastic Constant Matrix: (Units=GPa)
#
#
# Indices 1 2 3 4 5 6 
#
# 1 56.5924 43.7993 42.8948 0.0000 0.0000 0.0000
# 2 43.7993 156.4926 60.6939 0.0000 0.0000 0.0000
# 3 42.8948 60.6939 129.7372 0.0000 0.0000 0.0000
# 4 0.0000 0.0000 0.0000 48.7805 0.0000 0.0000
# 5 0.0000 0.0000 0.0000 0.0000 20.6544 0.0000
# 6 0.0000 0.0000 0.0000 0.0000 0.0000 19.0927
#
#
#
# Elastic Compliance Matrix: (Units=1/GPa)
#
#
# Indices 1 2 3 4 5 6 
#
# 1 0.026306 -0.004874 -0.006418 0.000000 0.000000 0.000000
# 2 -0.004874 0.008709 -0.002463 0.000000 0.000000 0.000000
# 3 -0.006418 -0.002463 0.010982 0.000000 0.000000 0.000000
# 4 0.000000 0.000000 0.000000 0.020500 0.000000 0.000000
# 5 0.000000 0.000000 0.000000 0.000000 0.048416 0.000000
# 6 0.000000 0.000000 0.000000 0.000000 0.000000 0.052376
#
#
# Mechanical properties :
#
#
# Convention : Reuss Voigt Hill
#
# Bulk Modulus (GPa) = 54.08588 70.84424 62.46506
# Shear Modulus (GPa) = 24.88037 30.73447 27.80742
#
# Velocity S-wave (km/s) = 3.48822 3.87694 3.68771
# Velocity P-wave (km/s) = 6.53255 7.39508 6.97715
#
# Compressibility (1/GPa) = 0.01848912
#
# Stress axis : x y z
#
# Youngs Moduli (GPa) = 38.01345 114.81848 91.05793
#
# Poissons Ratio (x) = 0.55959 0.58438
# Poissons Ratio (y) = 0.18526 0.22428
# Poissons Ratio (z) = 0.24396 0.28281
#
# Static dielectric constant tensor:
#      x y z
#    x 1.694360 0.000000 0.000000 
#    y 0.000000 1.789320 0.000000 
#    z 0.000000 0.000000 1.706950 
# 
# From -- ./inp_files/1420.got.cif
#   From: 2010.05.17/outbox.cif.g08.bks.cpg/sg20_1_cif.got.tgz:1420.got - 2010.06.03 22:52:26.
