data_PCOD9321949
_publ_section_title
;
Structure prediction by ZEFSAII (Michael W. Deem and Ramdas Pophale) SiO2 
 PCOD9321949
Probable space group: C 2 2 21
;
_chemical_formula_sum "Si O2"
_cell_formula_units_Z 32
_cell_length_a 4.890917
_cell_length_b 22.244269
_cell_length_c 13.161120
_cell_angle_alpha 90.000000
_cell_angle_beta 90.000000
_cell_angle_gamma 90.000000
_cell_volume 1431.862384
_symmetry_space_group_name_H-M "C 2 2 21"
_symmetry_group_IT_number 20
_symmetry_cell_setting 'orthorhombic'
loop_
_space_group_symop_operation_xyz
x,y,z
-x,-y,1/2+z
x,-y,-z
-x,y,1/2-z
1/2+x,1/2+y,z
1/2-x,1/2-y,1/2+z
1/2+x,1/2-y,-z
1/2-x,1/2+y,1/2-z
loop_
_atom_site_type_symbol
_atom_site_label
_atom_site_fract_x
_atom_site_fract_y
_atom_site_fract_z
Si Si1 0.704763 0.253563 0.928554
Si Si2 0.126115 0.382112 0.639740
Si Si3 0.256675 0.862086 0.314899
Si Si4 0.369694 0.429856 0.985964
O O1 0.775468 0.312883 0.864594
O O2 0.607739 0.196948 0.863904
O O3 0.474347 0.267408 0.011350
O O4 0.374968 0.419856 0.590174
O O5 0.000000 0.397389 0.750000
O O6 0.878583 0.393332 0.563301
O O7 0.500000 0.892571 0.250000
O O8 0.117909 0.903309 0.400782
O O9 0.000000 0.840496 0.250000
O O10 0.311581 0.500000 0.000000
#
# Coordination Sequence:
#
# PCOD9321949 Si02
#       4
#     8   8   8   8
#     4  12  22  43  72 102 145 181 222 295 364 423
#     4  12  25  46  74 105 138 187 234 295 361 425
#     4  12  25  43  71 102 139 184 231 284 356 424
#     4  12  27  48  70 101 145 188 241 296 346 416
#
# _framework density 22.348517999999999
#
# number of rings (size 3 to 8) (size 9 to 14) (size 15 to 20)
#    0.000    0.000    5.000    5.250    0.000    5.000 
#    0.000    0.000    0.000    0.000    0.000    0.000 
#    0.000    0.000    0.000    0.000    0.000    0.000 
#
# Total GULP energy -89482.438315 kJ/mol
# GULP energy per Si atom -5592.652395 kJ/mol
# Density = 2.229765 g / cm^3
# Si number density = 22.348518 Si / 1000 Ang^3
#
#
#
# Elastic Constant Matrix: (Units=GPa)
#
#
# Indices 1 2 3 4 5 6 
#
# 1 86.2391 -14.5502 -0.8133 0.0000 0.0000 0.0000
# 2 -14.5502 68.7983 39.1795 0.0000 0.0000 0.0000
# 3 -0.8133 39.1795 61.3351 0.0000 0.0000 0.0000
# 4 0.0000 0.0000 0.0000 1.6096 0.0000 0.0000
# 5 0.0000 0.0000 0.0000 0.0000 33.6929 0.0000
# 6 0.0000 0.0000 0.0000 0.0000 0.0000 9.6366
#
#
#
# Elastic Compliance Matrix: (Units=1/GPa)
#
#
# Indices 1 2 3 4 5 6 
#
# 1 0.012235 0.003922 -0.002343 0.000000 0.000000 0.000000
# 2 0.003922 0.024103 -0.015345 0.000000 0.000000 0.000000
# 3 -0.002343 -0.015345 0.026075 0.000000 0.000000 0.000000
# 4 0.000000 0.000000 0.000000 0.621288 0.000000 0.000000
# 5 0.000000 0.000000 0.000000 0.000000 0.029680 0.000000
# 6 0.000000 0.000000 0.000000 0.000000 0.000000 0.103772
#
#
# Mechanical properties :
#
#
# Convention : Reuss Voigt Hill
#
# Bulk Modulus (GPa) = 28.66825 29.33382 29.00104
# Shear Modulus (GPa) = 5.83900 21.82491 13.83195
#
# Velocity S-wave (km/s) = 1.61814 3.12840 2.49051
# Velocity P-wave (km/s) = 4.04312 5.11892 4.61249
#
# Compressibility (1/GPa) = 0.03488179
#
# Stress axis : x y z
#
# Youngs Moduli (GPa) = 81.73084 41.48834 38.35159
#
# Poissons Ratio (x) = -0.16272 0.08986
# Poissons Ratio (y) = -0.32055 0.58849
# Poissons Ratio (z) = 0.19150 0.63662
#
# Static dielectric constant tensor:
#      x y z
#    x 1.835890 0.000000 0.000000 
#    y 0.000000 1.782490 0.000000 
#    z 0.000000 0.000000 1.970540 
# 
# From -- ./inp_files/11887.got.cif
#   From: 2010.05.17/outbox.cif.g08.bks.cpg/sg20_6_cif.got.tgz:11887.got - 2010.06.03 22:52:26.
