data_PCOD9321811
_publ_section_title
;
Structure prediction by ZEFSAII (Michael W. Deem and Ramdas Pophale) SiO2 
 PCOD9321811
Probable space group: C 2 2 21
;
_chemical_formula_sum "Si O2"
_cell_formula_units_Z 40
_cell_length_a 13.044255
_cell_length_b 4.971970
_cell_length_c 24.994148
_cell_angle_alpha 90.000000
_cell_angle_beta 90.000000
_cell_angle_gamma 90.000000
_cell_volume 1621.011578
_symmetry_space_group_name_H-M "C 2 2 21"
_symmetry_group_IT_number 20
_symmetry_cell_setting 'orthorhombic'
loop_
_space_group_symop_operation_xyz
x,y,z
-x,-y,1/2+z
x,-y,-z
-x,y,1/2-z
1/2+x,1/2+y,z
1/2-x,1/2-y,1/2+z
1/2+x,1/2-y,-z
1/2-x,1/2+y,1/2-z
loop_
_atom_site_type_symbol
_atom_site_label
_atom_site_fract_x
_atom_site_fract_y
_atom_site_fract_z
Si Si1 0.254952 0.628186 0.056011
Si Si2 0.001269 0.728043 0.832082
Si Si3 0.374464 0.206392 0.031641
Si Si4 0.549012 0.275408 0.104915
Si Si5 0.822618 0.155473 0.245422
O O1 0.307195 0.359094 0.078174
O O2 0.168417 0.743387 0.093132
O O3 0.208415 0.500000 0.000000
O O4 0.326902 0.883884 0.036253
O O5 0.015924 0.416814 0.846488
O O6 0.091711 0.811431 0.791506
O O7 0.389651 0.284071 0.807544
O O8 0.019406 0.919161 0.883018
O O9 0.487151 0.159635 0.054475
O O10 0.392648 0.500000 0.000000
O O11 0.731030 0.367317 0.253264
#
# Coordination Sequence:
#
# PCOD9321811 Si02
#       5
#     8   8   8   8   8
#     4   8  23  41  60  93 132 189 229 268 337 382
#     4  11  28  43  71 111 129 175 227 279 344 408
#     4   9  22  42  62  91 134 190 230 267 339 381
#     4  12  24  43  71 101 142 173 236 287 317 405
#     4  11  24  51  75  96 144 173 210 279 362 414
#
# _framework density 24.675948999999999
#
# number of rings (size 3 to 8) (size 9 to 14) (size 15 to 20)
#    1.200    0.400    0.000    3.000    8.400    8.000 
#    3.600    0.000    0.000    0.000    0.000    0.000 
#    0.000    0.000    0.000    0.000    0.000    0.000 
#
# Total GULP energy -111374.324434 kJ/mol
# GULP energy per Si atom -5568.716222 kJ/mol
# Density = 2.461979 g / cm^3
# Si number density = 24.675949 Si / 1000 Ang^3
#
#
#
# Elastic Constant Matrix: (Units=GPa)
#
#
# Indices 1 2 3 4 5 6 
#
# 1 93.5744 25.9384 18.4829 0.0000 0.0000 0.0000
# 2 25.9384 123.6603 16.4315 0.0000 0.0000 0.0000
# 3 18.4829 16.4315 31.6647 0.0000 0.0000 0.0000
# 4 0.0000 0.0000 0.0000 36.2582 0.0000 0.0000
# 5 0.0000 0.0000 0.0000 0.0000 35.9175 0.0000
# 6 0.0000 0.0000 0.0000 0.0000 0.0000 40.2627
#
#
#
# Elastic Compliance Matrix: (Units=1/GPa)
#
#
# Indices 1 2 3 4 5 6 
#
# 1 0.012428 -0.001765 -0.006338 0.000000 0.000000 0.000000
# 2 -0.001765 0.008936 -0.003607 0.000000 0.000000 0.000000
# 3 -0.006338 -0.003607 0.037153 0.000000 0.000000 0.000000
# 4 0.000000 0.000000 0.000000 0.027580 0.000000 0.000000
# 5 0.000000 0.000000 0.000000 0.000000 0.027842 0.000000
# 6 0.000000 0.000000 0.000000 0.000000 0.000000 0.024837
#
#
# Mechanical properties :
#
#
# Convention : Reuss Voigt Hill
#
# Bulk Modulus (GPa) = 28.49327 41.17833 34.83580
# Shear Modulus (GPa) = 28.75317 35.02414 31.88866
#
# Velocity S-wave (km/s) = 3.41725 3.77153 3.59875
# Velocity P-wave (km/s) = 5.20982 5.97409 5.60500
#
# Compressibility (1/GPa) = 0.03509601
#
# Stress axis : x y z
#
# Youngs Moduli (GPa) = 80.46483 111.90568 26.91608
#
# Poissons Ratio (x) = 0.19746 0.17061
# Poissons Ratio (y) = 0.14199 0.09709
# Poissons Ratio (z) = 0.51003 0.40366
#
# Static dielectric constant tensor:
#      x y z
#    x 2.244250 0.000000 0.000000 
#    y 0.000000 1.930520 0.000000 
#    z 0.000000 0.000000 2.379090 
# 
# From -- ./inp_files/31124.got.cif
#   From: 2010.05.17/outbox.cif.g08.bks.cpg/sg20_16_cif.got.tgz:31124.got - 2010.06.03 22:52:26.
