data_PCOD9321505
_publ_section_title
;
Structure prediction by ZEFSAII (Michael W. Deem and Ramdas Pophale) SiO2 
 PCOD9321505
Probable space group: C 2 2 21
;
_chemical_formula_sum "Si O2"
_cell_formula_units_Z 48
_cell_length_a 19.905023
_cell_length_b 8.391210
_cell_length_c 13.221324
_cell_angle_alpha 90.000000
_cell_angle_beta 90.000000
_cell_angle_gamma 90.000000
_cell_volume 2208.321099
_symmetry_space_group_name_H-M "C 2 2 21"
_symmetry_group_IT_number 20
_symmetry_cell_setting 'orthorhombic'
loop_
_space_group_symop_operation_xyz
x,y,z
-x,-y,1/2+z
x,-y,-z
-x,y,1/2-z
1/2+x,1/2+y,z
1/2-x,1/2-y,1/2+z
1/2+x,1/2-y,-z
1/2-x,1/2+y,1/2-z
loop_
_atom_site_type_symbol
_atom_site_label
_atom_site_fract_x
_atom_site_fract_y
_atom_site_fract_z
Si Si1 0.989703 0.500000 0.500000
Si Si2 0.684062 0.418850 0.201948
Si Si3 0.119276 0.734110 0.014723
Si Si4 0.517396 0.500000 0.000000
Si Si5 0.183262 0.708453 0.810995
Si Si6 0.939148 0.185640 0.828080
Si Si7 0.565696 0.055959 0.680735
O O1 0.037003 0.605056 0.571344
O O2 0.937161 0.386696 0.559306
O O3 0.663242 0.313573 0.103340
O O4 0.749570 0.359181 0.260853
O O5 0.693158 0.603026 0.176113
O O6 0.621993 0.406378 0.278106
O O7 0.162551 0.655606 0.924809
O O8 0.071063 0.867125 0.961952
O O9 0.469889 0.588608 0.920985
O O10 0.123883 0.654445 0.734661
O O11 0.916171 0.369928 0.839165
O O12 0.000000 0.190654 0.750000
O O13 0.500000 0.064813 0.750000
#
# Coordination Sequence:
#
# PCOD9321505 Si02
#       7
#     4   8   8   4   8   8   8
#     4  12  24  42  78 110 146 188 242 308 372 442
#     4  12  27  48  72 104 145 195 246 311 369 451
#     4  12  24  48  77 105 144 200 247 307 384 444
#     4  12  22  44  76 110 140 192 244 310 368 430
#     4  12  27  47  73 103 148 194 248 305 376 448
#     4  11  22  43  72 106 145 185 243 303 359 438
#     4  11  23  43  71 109 143 186 241 299 366 440
#
# _framework density 21.735969999999998
#
# number of rings (size 3 to 8) (size 9 to 14) (size 15 to 20)
#    0.000    0.333    6.667    2.000    4.667    0.667 
#    9.000    0.000    0.000    0.000    0.000    0.000 
#    0.000    0.000    0.000    0.000    0.000    0.000 
#
# Total GULP energy -134052.479847 kJ/mol
# GULP energy per Si atom -5585.519994 kJ/mol
# Density = 2.168650 g / cm^3
# Si number density = 21.735970 Si / 1000 Ang^3
#
#
#
# Elastic Constant Matrix: (Units=GPa)
#
#
# Indices 1 2 3 4 5 6 
#
# 1 123.4105 20.3350 66.4157 0.0000 0.0000 0.0000
# 2 20.3350 49.7321 30.6412 0.0000 0.0000 0.0000
# 3 66.4157 30.6412 148.4696 0.0000 0.0000 0.0000
# 4 0.0000 0.0000 0.0000 31.6642 0.0000 0.0000
# 5 0.0000 0.0000 0.0000 0.0000 38.2034 0.0000
# 6 0.0000 0.0000 0.0000 0.0000 0.0000 38.0827
#
#
#
# Elastic Compliance Matrix: (Units=1/GPa)
#
#
# Indices 1 2 3 4 5 6 
#
# 1 0.010789 -0.001647 -0.004486 0.000000 0.000000 0.000000
# 2 -0.001647 0.023289 -0.004069 0.000000 0.000000 0.000000
# 3 -0.004486 -0.004069 0.009582 0.000000 0.000000 0.000000
# 4 0.000000 0.000000 0.000000 0.031581 0.000000 0.000000
# 5 0.000000 0.000000 0.000000 0.000000 0.026176 0.000000
# 6 0.000000 0.000000 0.000000 0.000000 0.000000 0.026259
#
#
# Mechanical properties :
#
#
# Convention : Reuss Voigt Hill
#
# Bulk Modulus (GPa) = 43.00426 61.82178 52.41302
# Shear Modulus (GPa) = 32.08576 35.20475 33.64525
#
# Velocity S-wave (km/s) = 3.84625 4.02886 3.93861
# Velocity P-wave (km/s) = 6.28909 7.08140 6.69697
#
# Compressibility (1/GPa) = 0.02325351
#
# Stress axis : x y z
#
# Youngs Moduli (GPa) = 92.68837 42.93953 104.36150
#
# Poissons Ratio (x) = 0.07074 0.46819
# Poissons Ratio (y) = 0.15269 0.42469
# Poissons Ratio (z) = 0.41582 0.17474
#
# Static dielectric constant tensor:
#      x y z
#    x 1.744890 0.000000 0.000000 
#    y 0.000000 1.908870 0.000000 
#    z 0.000000 0.000000 1.892610 
# 
# From -- ./inp_files/21312.got.cif
#   From: 2010.05.17/outbox.cif.g08.bks.cpg/sg20_11_cif.got.tgz:21312.got - 2010.06.03 22:52:26.
