data_PCOD9321254
_publ_section_title
;
Structure prediction by ZEFSAII (Michael W. Deem and Ramdas Pophale) SiO2 
 PCOD9321254
Probable space group: C 2 2 21
;
_chemical_formula_sum "Si O2"
_cell_formula_units_Z 64
_cell_length_a 13.050206
_cell_length_b 28.643763
_cell_length_c 8.233275
_cell_angle_alpha 90.000000
_cell_angle_beta 90.000000
_cell_angle_gamma 90.000000
_cell_volume 3077.655892
_symmetry_space_group_name_H-M "C 2 2 21"
_symmetry_group_IT_number 20
_symmetry_cell_setting 'orthorhombic'
loop_
_space_group_symop_operation_xyz
x,y,z
-x,-y,1/2+z
x,-y,-z
-x,y,1/2-z
1/2+x,1/2+y,z
1/2-x,1/2-y,1/2+z
1/2+x,1/2-y,-z
1/2-x,1/2+y,1/2-z
loop_
_atom_site_type_symbol
_atom_site_label
_atom_site_fract_x
_atom_site_fract_y
_atom_site_fract_z
Si Si1 0.124431 0.933524 0.794625
Si Si2 0.144672 0.132197 0.631992
Si Si3 0.146731 0.709170 0.361060
Si Si4 0.210740 0.629717 0.131430
Si Si5 0.346120 0.253523 0.493283
Si Si6 0.588475 0.648640 0.970927
Si Si7 0.037790 0.333501 0.073628
Si Si8 0.890930 0.972223 0.173398
O O1 0.215785 0.913225 0.681230
O O2 0.000000 0.931242 0.750000
O O3 0.147608 0.988373 0.798068
O O4 0.127272 0.897801 0.942118
O O5 0.216434 0.154357 0.499431
O O6 0.153292 0.154204 0.807312
O O7 0.166145 0.076583 0.652186
O O8 0.028958 0.138450 0.572093
O O9 0.195812 0.662102 0.286282
O O10 0.227417 0.735560 0.474285
O O11 0.128773 0.739533 0.195468
O O12 0.051246 0.689846 0.463564
O O13 0.101772 0.628758 0.035765
O O14 0.403332 0.300885 0.550746
O O15 0.386917 0.210501 0.598897
O O16 0.000000 0.350531 0.250000
O O17 0.000000 0.958345 0.250000
O O18 0.900855 0.000000 0.000000
#
# Coordination Sequence:
#
# PCOD9321254 Si02
#       8
#     8   8   8   8   8   8   8   8
#     4  11  21  37  60  91 128 164 210 253 321 393
#     4  11  23  35  57  94 128 171 207 258 318 381
#     4  11  25  43  61  92 123 169 215 269 336 377
#     4  11  22  41  62  87 126 166 222 258 316 389
#     4  11  24  39  63  86 126 164 208 270 310 400
#     4  11  23  36  57  93 127 167 212 257 308 394
#     4  11  27  45  64  92 124 176 219 281 336 384
#     4  11  20  35  55  86 133 171 204 251 318 394
#
# _framework density 20.795047
#
# number of rings (size 3 to 8) (size 9 to 14) (size 15 to 20)
#    0.000    1.000    5.000    3.000    8.750    1.500 
#    0.000    0.000    0.000    0.000    0.000    7.000 
#    0.000    0.000    0.000    0.000    0.000    0.000 
#
# Total GULP energy -178240.002618 kJ/mol
# GULP energy per Si atom -5570.000082 kJ/mol
# Density = 2.074772 g / cm^3
# Si number density = 20.795047 Si / 1000 Ang^3
#
#
#
# Elastic Constant Matrix: (Units=GPa)
#
#
# Indices 1 2 3 4 5 6 
#
# 1 92.3921 20.0492 27.5713 0.0000 0.0000 0.0000
# 2 20.0492 73.9112 -15.8688 0.0000 0.0000 0.0000
# 3 27.5713 -15.8688 52.4045 0.0000 0.0000 0.0000
# 4 0.0000 0.0000 0.0000 23.7652 0.0000 0.0000
# 5 0.0000 0.0000 0.0000 0.0000 36.5601 0.0000
# 6 0.0000 0.0000 0.0000 0.0000 0.0000 13.1203
#
#
#
# Elastic Compliance Matrix: (Units=1/GPa)
#
#
# Indices 1 2 3 4 5 6 
#
# 1 0.015102 -0.006206 -0.009825 0.000000 0.000000 0.000000
# 2 -0.006206 0.017021 0.008419 0.000000 0.000000 0.000000
# 3 -0.009825 0.008419 0.026801 0.000000 0.000000 0.000000
# 4 0.000000 0.000000 0.000000 0.042078 0.000000 0.000000
# 5 0.000000 0.000000 0.000000 0.000000 0.027352 0.000000
# 6 0.000000 0.000000 0.000000 0.000000 0.000000 0.076218
#
#
# Mechanical properties :
#
#
# Convention : Reuss Voigt Hill
#
# Bulk Modulus (GPa) = 22.88294 31.35678 27.11986
# Shear Modulus (GPa) = 21.33453 27.15285 24.24369
#
# Velocity S-wave (km/s) = 3.20651 3.61742 3.41814
# Velocity P-wave (km/s) = 4.97362 5.70608 5.35239
#
# Compressibility (1/GPa) = 0.04370069
#
# Stress axis : x y z
#
# Youngs Moduli (GPa) = 66.21631 58.75158 37.31220
#
# Poissons Ratio (x) = 0.36461 0.36658
# Poissons Ratio (y) = 0.41094 -0.31414
# Poissons Ratio (z) = 0.65056 -0.49465
#
# Static dielectric constant tensor:
#      x y z
#    x 1.781940 0.000000 0.000000 
#    y 0.000000 1.767430 0.000000 
#    z 0.000000 0.000000 1.849460 
# 
# From -- ./inp_files/7673.got.cif
#   From: 2010.05.17/outbox.cif.g08.bks.cpg/sg20_4_cif.got.tgz:7673.got - 2010.06.03 22:52:26.
