data_PCOD9321739
_publ_section_title
;
Structure prediction by ZEFSAII (Michael W. Deem and Ramdas Pophale) SiO2 
 PCOD9321739
Probable space group: C 2 2 21
;
_chemical_formula_sum "Si O2"
_cell_formula_units_Z 32
_cell_length_a 9.711718
_cell_length_b 30.136748
_cell_length_c 4.819805
_cell_angle_alpha 90.000000
_cell_angle_beta 90.000000
_cell_angle_gamma 90.000000
_cell_volume 1410.658590
_symmetry_space_group_name_H-M "C 2 2 21"
_symmetry_group_IT_number 20
_symmetry_cell_setting 'orthorhombic'
loop_
_space_group_symop_operation_xyz
x,y,z
-x,-y,1/2+z
x,-y,-z
-x,y,1/2-z
1/2+x,1/2+y,z
1/2-x,1/2-y,1/2+z
1/2+x,1/2-y,-z
1/2-x,1/2+y,1/2-z
loop_
_atom_site_type_symbol
_atom_site_label
_atom_site_fract_x
_atom_site_fract_y
_atom_site_fract_z
Si Si1 0.756232 0.086771 0.537129
Si Si2 0.362076 0.364571 0.924846
Si Si3 0.091616 0.000000 0.000000
Si Si4 0.656184 0.262394 0.669881
Si Si5 0.000000 0.533011 0.750000
O O1 0.741193 0.120842 0.285542
O O2 0.621793 0.065433 0.666050
O O3 0.825071 0.042697 0.405531
O O4 0.839446 0.110716 0.785498
O O5 0.500000 0.376987 0.750000
O O6 0.364018 0.311774 0.954542
O O7 0.000000 0.016290 0.750000
O O8 0.500000 0.246513 0.750000
O O9 0.744798 0.235960 0.440061
O O10 0.960949 0.500000 0.500000
#
# Coordination Sequence:
#
# PCOD9321739 Si02
#       5
#     8   8   4   8   4
#     4  12  24  43  64  93 129 172 222 262 328 385
#     4  11  24  44  68  98 133 167 214 276 331 383
#     4  12  24  38  64  94 124 164 218 274 314 382
#     4  11  24  47  74 105 142 181 224 281 350 419
#     4  12  26  46  62  84 134 182 214 266 326 386
#
# _framework density 22.684441
#
# number of rings (size 3 to 8) (size 9 to 14) (size 15 to 20)
#    0.000    0.500    1.250    8.250    1.750    4.000 
#   13.500    0.000    0.000    0.000    0.000    0.000 
#    0.000    0.000    0.000    0.000    0.000    0.000 
#
# Total GULP energy -89449.833218 kJ/mol
# GULP energy per Si atom -5590.614576 kJ/mol
# Density = 2.263281 g / cm^3
# Si number density = 22.684441 Si / 1000 Ang^3
#
#
#
# Elastic Constant Matrix: (Units=GPa)
#
#
# Indices 1 2 3 4 5 6 
#
# 1 93.8716 13.4991 7.6488 0.0000 0.0000 0.0000
# 2 13.4991 65.4777 -1.7336 0.0000 0.0000 0.0000
# 3 7.6488 -1.7336 99.4250 0.0000 0.0000 0.0000
# 4 0.0000 0.0000 0.0000 53.2369 0.0000 0.0000
# 5 0.0000 0.0000 0.0000 0.0000 27.1859 0.0000
# 6 0.0000 0.0000 0.0000 0.0000 0.0000 16.9139
#
#
#
# Elastic Compliance Matrix: (Units=1/GPa)
#
#
# Indices 1 2 3 4 5 6 
#
# 1 0.011057 -0.002303 -0.000891 0.000000 0.000000 0.000000
# 2 -0.002303 0.015759 0.000452 0.000000 0.000000 0.000000
# 3 -0.000891 0.000452 0.010134 0.000000 0.000000 0.000000
# 4 0.000000 0.000000 0.000000 0.018784 0.000000 0.000000
# 5 0.000000 0.000000 0.000000 0.000000 0.036784 0.000000
# 6 0.000000 0.000000 0.000000 0.000000 0.000000 0.059123
#
#
# Mechanical properties :
#
#
# Convention : Reuss Voigt Hill
#
# Bulk Modulus (GPa) = 31.78001 33.06699 32.42350
# Shear Modulus (GPa) = 29.83060 35.42467 32.62764
#
# Velocity S-wave (km/s) = 3.63026 3.95603 3.79664
# Velocity P-wave (km/s) = 5.62243 5.95613 5.79169
#
# Compressibility (1/GPa) = 0.03146632
#
# Stress axis : x y z
#
# Youngs Moduli (GPa) = 90.44356 63.45518 98.67542
#
# Poissons Ratio (x) = 0.14614 0.08789
# Poissons Ratio (y) = 0.20830 -0.04460
# Poissons Ratio (z) = 0.08056 -0.02868
#
# Static dielectric constant tensor:
#      x y z
#    x 1.700020 0.000000 0.000000 
#    y 0.000000 1.752850 0.000000 
#    z 0.000000 0.000000 1.862920 
# 
# From -- ./inp_files/605.got.cif
#   From: 2010.05.17/outbox.cif.g08.bks.cpg/sg20_1_cif.got.tgz:605.got - 2010.06.03 22:52:26.
