data_PCOD9321362
_publ_section_title
;
Structure prediction by ZEFSAII (Michael W. Deem and Ramdas Pophale) SiO2 
 PCOD9321362
Probable space group: C 2 2 21
;
_chemical_formula_sum "Si O2"
_cell_formula_units_Z 64
_cell_length_a 8.411823
_cell_length_b 20.480973
_cell_length_c 18.163906
_cell_angle_alpha 90.000000
_cell_angle_beta 90.000000
_cell_angle_gamma 90.000000
_cell_volume 3129.319861
_symmetry_space_group_name_H-M "C 2 2 21"
_symmetry_group_IT_number 20
_symmetry_cell_setting 'orthorhombic'
loop_
_space_group_symop_operation_xyz
x,y,z
-x,-y,1/2+z
x,-y,-z
-x,y,1/2-z
1/2+x,1/2+y,z
1/2-x,1/2-y,1/2+z
1/2+x,1/2-y,-z
1/2-x,1/2+y,1/2-z
loop_
_atom_site_type_symbol
_atom_site_label
_atom_site_fract_x
_atom_site_fract_y
_atom_site_fract_z
Si Si1 0.324996 0.673193 0.808599
Si Si2 0.126081 0.076428 0.316270
Si Si3 0.308477 0.193729 0.531933
Si Si4 0.811708 0.459927 0.252408
Si Si5 0.114043 0.090199 0.876648
Si Si6 0.828502 0.778547 0.790091
Si Si7 0.163152 0.301634 0.437550
Si Si8 0.110553 0.931393 0.515404
O O1 0.253762 0.697671 0.885187
O O2 0.215823 0.613781 0.780318
O O3 0.491747 0.636643 0.829651
O O4 0.300369 0.734027 0.753109
O O5 0.214324 0.145619 0.302640
O O6 0.056999 0.074004 0.399327
O O7 0.000000 0.073071 0.250000
O O8 0.236031 0.013124 0.306615
O O9 0.271979 0.262081 0.493582
O O10 0.494619 0.181944 0.528456
O O11 0.215032 0.132909 0.497370
O O12 0.702637 0.460413 0.177840
O O13 0.000000 0.471464 0.250000
O O14 0.252757 0.135207 0.906990
O O15 0.019998 0.067096 0.949477
O O16 0.858021 0.746455 0.868872
O O17 0.000000 0.776057 0.750000
O O18 0.199753 0.000000 0.500000
#
# Coordination Sequence:
#
# PCOD9321362 Si02
#       8
#     8   8   8   8   8   8   8   8
#     4  11  21  41  69 101 128 171 227 280 334 402
#     4  11  24  44  69  96 137 180 224 280 346 413
#     4  11  23  40  66  96 137 178 219 282 342 405
#     4  12  24  44  68 102 136 177 229 284 342 410
#     4  11  25  42  74 101 129 183 233 286 335 413
#     4  11  22  40  69 101 138 173 216 279 347 400
#     4  12  23  42  65 100 135 172 230 278 341 400
#     4  11  23  44  67  99 136 182 230 281 350 412
#
# _framework density 20.451729
#
# number of rings (size 3 to 8) (size 9 to 14) (size 15 to 20)
#    0.000    0.750    3.750    6.000    0.000    0.000 
#    2.250    3.125    0.000    1.500    0.000    0.000 
#    0.000    0.000    0.000    0.000    0.000    0.000 
#
# Total GULP energy -178658.854121 kJ/mol
# GULP energy per Si atom -5583.089191 kJ/mol
# Density = 2.040518 g / cm^3
# Si number density = 20.451729 Si / 1000 Ang^3
#
#
#
# Elastic Constant Matrix: (Units=GPa)
#
#
# Indices 1 2 3 4 5 6 
#
# 1 85.8644 -1.1411 30.3850 0.0000 0.0000 0.0000
# 2 -1.1411 87.5462 30.7650 0.0000 0.0000 0.0000
# 3 30.3850 30.7650 131.3491 0.0000 0.0000 0.0000
# 4 0.0000 0.0000 0.0000 37.4262 0.0000 0.0000
# 5 0.0000 0.0000 0.0000 0.0000 20.3123 0.0000
# 6 0.0000 0.0000 0.0000 0.0000 0.0000 -58.1687
#
#
#
# Elastic Compliance Matrix: (Units=1/GPa)
#
#
# Indices 1 2 3 4 5 6 
#
# 1 0.012823 0.001318 -0.003275 0.000000 0.000000 0.000000
# 2 0.001318 0.012583 -0.003252 0.000000 0.000000 0.000000
# 3 -0.003275 -0.003252 0.009133 0.000000 0.000000 0.000000
# 4 0.000000 0.000000 0.000000 0.026719 0.000000 0.000000
# 5 0.000000 0.000000 0.000000 0.000000 0.049231 0.000000
# 6 0.000000 0.000000 0.000000 0.000000 0.000000 -0.017191
#
#
# Mechanical properties :
#
#
# Convention : Reuss Voigt Hill
#
# Bulk Modulus (GPa) = 41.45963 47.19752 44.32858
# Shear Modulus (GPa) = 44.74074 16.23069 30.48571
#
# Velocity S-wave (km/s) = 4.68228 2.82016 3.86504
# Velocity P-wave (km/s) = 7.03901 5.80793 6.45289
#
# Compressibility (1/GPa) = 0.02411985
#
# Stress axis : x y z
#
# Youngs Moduli (GPa) = 77.98663 79.47534 109.49786
#
# Poissons Ratio (x) = -0.10475 0.35860
# Poissons Ratio (y) = -0.10279 0.35609
# Poissons Ratio (z) = 0.25541 0.25845
#
# Static dielectric constant tensor:
#      x y z
#    x 1.737960 0.000000 0.000000 
#    y 0.000000 1.723870 0.000000 
#    z 0.000000 0.000000 2.665010 
# 
# From -- ./inp_files/23898.got.cif
#   From: 2010.05.17/outbox.cif.g08.bks.cpg/sg20_12_cif.got.tgz:23898.got - 2010.06.03 22:52:26.
