data_PCOD9321047
_publ_section_title
;
Structure prediction by ZEFSAII (Michael W. Deem and Ramdas Pophale) SiO2 
 PCOD9321047
Probable space group: C 2 2 21
;
_chemical_formula_sum "Si O2"
_cell_formula_units_Z 32
_cell_length_a 10.251326
_cell_length_b 14.530325
_cell_length_c 9.434189
_cell_angle_alpha 90.000000
_cell_angle_beta 90.000000
_cell_angle_gamma 90.000000
_cell_volume 1405.270551
_symmetry_space_group_name_H-M "C 2 2 21"
_symmetry_group_IT_number 20
_symmetry_cell_setting 'orthorhombic'
loop_
_space_group_symop_operation_xyz
x,y,z
-x,-y,1/2+z
x,-y,-z
-x,y,1/2-z
1/2+x,1/2+y,z
1/2-x,1/2-y,1/2+z
1/2+x,1/2-y,-z
1/2-x,1/2+y,1/2-z
loop_
_atom_site_type_symbol
_atom_site_label
_atom_site_fract_x
_atom_site_fract_y
_atom_site_fract_z
Si Si1 0.124686 0.959646 0.654824
Si Si2 0.192027 0.254175 0.378751
Si Si3 0.871990 0.581173 0.673374
Si Si4 0.034101 0.684387 0.087613
O O1 0.157782 0.851575 0.654107
O O2 0.000000 0.976216 0.750000
O O3 0.096069 0.000000 0.500000
O O4 0.250683 0.016593 0.702505
O O5 0.158999 0.320521 0.247628
O O6 0.346382 0.257660 0.411689
O O7 0.096717 0.283495 0.507085
O O8 0.906668 0.602812 0.510073
O O9 0.000000 0.544968 0.750000
O O10 0.000000 0.664339 0.250000
#
# Coordination Sequence:
#
# PCOD9321047 Si02
#       4
#     8   8   8   8
#     4  12  27  49  72 111 148 185 245 303 363 437
#     4  11  25  47  75 105 148 194 239 300 368 438
#     4  10  24  49  71 103 146 191 241 296 362 438
#     4  11  23  42  75 105 140 194 242 292 361 432
#
# _framework density 22.771417
#
# number of rings (size 3 to 8) (size 9 to 14) (size 15 to 20)
#    0.000    1.000    2.500    3.750    3.500    1.000 
#    4.500    0.000    0.000    0.000    0.000    0.000 
#    0.000    0.000    0.000    0.000    0.000    0.000 
#
# Total GULP energy -89629.471319 kJ/mol
# GULP energy per Si atom -5601.841957 kJ/mol
# Density = 2.271959 g / cm^3
# Si number density = 22.771417 Si / 1000 Ang^3
#
#
#
# Elastic Constant Matrix: (Units=GPa)
#
#
# Indices 1 2 3 4 5 6 
#
# 1 130.6093 50.9196 70.7698 0.0000 0.0000 0.0000
# 2 50.9196 156.5247 62.9743 0.0000 0.0000 0.0000
# 3 70.7698 62.9743 128.1193 0.0000 0.0000 0.0000
# 4 0.0000 0.0000 0.0000 11.3126 0.0000 0.0000
# 5 0.0000 0.0000 0.0000 0.0000 48.0180 0.0000
# 6 0.0000 0.0000 0.0000 0.0000 0.0000 48.8760
#
#
#
# Elastic Compliance Matrix: (Units=1/GPa)
#
#
# Indices 1 2 3 4 5 6 
#
# 1 0.011180 -0.001436 -0.005470 0.000000 0.000000 0.000000
# 2 -0.001436 0.008148 -0.003212 0.000000 0.000000 0.000000
# 3 -0.005470 -0.003212 0.012405 0.000000 0.000000 0.000000
# 4 0.000000 0.000000 0.000000 0.088397 0.000000 0.000000
# 5 0.000000 0.000000 0.000000 0.000000 0.020826 0.000000
# 6 0.000000 0.000000 0.000000 0.000000 0.000000 0.020460
#
#
# Mechanical properties :
#
#
# Convention : Reuss Voigt Hill
#
# Bulk Modulus (GPa) = 86.97078 87.17565 87.07322
# Shear Modulus (GPa) = 26.95660 37.01398 31.98529
#
# Velocity S-wave (km/s) = 3.44436 4.03607 3.75190
# Velocity P-wave (km/s) = 7.35486 7.75151 7.55579
#
# Compressibility (1/GPa) = 0.01149811
#
# Stress axis : x y z
#
# Youngs Moduli (GPa) = 89.44490 122.72665 80.61251
#
# Poissons Ratio (x) = 0.17630 0.44091
# Poissons Ratio (y) = 0.12849 0.25889
# Poissons Ratio (z) = 0.48922 0.39415
#
# Static dielectric constant tensor:
#      x y z
#    x 1.920150 0.000000 0.000000 
#    y 0.000000 1.851170 0.000000 
#    z 0.000000 0.000000 1.844260 
# 
# From -- ./inp_files/6795.got.cif
#   From: 2010.05.17/outbox.cif.g08.bks.cpg/sg20_4_cif.got.tgz:6795.got - 2010.06.03 22:52:26.
