data_PCOD9321999
_publ_section_title
;
Structure prediction by ZEFSAII (Michael W. Deem and Ramdas Pophale) SiO2 
 PCOD9321999
Probable space group: C 2 2 21
;
_chemical_formula_sum "Si O2"
_cell_formula_units_Z 40
_cell_length_a 26.331023
_cell_length_b 5.471592
_cell_length_c 11.776836
_cell_angle_alpha 90.000000
_cell_angle_beta 90.000000
_cell_angle_gamma 90.000000
_cell_volume 1696.719557
_symmetry_space_group_name_H-M "C 2 2 21"
_symmetry_group_IT_number 20
_symmetry_cell_setting 'orthorhombic'
loop_
_space_group_symop_operation_xyz
x,y,z
-x,-y,1/2+z
x,-y,-z
-x,y,1/2-z
1/2+x,1/2+y,z
1/2-x,1/2-y,1/2+z
1/2+x,1/2-y,-z
1/2-x,1/2+y,1/2-z
loop_
_atom_site_type_symbol
_atom_site_label
_atom_site_fract_x
_atom_site_fract_y
_atom_site_fract_z
Si Si1 0.304577 0.888203 0.652629
Si Si2 0.617351 0.500000 0.500000
Si Si3 0.210154 0.197834 0.609271
Si Si4 0.707839 0.500000 0.000000
Si Si5 0.060615 0.944170 0.255328
Si Si6 0.405095 0.937510 0.367241
O O1 0.308798 0.736279 0.765410
O O2 0.323726 0.713367 0.553347
O O3 0.344943 0.101232 0.659915
O O4 0.247510 0.961129 0.616706
O O5 0.661596 0.704117 0.526381
O O6 0.584122 0.499181 0.383474
O O7 0.251948 0.405518 0.591831
O O8 0.071445 0.184832 0.178316
O O9 0.000000 0.918431 0.250000
O O10 0.080285 0.682859 0.205047
O O11 0.416320 0.000000 0.500000
#
# Coordination Sequence:
#
# PCOD9321999 Si02
#       6
#     8   4   8   4   8   8
#     4  12  26  42  70 109 159 203 262 313 397 488
#     4  12  28  50  81 116 162 211 284 332 422 488
#     4  12  25  42  68 112 153 210 252 326 382 493
#     4  12  24  40  69  96 162 203 258 298 388 462
#     4  12  31  57  85 119 155 215 279 359 412 481
#     4  12  29  51  84 117 163 212 269 331 422 489
#
# _framework density 23.574905000000001
#
# number of rings (size 3 to 8) (size 9 to 14) (size 15 to 20)
#    0.000    0.000    6.000    2.400   14.000    0.800 
#    0.000    0.000    0.000    0.000    0.000    0.000 
#    0.000    0.000    0.000    0.000    0.000    0.000 
#
# Total GULP energy -111434.340886 kJ/mol
# GULP energy per Si atom -5571.717044 kJ/mol
# Density = 2.352125 g / cm^3
# Si number density = 23.574905 Si / 1000 Ang^3
#
#
#
# Elastic Constant Matrix: (Units=GPa)
#
#
# Indices 1 2 3 4 5 6 
#
# 1 148.1735 27.5722 40.2969 0.0000 0.0000 0.0000
# 2 27.5722 115.4616 40.7095 0.0000 0.0000 0.0000
# 3 40.2969 40.7095 127.5468 0.0000 0.0000 0.0000
# 4 0.0000 0.0000 0.0000 46.7194 0.0000 0.0000
# 5 0.0000 0.0000 0.0000 0.0000 34.4703 0.0000
# 6 0.0000 0.0000 0.0000 0.0000 0.0000 18.2206
#
#
#
# Elastic Compliance Matrix: (Units=1/GPa)
#
#
# Indices 1 2 3 4 5 6 
#
# 1 0.007500 -0.001077 -0.002026 0.000000 0.000000 0.000000
# 2 -0.001077 0.009914 -0.002824 0.000000 0.000000 0.000000
# 3 -0.002026 -0.002824 0.009382 0.000000 0.000000 0.000000
# 4 0.000000 0.000000 0.000000 0.021404 0.000000 0.000000
# 5 0.000000 0.000000 0.000000 0.000000 0.029010 0.000000
# 6 0.000000 0.000000 0.000000 0.000000 0.000000 0.054883
#
#
# Mechanical properties :
#
#
# Convention : Reuss Voigt Hill
#
# Bulk Modulus (GPa) = 66.92448 67.59322 67.25885
# Shear Modulus (GPa) = 33.57342 38.72229 36.14785
#
# Velocity S-wave (km/s) = 3.77784 4.05720 3.92001
# Velocity P-wave (km/s) = 6.89051 7.11911 7.00574
#
# Compressibility (1/GPa) = 0.01494222
#
# Stress axis : x y z
#
# Youngs Moduli (GPa) = 133.33025 100.87047 106.59084
#
# Poissons Ratio (x) = 0.10861 0.21595
# Poissons Ratio (y) = 0.14356 0.30101
# Poissons Ratio (z) = 0.27012 0.28486
#
# Static dielectric constant tensor:
#      x y z
#    x 1.857900 0.000000 0.000000 
#    y 0.000000 1.975090 0.000000 
#    z 0.000000 0.000000 2.244550 
# 
# From -- ./inp_files/16888.got.cif
#   From: 2010.05.17/outbox.cif.g08.bks.cpg/sg20_9_cif.got.tgz:16888.got - 2010.06.03 22:52:26.
