data_PCOD9321885
_publ_section_title
;
Structure prediction by ZEFSAII (Michael W. Deem and Ramdas Pophale) SiO2 
 PCOD9321885
Probable space group: C 2 2 21
;
_chemical_formula_sum "Si O2"
_cell_formula_units_Z 52
_cell_length_a 18.933932
_cell_length_b 6.710646
_cell_length_c 18.269389
_cell_angle_alpha 90.000000
_cell_angle_beta 90.000000
_cell_angle_gamma 90.000000
_cell_volume 2321.288745
_symmetry_space_group_name_H-M "C 2 2 21"
_symmetry_group_IT_number 20
_symmetry_cell_setting 'orthorhombic'
loop_
_space_group_symop_operation_xyz
x,y,z
-x,-y,1/2+z
x,-y,-z
-x,y,1/2-z
1/2+x,1/2+y,z
1/2-x,1/2-y,1/2+z
1/2+x,1/2-y,-z
1/2-x,1/2+y,1/2-z
loop_
_atom_site_type_symbol
_atom_site_label
_atom_site_fract_x
_atom_site_fract_y
_atom_site_fract_z
Si Si1 0.095402 0.496021 0.377519
Si Si2 0.605850 0.546222 0.837623
Si Si3 0.676411 0.790047 0.253099
Si Si4 0.019426 0.875561 0.574602
Si Si5 0.790602 0.632735 0.340365
Si Si6 0.000000 0.325529 0.750000
Si Si7 0.656006 0.420776 0.416362
O O1 0.151853 0.368138 0.331773
O O2 0.050148 0.348902 0.430188
O O3 0.040638 0.555654 0.313446
O O4 0.138438 0.684325 0.410606
O O5 0.642188 0.405598 0.778785
O O6 0.555190 0.407713 0.886608
O O7 0.663317 0.692002 0.877242
O O8 0.555494 0.692002 0.793163
O O9 0.757728 0.736943 0.267930
O O10 0.662212 0.957768 0.192845
O O11 0.012913 0.000000 0.500000
O O12 0.083421 0.987949 0.616655
O O13 0.727080 0.512866 0.380781
O O14 0.658926 0.500000 0.500000
#
# Coordination Sequence:
#
# PCOD9321885 Si02
#       7
#     8   8   8   8   8   4   8
#     4  12  23  45  75 105 142 188 249 309 372 449
#     4  12  25  43  69 108 156 187 246 309 380 452
#     4  12  23  41  70 103 142 190 235 304 379 442
#     4  11  26  48  71 102 143 202 255 301 367 451
#     4  12  24  44  66 110 148 188 242 303 378 449
#     4  12  22  42  68 112 138 182 232 306 380 436
#     4  11  26  48  72 104 143 201 255 299 375 458
#
# _framework density 22.401349
#
# number of rings (size 3 to 8) (size 9 to 14) (size 15 to 20)
#    0.000    0.308    6.154    3.692    0.000    2.462 
#    2.769    0.000    0.000    0.000    0.000    0.000 
#    0.000    0.000    0.000    0.000    0.000    0.000 
#
# Total GULP energy -144997.808587 kJ/mol
# GULP energy per Si atom -5576.838792 kJ/mol
# Density = 2.235036 g / cm^3
# Si number density = 22.401349 Si / 1000 Ang^3
#
#
#
# Elastic Constant Matrix: (Units=GPa)
#
#
# Indices 1 2 3 4 5 6 
#
# 1 100.2771 53.8732 27.3786 0.0000 0.0000 0.0000
# 2 53.8732 147.0635 47.3731 0.0000 0.0000 0.0000
# 3 27.3786 47.3731 76.9777 0.0000 0.0000 0.0000
# 4 0.0000 0.0000 0.0000 30.7830 0.0000 0.0000
# 5 0.0000 0.0000 0.0000 0.0000 29.0222 0.0000
# 6 0.0000 0.0000 0.0000 0.0000 0.0000 35.8508
#
#
#
# Elastic Compliance Matrix: (Units=1/GPa)
#
#
# Indices 1 2 3 4 5 6 
#
# 1 0.012672 -0.003979 -0.002058 0.000000 0.000000 0.000000
# 2 -0.003979 0.009731 -0.004573 0.000000 0.000000 0.000000
# 3 -0.002058 -0.004573 0.016537 0.000000 0.000000 0.000000
# 4 0.000000 0.000000 0.000000 0.032485 0.000000 0.000000
# 5 0.000000 0.000000 0.000000 0.000000 0.034456 0.000000
# 6 0.000000 0.000000 0.000000 0.000000 0.000000 0.027893
#
#
# Mechanical properties :
#
#
# Convention : Reuss Voigt Hill
#
# Bulk Modulus (GPa) = 56.43689 64.61869 60.52779
# Shear Modulus (GPa) = 31.07478 32.17742 31.62610
#
# Velocity S-wave (km/s) = 3.72853 3.79411 3.76146
# Velocity P-wave (km/s) = 6.61696 6.93557 6.77814
#
# Compressibility (1/GPa) = 0.01771891
#
# Stress axis : x y z
#
# Youngs Moduli (GPa) = 78.91366 102.76936 60.46985
#
# Poissons Ratio (x) = 0.40893 0.12446
# Poissons Ratio (y) = 0.31400 0.27653
# Poissons Ratio (z) = 0.16243 0.46997
#
# Static dielectric constant tensor:
#      x y z
#    x 1.902580 0.000000 0.000000 
#    y 0.000000 1.922920 0.000000 
#    z 0.000000 0.000000 1.877140 
# 
# From -- ./inp_files/27916.got.cif
#   From: 2010.05.17/outbox.cif.g08.bks.cpg/sg20_14_cif.got.tgz:27916.got - 2010.06.03 22:52:26.
