data_PCOD9321074
_publ_section_title
;
Structure prediction by ZEFSAII (Michael W. Deem and Ramdas Pophale) SiO2 
 PCOD9321074
Probable space group: C 2 2 21
;
_chemical_formula_sum "Si O2"
_cell_formula_units_Z 40
_cell_length_a 13.169974
_cell_length_b 8.757964
_cell_length_c 16.334218
_cell_angle_alpha 90.000000
_cell_angle_beta 90.000000
_cell_angle_gamma 90.000000
_cell_volume 1884.023956
_symmetry_space_group_name_H-M "C 2 2 21"
_symmetry_group_IT_number 20
_symmetry_cell_setting 'orthorhombic'
loop_
_space_group_symop_operation_xyz
x,y,z
-x,-y,1/2+z
x,-y,-z
-x,y,1/2-z
1/2+x,1/2+y,z
1/2-x,1/2-y,1/2+z
1/2+x,1/2-y,-z
1/2-x,1/2+y,1/2-z
loop_
_atom_site_type_symbol
_atom_site_label
_atom_site_fract_x
_atom_site_fract_y
_atom_site_fract_z
Si Si1 0.874506 0.621340 0.933543
Si Si2 0.740140 0.792657 0.803901
Si Si3 0.887559 0.959339 0.213332
Si Si4 0.027595 0.866891 0.449682
Si Si5 0.541290 0.914930 0.842914
O O1 0.791172 0.681726 0.870402
O O2 0.970774 0.539249 0.888438
O O3 0.834326 0.500000 0.000000
O O4 0.914672 0.764165 0.984790
O O5 0.674158 0.686670 0.744744
O O6 0.663141 0.924034 0.837436
O O7 0.830023 0.886667 0.761944
O O8 0.898660 0.948270 0.115548
O O9 0.000000 0.961693 0.250000
O O10 0.970310 0.743727 0.393237
O O11 0.970760 0.000000 0.500000
O O12 0.500000 0.907603 0.750000
#
# Coordination Sequence:
#
# PCOD9321074 Si02
#       5
#     8   8   8   8   8
#     4  10  25  43  69 102 140 177 227 293 348 409
#     4  12  24  44  74 101 131 189 236 277 349 420
#     4  12  26  47  70 102 140 183 236 287 341 424
#     4  11  21  47  66  99 152 174 223 308 340 400
#     4  11  22  46  71  96 139 184 229 286 345 416
#
# _framework density 21.231154
#
# number of rings (size 3 to 8) (size 9 to 14) (size 15 to 20)
#    0.000    0.800    6.000    1.200    2.800    3.200 
#   10.800    0.000    0.000    0.000    0.000    0.000 
#    0.000    0.000    0.000    0.000    0.000    0.000 
#
# Total GULP energy -111609.378893 kJ/mol
# GULP energy per Si atom -5580.468945 kJ/mol
# Density = 2.118283 g / cm^3
# Si number density = 21.231154 Si / 1000 Ang^3
#
#
#
# Elastic Constant Matrix: (Units=GPa)
#
#
# Indices 1 2 3 4 5 6 
#
# 1 109.8038 54.4993 37.4493 0.0000 0.0000 0.0000
# 2 54.4993 89.9176 51.7230 0.0000 0.0000 0.0000
# 3 37.4493 51.7230 107.7969 0.0000 0.0000 0.0000
# 4 0.0000 0.0000 0.0000 17.4367 0.0000 0.0000
# 5 0.0000 0.0000 0.0000 0.0000 20.7576 0.0000
# 6 0.0000 0.0000 0.0000 0.0000 0.0000 33.6084
#
#
#
# Elastic Compliance Matrix: (Units=1/GPa)
#
#
# Indices 1 2 3 4 5 6 
#
# 1 0.013107 -0.007355 -0.001024 0.000000 0.000000 0.000000
# 2 -0.007355 0.019488 -0.006796 0.000000 0.000000 0.000000
# 3 -0.001024 -0.006796 0.012893 0.000000 0.000000 0.000000
# 4 0.000000 0.000000 0.000000 0.057350 0.000000 0.000000
# 5 0.000000 0.000000 0.000000 0.000000 0.048175 0.000000
# 6 0.000000 0.000000 0.000000 0.000000 0.000000 0.029754
#
#
# Mechanical properties :
#
#
# Convention : Reuss Voigt Hill
#
# Bulk Modulus (GPa) = 66.05687 66.09573 66.07630
# Shear Modulus (GPa) = 23.13053 25.28366 24.20709
#
# Velocity S-wave (km/s) = 3.30428 3.45465 3.38030
# Velocity P-wave (km/s) = 6.76302 6.86381 6.81360
#
# Compressibility (1/GPa) = 0.01513847
#
# Stress axis : x y z
#
# Youngs Moduli (GPa) = 76.29484 51.31316 77.55975
#
# Poissons Ratio (x) = 0.37740 0.07946
# Poissons Ratio (y) = 0.56114 0.52707
# Poissons Ratio (z) = 0.07816 0.34871
#
# Static dielectric constant tensor:
#      x y z
#    x 1.783250 0.000000 0.000000 
#    y 0.000000 1.795220 0.000000 
#    z 0.000000 0.000000 1.781640 
# 
# From -- ./inp_files/18507.got.cif
#   From: 2010.05.17/outbox.cif.g08.bks.cpg/sg20_10_cif.got.tgz:18507.got - 2010.06.03 22:52:26.
