data_PCOD9321082
_publ_section_title
;
Structure prediction by ZEFSAII (Michael W. Deem and Ramdas Pophale) SiO2 
 PCOD9321082
Probable space group: C 2 2 21
;
_chemical_formula_sum "Si O2"
_cell_formula_units_Z 24
_cell_length_a 8.570230
_cell_length_b 22.772362
_cell_length_c 4.997330
_cell_angle_alpha 90.000000
_cell_angle_beta 90.000000
_cell_angle_gamma 90.000000
_cell_volume 975.300811
_symmetry_space_group_name_H-M "C 2 2 21"
_symmetry_group_IT_number 20
_symmetry_cell_setting 'orthorhombic'
loop_
_space_group_symop_operation_xyz
x,y,z
-x,-y,1/2+z
x,-y,-z
-x,y,1/2-z
1/2+x,1/2+y,z
1/2-x,1/2-y,1/2+z
1/2+x,1/2-y,-z
1/2-x,1/2+y,1/2-z
loop_
_atom_site_type_symbol
_atom_site_label
_atom_site_fract_x
_atom_site_fract_y
_atom_site_fract_z
Si Si1 0.860935 0.467269 0.697662
Si Si2 0.814415 0.784210 0.271130
Si Si3 0.319646 0.420050 0.328532
O O1 0.789315 0.540872 0.626605
O O2 0.000000 0.417908 0.750000
O O3 0.967835 0.500000 0.000000
O O4 0.714942 0.442994 0.874115
O O5 0.761166 0.744956 0.515568
O O6 0.773085 0.852752 0.301151
O O7 0.000000 0.783162 0.250000
O O8 0.500000 0.427634 0.250000
#
# Coordination Sequence:
#
# PCOD9321082 Si02
#       3
#     8   8   8
#     4  11  23  43  69 106 141 182 232 288 357 427
#     4  11  26  49  74 105 142 192 245 299 363 427
#     4  10  25  44  67 103 144 182 232 295 356 425
#
# _framework density 24.607792
#
# number of rings (size 3 to 8) (size 9 to 14) (size 15 to 20)
#    0.000    1.333    3.333    1.000    9.333    4.000 
#    0.000    0.000    0.000    0.000    0.000    0.000 
#    0.000    0.000    0.000    0.000    0.000    0.000 
#
# Total GULP energy -66901.789724 kJ/mol
# GULP energy per Si atom -5575.149144 kJ/mol
# Density = 2.455178 g / cm^3
# Si number density = 24.607792 Si / 1000 Ang^3
#
#
#
# Elastic Constant Matrix: (Units=GPa)
#
#
# Indices 1 2 3 4 5 6 
#
# 1 129.6402 89.0203 80.4435 0.0000 0.0000 0.0000
# 2 89.0203 213.0519 116.5018 0.0000 0.0000 0.0000
# 3 80.4435 116.5018 263.7117 0.0000 0.0000 0.0000
# 4 0.0000 0.0000 0.0000 39.5122 0.0000 0.0000
# 5 0.0000 0.0000 0.0000 0.0000 37.3062 0.0000
# 6 0.0000 0.0000 0.0000 0.0000 0.0000 41.6256
#
#
#
# Elastic Compliance Matrix: (Units=1/GPa)
#
#
# Indices 1 2 3 4 5 6 
#
# 1 0.011442 -0.003787 -0.001817 0.000000 0.000000 0.000000
# 2 -0.003787 0.007442 -0.002133 0.000000 0.000000 0.000000
# 3 -0.001817 -0.002133 0.005288 0.000000 0.000000 0.000000
# 4 0.000000 0.000000 0.000000 0.025309 0.000000 0.000000
# 5 0.000000 0.000000 0.000000 0.000000 0.026805 0.000000
# 6 0.000000 0.000000 0.000000 0.000000 0.000000 0.024024
#
#
# Mechanical properties :
#
#
# Convention : Reuss Voigt Hill
#
# Bulk Modulus (GPa) = 114.95922 130.92613 122.94268
# Shear Modulus (GPa) = 42.12900 45.05134 43.59017
#
# Velocity S-wave (km/s) = 4.14214 4.28340 4.21336
# Velocity P-wave (km/s) = 8.34832 8.81952 8.58716
#
# Compressibility (1/GPa) = 0.00869874
#
# Stress axis : x y z
#
# Youngs Moduli (GPa) = 87.39959 134.36904 189.09083
#
# Poissons Ratio (x) = 0.50886 0.34361
# Poissons Ratio (y) = 0.33099 0.40325
# Poissons Ratio (z) = 0.15882 0.28655
#
# Static dielectric constant tensor:
#      x y z
#    x 2.046020 0.000000 0.000000 
#    y 0.000000 1.965830 0.000000 
#    z 0.000000 0.000000 3.277860 
# 
# From -- ./inp_files/325.got.cif
#   From: 2010.05.17/outbox.cif.g08.bks.cpg/sg20_1_cif.got.tgz:325.got - 2010.06.03 22:52:26.
