data_PCOD9321740
_publ_section_title
;
Structure prediction by ZEFSAII (Michael W. Deem and Ramdas Pophale) SiO2 
 PCOD9321740
Probable space group: C 2 2 21
;
_chemical_formula_sum "Si O2"
_cell_formula_units_Z 56
_cell_length_a 15.727539
_cell_length_b 11.598132
_cell_length_c 14.275385
_cell_angle_alpha 90.000000
_cell_angle_beta 90.000000
_cell_angle_gamma 90.000000
_cell_volume 2603.974025
_symmetry_space_group_name_H-M "C 2 2 21"
_symmetry_group_IT_number 20
_symmetry_cell_setting 'orthorhombic'
loop_
_space_group_symop_operation_xyz
x,y,z
-x,-y,1/2+z
x,-y,-z
-x,y,1/2-z
1/2+x,1/2+y,z
1/2-x,1/2-y,1/2+z
1/2+x,1/2-y,-z
1/2-x,1/2+y,1/2-z
loop_
_atom_site_type_symbol
_atom_site_label
_atom_site_fract_x
_atom_site_fract_y
_atom_site_fract_z
Si Si1 0.319940 0.143156 0.129679
Si Si2 0.214506 0.219423 0.302023
Si Si3 0.912089 0.057835 0.099315
Si Si4 0.308858 0.500000 0.500000
Si Si5 0.118435 0.790087 0.108419
Si Si6 0.534374 0.788600 0.493964
Si Si7 0.578948 0.924158 0.319422
Si Si8 0.000000 0.894683 0.250000
O O1 0.261666 0.209131 0.203361
O O2 0.253830 0.072311 0.066032
O O3 0.384806 0.213749 0.064056
O O4 0.377646 0.048597 0.182841
O O5 0.163563 0.106581 0.335478
O O6 0.288478 0.239717 0.377457
O O7 0.149906 0.326673 0.299876
O O8 0.965392 0.972057 0.164655
O O9 0.963401 0.172757 0.068861
O O10 0.887158 0.000000 0.000000
O O11 0.366795 0.588465 0.556838
O O12 0.052676 0.712566 0.051046
O O13 0.074630 0.817030 0.207674
O O14 0.546929 0.894997 0.424168
O O15 0.500000 0.914966 0.250000
#
# Coordination Sequence:
#
# PCOD9321740 Si02
#       8
#     8   8   8   4   8   8   8   4
#     4  12  24  48  71  97 144 182 231 290 348 426
#     4  11  27  43  70 105 136 180 232 292 350 411
#     4  11  24  46  68 105 140 179 234 298 352 416
#     4  12  22  44  70  94 134 184 228 280 352 406
#     4  12  24  43  68 105 130 183 234 283 350 409
#     4  11  24  44  70 100 138 187 229 284 350 429
#     4  11  26  48  67 102 140 186 232 281 357 427
#     4  12  24  44  72  98 140 180 242 288 360 416
#
# _framework density 21.505590999999999
#
# number of rings (size 3 to 8) (size 9 to 14) (size 15 to 20)
#    0.000    0.571    4.286    3.429    8.000    0.000 
#    2.571    0.000    0.000    0.000    0.000    0.000 
#    0.000    0.000    0.000    0.000    0.000    0.000 
#
# Total GULP energy -156708.274804 kJ/mol
# GULP energy per Si atom -5596.724100 kJ/mol
# Density = 2.145664 g / cm^3
# Si number density = 21.505591 Si / 1000 Ang^3
#
#
#
# Elastic Constant Matrix: (Units=GPa)
#
#
# Indices 1 2 3 4 5 6 
#
# 1 134.6118 27.0043 49.5810 0.0000 0.0000 0.0000
# 2 27.0043 43.8926 10.0796 0.0000 0.0000 0.0000
# 3 49.5810 10.0796 96.1637 0.0000 0.0000 0.0000
# 4 0.0000 0.0000 0.0000 27.3453 0.0000 0.0000
# 5 0.0000 0.0000 0.0000 0.0000 37.0313 0.0000
# 6 0.0000 0.0000 0.0000 0.0000 0.0000 27.8337
#
#
#
# Elastic Compliance Matrix: (Units=1/GPa)
#
#
# Indices 1 2 3 4 5 6 
#
# 1 0.010210 -0.005198 -0.004719 0.000000 0.000000 0.000000
# 2 -0.005198 0.025991 -0.000044 0.000000 0.000000 0.000000
# 3 -0.004719 -0.000044 0.012837 0.000000 0.000000 0.000000
# 4 0.000000 0.000000 0.000000 0.036569 0.000000 0.000000
# 5 0.000000 0.000000 0.000000 0.000000 0.027004 0.000000
# 6 0.000000 0.000000 0.000000 0.000000 0.000000 0.035928
#
#
# Mechanical properties :
#
#
# Convention : Reuss Voigt Hill
#
# Bulk Modulus (GPa) = 34.34684 49.77756 42.06220
# Shear Modulus (GPa) = 28.06373 30.97562 29.51967
#
# Velocity S-wave (km/s) = 3.61633 3.79931 3.70895
# Velocity P-wave (km/s) = 5.78298 6.51483 6.15978
#
# Compressibility (1/GPa) = 0.02911476
#
# Stress axis : x y z
#
# Youngs Moduli (GPa) = 97.94641 38.47505 77.90130
#
# Poissons Ratio (x) = 0.19998 0.36763
# Poissons Ratio (y) = 0.50909 0.00346
# Poissons Ratio (z) = 0.46223 0.00171
#
# Static dielectric constant tensor:
#      x y z
#    x 1.742830 0.000000 0.000000 
#    y 0.000000 1.773380 0.000000 
#    z 0.000000 0.000000 1.836560 
# 
# From -- ./inp_files/20099.got.cif
#   From: 2010.05.17/outbox.cif.g08.bks.cpg/sg20_11_cif.got.tgz:20099.got - 2010.06.03 22:52:26.
