data_PCOD9321423
_publ_section_title
;
Structure prediction by ZEFSAII (Michael W. Deem and Ramdas Pophale) SiO2 
 PCOD9321423
Probable space group: C 2 2 21
;
_chemical_formula_sum "Si O2"
_cell_formula_units_Z 40
_cell_length_a 10.009803
_cell_length_b 18.509316
_cell_length_c 10.464762
_cell_angle_alpha 90.000000
_cell_angle_beta 90.000000
_cell_angle_gamma 90.000000
_cell_volume 1938.854665
_symmetry_space_group_name_H-M "C 2 2 21"
_symmetry_group_IT_number 20
_symmetry_cell_setting 'orthorhombic'
loop_
_space_group_symop_operation_xyz
x,y,z
-x,-y,1/2+z
x,-y,-z
-x,y,1/2-z
1/2+x,1/2+y,z
1/2-x,1/2-y,1/2+z
1/2+x,1/2-y,-z
1/2-x,1/2+y,1/2-z
loop_
_atom_site_type_symbol
_atom_site_label
_atom_site_fract_x
_atom_site_fract_y
_atom_site_fract_z
Si Si1 0.732301 0.098997 0.537277
Si Si2 0.000258 0.689485 0.598690
Si Si3 0.142110 0.519452 0.298727
Si Si4 0.287156 0.915445 0.541639
Si Si5 0.001212 0.858850 0.903899
O O1 0.653727 0.172476 0.560581
O O2 0.637029 0.061612 0.431550
O O3 0.875453 0.102269 0.472708
O O4 0.731647 0.049768 0.664807
O O5 0.974592 0.773638 0.574871
O O6 0.000000 0.677287 0.750000
O O7 0.892499 0.636848 0.529825
O O8 0.186643 0.576588 0.193097
O O9 0.000000 0.492050 0.250000
O O10 0.137309 0.884731 0.533356
O O11 0.295943 0.000000 0.500000
O O12 0.000000 0.872112 0.750000
#
# Coordination Sequence:
#
# PCOD9321423 Si02
#       5
#     8   8   8   8   8
#     4  11  22  41  69  95 135 172 227 281 347 408
#     4  11  24  45  68  96 137 186 235 282 339 422
#     4  11  22  39  69 100 125 176 226 284 338 414
#     4  12  24  41  69  99 136 172 233 285 343 408
#     4  11  25  43  65 100 142 181 223 285 361 416
#
# _framework density 20.630735999999999
#
# number of rings (size 3 to 8) (size 9 to 14) (size 15 to 20)
#    0.000    0.800    4.000    4.200    2.800    0.000 
#    0.000    3.000    4.400    0.000    0.000    0.000 
#    0.000    0.000    0.000    0.000    0.000    0.000 
#
# Total GULP energy -111570.880107 kJ/mol
# GULP energy per Si atom -5578.544005 kJ/mol
# Density = 2.058378 g / cm^3
# Si number density = 20.630736 Si / 1000 Ang^3
#
#
#
# Elastic Constant Matrix: (Units=GPa)
#
#
# Indices 1 2 3 4 5 6 
#
# 1 151.6850 47.2372 46.6264 0.0000 0.0000 0.0000
# 2 47.2372 86.4671 28.5536 0.0000 0.0000 0.0000
# 3 46.6264 28.5536 83.3987 0.0000 0.0000 0.0000
# 4 0.0000 0.0000 0.0000 22.1969 0.0000 0.0000
# 5 0.0000 0.0000 0.0000 0.0000 25.7801 0.0000
# 6 0.0000 0.0000 0.0000 0.0000 0.0000 15.1381
#
#
#
# Elastic Compliance Matrix: (Units=1/GPa)
#
#
# Indices 1 2 3 4 5 6 
#
# 1 0.008860 -0.003613 -0.003717 0.000000 0.000000 0.000000
# 2 -0.003613 0.014513 -0.002949 0.000000 0.000000 0.000000
# 3 -0.003717 -0.002949 0.015078 0.000000 0.000000 0.000000
# 4 0.000000 0.000000 0.000000 0.045051 0.000000 0.000000
# 5 0.000000 0.000000 0.000000 0.000000 0.038790 0.000000
# 6 0.000000 0.000000 0.000000 0.000000 0.000000 0.066058
#
#
# Mechanical properties :
#
#
# Convention : Reuss Voigt Hill
#
# Bulk Modulus (GPa) = 55.88421 62.93170 59.40795
# Shear Modulus (GPa) = 23.26969 25.89858 24.58413
#
# Velocity S-wave (km/s) = 3.36209 3.54692 3.45574
# Velocity P-wave (km/s) = 6.49755 6.88072 6.69188
#
# Compressibility (1/GPa) = 0.01789414
#
# Stress axis : x y z
#
# Youngs Moduli (GPa) = 112.86422 68.90527 66.32168
#
# Poissons Ratio (x) = 0.24896 0.24649
# Poissons Ratio (y) = 0.40779 0.19557
# Poissons Ratio (z) = 0.41946 0.20319
#
# Static dielectric constant tensor:
#      x y z
#    x 1.755550 0.000000 0.000000 
#    y 0.000000 1.785820 0.000000 
#    z 0.000000 0.000000 1.782370 
# 
# From -- ./inp_files/12897.got.cif
#   From: 2010.05.17/outbox.cif.g08.bks.cpg/sg20_7_cif.got.tgz:12897.got - 2010.06.03 22:52:26.
