data_PCOD9321774
_publ_section_title
;
Structure prediction by ZEFSAII (Michael W. Deem and Ramdas Pophale) SiO2 
 PCOD9321774
Probable space group: C 2 2 21
;
_chemical_formula_sum "Si O2"
_cell_formula_units_Z 48
_cell_length_a 19.219472
_cell_length_b 14.456589
_cell_length_c 8.137132
_cell_angle_alpha 90.000000
_cell_angle_beta 90.000000
_cell_angle_gamma 90.000000
_cell_volume 2260.885913
_symmetry_space_group_name_H-M "C 2 2 21"
_symmetry_group_IT_number 20
_symmetry_cell_setting 'orthorhombic'
loop_
_space_group_symop_operation_xyz
x,y,z
-x,-y,1/2+z
x,-y,-z
-x,y,1/2-z
1/2+x,1/2+y,z
1/2-x,1/2-y,1/2+z
1/2+x,1/2-y,-z
1/2-x,1/2+y,1/2-z
loop_
_atom_site_type_symbol
_atom_site_label
_atom_site_fract_x
_atom_site_fract_y
_atom_site_fract_z
Si Si1 0.207816 0.372961 0.316149
Si Si2 0.565454 0.085047 0.869831
Si Si3 0.790747 0.029240 0.181494
Si Si4 0.575539 0.550077 0.826920
Si Si5 0.428887 0.769053 0.647708
Si Si6 0.716540 0.199837 0.315651
O O1 0.133174 0.397608 0.241420
O O2 0.249477 0.468054 0.312913
O O3 0.251375 0.301934 0.202077
O O4 0.207071 0.329135 0.496138
O O5 0.500000 0.068485 0.750000
O O6 0.558287 0.178505 0.977228
O O7 0.572841 0.000000 0.000000
O O8 0.771725 0.133488 0.224387
O O9 0.869605 0.997532 0.205426
O O10 0.766792 0.000000 0.000000
O O11 0.500000 0.538881 0.750000
O O12 0.586218 0.659374 0.857941
O O13 0.581540 0.500000 0.000000
O O14 0.500000 0.782229 0.750000
O O15 0.358773 0.809432 0.729718
#
# Coordination Sequence:
#
# PCOD9321774 Si02
#       6
#     8   8   8   8   8   8
#     4  12  25  44  68 106 138 188 235 292 356 421
#     4  12  27  47  72 103 144 189 244 294 362 427
#     4  12  25  44  70 102 140 184 232 289 350 418
#     4  11  25  45  69 100 139 184 232 286 355 420
#     4  11  24  46  73 104 144 184 236 295 352 423
#     4  12  25  44  72 103 147 184 238 292 358 428
#
# _framework density 21.230616000000001
#
# number of rings (size 3 to 8) (size 9 to 14) (size 15 to 20)
#    0.000    0.333    1.667    8.000    2.333    2.000 
#    0.000    0.000    0.000    0.000    0.000    0.000 
#    0.000    0.000    0.000    0.000    0.000    0.000 
#
# Total GULP energy -134323.146283 kJ/mol
# GULP energy per Si atom -5596.797762 kJ/mol
# Density = 2.118229 g / cm^3
# Si number density = 21.230616 Si / 1000 Ang^3
#
#
#
# Elastic Constant Matrix: (Units=GPa)
#
#
# Indices 1 2 3 4 5 6 
#
# 1 112.8294 31.4794 36.6732 0.0000 0.0000 0.0000
# 2 31.4794 64.6691 15.9822 0.0000 0.0000 0.0000
# 3 36.6732 15.9822 121.2611 0.0000 0.0000 0.0000
# 4 0.0000 0.0000 0.0000 28.5689 0.0000 0.0000
# 5 0.0000 0.0000 0.0000 0.0000 14.6576 0.0000
# 6 0.0000 0.0000 0.0000 0.0000 0.0000 50.4610
#
#
#
# Elastic Compliance Matrix: (Units=1/GPa)
#
#
# Indices 1 2 3 4 5 6 
#
# 1 0.011063 -0.004712 -0.002725 0.000000 0.000000 0.000000
# 2 -0.004712 0.017991 -0.000946 0.000000 0.000000 0.000000
# 3 -0.002725 -0.000946 0.009195 0.000000 0.000000 0.000000
# 4 0.000000 0.000000 0.000000 0.035003 0.000000 0.000000
# 5 0.000000 0.000000 0.000000 0.000000 0.068224 0.000000
# 6 0.000000 0.000000 0.000000 0.000000 0.000000 0.019817
#
#
# Mechanical properties :
#
#
# Convention : Reuss Voigt Hill
#
# Bulk Modulus (GPa) = 46.54698 51.89214 49.21956
# Shear Modulus (GPa) = 26.99479 33.04581 30.02030
#
# Velocity S-wave (km/s) = 3.56968 3.94955 3.76441
# Velocity P-wave (km/s) = 6.24197 6.73007 6.49061
#
# Compressibility (1/GPa) = 0.02148367
#
# Stress axis : x y z
#
# Youngs Moduli (GPa) = 90.38959 55.58398 108.74940
#
# Poissons Ratio (x) = 0.26191 0.29633
# Poissons Ratio (y) = 0.42591 0.10289
# Poissons Ratio (z) = 0.24630 0.05259
#
# Static dielectric constant tensor:
#      x y z
#    x 2.042820 0.000000 0.000000 
#    y 0.000000 1.789390 0.000000 
#    z 0.000000 0.000000 1.622790 
# 
# From -- ./inp_files/9345.got.cif
#   From: 2010.05.17/outbox.cif.g08.bks.cpg/sg20_5_cif.got.tgz:9345.got - 2010.06.03 22:52:26.
