data_PCOD9321881
_publ_section_title
;
Structure prediction by ZEFSAII (Michael W. Deem and Ramdas Pophale) SiO2 
 PCOD9321881
Probable space group: C 2 2 21
;
_chemical_formula_sum "Si O2"
_cell_formula_units_Z 32
_cell_length_a 13.709596
_cell_length_b 11.718234
_cell_length_c 7.589939
_cell_angle_alpha 90.000000
_cell_angle_beta 90.000000
_cell_angle_gamma 90.000000
_cell_volume 1219.340808
_symmetry_space_group_name_H-M "C 2 2 21"
_symmetry_group_IT_number 20
_symmetry_cell_setting 'orthorhombic'
loop_
_space_group_symop_operation_xyz
x,y,z
-x,-y,1/2+z
x,-y,-z
-x,y,1/2-z
1/2+x,1/2+y,z
1/2-x,1/2-y,1/2+z
1/2+x,1/2-y,-z
1/2-x,1/2+y,1/2-z
loop_
_atom_site_type_symbol
_atom_site_label
_atom_site_fract_x
_atom_site_fract_y
_atom_site_fract_z
Si Si1 0.591134 0.652075 0.036824
Si Si2 0.620414 0.379821 0.552721
Si Si3 0.697127 0.875226 0.541912
Si Si4 0.592953 0.890008 0.881531
O O1 0.487502 0.614726 0.961638
O O2 0.601638 0.618463 0.239140
O O3 0.695060 0.616962 0.956191
O O4 0.588121 0.787263 0.017763
O O5 0.670434 0.500000 0.500000
O O6 0.658487 0.251254 0.509827
O O7 0.685691 0.874212 0.753671
O O8 0.649209 0.000000 0.500000
O O9 0.500000 0.886248 0.750000
O O10 0.594877 0.000000 0.000000
#
# Coordination Sequence:
#
# PCOD9321881 Si02
#       4
#     8   8   8   8
#     4  11  26  46  76 108 155 199 262 318 396 471
#     4  11  26  48  75 109 153 204 258 326 394 473
#     4  12  26  48  76 114 155 204 263 325 395 469
#     4  12  26  45  78 115 158 210 261 329 393 472
#
# _framework density 26.243687000000001
#
# number of rings (size 3 to 8) (size 9 to 14) (size 15 to 20)
#    0.000    0.500    2.500    4.500    3.500   12.000 
#    0.000    0.000    0.000    0.000    0.000    0.000 
#    0.000    0.000    0.000    0.000    0.000    0.000 
#
# Total GULP energy -89378.327108 kJ/mol
# GULP energy per Si atom -5586.145444 kJ/mol
# Density = 2.618396 g / cm^3
# Si number density = 26.243687 Si / 1000 Ang^3
#
#
#
# Elastic Constant Matrix: (Units=GPa)
#
#
# Indices 1 2 3 4 5 6 
#
# 1 144.9167 25.1293 -14.2906 0.0000 0.0000 0.0000
# 2 25.1293 297.5819 43.9368 0.0000 0.0000 0.0000
# 3 -14.2906 43.9368 86.8157 0.0000 0.0000 0.0000
# 4 0.0000 0.0000 0.0000 61.5156 0.0000 0.0000
# 5 0.0000 0.0000 0.0000 0.0000 25.9417 0.0000
# 6 0.0000 0.0000 0.0000 0.0000 0.0000 12.7230
#
#
#
# Elastic Compliance Matrix: (Units=1/GPa)
#
#
# Indices 1 2 3 4 5 6 
#
# 1 0.007207 -0.000847 0.001615 0.000000 0.000000 0.000000
# 2 -0.000847 0.003731 -0.002028 0.000000 0.000000 0.000000
# 3 0.001615 -0.002028 0.012811 0.000000 0.000000 0.000000
# 4 0.000000 0.000000 0.000000 0.016256 0.000000 0.000000
# 5 0.000000 0.000000 0.000000 0.000000 0.038548 0.000000
# 6 0.000000 0.000000 0.000000 0.000000 0.000000 0.078598
#
#
# Mechanical properties :
#
#
# Convention : Reuss Voigt Hill
#
# Bulk Modulus (GPa) = 47.10550 70.98503 59.04527
# Shear Modulus (GPa) = 29.98561 51.67198 40.82880
#
# Velocity S-wave (km/s) = 3.38388 4.44208 3.94859
# Velocity P-wave (km/s) = 5.76678 7.30866 6.58302
#
# Compressibility (1/GPa) = 0.02122894
#
# Stress axis : x y z
#
# Youngs Moduli (GPa) = 138.76086 267.99981 78.05945
#
# Poissons Ratio (x) = 0.22700 -0.12606
# Poissons Ratio (y) = 0.11753 0.15829
# Poissons Ratio (z) = -0.22409 0.54346
#
# Static dielectric constant tensor:
#      x y z
#    x 2.334210 0.000000 0.000000 
#    y 0.000000 2.051650 0.000000 
#    z 0.000000 0.000000 1.979670 
# 
# From -- ./inp_files/7829.got.cif
#   From: 2010.05.17/outbox.cif.g08.bks.cpg/sg20_4_cif.got.tgz:7829.got - 2010.06.03 22:52:26.
