data_PCOD9321171
_publ_section_title
;
Structure prediction by ZEFSAII (Michael W. Deem and Ramdas Pophale) SiO2 
 PCOD9321171
Probable space group: C 2 2 21
;
_chemical_formula_sum "Si O2"
_cell_formula_units_Z 28
_cell_length_a 7.873038
_cell_length_b 21.296333
_cell_length_c 7.846288
_cell_angle_alpha 90.000000
_cell_angle_beta 90.000000
_cell_angle_gamma 90.000000
_cell_volume 1315.562307
_symmetry_space_group_name_H-M "C 2 2 21"
_symmetry_group_IT_number 20
_symmetry_cell_setting 'orthorhombic'
loop_
_space_group_symop_operation_xyz
x,y,z
-x,-y,1/2+z
x,-y,-z
-x,y,1/2-z
1/2+x,1/2+y,z
1/2-x,1/2-y,1/2+z
1/2+x,1/2-y,-z
1/2-x,1/2+y,1/2-z
loop_
_atom_site_type_symbol
_atom_site_label
_atom_site_fract_x
_atom_site_fract_y
_atom_site_fract_z
Si Si1 0.954851 0.338027 0.440094
Si Si2 0.500000 0.384964 0.750000
Si Si3 0.929211 0.206362 0.940590
Si Si4 0.154835 0.546107 0.149516
O O1 0.765082 0.312320 0.435904
O O2 0.948218 0.395829 0.566873
O O3 0.000000 0.357149 0.250000
O O4 0.062283 0.278789 0.502870
O O5 0.489502 0.339378 0.583950
O O6 0.673608 0.426346 0.736802
O O7 0.000000 0.199085 0.750000
O O8 0.000000 0.512754 0.250000
O O9 0.215425 0.500000 0.000000
#
# Coordination Sequence:
#
# PCOD9321171 Si02
#       4
#     8   4   8   8
#     4  11  23  40  67 101 141 177 229 284 346 419
#     4  10  26  48  68 102 142 176 238 288 348 420
#     4  11  23  39  67 104 136 183 220 283 359 405
#     4  11  26  47  71 101 137 188 238 288 345 413
#
# _framework density 21.283676
#
# number of rings (size 3 to 8) (size 9 to 14) (size 15 to 20)
#    0.000    1.143    1.429    3.429   12.000    1.143 
#   10.286    0.000    0.000    0.000    0.000    0.000 
#    0.000    0.000    0.000    0.000    0.000    0.000 
#
# Total GULP energy -78222.722453 kJ/mol
# GULP energy per Si atom -5587.337318 kJ/mol
# Density = 2.123523 g / cm^3
# Si number density = 21.283676 Si / 1000 Ang^3
#
#
#
# Elastic Constant Matrix: (Units=GPa)
#
#
# Indices 1 2 3 4 5 6 
#
# 1 63.2649 28.4841 35.6937 0.0000 0.0000 0.0000
# 2 28.4841 78.8887 26.9793 0.0000 0.0000 0.0000
# 3 35.6937 26.9793 118.5518 0.0000 0.0000 0.0000
# 4 0.0000 0.0000 0.0000 44.2098 0.0000 0.0000
# 5 0.0000 0.0000 0.0000 0.0000 43.5355 0.0000
# 6 0.0000 0.0000 0.0000 0.0000 0.0000 31.5650
#
#
#
# Elastic Compliance Matrix: (Units=1/GPa)
#
#
# Indices 1 2 3 4 5 6 
#
# 1 0.021359 -0.005978 -0.005070 0.000000 0.000000 0.000000
# 2 -0.005978 0.015419 -0.001709 0.000000 0.000000 0.000000
# 3 -0.005070 -0.001709 0.010351 0.000000 0.000000 0.000000
# 4 0.000000 0.000000 0.000000 0.022619 0.000000 0.000000
# 5 0.000000 0.000000 0.000000 0.000000 0.022970 0.000000
# 6 0.000000 0.000000 0.000000 0.000000 0.000000 0.031681
#
#
# Mechanical properties :
#
#
# Convention : Reuss Voigt Hill
#
# Bulk Modulus (GPa) = 46.26696 49.22440 47.74568
# Shear Modulus (GPa) = 31.82337 35.16528 33.49432
#
# Velocity S-wave (km/s) = 3.87098 4.06916 3.97130
# Velocity P-wave (km/s) = 6.46256 6.72721 6.59621
#
# Compressibility (1/GPa) = 0.02161370
#
# Stress axis : x y z
#
# Youngs Moduli (GPa) = 46.81952 64.85500 96.61232
#
# Poissons Ratio (x) = 0.38770 0.48985
# Poissons Ratio (y) = 0.27988 0.16512
# Poissons Ratio (z) = 0.23739 0.11085
#
# Static dielectric constant tensor:
#      x y z
#    x 1.802200 0.000000 0.000000 
#    y 0.000000 1.868150 0.000000 
#    z 0.000000 0.000000 1.884570 
# 
# From -- ./inp_files/5645.got.cif
#   From: 2010.05.17/outbox.cif.g08.bks.cpg/sg20_3_cif.got.tgz:5645.got - 2010.06.03 22:52:26.
