data_PCOD9321645
_publ_section_title
;
Structure prediction by ZEFSAII (Michael W. Deem and Ramdas Pophale) SiO2 
 PCOD9321645
Probable space group: C 2 2 21
;
_chemical_formula_sum "Si O2"
_cell_formula_units_Z 40
_cell_length_a 10.463769
_cell_length_b 14.355512
_cell_length_c 12.180186
_cell_angle_alpha 90.000000
_cell_angle_beta 90.000000
_cell_angle_gamma 90.000000
_cell_volume 1829.619374
_symmetry_space_group_name_H-M "C 2 2 21"
_symmetry_group_IT_number 20
_symmetry_cell_setting 'orthorhombic'
loop_
_space_group_symop_operation_xyz
x,y,z
-x,-y,1/2+z
x,-y,-z
-x,y,1/2-z
1/2+x,1/2+y,z
1/2-x,1/2-y,1/2+z
1/2+x,1/2-y,-z
1/2-x,1/2+y,1/2-z
loop_
_atom_site_type_symbol
_atom_site_label
_atom_site_fract_x
_atom_site_fract_y
_atom_site_fract_z
Si Si1 0.563545 0.935923 0.411675
Si Si2 0.979908 0.223955 0.071245
Si Si3 0.715055 0.692763 0.232046
Si Si4 0.186077 0.505761 0.799232
Si Si5 0.100911 0.859452 0.344052
O O1 0.520264 0.834862 0.451150
O O2 0.438188 0.993791 0.375277
O O3 0.647370 0.927108 0.302297
O O4 0.633132 0.000000 0.500000
O O5 0.861020 0.209069 0.154040
O O6 0.107108 0.195289 0.137123
O O7 0.962607 0.169289 0.958532
O O8 0.782297 0.593617 0.248259
O O9 0.817215 0.771262 0.199848
O O10 0.304415 0.553480 0.858856
O O11 0.000000 0.883892 0.250000
#
# Coordination Sequence:
#
# PCOD9321645 Si02
#       5
#     8   8   8   8   8
#     4  11  23  45  73 100 135 188 234 285 347 407
#     4  11  25  48  71  96 145 189 219 298 358 407
#     4  11  25  47  72 102 142 182 230 288 355 416
#     4  11  25  45  68 105 141 175 235 290 338 428
#     4  12  28  43  72 104 138 182 239 284 352 421
#
# _framework density 21.862469000000001
#
# number of rings (size 3 to 8) (size 9 to 14) (size 15 to 20)
#    0.000    0.800    4.000    2.400   14.000    1.600 
#    0.000    0.000    0.000    0.000    0.000    0.000 
#    0.000    0.000    0.000    0.000    0.000    0.000 
#
# Total GULP energy -111920.841149 kJ/mol
# GULP energy per Si atom -5596.042057 kJ/mol
# Density = 2.181271 g / cm^3
# Si number density = 21.862469 Si / 1000 Ang^3
#
#
#
# Elastic Constant Matrix: (Units=GPa)
#
#
# Indices 1 2 3 4 5 6 
#
# 1 43.9407 1.1237 -2.2645 0.0000 0.0000 0.0000
# 2 1.1237 71.8601 -4.3031 0.0000 0.0000 0.0000
# 3 -2.2645 -4.3031 94.0734 0.0000 0.0000 0.0000
# 4 0.0000 0.0000 0.0000 30.4330 0.0000 0.0000
# 5 0.0000 0.0000 0.0000 0.0000 5.0154 0.0000
# 6 0.0000 0.0000 0.0000 0.0000 0.0000 34.6433
#
#
#
# Elastic Compliance Matrix: (Units=1/GPa)
#
#
# Indices 1 2 3 4 5 6 
#
# 1 0.022794 -0.000324 0.000534 0.000000 0.000000 0.000000
# 2 -0.000324 0.013959 0.000631 0.000000 0.000000 0.000000
# 3 0.000534 0.000631 0.010672 0.000000 0.000000 0.000000
# 4 0.000000 0.000000 0.000000 0.032859 0.000000 0.000000
# 5 0.000000 0.000000 0.000000 0.000000 0.199385 0.000000
# 6 0.000000 0.000000 0.000000 0.000000 0.000000 0.028866
#
#
# Mechanical properties :
#
#
# Convention : Reuss Voigt Hill
#
# Bulk Modulus (GPa) = 20.36479 22.10960 21.23720
# Shear Modulus (GPa) = 15.46924 28.37288 21.92106
#
# Velocity S-wave (km/s) = 2.66291 3.60639 3.16995
# Velocity P-wave (km/s) = 4.33474 5.24180 4.80970
#
# Compressibility (1/GPa) = 0.04910436
#
# Stress axis : x y z
#
# Youngs Moduli (GPa) = 43.87162 71.63959 93.70581
#
# Poissons Ratio (x) = 0.02324 -0.05002
# Poissons Ratio (y) = 0.01423 -0.05910
# Poissons Ratio (z) = -0.02342 -0.04518
#
# Static dielectric constant tensor:
#      x y z
#    x 1.773890 0.000000 0.000000 
#    y 0.000000 1.790400 0.000000 
#    z 0.000000 0.000000 1.793190 
# 
# From -- ./inp_files/13862.got.cif
#   From: 2010.05.17/outbox.cif.g08.bks.cpg/sg20_7_cif.got.tgz:13862.got - 2010.06.03 22:52:26.
