data_PCOD9321545
_publ_section_title
;
Structure prediction by ZEFSAII (Michael W. Deem and Ramdas Pophale) SiO2 
 PCOD9321545
Probable space group: C 2 2 21
;
_chemical_formula_sum "Si O2"
_cell_formula_units_Z 40
_cell_length_a 11.937712
_cell_length_b 36.320756
_cell_length_c 4.990730
_cell_angle_alpha 90.000000
_cell_angle_beta 90.000000
_cell_angle_gamma 90.000000
_cell_volume 2163.914275
_symmetry_space_group_name_H-M "C 2 2 21"
_symmetry_group_IT_number 20
_symmetry_cell_setting 'orthorhombic'
loop_
_space_group_symop_operation_xyz
x,y,z
-x,-y,1/2+z
x,-y,-z
-x,y,1/2-z
1/2+x,1/2+y,z
1/2-x,1/2-y,1/2+z
1/2+x,1/2-y,-z
1/2-x,1/2+y,1/2-z
loop_
_atom_site_type_symbol
_atom_site_label
_atom_site_fract_x
_atom_site_fract_y
_atom_site_fract_z
Si Si1 0.000000 0.723207 0.250000
Si Si2 0.250849 0.650387 0.696066
Si Si3 0.416809 0.539670 0.001705
Si Si4 0.133707 0.117047 0.306848
Si Si5 0.500000 0.831045 0.250000
Si Si6 0.706249 0.733637 0.979189
O O1 0.017217 0.695376 0.495648
O O2 0.096226 0.750073 0.153051
O O3 0.297858 0.623183 0.466834
O O4 0.118279 0.647263 0.764628
O O5 0.273815 0.691054 0.577716
O O6 0.321334 0.644768 0.967294
O O7 0.500000 0.545681 0.750000
O O8 0.355658 0.500000 0.000000
O O9 0.500000 0.535485 0.250000
O O10 0.348770 0.576440 0.065704
O O11 0.000000 0.121324 0.250000
O O12 0.794479 0.756052 0.791729
#
# Coordination Sequence:
#
# PCOD9321545 Si02
#       6
#     4   8   8   8   4   8
#     4  12  22  40  60  78 108 139 202 259 294 352
#     4  12  24  40  57  84 115 155 195 242 295 342
#     4   9  17  33  58  86 120 157 185 217 276 355
#     4  11  23  38  57  89 124 148 181 236 297 351
#     4  12  24  42  60  78 108 159 208 249 276 342
#     4  12  23  40  56  80 103 145 199 245 301 336
#
# _framework density 18.485019999999999
#
# number of rings (size 3 to 8) (size 9 to 14) (size 15 to 20)
#    0.000    0.800    4.000    5.400    2.800    0.000 
#    0.000    0.000    0.000    0.000    0.000    2.800 
#    0.000    1.600    0.000    0.000    0.000    0.000 
#
# Total GULP energy -111533.128395 kJ/mol
# GULP energy per Si atom -5576.656420 kJ/mol
# Density = 1.844295 g / cm^3
# Si number density = 18.485020 Si / 1000 Ang^3
#
#
#
# Elastic Constant Matrix: (Units=GPa)
#
#
# Indices 1 2 3 4 5 6 
#
# 1 98.1345 28.8980 14.3620 0.0000 0.0000 0.0000
# 2 28.8980 77.4329 3.1805 0.0000 0.0000 0.0000
# 3 14.3620 3.1805 71.3119 0.0000 0.0000 0.0000
# 4 0.0000 0.0000 0.0000 33.0560 0.0000 0.0000
# 5 0.0000 0.0000 0.0000 0.0000 25.2294 0.0000
# 6 0.0000 0.0000 0.0000 0.0000 0.0000 6.9930
#
#
#
# Elastic Compliance Matrix: (Units=1/GPa)
#
#
# Indices 1 2 3 4 5 6 
#
# 1 0.011777 -0.004306 -0.002180 0.000000 0.000000 0.000000
# 2 -0.004306 0.014512 0.000220 0.000000 0.000000 0.000000
# 3 -0.002180 0.000220 0.014452 0.000000 0.000000 0.000000
# 4 0.000000 0.000000 0.000000 0.030252 0.000000 0.000000
# 5 0.000000 0.000000 0.000000 0.000000 0.039636 0.000000
# 6 0.000000 0.000000 0.000000 0.000000 0.000000 0.143001
#
#
# Mechanical properties :
#
#
# Convention : Reuss Voigt Hill
#
# Bulk Modulus (GPa) = 35.44816 37.75115 36.59966
# Shear Modulus (GPa) = 18.14455 26.41825 22.28140
#
# Velocity S-wave (km/s) = 3.13642 3.78454 3.47562
# Velocity P-wave (km/s) = 5.68634 6.28998 5.99576
#
# Compressibility (1/GPa) = 0.02821021
#
# Stress axis : x y z
#
# Youngs Moduli (GPa) = 84.91113 68.90736 69.19406
#
# Poissons Ratio (x) = 0.29669 0.15083
# Poissons Ratio (y) = 0.36560 -0.01522
# Poissons Ratio (z) = 0.18509 -0.01515
#
# Static dielectric constant tensor:
#      x y z
#    x 1.686920 0.000000 0.000000 
#    y 0.000000 1.689330 0.000000 
#    z 0.000000 0.000000 1.679810 
# 
# From -- ./inp_files/1416.got.cif
#   From: 2010.05.17/outbox.cif.g08.bks.cpg/sg20_1_cif.got.tgz:1416.got - 2010.06.03 22:52:26.
