data_PCOD9321511
_publ_section_title
;
Structure prediction by ZEFSAII (Michael W. Deem and Ramdas Pophale) SiO2 
 PCOD9321511
Probable space group: C 2 2 21
;
_chemical_formula_sum "Si O2"
_cell_formula_units_Z 56
_cell_length_a 14.268269
_cell_length_b 29.288216
_cell_length_c 6.483632
_cell_angle_alpha 90.000000
_cell_angle_beta 90.000000
_cell_angle_gamma 90.000000
_cell_volume 2709.458880
_symmetry_space_group_name_H-M "C 2 2 21"
_symmetry_group_IT_number 20
_symmetry_cell_setting 'orthorhombic'
loop_
_space_group_symop_operation_xyz
x,y,z
-x,-y,1/2+z
x,-y,-z
-x,y,1/2-z
1/2+x,1/2+y,z
1/2-x,1/2-y,1/2+z
1/2+x,1/2-y,-z
1/2-x,1/2+y,1/2-z
loop_
_atom_site_type_symbol
_atom_site_label
_atom_site_fract_x
_atom_site_fract_y
_atom_site_fract_z
Si Si1 0.225504 0.165162 0.123427
Si Si2 0.919695 0.203371 0.109856
Si Si3 0.108625 0.539551 0.329801
Si Si4 0.766668 0.590240 0.474112
Si Si5 0.609530 0.373265 0.271004
Si Si6 0.087219 0.607443 0.674005
Si Si7 0.564705 0.196849 0.449430
O O1 0.166567 0.204738 0.234821
O O2 0.242010 0.126783 0.297631
O O3 0.324166 0.188256 0.072091
O O4 0.166200 0.142935 0.934490
O O5 0.000000 0.180582 0.250000
O O6 0.896144 0.171974 0.915203
O O7 0.950540 0.253274 0.041502
O O8 0.124846 0.500000 0.500000
O O9 0.180741 0.547636 0.138419
O O10 0.127099 0.583627 0.472563
O O11 0.000000 0.539048 0.250000
O O12 0.671451 0.588275 0.610357
O O13 0.840667 0.610644 0.639927
O O14 0.500000 0.386995 0.250000
O O15 0.041835 0.653029 0.584398
O O16 0.000000 0.576939 0.750000
O O17 0.500000 0.193607 0.250000
#
# Coordination Sequence:
#
# PCOD9321511 Si02
#       7
#     8   8   8   8   8   8   8
#     4  11  24  42  63  95 130 179 233 301 348 417
#     4  11  25  39  61  91 130 182 247 298 360 406
#     4  12  25  42  67 105 148 187 224 269 339 429
#     4  11  23  41  67  98 137 177 228 284 346 412
#     4  11  22  44  69  92 135 176 242 312 348 408
#     4  12  22  41  64  91 140 184 225 274 334 419
#     4  12  25  39  61  90 137 188 234 289 357 417
#
# _framework density 20.668333000000001
#
# number of rings (size 3 to 8) (size 9 to 14) (size 15 to 20)
#    0.000    0.571    5.714    2.571    2.000    0.000 
#    0.000    0.000    0.000    0.000    0.000    0.000 
#   60.000    0.000    0.000    0.000    0.000    0.000 
#
# Total GULP energy -156009.401938 kJ/mol
# GULP energy per Si atom -5571.764355 kJ/mol
# Density = 2.062129 g / cm^3
# Si number density = 20.668333 Si / 1000 Ang^3
#
#
#
# Elastic Constant Matrix: (Units=GPa)
#
#
# Indices 1 2 3 4 5 6 
#
# 1 127.8711 12.0222 68.9214 0.0000 0.0000 0.0000
# 2 12.0222 70.1937 47.4769 0.0000 0.0000 0.0000
# 3 68.9214 47.4769 144.2311 0.0000 0.0000 0.0000
# 4 0.0000 0.0000 0.0000 27.5306 0.0000 0.0000
# 5 0.0000 0.0000 0.0000 0.0000 57.8099 0.0000
# 6 0.0000 0.0000 0.0000 0.0000 0.0000 12.5818
#
#
#
# Elastic Compliance Matrix: (Units=1/GPa)
#
#
# Indices 1 2 3 4 5 6 
#
# 1 0.010770 0.002105 -0.005839 0.000000 0.000000 0.000000
# 2 0.002105 0.018738 -0.007174 0.000000 0.000000 0.000000
# 3 -0.005839 -0.007174 0.012085 0.000000 0.000000 0.000000
# 4 0.000000 0.000000 0.000000 0.036323 0.000000 0.000000
# 5 0.000000 0.000000 0.000000 0.000000 0.017298 0.000000
# 6 0.000000 0.000000 0.000000 0.000000 0.000000 0.079480
#
#
# Mechanical properties :
#
#
# Convention : Reuss Voigt Hill
#
# Bulk Modulus (GPa) = 50.56523 66.57076 58.56799
# Shear Modulus (GPa) = 24.61813 33.84285 29.23049
#
# Velocity S-wave (km/s) = 3.45498 4.05090 3.76475
# Velocity P-wave (km/s) = 6.35878 7.35926 6.87724
#
# Compressibility (1/GPa) = 0.01977644
#
# Stress axis : x y z
#
# Youngs Moduli (GPa) = 92.85236 53.36755 82.74666
#
# Poissons Ratio (x) = -0.11234 0.48318
# Poissons Ratio (y) = -0.19545 0.59362
# Poissons Ratio (z) = 0.54219 0.38285
#
# Static dielectric constant tensor:
#      x y z
#    x 1.878680 0.000000 0.000000 
#    y 0.000000 1.782290 0.000000 
#    z 0.000000 0.000000 1.805390 
# 
# From -- ./inp_files/2240.got.cif
#   From: 2010.05.17/outbox.cif.g08.bks.cpg/sg20_2_cif.got.tgz:2240.got - 2010.06.03 22:52:26.
