data_PCOD9321695
_publ_section_title
;
Structure prediction by ZEFSAII (Michael W. Deem and Ramdas Pophale) SiO2 
 PCOD9321695
Probable space group: C 2 2 21
;
_chemical_formula_sum "Si O2"
_cell_formula_units_Z 56
_cell_length_a 5.131765
_cell_length_b 31.593239
_cell_length_c 16.940386
_cell_angle_alpha 90.000000
_cell_angle_beta 90.000000
_cell_angle_gamma 90.000000
_cell_volume 2746.529165
_symmetry_space_group_name_H-M "C 2 2 21"
_symmetry_group_IT_number 20
_symmetry_cell_setting 'orthorhombic'
loop_
_space_group_symop_operation_xyz
x,y,z
-x,-y,1/2+z
x,-y,-z
-x,y,1/2-z
1/2+x,1/2+y,z
1/2-x,1/2-y,1/2+z
1/2+x,1/2-y,-z
1/2-x,1/2+y,1/2-z
loop_
_atom_site_type_symbol
_atom_site_label
_atom_site_fract_x
_atom_site_fract_y
_atom_site_fract_z
Si Si1 0.588216 0.488232 0.659456
Si Si2 0.444128 0.124613 0.915215
Si Si3 0.582130 0.975745 0.418772
Si Si4 0.919283 0.111074 0.158681
Si Si5 0.433666 0.665778 0.841635
Si Si6 0.917407 0.749197 0.056792
Si Si7 0.921473 0.345155 0.908832
O O1 0.500000 0.491883 0.750000
O O2 0.372894 0.512203 0.607696
O O3 0.589033 0.438549 0.637821
O O4 0.872272 0.507267 0.644197
O O5 0.445756 0.074383 0.926811
O O6 0.668993 0.139891 0.856125
O O7 0.167936 0.140219 0.882647
O O8 0.491461 0.146352 0.999879
O O9 0.523210 0.000000 0.500000
O O10 0.639932 0.131810 0.143032
O O11 0.000000 0.114599 0.250000
O O12 0.140204 0.134756 0.108378
O O13 0.500000 0.671231 0.750000
O O14 0.407276 0.710744 0.885625
O O15 0.919567 0.705013 0.103687
O O16 0.672637 0.748447 0.997812
#
# Coordination Sequence:
#
# PCOD9321695 Si02
#       7
#     8   8   8   8   8   8   8
#     4  11  24  43  64  90 134 178 214 269 339 391
#     4  12  25  43  69  96 132 178 219 277 329 390
#     4  12  25  42  66  99 129 171 234 277 322 385
#     4  11  24  41  64  99 134 169 218 277 329 387
#     4  12  26  45  68 102 137 174 221 275 330 394
#     4  12  23  46  70  97 132 173 219 265 328 399
#     4  12  23  42  71  95 130 173 222 260 336 396
#
# _framework density 20.389371000000001
#
# number of rings (size 3 to 8) (size 9 to 14) (size 15 to 20)
#    0.000    0.286    2.857    6.857    0.000    6.857 
#    0.000    0.000    0.000    0.000    0.000    0.000 
#    0.000    0.000    0.000    0.000    0.000    0.000 
#
# Total GULP energy -156848.278637 kJ/mol
# GULP energy per Si atom -5601.724237 kJ/mol
# Density = 2.034296 g / cm^3
# Si number density = 20.389371 Si / 1000 Ang^3
#
#
#
# Elastic Constant Matrix: (Units=GPa)
#
#
# Indices 1 2 3 4 5 6 
#
# 1 75.4919 13.2016 -17.9168 0.0000 0.0000 0.0000
# 2 13.2016 160.3346 23.8884 0.0000 0.0000 0.0000
# 3 -17.9168 23.8884 46.9586 0.0000 0.0000 0.0000
# 4 0.0000 0.0000 0.0000 -411.5835 0.0000 0.0000
# 5 0.0000 0.0000 0.0000 0.0000 35.6648 0.0000
# 6 0.0000 0.0000 0.0000 0.0000 0.0000 476.7611
#
#
#
# Elastic Compliance Matrix: (Units=1/GPa)
#
#
# Indices 1 2 3 4 5 6 
#
# 1 0.015315 -0.002306 0.007017 0.000000 0.000000 0.000000
# 2 -0.002306 0.007096 -0.004490 0.000000 0.000000 0.000000
# 3 0.007017 -0.004490 0.026257 0.000000 0.000000 0.000000
# 4 0.000000 0.000000 0.000000 -0.002430 0.000000 0.000000
# 5 0.000000 0.000000 0.000000 0.000000 0.028039 0.000000
# 6 0.000000 0.000000 0.000000 0.000000 0.000000 0.002097
#
#
# Mechanical properties :
#
#
# Convention : Reuss Voigt Hill
#
# Bulk Modulus (GPa) = 20.36306 35.68127 28.02216
# Shear Modulus (GPa) = 54.16970 37.74260 45.95615
#
# Velocity S-wave (km/s) = 5.15997 4.30710 4.75270
# Velocity P-wave (km/s) = 6.74605 6.50175 6.62502
#
# Compressibility (1/GPa) = 0.04910854
#
# Stress axis : x y z
#
# Youngs Moduli (GPa) = 65.29501 140.92861 38.08574
#
# Poissons Ratio (x) = 0.32504 -0.26724
# Poissons Ratio (y) = 0.15060 0.17099
# Poissons Ratio (z) = -0.45816 0.63273
#
# Static dielectric constant tensor:
#      x y z
#    x 1.815680 0.000000 0.000000 
#    y 0.000000 1.698080 0.000000 
#    z 0.000000 0.000000 1.700060 
# 
# From -- ./inp_files/17959.got.cif
#   From: 2010.05.17/outbox.cif.g08.bks.cpg/sg20_9_cif.got.tgz:17959.got - 2010.06.03 22:52:26.
