data_PCOD9321682
_publ_section_title
;
Structure prediction by ZEFSAII (Michael W. Deem and Ramdas Pophale) SiO2 
 PCOD9321682
Probable space group: C 2 2 21
;
_chemical_formula_sum "Si O2"
_cell_formula_units_Z 48
_cell_length_a 29.807914
_cell_length_b 14.455218
_cell_length_c 5.058859
_cell_angle_alpha 90.000000
_cell_angle_beta 90.000000
_cell_angle_gamma 90.000000
_cell_volume 2179.760635
_symmetry_space_group_name_H-M "C 2 2 21"
_symmetry_group_IT_number 20
_symmetry_cell_setting 'orthorhombic'
loop_
_space_group_symop_operation_xyz
x,y,z
-x,-y,1/2+z
x,-y,-z
-x,y,1/2-z
1/2+x,1/2+y,z
1/2-x,1/2-y,1/2+z
1/2+x,1/2-y,-z
1/2-x,1/2+y,1/2-z
loop_
_atom_site_type_symbol
_atom_site_label
_atom_site_fract_x
_atom_site_fract_y
_atom_site_fract_z
Si Si1 0.000000 0.563720 0.250000
Si Si2 0.733564 0.190036 0.403037
Si Si3 0.359612 0.751168 0.089229
Si Si4 0.278785 0.500000 0.500000
Si Si5 0.000000 0.878654 0.250000
Si Si6 0.959463 0.709673 0.938513
Si Si7 0.352716 0.633713 0.577904
Si Si8 0.426516 0.500000 0.500000
O O1 0.039851 0.634527 0.326339
O O2 0.989790 0.500000 0.500000
O O3 0.743573 0.254420 0.148992
O O4 0.680408 0.186089 0.472427
O O5 0.750629 0.083767 0.372041
O O6 0.409019 0.787181 0.169036
O O7 0.338232 0.703341 0.347591
O O8 0.369167 0.683196 0.841246
O O9 0.314302 0.561555 0.667690
O O10 0.021359 0.808361 0.462941
O O11 0.959576 0.947489 0.308314
O O12 0.000000 0.678469 0.750000
O O13 0.392259 0.580176 0.422448
#
# Coordination Sequence:
#
# PCOD9321682 Si02
#       8
#     4   8   8   4   4   8   8   4
#     4  11  24  48  75 100 132 184 243 300 362 419
#     4  12  25  47  72 103 141 186 239 301 363 433
#     4  12  24  47  69 103 142 186 235 295 357 429
#     4  11  24  46  74 102 140 186 236 298 363 440
#     4  11  24  38  57  98 142 192 229 296 344 419
#     4  11  25  45  72  99 146 184 242 290 366 425
#     4  11  25  42  69  98 140 188 237 277 361 434
#     4  11  24  38  58  98 142 190 236 284 333 432
#
# _framework density 22.020765999999998
#
# number of rings (size 3 to 8) (size 9 to 14) (size 15 to 20)
#    0.000    0.667    5.833    1.000    5.833    4.667 
#    1.500    0.000    0.000    0.000    0.000    0.000 
#    0.000    0.000    0.000    0.000    0.000    0.000 
#
# Total GULP energy -133687.559895 kJ/mol
# GULP energy per Si atom -5570.314996 kJ/mol
# Density = 2.197065 g / cm^3
# Si number density = 22.020766 Si / 1000 Ang^3
#
#
#
# Elastic Constant Matrix: (Units=GPa)
#
#
# Indices 1 2 3 4 5 6 
#
# 1 154.2966 47.6583 19.2411 0.0000 0.0000 0.0000
# 2 47.6583 117.0554 46.5511 0.0000 0.0000 0.0000
# 3 19.2411 46.5511 101.9926 0.0000 0.0000 0.0000
# 4 0.0000 0.0000 0.0000 29.4128 0.0000 0.0000
# 5 0.0000 0.0000 0.0000 0.0000 31.9539 0.0000
# 6 0.0000 0.0000 0.0000 0.0000 0.0000 29.9740
#
#
#
# Elastic Compliance Matrix: (Units=1/GPa)
#
#
# Indices 1 2 3 4 5 6 
#
# 1 0.007413 -0.003008 -0.000026 0.000000 0.000000 0.000000
# 2 -0.003008 0.011658 -0.004753 0.000000 0.000000 0.000000
# 3 -0.000026 -0.004753 0.011979 0.000000 0.000000 0.000000
# 4 0.000000 0.000000 0.000000 0.033999 0.000000 0.000000
# 5 0.000000 0.000000 0.000000 0.000000 0.031295 0.000000
# 6 0.000000 0.000000 0.000000 0.000000 0.000000 0.033362
#
#
# Mechanical properties :
#
#
# Convention : Reuss Voigt Hill
#
# Bulk Modulus (GPa) = 64.61569 66.69397 65.65483
# Shear Modulus (GPa) = 33.23591 35.59439 34.41515
#
# Velocity S-wave (km/s) = 3.88918 4.02481 3.95758
# Velocity P-wave (km/s) = 7.04091 7.20773 7.12481
#
# Compressibility (1/GPa) = 0.01547612
#
# Stress axis : x y z
#
# Youngs Moduli (GPa) = 134.89184 85.77745 83.47933
#
# Poissons Ratio (x) = 0.25803 0.00214
# Poissons Ratio (y) = 0.40577 0.39682
# Poissons Ratio (z) = 0.00345 0.40774
#
# Static dielectric constant tensor:
#      x y z
#    x 1.818230 0.000000 0.000000 
#    y 0.000000 1.843280 0.000000 
#    z 0.000000 0.000000 1.907200 
# 
# From -- ./inp_files/4666.got.cif
#   From: 2010.05.17/outbox.cif.g08.bks.cpg/sg20_3_cif.got.tgz:4666.got - 2010.06.03 22:52:26.
