data_PCOD9321387
_publ_section_title
;
Structure prediction by ZEFSAII (Michael W. Deem and Ramdas Pophale) SiO2 
 PCOD9321387
Probable space group: C 2 2 21
;
_chemical_formula_sum "Si O2"
_cell_formula_units_Z 20
_cell_length_a 7.836273
_cell_length_b 16.371720
_cell_length_c 6.807694
_cell_angle_alpha 90.000000
_cell_angle_beta 90.000000
_cell_angle_gamma 90.000000
_cell_volume 873.381307
_symmetry_space_group_name_H-M "C 2 2 21"
_symmetry_group_IT_number 20
_symmetry_cell_setting 'orthorhombic'
loop_
_space_group_symop_operation_xyz
x,y,z
-x,-y,1/2+z
x,-y,-z
-x,y,1/2-z
1/2+x,1/2+y,z
1/2-x,1/2-y,1/2+z
1/2+x,1/2-y,-z
1/2-x,1/2+y,1/2-z
loop_
_atom_site_type_symbol
_atom_site_label
_atom_site_fract_x
_atom_site_fract_y
_atom_site_fract_z
Si Si1 0.302623 0.000436 0.726048
Si Si2 0.273409 0.360188 0.514409
Si Si3 0.000000 0.251233 0.750000
O O1 0.500000 0.972830 0.750000
O O2 0.187097 0.935292 0.840186
O O3 0.297514 0.089165 0.826509
O O4 0.741859 0.000000 0.000000
O O5 0.142242 0.304913 0.638058
O O6 0.418130 0.304207 0.421247
#
# Coordination Sequence:
#
# PCOD9321387 Si02
#       3
#     8   8   4
#     4  11  21  46  77 104 144 200 242 291 365 448
#     4  11  27  47  72 111 147 194 244 300 368 433
#     4  12  28  48  76 110 152 186 242 316 362 424
#
# _framework density 22.899508000000001
#
# number of rings (size 3 to 8) (size 9 to 14) (size 15 to 20)
#    0.000    0.800    6.000    0.000   11.200    0.000 
#    7.200    0.000    0.000    0.000    0.000    0.000 
#    0.000    0.000    0.000    0.000    0.000    0.000 
#
# Total GULP energy -55890.816827 kJ/mol
# GULP energy per Si atom -5589.081683 kJ/mol
# Density = 2.284739 g / cm^3
# Si number density = 22.899508 Si / 1000 Ang^3
#
#
#
# Elastic Constant Matrix: (Units=GPa)
#
#
# Indices 1 2 3 4 5 6 
#
# 1 51.3693 24.9398 7.6409 0.0000 0.0000 0.0000
# 2 24.9398 98.3491 30.6944 0.0000 0.0000 0.0000
# 3 7.6409 30.6944 162.3044 0.0000 0.0000 0.0000
# 4 0.0000 0.0000 0.0000 5.4091 0.0000 0.0000
# 5 0.0000 0.0000 0.0000 0.0000 49.3249 0.0000
# 6 0.0000 0.0000 0.0000 0.0000 0.0000 -30.0882
#
#
#
# Elastic Compliance Matrix: (Units=1/GPa)
#
#
# Indices 1 2 3 4 5 6 
#
# 1 0.022200 -0.005636 0.000021 0.000000 0.000000 0.000000
# 2 -0.005636 0.012236 -0.002049 0.000000 0.000000 0.000000
# 3 0.000021 -0.002049 0.006548 0.000000 0.000000 0.000000
# 4 0.000000 0.000000 0.000000 0.184875 0.000000 0.000000
# 5 0.000000 0.000000 0.000000 0.000000 0.020274 0.000000
# 6 0.000000 0.000000 0.000000 0.000000 0.000000 -0.033236
#
#
# Mechanical properties :
#
#
# Convention : Reuss Voigt Hill
#
# Bulk Modulus (GPa) = 38.97708 48.73034 43.85371
# Shear Modulus (GPa) = 21.11686 21.51234 21.31460
#
# Velocity S-wave (km/s) = 3.03999 3.06833 3.05419
# Velocity P-wave (km/s) = 5.42033 5.82058 5.62401
#
# Compressibility (1/GPa) = 0.02565610
#
# Stress axis : x y z
#
# Youngs Moduli (GPa) = 45.04486 81.72275 152.72437
#
# Poissons Ratio (x) = 0.46060 -0.00317
# Poissons Ratio (y) = 0.25388 0.31290
# Poissons Ratio (z) = -0.00093 0.16743
#
# Static dielectric constant tensor:
#      x y z
#    x 1.890890 0.000000 0.000000 
#    y 0.000000 1.878400 0.000000 
#    z 0.000000 0.000000 1.844240 
# 
# From -- ./inp_files/4925.got.cif
#   From: 2010.05.17/outbox.cif.g08.bks.cpg/sg20_3_cif.got.tgz:4925.got - 2010.06.03 22:52:26.
