data_PCOD9321199
_publ_section_title
;
Structure prediction by ZEFSAII (Michael W. Deem and Ramdas Pophale) SiO2 
 PCOD9321199
Probable space group: C 2 2 21
;
_chemical_formula_sum "Si O2"
_cell_formula_units_Z 28
_cell_length_a 13.214106
_cell_length_b 4.951725
_cell_length_c 14.748508
_cell_angle_alpha 90.000000
_cell_angle_beta 90.000000
_cell_angle_gamma 90.000000
_cell_volume 965.033505
_symmetry_space_group_name_H-M "C 2 2 21"
_symmetry_group_IT_number 20
_symmetry_cell_setting 'orthorhombic'
loop_
_space_group_symop_operation_xyz
x,y,z
-x,-y,1/2+z
x,-y,-z
-x,y,1/2-z
1/2+x,1/2+y,z
1/2-x,1/2-y,1/2+z
1/2+x,1/2-y,-z
1/2-x,1/2+y,1/2-z
loop_
_atom_site_type_symbol
_atom_site_label
_atom_site_fract_x
_atom_site_fract_y
_atom_site_fract_z
Si Si1 0.612686 0.786913 0.066981
Si Si2 0.822402 0.558887 0.249584
Si Si3 0.308351 0.500000 0.000000
Si Si4 0.036073 0.077984 0.649514
O O1 0.739979 0.331051 0.227501
O O2 0.561835 0.504080 0.090932
O O3 0.727603 0.775641 0.031275
O O4 0.556881 0.000000 0.000000
O O5 0.622709 0.948999 0.161473
O O6 0.905601 0.644922 0.175287
O O7 0.378496 0.437372 0.913825
O O8 0.000000 0.986072 0.750000
#
# Coordination Sequence:
#
# PCOD9321199 Si02
#       4
#     8   8   4   8
#     4  10  26  55  89 133 189 247 315 382 475 554
#     4  12  26  55  93 130 184 247 307 384 474 555
#     4  10  26  54  90 130 200 248 310 398 468 558
#     4  12  28  52  91 139 185 245 317 384 468 564
#
# _framework density 29.014536
#
# number of rings (size 3 to 8) (size 9 to 14) (size 15 to 20)
#    0.857    0.000    2.857    1.714    4.000    3.429 
#    0.000    7.143    0.000    0.000    0.000    0.000 
#    0.000    0.000    0.000    0.000    0.000    0.000 
#
# Total GULP energy -78283.508905 kJ/mol
# GULP energy per Si atom -5591.679208 kJ/mol
# Density = 2.894850 g / cm^3
# Si number density = 29.014536 Si / 1000 Ang^3
#
#
#
# Elastic Constant Matrix: (Units=GPa)
#
#
# Indices 1 2 3 4 5 6 
#
# 1 180.5775 76.1081 33.8316 0.0000 0.0000 0.0000
# 2 76.1081 204.0463 46.7092 0.0000 0.0000 0.0000
# 3 33.8316 46.7092 130.8986 0.0000 0.0000 0.0000
# 4 0.0000 0.0000 0.0000 29.7386 0.0000 0.0000
# 5 0.0000 0.0000 0.0000 0.0000 87.9031 0.0000
# 6 0.0000 0.0000 0.0000 0.0000 0.0000 12.6678
#
#
#
# Elastic Compliance Matrix: (Units=1/GPa)
#
#
# Indices 1 2 3 4 5 6 
#
# 1 0.006669 -0.002279 -0.000910 0.000000 0.000000 0.000000
# 2 -0.002279 0.006116 -0.001593 0.000000 0.000000 0.000000
# 3 -0.000910 -0.001593 0.008443 0.000000 0.000000 0.000000
# 4 0.000000 0.000000 0.000000 0.033626 0.000000 0.000000
# 5 0.000000 0.000000 0.000000 0.000000 0.011376 0.000000
# 6 0.000000 0.000000 0.000000 0.000000 0.000000 0.078940
#
#
# Mechanical properties :
#
#
# Convention : Reuss Voigt Hill
#
# Bulk Modulus (GPa) = 85.74481 92.09115 88.91798
# Shear Modulus (GPa) = 31.52115 49.98680 40.75397
#
# Velocity S-wave (km/s) = 3.29962 4.15519 3.75187
# Velocity P-wave (km/s) = 6.64328 7.40468 7.03429
#
# Compressibility (1/GPa) = 0.01166251
#
# Stress axis : x y z
#
# Youngs Moduli (GPa) = 149.94957 163.51503 118.43692
#
# Poissons Ratio (x) = 0.37266 0.10782
# Poissons Ratio (y) = 0.34175 0.18870
# Poissons Ratio (z) = 0.13651 0.26052
#
# Static dielectric constant tensor:
#      x y z
#    x 2.235120 0.000000 0.000000 
#    y 0.000000 2.301450 0.000000 
#    z 0.000000 0.000000 2.304920 
# 
# From -- ./inp_files/22455.got.cif
#   From: 2010.05.17/outbox.cif.g08.bks.cpg/sg20_12_cif.got.tgz:22455.got - 2010.06.03 22:52:26.
