data_PCOD9321336
_publ_section_title
;
Structure prediction by ZEFSAII (Michael W. Deem and Ramdas Pophale) SiO2 
 PCOD9321336
Probable space group: C 2 2 21
;
_chemical_formula_sum "Si O2"
_cell_formula_units_Z 64
_cell_length_a 23.421811
_cell_length_b 5.338915
_cell_length_c 25.529959
_cell_angle_alpha 90.000000
_cell_angle_beta 90.000000
_cell_angle_gamma 90.000000
_cell_volume 3192.446266
_symmetry_space_group_name_H-M "C 2 2 21"
_symmetry_group_IT_number 20
_symmetry_cell_setting 'orthorhombic'
loop_
_space_group_symop_operation_xyz
x,y,z
-x,-y,1/2+z
x,-y,-z
-x,y,1/2-z
1/2+x,1/2+y,z
1/2-x,1/2-y,1/2+z
1/2+x,1/2-y,-z
1/2-x,1/2+y,1/2-z
loop_
_atom_site_type_symbol
_atom_site_label
_atom_site_fract_x
_atom_site_fract_y
_atom_site_fract_z
Si Si1 0.807210 0.506270 0.379147
Si Si2 0.166999 0.968762 0.769879
Si Si3 0.841869 0.998503 0.438296
Si Si4 0.407845 0.148582 0.302161
Si Si5 0.490749 0.007279 0.877702
Si Si6 0.977761 0.014094 0.561801
Si Si7 0.381639 0.938713 0.190984
Si Si8 0.776930 0.257648 0.819333
O O1 0.824858 0.267696 0.414402
O O2 0.853633 0.526445 0.331921
O O3 0.743758 0.466555 0.355991
O O4 0.811421 0.764834 0.410554
O O5 0.146496 0.790870 0.722830
O O6 0.216223 0.886069 0.809073
O O7 0.111064 0.060050 0.800944
O O8 0.200357 0.184643 0.738087
O O9 0.829573 0.000000 0.500000
O O10 0.909610 0.945677 0.431837
O O11 0.463178 0.062849 0.332716
O O12 0.409269 0.085733 0.240679
O O13 0.490051 0.750820 0.911844
O O14 0.509842 0.246521 0.911542
O O15 0.432211 0.089710 0.849934
O O16 0.990305 0.000000 0.500000
O O17 0.329507 0.078145 0.161891
#
# Coordination Sequence:
#
# PCOD9321336 Si02
#       8
#     8   8   8   8   8   8   8   8
#     4  12  22  38  67  99 132 172 225 271 337 408
#     4  11  21  39  63  93 139 178 235 262 317 381
#     4  11  23  41  66 100 131 164 214 291 356 405
#     4  11  23  39  60 100 139 179 211 269 335 398
#     4  12  26  44  68 103 138 177 222 276 351 403
#     4  11  24  46  72  98 132 171 230 286 342 412
#     4  11  26  41  61  97 142 187 224 271 313 409
#     4  11  22  38  64  94 127 186 227 272 308 391
#
# _framework density 20.047324
#
# number of rings (size 3 to 8) (size 9 to 14) (size 15 to 20)
#    0.000    0.750    5.000    2.625    7.000    2.000 
#    0.000    0.000    0.000    3.000    0.000    0.000 
#    0.000    0.000    0.000    0.000    0.000    0.000 
#
# Total GULP energy -178557.779001 kJ/mol
# GULP energy per Si atom -5579.930594 kJ/mol
# Density = 2.000170 g / cm^3
# Si number density = 20.047324 Si / 1000 Ang^3
#
#
#
# Elastic Constant Matrix: (Units=GPa)
#
#
# Indices 1 2 3 4 5 6 
#
# 1 104.1584 33.7247 41.5594 0.0000 0.0000 0.0000
# 2 33.7247 97.4524 42.3927 0.0000 0.0000 0.0000
# 3 41.5594 42.3927 100.1658 0.0000 0.0000 0.0000
# 4 0.0000 0.0000 0.0000 36.1827 0.0000 0.0000
# 5 0.0000 0.0000 0.0000 0.0000 22.5287 0.0000
# 6 0.0000 0.0000 0.0000 0.0000 0.0000 18.6755
#
#
#
# Elastic Compliance Matrix: (Units=1/GPa)
#
#
# Indices 1 2 3 4 5 6 
#
# 1 0.011956 -0.002426 -0.003934 0.000000 0.000000 0.000000
# 2 -0.002426 0.013069 -0.004525 0.000000 0.000000 0.000000
# 3 -0.003934 -0.004525 0.013530 0.000000 0.000000 0.000000
# 4 0.000000 0.000000 0.000000 0.027638 0.000000 0.000000
# 5 0.000000 0.000000 0.000000 0.000000 0.044388 0.000000
# 6 0.000000 0.000000 0.000000 0.000000 0.000000 0.053546
#
#
# Mechanical properties :
#
#
# Convention : Reuss Voigt Hill
#
# Bulk Modulus (GPa) = 59.57158 59.68114 59.62636
# Shear Modulus (GPa) = 26.11077 27.75069 26.93073
#
# Velocity S-wave (km/s) = 3.61287 3.72460 3.66916
# Velocity P-wave (km/s) = 6.86904 6.95209 6.91069
#
# Compressibility (1/GPa) = 0.01678653
#
# Stress axis : x y z
#
# Youngs Moduli (GPa) = 83.64060 76.51512 73.90718
#
# Poissons Ratio (x) = 0.18565 0.29073
# Poissons Ratio (y) = 0.20294 0.33440
# Poissons Ratio (z) = 0.32902 0.34620
#
# Static dielectric constant tensor:
#      x y z
#    x 1.722490 0.000000 0.000000 
#    y 0.000000 1.872510 0.000000 
#    z 0.000000 0.000000 1.708380 
# 
# From -- ./inp_files/29610.got.cif
#   From: 2010.05.17/outbox.cif.g08.bks.cpg/sg20_15_cif.got.tgz:29610.got - 2010.06.03 22:52:26.
