data_PCOD9321590
_publ_section_title
;
Structure prediction by ZEFSAII (Michael W. Deem and Ramdas Pophale) SiO2 
 PCOD9321590
Probable space group: C 2 2 21
;
_chemical_formula_sum "Si O2"
_cell_formula_units_Z 32
_cell_length_a 18.729159
_cell_length_b 13.714633
_cell_length_c 5.166608
_cell_angle_alpha 90.000000
_cell_angle_beta 90.000000
_cell_angle_gamma 90.000000
_cell_volume 1327.113231
_symmetry_space_group_name_H-M "C 2 2 21"
_symmetry_group_IT_number 20
_symmetry_cell_setting 'orthorhombic'
loop_
_space_group_symop_operation_xyz
x,y,z
-x,-y,1/2+z
x,-y,-z
-x,y,1/2-z
1/2+x,1/2+y,z
1/2-x,1/2-y,1/2+z
1/2+x,1/2-y,-z
1/2-x,1/2+y,1/2-z
loop_
_atom_site_type_symbol
_atom_site_label
_atom_site_fract_x
_atom_site_fract_y
_atom_site_fract_z
Si Si1 0.770589 0.683629 0.251274
Si Si2 0.695024 0.500000 0.000000
Si Si3 0.000000 0.438123 0.250000
Si Si4 0.574763 0.802935 0.591955
Si Si5 0.918232 0.907654 0.164168
O O1 0.746233 0.740631 0.511989
O O2 0.740334 0.573751 0.186739
O O3 0.856301 0.670832 0.255643
O O4 0.640629 0.418235 0.115731
O O5 0.979702 0.500000 0.500000
O O6 0.064415 0.371799 0.348582
O O7 0.500000 0.805744 0.750000
O O8 0.585390 0.691785 0.508308
O O9 0.000000 0.917379 0.250000
O O10 0.900408 0.000000 0.000000
#
# Coordination Sequence:
#
# PCOD9321590 Si02
#       5
#     8   4   4   8   8
#     4  12  29  50  76 114 161 205 264 325 405 482
#     4  12  26  46  76 110 156 206 254 326 400 472
#     4  12  28  50  78 114 156 206 280 328 392 466
#     4  11  27  49  81 116 158 212 266 337 392 475
#     4  11  23  42  75 114 152 200 257 323 396 484
#
# _framework density 24.112487999999999
#
# number of rings (size 3 to 8) (size 9 to 14) (size 15 to 20)
#    0.000    0.500    5.000    1.500    7.000    0.000 
#    0.000    0.000    0.000    0.000    0.000    0.000 
#    0.000    0.000    0.000    0.000    0.000    0.000 
#
# Total GULP energy -89364.374602 kJ/mol
# GULP energy per Si atom -5585.273413 kJ/mol
# Density = 2.405761 g / cm^3
# Si number density = 24.112488 Si / 1000 Ang^3
#
#
#
# Elastic Constant Matrix: (Units=GPa)
#
#
# Indices 1 2 3 4 5 6 
#
# 1 154.6529 28.4038 26.5288 0.0000 0.0000 0.0000
# 2 28.4038 149.7139 45.9987 0.0000 0.0000 0.0000
# 3 26.5288 45.9987 111.1343 0.0000 0.0000 0.0000
# 4 0.0000 0.0000 0.0000 24.1503 0.0000 0.0000
# 5 0.0000 0.0000 0.0000 0.0000 23.6858 0.0000
# 6 0.0000 0.0000 0.0000 0.0000 0.0000 -90.5320
#
#
#
# Elastic Compliance Matrix: (Units=1/GPa)
#
#
# Indices 1 2 3 4 5 6 
#
# 1 0.006849 -0.000913 -0.001257 0.000000 0.000000 0.000000
# 2 -0.000913 0.007774 -0.003000 0.000000 0.000000 0.000000
# 3 -0.001257 -0.003000 0.010540 0.000000 0.000000 0.000000
# 4 0.000000 0.000000 0.000000 0.041407 0.000000 0.000000
# 5 0.000000 0.000000 0.000000 0.000000 0.042219 0.000000
# 6 0.000000 0.000000 0.000000 0.000000 0.000000 -0.011046
#
#
# Mechanical properties :
#
#
# Convention : Reuss Voigt Hill
#
# Bulk Modulus (GPa) = 67.46088 68.59595 68.02842
# Shear Modulus (GPa) = 44.23767 12.43213 28.33490
#
# Velocity S-wave (km/s) = 4.28791 2.27312 3.43171
# Velocity P-wave (km/s) = 7.24936 5.94975 6.63147
#
# Compressibility (1/GPa) = 0.01482341
#
# Stress axis : x y z
#
# Youngs Moduli (GPa) = 145.99703 128.62816 94.87832
#
# Poissons Ratio (x) = 0.11747 0.11926
# Poissons Ratio (y) = 0.13333 0.28462
# Poissons Ratio (z) = 0.18352 0.38586
#
# Static dielectric constant tensor:
#      x y z
#    x 1.966500 0.000000 0.000000 
#    y 0.000000 1.975660 0.000000 
#    z 0.000000 0.000000 2.484960 
# 
# From -- ./inp_files/1603.got.cif
#   From: 2010.05.17/outbox.cif.g08.bks.cpg/sg20_1_cif.got.tgz:1603.got - 2010.06.03 22:52:26.
