data_PCOD9321861
_publ_section_title
;
Structure prediction by ZEFSAII (Michael W. Deem and Ramdas Pophale) SiO2 
 PCOD9321861
Probable space group: C 2 2 21
;
_chemical_formula_sum "Si O2"
_cell_formula_units_Z 40
_cell_length_a 14.392028
_cell_length_b 10.879299
_cell_length_c 9.494206
_cell_angle_alpha 90.000000
_cell_angle_beta 90.000000
_cell_angle_gamma 90.000000
_cell_volume 1486.556974
_symmetry_space_group_name_H-M "C 2 2 21"
_symmetry_group_IT_number 20
_symmetry_cell_setting 'orthorhombic'
loop_
_space_group_symop_operation_xyz
x,y,z
-x,-y,1/2+z
x,-y,-z
-x,y,1/2-z
1/2+x,1/2+y,z
1/2-x,1/2-y,1/2+z
1/2+x,1/2-y,-z
1/2-x,1/2+y,1/2-z
loop_
_atom_site_type_symbol
_atom_site_label
_atom_site_fract_x
_atom_site_fract_y
_atom_site_fract_z
Si Si1 0.124917 0.000000 0.000000
Si Si2 0.129152 0.042856 0.716388
Si Si3 0.599086 0.227688 0.981451
Si Si4 0.000000 0.602592 0.250000
Si Si5 0.337301 0.078956 0.783460
Si Si6 0.104277 0.199298 0.458869
O O1 0.066971 0.029809 0.856531
O O2 0.155595 0.856175 0.977436
O O3 0.232314 0.032103 0.785678
O O4 0.118869 0.165146 0.622882
O O5 0.126574 0.924836 0.620554
O O6 0.644438 0.129536 0.875890
O O7 0.499976 0.265536 0.920072
O O8 0.562991 0.172514 0.131398
O O9 0.920416 0.515372 0.180860
O O10 0.339197 0.190515 0.892640
#
# Coordination Sequence:
#
# PCOD9321861 Si02
#       6
#     4   8   8   4   8   8
#     4  12  26  50  78 114 156 206 268 334 396 486
#     4  11  28  45  78 114 159 207 266 336 411 468
#     4  12  26  49  79 113 157 210 273 329 399 487
#     4  12  28  48  78 114 156 218 262 326 410 484
#     4  12  27  49  77 114 167 212 267 338 399 494
#     4  11  25  49  75 112 154 210 265 332 403 479
#
# _framework density 26.907814999999999
#
# number of rings (size 3 to 8) (size 9 to 14) (size 15 to 20)
#    0.000    0.400    4.000    3.000    8.400    4.800 
#    0.000    0.000    0.000    0.000    0.000    0.000 
#    0.000    0.000    0.000    0.000    0.000    0.000 
#
# Total GULP energy -111780.867022 kJ/mol
# GULP energy per Si atom -5589.043351 kJ/mol
# Density = 2.684657 g / cm^3
# Si number density = 26.907815 Si / 1000 Ang^3
#
#
#
# Elastic Constant Matrix: (Units=GPa)
#
#
# Indices 1 2 3 4 5 6 
#
# 1 75.4274 15.4547 -21.8343 0.0000 0.0000 0.0000
# 2 15.4547 136.6909 63.4411 0.0000 0.0000 0.0000
# 3 -21.8343 63.4411 177.4096 0.0000 0.0000 0.0000
# 4 0.0000 0.0000 0.0000 61.9854 0.0000 0.0000
# 5 0.0000 0.0000 0.0000 0.0000 29.8916 0.0000
# 6 0.0000 0.0000 0.0000 0.0000 0.0000 -7.7058
#
#
#
# Elastic Compliance Matrix: (Units=1/GPa)
#
#
# Indices 1 2 3 4 5 6 
#
# 1 0.014707 -0.003001 0.002883 0.000000 0.000000 0.000000
# 2 -0.003001 0.009384 -0.003725 0.000000 0.000000 0.000000
# 3 0.002883 -0.003725 0.007324 0.000000 0.000000 0.000000
# 4 0.000000 0.000000 0.000000 0.016133 0.000000 0.000000
# 5 0.000000 0.000000 0.000000 0.000000 0.033454 0.000000
# 6 0.000000 0.000000 0.000000 0.000000 0.000000 -0.129772
#
#
# Mechanical properties :
#
#
# Convention : Reuss Voigt Hill
#
# Bulk Modulus (GPa) = 42.14218 55.96120 49.05169
# Shear Modulus (GPa) = -150.71764 38.99866 -55.85949
#
# Velocity S-wave (km/s) = -7.49228 3.81115 -4.56121
# Velocity P-wave (km/s) = 7.69090 6.34106 3.07740
#
# Compressibility (1/GPa) = 0.02372919
#
# Stress axis : x y z
#
# Youngs Moduli (GPa) = 67.99351 106.56516 136.54542
#
# Poissons Ratio (x) = 0.31980 -0.39369
# Poissons Ratio (y) = 0.20405 0.50863
# Poissons Ratio (z) = -0.19604 0.39696
#
# Static dielectric constant tensor:
#      x y z
#    x 2.132230 0.000000 0.000000 
#    y 0.000000 2.080480 0.000000 
#    z 0.000000 0.000000 2.257050 
# 
# From -- ./inp_files/9171.got.cif
#   From: 2010.05.17/outbox.cif.g08.bks.cpg/sg20_5_cif.got.tgz:9171.got - 2010.06.03 22:52:26.
