data_PCOD9321636
_publ_section_title
;
Structure prediction by ZEFSAII (Michael W. Deem and Ramdas Pophale) SiO2 
 PCOD9321636
Probable space group: C 2 2 21
;
_chemical_formula_sum "Si O2"
_cell_formula_units_Z 56
_cell_length_a 14.281435
_cell_length_b 11.647465
_cell_length_c 14.113865
_cell_angle_alpha 90.000000
_cell_angle_beta 90.000000
_cell_angle_gamma 90.000000
_cell_volume 2347.735791
_symmetry_space_group_name_H-M "C 2 2 21"
_symmetry_group_IT_number 20
_symmetry_cell_setting 'orthorhombic'
loop_
_space_group_symop_operation_xyz
x,y,z
-x,-y,1/2+z
x,-y,-z
-x,y,1/2-z
1/2+x,1/2+y,z
1/2-x,1/2-y,1/2+z
1/2+x,1/2-y,-z
1/2-x,1/2+y,1/2-z
loop_
_atom_site_type_symbol
_atom_site_label
_atom_site_fract_x
_atom_site_fract_y
_atom_site_fract_z
Si Si1 0.865350 0.290580 0.893734
Si Si2 0.496308 0.992341 0.136769
Si Si3 0.006049 0.866822 0.512364
Si Si4 0.195627 0.197895 0.957978
Si Si5 0.730476 0.636636 0.758991
Si Si6 0.923810 0.263213 0.171379
Si Si7 0.712135 0.042039 0.100973
O O1 0.924288 0.406624 0.883841
O O2 0.826287 0.235004 0.796958
O O3 0.936940 0.194186 0.929762
O O4 0.780164 0.312275 0.967287
O O5 0.500000 0.984599 0.250000
O O6 0.601761 0.009538 0.103646
O O7 0.456937 0.869504 0.104862
O O8 0.071700 0.844853 0.603452
O O9 0.902428 0.810643 0.513062
O O10 0.992122 0.000000 0.500000
O O11 0.194762 0.112704 0.866444
O O12 0.210647 0.320904 0.907030
O O13 0.832228 0.691641 0.777614
O O14 0.742233 0.525920 0.689795
O O15 0.000000 0.239953 0.250000
O O16 0.752435 0.000000 0.000000
#
# Coordination Sequence:
#
# PCOD9321636 Si02
#       7
#     8   8   8   8   8   8   8
#     4  12  27  47  80 115 155 208 259 328 399 489
#     4  11  23  44  79 115 151 194 268 331 397 457
#     4  12  29  54  75 113 164 211 258 329 413 486
#     4  12  27  51  77 115 160 207 271 326 408 478
#     4  12  26  44  76 117 155 199 268 324 398 475
#     4  11  23  48  78 116 149 206 267 330 393 474
#     4  12  23  46  78 112 156 211 260 332 396 478
#
# _framework density 23.852768999999999
#
# number of rings (size 3 to 8) (size 9 to 14) (size 15 to 20)
#    0.000    0.286    7.143    2.571    2.000    1.143 
#    5.143    0.000    0.000    0.000    0.000    0.000 
#    0.000    0.000    0.000    0.000    0.000    0.000 
#
# Total GULP energy -156736.413766 kJ/mol
# GULP energy per Si atom -5597.729063 kJ/mol
# Density = 2.379848 g / cm^3
# Si number density = 23.852769 Si / 1000 Ang^3
#
#
#
# Elastic Constant Matrix: (Units=GPa)
#
#
# Indices 1 2 3 4 5 6 
#
# 1 76.2010 0.4209 5.1319 0.0000 0.0000 0.0000
# 2 0.4209 100.8882 13.1603 0.0000 0.0000 0.0000
# 3 5.1319 13.1603 77.7053 0.0000 0.0000 0.0000
# 4 0.0000 0.0000 0.0000 31.2684 0.0000 0.0000
# 5 0.0000 0.0000 0.0000 0.0000 46.2837 0.0000
# 6 0.0000 0.0000 0.0000 0.0000 0.0000 25.4658
#
#
#
# Elastic Compliance Matrix: (Units=1/GPa)
#
#
# Indices 1 2 3 4 5 6 
#
# 1 0.013182 0.000060 -0.000881 0.000000 0.000000 0.000000
# 2 0.000060 0.010136 -0.001721 0.000000 0.000000 0.000000
# 3 -0.000881 -0.001721 0.013219 0.000000 0.000000 0.000000
# 4 0.000000 0.000000 0.000000 0.031981 0.000000 0.000000
# 5 0.000000 0.000000 0.000000 0.000000 0.021606 0.000000
# 6 0.000000 0.000000 0.000000 0.000000 0.000000 0.039268
#
#
# Mechanical properties :
#
#
# Convention : Reuss Voigt Hill
#
# Bulk Modulus (GPa) = 31.79234 32.46894 32.13064
# Shear Modulus (GPa) = 34.49223 36.34233 35.41728
#
# Velocity S-wave (km/s) = 3.80682 3.90758 3.85753
# Velocity P-wave (km/s) = 5.71664 5.83101 5.77411
#
# Compressibility (1/GPa) = 0.03145412
#
# Stress axis : x y z
#
# Youngs Moduli (GPa) = 75.86001 98.65668 75.65036
#
# Poissons Ratio (x) = -0.00591 0.06663
# Poissons Ratio (y) = -0.00454 0.13017
# Poissons Ratio (z) = 0.06681 0.16975
#
# Static dielectric constant tensor:
#      x y z
#    x 1.909130 0.000000 0.000000 
#    y 0.000000 1.943300 0.000000 
#    z 0.000000 0.000000 1.958070 
# 
# From -- ./inp_files/20714.got.cif
#   From: 2010.05.17/outbox.cif.g08.bks.cpg/sg20_11_cif.got.tgz:20714.got - 2010.06.03 22:52:26.
