data_PCOD9321522
_publ_section_title
;
Structure prediction by ZEFSAII (Michael W. Deem and Ramdas Pophale) SiO2 
 PCOD9321522
Probable space group: C 2 2 21
;
_chemical_formula_sum "Si O2"
_cell_formula_units_Z 64
_cell_length_a 9.430706
_cell_length_b 10.902455
_cell_length_c 27.575723
_cell_angle_alpha 90.000000
_cell_angle_beta 90.000000
_cell_angle_gamma 90.000000
_cell_volume 2835.276490
_symmetry_space_group_name_H-M "C 2 2 21"
_symmetry_group_IT_number 20
_symmetry_cell_setting 'orthorhombic'
loop_
_space_group_symop_operation_xyz
x,y,z
-x,-y,1/2+z
x,-y,-z
-x,y,1/2-z
1/2+x,1/2+y,z
1/2-x,1/2-y,1/2+z
1/2+x,1/2-y,-z
1/2-x,1/2+y,1/2-z
loop_
_atom_site_type_symbol
_atom_site_label
_atom_site_fract_x
_atom_site_fract_y
_atom_site_fract_z
Si Si1 0.853249 0.520065 0.408370
Si Si2 0.658160 0.963896 0.435712
Si Si3 0.592860 0.789699 0.823307
Si Si4 0.293897 0.852614 0.777508
Si Si5 0.701051 0.909349 0.330098
Si Si6 0.174940 0.812578 0.524429
Si Si7 0.409627 0.779475 0.351315
Si Si8 0.135130 0.820819 0.955998
O O1 0.891787 0.627697 0.370431
O O2 0.731781 0.577774 0.441986
O O3 0.833028 0.402366 0.372902
O O4 0.991506 0.491392 0.441426
O O5 0.760364 0.064130 0.458624
O O6 0.681195 0.986209 0.378735
O O7 0.685568 0.821146 0.448309
O O8 0.436879 0.799472 0.801766
O O9 0.697693 0.828748 0.779435
O O10 0.648552 0.655446 0.834722
O O11 0.169091 0.789053 0.807755
O O12 0.300028 0.998488 0.785608
O O13 0.565349 0.819929 0.333166
O O14 0.272787 0.791849 0.477382
O O15 0.009404 0.831990 0.513624
O O16 0.414214 0.698977 0.400455
#
# Coordination Sequence:
#
# PCOD9321522 Si02
#       8
#     8   8   8   8   8   8   8   8
#     4  11  22  45  70  91 134 176 222 273 335 400
#     4  11  22  46  68  93 131 174 220 275 334 394
#     4  11  23  41  67  99 129 172 217 272 330 392
#     4  11  25  42  65 100 135 168 222 273 330 397
#     4  11  22  45  71  92 133 177 219 272 331 396
#     4  12  26  45  65 101 133 173 228 279 336 406
#     4  11  23  45  69  95 130 181 219 271 339 398
#     4  12  24  44  69  97 133 175 224 279 339 397
#
# _framework density 22.572755000000001
#
# number of rings (size 3 to 8) (size 9 to 14) (size 15 to 20)
#    0.000    0.750    7.500    1.125    1.750    2.000 
#    9.000    0.000    0.000    0.000    0.000    0.000 
#    0.000    0.000    0.000    0.000    0.000    0.000 
#
# Total GULP energy -178807.960880 kJ/mol
# GULP energy per Si atom -5587.748777 kJ/mol
# Density = 2.252138 g / cm^3
# Si number density = 22.572755 Si / 1000 Ang^3
#
#
#
# Elastic Constant Matrix: (Units=GPa)
#
#
# Indices 1 2 3 4 5 6 
#
# 1 78.6240 45.2277 0.3571 0.0000 0.0000 0.0000
# 2 45.2277 72.5505 0.9409 0.0000 0.0000 0.0000
# 3 0.3571 0.9409 36.9950 0.0000 0.0000 0.0000
# 4 0.0000 0.0000 0.0000 21.0018 0.0000 0.0000
# 5 0.0000 0.0000 0.0000 0.0000 27.4864 0.0000
# 6 0.0000 0.0000 0.0000 0.0000 0.0000 33.0327
#
#
#
# Elastic Compliance Matrix: (Units=1/GPa)
#
#
# Indices 1 2 3 4 5 6 
#
# 1 0.019830 -0.012364 0.000123 0.000000 0.000000 0.000000
# 2 -0.012364 0.021497 -0.000427 0.000000 0.000000 0.000000
# 3 0.000123 -0.000427 0.027040 0.000000 0.000000 0.000000
# 4 0.000000 0.000000 0.000000 0.047615 0.000000 0.000000
# 5 0.000000 0.000000 0.000000 0.000000 0.036382 0.000000
# 6 0.000000 0.000000 0.000000 0.000000 0.000000 0.030273
#
#
# Mechanical properties :
#
#
# Convention : Reuss Voigt Hill
#
# Bulk Modulus (GPa) = 23.23902 31.24676 27.24289
# Shear Modulus (GPa) = 22.49040 25.74707 24.11873
#
# Velocity S-wave (km/s) = 3.15993 3.38098 3.27232
# Velocity P-wave (km/s) = 4.86118 5.39575 5.13542
#
# Compressibility (1/GPa) = 0.04303108
#
# Stress axis : x y z
#
# Youngs Moduli (GPa) = 50.42774 46.51901 36.98172
#
# Poissons Ratio (x) = 0.57515 -0.00455
# Poissons Ratio (y) = 0.62348 0.01581
# Poissons Ratio (z) = -0.00621 0.01988
#
# Static dielectric constant tensor:
#      x y z
#    x 1.820540 0.000000 0.000000 
#    y 0.000000 1.862020 0.000000 
#    z 0.000000 0.000000 1.892940 
# 
# From -- ./inp_files/31058.got.cif
#   From: 2010.05.17/outbox.cif.g08.bks.cpg/sg20_16_cif.got.tgz:31058.got - 2010.06.03 22:52:26.
