data_PCOD9321474
_publ_section_title
;
Structure prediction by ZEFSAII (Michael W. Deem and Ramdas Pophale) SiO2 
 PCOD9321474
Probable space group: C 2 2 21
;
_chemical_formula_sum "Si O2"
_cell_formula_units_Z 56
_cell_length_a 8.065595
_cell_length_b 15.264639
_cell_length_c 20.236868
_cell_angle_alpha 90.000000
_cell_angle_beta 90.000000
_cell_angle_gamma 90.000000
_cell_volume 2491.530728
_symmetry_space_group_name_H-M "C 2 2 21"
_symmetry_group_IT_number 20
_symmetry_cell_setting 'orthorhombic'
loop_
_space_group_symop_operation_xyz
x,y,z
-x,-y,1/2+z
x,-y,-z
-x,y,1/2-z
1/2+x,1/2+y,z
1/2-x,1/2-y,1/2+z
1/2+x,1/2-y,-z
1/2-x,1/2+y,1/2-z
loop_
_atom_site_type_symbol
_atom_site_label
_atom_site_fract_x
_atom_site_fract_y
_atom_site_fract_z
Si Si1 0.814413 0.535703 0.135334
Si Si2 0.297624 0.397605 0.011968
Si Si3 0.330528 0.783090 0.375456
Si Si4 0.192604 0.832949 0.760248
Si Si5 0.627852 0.168127 0.122008
Si Si6 0.677549 0.626115 0.020856
Si Si7 0.803846 0.661110 0.884457
O O1 0.720150 0.583161 0.194058
O O2 0.711888 0.543355 0.067279
O O3 0.823366 0.432940 0.150122
O O4 0.975150 0.598744 0.124139
O O5 0.213280 0.350016 0.948900
O O6 0.492401 0.377222 0.006612
O O7 0.269087 0.500000 0.000000
O O8 0.231570 0.367337 0.083792
O O9 0.251536 0.750392 0.306178
O O10 0.301917 0.706312 0.428495
O O11 0.528217 0.788783 0.366468
O O12 0.280159 0.850376 0.691065
O O13 0.000000 0.821750 0.750000
O O14 0.643314 0.275807 0.125638
O O15 0.806368 0.640406 0.962439
#
# Coordination Sequence:
#
# PCOD9321474 Si02
#       7
#     8   8   8   8   8   8   8
#     4  11  26  44  70 104 144 192 248 306 372 454
#     4  12  24  42  71 110 142 190 245 308 377 443
#     4  11  22  43  71 100 140 190 242 299 366 448
#     4  11  24  49  71  96 144 194 240 306 383 441
#     4  12  24  46  72 103 148 193 245 305 379 445
#     4  11  22  42  67 102 148 183 238 306 368 436
#     4  12  23  43  71 108 140 193 246 299 373 445
#
# _framework density 22.476140999999998
#
# number of rings (size 3 to 8) (size 9 to 14) (size 15 to 20)
#    0.000    0.571    4.286    4.286    4.000    0.000 
#    7.714    1.429    0.000    0.000    0.000    0.000 
#    0.000    0.000    0.000    0.000    0.000    0.000 
#
# Total GULP energy -156217.631470 kJ/mol
# GULP energy per Si atom -5579.201124 kJ/mol
# Density = 2.242498 g / cm^3
# Si number density = 22.476141 Si / 1000 Ang^3
#
#
#
# Elastic Constant Matrix: (Units=GPa)
#
#
# Indices 1 2 3 4 5 6 
#
# 1 67.4015 18.0067 34.6176 0.0000 0.0000 0.0000
# 2 18.0067 106.5707 12.7567 0.0000 0.0000 0.0000
# 3 34.6176 12.7567 97.8670 0.0000 0.0000 0.0000
# 4 0.0000 0.0000 0.0000 32.8880 0.0000 0.0000
# 5 0.0000 0.0000 0.0000 0.0000 34.8899 0.0000
# 6 0.0000 0.0000 0.0000 0.0000 0.0000 22.5905
#
#
#
# Elastic Compliance Matrix: (Units=1/GPa)
#
#
# Indices 1 2 3 4 5 6 
#
# 1 0.018719 -0.002408 -0.006308 0.000000 0.000000 0.000000
# 2 -0.002408 0.009842 -0.000431 0.000000 0.000000 0.000000
# 3 -0.006308 -0.000431 0.012505 0.000000 0.000000 0.000000
# 4 0.000000 0.000000 0.000000 0.030406 0.000000 0.000000
# 5 0.000000 0.000000 0.000000 0.000000 0.028662 0.000000
# 6 0.000000 0.000000 0.000000 0.000000 0.000000 0.044266
#
#
# Mechanical properties :
#
#
# Convention : Reuss Voigt Hill
#
# Bulk Modulus (GPa) = 43.91104 44.73347 44.32225
# Shear Modulus (GPa) = 29.36254 31.83755 30.60004
#
# Velocity S-wave (km/s) = 3.61832 3.76773 3.69378
# Velocity P-wave (km/s) = 6.08568 6.23487 6.16072
#
# Compressibility (1/GPa) = 0.02277332
#
# Stress axis : x y z
#
# Youngs Moduli (GPa) = 53.42075 101.60640 79.96632
#
# Poissons Ratio (x) = 0.24466 0.50439
# Poissons Ratio (y) = 0.12863 0.03448
# Poissons Ratio (z) = 0.33695 0.04381
#
# Static dielectric constant tensor:
#      x y z
#    x 1.851890 0.000000 0.000000 
#    y 0.000000 1.910300 0.000000 
#    z 0.000000 0.000000 1.836050 
# 
# From -- ./inp_files/26702.got.cif
#   From: 2010.05.17/outbox.cif.g08.bks.cpg/sg20_14_cif.got.tgz:26702.got - 2010.06.03 22:52:26.
