data_PCOD9321151
_publ_section_title
;
Structure prediction by ZEFSAII (Michael W. Deem and Ramdas Pophale) SiO2 
 PCOD9321151
Probable space group: C 2 2 21
;
_chemical_formula_sum "Si O2"
_cell_formula_units_Z 52
_cell_length_a 21.573670
_cell_length_b 13.556912
_cell_length_c 8.675077
_cell_angle_alpha 90.000000
_cell_angle_beta 90.000000
_cell_angle_gamma 90.000000
_cell_volume 2537.220119
_symmetry_space_group_name_H-M "C 2 2 21"
_symmetry_group_IT_number 20
_symmetry_cell_setting 'orthorhombic'
loop_
_space_group_symop_operation_xyz
x,y,z
-x,-y,1/2+z
x,-y,-z
-x,y,1/2-z
1/2+x,1/2+y,z
1/2-x,1/2-y,1/2+z
1/2+x,1/2-y,-z
1/2-x,1/2+y,1/2-z
loop_
_atom_site_type_symbol
_atom_site_label
_atom_site_fract_x
_atom_site_fract_y
_atom_site_fract_z
Si Si1 0.497532 0.000000 0.500000
Si Si2 0.295963 0.000000 0.000000
Si Si3 0.103974 0.625943 0.178429
Si Si4 0.204578 0.500000 0.000000
Si Si5 0.791743 0.985963 0.250796
Si Si6 0.601426 0.857348 0.452005
Si Si7 0.319005 0.697509 0.197886
Si Si8 0.311937 0.712624 0.565269
O O1 0.454880 0.071390 0.396049
O O2 0.542012 0.076860 0.593145
O O3 0.253421 0.955403 0.869363
O O4 0.338926 0.923499 0.086165
O O5 0.099090 0.637713 0.361848
O O6 0.125781 0.732116 0.120372
O O7 0.160567 0.561317 0.111207
O O8 0.250329 0.558290 0.886284
O O9 0.815490 0.895880 0.354458
O O10 0.828923 0.078704 0.182851
O O11 0.622315 0.754361 0.379665
O O12 0.315930 0.718874 0.380482
O O13 0.253367 0.736947 0.123775
#
# Coordination Sequence:
#
# PCOD9321151 Si02
#       8
#     4   4   8   4   8   8   8   8
#     4  10  26  44  68  90 130 182 228 284 342 394
#     4  11  18  37  58  84 134 175 213 266 326 393
#     4  11  23  40  60  94 127 172 230 277 333 402
#     4  11  22  35  62  90 130 177 221 270 330 403
#     4  12  22  37  58  93 137 181 218 267 335 410
#     4  11  23  39  63  90 129 175 227 278 333 399
#     4  12  23  38  60  93 137 180 221 271 341 403
#     4  12  23  37  59  94 136 181 222 272 338 403
#
# _framework density 20.494872000000001
#
# number of rings (size 3 to 8) (size 9 to 14) (size 15 to 20)
#    0.000    0.615    6.154    2.308    2.154    2.462 
#    0.000    0.000    0.000    0.000    0.000    8.615 
#    0.000    0.000    0.000    0.000    0.000    0.000 
#
# Total GULP energy -144841.593955 kJ/mol
# GULP energy per Si atom -5570.830537 kJ/mol
# Density = 2.044822 g / cm^3
# Si number density = 20.494872 Si / 1000 Ang^3
#
#
#
# Elastic Constant Matrix: (Units=GPa)
#
#
# Indices 1 2 3 4 5 6 
#
# 1 94.0532 63.1279 51.6210 0.0000 0.0000 0.0000
# 2 63.1279 150.8225 50.0410 0.0000 0.0000 0.0000
# 3 51.6210 50.0410 124.2233 0.0000 0.0000 0.0000
# 4 0.0000 0.0000 0.0000 38.0628 0.0000 0.0000
# 5 0.0000 0.0000 0.0000 0.0000 26.0193 0.0000
# 6 0.0000 0.0000 0.0000 0.0000 0.0000 38.0313
#
#
#
# Elastic Compliance Matrix: (Units=1/GPa)
#
#
# Indices 1 2 3 4 5 6 
#
# 1 0.016982 -0.005502 -0.004840 0.000000 0.000000 0.000000
# 2 -0.005502 0.009436 -0.001515 0.000000 0.000000 0.000000
# 3 -0.004840 -0.001515 0.010672 0.000000 0.000000 0.000000
# 4 0.000000 0.000000 0.000000 0.026272 0.000000 0.000000
# 5 0.000000 0.000000 0.000000 0.000000 0.038433 0.000000
# 6 0.000000 0.000000 0.000000 0.000000 0.000000 0.026294
#
#
# Mechanical properties :
#
#
# Convention : Reuss Voigt Hill
#
# Bulk Modulus (GPa) = 74.76578 77.63096 76.19837
# Shear Modulus (GPa) = 31.99776 34.04330 33.02053
#
# Velocity S-wave (km/s) = 3.95556 4.08004 4.01828
# Velocity P-wave (km/s) = 7.57769 7.75603 7.66738
#
# Compressibility (1/GPa) = 0.01337510
#
# Stress axis : x y z
#
# Youngs Moduli (GPa) = 58.88675 105.98039 93.70628
#
# Poissons Ratio (x) = 0.58309 0.45358
# Poissons Ratio (y) = 0.32399 0.14194
# Poissons Ratio (z) = 0.28504 0.16053
#
# Static dielectric constant tensor:
#      x y z
#    x 1.760280 0.000000 0.000000 
#    y 0.000000 1.883140 0.000000 
#    z 0.000000 0.000000 1.806720 
# 
# From -- ./inp_files/10168.got.cif
#   From: 2010.05.17/outbox.cif.g08.bks.cpg/sg20_6_cif.got.tgz:10168.got - 2010.06.03 22:52:26.
