data_PCOD9321821
_publ_section_title
;
Structure prediction by ZEFSAII (Michael W. Deem and Ramdas Pophale) SiO2 
 PCOD9321821
Probable space group: C 2 2 21
;
_chemical_formula_sum "Si O2"
_cell_formula_units_Z 36
_cell_length_a 21.661551
_cell_length_b 12.524899
_cell_length_c 6.291444
_cell_angle_alpha 90.000000
_cell_angle_beta 90.000000
_cell_angle_gamma 90.000000
_cell_volume 1706.923735
_symmetry_space_group_name_H-M "C 2 2 21"
_symmetry_group_IT_number 20
_symmetry_cell_setting 'orthorhombic'
loop_
_space_group_symop_operation_xyz
x,y,z
-x,-y,1/2+z
x,-y,-z
-x,y,1/2-z
1/2+x,1/2+y,z
1/2-x,1/2-y,1/2+z
1/2+x,1/2-y,-z
1/2-x,1/2+y,1/2-z
loop_
_atom_site_type_symbol
_atom_site_label
_atom_site_fract_x
_atom_site_fract_y
_atom_site_fract_z
Si Si1 0.836094 0.701679 0.844958
Si Si2 0.944651 0.381702 0.413499
Si Si3 0.000000 0.042060 0.750000
Si Si4 0.098331 0.218440 0.743992
Si Si5 0.706522 0.373614 0.985943
O O1 0.875815 0.627373 0.687564
O O2 0.811895 0.810486 0.730343
O O3 0.886192 0.729314 0.021992
O O4 0.777390 0.645639 0.950549
O O5 0.955428 0.500000 0.500000
O O6 0.940214 0.295505 0.601557
O O7 0.000000 0.356034 0.250000
O O8 0.939243 0.111365 0.782098
O O9 0.990896 0.000000 0.500000
O O10 0.163700 0.187620 0.846030
O O11 0.693552 0.500000 0.000000
#
# Coordination Sequence:
#
# PCOD9321821 Si02
#       5
#     8   8   4   8   8
#     4  11  25  46  70 107 146 190 245 305 371 448
#     4  11  28  45  73 106 144 194 244 305 377 446
#     4  12  30  48  78 110 146 204 256 312 382 442
#     4  11  26  48  71 103 149 192 242 313 363 457
#     4  11  25  43  72 104 145 192 245 302 371 443
#
# _framework density 21.090574
#
# number of rings (size 3 to 8) (size 9 to 14) (size 15 to 20)
#    0.000    0.889    2.222    2.000   18.667    0.000 
#    0.000    0.000    0.000    0.000    0.000    0.000 
#    0.000    0.000    0.000    0.000    0.000    0.000 
#
# Total GULP energy -100420.838377 kJ/mol
# GULP energy per Si atom -5578.935465 kJ/mol
# Density = 2.104257 g / cm^3
# Si number density = 21.090574 Si / 1000 Ang^3
#
#
#
# Elastic Constant Matrix: (Units=GPa)
#
#
# Indices 1 2 3 4 5 6 
#
# 1 112.7125 12.4281 30.4580 0.0000 0.0000 0.0000
# 2 12.4281 76.3786 30.8334 0.0000 0.0000 0.0000
# 3 30.4580 30.8334 88.3860 0.0000 0.0000 0.0000
# 4 0.0000 0.0000 0.0000 24.4705 0.0000 0.0000
# 5 0.0000 0.0000 0.0000 0.0000 43.5390 0.0000
# 6 0.0000 0.0000 0.0000 0.0000 0.0000 40.6380
#
#
#
# Elastic Compliance Matrix: (Units=1/GPa)
#
#
# Indices 1 2 3 4 5 6 
#
# 1 0.009788 -0.000269 -0.003279 0.000000 0.000000 0.000000
# 2 -0.000269 0.015246 -0.005226 0.000000 0.000000 0.000000
# 3 -0.003279 -0.005226 0.014267 0.000000 0.000000 0.000000
# 4 0.000000 0.000000 0.000000 0.040866 0.000000 0.000000
# 5 0.000000 0.000000 0.000000 0.000000 0.022968 0.000000
# 6 0.000000 0.000000 0.000000 0.000000 0.000000 0.024608
#
#
# Mechanical properties :
#
#
# Convention : Reuss Voigt Hill
#
# Bulk Modulus (GPa) = 45.97038 47.21291 46.59164
# Shear Modulus (GPa) = 32.77808 35.31333 34.04570
#
# Velocity S-wave (km/s) = 3.94656 4.09634 4.02215
# Velocity P-wave (km/s) = 6.52771 6.69386 6.61131
#
# Compressibility (1/GPa) = 0.02175314
#
# Stress axis : x y z
#
# Youngs Moduli (GPa) = 102.16714 65.59056 70.09157
#
# Poissons Ratio (x) = 0.01764 0.22984
# Poissons Ratio (y) = 0.02747 0.36629
# Poissons Ratio (z) = 0.33502 0.34277
#
# Static dielectric constant tensor:
#      x y z
#    x 1.740210 0.000000 0.000000 
#    y 0.000000 1.721810 0.000000 
#    z 0.000000 0.000000 1.848260 
# 
# From -- ./inp_files/1217.got.cif
#   From: 2010.05.17/outbox.cif.g08.bks.cpg/sg20_1_cif.got.tgz:1217.got - 2010.06.03 22:52:26.
