data_PCOD9321797
_publ_section_title
;
Structure prediction by ZEFSAII (Michael W. Deem and Ramdas Pophale) SiO2 
 PCOD9321797
Probable space group: C 2 2 21
;
_chemical_formula_sum "Si O2"
_cell_formula_units_Z 32
_cell_length_a 5.218788
_cell_length_b 17.416664
_cell_length_c 14.502981
_cell_angle_alpha 90.000000
_cell_angle_beta 90.000000
_cell_angle_gamma 90.000000
_cell_volume 1318.232172
_symmetry_space_group_name_H-M "C 2 2 21"
_symmetry_group_IT_number 20
_symmetry_cell_setting 'orthorhombic'
loop_
_space_group_symop_operation_xyz
x,y,z
-x,-y,1/2+z
x,-y,-z
-x,y,1/2-z
1/2+x,1/2+y,z
1/2-x,1/2-y,1/2+z
1/2+x,1/2-y,-z
1/2-x,1/2+y,1/2-z
loop_
_atom_site_type_symbol
_atom_site_label
_atom_site_fract_x
_atom_site_fract_y
_atom_site_fract_z
Si Si1 0.804308 0.827454 0.329936
Si Si2 0.500000 0.704500 0.250000
Si Si3 0.808763 0.907591 0.519839
Si Si4 0.680404 0.100768 0.138761
Si Si5 0.500000 0.037110 0.750000
O O1 0.568226 0.766550 0.330462
O O2 0.874124 0.853143 0.432373
O O3 0.712872 0.907770 0.288934
O O4 0.000000 0.798285 0.250000
O O5 0.262927 0.647344 0.231234
O O6 0.553641 0.876176 0.571891
O O7 0.054453 0.901067 0.584398
O O8 0.773404 0.000000 0.500000
O O9 0.611129 0.015980 0.171236
#
# Coordination Sequence:
#
# PCOD9321797 Si02
#       5
#     8   4   8   8   4
#     4  11  27  49  79 113 161 214 262 325 400 479
#     4  11  30  48  76 113 162 214 254 319 410 488
#     4  12  26  47  80 120 154 199 273 336 389 458
#     4  12  27  47  79 114 156 206 262 328 393 472
#     4  11  24  48  76 113 152 212 262 325 384 478
#
# _framework density 24.274936
#
# number of rings (size 3 to 8) (size 9 to 14) (size 15 to 20)
#    0.000    0.500    2.500    3.750   14.000    2.000 
#    0.000    0.000    0.000    0.000    0.000    0.000 
#    0.000    0.000    0.000    0.000    0.000    0.000 
#
# Total GULP energy -89232.642995 kJ/mol
# GULP energy per Si atom -5577.040187 kJ/mol
# Density = 2.421968 g / cm^3
# Si number density = 24.274936 Si / 1000 Ang^3
#
#
#
# Elastic Constant Matrix: (Units=GPa)
#
#
# Indices 1 2 3 4 5 6 
#
# 1 176.9976 30.4121 70.5063 0.0000 0.0000 0.0000
# 2 30.4121 82.7780 12.7463 0.0000 0.0000 0.0000
# 3 70.5063 12.7463 108.0377 0.0000 0.0000 0.0000
# 4 0.0000 0.0000 0.0000 8.5112 0.0000 0.0000
# 5 0.0000 0.0000 0.0000 0.0000 55.0120 0.0000
# 6 0.0000 0.0000 0.0000 0.0000 0.0000 33.4123
#
#
#
# Elastic Compliance Matrix: (Units=1/GPa)
#
#
# Indices 1 2 3 4 5 6 
#
# 1 0.008001 -0.002175 -0.004965 0.000000 0.000000 0.000000
# 2 -0.002175 0.012895 -0.000102 0.000000 0.000000 0.000000
# 3 -0.004965 -0.000102 0.012508 0.000000 0.000000 0.000000
# 4 0.000000 0.000000 0.000000 0.117492 0.000000 0.000000
# 5 0.000000 0.000000 0.000000 0.000000 0.018178 0.000000
# 6 0.000000 0.000000 0.000000 0.000000 0.000000 0.029929
#
#
# Mechanical properties :
#
#
# Convention : Reuss Voigt Hill
#
# Bulk Modulus (GPa) = 52.85208 66.12698 59.48953
# Shear Modulus (GPa) = 22.74841 36.33035 29.53938
#
# Velocity S-wave (km/s) = 3.06455 3.87281 3.49215
# Velocity P-wave (km/s) = 5.86017 6.87737 6.38904
#
# Compressibility (1/GPa) = 0.01892073
#
# Stress axis : x y z
#
# Youngs Moduli (GPa) = 124.97861 77.54752 79.94661
#
# Poissons Ratio (x) = 0.16867 0.39695
# Poissons Ratio (y) = 0.27184 0.00815
# Poissons Ratio (z) = 0.62054 0.00790
#
# Static dielectric constant tensor:
#      x y z
#    x 2.015610 0.000000 0.000000 
#    y 0.000000 1.959960 0.000000 
#    z 0.000000 0.000000 2.036780 
# 
# From -- ./inp_files/17468.got.cif
#   From: 2010.05.17/outbox.cif.g08.bks.cpg/sg20_9_cif.got.tgz:17468.got - 2010.06.03 22:52:26.
