data_PCOD9321304
_publ_section_title
;
Structure prediction by ZEFSAII (Michael W. Deem and Ramdas Pophale) SiO2 
 PCOD9321304
Probable space group: C 2 2 21
;
_chemical_formula_sum "Si O2"
_cell_formula_units_Z 16
_cell_length_a 20.211915
_cell_length_b 7.770852
_cell_length_c 5.048871
_cell_angle_alpha 90.000000
_cell_angle_beta 90.000000
_cell_angle_gamma 90.000000
_cell_volume 792.994865
_symmetry_space_group_name_H-M "C 2 2 21"
_symmetry_group_IT_number 20
_symmetry_cell_setting 'orthorhombic'
loop_
_space_group_symop_operation_xyz
x,y,z
-x,-y,1/2+z
x,-y,-z
-x,y,1/2-z
1/2+x,1/2+y,z
1/2-x,1/2-y,1/2+z
1/2+x,1/2-y,-z
1/2-x,1/2+y,1/2-z
loop_
_atom_site_type_symbol
_atom_site_label
_atom_site_fract_x
_atom_site_fract_y
_atom_site_fract_z
Si Si1 0.428295 0.372961 0.750910
Si Si2 0.287372 0.308541 0.878720
O O1 0.419341 0.500000 0.500000
O O2 0.500000 0.281857 0.750000
O O3 0.362076 0.262877 0.789857
O O4 0.432935 0.500000 0.000000
O O5 0.242049 0.697777 0.381543
O O6 0.289063 0.500000 0.000000
#
# Coordination Sequence:
#
# PCOD9321304 Si02
#       2
#     8   8
#     4   9  17  31  52  78 104 134 179 225 257 298
#     4  11  21  35  55  82 111 140 176 219 268 318
#
# _framework density 20.176674999999999
#
# number of rings (size 3 to 8) (size 9 to 14) (size 15 to 20)
#    0.000    2.000    0.000    7.500    0.000    0.000 
#    0.000    0.000    0.000    6.000    0.000    7.000 
#    0.000    0.000    0.000    0.000    0.000    0.000 
#
# Total GULP energy -44595.019693 kJ/mol
# GULP energy per Si atom -5574.377462 kJ/mol
# Density = 2.013075 g / cm^3
# Si number density = 20.176675 Si / 1000 Ang^3
#
#
#
# Elastic Constant Matrix: (Units=GPa)
#
#
# Indices 1 2 3 4 5 6 
#
# 1 233.9249 23.1059 61.2959 0.0000 0.0000 0.0000
# 2 23.1059 19.8114 3.9203 0.0000 0.0000 0.0000
# 3 61.2959 3.9203 155.5056 0.0000 0.0000 0.0000
# 4 0.0000 0.0000 0.0000 30.5316 0.0000 0.0000
# 5 0.0000 0.0000 0.0000 0.0000 34.2218 0.0000
# 6 0.0000 0.0000 0.0000 0.0000 0.0000 28.7930
#
#
#
# Elastic Compliance Matrix: (Units=1/GPa)
#
#
# Indices 1 2 3 4 5 6 
#
# 1 0.005371 -0.005875 -0.001969 0.000000 0.000000 0.000000
# 2 -0.005875 0.057154 0.000875 0.000000 0.000000 0.000000
# 3 -0.001969 0.000875 0.007185 0.000000 0.000000 0.000000
# 4 0.000000 0.000000 0.000000 0.032753 0.000000 0.000000
# 5 0.000000 0.000000 0.000000 0.000000 0.029221 0.000000
# 6 0.000000 0.000000 0.000000 0.000000 0.000000 0.034731
#
#
# Mechanical properties :
#
#
# Convention : Reuss Voigt Hill
#
# Bulk Modulus (GPa) = 17.93006 65.09848 41.51427
# Shear Modulus (GPa) = 25.13277 40.10393 32.61835
#
# Velocity S-wave (km/s) = 3.53318 4.46313 4.02510
# Velocity P-wave (km/s) = 5.05473 7.67422 6.49785
#
# Compressibility (1/GPa) = 0.05577227
#
# Stress axis : x y z
#
# Youngs Moduli (GPa) = 186.18186 17.49649 139.18427
#
# Poissons Ratio (x) = 0.10279 0.27406
# Poissons Ratio (y) = 1.09375 -0.12175
# Poissons Ratio (z) = 0.36660 -0.01530
#
# Static dielectric constant tensor:
#      x y z
#    x 1.839650 0.000000 0.000000 
#    y 0.000000 1.712590 0.000000 
#    z 0.000000 0.000000 1.685650 
# 
# From -- ./inp_files/101.got.cif
#   From: 2010.05.17/outbox.cif.g08.bks.cpg/sg20_1_cif.got.tgz:101.got - 2010.06.03 22:52:26.
