data_PCOD9321023
_publ_section_title
;
Structure prediction by ZEFSAII (Michael W. Deem and Ramdas Pophale) SiO2 
 PCOD9321023
Probable space group: C 2 2 21
;
_chemical_formula_sum "Si O2"
_cell_formula_units_Z 40
_cell_length_a 29.639183
_cell_length_b 4.902766
_cell_length_c 10.899083
_cell_angle_alpha 90.000000
_cell_angle_beta 90.000000
_cell_angle_gamma 90.000000
_cell_volume 1583.789115
_symmetry_space_group_name_H-M "C 2 2 21"
_symmetry_group_IT_number 20
_symmetry_cell_setting 'orthorhombic'
loop_
_space_group_symop_operation_xyz
x,y,z
-x,-y,1/2+z
x,-y,-z
-x,y,1/2-z
1/2+x,1/2+y,z
1/2-x,1/2-y,1/2+z
1/2+x,1/2-y,-z
1/2-x,1/2+y,1/2-z
loop_
_atom_site_type_symbol
_atom_site_label
_atom_site_fract_x
_atom_site_fract_y
_atom_site_fract_z
Si Si1 0.893426 0.348057 0.333871
Si Si2 0.006517 0.815377 0.881148
Si Si3 0.172491 0.000000 0.000000
Si Si4 0.627776 0.649899 0.674463
Si Si5 0.778659 0.241744 0.734899
Si Si6 0.568931 0.000000 0.500000
O O1 0.944114 0.313467 0.380103
O O2 0.884875 0.653700 0.289711
O O3 0.859113 0.222450 0.432589
O O4 0.884869 0.153103 0.215466
O O5 0.000000 0.961161 0.750000
O O6 0.966064 0.601133 0.895916
O O7 0.002463 0.000000 0.000000
O O8 0.202867 0.141625 0.896108
O O9 0.681618 0.683175 0.667290
O O10 0.600255 0.771144 0.561389
O O11 0.764460 0.555665 0.734102
#
# Coordination Sequence:
#
# PCOD9321023 Si02
#       6
#     8   8   4   8   8   4
#     4  11  24  46  73 108 140 200 251 308 355 449
#     4  12  26  46  75 110 156 205 266 310 375 456
#     4  10  24  47  78 102 146 190 248 301 384 452
#     4  11  26  48  72 105 153 189 250 305 389 443
#     4  11  25  47  76 109 141 185 247 313 381 460
#     4  12  28  43  72 108 158 204 242 315 384 450
#
# _framework density 25.255883999999998
#
# number of rings (size 3 to 8) (size 9 to 14) (size 15 to 20)
#    0.000    0.800    3.000    3.600    2.800    8.800 
#    0.000    4.000    0.000    0.000    0.000    0.000 
#    0.000    0.000    0.000    0.000    0.000    0.000 
#
# Total GULP energy -112235.956243 kJ/mol
# GULP energy per Si atom -5611.797812 kJ/mol
# Density = 2.519840 g / cm^3
# Si number density = 25.255884 Si / 1000 Ang^3
#
#
#
# Elastic Constant Matrix: (Units=GPa)
#
#
# Indices 1 2 3 4 5 6 
#
# 1 131.9513 6.9424 21.2158 0.0000 0.0000 0.0000
# 2 6.9424 66.8270 13.3882 0.0000 0.0000 0.0000
# 3 21.2158 13.3882 146.4863 0.0000 0.0000 0.0000
# 4 0.0000 0.0000 0.0000 47.4830 0.0000 0.0000
# 5 0.0000 0.0000 0.0000 0.0000 35.9673 0.0000
# 6 0.0000 0.0000 0.0000 0.0000 0.0000 14.3925
#
#
#
# Elastic Compliance Matrix: (Units=1/GPa)
#
#
# Indices 1 2 3 4 5 6 
#
# 1 0.007782 -0.000594 -0.001073 0.000000 0.000000 0.000000
# 2 -0.000594 0.015288 -0.001311 0.000000 0.000000 0.000000
# 3 -0.001073 -0.001311 0.007102 0.000000 0.000000 0.000000
# 4 0.000000 0.000000 0.000000 0.021060 0.000000 0.000000
# 5 0.000000 0.000000 0.000000 0.000000 0.027803 0.000000
# 6 0.000000 0.000000 0.000000 0.000000 0.000000 0.069480
#
#
# Mechanical properties :
#
#
# Convention : Reuss Voigt Hill
#
# Bulk Modulus (GPa) = 41.29326 47.59524 44.44425
# Shear Modulus (GPa) = 30.76093 39.81646 35.28870
#
# Velocity S-wave (km/s) = 3.49373 3.97485 3.74203
# Velocity P-wave (km/s) = 5.71492 6.32076 6.02546
#
# Compressibility (1/GPa) = 0.02421703
#
# Stress axis : x y z
#
# Youngs Moduli (GPa) = 128.49702 65.40915 140.80912
#
# Poissons Ratio (x) = 0.03882 0.15107
# Poissons Ratio (y) = 0.07627 0.18465
# Poissons Ratio (z) = 0.13786 0.08577
#
# Static dielectric constant tensor:
#      x y z
#    x 1.971900 0.000000 0.000000 
#    y 0.000000 1.955430 0.000000 
#    z 0.000000 0.000000 2.053420 
# 
# From -- ./inp_files/17160.got.cif
#   From: 2010.05.17/outbox.cif.g08.bks.cpg/sg20_9_cif.got.tgz:17160.got - 2010.06.03 22:52:26.
