data_PCOD9321542
_publ_section_title
;
Structure prediction by ZEFSAII (Michael W. Deem and Ramdas Pophale) SiO2 
 PCOD9321542
Probable space group: C 2 2 21
;
_chemical_formula_sum "Si O2"
_cell_formula_units_Z 44
_cell_length_a 27.647229
_cell_length_b 8.796552
_cell_length_c 7.857302
_cell_angle_alpha 90.000000
_cell_angle_beta 90.000000
_cell_angle_gamma 90.000000
_cell_volume 1910.898106
_symmetry_space_group_name_H-M "C 2 2 21"
_symmetry_group_IT_number 20
_symmetry_cell_setting 'orthorhombic'
loop_
_space_group_symop_operation_xyz
x,y,z
-x,-y,1/2+z
x,-y,-z
-x,y,1/2-z
1/2+x,1/2+y,z
1/2-x,1/2-y,1/2+z
1/2+x,1/2-y,-z
1/2-x,1/2+y,1/2-z
loop_
_atom_site_type_symbol
_atom_site_label
_atom_site_fract_x
_atom_site_fract_y
_atom_site_fract_z
Si Si1 0.891673 0.795182 0.357681
Si Si2 0.000000 0.743293 0.250000
Si Si3 0.032443 0.829804 0.580705
Si Si4 0.779978 0.700570 0.860533
Si Si5 0.306825 0.120859 0.246553
Si Si6 0.130827 0.119734 0.244120
O O1 0.947926 0.806768 0.311808
O O2 0.862493 0.646757 0.297848
O O3 0.884383 0.821302 0.557557
O O4 0.868680 0.938335 0.261653
O O5 0.018313 0.701792 0.441869
O O6 0.088704 0.823893 0.630100
O O7 0.000000 0.818197 0.750000
O O8 0.023728 0.000000 0.500000
O O9 0.726084 0.765172 0.856181
O O10 0.788258 0.551384 0.745043
O O11 0.816501 0.824761 0.789627
O O12 0.796743 0.664607 0.051132
#
# Coordination Sequence:
#
# PCOD9321542 Si02
#       6
#     8   4   8   8   8   8
#     4  11  23  38  64  95 132 170 217 268 323 375
#     4  12  22  36  60  92 136 176 220 274 318 378
#     4  12  20  33  57  93 133 176 221 270 323 374
#     4  11  25  44  67  94 127 162 215 266 332 395
#     4  11  25  45  67  93 126 167 211 271 327 393
#     4  11  23  37  62  99 130 166 220 266 320 388
#
# _framework density 23.025822999999999
#
# number of rings (size 3 to 8) (size 9 to 14) (size 15 to 20)
#    0.000    0.727    4.545    3.273    0.000    7.273 
#    0.000    0.000    2.000    0.000    0.000    0.000 
#    0.000    0.000    0.000    0.000    0.000    0.000 
#
# Total GULP energy -122844.137575 kJ/mol
# GULP energy per Si atom -5583.824435 kJ/mol
# Density = 2.297341 g / cm^3
# Si number density = 23.025823 Si / 1000 Ang^3
#
#
#
# Elastic Constant Matrix: (Units=GPa)
#
#
# Indices 1 2 3 4 5 6 
#
# 1 108.1216 21.4827 6.2447 0.0000 0.0000 0.0000
# 2 21.4827 32.6696 -2.7047 0.0000 0.0000 0.0000
# 3 6.2447 -2.7047 83.3410 0.0000 0.0000 0.0000
# 4 0.0000 0.0000 0.0000 11.7499 0.0000 0.0000
# 5 0.0000 0.0000 0.0000 0.0000 43.8842 0.0000
# 6 0.0000 0.0000 0.0000 0.0000 0.0000 7.8250
#
#
#
# Elastic Compliance Matrix: (Units=1/GPa)
#
#
# Indices 1 2 3 4 5 6 
#
# 1 0.010727 -0.007140 -0.001035 0.000000 0.000000 0.000000
# 2 -0.007140 0.035444 0.001685 0.000000 0.000000 0.000000
# 3 -0.001035 0.001685 0.012131 0.000000 0.000000 0.000000
# 4 0.000000 0.000000 0.000000 0.085107 0.000000 0.000000
# 5 0.000000 0.000000 0.000000 0.000000 0.022787 0.000000
# 6 0.000000 0.000000 0.000000 0.000000 0.000000 0.127796
#
#
# Mechanical properties :
#
#
# Convention : Reuss Voigt Hill
#
# Bulk Modulus (GPa) = 22.06409 30.46416 26.26412
# Shear Modulus (GPa) = 15.52410 25.96580 20.74495
#
# Velocity S-wave (km/s) = 2.59936 3.36174 3.00483
# Velocity P-wave (km/s) = 4.31417 5.32236 4.84456
#
# Compressibility (1/GPa) = 0.04532252
#
# Stress axis : x y z
#
# Youngs Moduli (GPa) = 93.22062 28.21355 82.43218
#
# Poissons Ratio (x) = 0.20144 0.08536
# Poissons Ratio (y) = 0.66557 -0.13892
# Poissons Ratio (z) = 0.09653 -0.04755
#
# Static dielectric constant tensor:
#      x y z
#    x 1.798980 0.000000 0.000000 
#    y 0.000000 1.914610 0.000000 
#    z 0.000000 0.000000 1.901510 
# 
# From -- ./inp_files/11372.got.cif
#   From: 2010.05.17/outbox.cif.g08.bks.cpg/sg20_6_cif.got.tgz:11372.got - 2010.06.03 22:52:26.
