data_PCOD9321056
_publ_section_title
;
Structure prediction by ZEFSAII (Michael W. Deem and Ramdas Pophale) SiO2 
 PCOD9321056
Probable space group: C 2 2 21
;
_chemical_formula_sum "Si O2"
_cell_formula_units_Z 24
_cell_length_a 17.463334
_cell_length_b 10.820840
_cell_length_c 5.285932
_cell_angle_alpha 90.000000
_cell_angle_beta 90.000000
_cell_angle_gamma 90.000000
_cell_volume 998.871697
_symmetry_space_group_name_H-M "C 2 2 21"
_symmetry_group_IT_number 20
_symmetry_cell_setting 'orthorhombic'
loop_
_space_group_symop_operation_xyz
x,y,z
-x,-y,1/2+z
x,-y,-z
-x,y,1/2-z
1/2+x,1/2+y,z
1/2-x,1/2-y,1/2+z
1/2+x,1/2-y,-z
1/2-x,1/2+y,1/2-z
loop_
_atom_site_type_symbol
_atom_site_label
_atom_site_fract_x
_atom_site_fract_y
_atom_site_fract_z
Si Si1 0.000000 0.077096 0.250000
Si Si2 0.330251 0.875401 0.829441
Si Si3 0.658645 0.367959 0.640461
Si Si4 0.552494 0.000000 0.000000
O O1 0.081860 0.137818 0.193065
O O2 0.015302 0.000000 0.500000
O O3 0.353018 0.748656 0.960285
O O4 0.240565 0.858000 0.772981
O O5 0.337645 0.000000 0.000000
O O6 0.387327 0.896347 0.593967
O O7 0.665549 0.500000 0.500000
O O8 0.500000 0.026989 0.750000
#
# Coordination Sequence:
#
# PCOD9321056 Si02
#       4
#     4   8   8   4
#     4  10  24  50  78 116 158 206 264 328 390 486
#     4  12  26  50  81 121 166 216 269 339 413 492
#     4  11  25  49  80 114 162 209 266 325 407 480
#     4  12  28  54  80 122 160 220 282 346 406 486
#
# _framework density 24.027107999999998
#
# number of rings (size 3 to 8) (size 9 to 14) (size 15 to 20)
#    0.000    0.667    3.333    3.000    0.000    5.333 
#   12.000    0.000    0.000    0.000    0.000    0.000 
#    0.000    0.000    0.000    0.000    0.000    0.000 
#
# Total GULP energy -67027.883679 kJ/mol
# GULP energy per Si atom -5585.656973 kJ/mol
# Density = 2.397242 g / cm^3
# Si number density = 24.027108 Si / 1000 Ang^3
#
#
#
# Elastic Constant Matrix: (Units=GPa)
#
#
# Indices 1 2 3 4 5 6 
#
# 1 168.9845 -30.8209 23.1119 0.0000 0.0000 0.0000
# 2 -30.8209 121.2800 23.2277 0.0000 0.0000 0.0000
# 3 23.1119 23.2277 90.3603 0.0000 0.0000 0.0000
# 4 0.0000 0.0000 0.0000 50.6267 0.0000 0.0000
# 5 0.0000 0.0000 0.0000 0.0000 58.8078 0.0000
# 6 0.0000 0.0000 0.0000 0.0000 0.0000 5.9321
#
#
#
# Elastic Compliance Matrix: (Units=1/GPa)
#
#
# Indices 1 2 3 4 5 6 
#
# 1 0.006607 0.002106 -0.002231 0.000000 0.000000 0.000000
# 2 0.002106 0.009344 -0.002941 0.000000 0.000000 0.000000
# 3 -0.002231 -0.002941 0.012393 0.000000 0.000000 0.000000
# 4 0.000000 0.000000 0.000000 0.019752 0.000000 0.000000
# 5 0.000000 0.000000 0.000000 0.000000 0.017005 0.000000
# 6 0.000000 0.000000 0.000000 0.000000 0.000000 0.168574
#
#
# Mechanical properties :
#
#
# Convention : Reuss Voigt Hill
#
# Bulk Modulus (GPa) = 45.01843 45.74024 45.37934
# Shear Modulus (GPa) = 20.22563 47.41374 33.81969
#
# Velocity S-wave (km/s) = 2.90450 4.44705 3.75582
# Velocity P-wave (km/s) = 5.47954 6.74141 6.14296
#
# Compressibility (1/GPa) = 0.02221312
#
# Stress axis : x y z
#
# Youngs Moduli (GPa) = 151.35288 107.02187 80.68777
#
# Poissons Ratio (x) = -0.22543 0.18005
# Poissons Ratio (y) = -0.31881 0.23728
# Poissons Ratio (z) = 0.33773 0.31472
#
# Static dielectric constant tensor:
#      x y z
#    x 1.984870 0.000000 0.000000 
#    y 0.000000 1.818800 0.000000 
#    z 0.000000 0.000000 1.932890 
# 
# From -- ./inp_files/2350.got.cif
#   From: 2010.05.17/outbox.cif.g08.bks.cpg/sg20_2_cif.got.tgz:2350.got - 2010.06.03 22:52:26.
