data_PCOD9321980
_publ_section_title
;
Structure prediction by ZEFSAII (Michael W. Deem and Ramdas Pophale) SiO2 
 PCOD9321980
Probable space group: C 2 2 21
;
_chemical_formula_sum "Si O2"
_cell_formula_units_Z 40
_cell_length_a 26.764392
_cell_length_b 4.926793
_cell_length_c 11.468878
_cell_angle_alpha 90.000000
_cell_angle_beta 90.000000
_cell_angle_gamma 90.000000
_cell_volume 1512.316292
_symmetry_space_group_name_H-M "C 2 2 21"
_symmetry_group_IT_number 20
_symmetry_cell_setting 'orthorhombic'
loop_
_space_group_symop_operation_xyz
x,y,z
-x,-y,1/2+z
x,-y,-z
-x,y,1/2-z
1/2+x,1/2+y,z
1/2-x,1/2-y,1/2+z
1/2+x,1/2-y,-z
1/2-x,1/2+y,1/2-z
loop_
_atom_site_type_symbol
_atom_site_label
_atom_site_fract_x
_atom_site_fract_y
_atom_site_fract_z
Si Si1 0.246893 0.448187 0.673850
Si Si2 0.067550 0.500000 0.500000
Si Si3 0.390345 0.201276 0.696398
Si Si4 0.000000 0.094208 0.250000
Si Si5 0.508115 0.500000 0.500000
Si Si6 0.666699 0.500000 0.000000
Si Si7 0.142892 0.785202 0.329699
O O1 0.269447 0.193479 0.743534
O O2 0.290835 0.578355 0.596481
O O3 0.197291 0.304260 0.623428
O O4 0.032914 0.729935 0.551677
O O5 0.103018 0.682412 0.421067
O O6 0.449047 0.236320 0.719360
O O7 0.369940 0.301900 0.571370
O O8 0.366275 0.406075 0.793814
O O9 0.371157 0.898505 0.718003
O O10 0.994290 0.897646 0.367557
#
# Coordination Sequence:
#
# PCOD9321980 Si02
#       7
#     8   4   8   4   4   4   8
#     4  12  25  45  75 106 150 195 244 308 392 460
#     4  12  23  46  74 103 140 203 244 317 372 478
#     4  12  27  44  80 103 157 196 259 316 382 464
#     4  12  26  54  72 122 150 216 256 334 388 470
#     4  12  27  44  82 105 154 199 270 305 402 448
#     4  12  26  50  74 116 148 206 254 324 390 474
#     4  12  23  48  70 109 141 200 249 310 379 463
#
# _framework density 26.449494999999999
#
# number of rings (size 3 to 8) (size 9 to 14) (size 15 to 20)
#    0.000    0.000    8.000    1.200    0.000    6.400 
#    0.000    4.000    0.000    0.000    0.000    0.000 
#    0.000    0.000    0.000    0.000    0.000    0.000 
#
# Total GULP energy -111421.887526 kJ/mol
# GULP energy per Si atom -5571.094376 kJ/mol
# Density = 2.638929 g / cm^3
# Si number density = 26.449495 Si / 1000 Ang^3
#
#
#
# Elastic Constant Matrix: (Units=GPa)
#
#
# Indices 1 2 3 4 5 6 
#
# 1 163.5015 20.0478 5.5975 0.0000 0.0000 0.0000
# 2 20.0478 89.5703 -13.8660 0.0000 0.0000 0.0000
# 3 5.5975 -13.8660 89.2974 0.0000 0.0000 0.0000
# 4 0.0000 0.0000 0.0000 21.7766 0.0000 0.0000
# 5 0.0000 0.0000 0.0000 0.0000 -28.9470 0.0000
# 6 0.0000 0.0000 0.0000 0.0000 0.0000 25.2563
#
#
#
# Elastic Compliance Matrix: (Units=1/GPa)
#
#
# Indices 1 2 3 4 5 6 
#
# 1 0.006323 -0.001513 -0.000631 0.000000 0.000000 0.000000
# 2 -0.001513 0.011801 0.001927 0.000000 0.000000 0.000000
# 3 -0.000631 0.001927 0.011537 0.000000 0.000000 0.000000
# 4 0.000000 0.000000 0.000000 0.045921 0.000000 0.000000
# 5 0.000000 0.000000 0.000000 0.000000 -0.034546 0.000000
# 6 0.000000 0.000000 0.000000 0.000000 0.000000 0.039594
#
#
# Mechanical properties :
#
#
# Convention : Reuss Voigt Hill
#
# Bulk Modulus (GPa) = 34.21359 40.65865 37.43612
# Shear Modulus (GPa) = 55.06135 25.65650 40.35892
#
# Velocity S-wave (km/s) = 4.56757 3.11789 3.91050
# Velocity P-wave (km/s) = 6.38596 5.32609 5.87995
#
# Compressibility (1/GPa) = 0.02922815
#
# Stress axis : x y z
#
# Youngs Moduli (GPa) = 158.14563 84.73549 86.67470
#
# Poissons Ratio (x) = 0.12821 0.05472
# Poissons Ratio (y) = 0.23928 -0.16705
# Poissons Ratio (z) = 0.09984 -0.16332
#
# Static dielectric constant tensor:
#      x y z
#    x 2.179130 0.000000 0.000000 
#    y 0.000000 2.003330 0.000000 
#    z 0.000000 0.000000 3.122020 
# 
# From -- ./inp_files/12141.got.cif
#   From: 2010.05.17/outbox.cif.g08.bks.cpg/sg20_7_cif.got.tgz:12141.got - 2010.06.03 22:52:26.
