data_PCOD9321027
_publ_section_title
;
Structure prediction by ZEFSAII (Michael W. Deem and Ramdas Pophale) SiO2 
 PCOD9321027
Probable space group: C 2 2 21
;
_chemical_formula_sum "Si O2"
_cell_formula_units_Z 40
_cell_length_a 7.184119
_cell_length_b 22.601520
_cell_length_c 11.958462
_cell_angle_alpha 90.000000
_cell_angle_beta 90.000000
_cell_angle_gamma 90.000000
_cell_volume 1941.719503
_symmetry_space_group_name_H-M "C 2 2 21"
_symmetry_group_IT_number 20
_symmetry_cell_setting 'orthorhombic'
loop_
_space_group_symop_operation_xyz
x,y,z
-x,-y,1/2+z
x,-y,-z
-x,y,1/2-z
1/2+x,1/2+y,z
1/2-x,1/2-y,1/2+z
1/2+x,1/2-y,-z
1/2-x,1/2+y,1/2-z
loop_
_atom_site_type_symbol
_atom_site_label
_atom_site_fract_x
_atom_site_fract_y
_atom_site_fract_z
Si Si1 0.884682 0.107664 0.865015
Si Si2 0.208948 0.500000 0.000000
Si Si3 0.861545 0.403880 0.650687
Si Si4 0.000000 0.883975 0.750000
Si Si5 0.152519 0.179221 0.031755
Si Si6 0.420998 0.181439 0.537621
O O1 0.640095 0.170252 0.517828
O O2 0.689732 0.145712 0.865231
O O3 0.000000 0.100611 0.750000
O O4 0.829518 0.045946 0.925498
O O5 0.077620 0.542241 0.073550
O O6 0.658190 0.421778 0.691792
O O7 0.837015 0.345429 0.577182
O O8 0.000000 0.393236 0.750000
O O9 0.890186 0.846943 0.655123
O O10 0.015416 0.146530 0.946278
O O11 0.115523 0.249107 0.041866
#
# Coordination Sequence:
#
# PCOD9321027 Si02
#       6
#     8   4   8   4   8   8
#     4  11  26  46  69 102 144 182 235 291 343 421
#     4  10  24  48  66 102 138 182 242 290 352 408
#     4  11  23  44  70  97 135 180 236 288 346 418
#     4  12  22  40  72 102 130 190 230 278 350 418
#     4  12  23  42  72 103 143 182 226 285 351 428
#     4  11  23  44  67 105 141 179 229 281 355 417
#
# _framework density 20.600297000000001
#
# number of rings (size 3 to 8) (size 9 to 14) (size 15 to 20)
#    0.000    0.800    8.000    0.000    1.400    4.800 
#    7.200    2.000    0.000    0.000    0.000    0.000 
#    0.000    0.000    0.000    0.000    0.000    0.000 
#
# Total GULP energy -111539.107179 kJ/mol
# GULP energy per Si atom -5576.955359 kJ/mol
# Density = 2.055341 g / cm^3
# Si number density = 20.600297 Si / 1000 Ang^3
#
#
#
# Elastic Constant Matrix: (Units=GPa)
#
#
# Indices 1 2 3 4 5 6 
#
# 1 111.9791 -0.1617 11.4672 0.0000 0.0000 0.0000
# 2 -0.1617 107.1391 32.5563 0.0000 0.0000 0.0000
# 3 11.4672 32.5563 90.7169 0.0000 0.0000 0.0000
# 4 0.0000 0.0000 0.0000 7.4668 0.0000 0.0000
# 5 0.0000 0.0000 0.0000 0.0000 29.3593 0.0000
# 6 0.0000 0.0000 0.0000 0.0000 0.0000 8.2001
#
#
#
# Elastic Compliance Matrix: (Units=1/GPa)
#
#
# Indices 1 2 3 4 5 6 
#
# 1 0.009063 0.000406 -0.001291 0.000000 0.000000 0.000000
# 2 0.000406 0.010494 -0.003818 0.000000 0.000000 0.000000
# 3 -0.001291 -0.003818 0.012557 0.000000 0.000000 0.000000
# 4 0.000000 0.000000 0.000000 0.133926 0.000000 0.000000
# 5 0.000000 0.000000 0.000000 0.000000 0.034061 0.000000
# 6 0.000000 0.000000 0.000000 0.000000 0.000000 0.121949
#
#
# Mechanical properties :
#
#
# Convention : Reuss Voigt Hill
#
# Bulk Modulus (GPa) = 44.03666 44.17319 44.10493
# Shear Modulus (GPa) = 14.74817 26.73680 20.74248
#
# Velocity S-wave (km/s) = 2.67857 3.60652 3.17661
# Velocity P-wave (km/s) = 5.56682 6.23155 5.90854
#
# Compressibility (1/GPa) = 0.02270835
#
# Stress axis : x y z
#
# Youngs Moduli (GPa) = 110.33794 95.28982 79.63962
#
# Poissons Ratio (x) = -0.03870 0.10284
# Poissons Ratio (y) = -0.04481 0.30403
# Poissons Ratio (z) = 0.14249 0.36377
#
# Static dielectric constant tensor:
#      x y z
#    x 1.799920 0.000000 0.000000 
#    y 0.000000 1.687010 0.000000 
#    z 0.000000 0.000000 1.781870 
# 
# From -- ./inp_files/6173.got.cif
#   From: 2010.05.17/outbox.cif.g08.bks.cpg/sg20_4_cif.got.tgz:6173.got - 2010.06.03 22:52:26.
