data_PCOD9321706
_publ_section_title
;
Structure prediction by ZEFSAII (Michael W. Deem and Ramdas Pophale) SiO2 
 PCOD9321706
Probable space group: C 2 2 21
;
_chemical_formula_sum "Si O2"
_cell_formula_units_Z 24
_cell_length_a 23.515341
_cell_length_b 8.541827
_cell_length_c 4.848465
_cell_angle_alpha 90.000000
_cell_angle_beta 90.000000
_cell_angle_gamma 90.000000
_cell_volume 973.881951
_symmetry_space_group_name_H-M "C 2 2 21"
_symmetry_group_IT_number 20
_symmetry_cell_setting 'orthorhombic'
loop_
_space_group_symop_operation_xyz
x,y,z
-x,-y,1/2+z
x,-y,-z
-x,y,1/2-z
1/2+x,1/2+y,z
1/2-x,1/2-y,1/2+z
1/2+x,1/2-y,-z
1/2-x,1/2+y,1/2-z
loop_
_atom_site_type_symbol
_atom_site_label
_atom_site_fract_x
_atom_site_fract_y
_atom_site_fract_z
Si Si1 0.400482 0.155422 0.650660
Si Si2 0.268818 0.155165 0.655417
Si Si3 0.436000 0.345687 0.150187
O O1 0.334839 0.128523 0.729519
O O2 0.402955 0.289607 0.418693
O O3 0.422710 0.000000 0.500000
O O4 0.433915 0.210615 0.919242
O O5 0.237065 0.207207 0.930133
O O6 0.247216 0.000000 0.500000
O O7 0.500000 0.376783 0.250000
O O8 0.413041 0.500000 0.000000
#
# Coordination Sequence:
#
# PCOD9321706 Si02
#       3
#     8   8   8
#     4  11  25  44  67  97 132 171 217 267 320 384
#     4  11  24  42  66  98 134 171 216 266 318 382
#     4  12  25  44  67  95 130 170 217 269 324 384
#
# _framework density 24.643643999999998
#
# number of rings (size 3 to 8) (size 9 to 14) (size 15 to 20)
#    0.000    0.667    0.000    8.000    0.000   16.000 
#    0.000    1.667    0.000    0.000    0.000    0.000 
#    0.000    0.000    0.000    0.000    0.000    0.000 
#
# Total GULP energy -67289.991885 kJ/mol
# GULP energy per Si atom -5607.499324 kJ/mol
# Density = 2.458755 g / cm^3
# Si number density = 24.643644 Si / 1000 Ang^3
#
#
#
# Elastic Constant Matrix: (Units=GPa)
#
#
# Indices 1 2 3 4 5 6 
#
# 1 30.0140 0.3566 10.8275 0.0000 0.0000 0.0000
# 2 0.3566 75.0358 26.2458 0.0000 0.0000 0.0000
# 3 10.8275 26.2458 148.1822 0.0000 0.0000 0.0000
# 4 0.0000 0.0000 0.0000 58.3721 0.0000 0.0000
# 5 0.0000 0.0000 0.0000 0.0000 -14.8034 0.0000
# 6 0.0000 0.0000 0.0000 0.0000 0.0000 35.4164
#
#
#
# Elastic Compliance Matrix: (Units=1/GPa)
#
#
# Indices 1 2 3 4 5 6 
#
# 1 0.034260 0.000760 -0.002638 0.000000 0.000000 0.000000
# 2 0.000760 0.014224 -0.002575 0.000000 0.000000 0.000000
# 3 -0.002638 -0.002575 0.007397 0.000000 0.000000 0.000000
# 4 0.000000 0.000000 0.000000 0.017131 0.000000 0.000000
# 5 0.000000 0.000000 0.000000 0.000000 -0.067552 0.000000
# 6 0.000000 0.000000 0.000000 0.000000 0.000000 0.028235
#
#
# Mechanical properties :
#
#
# Convention : Reuss Voigt Hill
#
# Bulk Modulus (GPa) = 21.28754 36.45463 28.87108
# Shear Modulus (GPa) = 85.82073 30.18385 58.00229
#
# Velocity S-wave (km/s) = 5.90765 3.50353 4.85670
# Velocity P-wave (km/s) = 7.42904 5.58490 6.57198
#
# Compressibility (1/GPa) = 0.04697584
#
# Stress axis : x y z
#
# Youngs Moduli (GPa) = 29.18819 70.30382 135.18532
#
# Poissons Ratio (x) = -0.05342 0.35661
# Poissons Ratio (y) = -0.02218 0.34808
# Poissons Ratio (z) = 0.07700 0.18102
#
# Static dielectric constant tensor:
#      x y z
#    x 1.866940 0.000000 0.000000 
#    y 0.000000 2.018310 0.000000 
#    z 0.000000 0.000000 1.889600 
# 
# From -- ./inp_files/308.got.cif
#   From: 2010.05.17/outbox.cif.g08.bks.cpg/sg20_1_cif.got.tgz:308.got - 2010.06.03 22:52:26.
