data_PCOD9321256
_publ_section_title
;
Structure prediction by ZEFSAII (Michael W. Deem and Ramdas Pophale) SiO2 
 PCOD9321256
Probable space group: C 2 2 21
;
_chemical_formula_sum "Si O2"
_cell_formula_units_Z 48
_cell_length_a 23.241240
_cell_length_b 13.321250
_cell_length_c 8.040316
_cell_angle_alpha 90.000000
_cell_angle_beta 90.000000
_cell_angle_gamma 90.000000
_cell_volume 2489.300876
_symmetry_space_group_name_H-M "C 2 2 21"
_symmetry_group_IT_number 20
_symmetry_cell_setting 'orthorhombic'
loop_
_space_group_symop_operation_xyz
x,y,z
-x,-y,1/2+z
x,-y,-z
-x,y,1/2-z
1/2+x,1/2+y,z
1/2-x,1/2-y,1/2+z
1/2+x,1/2-y,-z
1/2-x,1/2+y,1/2-z
loop_
_atom_site_type_symbol
_atom_site_label
_atom_site_fract_x
_atom_site_fract_y
_atom_site_fract_z
Si Si1 0.258225 0.963551 0.827703
Si Si2 0.033544 0.610717 0.571730
Si Si3 0.916628 0.379613 0.547397
Si Si4 0.813370 0.657970 0.672090
Si Si5 0.639762 0.808711 0.608044
Si Si6 0.292096 0.665615 0.068495
O O1 0.301345 0.873754 0.880873
O O2 0.212504 0.931387 0.687203
O O3 0.298894 0.050059 0.751642
O O4 0.230710 0.000000 0.000000
O O5 0.044799 0.500000 0.500000
O O6 0.094150 0.664556 0.538492
O O7 0.000000 0.604873 0.750000
O O8 0.982289 0.655063 0.460462
O O9 0.915533 0.500000 0.500000
O O10 0.876338 0.334643 0.404703
O O11 0.891235 0.344188 0.722781
O O12 0.769511 0.668063 0.519136
O O13 0.799388 0.743601 0.802643
O O14 0.661102 0.694629 0.572763
#
# Coordination Sequence:
#
# PCOD9321256 Si02
#       6
#     8   8   8   8   8   8
#     4  12  23  37  59  80 118 164 199 240 300 348
#     4  11  23  35  53  82 115 157 204 236 284 360
#     4  11  20  35  57  83 117 159 203 234 290 362
#     4  12  20  38  56  83 120 155 196 242 296 348
#     4  12  22  38  55  82 119 160 198 242 290 343
#     4  12  23  36  56  85 117 161 198 247 289 356
#
# _framework density 19.282522
#
# number of rings (size 3 to 8) (size 9 to 14) (size 15 to 20)
#    0.000    0.333    6.667    4.500    0.000    0.000 
#    0.000    0.000    0.000    0.000    0.000    0.000 
#    0.000   72.000    0.000    0.667    0.000    0.000 
#
# Total GULP energy -133795.826375 kJ/mol
# GULP energy per Si atom -5574.826099 kJ/mol
# Density = 1.923863 g / cm^3
# Si number density = 19.282522 Si / 1000 Ang^3
#
#
#
# Elastic Constant Matrix: (Units=GPa)
#
#
# Indices 1 2 3 4 5 6 
#
# 1 71.6649 12.6437 16.5257 0.0000 0.0000 0.0000
# 2 12.6437 20.7981 8.4848 0.0000 0.0000 0.0000
# 3 16.5257 8.4848 104.4104 0.0000 0.0000 0.0000
# 4 0.0000 0.0000 0.0000 42.5408 0.0000 0.0000
# 5 0.0000 0.0000 0.0000 0.0000 27.9657 0.0000
# 6 0.0000 0.0000 0.0000 0.0000 0.0000 25.0628
#
#
#
# Elastic Compliance Matrix: (Units=1/GPa)
#
#
# Indices 1 2 3 4 5 6 
#
# 1 0.015949 -0.008963 -0.001796 0.000000 0.000000 0.000000
# 2 -0.008963 0.054767 -0.003032 0.000000 0.000000 0.000000
# 3 -0.001796 -0.003032 0.010108 0.000000 0.000000 0.000000
# 4 0.000000 0.000000 0.000000 0.023507 0.000000 0.000000
# 5 0.000000 0.000000 0.000000 0.000000 0.035758 0.000000
# 6 0.000000 0.000000 0.000000 0.000000 0.000000 0.039900
#
#
# Mechanical properties :
#
#
# Convention : Reuss Voigt Hill
#
# Bulk Modulus (GPa) = 18.78204 30.24242 24.51223
# Shear Modulus (GPa) = 22.19069 29.72846 25.95958
#
# Velocity S-wave (km/s) = 3.39605 3.93075 3.67314
# Velocity P-wave (km/s) = 5.01390 6.02652 5.54338
#
# Compressibility (1/GPa) = 0.05324234
#
# Stress axis : x y z
#
# Youngs Moduli (GPa) = 62.69830 18.25908 98.92923
#
# Poissons Ratio (x) = 0.16366 0.17768
# Poissons Ratio (y) = 0.56199 0.29994
# Poissons Ratio (z) = 0.11261 0.05536
#
# Static dielectric constant tensor:
#      x y z
#    x 1.677780 0.000000 0.000000 
#    y 0.000000 1.707240 0.000000 
#    z 0.000000 0.000000 1.822060 
# 
# From -- ./inp_files/8574.got.cif
#   From: 2010.05.17/outbox.cif.g08.bks.cpg/sg20_5_cif.got.tgz:8574.got - 2010.06.03 22:52:26.
