data_PCOD9321319
_publ_section_title
;
Structure prediction by ZEFSAII (Michael W. Deem and Ramdas Pophale) SiO2 
 PCOD9321319
Probable space group: C 2 2 21
;
_chemical_formula_sum "Si O2"
_cell_formula_units_Z 56
_cell_length_a 32.199942
_cell_length_b 5.416363
_cell_length_c 13.129008
_cell_angle_alpha 90.000000
_cell_angle_beta 90.000000
_cell_angle_gamma 90.000000
_cell_volume 2289.785311
_symmetry_space_group_name_H-M "C 2 2 21"
_symmetry_group_IT_number 20
_symmetry_cell_setting 'orthorhombic'
loop_
_space_group_symop_operation_xyz
x,y,z
-x,-y,1/2+z
x,-y,-z
-x,y,1/2-z
1/2+x,1/2+y,z
1/2-x,1/2-y,1/2+z
1/2+x,1/2-y,-z
1/2-x,1/2+y,1/2-z
loop_
_atom_site_type_symbol
_atom_site_label
_atom_site_fract_x
_atom_site_fract_y
_atom_site_fract_z
Si Si1 0.910053 0.362903 0.196465
Si Si2 0.483575 0.738553 0.061016
Si Si3 0.366522 0.637494 0.809546
Si Si4 0.574196 0.794830 0.071623
Si Si5 0.277782 0.870204 0.860300
Si Si6 0.153177 0.810762 0.073461
Si Si7 0.761382 0.381844 0.620850
O O1 0.955435 0.284268 0.159869
O O2 0.898987 0.643151 0.165930
O O3 0.908535 0.368186 0.319463
O O4 0.879533 0.140448 0.158464
O O5 0.531092 0.650949 0.090573
O O6 0.466917 0.500000 0.000000
O O7 0.477238 0.000000 0.000000
O O8 0.324171 0.758415 0.851594
O O9 0.362123 0.611501 0.685625
O O10 0.613248 0.737141 0.997937
O O11 0.554555 0.000000 0.000000
O O12 0.253606 0.648358 0.913802
O O13 0.260922 0.886319 0.744628
O O14 0.267799 0.143265 0.901113
O O15 0.189418 0.622404 0.097847
O O16 0.177007 0.000000 0.000000
#
# Coordination Sequence:
#
# PCOD9321319 Si02
#       7
#     8   8   8   8   8   8   8
#     4  12  24  42  69 106 136 187 239 289 362 435
#     4  11  26  47  71  95 137 187 240 302 355 421
#     4  11  23  38  69  99 139 181 236 286 351 420
#     4  11  23  42  68 104 152 182 228 291 371 436
#     4   9  18  37  55  88 122 171 221 271 325 401
#     4  11  21  37  62 101 144 185 221 287 358 429
#     4   9  19  33  58  83 128 173 217 262 334 408
#
# _framework density 24.456439
#
# number of rings (size 3 to 8) (size 9 to 14) (size 15 to 20)
#    0.000    1.429    2.857    2.571    0.000    4.571 
#    0.000    2.857    0.000    8.571    0.000    0.000 
#    0.000    0.000    0.000    0.000    0.000    0.000 
#
# Total GULP energy -155894.246906 kJ/mol
# GULP energy per Si atom -5567.651675 kJ/mol
# Density = 2.440077 g / cm^3
# Si number density = 24.456439 Si / 1000 Ang^3
#
#
#
# Elastic Constant Matrix: (Units=GPa)
#
#
# Indices 1 2 3 4 5 6 
#
# 1 78.9317 27.7496 26.9850 0.0000 0.0000 0.0000
# 2 27.7496 129.2180 35.1549 0.0000 0.0000 0.0000
# 3 26.9850 35.1549 49.0282 0.0000 0.0000 0.0000
# 4 0.0000 0.0000 0.0000 39.0447 0.0000 0.0000
# 5 0.0000 0.0000 0.0000 0.0000 27.1204 0.0000
# 6 0.0000 0.0000 0.0000 0.0000 0.0000 23.1687
#
#
#
# Elastic Compliance Matrix: (Units=1/GPa)
#
#
# Indices 1 2 3 4 5 6 
#
# 1 0.015773 -0.001274 -0.007768 0.000000 0.000000 0.000000
# 2 -0.001274 0.009717 -0.006266 0.000000 0.000000 0.000000
# 3 -0.007768 -0.006266 0.029165 0.000000 0.000000 0.000000
# 4 0.000000 0.000000 0.000000 0.025612 0.000000 0.000000
# 5 0.000000 0.000000 0.000000 0.000000 0.036873 0.000000
# 6 0.000000 0.000000 0.000000 0.000000 0.000000 0.043162
#
#
# Mechanical properties :
#
#
# Convention : Reuss Voigt Hill
#
# Bulk Modulus (GPa) = 41.59962 48.55076 45.07519
# Shear Modulus (GPa) = 25.13444 29.01933 27.07689
#
# Velocity S-wave (km/s) = 3.20929 3.44840 3.33099
# Velocity P-wave (km/s) = 5.54791 5.97916 5.76757
#
# Compressibility (1/GPa) = 0.02403868
#
# Stress axis : x y z
#
# Youngs Moduli (GPa) = 63.40074 102.90958 34.28753
#
# Poissons Ratio (x) = 0.13109 0.26634
# Poissons Ratio (y) = 0.08076 0.21486
# Poissons Ratio (z) = 0.49249 0.64488
#
# Static dielectric constant tensor:
#      x y z
#    x 1.982260 0.000000 0.000000 
#    y 0.000000 2.183250 0.000000 
#    z 0.000000 0.000000 2.045190 
# 
# From -- ./inp_files/22276.got.cif
#   From: 2010.05.17/outbox.cif.g08.bks.cpg/sg20_12_cif.got.tgz:22276.got - 2010.06.03 22:52:26.
