data_PCOD9321490
_publ_section_title
;
Structure prediction by ZEFSAII (Michael W. Deem and Ramdas Pophale) SiO2 
 PCOD9321490
Probable space group: C 2 2 21
;
_chemical_formula_sum "Si O2"
_cell_formula_units_Z 32
_cell_length_a 12.715240
_cell_length_b 5.950785
_cell_length_c 18.187720
_cell_angle_alpha 90.000000
_cell_angle_beta 90.000000
_cell_angle_gamma 90.000000
_cell_volume 1376.185828
_symmetry_space_group_name_H-M "C 2 2 21"
_symmetry_group_IT_number 20
_symmetry_cell_setting 'orthorhombic'
loop_
_space_group_symop_operation_xyz
x,y,z
-x,-y,1/2+z
x,-y,-z
-x,y,1/2-z
1/2+x,1/2+y,z
1/2-x,1/2-y,1/2+z
1/2+x,1/2-y,-z
1/2-x,1/2+y,1/2-z
loop_
_atom_site_type_symbol
_atom_site_label
_atom_site_fract_x
_atom_site_fract_y
_atom_site_fract_z
Si Si1 0.298191 0.526374 0.913528
Si Si2 0.626870 0.921036 0.675946
Si Si3 0.669147 0.687236 0.822331
Si Si4 0.003810 0.183595 0.161437
O O1 0.316492 0.781625 0.888186
O O2 0.202067 0.393983 0.874887
O O3 0.406156 0.418995 0.882928
O O4 0.289197 0.500000 0.000000
O O5 0.614624 0.765929 0.747100
O O6 0.716017 0.096194 0.701849
O O7 0.522021 0.049613 0.650034
O O8 0.601831 0.480852 0.856236
O O9 0.000000 0.174749 0.250000
#
# Coordination Sequence:
#
# PCOD9321490 Si02
#       4
#     8   8   8   8
#     4  11  26  47  71 107 156 196 246 320 384 444
#     4  11  22  42  75 104 143 190 253 310 375 451
#     4  11  22  44  73 108 145 195 248 309 375 451
#     4  11  24  40  72 110 141 188 255 312 370 451
#
# _framework density 23.252670999999999
#
# number of rings (size 3 to 8) (size 9 to 14) (size 15 to 20)
#    0.000    1.000    5.000    1.500    3.500    4.000 
#    4.500    0.000    0.000    0.000    0.000    0.000 
#    0.000    0.000    0.000    0.000    0.000    0.000 
#
# Total GULP energy -89231.183642 kJ/mol
# GULP energy per Si atom -5576.948978 kJ/mol
# Density = 2.319975 g / cm^3
# Si number density = 23.252671 Si / 1000 Ang^3
#
#
#
# Elastic Constant Matrix: (Units=GPa)
#
#
# Indices 1 2 3 4 5 6 
#
# 1 152.9901 55.0354 31.0262 0.0000 0.0000 0.0000
# 2 55.0354 107.4849 22.2839 0.0000 0.0000 0.0000
# 3 31.0262 22.2839 98.1203 0.0000 0.0000 0.0000
# 4 0.0000 0.0000 0.0000 20.1580 0.0000 0.0000
# 5 0.0000 0.0000 0.0000 0.0000 18.9181 0.0000
# 6 0.0000 0.0000 0.0000 0.0000 0.0000 70.4857
#
#
#
# Elastic Compliance Matrix: (Units=1/GPa)
#
#
# Indices 1 2 3 4 5 6 
#
# 1 0.008285 -0.003882 -0.001738 0.000000 0.000000 0.000000
# 2 -0.003882 0.011582 -0.001403 0.000000 0.000000 0.000000
# 3 -0.001738 -0.001403 0.011060 0.000000 0.000000 0.000000
# 4 0.000000 0.000000 0.000000 0.049608 0.000000 0.000000
# 5 0.000000 0.000000 0.000000 0.000000 0.052859 0.000000
# 6 0.000000 0.000000 0.000000 0.000000 0.000000 0.014187
#
#
# Mechanical properties :
#
#
# Convention : Reuss Voigt Hill
#
# Bulk Modulus (GPa) = 59.23782 63.92070 61.57926
# Shear Modulus (GPa) = 29.89440 38.59568 34.24504
#
# Velocity S-wave (km/s) = 3.58946 4.07853 3.84179
# Velocity P-wave (km/s) = 6.53529 7.05185 6.79847
#
# Compressibility (1/GPa) = 0.01688111
#
# Stress axis : x y z
#
# Youngs Moduli (GPa) = 120.69495 86.33970 90.41735
#
# Poissons Ratio (x) = 0.33517 0.15717
# Poissons Ratio (y) = 0.46853 0.12685
# Poissons Ratio (z) = 0.20980 0.12113
#
# Static dielectric constant tensor:
#      x y z
#    x 1.931710 0.000000 0.000000 
#    y 0.000000 2.111470 0.000000 
#    z 0.000000 0.000000 1.775880 
# 
# From -- ./inp_files/22487.got.cif
#   From: 2010.05.17/outbox.cif.g08.bks.cpg/sg20_12_cif.got.tgz:22487.got - 2010.06.03 22:52:26.
