data_PCOD9321326
_publ_section_title
;
Structure prediction by ZEFSAII (Michael W. Deem and Ramdas Pophale) SiO2 
 PCOD9321326
Probable space group: C 2 2 21
;
_chemical_formula_sum "Si O2"
_cell_formula_units_Z 48
_cell_length_a 19.415720
_cell_length_b 13.440352
_cell_length_c 8.136371
_cell_angle_alpha 90.000000
_cell_angle_beta 90.000000
_cell_angle_gamma 90.000000
_cell_volume 2123.219462
_symmetry_space_group_name_H-M "C 2 2 21"
_symmetry_group_IT_number 20
_symmetry_cell_setting 'orthorhombic'
loop_
_space_group_symop_operation_xyz
x,y,z
-x,-y,1/2+z
x,-y,-z
-x,y,1/2-z
1/2+x,1/2+y,z
1/2-x,1/2-y,1/2+z
1/2+x,1/2-y,-z
1/2-x,1/2+y,1/2-z
loop_
_atom_site_type_symbol
_atom_site_label
_atom_site_fract_x
_atom_site_fract_y
_atom_site_fract_z
Si Si1 0.781275 0.036242 0.188145
Si Si2 0.942640 0.717488 0.357703
Si Si3 0.122026 0.482721 0.802965
Si Si4 0.451447 0.837348 0.118759
Si Si5 0.818537 0.149769 0.656126
Si Si6 0.308498 0.738316 0.026468
O O1 0.702681 0.011276 0.236693
O O2 0.793246 0.152671 0.162469
O O3 0.825744 0.967775 0.309423
O O4 0.791327 0.000000 0.000000
O O5 0.901161 0.629351 0.268660
O O6 0.884945 0.793838 0.417763
O O7 0.000000 0.773415 0.250000
O O8 0.992045 0.654341 0.477186
O O9 0.076897 0.561434 0.701746
O O10 0.118010 0.500000 0.000000
O O11 0.500000 0.781306 0.250000
O O12 0.383995 0.779058 0.065592
O O13 0.751373 0.180325 0.552512
O O14 0.807596 0.194326 0.841824
#
# Coordination Sequence:
#
# PCOD9321326 Si02
#       6
#     8   8   8   8   8   8
#     4   9  20  39  68  93 123 177 231 280 335 403
#     4  12  25  41  61 100 143 184 221 287 358 420
#     4  11  21  38  62 100 134 171 223 283 341 419
#     4  12  25  41  66  98 142 184 231 282 359 427
#     4  11  23  43  69  95 137 177 236 288 349 422
#     4  11  23  43  67 100 132 179 233 290 347 428
#
# _framework density 22.607178000000001
#
# number of rings (size 3 to 8) (size 9 to 14) (size 15 to 20)
#    0.000    1.000    6.667    0.500    2.333    0.000 
#    0.000    3.333    0.000    0.000    0.000    0.000 
#    0.000    0.000    0.000    0.000    0.000    0.000 
#
# Total GULP energy -133989.021166 kJ/mol
# GULP energy per Si atom -5582.875882 kJ/mol
# Density = 2.255572 g / cm^3
# Si number density = 22.607178 Si / 1000 Ang^3
#
#
#
# Elastic Constant Matrix: (Units=GPa)
#
#
# Indices 1 2 3 4 5 6 
#
# 1 99.8519 7.8056 23.9436 0.0000 0.0000 0.0000
# 2 7.8056 59.9237 16.9399 0.0000 0.0000 0.0000
# 3 23.9436 16.9399 53.3063 0.0000 0.0000 0.0000
# 4 0.0000 0.0000 0.0000 12.4648 0.0000 0.0000
# 5 0.0000 0.0000 0.0000 0.0000 33.9602 0.0000
# 6 0.0000 0.0000 0.0000 0.0000 0.0000 32.9800
#
#
#
# Elastic Compliance Matrix: (Units=1/GPa)
#
#
# Indices 1 2 3 4 5 6 
#
# 1 0.011224 -0.000040 -0.005029 0.000000 0.000000 0.000000
# 2 -0.000040 0.018335 -0.005808 0.000000 0.000000 0.000000
# 3 -0.005029 -0.005808 0.022864 0.000000 0.000000 0.000000
# 4 0.000000 0.000000 0.000000 0.080226 0.000000 0.000000
# 5 0.000000 0.000000 0.000000 0.000000 0.029446 0.000000
# 6 0.000000 0.000000 0.000000 0.000000 0.000000 0.030321
#
#
# Mechanical properties :
#
#
# Convention : Reuss Voigt Hill
#
# Bulk Modulus (GPa) = 32.60722 34.49556 33.55139
# Shear Modulus (GPa) = 22.28222 26.84051 24.56137
#
# Velocity S-wave (km/s) = 3.14287 3.44940 3.29970
# Velocity P-wave (km/s) = 5.25594 5.58178 5.42131
#
# Compressibility (1/GPa) = 0.03066806
#
# Stress axis : x y z
#
# Youngs Moduli (GPa) = 89.09636 54.54001 43.73684
#
# Poissons Ratio (x) = 0.00221 0.21993
# Poissons Ratio (y) = 0.00361 0.25404
# Poissons Ratio (z) = 0.44803 0.31679
#
# Static dielectric constant tensor:
#      x y z
#    x 1.807760 0.000000 0.000000 
#    y 0.000000 1.830570 0.000000 
#    z 0.000000 0.000000 2.101920 
# 
# From -- ./inp_files/9326.got.cif
#   From: 2010.05.17/outbox.cif.g08.bks.cpg/sg20_5_cif.got.tgz:9326.got - 2010.06.03 22:52:26.
