data_PCOD9321646
_publ_section_title
;
Structure prediction by ZEFSAII (Michael W. Deem and Ramdas Pophale) SiO2 
 PCOD9321646
Probable space group: C 2 2 21
;
_chemical_formula_sum "Si O2"
_cell_formula_units_Z 28
_cell_length_a 8.199080
_cell_length_b 11.370701
_cell_length_c 12.047908
_cell_angle_alpha 90.000000
_cell_angle_beta 90.000000
_cell_angle_gamma 90.000000
_cell_volume 1123.217875
_symmetry_space_group_name_H-M "C 2 2 21"
_symmetry_group_IT_number 20
_symmetry_cell_setting 'orthorhombic'
loop_
_space_group_symop_operation_xyz
x,y,z
-x,-y,1/2+z
x,-y,-z
-x,y,1/2-z
1/2+x,1/2+y,z
1/2-x,1/2-y,1/2+z
1/2+x,1/2-y,-z
1/2-x,1/2+y,1/2-z
loop_
_atom_site_type_symbol
_atom_site_label
_atom_site_fract_x
_atom_site_fract_y
_atom_site_fract_z
Si Si1 0.327227 0.464203 0.796035
Si Si2 0.810557 0.349175 0.452589
Si Si3 0.875591 0.603764 0.082737
Si Si4 0.000000 0.739240 0.750000
O O1 0.500000 0.514757 0.750000
O O2 0.296167 0.545511 0.901274
O O3 0.189349 0.444504 0.701352
O O4 0.379564 0.328559 0.815079
O O5 0.715953 0.225119 0.448549
O O6 0.931801 0.372041 0.556962
O O7 0.929918 0.337099 0.346941
O O8 0.826809 0.500000 0.000000
#
# Coordination Sequence:
#
# PCOD9321646 Si02
#       4
#     8   8   8   4
#     4   9  22  47  72 102 149 191 235 296 362 434
#     4  11  23  45  73 104 144 190 238 303 357 421
#     4  11  26  44  72 112 141 185 256 290 363 437
#     4   8  20  42  66 100 142 180 246 270 364 426
#
# _framework density 24.928377999999999
#
# number of rings (size 3 to 8) (size 9 to 14) (size 15 to 20)
#    0.857    1.143    0.000    1.714    4.000    2.286 
#   10.286    0.000    0.000    0.000    0.000    0.000 
#    0.000    0.000    0.000    0.000    0.000    0.000 
#
# Total GULP energy -78029.675503 kJ/mol
# GULP energy per Si atom -5573.548250 kJ/mol
# Density = 2.487164 g / cm^3
# Si number density = 24.928378 Si / 1000 Ang^3
#
#
#
# Elastic Constant Matrix: (Units=GPa)
#
#
# Indices 1 2 3 4 5 6 
#
# 1 133.7618 59.7357 65.0542 0.0000 0.0000 0.0000
# 2 59.7357 114.1740 102.9078 0.0000 0.0000 0.0000
# 3 65.0542 102.9078 127.3392 0.0000 0.0000 0.0000
# 4 0.0000 0.0000 0.0000 39.4981 0.0000 0.0000
# 5 0.0000 0.0000 0.0000 0.0000 42.7609 0.0000
# 6 0.0000 0.0000 0.0000 0.0000 0.0000 3.4021
#
#
#
# Elastic Compliance Matrix: (Units=1/GPa)
#
#
# Indices 1 2 3 4 5 6 
#
# 1 0.010114 -0.002336 -0.003279 0.000000 0.000000 0.000000
# 2 -0.002336 0.032787 -0.025303 0.000000 0.000000 0.000000
# 3 -0.003279 -0.025303 0.029977 0.000000 0.000000 0.000000
# 4 0.000000 0.000000 0.000000 0.025318 0.000000 0.000000
# 5 0.000000 0.000000 0.000000 0.000000 0.023386 0.000000
# 6 0.000000 0.000000 0.000000 0.000000 0.000000 0.293940
#
#
# Mechanical properties :
#
#
# Convention : Reuss Voigt Hill
#
# Bulk Modulus (GPa) = 90.56982 92.29670 91.43326
# Shear Modulus (GPa) = 10.39419 26.97069 18.68244
#
# Velocity S-wave (km/s) = 2.04418 3.29283 2.74057
# Velocity P-wave (km/s) = 6.47939 7.18068 6.83903
#
# Compressibility (1/GPa) = 0.01104121
#
# Stress axis : x y z
#
# Youngs Moduli (GPa) = 98.87282 30.49973 33.35929
#
# Poissons Ratio (x) = 0.07125 0.10939
# Poissons Ratio (y) = 0.23098 0.84409
# Poissons Ratio (z) = 0.32421 0.77174
#
# Static dielectric constant tensor:
#      x y z
#    x 2.077470 0.000000 0.000000 
#    y 0.000000 2.083870 0.000000 
#    z 0.000000 0.000000 2.126140 
# 
# From -- ./inp_files/18097.got.cif
#   From: 2010.05.17/outbox.cif.g08.bks.cpg/sg20_10_cif.got.tgz:18097.got - 2010.06.03 22:52:26.
