data_PCOD9321533
_publ_section_title
;
Structure prediction by ZEFSAII (Michael W. Deem and Ramdas Pophale) SiO2 
 PCOD9321533
Probable space group: C 2 2 21
;
_chemical_formula_sum "Si O2"
_cell_formula_units_Z 48
_cell_length_a 6.439793
_cell_length_b 23.952102
_cell_length_c 13.456150
_cell_angle_alpha 90.000000
_cell_angle_beta 90.000000
_cell_angle_gamma 90.000000
_cell_volume 2075.565101
_symmetry_space_group_name_H-M "C 2 2 21"
_symmetry_group_IT_number 20
_symmetry_cell_setting 'orthorhombic'
loop_
_space_group_symop_operation_xyz
x,y,z
-x,-y,1/2+z
x,-y,-z
-x,y,1/2-z
1/2+x,1/2+y,z
1/2-x,1/2-y,1/2+z
1/2+x,1/2-y,-z
1/2-x,1/2+y,1/2-z
loop_
_atom_site_type_symbol
_atom_site_label
_atom_site_fract_x
_atom_site_fract_y
_atom_site_fract_z
Si Si1 0.484562 0.583060 0.546285
Si Si2 0.000000 0.718952 0.750000
Si Si3 0.155387 0.500000 0.000000
Si Si4 0.851935 0.486980 0.170904
Si Si5 0.665910 0.302312 0.100203
Si Si6 0.831527 0.288095 0.877447
Si Si7 0.179320 0.900212 0.821860
O O1 0.697862 0.549399 0.539247
O O2 0.319388 0.549809 0.614757
O O3 0.490654 0.645833 0.587448
O O4 0.405490 0.586732 0.432605
O O5 0.842728 0.685082 0.819603
O O6 0.855905 0.756612 0.678421
O O7 0.001136 0.514562 0.088639
O O8 0.748904 0.540647 0.222378
O O9 0.000000 0.456657 0.250000
O O10 0.539624 0.247654 0.132176
O O11 0.771701 0.291811 0.993750
O O12 0.843782 0.351016 0.837252
O O13 0.000000 0.878135 0.750000
#
# Coordination Sequence:
#
# PCOD9321533 Si02
#       7
#     8   4   4   8   8   8   8
#     4  11  25  47  69 106 152 186 248 297 370 436
#     4  12  24  48  70 102 146 190 244 292 368 432
#     4  12  22  48  72  98 148 182 232 314 348 434
#     4  12  26  43  72 108 142 195 240 295 376 441
#     4  11  26  45  74 104 146 196 237 306 359 446
#     4  11  24  46  73 106 144 185 249 300 368 428
#     4  11  22  46  74 106 140 192 244 311 363 435
#
# _framework density 23.126232000000002
#
# number of rings (size 3 to 8) (size 9 to 14) (size 15 to 20)
#    0.000    0.667    5.833    1.500    1.167    4.000 
#    3.000    0.000    0.000    0.000    0.000    0.000 
#    0.000    0.000    0.000    0.000    0.000    0.000 
#
# Total GULP energy -134311.314173 kJ/mol
# GULP energy per Si atom -5596.304757 kJ/mol
# Density = 2.307360 g / cm^3
# Si number density = 23.126232 Si / 1000 Ang^3
#
#
#
# Elastic Constant Matrix: (Units=GPa)
#
#
# Indices 1 2 3 4 5 6 
#
# 1 72.5162 11.7744 20.5638 0.0000 0.0000 0.0000
# 2 11.7744 77.2936 3.8700 0.0000 0.0000 0.0000
# 3 20.5638 3.8700 93.5280 0.0000 0.0000 0.0000
# 4 0.0000 0.0000 0.0000 11.0468 0.0000 0.0000
# 5 0.0000 0.0000 0.0000 0.0000 47.5249 0.0000
# 6 0.0000 0.0000 0.0000 0.0000 0.0000 24.7363
#
#
#
# Elastic Compliance Matrix: (Units=1/GPa)
#
#
# Indices 1 2 3 4 5 6 
#
# 1 0.015049 -0.002131 -0.003221 0.000000 0.000000 0.000000
# 2 -0.002131 0.013266 -0.000080 0.000000 0.000000 0.000000
# 3 -0.003221 -0.000080 0.011403 0.000000 0.000000 0.000000
# 4 0.000000 0.000000 0.000000 0.090524 0.000000 0.000000
# 5 0.000000 0.000000 0.000000 0.000000 0.021042 0.000000
# 6 0.000000 0.000000 0.000000 0.000000 0.000000 0.040426
#
#
# Mechanical properties :
#
#
# Convention : Reuss Voigt Hill
#
# Bulk Modulus (GPa) = 34.65653 35.08381 34.87017
# Shear Modulus (GPa) = 23.56330 30.47023 27.01677
#
# Velocity S-wave (km/s) = 3.19548 3.63376 3.42165
# Velocity P-wave (km/s) = 5.35100 5.72792 5.54267
#
# Compressibility (1/GPa) = 0.02885459
#
# Stress axis : x y z
#
# Youngs Moduli (GPa) = 66.44791 75.37858 87.69285
#
# Poissons Ratio (x) = 0.16065 0.28243
# Poissons Ratio (y) = 0.14162 0.00704
# Poissons Ratio (z) = 0.21401 0.00606
#
# Static dielectric constant tensor:
#      x y z
#    x 1.849270 0.000000 0.000000 
#    y 0.000000 1.836680 0.000000 
#    z 0.000000 0.000000 1.868770 
# 
# From -- ./inp_files/17814.got.cif
#   From: 2010.05.17/outbox.cif.g08.bks.cpg/sg20_9_cif.got.tgz:17814.got - 2010.06.03 22:52:26.
