data_PCOD9321964
_publ_section_title
;
Structure prediction by ZEFSAII (Michael W. Deem and Ramdas Pophale) SiO2 
 PCOD9321964
Probable space group: C 2 2 21
;
_chemical_formula_sum "Si O2"
_cell_formula_units_Z 28
_cell_length_a 14.596949
_cell_length_b 6.480333
_cell_length_c 10.239363
_cell_angle_alpha 90.000000
_cell_angle_beta 90.000000
_cell_angle_gamma 90.000000
_cell_volume 968.572989
_symmetry_space_group_name_H-M "C 2 2 21"
_symmetry_group_IT_number 20
_symmetry_cell_setting 'orthorhombic'
loop_
_space_group_symop_operation_xyz
x,y,z
-x,-y,1/2+z
x,-y,-z
-x,y,1/2-z
1/2+x,1/2+y,z
1/2-x,1/2-y,1/2+z
1/2+x,1/2-y,-z
1/2-x,1/2+y,1/2-z
loop_
_atom_site_type_symbol
_atom_site_label
_atom_site_fract_x
_atom_site_fract_y
_atom_site_fract_z
Si Si1 0.358321 0.510569 0.838481
Si Si2 0.000000 0.676290 0.250000
Si Si3 0.001951 0.343073 0.084527
Si Si4 0.209877 0.189515 0.095586
O O1 0.433669 0.352787 0.895649
O O2 0.290494 0.381854 0.745898
O O3 0.412828 0.671075 0.744327
O O4 0.293146 0.656731 0.922680
O O5 0.013574 0.611729 0.418762
O O6 0.000000 0.413243 0.250000
O O7 0.109504 0.283696 0.076390
O O8 0.223907 0.000000 0.000000
#
# Coordination Sequence:
#
# PCOD9321964 Si02
#       4
#     8   4   8   8
#     4  12  27  54  86 123 173 223 281 355 428 505
#     4  12  22  52  84 114 168 222 274 346 422 502
#     4  12  27  53  85 119 170 227 280 352 428 505
#     4  12  27  56  85 125 166 223 289 350 425 517
#
# _framework density 28.908507
#
# number of rings (size 3 to 8) (size 9 to 14) (size 15 to 20)
#    0.000    0.000    5.714    3.429    0.000    1.143 
#   10.286    0.000    0.000    0.000    0.000    0.000 
#    0.000    0.000    0.000    0.000    0.000    0.000 
#
# Total GULP energy -78521.196687 kJ/mol
# GULP energy per Si atom -5608.656906 kJ/mol
# Density = 2.884271 g / cm^3
# Si number density = 28.908507 Si / 1000 Ang^3
#
#
#
# Elastic Constant Matrix: (Units=GPa)
#
#
# Indices 1 2 3 4 5 6 
#
# 1 229.8331 150.3205 58.2534 0.0000 0.0000 0.0000
# 2 150.3205 259.5431 114.4147 0.0000 0.0000 0.0000
# 3 58.2534 114.4147 197.1795 0.0000 0.0000 0.0000
# 4 0.0000 0.0000 0.0000 113.1617 0.0000 0.0000
# 5 0.0000 0.0000 0.0000 0.0000 36.6434 0.0000
# 6 0.0000 0.0000 0.0000 0.0000 0.0000 34.3727
#
#
#
# Elastic Compliance Matrix: (Units=1/GPa)
#
#
# Indices 1 2 3 4 5 6 
#
# 1 0.007026 -0.004238 0.000384 0.000000 0.000000 0.000000
# 2 -0.004238 0.007734 -0.003236 0.000000 0.000000 0.000000
# 3 0.000384 -0.003236 0.006836 0.000000 0.000000 0.000000
# 4 0.000000 0.000000 0.000000 0.008837 0.000000 0.000000
# 5 0.000000 0.000000 0.000000 0.000000 0.027290 0.000000
# 6 0.000000 0.000000 0.000000 0.000000 0.000000 0.029093
#
#
# Mechanical properties :
#
#
# Convention : Reuss Voigt Hill
#
# Bulk Modulus (GPa) = 134.86203 148.05921 141.46062
# Shear Modulus (GPa) = 48.32457 61.07337 54.69897
#
# Velocity S-wave (km/s) = 4.09300 4.60134 4.35459
# Velocity P-wave (km/s) = 8.31201 8.91950 8.62111
#
# Compressibility (1/GPa) = 0.00741499
#
# Stress axis : x y z
#
# Youngs Moduli (GPa) = 142.33391 129.30041 146.29228
#
# Poissons Ratio (x) = 0.54801 -0.05612
# Poissons Ratio (y) = 0.60324 0.47334
# Poissons Ratio (z) = -0.05460 0.41836
#
# Static dielectric constant tensor:
#      x y z
#    x 1.928970 0.000000 0.000000 
#    y 0.000000 2.136970 0.000000 
#    z 0.000000 0.000000 2.578440 
# 
# From -- ./inp_files/19453.got.cif
#   From: 2010.05.17/outbox.cif.g08.bks.cpg/sg20_10_cif.got.tgz:19453.got - 2010.06.03 22:52:26.
