data_PCOD9321487
_publ_section_title
;
Structure prediction by ZEFSAII (Michael W. Deem and Ramdas Pophale) SiO2 
 PCOD9321487
Probable space group: C 2 2 21
;
_chemical_formula_sum "Si O2"
_cell_formula_units_Z 48
_cell_length_a 15.353182
_cell_length_b 7.932155
_cell_length_c 18.602360
_cell_angle_alpha 90.000000
_cell_angle_beta 90.000000
_cell_angle_gamma 90.000000
_cell_volume 2265.466450
_symmetry_space_group_name_H-M "C 2 2 21"
_symmetry_group_IT_number 20
_symmetry_cell_setting 'orthorhombic'
loop_
_space_group_symop_operation_xyz
x,y,z
-x,-y,1/2+z
x,-y,-z
-x,y,1/2-z
1/2+x,1/2+y,z
1/2-x,1/2-y,1/2+z
1/2+x,1/2-y,-z
1/2-x,1/2+y,1/2-z
loop_
_atom_site_type_symbol
_atom_site_label
_atom_site_fract_x
_atom_site_fract_y
_atom_site_fract_z
Si Si1 0.061834 0.701684 0.689543
Si Si2 0.387249 0.658630 0.957212
Si Si3 0.460920 0.180414 0.538099
Si Si4 0.797065 0.422891 0.786428
Si Si5 0.718548 0.359243 0.941401
Si Si6 0.644856 0.441251 0.296117
O O1 0.142711 0.575164 0.686863
O O2 0.000000 0.626394 0.750000
O O3 0.013021 0.698746 0.613296
O O4 0.088657 0.889066 0.717395
O O5 0.314993 0.801806 0.965931
O O6 0.384823 0.605837 0.875343
O O7 0.352573 0.500000 0.000000
O O8 0.482959 0.702306 0.984533
O O9 0.360854 0.228548 0.551579
O O10 0.465809 0.000000 0.500000
O O11 0.732779 0.393560 0.855662
O O12 0.741402 0.488561 0.719169
O O13 0.847879 0.250421 0.764461
O O14 0.693677 0.500000 0.000000
#
# Coordination Sequence:
#
# PCOD9321487 Si02
#       6
#     8   8   8   8   8   8
#     4  12  26  46  74 107 145 187 243 308 368 439
#     4  11  22  42  71  98 136 189 232 295 358 424
#     4  12  25  47  70 104 146 184 244 305 362 442
#     4  11  24  46  70 105 140 194 238 301 365 446
#     4  11  25  43  70 103 137 187 241 290 368 432
#     4  11  23  43  73  98 143 185 242 293 371 425
#
# _framework density 21.187688999999999
#
# number of rings (size 3 to 8) (size 9 to 14) (size 15 to 20)
#    0.000    0.667    3.333    5.500    2.333    0.667 
#    3.000    0.000    0.000    0.000    0.000    0.000 
#    0.000    0.000    0.000    0.000    0.000    0.000 
#
# Total GULP energy -133701.413575 kJ/mol
# GULP energy per Si atom -5570.892232 kJ/mol
# Density = 2.113947 g / cm^3
# Si number density = 21.187689 Si / 1000 Ang^3
#
#
#
# Elastic Constant Matrix: (Units=GPa)
#
#
# Indices 1 2 3 4 5 6 
#
# 1 83.1450 27.2421 27.6979 0.0000 0.0000 0.0000
# 2 27.2421 99.3489 14.5617 0.0000 0.0000 0.0000
# 3 27.6979 14.5617 51.2416 0.0000 0.0000 0.0000
# 4 0.0000 0.0000 0.0000 20.1411 0.0000 0.0000
# 5 0.0000 0.0000 0.0000 0.0000 44.5663 0.0000
# 6 0.0000 0.0000 0.0000 0.0000 0.0000 30.6699
#
#
#
# Elastic Compliance Matrix: (Units=1/GPa)
#
#
# Indices 1 2 3 4 5 6 
#
# 1 0.015569 -0.003167 -0.007515 0.000000 0.000000 0.000000
# 2 -0.003167 0.011147 -0.001456 0.000000 0.000000 0.000000
# 3 -0.007515 -0.001456 0.023991 0.000000 0.000000 0.000000
# 4 0.000000 0.000000 0.000000 0.049650 0.000000 0.000000
# 5 0.000000 0.000000 0.000000 0.000000 0.022438 0.000000
# 6 0.000000 0.000000 0.000000 0.000000 0.000000 0.032605
#
#
# Mechanical properties :
#
#
# Convention : Reuss Voigt Hill
#
# Bulk Modulus (GPa) = 37.83513 41.41544 39.62528
# Shear Modulus (GPa) = 26.52692 30.02438 28.27565
#
# Velocity S-wave (km/s) = 3.54220 3.76848 3.65709
# Velocity P-wave (km/s) = 5.88434 6.20682 6.04773
#
# Compressibility (1/GPa) = 0.02643046
#
# Stress axis : x y z
#
# Youngs Moduli (GPa) = 64.23211 89.70668 41.68174
#
# Poissons Ratio (x) = 0.28414 0.31325
# Poissons Ratio (y) = 0.20345 0.06068
# Poissons Ratio (z) = 0.48272 0.13059
#
# Static dielectric constant tensor:
#      x y z
#    x 1.762290 0.000000 0.000000 
#    y 0.000000 1.834820 0.000000 
#    z 0.000000 0.000000 1.750130 
# 
# From -- ./inp_files/24822.got.cif
#   From: 2010.05.17/outbox.cif.g08.bks.cpg/sg20_13_cif.got.tgz:24822.got - 2010.06.03 22:52:26.
