data_PCOD9321303
_publ_section_title
;
Structure prediction by ZEFSAII (Michael W. Deem and Ramdas Pophale) SiO2 
 PCOD9321303
Probable space group: C 2 2 21
;
_chemical_formula_sum "Si O2"
_cell_formula_units_Z 40
_cell_length_a 24.891420
_cell_length_b 12.724764
_cell_length_c 6.213818
_cell_angle_alpha 90.000000
_cell_angle_beta 90.000000
_cell_angle_gamma 90.000000
_cell_volume 1968.148838
_symmetry_space_group_name_H-M "C 2 2 21"
_symmetry_group_IT_number 20
_symmetry_cell_setting 'orthorhombic'
loop_
_space_group_symop_operation_xyz
x,y,z
-x,-y,1/2+z
x,-y,-z
-x,y,1/2-z
1/2+x,1/2+y,z
1/2-x,1/2-y,1/2+z
1/2+x,1/2-y,-z
1/2-x,1/2+y,1/2-z
loop_
_atom_site_type_symbol
_atom_site_label
_atom_site_fract_x
_atom_site_fract_y
_atom_site_fract_z
Si Si1 0.110790 0.675116 0.787355
Si Si2 0.174173 0.222757 0.578192
Si Si3 0.259880 0.385079 0.725931
Si Si4 0.817956 0.500000 0.500000
Si Si5 0.133347 0.116962 0.971981
Si Si6 0.500000 0.052776 0.750000
O O1 0.143762 0.692022 0.568038
O O2 0.145663 0.600906 0.946222
O O3 0.107122 0.792373 0.883764
O O4 0.054194 0.620726 0.750783
O O5 0.221904 0.284442 0.695512
O O6 0.202300 0.136841 0.429367
O O7 0.133733 0.163131 0.733792
O O8 0.219797 0.477617 0.793627
O O9 0.303153 0.390648 0.536506
O O10 0.111125 0.000000 0.000000
O O11 0.499669 0.000000 0.500000
#
# Coordination Sequence:
#
# PCOD9321303 Si02
#       6
#     8   8   8   4   8   4
#     4  11  27  44  70 103 138 178 243 304 370 437
#     4  11  21  39  61  95 138 187 234 289 348 433
#     4  11  21  34  58  95 141 186 232 282 346 428
#     4  12  22  40  62 102 140 186 234 290 360 442
#     4  11  24  41  65  96 142 195 239 291 351 437
#     4  12  30  54  84 114 140 184 236 320 390 446
#
# _framework density 20.323665999999999
#
# number of rings (size 3 to 8) (size 9 to 14) (size 15 to 20)
#    0.000    0.800    5.000    2.400    8.400    2.400 
#    0.000    0.000    4.400    0.000    0.000    0.000 
#    0.000    0.000    0.000    0.000    0.000    0.000 
#
# Total GULP energy -111568.459137 kJ/mol
# GULP energy per Si atom -5578.422957 kJ/mol
# Density = 2.027741 g / cm^3
# Si number density = 20.323666 Si / 1000 Ang^3
#
#
#
# Elastic Constant Matrix: (Units=GPa)
#
#
# Indices 1 2 3 4 5 6 
#
# 1 83.3423 31.3986 17.5011 0.0000 0.0000 0.0000
# 2 31.3986 114.0728 28.1079 0.0000 0.0000 0.0000
# 3 17.5011 28.1079 77.7325 0.0000 0.0000 0.0000
# 4 0.0000 0.0000 0.0000 24.5032 0.0000 0.0000
# 5 0.0000 0.0000 0.0000 0.0000 13.8467 0.0000
# 6 0.0000 0.0000 0.0000 0.0000 0.0000 31.2175
#
#
#
# Elastic Compliance Matrix: (Units=1/GPa)
#
#
# Indices 1 2 3 4 5 6 
#
# 1 0.013633 -0.003289 -0.001880 0.000000 0.000000 0.000000
# 2 -0.003289 0.010417 -0.003026 0.000000 0.000000 0.000000
# 3 -0.001880 -0.003026 0.014382 0.000000 0.000000 0.000000
# 4 0.000000 0.000000 0.000000 0.040811 0.000000 0.000000
# 5 0.000000 0.000000 0.000000 0.000000 0.072219 0.000000
# 6 0.000000 0.000000 0.000000 0.000000 0.000000 0.032033
#
#
# Mechanical properties :
#
#
# Convention : Reuss Voigt Hill
#
# Bulk Modulus (GPa) = 45.36945 47.68476 46.52710
# Shear Modulus (GPa) = 24.12730 27.12281 25.62505
#
# Velocity S-wave (km/s) = 3.44925 3.65710 3.55469
# Velocity P-wave (km/s) = 6.18344 6.43010 6.30798
#
# Compressibility (1/GPa) = 0.02204126
#
# Stress axis : x y z
#
# Youngs Moduli (GPa) = 73.35332 95.99343 69.53024
#
# Poissons Ratio (x) = 0.31574 0.13072
# Poissons Ratio (y) = 0.24127 0.21042
# Poissons Ratio (z) = 0.13790 0.29051
#
# Static dielectric constant tensor:
#      x y z
#    x 1.664300 0.000000 0.000000 
#    y 0.000000 1.747640 0.000000 
#    z 0.000000 0.000000 1.825400 
# 
# From -- ./inp_files/3658.got.cif
#   From: 2010.05.17/outbox.cif.g08.bks.cpg/sg20_2_cif.got.tgz:3658.got - 2010.06.03 22:52:26.
