data_PCOD9321294
_publ_section_title
;
Structure prediction by ZEFSAII (Michael W. Deem and Ramdas Pophale) SiO2 
 PCOD9321294
Probable space group: C 2 2 21
;
_chemical_formula_sum "Si O2"
_cell_formula_units_Z 40
_cell_length_a 16.703424
_cell_length_b 9.613066
_cell_length_c 11.637987
_cell_angle_alpha 90.000000
_cell_angle_beta 90.000000
_cell_angle_gamma 90.000000
_cell_volume 1868.724576
_symmetry_space_group_name_H-M "C 2 2 21"
_symmetry_group_IT_number 20
_symmetry_cell_setting 'orthorhombic'
loop_
_space_group_symop_operation_xyz
x,y,z
-x,-y,1/2+z
x,-y,-z
-x,y,1/2-z
1/2+x,1/2+y,z
1/2-x,1/2-y,1/2+z
1/2+x,1/2-y,-z
1/2-x,1/2+y,1/2-z
loop_
_atom_site_type_symbol
_atom_site_label
_atom_site_fract_x
_atom_site_fract_y
_atom_site_fract_z
Si Si1 0.684004 0.445366 0.797595
Si Si2 0.582728 0.722729 0.797079
Si Si3 0.867365 0.146797 0.063318
Si Si4 0.852085 0.601684 0.096636
Si Si5 0.951515 0.159678 0.455235
O O1 0.647422 0.600097 0.786213
O O2 0.687682 0.374181 0.673508
O O3 0.767984 0.457813 0.860641
O O4 0.621426 0.348866 0.867398
O O5 0.500000 0.658079 0.750000
O O6 0.600680 0.850222 0.711107
O O7 0.568451 0.751016 0.931901
O O8 0.959714 0.188849 0.092585
O O9 0.835763 0.257978 0.973734
O O10 0.872109 0.000000 0.000000
O O11 0.889418 0.500000 0.000000
O O12 0.954608 0.000000 0.500000
#
# Coordination Sequence:
#
# PCOD9321294 Si02
#       5
#     8   8   8   8   8
#     4  11  23  38  72 102 139 175 244 293 345 413
#     4  11  20  44  73  96 135 192 232 287 348 426
#     4  11  21  41  70 100 135 182 237 287 345 425
#     4  12  27  41  65 104 151 181 227 301 369 411
#     4   9  18  36  69 104 123 172 244 286 324 411
#
# _framework density 21.404973999999999
#
# number of rings (size 3 to 8) (size 9 to 14) (size 15 to 20)
#    0.000    1.200    4.000    4.800    5.600    0.000 
#    0.000    2.000    0.000    0.000    0.000    0.000 
#    0.000    0.000    0.000    0.000    0.000    0.000 
#
# Total GULP energy -111651.524672 kJ/mol
# GULP energy per Si atom -5582.576234 kJ/mol
# Density = 2.135626 g / cm^3
# Si number density = 21.404974 Si / 1000 Ang^3
#
#
#
# Elastic Constant Matrix: (Units=GPa)
#
#
# Indices 1 2 3 4 5 6 
#
# 1 43.9338 10.4069 -3.8136 0.0000 0.0000 0.0000
# 2 10.4069 63.6259 18.8413 0.0000 0.0000 0.0000
# 3 -3.8136 18.8413 97.7329 0.0000 0.0000 0.0000
# 4 0.0000 0.0000 0.0000 41.0290 0.0000 0.0000
# 5 0.0000 0.0000 0.0000 0.0000 18.8384 0.0000
# 6 0.0000 0.0000 0.0000 0.0000 0.0000 8.8210
#
#
#
# Elastic Compliance Matrix: (Units=1/GPa)
#
#
# Indices 1 2 3 4 5 6 
#
# 1 0.023972 -0.004452 0.001794 0.000000 0.000000 0.000000
# 2 -0.004452 0.017495 -0.003547 0.000000 0.000000 0.000000
# 3 0.001794 -0.003547 0.010986 0.000000 0.000000 0.000000
# 4 0.000000 0.000000 0.000000 0.024373 0.000000 0.000000
# 5 0.000000 0.000000 0.000000 0.000000 0.053083 0.000000
# 6 0.000000 0.000000 0.000000 0.000000 0.000000 0.113366
#
#
# Mechanical properties :
#
#
# Convention : Reuss Voigt Hill
#
# Bulk Modulus (GPa) = 24.97320 28.46243 26.71782
# Shear Modulus (GPa) = 18.58511 25.72820 22.15666
#
# Velocity S-wave (km/s) = 2.94982 3.47071 3.22081
# Velocity P-wave (km/s) = 4.82642 5.42099 5.13232
#
# Compressibility (1/GPa) = 0.04004292
#
# Stress axis : x y z
#
# Youngs Moduli (GPa) = 41.71564 57.15824 91.02768
#
# Poissons Ratio (x) = 0.25447 -0.16328
# Poissons Ratio (y) = 0.18572 0.32283
# Poissons Ratio (z) = -0.07482 0.20271
#
# Static dielectric constant tensor:
#      x y z
#    x 1.788940 0.000000 0.000000 
#    y 0.000000 1.779320 0.000000 
#    z 0.000000 0.000000 1.840560 
# 
# From -- ./inp_files/12674.got.cif
#   From: 2010.05.17/outbox.cif.g08.bks.cpg/sg20_7_cif.got.tgz:12674.got - 2010.06.03 22:52:26.
