data_PCOD9321539
_publ_section_title
;
Structure prediction by ZEFSAII (Michael W. Deem and Ramdas Pophale) SiO2 
 PCOD9321539
Probable space group: C 2 2 21
;
_chemical_formula_sum "Si O2"
_cell_formula_units_Z 60
_cell_length_a 29.592576
_cell_length_b 11.499710
_cell_length_c 9.108779
_cell_angle_alpha 90.000000
_cell_angle_beta 90.000000
_cell_angle_gamma 90.000000
_cell_volume 3099.772530
_symmetry_space_group_name_H-M "C 2 2 21"
_symmetry_group_IT_number 20
_symmetry_cell_setting 'orthorhombic'
loop_
_space_group_symop_operation_xyz
x,y,z
-x,-y,1/2+z
x,-y,-z
-x,y,1/2-z
1/2+x,1/2+y,z
1/2-x,1/2-y,1/2+z
1/2+x,1/2-y,-z
1/2-x,1/2+y,1/2-z
loop_
_atom_site_type_symbol
_atom_site_label
_atom_site_fract_x
_atom_site_fract_y
_atom_site_fract_z
Si Si1 0.313453 0.722370 0.946005
Si Si2 0.456029 0.837294 0.339249
Si Si3 0.643174 0.195444 0.740482
Si Si4 0.454392 0.120313 0.331543
Si Si5 0.853732 0.417862 0.743416
Si Si6 0.286448 0.314902 0.550108
Si Si7 0.293390 0.000000 0.500000
Si Si8 0.282576 0.543621 0.752178
O O1 0.328535 0.833932 0.853296
O O2 0.259590 0.741350 0.955523
O O3 0.319461 0.599400 0.863316
O O4 0.337970 0.735909 0.100440
O O5 0.500000 0.798108 0.250000
O O6 0.409924 0.790358 0.269968
O O7 0.455661 0.815830 0.512441
O O8 0.456593 0.978920 0.338624
O O9 0.672959 0.242219 0.876072
O O10 0.647719 0.055298 0.715022
O O11 0.500000 0.156888 0.250000
O O12 0.404637 0.132086 0.263563
O O13 0.828840 0.417065 0.586627
O O14 0.284059 0.422954 0.664210
O O15 0.286559 0.365483 0.384259
O O16 0.260681 0.029265 0.639042
#
# Coordination Sequence:
#
# PCOD9321539 Si02
#       8
#     8   8   8   8   8   8   4   8
#     4  12  24  36  59  86 118 161 206 246 291 358
#     4   9  19  36  57  84 115 155 199 244 298 356
#     4  11  24  40  60  87 124 161 202 249 304 352
#     4   9  19  34  54  80 119 159 192 238 297 354
#     4  11  23  34  60  87 120 159 203 242 296 362
#     4  11  24  42  57  84 121 160 204 257 294 359
#     4  12  20  40  56  80 116 158 204 250 290 348
#     4  11  26  39  59  84 116 163 206 248 304 345
#
# _framework density 19.356258
#
# number of rings (size 3 to 8) (size 9 to 14) (size 15 to 20)
#    0.000    1.333    1.333    5.200    9.333    0.000 
#    0.000    0.000    0.000    0.000    0.000    4.667 
#    0.000    0.000    0.000    0.000    0.000    0.000 
#
# Total GULP energy -167031.144133 kJ/mol
# GULP energy per Si atom -5567.704804 kJ/mol
# Density = 1.931220 g / cm^3
# Si number density = 19.356258 Si / 1000 Ang^3
#
#
#
# Elastic Constant Matrix: (Units=GPa)
#
#
# Indices 1 2 3 4 5 6 
#
# 1 132.5808 14.5237 49.8718 0.0000 0.0000 0.0000
# 2 14.5237 33.8868 24.7003 0.0000 0.0000 0.0000
# 3 49.8718 24.7003 110.9185 0.0000 0.0000 0.0000
# 4 0.0000 0.0000 0.0000 13.6519 0.0000 0.0000
# 5 0.0000 0.0000 0.0000 0.0000 25.0922 0.0000
# 6 0.0000 0.0000 0.0000 0.0000 0.0000 -7.8031
#
#
#
# Elastic Compliance Matrix: (Units=1/GPa)
#
#
# Indices 1 2 3 4 5 6 
#
# 1 0.009112 -0.001097 -0.003853 0.000000 0.000000 0.000000
# 2 -0.001097 0.035360 -0.007381 0.000000 0.000000 0.000000
# 3 -0.003853 -0.007381 0.012392 0.000000 0.000000 0.000000
# 4 0.000000 0.000000 0.000000 0.073250 0.000000 0.000000
# 5 0.000000 0.000000 0.000000 0.000000 0.039853 0.000000
# 6 0.000000 0.000000 0.000000 0.000000 0.000000 -0.128155
#
#
# Mechanical properties :
#
#
# Convention : Reuss Voigt Hill
#
# Bulk Modulus (GPa) = 31.05377 50.61972 40.83675
# Shear Modulus (GPa) = 64.76044 18.74090 41.75067
#
# Velocity S-wave (km/s) = 5.79049 3.11498 4.64935
# Velocity P-wave (km/s) = 7.79644 6.25666 7.06860
#
# Compressibility (1/GPa) = 0.03220221
#
# Stress axis : x y z
#
# Youngs Moduli (GPa) = 109.74565 28.28029 80.70008
#
# Poissons Ratio (x) = 0.03103 0.31091
# Poissons Ratio (y) = 0.12040 0.59565
# Poissons Ratio (z) = 0.42281 0.20874
#
# Static dielectric constant tensor:
#      x y z
#    x 1.693540 0.000000 0.000000 
#    y 0.000000 1.759470 0.000000 
#    z 0.000000 0.000000 1.769430 
# 
# From -- ./inp_files/11595.got.cif
#   From: 2010.05.17/outbox.cif.g08.bks.cpg/sg20_6_cif.got.tgz:11595.got - 2010.06.03 22:52:26.
