data_PCOD9321067
_publ_section_title
;
Structure prediction by ZEFSAII (Michael W. Deem and Ramdas Pophale) SiO2 
 PCOD9321067
Probable space group: C 2 2 21
;
_chemical_formula_sum "Si O2"
_cell_formula_units_Z 36
_cell_length_a 15.626730
_cell_length_b 9.690456
_cell_length_c 9.783647
_cell_angle_alpha 90.000000
_cell_angle_beta 90.000000
_cell_angle_gamma 90.000000
_cell_volume 1481.539030
_symmetry_space_group_name_H-M "C 2 2 21"
_symmetry_group_IT_number 20
_symmetry_cell_setting 'orthorhombic'
loop_
_space_group_symop_operation_xyz
x,y,z
-x,-y,1/2+z
x,-y,-z
-x,y,1/2-z
1/2+x,1/2+y,z
1/2-x,1/2-y,1/2+z
1/2+x,1/2-y,-z
1/2-x,1/2+y,1/2-z
loop_
_atom_site_type_symbol
_atom_site_label
_atom_site_fract_x
_atom_site_fract_y
_atom_site_fract_z
Si Si1 0.097256 0.125375 0.755176
Si Si2 0.127693 0.650435 0.063749
Si Si3 0.524171 0.132256 0.598316
Si Si4 0.312900 0.732568 0.998659
Si Si5 0.289320 0.500000 0.500000
O O1 0.149046 0.130137 0.614558
O O2 0.000000 0.073708 0.750000
O O3 0.094628 0.289349 0.794359
O O4 0.152151 0.055396 0.875756
O O5 0.228720 0.672758 0.067853
O O6 0.056746 0.719129 0.961698
O O7 0.121217 0.500000 0.000000
O O8 0.500000 0.088091 0.750000
O O9 0.609306 0.223937 0.595651
O O10 0.541360 0.000000 0.500000
O O11 0.270982 0.876739 0.945073
#
# Coordination Sequence:
#
# PCOD9321067 Si02
#       5
#     8   8   8   8   4
#     4  11  24  48  70 102 146 193 242 298 369 429
#     4  10  25  41  68 105 138 186 240 296 357 434
#     4  11  25  42  70 104 142 190 241 298 357 431
#     4  11  24  44  72 100 144 191 237 303 361 430
#     4  10  26  46  68 110 140 192 240 306 360 446
#
# _framework density 24.299054999999999
#
# number of rings (size 3 to 8) (size 9 to 14) (size 15 to 20)
#    0.000    1.333    3.333    0.000   15.556    0.000 
#    2.000    4.444    0.000    0.000    0.000    0.000 
#    0.000    0.000    0.000    0.000    0.000    0.000 
#
# Total GULP energy -100334.673119 kJ/mol
# GULP energy per Si atom -5574.148507 kJ/mol
# Density = 2.424375 g / cm^3
# Si number density = 24.299055 Si / 1000 Ang^3
#
#
#
# Elastic Constant Matrix: (Units=GPa)
#
#
# Indices 1 2 3 4 5 6 
#
# 1 215.4166 9.2302 40.6529 0.0000 0.0000 0.0000
# 2 9.2302 27.4924 -7.6871 0.0000 0.0000 0.0000
# 3 40.6529 -7.6871 65.8625 0.0000 0.0000 0.0000
# 4 0.0000 0.0000 0.0000 30.7634 0.0000 0.0000
# 5 0.0000 0.0000 0.0000 0.0000 45.5471 0.0000
# 6 0.0000 0.0000 0.0000 0.0000 0.0000 43.3822
#
#
#
# Elastic Compliance Matrix: (Units=1/GPa)
#
#
# Indices 1 2 3 4 5 6 
#
# 1 0.005465 -0.002872 -0.003708 0.000000 0.000000 0.000000
# 2 -0.002872 0.039110 0.006337 0.000000 0.000000 0.000000
# 3 -0.003708 0.006337 0.018212 0.000000 0.000000 0.000000
# 4 0.000000 0.000000 0.000000 0.032506 0.000000 0.000000
# 5 0.000000 0.000000 0.000000 0.000000 0.021955 0.000000
# 6 0.000000 0.000000 0.000000 0.000000 0.000000 0.023051
#
#
# Mechanical properties :
#
#
# Convention : Reuss Voigt Hill
#
# Bulk Modulus (GPa) = 16.05113 43.68482 29.86798
# Shear Modulus (GPa) = 30.94980 41.71022 36.33001
#
# Velocity S-wave (km/s) = 3.57277 4.14761 3.87087
# Velocity P-wave (km/s) = 4.86206 6.39952 5.68302
#
# Compressibility (1/GPa) = 0.06230090
#
# Stress axis : x y z
#
# Youngs Moduli (GPa) = 182.98062 25.56900 54.90951
#
# Poissons Ratio (x) = 0.07343 0.20363
# Poissons Ratio (y) = 0.52547 -0.34798
# Poissons Ratio (z) = 0.67857 -0.16204
#
# Static dielectric constant tensor:
#      x y z
#    x 1.959800 0.000000 0.000000 
#    y 0.000000 2.109470 0.000000 
#    z 0.000000 0.000000 1.936340 
# 
# From -- ./inp_files/14816.got.cif
#   From: 2010.05.17/outbox.cif.g08.bks.cpg/sg20_8_cif.got.tgz:14816.got - 2010.06.03 22:52:26.
