data_PCOD9321138
_publ_section_title
;
Structure prediction by ZEFSAII (Michael W. Deem and Ramdas Pophale) SiO2 
 PCOD9321138
Probable space group: C 2 2 21
;
_chemical_formula_sum "Si O2"
_cell_formula_units_Z 60
_cell_length_a 13.003617
_cell_length_b 12.629630
_cell_length_c 16.782536
_cell_angle_alpha 90.000000
_cell_angle_beta 90.000000
_cell_angle_gamma 90.000000
_cell_volume 2756.210511
_symmetry_space_group_name_H-M "C 2 2 21"
_symmetry_group_IT_number 20
_symmetry_cell_setting 'orthorhombic'
loop_
_space_group_symop_operation_xyz
x,y,z
-x,-y,1/2+z
x,-y,-z
-x,y,1/2-z
1/2+x,1/2+y,z
1/2-x,1/2-y,1/2+z
1/2+x,1/2-y,-z
1/2-x,1/2+y,1/2-z
loop_
_atom_site_type_symbol
_atom_site_label
_atom_site_fract_x
_atom_site_fract_y
_atom_site_fract_z
Si Si1 0.809734 0.543370 0.091619
Si Si2 0.570710 0.358741 0.600228
Si Si3 0.493720 0.820019 0.844743
Si Si4 0.289935 0.778163 0.610569
Si Si5 0.125210 0.122624 0.018784
Si Si6 0.714847 0.123090 0.736341
Si Si7 0.500000 0.217843 0.750000
Si Si8 0.423783 0.581261 0.823918
O O1 0.908390 0.611013 0.112961
O O2 0.706995 0.616398 0.091059
O O3 0.798900 0.456267 0.161191
O O4 0.818827 0.500000 0.000000
O O5 0.687265 0.332021 0.578718
O O6 0.483555 0.326866 0.538084
O O7 0.538192 0.292510 0.678443
O O8 0.563430 0.483524 0.617006
O O9 0.500000 0.840219 0.750000
O O10 0.606472 0.843763 0.879341
O O11 0.461927 0.696019 0.853353
O O12 0.320654 0.683087 0.552419
O O13 0.261973 0.729585 0.696755
O O14 0.107843 0.000000 0.000000
O O15 0.601481 0.148082 0.770563
O O16 0.805061 0.084252 0.794774
O O17 0.500000 0.557952 0.750000
#
# Coordination Sequence:
#
# PCOD9321138 Si02
#       8
#     8   8   8   8   8   8   4   8
#     4  11  25  42  71  95 131 184 222 268 342 413
#     4  11  25  41  67  99 133 170 225 276 333 395
#     4  11  25  41  71  99 134 177 223 277 338 396
#     4  11  23  43  64  99 134 170 222 270 328 402
#     4  11  23  43  67  91 128 182 215 270 330 403
#     4  11  22  42  63  97 137 167 223 268 336 399
#     4  10  26  38  66  96 136 174 204 282 336 388
#     4  11  21  40  67 100 131 170 219 285 326 397
#
# _framework density 21.769019
#
# number of rings (size 3 to 8) (size 9 to 14) (size 15 to 20)
#    0.000    1.067    6.000    1.600    6.533    0.000 
#    0.000    0.667    0.000    0.000    0.000    0.000 
#    0.000    0.000    0.000    0.000    0.000    0.000 
#
# Total GULP energy -167636.581225 kJ/mol
# GULP energy per Si atom -5587.886041 kJ/mol
# Density = 2.171947 g / cm^3
# Si number density = 21.769019 Si / 1000 Ang^3
#
#
#
# Elastic Constant Matrix: (Units=GPa)
#
#
# Indices 1 2 3 4 5 6 
#
# 1 222.4183 45.6275 47.8280 0.0000 0.0000 0.0000
# 2 45.6275 32.3109 24.6153 0.0000 0.0000 0.0000
# 3 47.8280 24.6153 51.9728 0.0000 0.0000 0.0000
# 4 0.0000 0.0000 0.0000 7.4853 0.0000 0.0000
# 5 0.0000 0.0000 0.0000 0.0000 40.0474 0.0000
# 6 0.0000 0.0000 0.0000 0.0000 0.0000 37.6737
#
#
#
# Elastic Compliance Matrix: (Units=1/GPa)
#
#
# Indices 1 2 3 4 5 6 
#
# 1 0.006543 -0.007278 -0.002574 0.000000 0.000000 0.000000
# 2 -0.007278 0.056517 -0.020069 0.000000 0.000000 0.000000
# 3 -0.002574 -0.020069 0.031115 0.000000 0.000000 0.000000
# 4 0.000000 0.000000 0.000000 0.133595 0.000000 0.000000
# 5 0.000000 0.000000 0.000000 0.000000 0.024970 0.000000
# 6 0.000000 0.000000 0.000000 0.000000 0.000000 0.026544
#
#
# Mechanical properties :
#
#
# Convention : Reuss Voigt Hill
#
# Bulk Modulus (GPa) = 29.12824 60.31595 44.72210
# Shear Modulus (GPa) = 14.26250 29.61669 21.93960
#
# Velocity S-wave (km/s) = 2.56241 3.69249 3.17809
# Velocity P-wave (km/s) = 4.70789 6.77840 5.83571
#
# Compressibility (1/GPa) = 0.03433094
#
# Stress axis : x y z
#
# Youngs Moduli (GPa) = 152.84529 17.69386 32.13932
#
# Poissons Ratio (x) = 0.12878 0.08272
# Poissons Ratio (y) = 1.11246 0.64502
# Poissons Ratio (z) = 0.39337 0.35511
#
# Static dielectric constant tensor:
#      x y z
#    x 1.826290 0.000000 0.000000 
#    y 0.000000 1.799530 0.000000 
#    z 0.000000 0.000000 1.824310 
# 
# From -- ./inp_files/27266.got.cif
#   From: 2010.05.17/outbox.cif.g08.bks.cpg/sg20_14_cif.got.tgz:27266.got - 2010.06.03 22:52:26.
