data_PCOD9321064
_publ_section_title
;
Structure prediction by ZEFSAII (Michael W. Deem and Ramdas Pophale) SiO2 
 PCOD9321064
Probable space group: C 2 2 21
;
_chemical_formula_sum "Si O2"
_cell_formula_units_Z 32
_cell_length_a 5.208063
_cell_length_b 9.178919
_cell_length_c 27.137755
_cell_angle_alpha 90.000000
_cell_angle_beta 90.000000
_cell_angle_gamma 90.000000
_cell_volume 1297.303781
_symmetry_space_group_name_H-M "C 2 2 21"
_symmetry_group_IT_number 20
_symmetry_cell_setting 'orthorhombic'
loop_
_space_group_symop_operation_xyz
x,y,z
-x,-y,1/2+z
x,-y,-z
-x,y,1/2-z
1/2+x,1/2+y,z
1/2-x,1/2-y,1/2+z
1/2+x,1/2-y,-z
1/2-x,1/2+y,1/2-z
loop_
_atom_site_type_symbol
_atom_site_label
_atom_site_fract_x
_atom_site_fract_y
_atom_site_fract_z
Si Si1 0.796956 0.175191 0.392687
Si Si2 0.932922 0.664753 0.481773
Si Si3 0.140610 0.042351 0.636804
Si Si4 0.523739 0.814579 0.807940
O O1 0.547188 0.164023 0.426491
O O2 0.847553 0.347366 0.388491
O O3 0.733872 0.134405 0.335883
O O4 0.004414 0.054398 0.404950
O O5 0.904372 0.500000 0.500000
O O6 0.170316 0.745329 0.510443
O O7 0.955562 0.157699 0.665094
O O8 0.271558 0.933047 0.675027
O O9 0.500000 0.801109 0.750000
#
# Coordination Sequence:
#
# PCOD9321064 Si02
#       4
#     8   8   8   8
#     4  10  26  42  69  95 136 176 228 286 347 415
#     4  12  28  46  75 104 143 185 242 296 364 427
#     4  10  25  39  68  90 137 169 226 272 345 402
#     4  10  26  40  68  97 136 176 227 275 344 410
#
# _framework density 24.666544999999999
#
# number of rings (size 3 to 8) (size 9 to 14) (size 15 to 20)
#    1.500    0.000    0.000    2.250   14.000    0.000 
#    0.000    0.000    0.000    0.000    0.000    0.000 
#    0.000    0.000    0.000    0.000    0.000    0.000 
#
# Total GULP energy -89257.094777 kJ/mol
# GULP energy per Si atom -5578.568424 kJ/mol
# Density = 2.461040 g / cm^3
# Si number density = 24.666545 Si / 1000 Ang^3
#
#
#
# Elastic Constant Matrix: (Units=GPa)
#
#
# Indices 1 2 3 4 5 6 
#
# 1 52.6211 49.6807 22.8359 0.0000 0.0000 0.0000
# 2 49.6807 209.5257 63.2967 0.0000 0.0000 0.0000
# 3 22.8359 63.2967 108.1856 0.0000 0.0000 0.0000
# 4 0.0000 0.0000 0.0000 27.5250 0.0000 0.0000
# 5 0.0000 0.0000 0.0000 0.0000 30.6153 0.0000
# 6 0.0000 0.0000 0.0000 0.0000 0.0000 39.6309
#
#
#
# Elastic Compliance Matrix: (Units=1/GPa)
#
#
# Indices 1 2 3 4 5 6 
#
# 1 0.024905 -0.005244 -0.002189 0.000000 0.000000 0.000000
# 2 -0.005244 0.006902 -0.002931 0.000000 0.000000 0.000000
# 3 -0.002189 -0.002931 0.011420 0.000000 0.000000 0.000000
# 4 0.000000 0.000000 0.000000 0.036331 0.000000 0.000000
# 5 0.000000 0.000000 0.000000 0.000000 0.032663 0.000000
# 6 0.000000 0.000000 0.000000 0.000000 0.000000 0.025233
#
#
# Mechanical properties :
#
#
# Convention : Reuss Voigt Hill
#
# Bulk Modulus (GPa) = 44.44667 71.32878 57.88773
# Shear Modulus (GPa) = 30.17862 35.18884 32.68373
#
# Velocity S-wave (km/s) = 3.50160 3.78111 3.64403
# Velocity P-wave (km/s) = 5.86570 6.93126 6.42062
#
# Compressibility (1/GPa) = 0.02249887
#
# Stress axis : x y z
#
# Youngs Moduli (GPa) = 40.15331 144.89575 87.56373
#
# Poissons Ratio (x) = 0.75982 0.19166
# Poissons Ratio (y) = 0.21056 0.25665
# Poissons Ratio (z) = 0.08789 0.42469
#
# Static dielectric constant tensor:
#      x y z
#    x 2.049230 0.000000 0.000000 
#    y 0.000000 1.973630 0.000000 
#    z 0.000000 0.000000 1.996330 
# 
# From -- ./inp_files/30599.got.cif
#   From: 2010.05.17/outbox.cif.g08.bks.cpg/sg20_16_cif.got.tgz:30599.got - 2010.06.03 22:52:26.
