data_PCOD9321866
_publ_section_title
;
Structure prediction by ZEFSAII (Michael W. Deem and Ramdas Pophale) SiO2 
 PCOD9321866
Probable space group: C 2 2 21
;
_chemical_formula_sum "Si O2"
_cell_formula_units_Z 28
_cell_length_a 19.873664
_cell_length_b 7.300813
_cell_length_c 7.386263
_cell_angle_alpha 90.000000
_cell_angle_beta 90.000000
_cell_angle_gamma 90.000000
_cell_volume 1071.701738
_symmetry_space_group_name_H-M "C 2 2 21"
_symmetry_group_IT_number 20
_symmetry_cell_setting 'orthorhombic'
loop_
_space_group_symop_operation_xyz
x,y,z
-x,-y,1/2+z
x,-y,-z
-x,y,1/2-z
1/2+x,1/2+y,z
1/2-x,1/2-y,1/2+z
1/2+x,1/2-y,-z
1/2-x,1/2+y,1/2-z
loop_
_atom_site_type_symbol
_atom_site_label
_atom_site_fract_x
_atom_site_fract_y
_atom_site_fract_z
Si Si1 0.156599 0.217366 0.533166
Si Si2 0.390862 0.000000 0.500000
Si Si3 0.303573 0.700743 0.556361
Si Si4 0.993277 0.782625 0.035040
O O1 0.223248 0.297067 0.443719
O O2 0.081949 0.276716 0.477957
O O3 0.159202 0.000000 0.500000
O O4 0.164441 0.251738 0.749279
O O5 0.331620 0.141754 0.572089
O O6 0.448508 0.156387 0.540839
O O7 0.326668 0.500000 0.500000
O O8 0.000000 0.758814 0.250000
O O9 0.001168 0.000000 0.000000
#
# Coordination Sequence:
#
# PCOD9321866 Si02
#       4
#     8   4   8   8
#     4  11  25  50  74 111 149 195 251 304 378 439
#     4  12  26  48  72 112 148 200 244 314 364 446
#     4  12  26  47  76 108 153 196 248 312 369 446
#     4  11  26  50  76 111 149 195 250 307 372 440
#
# _framework density 26.126671999999999
#
# number of rings (size 3 to 8) (size 9 to 14) (size 15 to 20)
#    0.000    0.571    4.286    2.571    2.000    1.143 
#    5.143    0.000    0.000    0.000    0.000    0.000 
#    0.000    0.000    0.000    0.000    0.000    0.000 
#
# Total GULP energy -78017.055275 kJ/mol
# GULP energy per Si atom -5572.646805 kJ/mol
# Density = 2.606721 g / cm^3
# Si number density = 26.126672 Si / 1000 Ang^3
#
#
#
# Elastic Constant Matrix: (Units=GPa)
#
#
# Indices 1 2 3 4 5 6 
#
# 1 228.2085 73.0717 31.4670 0.0000 0.0000 0.0000
# 2 73.0717 169.2383 -16.5478 0.0000 0.0000 0.0000
# 3 31.4670 -16.5478 78.7434 0.0000 0.0000 0.0000
# 4 0.0000 0.0000 0.0000 11.6099 0.0000 0.0000
# 5 0.0000 0.0000 0.0000 0.0000 27.7258 0.0000
# 6 0.0000 0.0000 0.0000 0.0000 0.0000 54.5991
#
#
#
# Elastic Compliance Matrix: (Units=1/GPa)
#
#
# Indices 1 2 3 4 5 6 
#
# 1 0.005639 -0.002711 -0.002823 0.000000 0.000000 0.000000
# 2 -0.002711 0.007336 0.002625 0.000000 0.000000 0.000000
# 3 -0.002823 0.002625 0.014379 0.000000 0.000000 0.000000
# 4 0.000000 0.000000 0.000000 0.086133 0.000000 0.000000
# 5 0.000000 0.000000 0.000000 0.000000 0.036067 0.000000
# 6 0.000000 0.000000 0.000000 0.000000 0.000000 0.018315
#
#
# Mechanical properties :
#
#
# Convention : Reuss Voigt Hill
#
# Bulk Modulus (GPa) = 46.43341 72.46354 59.44848
# Shear Modulus (GPa) = 27.64448 44.66692 36.15570
#
# Velocity S-wave (km/s) = 3.25637 4.13925 3.72406
# Velocity P-wave (km/s) = 5.65239 7.11619 6.42611
#
# Compressibility (1/GPa) = 0.02153622
#
# Stress axis : x y z
#
# Youngs Moduli (GPa) = 177.32797 136.31458 69.54436
#
# Poissons Ratio (x) = 0.36954 0.19634
# Poissons Ratio (y) = 0.48072 -0.18255
# Poissons Ratio (z) = 0.50064 -0.35782
#
# Static dielectric constant tensor:
#      x y z
#    x 1.993520 0.000000 0.000000 
#    y 0.000000 2.067910 0.000000 
#    z 0.000000 0.000000 2.054110 
# 
# From -- ./inp_files/9024.got.cif
#   From: 2010.05.17/outbox.cif.g08.bks.cpg/sg20_5_cif.got.tgz:9024.got - 2010.06.03 22:52:26.
