data_PCOD9321465
_publ_section_title
;
Structure prediction by ZEFSAII (Michael W. Deem and Ramdas Pophale) SiO2 
 PCOD9321465
Probable space group: C 2 2 21
;
_chemical_formula_sum "Si O2"
_cell_formula_units_Z 60
_cell_length_a 25.388713
_cell_length_b 8.735880
_cell_length_c 12.327256
_cell_angle_alpha 90.000000
_cell_angle_beta 90.000000
_cell_angle_gamma 90.000000
_cell_volume 2734.096010
_symmetry_space_group_name_H-M "C 2 2 21"
_symmetry_group_IT_number 20
_symmetry_cell_setting 'orthorhombic'
loop_
_space_group_symop_operation_xyz
x,y,z
-x,-y,1/2+z
x,-y,-z
-x,y,1/2-z
1/2+x,1/2+y,z
1/2-x,1/2-y,1/2+z
1/2+x,1/2-y,-z
1/2-x,1/2+y,1/2-z
loop_
_atom_site_type_symbol
_atom_site_label
_atom_site_fract_x
_atom_site_fract_y
_atom_site_fract_z
Si Si1 0.099963 0.308424 0.268235
Si Si2 0.217246 0.314836 0.199608
Si Si3 0.219300 0.973331 0.118672
Si Si4 0.287888 0.000000 0.500000
Si Si5 0.941116 0.353847 0.791378
Si Si6 0.429721 0.319399 0.981501
Si Si7 0.131040 0.740986 0.097040
Si Si8 0.550099 0.659362 0.067657
O O1 0.155776 0.353866 0.215890
O O2 0.066094 0.462868 0.284195
O O3 0.108498 0.239566 0.387507
O O4 0.072378 0.184174 0.188645
O O5 0.248563 0.358905 0.306371
O O6 0.240197 0.405822 0.095506
O O7 0.218438 0.135914 0.176254
O O8 0.161371 0.902452 0.101607
O O9 0.243035 0.000000 0.000000
O O10 0.324370 0.122339 0.438117
O O11 0.930042 0.280062 0.908740
O O12 0.897778 0.287834 0.709352
O O13 0.000000 0.312876 0.750000
O O14 0.421189 0.500000 0.000000
O O15 0.488807 0.301031 0.933672
O O16 0.086140 0.731219 0.005668
O O17 0.553656 0.500000 0.000000
#
# Coordination Sequence:
#
# PCOD9321465 Si02
#       8
#     8   8   8   4   8   8   8   8
#     4  12  25  45  70 103 148 185 241 293 369 431
#     4  12  27  47  76 107 139 191 237 310 364 440
#     4  12  27  49  76 106 145 183 247 300 376 429
#     4  12  22  46  74 108 138 182 248 296 352 436
#     4  12  25  43  70 104 147 191 238 297 360 430
#     4  11  27  42  64 101 146 192 239 292 356 428
#     4  12  22  44  74 103 139 186 242 294 350 424
#     4  11  22  41  73 101 137 188 238 293 347 427
#
# _framework density 21.945095999999999
#
# number of rings (size 3 to 8) (size 9 to 14) (size 15 to 20)
#    0.000    0.267    5.333    3.600    3.733    1.067 
#    0.000    0.000    0.000    0.000    0.000    0.000 
#    0.000    0.000    0.000    0.000    0.000    0.000 
#
# Total GULP energy -167788.147157 kJ/mol
# GULP energy per Si atom -5592.938239 kJ/mol
# Density = 2.189515 g / cm^3
# Si number density = 21.945096 Si / 1000 Ang^3
#
#
#
# Elastic Constant Matrix: (Units=GPa)
#
#
# Indices 1 2 3 4 5 6 
#
# 1 24.4694 9.9369 22.6893 0.0000 0.0000 0.0000
# 2 9.9369 110.9689 50.9019 0.0000 0.0000 0.0000
# 3 22.6893 50.9019 166.8612 0.0000 0.0000 0.0000
# 4 0.0000 0.0000 0.0000 44.8445 0.0000 0.0000
# 5 0.0000 0.0000 0.0000 0.0000 25.6019 0.0000
# 6 0.0000 0.0000 0.0000 0.0000 0.0000 15.8344
#
#
#
# Elastic Compliance Matrix: (Units=1/GPa)
#
#
# Indices 1 2 3 4 5 6 
#
# 1 0.046973 -0.001484 -0.005934 0.000000 0.000000 0.000000
# 2 -0.001484 0.010525 -0.003009 0.000000 0.000000 0.000000
# 3 -0.005934 -0.003009 0.007718 0.000000 0.000000 0.000000
# 4 0.000000 0.000000 0.000000 0.022299 0.000000 0.000000
# 5 0.000000 0.000000 0.000000 0.000000 0.039060 0.000000
# 6 0.000000 0.000000 0.000000 0.000000 0.000000 0.063154
#
#
# Mechanical properties :
#
#
# Convention : Reuss Voigt Hill
#
# Bulk Modulus (GPa) = 22.54262 52.15063 37.34663
# Shear Modulus (GPa) = 22.18583 31.84093 27.01338
#
# Velocity S-wave (km/s) = 3.18302 3.81325 3.51230
# Velocity P-wave (km/s) = 4.87888 6.57294 5.78822
#
# Compressibility (1/GPa) = 0.04436041
#
# Stress axis : x y z
#
# Youngs Moduli (GPa) = 21.28895 95.01578 129.57061
#
# Poissons Ratio (x) = 0.14101 0.76894
# Poissons Ratio (y) = 0.03159 0.38985
# Poissons Ratio (z) = 0.12634 0.28588
#
# Static dielectric constant tensor:
#      x y z
#    x 1.786300 0.000000 0.000000 
#    y 0.000000 1.833330 0.000000 
#    z 0.000000 0.000000 1.814600 
# 
# From -- ./inp_files/17063.got.cif
#   From: 2010.05.17/outbox.cif.g08.bks.cpg/sg20_9_cif.got.tgz:17063.got - 2010.06.03 22:52:26.
