data_PCOD9321685
_publ_section_title
;
Structure prediction by ZEFSAII (Michael W. Deem and Ramdas Pophale) SiO2 
 PCOD9321685
Probable space group: C 2 2 21
;
_chemical_formula_sum "Si O2"
_cell_formula_units_Z 32
_cell_length_a 31.415381
_cell_length_b 7.910200
_cell_length_c 5.338230
_cell_angle_alpha 90.000000
_cell_angle_beta 90.000000
_cell_angle_gamma 90.000000
_cell_volume 1326.560547
_symmetry_space_group_name_H-M "C 2 2 21"
_symmetry_group_IT_number 20
_symmetry_cell_setting 'orthorhombic'
loop_
_space_group_symop_operation_xyz
x,y,z
-x,-y,1/2+z
x,-y,-z
-x,y,1/2-z
1/2+x,1/2+y,z
1/2-x,1/2-y,1/2+z
1/2+x,1/2-y,-z
1/2-x,1/2+y,1/2-z
loop_
_atom_site_type_symbol
_atom_site_label
_atom_site_fract_x
_atom_site_fract_y
_atom_site_fract_z
Si Si1 0.523731 0.794366 0.503736
Si Si2 0.321488 0.500000 0.000000
Si Si3 0.747084 0.860535 0.737767
Si Si4 0.620882 0.185247 0.372128
Si Si5 0.167717 0.500000 0.000000
O O1 0.500000 0.730655 0.750000
O O2 0.573338 0.759209 0.554038
O O3 0.520709 0.000000 0.500000
O O4 0.500000 0.736174 0.250000
O O5 0.289554 0.529941 0.229794
O O6 0.348784 0.667579 0.967610
O O7 0.750975 0.740672 0.982107
O O8 0.703470 0.965350 0.782882
O O9 0.634395 0.148202 0.080974
O O10 0.625930 0.000000 0.500000
#
# Coordination Sequence:
#
# PCOD9321685 Si02
#       5
#     8   4   8   8   4
#     4   9  20  39  67 100 139 184 232 297 381 448
#     4  11  24  46  72 104 146 202 252 308 382 441
#     4  11  24  46  67 102 151 196 253 306 374 446
#     4  11  24  44  71 105 145 189 254 313 374 459
#     4  11  24  38  70 102 146 194 252 318 366 439
#
# _framework density 24.122534000000002
#
# number of rings (size 3 to 8) (size 9 to 14) (size 15 to 20)
#    0.000    1.500    2.500    1.500    8.750    3.000 
#    4.500    1.250    0.000    0.000    0.000    0.000 
#    0.000    0.000    0.000    0.000    0.000    0.000 
#
# Total GULP energy -89227.370959 kJ/mol
# GULP energy per Si atom -5576.710685 kJ/mol
# Density = 2.406763 g / cm^3
# Si number density = 24.122534 Si / 1000 Ang^3
#
#
#
# Elastic Constant Matrix: (Units=GPa)
#
#
# Indices 1 2 3 4 5 6 
#
# 1 237.6284 62.3587 87.4666 0.0000 0.0000 0.0000
# 2 62.3587 93.6304 54.1782 0.0000 0.0000 0.0000
# 3 87.4666 54.1782 181.7587 0.0000 0.0000 0.0000
# 4 0.0000 0.0000 0.0000 43.9338 0.0000 0.0000
# 5 0.0000 0.0000 0.0000 0.0000 -3.0230 0.0000
# 6 0.0000 0.0000 0.0000 0.0000 0.0000 16.0080
#
#
#
# Elastic Compliance Matrix: (Units=1/GPa)
#
#
# Indices 1 2 3 4 5 6 
#
# 1 0.005601 -0.002623 -0.001913 0.000000 0.000000 0.000000
# 2 -0.002623 0.014135 -0.002951 0.000000 0.000000 0.000000
# 3 -0.001913 -0.002951 0.007302 0.000000 0.000000 0.000000
# 4 0.000000 0.000000 0.000000 0.022762 0.000000 0.000000
# 5 0.000000 0.000000 0.000000 0.000000 -0.330795 0.000000
# 6 0.000000 0.000000 0.000000 0.000000 0.000000 0.062469
#
#
# Mechanical properties :
#
#
# Convention : Reuss Voigt Hill
#
# Bulk Modulus (GPa) = 82.89815 102.33606 92.61711
# Shear Modulus (GPa) = -25.05877 31.98468 3.46296
#
# Velocity S-wave (km/s) = -3.22656 3.64528 1.19945
# Velocity P-wave (km/s) = 4.53422 7.76099 6.35579
#
# Compressibility (1/GPa) = 0.01206299
#
# Stress axis : x y z
#
# Youngs Moduli (GPa) = 178.54311 70.74711 136.94501
#
# Poissons Ratio (x) = 0.18557 0.26203
# Poissons Ratio (y) = 0.46833 0.40412
# Poissons Ratio (z) = 0.34162 0.20877
#
# Static dielectric constant tensor:
#      x y z
#    x 1.941130 0.000000 0.000000 
#    y 0.000000 2.024400 0.000000 
#    z 0.000000 0.000000 2.071210 
# 
# From -- ./inp_files/4493.got.cif
#   From: 2010.05.17/outbox.cif.g08.bks.cpg/sg20_3_cif.got.tgz:4493.got - 2010.06.03 22:52:26.
