data_PCOD9321434
_publ_section_title
;
Structure prediction by ZEFSAII (Michael W. Deem and Ramdas Pophale) SiO2 
 PCOD9321434
Probable space group: C 2 2 21
;
_chemical_formula_sum "Si O2"
_cell_formula_units_Z 48
_cell_length_a 8.107108
_cell_length_b 18.587077
_cell_length_c 14.909716
_cell_angle_alpha 90.000000
_cell_angle_beta 90.000000
_cell_angle_gamma 90.000000
_cell_volume 2246.706945
_symmetry_space_group_name_H-M "C 2 2 21"
_symmetry_group_IT_number 20
_symmetry_cell_setting 'orthorhombic'
loop_
_space_group_symop_operation_xyz
x,y,z
-x,-y,1/2+z
x,-y,-z
-x,y,1/2-z
1/2+x,1/2+y,z
1/2-x,1/2-y,1/2+z
1/2+x,1/2-y,-z
1/2-x,1/2+y,1/2-z
loop_
_atom_site_type_symbol
_atom_site_label
_atom_site_fract_x
_atom_site_fract_y
_atom_site_fract_z
Si Si1 0.632168 0.285803 0.597399
Si Si2 0.105435 0.096824 0.157468
Si Si3 0.554348 0.133258 0.646981
Si Si4 0.271055 0.652035 0.920112
Si Si5 0.681843 0.786454 0.714222
Si Si6 0.921072 0.933743 0.350598
O O1 0.483919 0.342151 0.600237
O O2 0.576379 0.204338 0.586166
O O3 0.746471 0.315305 0.519192
O O4 0.707859 0.283043 0.696591
O O5 0.281743 0.133991 0.175254
O O6 0.000000 0.092569 0.250000
O O7 0.098286 0.016831 0.120406
O O8 0.500000 0.147421 0.750000
O O9 0.384385 0.101460 0.605795
O O10 0.734477 0.097112 0.648727
O O11 0.279083 0.720812 0.852617
O O12 0.444084 0.610117 0.907681
O O13 0.500000 0.777361 0.750000
O O14 0.000000 0.930594 0.250000
#
# Coordination Sequence:
#
# PCOD9321434 Si02
#       6
#     8   8   8   8   8   8
#     4  11  23  42  64  94 135 176 219 274 334 393
#     4   9  21  43  65  89 131 175 213 265 340 396
#     4  12  22  41  68 100 134 166 228 283 324 393
#     4  12  25  40  68  99 135 177 224 279 335 393
#     4  11  22  40  66  99 130 170 229 274 325 404
#     4  11  23  42  68  97 130 179 219 273 343 402
#
# _framework density 21.364601
#
# number of rings (size 3 to 8) (size 9 to 14) (size 15 to 20)
#    0.000    1.000    5.000    2.000    4.667    1.333 
#    3.000    0.000    0.000    0.000    0.000    0.000 
#    0.000    0.000    0.000    0.000    0.000    0.000 
#
# Total GULP energy -133838.297818 kJ/mol
# GULP energy per Si atom -5576.595742 kJ/mol
# Density = 2.131597 g / cm^3
# Si number density = 21.364601 Si / 1000 Ang^3
#
#
#
# Elastic Constant Matrix: (Units=GPa)
#
#
# Indices 1 2 3 4 5 6 
#
# 1 133.7839 52.3210 -7.7979 0.0000 0.0000 0.0000
# 2 52.3210 116.6815 8.6717 0.0000 0.0000 0.0000
# 3 -7.7979 8.6717 15.7905 0.0000 0.0000 0.0000
# 4 0.0000 0.0000 0.0000 -33.5628 0.0000 0.0000
# 5 0.0000 0.0000 0.0000 0.0000 23.8559 0.0000
# 6 0.0000 0.0000 0.0000 0.0000 0.0000 18.0502
#
#
#
# Elastic Compliance Matrix: (Units=1/GPa)
#
#
# Indices 1 2 3 4 5 6 
#
# 1 0.009871 -0.004992 0.007616 0.000000 0.000000 0.000000
# 2 -0.004992 0.011460 -0.008759 0.000000 0.000000 0.000000
# 3 0.007616 -0.008759 0.071901 0.000000 0.000000 0.000000
# 4 0.000000 0.000000 0.000000 -0.029795 0.000000 0.000000
# 5 0.000000 0.000000 0.000000 0.000000 0.041918 0.000000
# 6 0.000000 0.000000 0.000000 0.000000 0.000000 0.055401
#
#
# Mechanical properties :
#
#
# Convention : Reuss Voigt Hill
#
# Bulk Modulus (GPa) = 12.35146 41.40502 26.87824
# Shear Modulus (GPa) = 24.99834 15.87272 20.43553
#
# Velocity S-wave (km/s) = 3.42436 2.72866 3.09611
# Velocity P-wave (km/s) = 4.62912 5.41754 5.03877
#
# Compressibility (1/GPa) = 0.08096206
#
# Stress axis : x y z
#
# Youngs Moduli (GPa) = 101.30578 87.26086 13.90808
#
# Poissons Ratio (x) = 0.43563 -0.10593
# Poissons Ratio (y) = 0.50575 0.12182
# Poissons Ratio (z) = -0.77158 0.76430
#
# Static dielectric constant tensor:
#      x y z
#    x 2.315060 0.000000 0.000000 
#    y 0.000000 1.783690 0.000000 
#    z 0.000000 0.000000 1.810110 
# 
# From -- ./inp_files/18874.got.cif
#   From: 2010.05.17/outbox.cif.g08.bks.cpg/sg20_10_cif.got.tgz:18874.got - 2010.06.03 22:52:26.
