data_PCOD9321919
_publ_section_title
;
Structure prediction by ZEFSAII (Michael W. Deem and Ramdas Pophale) SiO2 
 PCOD9321919
Probable space group: C 2 2 21
;
_chemical_formula_sum "Si O2"
_cell_formula_units_Z 60
_cell_length_a 13.298705
_cell_length_b 29.574647
_cell_length_c 8.416573
_cell_angle_alpha 90.000000
_cell_angle_beta 90.000000
_cell_angle_gamma 90.000000
_cell_volume 3310.276085
_symmetry_space_group_name_H-M "C 2 2 21"
_symmetry_group_IT_number 20
_symmetry_cell_setting 'orthorhombic'
loop_
_space_group_symop_operation_xyz
x,y,z
-x,-y,1/2+z
x,-y,-z
-x,y,1/2-z
1/2+x,1/2+y,z
1/2-x,1/2-y,1/2+z
1/2+x,1/2-y,-z
1/2-x,1/2+y,1/2-z
loop_
_atom_site_type_symbol
_atom_site_label
_atom_site_fract_x
_atom_site_fract_y
_atom_site_fract_z
Si Si1 0.792554 0.231376 0.219606
Si Si2 0.000000 0.085431 0.250000
Si Si3 0.565916 0.455581 0.414469
Si Si4 0.112177 0.672951 0.810486
Si Si5 0.624323 0.350412 0.910217
Si Si6 0.071386 0.283151 0.866203
Si Si7 0.315566 0.374529 0.247931
Si Si8 0.432752 0.302833 0.049904
O O1 0.848044 0.279033 0.240558
O O2 0.817025 0.194658 0.356292
O O3 0.673563 0.236319 0.206952
O O4 0.839810 0.210512 0.060774
O O5 0.006570 0.062481 0.426565
O O6 0.102566 0.114698 0.231029
O O7 0.612658 0.500000 0.500000
O O8 0.500000 0.465284 0.250000
O O9 0.642288 0.417658 0.347578
O O10 0.199604 0.636929 0.783335
O O11 0.000000 0.662526 0.750000
O O12 0.102819 0.684690 0.993891
O O13 0.670450 0.374861 0.062544
O O14 0.513148 0.333404 0.957625
O O15 0.000000 0.310744 0.750000
O O16 0.998276 0.242007 0.916709
O O17 0.386429 0.332633 0.190685
#
# Coordination Sequence:
#
# PCOD9321919 Si02
#       8
#     8   4   8   8   8   8   8   8
#     4  12  23  37  54  80 121 174 223 262 315 358
#     4  12  22  38  64  94 136 164 198 252 310 384
#     4  12  24  43  68 103 132 160 196 253 324 404
#     4  12  25  40  55  82 120 166 225 276 306 359
#     4  12  21  36  60  87 127 171 209 254 307 378
#     4  12  26  37  53  77 116 166 227 269 313 364
#     4  12  25  40  62  89 124 166 211 259 331 387
#     4  12  20  38  54  81 117 165 219 265 308 366
#
# _framework density 18.125375999999999
#
# number of rings (size 3 to 8) (size 9 to 14) (size 15 to 20)
#    0.000    0.000    8.667    2.800    1.867    0.000 
#    0.000    0.000    0.000    0.000    0.000    3.733 
#    0.000    0.000    0.000    0.000    0.000    0.000 
#
# Total GULP energy -167341.164126 kJ/mol
# GULP energy per Si atom -5578.038804 kJ/mol
# Density = 1.808412 g / cm^3
# Si number density = 18.125376 Si / 1000 Ang^3
#
#
#
# Elastic Constant Matrix: (Units=GPa)
#
#
# Indices 1 2 3 4 5 6 
#
# 1 134.6625 33.9095 40.2234 0.0000 0.0000 0.0000
# 2 33.9095 76.2096 33.4716 0.0000 0.0000 0.0000
# 3 40.2234 33.4716 106.8254 0.0000 0.0000 0.0000
# 4 0.0000 0.0000 0.0000 1.2442 0.0000 0.0000
# 5 0.0000 0.0000 0.0000 0.0000 22.1911 0.0000
# 6 0.0000 0.0000 0.0000 0.0000 0.0000 15.0961
#
#
#
# Elastic Compliance Matrix: (Units=1/GPa)
#
#
# Indices 1 2 3 4 5 6 
#
# 1 0.008880 -0.002879 -0.002442 0.000000 0.000000 0.000000
# 2 -0.002879 0.016149 -0.003976 0.000000 0.000000 0.000000
# 3 -0.002442 -0.003976 0.011526 0.000000 0.000000 0.000000
# 4 0.000000 0.000000 0.000000 0.803756 0.000000 0.000000
# 5 0.000000 0.000000 0.000000 0.000000 0.045063 0.000000
# 6 0.000000 0.000000 0.000000 0.000000 0.000000 0.066242
#
#
# Mechanical properties :
#
#
# Convention : Reuss Voigt Hill
#
# Bulk Modulus (GPa) = 55.67186 59.21183 57.44184
# Shear Modulus (GPa) = 5.12191 21.71246 13.41719
#
# Velocity S-wave (km/s) = 1.68284 3.46483 2.72369
# Velocity P-wave (km/s) = 5.87856 6.98180 6.45380
#
# Compressibility (1/GPa) = 0.01796240
#
# Stress axis : x y z
#
# Youngs Moduli (GPa) = 112.60966 61.92363 86.75868
#
# Poissons Ratio (x) = 0.17827 0.21184
# Poissons Ratio (y) = 0.32419 0.34495
# Poissons Ratio (z) = 0.27496 0.24620
#
# Static dielectric constant tensor:
#      x y z
#    x 1.617690 0.000000 0.000000 
#    y 0.000000 1.689840 0.000000 
#    z 0.000000 0.000000 1.752210 
# 
# From -- ./inp_files/7644.got.cif
#   From: 2010.05.17/outbox.cif.g08.bks.cpg/sg20_4_cif.got.tgz:7644.got - 2010.06.03 22:52:26.
