data_PCOD9321472
_publ_section_title
;
Structure prediction by ZEFSAII (Michael W. Deem and Ramdas Pophale) SiO2 
 PCOD9321472
Probable space group: C 2 2 21
;
_chemical_formula_sum "Si O2"
_cell_formula_units_Z 48
_cell_length_a 17.944775
_cell_length_b 9.051744
_cell_length_c 14.974597
_cell_angle_alpha 90.000000
_cell_angle_beta 90.000000
_cell_angle_gamma 90.000000
_cell_volume 2432.346394
_symmetry_space_group_name_H-M "C 2 2 21"
_symmetry_group_IT_number 20
_symmetry_cell_setting 'orthorhombic'
loop_
_space_group_symop_operation_xyz
x,y,z
-x,-y,1/2+z
x,-y,-z
-x,y,1/2-z
1/2+x,1/2+y,z
1/2-x,1/2-y,1/2+z
1/2+x,1/2-y,-z
1/2-x,1/2+y,1/2-z
loop_
_atom_site_type_symbol
_atom_site_label
_atom_site_fract_x
_atom_site_fract_y
_atom_site_fract_z
Si Si1 0.692176 0.275390 0.649892
Si Si2 0.078528 0.675629 0.995753
Si Si3 0.747485 0.170877 0.966405
Si Si4 0.215089 0.090186 0.722818
Si Si5 0.018004 0.169472 0.348865
Si Si6 0.942203 0.148115 0.678164
O O1 0.719259 0.241625 0.549853
O O2 0.717584 0.146391 0.715646
O O3 0.729451 0.421983 0.692746
O O4 0.606397 0.320974 0.643588
O O5 0.070996 0.749296 0.092913
O O6 0.071325 0.500000 0.000000
O O7 0.160860 0.709851 0.957851
O O8 0.019002 0.741138 0.928120
O O9 0.786514 0.179777 0.870756
O O10 0.752632 0.000000 0.000000
O O11 0.137022 0.109547 0.775363
O O12 0.000000 0.229008 0.250000
O O13 0.983295 0.004355 0.351088
O O14 0.000000 0.215715 0.750000
#
# Coordination Sequence:
#
# PCOD9321472 Si02
#       6
#     8   8   8   8   8   8
#     4  11  22  43  66  98 131 173 223 273 337 399
#     4  11  24  44  64  96 137 178 223 280 343 399
#     4   9  21  37  62  88 126 171 210 267 332 389
#     4  11  22  42  66  95 132 171 224 273 332 404
#     4  11  23  42  68  98 135 174 225 280 337 402
#     4  11  23  42  68 100 131 178 225 277 340 406
#
# _framework density 19.734030000000001
#
# number of rings (size 3 to 8) (size 9 to 14) (size 15 to 20)
#    0.000    1.333    5.000    1.500    2.333    2.000 
#    3.000    0.833    0.000    0.000    0.000    0.000 
#    0.000    0.000    0.000    0.000    0.000    0.000 
#
# Total GULP energy -134010.490634 kJ/mol
# GULP energy per Si atom -5583.770443 kJ/mol
# Density = 1.968911 g / cm^3
# Si number density = 19.734030 Si / 1000 Ang^3
#
#
#
# Elastic Constant Matrix: (Units=GPa)
#
#
# Indices 1 2 3 4 5 6 
#
# 1 94.3916 47.1820 51.0930 0.0000 0.0000 0.0000
# 2 47.1820 42.3471 27.9982 0.0000 0.0000 0.0000
# 3 51.0930 27.9982 82.5098 0.0000 0.0000 0.0000
# 4 0.0000 0.0000 0.0000 11.7010 0.0000 0.0000
# 5 0.0000 0.0000 0.0000 0.0000 13.2412 0.0000
# 6 0.0000 0.0000 0.0000 0.0000 0.0000 -29.2118
#
#
#
# Elastic Compliance Matrix: (Units=1/GPa)
#
#
# Indices 1 2 3 4 5 6 
#
# 1 0.028062 -0.025497 -0.008725 0.000000 0.000000 0.000000
# 2 -0.025497 0.053612 -0.002403 0.000000 0.000000 0.000000
# 3 -0.008725 -0.002403 0.018338 0.000000 0.000000 0.000000
# 4 0.000000 0.000000 0.000000 0.085463 0.000000 0.000000
# 5 0.000000 0.000000 0.000000 0.000000 0.075522 0.000000
# 6 0.000000 0.000000 0.000000 0.000000 0.000000 -0.034233
#
#
# Mechanical properties :
#
#
# Convention : Reuss Voigt Hill
#
# Bulk Modulus (GPa) = 37.36825 52.42165 44.89495
# Shear Modulus (GPa) = 16.18472 5.34444 10.76458
#
# Velocity S-wave (km/s) = 2.86692 1.64746 2.33809
# Velocity P-wave (km/s) = 5.47138 5.49914 5.48528
#
# Compressibility (1/GPa) = 0.02676069
#
# Stress axis : x y z
#
# Youngs Moduli (GPa) = 35.63596 18.65270 54.53154
#
# Poissons Ratio (x) = 0.47559 0.47577
# Poissons Ratio (y) = 0.90861 0.13106
# Poissons Ratio (z) = 0.31092 0.04483
#
# Static dielectric constant tensor:
#      x y z
#    x 1.718690 0.000000 0.000000 
#    y 0.000000 1.699850 0.000000 
#    z 0.000000 0.000000 1.702170 
# 
# From -- ./inp_files/18907.got.cif
#   From: 2010.05.17/outbox.cif.g08.bks.cpg/sg20_10_cif.got.tgz:18907.got - 2010.06.03 22:52:26.
