data_PCOD9321893
_publ_section_title
;
Structure prediction by ZEFSAII (Michael W. Deem and Ramdas Pophale) SiO2 
 PCOD9321893
Probable space group: C 2 2 21
;
_chemical_formula_sum "Si O2"
_cell_formula_units_Z 24
_cell_length_a 5.083765
_cell_length_b 14.069887
_cell_length_c 13.060866
_cell_angle_alpha 90.000000
_cell_angle_beta 90.000000
_cell_angle_gamma 90.000000
_cell_volume 934.217611
_symmetry_space_group_name_H-M "C 2 2 21"
_symmetry_group_IT_number 20
_symmetry_cell_setting 'orthorhombic'
loop_
_space_group_symop_operation_xyz
x,y,z
-x,-y,1/2+z
x,-y,-z
-x,y,1/2-z
1/2+x,1/2+y,z
1/2-x,1/2-y,1/2+z
1/2+x,1/2-y,-z
1/2-x,1/2+y,1/2-z
loop_
_atom_site_type_symbol
_atom_site_label
_atom_site_fract_x
_atom_site_fract_y
_atom_site_fract_z
Si Si1 0.434517 0.659827 0.136027
Si Si2 0.548628 0.151816 0.977077
Si Si3 0.545484 0.559697 0.868229
O O1 0.500000 0.693569 0.250000
O O2 0.553607 0.739736 0.061965
O O3 0.554080 0.554532 0.129370
O O4 0.129347 0.651892 0.097702
O O5 0.299713 0.102640 0.923553
O O6 0.792862 0.095589 0.928638
O O7 0.500000 0.588515 0.750000
#
# Coordination Sequence:
#
# PCOD9321893 Si02
#       3
#     8   8   8
#     4  11  27  49  77 114 156 206 260 318 388 462
#     4  12  26  48  77 110 154 204 260 322 383 456
#     4  11  26  49  77 110 151 200 257 320 387 460
#
# _framework density 25.689947
#
# number of rings (size 3 to 8) (size 9 to 14) (size 15 to 20)
#    0.000    0.667    0.000    6.000    0.000   13.333 
#    0.000   18.333    0.000    0.000    0.000    0.000 
#    0.000    0.000    0.000    0.000    0.000    0.000 
#
# Total GULP energy -67254.419751 kJ/mol
# GULP energy per Si atom -5604.534979 kJ/mol
# Density = 2.563148 g / cm^3
# Si number density = 25.689947 Si / 1000 Ang^3
#
#
#
# Elastic Constant Matrix: (Units=GPa)
#
#
# Indices 1 2 3 4 5 6 
#
# 1 188.7970 25.4610 87.2535 0.0000 0.0000 0.0000
# 2 25.4610 122.9208 30.3605 0.0000 0.0000 0.0000
# 3 87.2535 30.3605 188.9481 0.0000 0.0000 0.0000
# 4 0.0000 0.0000 0.0000 44.4510 0.0000 0.0000
# 5 0.0000 0.0000 0.0000 0.0000 43.6888 0.0000
# 6 0.0000 0.0000 0.0000 0.0000 0.0000 34.8737
#
#
#
# Elastic Compliance Matrix: (Units=1/GPa)
#
#
# Indices 1 2 3 4 5 6 
#
# 1 0.006784 -0.000658 -0.003027 0.000000 0.000000 0.000000
# 2 -0.000658 0.008535 -0.001068 0.000000 0.000000 0.000000
# 3 -0.003027 -0.001068 0.006862 0.000000 0.000000 0.000000
# 4 0.000000 0.000000 0.000000 0.022497 0.000000 0.000000
# 5 0.000000 0.000000 0.000000 0.000000 0.022889 0.000000
# 6 0.000000 0.000000 0.000000 0.000000 0.000000 0.028675
#
#
# Mechanical properties :
#
#
# Convention : Reuss Voigt Hill
#
# Bulk Modulus (GPa) = 78.88693 87.42397 83.15545
# Shear Modulus (GPa) = 45.46560 48.44211 46.95386
#
# Velocity S-wave (km/s) = 4.21144 4.34711 4.27981
# Velocity P-wave (km/s) = 7.37715 7.70070 7.54066
#
# Compressibility (1/GPa) = 0.01267637
#
# Stress axis : x y z
#
# Youngs Moduli (GPa) = 147.39579 117.16101 145.73016
#
# Poissons Ratio (x) = 0.07704 0.44117
# Poissons Ratio (y) = 0.09692 0.15561
# Poissons Ratio (z) = 0.44621 0.12511
#
# Static dielectric constant tensor:
#      x y z
#    x 2.150370 0.000000 0.000000 
#    y 0.000000 1.994200 0.000000 
#    z 0.000000 0.000000 2.105250 
# 
# From -- ./inp_files/17338.got.cif
#   From: 2010.05.17/outbox.cif.g08.bks.cpg/sg20_9_cif.got.tgz:17338.got - 2010.06.03 22:52:26.
