data_PCOD9321013
_publ_section_title
;
Structure prediction by ZEFSAII (Michael W. Deem and Ramdas Pophale) SiO2 
 PCOD9321013
Probable space group: C 2 2 21
;
_chemical_formula_sum "Si O2"
_cell_formula_units_Z 64
_cell_length_a 24.646897
_cell_length_b 14.994196
_cell_length_c 8.254061
_cell_angle_alpha 90.000000
_cell_angle_beta 90.000000
_cell_angle_gamma 90.000000
_cell_volume 3050.374121
_symmetry_space_group_name_H-M "C 2 2 21"
_symmetry_group_IT_number 20
_symmetry_cell_setting 'orthorhombic'
loop_
_space_group_symop_operation_xyz
x,y,z
-x,-y,1/2+z
x,-y,-z
-x,y,1/2-z
1/2+x,1/2+y,z
1/2-x,1/2-y,1/2+z
1/2+x,1/2-y,-z
1/2-x,1/2+y,1/2-z
loop_
_atom_site_type_symbol
_atom_site_label
_atom_site_fract_x
_atom_site_fract_y
_atom_site_fract_z
Si Si1 0.287263 0.331290 0.166712
Si Si2 0.377420 0.901287 0.058781
Si Si3 0.186553 0.452625 0.158378
Si Si4 0.044622 0.084477 0.617609
Si Si5 0.839192 0.855167 0.809288
Si Si6 0.948848 0.758329 0.869150
Si Si7 0.139821 0.958515 0.176309
Si Si8 0.275231 0.866318 0.832900
O O1 0.228489 0.372727 0.127335
O O2 0.307531 0.398131 0.306667
O O3 0.292175 0.231284 0.233453
O O4 0.317584 0.335824 0.991543
O O5 0.363091 0.912539 0.245313
O O6 0.424217 0.828716 0.042099
O O7 0.318085 0.875818 0.981925
O O8 0.392285 0.000000 0.000000
O O9 0.215291 0.537680 0.248008
O O10 0.165893 0.500000 0.000000
O O11 0.034191 0.168729 0.503364
O O12 0.095303 0.101754 0.735809
O O13 0.000000 0.061744 0.750000
O O14 0.050258 0.000000 0.500000
O O15 0.894454 0.799853 0.782756
O O16 0.789961 0.849967 0.679010
O O17 0.854395 0.958288 0.796331
O O18 0.000000 0.743244 0.750000
O O19 0.128575 0.000000 0.000000
#
# Coordination Sequence:
#
# PCOD9321013 Si02
#       8
#     8   8   8   8   8   8   8   8
#     4  12  22  41  62  96 150 187 220 296 345 421
#     4  10  24  47  72 101 139 182 232 306 363 415
#     4  11  22  40  64 102 142 181 227 283 354 433
#     4  12  24  44  67  95 135 183 234 293 343 406
#     4  12  23  42  66  99 141 192 228 290 361 420
#     4  12  26  49  73 101 140 192 247 295 350 428
#     4  12  25  38  64  98 140 184 235 280 355 424
#     4  11  23  39  68  99 137 188 235 282 368 422
#
# _framework density 20.981031999999999
#
# number of rings (size 3 to 8) (size 9 to 14) (size 15 to 20)
#    0.000    0.500    6.250    1.875    3.500    0.000 
#    2.250    3.750    0.000    0.000    0.000    0.000 
#    0.000    0.000    0.000    0.000    0.000    0.000 
#
# Total GULP energy -178238.684886 kJ/mol
# GULP energy per Si atom -5569.958903 kJ/mol
# Density = 2.093328 g / cm^3
# Si number density = 20.981032 Si / 1000 Ang^3
#
#
#
# Elastic Constant Matrix: (Units=GPa)
#
#
# Indices 1 2 3 4 5 6 
#
# 1 69.1755 10.1630 41.4319 0.0000 0.0000 0.0000
# 2 10.1630 112.7662 19.1353 0.0000 0.0000 0.0000
# 3 41.4319 19.1353 88.2980 0.0000 0.0000 0.0000
# 4 0.0000 0.0000 0.0000 14.2421 0.0000 0.0000
# 5 0.0000 0.0000 0.0000 0.0000 14.9998 0.0000
# 6 0.0000 0.0000 0.0000 0.0000 0.0000 16.5905
#
#
#
# Elastic Compliance Matrix: (Units=1/GPa)
#
#
# Indices 1 2 3 4 5 6 
#
# 1 0.020112 -0.000219 -0.009390 0.000000 0.000000 0.000000
# 2 -0.000219 0.009209 -0.001893 0.000000 0.000000 0.000000
# 3 -0.009390 -0.001893 0.016141 0.000000 0.000000 0.000000
# 4 0.000000 0.000000 0.000000 0.070214 0.000000 0.000000
# 5 0.000000 0.000000 0.000000 0.000000 0.066667 0.000000
# 6 0.000000 0.000000 0.000000 0.000000 0.000000 0.060275
#
#
# Mechanical properties :
#
#
# Convention : Reuss Voigt Hill
#
# Bulk Modulus (GPa) = 44.52581 45.74447 45.13514
# Shear Modulus (GPa) = 18.30771 22.46713 20.38742
#
# Velocity S-wave (km/s) = 2.95716 3.27590 3.12060
# Velocity P-wave (km/s) = 5.73827 6.01322 5.87735
#
# Compressibility (1/GPa) = 0.02245888
#
# Stress axis : x y z
#
# Youngs Moduli (GPa) = 49.72161 108.59116 61.95273
#
# Poissons Ratio (x) = 0.02381 0.58171
# Poissons Ratio (y) = 0.01090 0.11726
# Poissons Ratio (z) = 0.46687 0.20554
#
# Static dielectric constant tensor:
#      x y z
#    x 1.892730 0.000000 0.000000 
#    y 0.000000 2.115810 0.000000 
#    z 0.000000 0.000000 1.788620 
# 
# From -- ./inp_files/10802.got.cif
#   From: 2010.05.17/outbox.cif.g08.bks.cpg/sg20_6_cif.got.tgz:10802.got - 2010.06.03 22:52:26.
