data_PCOD9321952
_publ_section_title
;
Structure prediction by ZEFSAII (Michael W. Deem and Ramdas Pophale) SiO2 
 PCOD9321952
Probable space group: C 2 2 21
;
_chemical_formula_sum "Si O2"
_cell_formula_units_Z 40
_cell_length_a 16.746019
_cell_length_b 16.999543
_cell_length_c 5.557003
_cell_angle_alpha 90.000000
_cell_angle_beta 90.000000
_cell_angle_gamma 90.000000
_cell_volume 1581.937996
_symmetry_space_group_name_H-M "C 2 2 21"
_symmetry_group_IT_number 20
_symmetry_cell_setting 'orthorhombic'
loop_
_space_group_symop_operation_xyz
x,y,z
-x,-y,1/2+z
x,-y,-z
-x,y,1/2-z
1/2+x,1/2+y,z
1/2-x,1/2-y,1/2+z
1/2+x,1/2-y,-z
1/2-x,1/2+y,1/2-z
loop_
_atom_site_type_symbol
_atom_site_label
_atom_site_fract_x
_atom_site_fract_y
_atom_site_fract_z
Si Si1 0.562634 0.806549 0.419943
Si Si2 0.694257 0.818770 0.039358
Si Si3 0.635970 0.320835 0.236076
Si Si4 0.500000 0.937600 0.750000
Si Si5 0.000000 0.049572 0.750000
Si Si6 0.323212 0.033582 0.251828
O O1 0.500000 0.762312 0.250000
O O2 0.636971 0.838081 0.263946
O O3 0.586716 0.745070 0.621125
O O4 0.512580 0.878116 0.529615
O O5 0.784881 0.835121 0.108025
O O6 0.672645 0.727596 0.989566
O O7 0.678428 0.872915 0.804930
O O8 0.578154 0.394867 0.205328
O O9 0.582067 0.984459 0.756836
O O10 0.011208 0.000000 0.500000
O O11 0.287263 0.000000 0.500000
O O12 0.290414 0.000000 0.000000
#
# Coordination Sequence:
#
# PCOD9321952 Si02
#       6
#     8   8   8   4   4   8
#     4  12  22  43  79 114 154 203 272 347 416 491
#     4  12  26  46  83 124 156 218 284 360 429 497
#     4  12  27  52  84 118 159 215 290 370 421 506
#     4  12  23  40  66 105 150 206 254 308 387 488
#     4  12  33  60  88 123 172 240 296 356 447 530
#     4  12  27  45  69 109 166 213 256 314 411 504
#
# _framework density 25.285439
#
# number of rings (size 3 to 8) (size 9 to 14) (size 15 to 20)
#    0.000    0.000    6.000    3.600    4.200    0.800 
#    0.000    4.000    0.000    0.000    0.000    0.000 
#    0.000    0.000    0.000    0.000    0.000    0.000 
#
# Total GULP energy -111924.191972 kJ/mol
# GULP energy per Si atom -5596.209599 kJ/mol
# Density = 2.522789 g / cm^3
# Si number density = 25.285439 Si / 1000 Ang^3
#
#
#
# Elastic Constant Matrix: (Units=GPa)
#
#
# Indices 1 2 3 4 5 6 
#
# 1 124.1821 43.3937 27.9004 0.0000 0.0000 0.0000
# 2 43.3937 131.3067 59.7856 0.0000 0.0000 0.0000
# 3 27.9004 59.7856 149.6353 0.0000 0.0000 0.0000
# 4 0.0000 0.0000 0.0000 50.2736 0.0000 0.0000
# 5 0.0000 0.0000 0.0000 0.0000 38.7554 0.0000
# 6 0.0000 0.0000 0.0000 0.0000 0.0000 15.1513
#
#
#
# Elastic Compliance Matrix: (Units=1/GPa)
#
#
# Indices 1 2 3 4 5 6 
#
# 1 0.009149 -0.002746 -0.000609 0.000000 0.000000 0.000000
# 2 -0.002746 0.010134 -0.003537 0.000000 0.000000 0.000000
# 3 -0.000609 -0.003537 0.008209 0.000000 0.000000 0.000000
# 4 0.000000 0.000000 0.000000 0.019891 0.000000 0.000000
# 5 0.000000 0.000000 0.000000 0.000000 0.025803 0.000000
# 6 0.000000 0.000000 0.000000 0.000000 0.000000 0.066001
#
#
# Mechanical properties :
#
#
# Convention : Reuss Voigt Hill
#
# Bulk Modulus (GPa) = 72.94628 74.14262 73.54445
# Shear Modulus (GPa) = 31.73784 39.10568 35.42176
#
# Velocity S-wave (km/s) = 3.54670 3.93691 3.74689
# Velocity P-wave (km/s) = 6.75898 7.07472 6.91865
#
# Compressibility (1/GPa) = 0.01370872
#
# Stress axis : x y z
#
# Youngs Moduli (GPa) = 109.29991 98.68036 121.81057
#
# Poissons Ratio (x) = 0.27102 0.07413
# Poissons Ratio (y) = 0.30019 0.43081
# Poissons Ratio (z) = 0.06652 0.34901
#
# Static dielectric constant tensor:
#      x y z
#    x 2.003490 0.000000 0.000000 
#    y 0.000000 2.065030 0.000000 
#    z 0.000000 0.000000 2.194780 
# 
# From -- ./inp_files/2525.got.cif
#   From: 2010.05.17/outbox.cif.g08.bks.cpg/sg20_2_cif.got.tgz:2525.got - 2010.06.03 22:52:26.
