data_PCOD9321213
_publ_section_title
;
Structure prediction by ZEFSAII (Michael W. Deem and Ramdas Pophale) SiO2 
 PCOD9321213
Probable space group: C 2 2 21
;
_chemical_formula_sum "Si O2"
_cell_formula_units_Z 36
_cell_length_a 5.065507
_cell_length_b 13.389372
_cell_length_c 20.878242
_cell_angle_alpha 90.000000
_cell_angle_beta 90.000000
_cell_angle_gamma 90.000000
_cell_volume 1416.045000
_symmetry_space_group_name_H-M "C 2 2 21"
_symmetry_group_IT_number 20
_symmetry_cell_setting 'orthorhombic'
loop_
_space_group_symop_operation_xyz
x,y,z
-x,-y,1/2+z
x,-y,-z
-x,y,1/2-z
1/2+x,1/2+y,z
1/2-x,1/2-y,1/2+z
1/2+x,1/2-y,-z
1/2-x,1/2+y,1/2-z
loop_
_atom_site_type_symbol
_atom_site_label
_atom_site_fract_x
_atom_site_fract_y
_atom_site_fract_z
Si Si1 0.249377 0.393660 0.127617
Si Si2 0.226798 0.312042 0.425624
Si Si3 0.000000 0.830800 0.750000
Si Si4 0.201938 0.500000 0.500000
Si Si5 0.000000 0.189268 0.750000
Si Si6 0.932138 0.905297 0.891840
O O1 0.461692 0.335289 0.081627
O O2 0.404709 0.380858 0.193267
O O3 0.209406 0.509754 0.112610
O O4 0.965516 0.343805 0.132666
O O5 0.100141 0.390324 0.476834
O O6 0.166777 0.194883 0.426700
O O7 0.259113 0.764723 0.739147
O O8 0.032573 0.885723 0.819313
O O9 0.365666 0.537556 0.438148
#
# Coordination Sequence:
#
# PCOD9321213 Si02
#       6
#     8   8   4   4   4   8
#     4  11  24  43  73 105 144 188 245 303 372 444
#     4  11  25  47  71 105 146 192 249 302 367 450
#     4  12  25  44  79 106 148 198 251 316 391 440
#     4  10  28  46  76 110 156 202 254 308 386 452
#     4  12  21  46  71 108 148 190 243 316 381 452
#     4  11  25  49  74 111 148 202 249 316 378 454
#
# _framework density 25.422920000000001
#
# number of rings (size 3 to 8) (size 9 to 14) (size 15 to 20)
#    0.000    0.889    4.444    0.667    0.000   16.000 
#    0.000    2.222    0.000    0.000    0.000    0.000 
#    0.000    0.000    0.000    0.000    0.000    0.000 
#
# Total GULP energy -100369.059736 kJ/mol
# GULP energy per Si atom -5576.058874 kJ/mol
# Density = 2.536506 g / cm^3
# Si number density = 25.422920 Si / 1000 Ang^3
#
#
#
# Elastic Constant Matrix: (Units=GPa)
#
#
# Indices 1 2 3 4 5 6 
#
# 1 109.6074 41.9829 34.8366 0.0000 0.0000 0.0000
# 2 41.9829 179.9395 41.8251 0.0000 0.0000 0.0000
# 3 34.8366 41.8251 112.3467 0.0000 0.0000 0.0000
# 4 0.0000 0.0000 0.0000 55.6812 0.0000 0.0000
# 5 0.0000 0.0000 0.0000 0.0000 25.5655 0.0000
# 6 0.0000 0.0000 0.0000 0.0000 0.0000 21.4987
#
#
#
# Elastic Compliance Matrix: (Units=1/GPa)
#
#
# Indices 1 2 3 4 5 6 
#
# 1 0.010674 -0.001884 -0.002608 0.000000 0.000000 0.000000
# 2 -0.001884 0.006416 -0.001805 0.000000 0.000000 0.000000
# 3 -0.002608 -0.001805 0.010382 0.000000 0.000000 0.000000
# 4 0.000000 0.000000 0.000000 0.017959 0.000000 0.000000
# 5 0.000000 0.000000 0.000000 0.000000 0.039115 0.000000
# 6 0.000000 0.000000 0.000000 0.000000 0.000000 0.046514
#
#
# Mechanical properties :
#
#
# Convention : Reuss Voigt Hill
#
# Bulk Modulus (GPa) = 67.21288 71.02030 69.11659
# Shear Modulus (GPa) = 33.64399 39.43234 36.53817
#
# Velocity S-wave (km/s) = 3.64177 3.94262 3.79517
# Velocity P-wave (km/s) = 6.64670 6.98010 6.81544
#
# Compressibility (1/GPa) = 0.01487810
#
# Stress axis : x y z
#
# Youngs Moduli (GPa) = 93.68384 155.84888 96.32391
#
# Poissons Ratio (x) = 0.29365 0.25125
# Poissons Ratio (y) = 0.17652 0.17382
# Poissons Ratio (z) = 0.24437 0.28123
#
# Static dielectric constant tensor:
#      x y z
#    x 2.028880 0.000000 0.000000 
#    y 0.000000 2.039000 0.000000 
#    z 0.000000 0.000000 2.191790 
# 
# From -- ./inp_files/28217.got.cif
#   From: 2010.05.17/outbox.cif.g08.bks.cpg/sg20_15_cif.got.tgz:28217.got - 2010.06.03 22:52:26.
