data_PCOD9321945
_publ_section_title
;
Structure prediction by ZEFSAII (Michael W. Deem and Ramdas Pophale) SiO2 
 PCOD9321945
Probable space group: C 2 2 21
;
_chemical_formula_sum "Si O2"
_cell_formula_units_Z 60
_cell_length_a 26.650457
_cell_length_b 21.197062
_cell_length_c 5.251978
_cell_angle_alpha 90.000000
_cell_angle_beta 90.000000
_cell_angle_gamma 90.000000
_cell_volume 2966.902189
_symmetry_space_group_name_H-M "C 2 2 21"
_symmetry_group_IT_number 20
_symmetry_cell_setting 'orthorhombic'
loop_
_space_group_symop_operation_xyz
x,y,z
-x,-y,1/2+z
x,-y,-z
-x,y,1/2-z
1/2+x,1/2+y,z
1/2-x,1/2-y,1/2+z
1/2+x,1/2-y,-z
1/2-x,1/2+y,1/2-z
loop_
_atom_site_type_symbol
_atom_site_label
_atom_site_fract_x
_atom_site_fract_y
_atom_site_fract_z
Si Si1 0.644273 0.863312 0.066320
Si Si2 0.500000 0.697099 0.250000
Si Si3 0.317814 0.072865 0.075908
Si Si4 0.057515 0.162067 0.644416
Si Si5 0.717305 0.745889 0.964661
Si Si6 0.144533 0.932557 0.395631
Si Si7 0.299659 0.394279 0.585287
Si Si8 0.949855 0.707539 0.362697
O O1 0.653841 0.888187 0.351714
O O2 0.680417 0.803547 0.018273
O O3 0.658769 0.914508 0.852676
O O4 0.589319 0.838340 0.991286
O O5 0.545281 0.654849 0.347110
O O6 0.473268 0.745163 0.435315
O O7 0.260060 0.094947 0.094540
O O8 0.319344 0.000000 0.000000
O O9 0.099898 0.112618 0.702118
O O10 0.072494 0.236485 0.679031
O O11 0.000000 0.151343 0.750000
O O12 0.760553 0.750368 0.180407
O O13 0.691638 0.678370 0.005537
O O14 0.175241 0.905321 0.639071
O O15 0.126309 0.000000 0.500000
O O16 0.180044 0.936617 0.148264
O O17 0.000000 0.675209 0.250000
#
# Coordination Sequence:
#
# PCOD9321945 Si02
#       8
#     8   4   8   8   8   8   8   8
#     4  12  24  41  70 100 128 170 215 267 326 384
#     4   8  18  38  62  92 126 164 198 266 340 390
#     4  12  26  45  65  93 133 179 218 258 309 393
#     4   9  21  40  62  93 128 168 215 274 337 377
#     4  12  22  41  62 100 131 160 210 276 332 379
#     4  12  26  42  63  94 126 185 231 260 315 379
#     4  12  25  45  65  91 136 171 218 273 320 385
#     4   9  21  39  66 100 128 161 211 267 343 394
#
# _framework density 20.223115
#
# number of rings (size 3 to 8) (size 9 to 14) (size 15 to 20)
#    0.000    1.333    2.667    4.000    9.333    0.000 
#    1.200    0.000    0.000    1.600    0.000    0.000 
#    0.000    0.000    0.000    0.000    0.000    0.000 
#
# Total GULP energy -167194.153400 kJ/mol
# GULP energy per Si atom -5573.138447 kJ/mol
# Density = 2.017709 g / cm^3
# Si number density = 20.223115 Si / 1000 Ang^3
#
#
#
# Elastic Constant Matrix: (Units=GPa)
#
#
# Indices 1 2 3 4 5 6 
#
# 1 86.5695 11.0176 14.7289 0.0000 0.0000 0.0000
# 2 11.0176 75.0716 -3.9586 0.0000 0.0000 0.0000
# 3 14.7289 -3.9586 69.3921 0.0000 0.0000 0.0000
# 4 0.0000 0.0000 0.0000 30.5607 0.0000 0.0000
# 5 0.0000 0.0000 0.0000 0.0000 23.8573 0.0000
# 6 0.0000 0.0000 0.0000 0.0000 0.0000 13.3304
#
#
#
# Elastic Compliance Matrix: (Units=1/GPa)
#
#
# Indices 1 2 3 4 5 6 
#
# 1 0.012260 -0.001942 -0.002713 0.000000 0.000000 0.000000
# 2 -0.001942 0.013669 0.001192 0.000000 0.000000 0.000000
# 3 -0.002713 0.001192 0.015055 0.000000 0.000000 0.000000
# 4 0.000000 0.000000 0.000000 0.032722 0.000000 0.000000
# 5 0.000000 0.000000 0.000000 0.000000 0.041916 0.000000
# 6 0.000000 0.000000 0.000000 0.000000 0.000000 0.075017
#
#
# Mechanical properties :
#
#
# Convention : Reuss Voigt Hill
#
# Bulk Modulus (GPa) = 29.36290 30.51209 29.93750
# Shear Modulus (GPa) = 23.93295 27.49936 25.71615
#
# Velocity S-wave (km/s) = 3.44386 3.69154 3.56985
# Velocity P-wave (km/s) = 5.51040 5.76979 5.64159
#
# Compressibility (1/GPa) = 0.03405658
#
# Stress axis : x y z
#
# Youngs Moduli (GPa) = 81.56455 73.16064 66.42427
#
# Poissons Ratio (x) = 0.14211 0.18022
# Poissons Ratio (y) = 0.15843 -0.07918
# Poissons Ratio (z) = 0.22129 -0.08721
#
# Static dielectric constant tensor:
#      x y z
#    x 1.759230 0.000000 0.000000 
#    y 0.000000 1.715480 0.000000 
#    z 0.000000 0.000000 2.117110 
# 
# From -- ./inp_files/3816.got.cif
#   From: 2010.05.17/outbox.cif.g08.bks.cpg/sg20_2_cif.got.tgz:3816.got - 2010.06.03 22:52:26.
