data_PCOD9321339
_publ_section_title
;
Structure prediction by ZEFSAII (Michael W. Deem and Ramdas Pophale) SiO2 
 PCOD9321339
Probable space group: C 2 2 21
;
_chemical_formula_sum "Si O2"
_cell_formula_units_Z 48
_cell_length_a 21.073643
_cell_length_b 9.472009
_cell_length_c 10.615488
_cell_angle_alpha 90.000000
_cell_angle_beta 90.000000
_cell_angle_gamma 90.000000
_cell_volume 2118.954759
_symmetry_space_group_name_H-M "C 2 2 21"
_symmetry_group_IT_number 20
_symmetry_cell_setting 'orthorhombic'
loop_
_space_group_symop_operation_xyz
x,y,z
-x,-y,1/2+z
x,-y,-z
-x,y,1/2-z
1/2+x,1/2+y,z
1/2-x,1/2-y,1/2+z
1/2+x,1/2-y,-z
1/2-x,1/2+y,1/2-z
loop_
_atom_site_type_symbol
_atom_site_label
_atom_site_fract_x
_atom_site_fract_y
_atom_site_fract_z
Si Si1 0.500000 0.434003 0.250000
Si Si2 0.675477 0.704859 0.034189
Si Si3 0.118597 0.744196 0.304449
Si Si4 0.160590 0.472871 0.190911
Si Si5 0.694656 0.473752 0.710819
Si Si6 0.320609 0.214793 0.937511
Si Si7 0.932745 0.000000 0.500000
O O1 0.554390 0.332076 0.303976
O O2 0.472344 0.519279 0.370629
O O3 0.654143 0.859304 0.080114
O O4 0.685633 0.607961 0.158492
O O5 0.744783 0.702764 0.968145
O O6 0.614699 0.630399 0.972145
O O7 0.118845 0.612352 0.209176
O O8 0.139607 0.681295 0.438799
O O9 0.171712 0.865938 0.283186
O O10 0.231866 0.528128 0.179190
O O11 0.161387 0.383122 0.320530
O O12 0.663319 0.374957 0.605098
#
# Coordination Sequence:
#
# PCOD9321339 Si02
#       7
#     4   8   8   8   8   8   4
#     4  12  32  50  76 102 150 214 262 304 352 462
#     4  11  23  41  72 107 143 186 241 318 377 447
#     4  12  24  45  66 102 143 191 251 303 372 448
#     4  11  23  40  64 110 147 180 233 316 398 436
#     4  11  21  39  65 106 150 182 238 304 385 459
#     4  11  23  38  70 106 144 186 235 314 393 450
#     4  12  28  52  78 106 148 204 268 308 368 454
#
# _framework density 22.652678999999999
#
# number of rings (size 3 to 8) (size 9 to 14) (size 15 to 20)
#    0.000    0.667    5.000    3.000    4.667    0.000 
#    0.000    4.167    0.000    0.000    0.000    0.000 
#    0.000    0.000    0.000    0.000    0.000    0.000 
#
# Total GULP energy -134245.257740 kJ/mol
# GULP energy per Si atom -5593.552406 kJ/mol
# Density = 2.260112 g / cm^3
# Si number density = 22.652679 Si / 1000 Ang^3
#
#
#
# Elastic Constant Matrix: (Units=GPa)
#
#
# Indices 1 2 3 4 5 6 
#
# 1 58.0018 -10.6511 19.2847 0.0000 0.0000 0.0000
# 2 -10.6511 110.6485 23.4631 0.0000 0.0000 0.0000
# 3 19.2847 23.4631 107.2533 0.0000 0.0000 0.0000
# 4 0.0000 0.0000 0.0000 32.3391 0.0000 0.0000
# 5 0.0000 0.0000 0.0000 0.0000 27.0403 0.0000
# 6 0.0000 0.0000 0.0000 0.0000 0.0000 69.9928
#
#
#
# Elastic Compliance Matrix: (Units=1/GPa)
#
#
# Indices 1 2 3 4 5 6 
#
# 1 0.019070 0.002687 -0.004017 0.000000 0.000000 0.000000
# 2 0.002687 0.009856 -0.002639 0.000000 0.000000 0.000000
# 3 -0.004017 -0.002639 0.010623 0.000000 0.000000 0.000000
# 4 0.000000 0.000000 0.000000 0.030922 0.000000 0.000000
# 5 0.000000 0.000000 0.000000 0.000000 0.036982 0.000000
# 6 0.000000 0.000000 0.000000 0.000000 0.000000 0.014287
#
#
# Mechanical properties :
#
#
# Convention : Reuss Voigt Hill
#
# Bulk Modulus (GPa) = 31.63372 37.78857 34.71114
# Shear Modulus (GPa) = 35.65945 42.12822 38.89383
#
# Velocity S-wave (km/s) = 3.97190 4.31715 4.14812
# Velocity P-wave (km/s) = 5.91859 6.44735 6.18862
#
# Compressibility (1/GPa) = 0.03161184
#
# Stress axis : x y z
#
# Youngs Moduli (GPa) = 52.43872 101.46101 94.13218
#
# Poissons Ratio (x) = -0.27267 0.37811
# Poissons Ratio (y) = -0.14093 0.24845
# Poissons Ratio (z) = 0.21064 0.26779
#
# Static dielectric constant tensor:
#      x y z
#    x 1.818210 0.000000 0.000000 
#    y 0.000000 1.861770 0.000000 
#    z 0.000000 0.000000 1.652540 
# 
# From -- ./inp_files/16666.got.cif
#   From: 2010.05.17/outbox.cif.g08.bks.cpg/sg20_9_cif.got.tgz:16666.got - 2010.06.03 22:52:26.
