data_PCOD9321728
_publ_section_title
;
Structure prediction by ZEFSAII (Michael W. Deem and Ramdas Pophale) SiO2 
 PCOD9321728
Probable space group: C 2 2 21
;
_chemical_formula_sum "Si O2"
_cell_formula_units_Z 40
_cell_length_a 14.218326
_cell_length_b 11.975840
_cell_length_c 11.394673
_cell_angle_alpha 90.000000
_cell_angle_beta 90.000000
_cell_angle_gamma 90.000000
_cell_volume 1940.243866
_symmetry_space_group_name_H-M "C 2 2 21"
_symmetry_group_IT_number 20
_symmetry_cell_setting 'orthorhombic'
loop_
_space_group_symop_operation_xyz
x,y,z
-x,-y,1/2+z
x,-y,-z
-x,y,1/2-z
1/2+x,1/2+y,z
1/2-x,1/2-y,1/2+z
1/2+x,1/2-y,-z
1/2-x,1/2+y,1/2-z
loop_
_atom_site_type_symbol
_atom_site_label
_atom_site_fract_x
_atom_site_fract_y
_atom_site_fract_z
Si Si1 0.343624 0.834098 0.469327
Si Si2 0.737756 0.107562 0.418516
Si Si3 0.748805 0.485722 0.660037
Si Si4 0.535529 0.450116 0.376277
Si Si5 0.024893 0.684775 0.383122
O O1 0.308421 0.708564 0.449211
O O2 0.279275 0.889144 0.570636
O O3 0.448009 0.848874 0.519949
O O4 0.321707 0.911923 0.357193
O O5 0.754248 0.065154 0.287606
O O6 0.629799 0.150886 0.420146
O O7 0.749566 0.000000 0.500000
O O8 0.646874 0.531490 0.628108
O O9 0.499037 0.500000 0.500000
O O10 0.500000 0.496127 0.250000
O O11 0.516787 0.318649 0.377995
O O12 0.000000 0.643657 0.250000
#
# Coordination Sequence:
#
# PCOD9321728 Si02
#       5
#     8   8   8   8   8
#     4  11  25  48  74  99 142 192 233 292 371 413
#     4  12  28  41  73 108 140 185 247 293 356 432
#     4  11  24  48  73  96 149 186 236 300 359 428
#     4  11  24  43  70 101 138 187 241 300 358 430
#     4  11  24  45  70  98 145 185 241 297 358 434
#
# _framework density 20.615966
#
# number of rings (size 3 to 8) (size 9 to 14) (size 15 to 20)
#    0.000    0.800    6.000    0.000   14.000    0.000 
#    0.000    0.000    0.000    0.000    0.000    0.000 
#    0.000    0.000    0.000    0.000    0.000    0.000 
#
# Total GULP energy -111750.308725 kJ/mol
# GULP energy per Si atom -5587.515436 kJ/mol
# Density = 2.056904 g / cm^3
# Si number density = 20.615966 Si / 1000 Ang^3
#
#
#
# Elastic Constant Matrix: (Units=GPa)
#
#
# Indices 1 2 3 4 5 6 
#
# 1 75.4417 -5.5717 18.1347 0.0000 0.0000 0.0000
# 2 -5.5717 93.3658 37.2328 0.0000 0.0000 0.0000
# 3 18.1347 37.2328 89.3631 0.0000 0.0000 0.0000
# 4 0.0000 0.0000 0.0000 32.8440 0.0000 0.0000
# 5 0.0000 0.0000 0.0000 0.0000 32.9243 0.0000
# 6 0.0000 0.0000 0.0000 0.0000 0.0000 20.5059
#
#
#
# Elastic Compliance Matrix: (Units=1/GPa)
#
#
# Indices 1 2 3 4 5 6 
#
# 1 0.014379 0.002424 -0.003928 0.000000 0.000000 0.000000
# 2 0.002424 0.013254 -0.006014 0.000000 0.000000 0.000000
# 3 -0.003928 -0.006014 0.014493 0.000000 0.000000 0.000000
# 4 0.000000 0.000000 0.000000 0.030447 0.000000 0.000000
# 5 0.000000 0.000000 0.000000 0.000000 0.030373 0.000000
# 6 0.000000 0.000000 0.000000 0.000000 0.000000 0.048766
#
#
# Mechanical properties :
#
#
# Convention : Reuss Voigt Hill
#
# Bulk Modulus (GPa) = 36.91390 39.75137 38.33263
# Shear Modulus (GPa) = 28.44521 31.14650 29.79585
#
# Velocity S-wave (km/s) = 3.71855 3.89111 3.80581
# Velocity P-wave (km/s) = 6.03168 6.28581 6.16005
#
# Compressibility (1/GPa) = 0.02709007
#
# Stress axis : x y z
#
# Youngs Moduli (GPa) = 69.54802 75.45150 68.99808
#
# Poissons Ratio (x) = -0.18293 0.27103
# Poissons Ratio (y) = -0.16862 0.41496
# Poissons Ratio (z) = 0.27319 0.45377
#
# Static dielectric constant tensor:
#      x y z
#    x 1.745530 0.000000 0.000000 
#    y 0.000000 1.725020 0.000000 
#    z 0.000000 0.000000 1.770320 
# 
# From -- ./inp_files/13854.got.cif
#   From: 2010.05.17/outbox.cif.g08.bks.cpg/sg20_7_cif.got.tgz:13854.got - 2010.06.03 22:52:26.
