data_PCOD9321626
_publ_section_title
;
Structure prediction by ZEFSAII (Michael W. Deem and Ramdas Pophale) SiO2 
 PCOD9321626
Probable space group: C 2 2 21
;
_chemical_formula_sum "Si O2"
_cell_formula_units_Z 64
_cell_length_a 22.706292
_cell_length_b 14.265481
_cell_length_c 9.217598
_cell_angle_alpha 90.000000
_cell_angle_beta 90.000000
_cell_angle_gamma 90.000000
_cell_volume 2985.729106
_symmetry_space_group_name_H-M "C 2 2 21"
_symmetry_group_IT_number 20
_symmetry_cell_setting 'orthorhombic'
loop_
_space_group_symop_operation_xyz
x,y,z
-x,-y,1/2+z
x,-y,-z
-x,y,1/2-z
1/2+x,1/2+y,z
1/2-x,1/2-y,1/2+z
1/2+x,1/2-y,-z
1/2-x,1/2+y,1/2-z
loop_
_atom_site_type_symbol
_atom_site_label
_atom_site_fract_x
_atom_site_fract_y
_atom_site_fract_z
Si Si1 0.479710 0.775628 0.418806
Si Si2 0.861452 0.051663 0.150598
Si Si3 0.132625 0.613067 0.002865
Si Si4 0.390017 0.255327 0.991612
Si Si5 0.694339 0.856396 0.294746
Si Si6 0.756711 0.041741 0.352917
Si Si7 0.696914 0.222204 0.263107
Si Si8 0.547573 0.431245 0.875322
O O1 0.500000 0.791516 0.250000
O O2 0.434597 0.852615 0.478114
O O3 0.541023 0.765793 0.506692
O O4 0.445793 0.675376 0.428359
O O5 0.795558 0.044364 0.207468
O O6 0.897588 0.023057 0.292783
O O7 0.881890 0.156260 0.114154
O O8 0.870895 0.000000 0.000000
O O9 0.169214 0.652028 0.866465
O O10 0.135859 0.500000 0.000000
O O11 0.162753 0.660945 0.142762
O O12 0.352578 0.272117 0.137714
O O13 0.356161 0.175017 0.904634
O O14 0.754339 0.794106 0.299555
O O15 0.707452 0.964435 0.325437
O O16 0.731999 0.146645 0.363045
O O17 0.786063 0.000000 0.500000
O O18 0.500000 0.424700 0.750000
O O19 0.526814 0.500000 0.000000
#
# Coordination Sequence:
#
# PCOD9321626 Si02
#       8
#     8   8   8   8   8   8   8   8
#     4  11  24  48  74  98 140 197 240 295 370 424
#     4  12  25  42  69 105 143 188 238 294 366 446
#     4  12  27  49  74 105 143 193 249 306 361 435
#     4  12  24  47  70  99 144 189 236 298 356 435
#     4  12  24  46  73  98 146 186 230 295 366 438
#     4  12  26  43  67 105 140 189 238 289 366 442
#     4  12  27  43  71 108 140 187 237 300 368 426
#     4  11  23  44  72 103 142 189 239 300 371 439
#
# _framework density 21.435300999999999
#
# number of rings (size 3 to 8) (size 9 to 14) (size 15 to 20)
#    0.000    0.250    7.500    2.250    1.750    2.500 
#    4.500    0.000    0.000    0.000    0.000    0.000 
#    0.000    0.000    0.000    0.000    0.000    0.000 
#
# Total GULP energy -178776.372463 kJ/mol
# GULP energy per Si atom -5586.761639 kJ/mol
# Density = 2.138651 g / cm^3
# Si number density = 21.435301 Si / 1000 Ang^3
#
#
#
# Elastic Constant Matrix: (Units=GPa)
#
#
# Indices 1 2 3 4 5 6 
#
# 1 81.1961 19.0277 15.8585 0.0000 0.0000 0.0000
# 2 19.0277 56.0987 7.0901 0.0000 0.0000 0.0000
# 3 15.8585 7.0901 58.1445 0.0000 0.0000 0.0000
# 4 0.0000 0.0000 0.0000 13.2005 0.0000 0.0000
# 5 0.0000 0.0000 0.0000 0.0000 3.1458 0.0000
# 6 0.0000 0.0000 0.0000 0.0000 0.0000 28.2404
#
#
#
# Elastic Compliance Matrix: (Units=1/GPa)
#
#
# Indices 1 2 3 4 5 6 
#
# 1 0.013970 -0.004324 -0.003283 0.000000 0.000000 0.000000
# 2 -0.004324 0.019443 -0.001192 0.000000 0.000000 0.000000
# 3 -0.003283 -0.001192 0.018239 0.000000 0.000000 0.000000
# 4 0.000000 0.000000 0.000000 0.075755 0.000000 0.000000
# 5 0.000000 0.000000 0.000000 0.000000 0.317887 0.000000
# 6 0.000000 0.000000 0.000000 0.000000 0.000000 0.035410
#
#
# Mechanical properties :
#
#
# Convention : Reuss Voigt Hill
#
# Bulk Modulus (GPa) = 29.36355 31.04356 30.20356
# Shear Modulus (GPa) = 9.81060 19.14819 14.47940
#
# Velocity S-wave (km/s) = 2.14168 2.99206 2.60184
# Velocity P-wave (km/s) = 4.45468 5.14300 4.81116
#
# Compressibility (1/GPa) = 0.03405583
#
# Stress axis : x y z
#
# Youngs Moduli (GPa) = 71.58054 51.43288 54.82677
#
# Poissons Ratio (x) = 0.22237 0.18000
# Poissons Ratio (y) = 0.30948 0.06533
# Poissons Ratio (z) = 0.23500 0.06129
#
# Static dielectric constant tensor:
#      x y z
#    x 1.876300 0.000000 0.000000 
#    y 0.000000 1.784080 0.000000 
#    z 0.000000 0.000000 1.812730 
# 
# From -- ./inp_files/10827.got.cif
#   From: 2010.05.17/outbox.cif.g08.bks.cpg/sg20_6_cif.got.tgz:10827.got - 2010.06.03 22:52:26.
