data_PCOD9321196
_publ_section_title
;
Structure prediction by ZEFSAII (Michael W. Deem and Ramdas Pophale) SiO2 
 PCOD9321196
Probable space group: C 2 2 21
;
_chemical_formula_sum "Si O2"
_cell_formula_units_Z 36
_cell_length_a 8.709652
_cell_length_b 12.050292
_cell_length_c 12.134507
_cell_angle_alpha 90.000000
_cell_angle_beta 90.000000
_cell_angle_gamma 90.000000
_cell_volume 1273.563225
_symmetry_space_group_name_H-M "C 2 2 21"
_symmetry_group_IT_number 20
_symmetry_cell_setting 'orthorhombic'
loop_
_space_group_symop_operation_xyz
x,y,z
-x,-y,1/2+z
x,-y,-z
-x,y,1/2-z
1/2+x,1/2+y,z
1/2-x,1/2-y,1/2+z
1/2+x,1/2-y,-z
1/2-x,1/2+y,1/2-z
loop_
_atom_site_type_symbol
_atom_site_label
_atom_site_fract_x
_atom_site_fract_y
_atom_site_fract_z
Si Si1 0.311303 0.789068 0.948522
Si Si2 0.670632 0.538035 0.174447
Si Si3 0.717003 0.426350 0.584566
Si Si4 0.984927 0.423576 0.133307
Si Si5 0.000000 0.173208 0.750000
O O1 0.164178 0.863835 0.914189
O O2 0.396225 0.742369 0.837155
O O3 0.254171 0.687604 0.023976
O O4 0.425148 0.853907 0.030690
O O5 0.643152 0.585748 0.296723
O O6 0.601688 0.414072 0.178941
O O7 0.852242 0.512582 0.157917
O O8 0.617738 0.500000 0.500000
O O9 0.860982 0.492240 0.390834
O O10 0.000000 0.359987 0.250000
#
# Coordination Sequence:
#
# PCOD9321196 Si02
#       5
#     8   8   8   8   4
#     4  12  28  51  86 123 161 229 267 332 426 478
#     4  11  27  54  74 124 165 211 277 340 407 485
#     4  11  24  50  77 115 162 210 271 337 392 483
#     4  10  26  52  84 120 167 211 277 340 403 493
#     4  12  30  54  78 126 174 212 280 344 406 506
#
# _framework density 28.267147000000001
#
# number of rings (size 3 to 8) (size 9 to 14) (size 15 to 20)
#    0.000    0.889    2.222    2.000   10.889    0.000 
#   18.000    2.222    0.000    0.000    0.000    0.000 
#    0.000    0.000    0.000    0.000    0.000    0.000 
#
# Total GULP energy -100824.996749 kJ/mol
# GULP energy per Si atom -5601.388708 kJ/mol
# Density = 2.820281 g / cm^3
# Si number density = 28.267147 Si / 1000 Ang^3
#
#
#
# Elastic Constant Matrix: (Units=GPa)
#
#
# Indices 1 2 3 4 5 6 
#
# 1 102.0492 58.0581 63.6909 0.0000 0.0000 0.0000
# 2 58.0581 186.2745 108.7906 0.0000 0.0000 0.0000
# 3 63.6909 108.7906 234.8023 0.0000 0.0000 0.0000
# 4 0.0000 0.0000 0.0000 73.1406 0.0000 0.0000
# 5 0.0000 0.0000 0.0000 0.0000 24.7123 0.0000
# 6 0.0000 0.0000 0.0000 0.0000 0.0000 54.1061
#
#
#
# Elastic Compliance Matrix: (Units=1/GPa)
#
#
# Indices 1 2 3 4 5 6 
#
# 1 0.012694 -0.002667 -0.002208 0.000000 0.000000 0.000000
# 2 -0.002667 0.007921 -0.002946 0.000000 0.000000 0.000000
# 3 -0.002208 -0.002946 0.006223 0.000000 0.000000 0.000000
# 4 0.000000 0.000000 0.000000 0.013672 0.000000 0.000000
# 5 0.000000 0.000000 0.000000 0.000000 0.040466 0.000000
# 6 0.000000 0.000000 0.000000 0.000000 0.000000 0.018482
#
#
# Mechanical properties :
#
#
# Convention : Reuss Voigt Hill
#
# Bulk Modulus (GPa) = 89.32200 109.35614 99.33907
# Shear Modulus (GPa) = 42.07614 49.89754 45.98684
#
# Velocity S-wave (km/s) = 3.86232 4.20600 4.03782
# Velocity P-wave (km/s) = 7.18038 7.89670 7.54704
#
# Compressibility (1/GPa) = 0.01119545
#
# Stress axis : x y z
#
# Youngs Moduli (GPa) = 78.77430 126.25464 160.69918
#
# Poissons Ratio (x) = 0.33676 0.35476
# Poissons Ratio (y) = 0.21012 0.47346
# Poissons Ratio (z) = 0.17390 0.37198
#
# Static dielectric constant tensor:
#      x y z
#    x 2.388120 0.000000 0.000000 
#    y 0.000000 2.227080 0.000000 
#    z 0.000000 0.000000 2.335040 
# 
# From -- ./inp_files/13677.got.cif
#   From: 2010.05.17/outbox.cif.g08.bks.cpg/sg20_7_cif.got.tgz:13677.got - 2010.06.03 22:52:26.
