data_PCOD9321663
_publ_section_title
;
Structure prediction by ZEFSAII (Michael W. Deem and Ramdas Pophale) SiO2 
 PCOD9321663
Probable space group: C 2 2 21
;
_chemical_formula_sum "Si O2"
_cell_formula_units_Z 40
_cell_length_a 12.364516
_cell_length_b 7.027712
_cell_length_c 17.543552
_cell_angle_alpha 90.000000
_cell_angle_beta 90.000000
_cell_angle_gamma 90.000000
_cell_volume 1524.433924
_symmetry_space_group_name_H-M "C 2 2 21"
_symmetry_group_IT_number 20
_symmetry_cell_setting 'orthorhombic'
loop_
_space_group_symop_operation_xyz
x,y,z
-x,-y,1/2+z
x,-y,-z
-x,y,1/2-z
1/2+x,1/2+y,z
1/2-x,1/2-y,1/2+z
1/2+x,1/2-y,-z
1/2-x,1/2+y,1/2-z
loop_
_atom_site_type_symbol
_atom_site_label
_atom_site_fract_x
_atom_site_fract_y
_atom_site_fract_z
Si Si1 0.284347 0.796969 0.858739
Si Si2 0.258627 0.131311 0.308674
Si Si3 0.524613 0.306547 0.130778
Si Si4 0.377827 0.792844 0.471941
Si Si5 0.031838 0.755797 0.665102
O O1 0.240782 0.890531 0.781682
O O2 0.255269 0.574633 0.844706
O O3 0.412822 0.809484 0.863416
O O4 0.217134 0.833723 0.934913
O O5 0.376168 0.217862 0.322556
O O6 0.161069 0.256745 0.342736
O O7 0.497675 0.518805 0.159125
O O8 0.563153 0.302356 0.043375
O O9 0.464480 0.828691 0.404490
O O10 0.337277 0.000000 0.500000
O O11 0.000000 0.688117 0.750000
#
# Coordination Sequence:
#
# PCOD9321663 Si02
#       5
#     8   8   8   8   8
#     4  11  25  46  74 105 148 193 248 311 373 452
#     4  11  23  46  77 105 145 192 255 310 372 449
#     4  11  25  45  75 107 146 194 250 305 384 445
#     4  12  26  47  68 110 154 195 244 315 376 441
#     4  11  24  48  73 105 146 198 249 305 375 450
#
# _framework density 26.239248
#
# number of rings (size 3 to 8) (size 9 to 14) (size 15 to 20)
#    0.000    0.800    4.000    3.600    2.800    1.600 
#    3.600    0.000    0.000    0.000    0.000    0.000 
#    0.000    0.000    0.000    0.000    0.000    0.000 
#
# Total GULP energy -112263.323973 kJ/mol
# GULP energy per Si atom -5613.166199 kJ/mol
# Density = 2.617953 g / cm^3
# Si number density = 26.239248 Si / 1000 Ang^3
#
#
#
# Elastic Constant Matrix: (Units=GPa)
#
#
# Indices 1 2 3 4 5 6 
#
# 1 199.6811 24.4695 45.9245 0.0000 0.0000 0.0000
# 2 24.4695 52.2027 12.5176 0.0000 0.0000 0.0000
# 3 45.9245 12.5176 184.0496 0.0000 0.0000 0.0000
# 4 0.0000 0.0000 0.0000 39.5720 0.0000 0.0000
# 5 0.0000 0.0000 0.0000 0.0000 53.9098 0.0000
# 6 0.0000 0.0000 0.0000 0.0000 0.0000 32.7679
#
#
#
# Elastic Compliance Matrix: (Units=1/GPa)
#
#
# Indices 1 2 3 4 5 6 
#
# 1 0.005576 -0.002318 -0.001234 0.000000 0.000000 0.000000
# 2 -0.002318 0.020437 -0.000812 0.000000 0.000000 0.000000
# 3 -0.001234 -0.000812 0.005796 0.000000 0.000000 0.000000
# 4 0.000000 0.000000 0.000000 0.025270 0.000000 0.000000
# 5 0.000000 0.000000 0.000000 0.000000 0.018550 0.000000
# 6 0.000000 0.000000 0.000000 0.000000 0.000000 0.030518
#
#
# Mechanical properties :
#
#
# Convention : Reuss Voigt Hill
#
# Bulk Modulus (GPa) = 43.32163 66.86183 55.09173
# Shear Modulus (GPa) = 40.79394 48.78474 44.78934
#
# Velocity S-wave (km/s) = 3.94724 4.31655 4.13602
# Velocity P-wave (km/s) = 6.10903 7.09792 6.62196
#
# Compressibility (1/GPa) = 0.02308316
#
# Stress axis : x y z
#
# Youngs Moduli (GPa) = 179.34860 48.93048 172.52270
#
# Poissons Ratio (x) = 0.11341 0.21283
# Poissons Ratio (y) = 0.41569 0.14003
# Poissons Ratio (z) = 0.22125 0.03971
#
# Static dielectric constant tensor:
#      x y z
#    x 2.043080 0.000000 0.000000 
#    y 0.000000 2.131180 0.000000 
#    z 0.000000 0.000000 2.012540 
# 
# From -- ./inp_files/24078.got.cif
#   From: 2010.05.17/outbox.cif.g08.bks.cpg/sg20_13_cif.got.tgz:24078.got - 2010.06.03 22:52:26.
