data_PCOD9321361
_publ_section_title
;
Structure prediction by ZEFSAII (Michael W. Deem and Ramdas Pophale) SiO2 
 PCOD9321361
Probable space group: C 2 2 21
;
_chemical_formula_sum "Si O2"
_cell_formula_units_Z 48
_cell_length_a 14.799323
_cell_length_b 8.637009
_cell_length_c 17.984494
_cell_angle_alpha 90.000000
_cell_angle_beta 90.000000
_cell_angle_gamma 90.000000
_cell_volume 2298.811941
_symmetry_space_group_name_H-M "C 2 2 21"
_symmetry_group_IT_number 20
_symmetry_cell_setting 'orthorhombic'
loop_
_space_group_symop_operation_xyz
x,y,z
-x,-y,1/2+z
x,-y,-z
-x,y,1/2-z
1/2+x,1/2+y,z
1/2-x,1/2-y,1/2+z
1/2+x,1/2-y,-z
1/2-x,1/2+y,1/2-z
loop_
_atom_site_type_symbol
_atom_site_label
_atom_site_fract_x
_atom_site_fract_y
_atom_site_fract_z
Si Si1 0.190790 0.187421 0.099616
Si Si2 0.928896 0.293269 0.688174
Si Si3 0.660003 0.810487 0.495138
Si Si4 0.750727 0.148287 0.649331
Si Si5 0.596867 0.857398 0.233214
Si Si6 0.455058 0.813241 0.513639
O O1 0.154851 0.267319 0.173085
O O2 0.204413 0.008546 0.119409
O O3 0.287302 0.245317 0.068187
O O4 0.118505 0.222485 0.034888
O O5 0.827115 0.231504 0.697719
O O6 0.926760 0.477161 0.698711
O O7 0.950784 0.271042 0.601012
O O8 0.000000 0.232312 0.750000
O O9 0.717627 0.760070 0.423563
O O10 0.555944 0.769345 0.488174
O O11 0.661691 0.000000 0.500000
O O12 0.659657 0.117529 0.695276
O O13 0.500000 0.779940 0.250000
O O14 0.442778 0.000000 0.500000
#
# Coordination Sequence:
#
# PCOD9321361 Si02
#       6
#     8   8   8   8   8   8
#     4  11  22  40  69  95 122 166 213 264 316 373
#     4  11  25  40  63  92 128 171 210 259 320 378
#     4   9  21  36  64  91 119 163 207 255 313 371
#     4  11  23  42  63  93 131 162 204 267 326 374
#     4  11  24  40  66  93 125 168 219 254 312 387
#     4  11  21  41  68  94 125 166 221 259 304 387
#
# _framework density 20.88035
#
# number of rings (size 3 to 8) (size 9 to 14) (size 15 to 20)
#    0.000    1.333    3.333    2.000   14.000    0.667 
#    0.000    1.667    7.333    0.000    0.000    0.000 
#    0.000    0.000    0.000    0.000    0.000    0.000 
#
# Total GULP energy -133993.894984 kJ/mol
# GULP energy per Si atom -5583.078958 kJ/mol
# Density = 2.083283 g / cm^3
# Si number density = 20.880350 Si / 1000 Ang^3
#
#
#
# Elastic Constant Matrix: (Units=GPa)
#
#
# Indices 1 2 3 4 5 6 
#
# 1 128.4252 19.6650 37.8383 0.0000 0.0000 0.0000
# 2 19.6650 17.1629 19.7859 0.0000 0.0000 0.0000
# 3 37.8383 19.7859 101.5838 0.0000 0.0000 0.0000
# 4 0.0000 0.0000 0.0000 14.7068 0.0000 0.0000
# 5 0.0000 0.0000 0.0000 0.0000 44.2983 0.0000
# 6 0.0000 0.0000 0.0000 0.0000 0.0000 20.2175
#
#
#
# Elastic Compliance Matrix: (Units=1/GPa)
#
#
# Indices 1 2 3 4 5 6 
#
# 1 0.009711 -0.008971 -0.001870 0.000000 0.000000 0.000000
# 2 -0.008971 0.083425 -0.012907 0.000000 0.000000 0.000000
# 3 -0.001870 -0.012907 0.013055 0.000000 0.000000 0.000000
# 4 0.000000 0.000000 0.000000 0.067996 0.000000 0.000000
# 5 0.000000 0.000000 0.000000 0.000000 0.022574 0.000000
# 6 0.000000 0.000000 0.000000 0.000000 0.000000 0.049462
#
#
# Mechanical properties :
#
#
# Convention : Reuss Voigt Hill
#
# Bulk Modulus (GPa) = 17.03771 44.63894 30.83833
# Shear Modulus (GPa) = 15.95995 27.17003 21.56499
#
# Velocity S-wave (km/s) = 2.76769 3.61116 3.21719
# Velocity P-wave (km/s) = 4.28846 6.22994 5.34804
#
# Compressibility (1/GPa) = 0.05869332
#
# Stress axis : x y z
#
# Youngs Moduli (GPa) = 102.97276 11.98688 76.60131
#
# Poissons Ratio (x) = 0.10754 0.14324
# Poissons Ratio (y) = 0.92381 0.98871
# Poissons Ratio (z) = 0.19255 0.15472
#
# Static dielectric constant tensor:
#      x y z
#    x 1.787670 0.000000 0.000000 
#    y 0.000000 1.732500 0.000000 
#    z 0.000000 0.000000 1.783430 
# 
# From -- ./inp_files/23434.got.cif
#   From: 2010.05.17/outbox.cif.g08.bks.cpg/sg20_12_cif.got.tgz:23434.got - 2010.06.03 22:52:26.
