data_PCOD9321660
_publ_section_title
;
Structure prediction by ZEFSAII (Michael W. Deem and Ramdas Pophale) SiO2 
 PCOD9321660
Probable space group: C 2 2 21
;
_chemical_formula_sum "Si O2"
_cell_formula_units_Z 36
_cell_length_a 9.924285
_cell_length_b 11.333489
_cell_length_c 12.873538
_cell_angle_alpha 90.000000
_cell_angle_beta 90.000000
_cell_angle_gamma 90.000000
_cell_volume 1447.974036
_symmetry_space_group_name_H-M "C 2 2 21"
_symmetry_group_IT_number 20
_symmetry_cell_setting 'orthorhombic'
loop_
_space_group_symop_operation_xyz
x,y,z
-x,-y,1/2+z
x,-y,-z
-x,y,1/2-z
1/2+x,1/2+y,z
1/2-x,1/2-y,1/2+z
1/2+x,1/2-y,-z
1/2-x,1/2+y,1/2-z
loop_
_atom_site_type_symbol
_atom_site_label
_atom_site_fract_x
_atom_site_fract_y
_atom_site_fract_z
Si Si1 0.076229 0.846358 0.927934
Si Si2 0.372977 0.497382 0.832359
Si Si3 0.000000 0.327160 0.250000
Si Si4 0.033295 0.241492 0.628681
Si Si5 0.320186 0.972718 0.841227
O O1 0.081416 0.753943 0.832065
O O2 0.184079 0.948833 0.905621
O O3 0.929039 0.905041 0.914176
O O4 0.078271 0.790623 0.042447
O O5 0.500000 0.501336 0.750000
O O6 0.362923 0.631065 0.871732
O O7 0.239005 0.453812 0.775636
O O8 0.903129 0.407951 0.177429
O O9 0.088906 0.371295 0.609010
O O10 0.000000 0.248613 0.750000
#
# Coordination Sequence:
#
# PCOD9321660 Si02
#       5
#     8   8   4   8   8
#     4  11  24  48  75 112 154 201 255 328 392 464
#     4   9  20  42  71 100 146 197 254 316 382 454
#     4  12  24  48  76 112 150 194 264 316 398 462
#     4  11  24  45  69 111 149 200 260 306 394 473
#     4  11  23  46  75 108 154 197 258 329 388 467
#
# _framework density 24.862325999999999
#
# number of rings (size 3 to 8) (size 9 to 14) (size 15 to 20)
#    0.000    1.333    4.444    2.000    0.000    2.667 
#   20.000    2.222    0.000    0.000    0.000    0.000 
#    0.000    0.000    0.000    0.000    0.000    0.000 
#
# Total GULP energy -100303.867480 kJ/mol
# GULP energy per Si atom -5572.437082 kJ/mol
# Density = 2.480574 g / cm^3
# Si number density = 24.862326 Si / 1000 Ang^3
#
#
#
# Elastic Constant Matrix: (Units=GPa)
#
#
# Indices 1 2 3 4 5 6 
#
# 1 52.6314 33.0735 23.1273 0.0000 0.0000 0.0000
# 2 33.0735 129.8308 32.4878 0.0000 0.0000 0.0000
# 3 23.1273 32.4878 132.9776 0.0000 0.0000 0.0000
# 4 0.0000 0.0000 0.0000 11.8113 0.0000 0.0000
# 5 0.0000 0.0000 0.0000 0.0000 12.4908 0.0000
# 6 0.0000 0.0000 0.0000 0.0000 0.0000 32.4639
#
#
#
# Elastic Compliance Matrix: (Units=1/GPa)
#
#
# Indices 1 2 3 4 5 6 
#
# 1 0.023563 -0.005301 -0.002803 0.000000 0.000000 0.000000
# 2 -0.005301 0.009396 -0.001374 0.000000 0.000000 0.000000
# 3 -0.002803 -0.001374 0.008343 0.000000 0.000000 0.000000
# 4 0.000000 0.000000 0.000000 0.084665 0.000000 0.000000
# 5 0.000000 0.000000 0.000000 0.000000 0.080059 0.000000
# 6 0.000000 0.000000 0.000000 0.000000 0.000000 0.030803
#
#
# Mechanical properties :
#
#
# Convention : Reuss Voigt Hill
#
# Bulk Modulus (GPa) = 44.74849 54.75744 49.75297
# Shear Modulus (GPa) = 18.99449 26.46995 22.73222
#
# Velocity S-wave (km/s) = 2.76703 3.26645 3.02706
# Velocity P-wave (km/s) = 5.31471 6.02481 5.68087
#
# Compressibility (1/GPa) = 0.02234712
#
# Stress axis : x y z
#
# Youngs Moduli (GPa) = 42.43952 106.42262 119.85883
#
# Poissons Ratio (x) = 0.56416 0.33595
# Poissons Ratio (y) = 0.22498 0.16465
# Poissons Ratio (z) = 0.11895 0.14619
#
# Static dielectric constant tensor:
#      x y z
#    x 2.085470 0.000000 0.000000 
#    y 0.000000 2.025210 0.000000 
#    z 0.000000 0.000000 2.065870 
# 
# From -- ./inp_files/19591.got.cif
#   From: 2010.05.17/outbox.cif.g08.bks.cpg/sg20_10_cif.got.tgz:19591.got - 2010.06.03 22:52:26.
