data_PCOD9321917
_publ_section_title
;
Structure prediction by ZEFSAII (Michael W. Deem and Ramdas Pophale) SiO2 
 PCOD9321917
Probable space group: C 2 2 21
;
_chemical_formula_sum "Si O2"
_cell_formula_units_Z 36
_cell_length_a 13.728800
_cell_length_b 20.742857
_cell_length_c 5.767706
_cell_angle_alpha 90.000000
_cell_angle_beta 90.000000
_cell_angle_gamma 90.000000
_cell_volume 1642.495795
_symmetry_space_group_name_H-M "C 2 2 21"
_symmetry_group_IT_number 20
_symmetry_cell_setting 'orthorhombic'
loop_
_space_group_symop_operation_xyz
x,y,z
-x,-y,1/2+z
x,-y,-z
-x,y,1/2-z
1/2+x,1/2+y,z
1/2-x,1/2-y,1/2+z
1/2+x,1/2-y,-z
1/2-x,1/2+y,1/2-z
loop_
_atom_site_type_symbol
_atom_site_label
_atom_site_fract_x
_atom_site_fract_y
_atom_site_fract_z
Si Si1 0.500000 0.055654 0.250000
Si Si2 0.413344 0.152046 0.878651
Si Si3 0.780926 0.527335 0.255766
Si Si4 0.117124 0.758813 0.273293
Si Si5 0.768885 0.344056 0.494045
O O1 0.527334 0.102001 0.463836
O O2 0.398717 0.018617 0.268948
O O3 0.500000 0.188101 0.750000
O O4 0.336211 0.122888 0.702451
O O5 0.363858 0.205768 0.029782
O O6 0.738724 0.500000 0.500000
O O7 0.762380 0.604606 0.295714
O O8 0.750748 0.500000 0.000000
O O9 0.171614 0.721411 0.062724
O O10 0.170211 0.822445 0.367474
O O11 0.000000 0.765211 0.250000
#
# Coordination Sequence:
#
# PCOD9321917 Si02
#       5
#     4   8   8   8   8
#     4  12  22  36  62  92 136 182 228 276 348 428
#     4  12  19  36  62  92 140 177 227 283 348 428
#     4  12  26  41  61  93 138 186 238 282 341 426
#     4  12  23  40  65  99 138 182 236 297 358 429
#     4  12  25  38  66  98 139 192 233 293 364 425
#
# _framework density 21.917863000000001
#
# number of rings (size 3 to 8) (size 9 to 14) (size 15 to 20)
#    0.000    0.000   10.000    2.000    0.000    0.000 
#    0.000    0.000    0.000    0.000    0.000    9.333 
#    0.000    1.778    0.000    0.000    0.000    0.000 
#
# Total GULP energy -100331.710688 kJ/mol
# GULP energy per Si atom -5573.983927 kJ/mol
# Density = 2.186798 g / cm^3
# Si number density = 21.917863 Si / 1000 Ang^3
#
#
#
# Elastic Constant Matrix: (Units=GPa)
#
#
# Indices 1 2 3 4 5 6 
#
# 1 90.7280 48.7424 39.3126 0.0000 0.0000 0.0000
# 2 48.7424 96.0174 46.8249 0.0000 0.0000 0.0000
# 3 39.3126 46.8249 130.7822 0.0000 0.0000 0.0000
# 4 0.0000 0.0000 0.0000 38.2326 0.0000 0.0000
# 5 0.0000 0.0000 0.0000 0.0000 21.3030 0.0000
# 6 0.0000 0.0000 0.0000 0.0000 0.0000 32.5081
#
#
#
# Elastic Compliance Matrix: (Units=1/GPa)
#
#
# Indices 1 2 3 4 5 6 
#
# 1 0.015687 -0.006862 -0.002259 0.000000 0.000000 0.000000
# 2 -0.006862 0.015620 -0.003530 0.000000 0.000000 0.000000
# 3 -0.002259 -0.003530 0.009589 0.000000 0.000000 0.000000
# 4 0.000000 0.000000 0.000000 0.026156 0.000000 0.000000
# 5 0.000000 0.000000 0.000000 0.000000 0.046942 0.000000
# 6 0.000000 0.000000 0.000000 0.000000 0.000000 0.030762
#
#
# Mechanical properties :
#
#
# Convention : Reuss Voigt Hill
#
# Bulk Modulus (GPa) = 64.12289 65.25414 64.68852
# Shear Modulus (GPa) = 28.53008 30.58525 29.55767
#
# Velocity S-wave (km/s) = 3.61180 3.73962 3.67627
# Velocity P-wave (km/s) = 6.83469 6.96298 6.89913
#
# Compressibility (1/GPa) = 0.01559505
#
# Stress axis : x y z
#
# Youngs Moduli (GPa) = 63.74651 64.02241 104.28609
#
# Poissons Ratio (x) = 0.43932 0.23555
# Poissons Ratio (y) = 0.43743 0.36810
# Poissons Ratio (z) = 0.14398 0.22598
#
# Static dielectric constant tensor:
#      x y z
#    x 1.762690 0.000000 0.000000 
#    y 0.000000 1.889260 0.000000 
#    z 0.000000 0.000000 1.973650 
# 
# From -- ./inp_files/1749.got.cif
#   From: 2010.05.17/outbox.cif.g08.bks.cpg/sg20_1_cif.got.tgz:1749.got - 2010.06.03 22:52:26.
