data_PCOD9321557
_publ_section_title
;
Structure prediction by ZEFSAII (Michael W. Deem and Ramdas Pophale) SiO2 
 PCOD9321557
Probable space group: C 2 2 21
;
_chemical_formula_sum "Si O2"
_cell_formula_units_Z 60
_cell_length_a 26.352426
_cell_length_b 11.486179
_cell_length_c 8.914816
_cell_angle_alpha 90.000000
_cell_angle_beta 90.000000
_cell_angle_gamma 90.000000
_cell_volume 2698.413906
_symmetry_space_group_name_H-M "C 2 2 21"
_symmetry_group_IT_number 20
_symmetry_cell_setting 'orthorhombic'
loop_
_space_group_symop_operation_xyz
x,y,z
-x,-y,1/2+z
x,-y,-z
-x,y,1/2-z
1/2+x,1/2+y,z
1/2-x,1/2-y,1/2+z
1/2+x,1/2-y,-z
1/2-x,1/2+y,1/2-z
loop_
_atom_site_type_symbol
_atom_site_label
_atom_site_fract_x
_atom_site_fract_y
_atom_site_fract_z
Si Si1 0.793113 0.722804 0.357994
Si Si2 0.212855 0.634735 0.464804
Si Si3 0.384339 0.931141 0.633516
Si Si4 0.045824 0.778169 0.142019
Si Si5 0.398337 0.500000 0.000000
Si Si6 0.971353 0.801758 0.890438
Si Si7 0.605877 0.900377 0.396314
Si Si8 0.137439 0.944198 0.166150
O O1 0.746292 0.768840 0.452123
O O2 0.835137 0.637206 0.430310
O O3 0.822999 0.839631 0.312567
O O4 0.777481 0.655694 0.209232
O O5 0.225305 0.500000 0.500000
O O6 0.153848 0.650438 0.511770
O O7 0.421232 0.831718 0.695393
O O8 0.410373 0.000000 0.500000
O O9 0.371554 0.026278 0.758147
O O10 0.082977 0.886777 0.133131
O O11 0.000000 0.802819 0.250000
O O12 0.018103 0.753262 0.986526
O O13 0.435960 0.610318 0.016278
O O14 0.368740 0.499506 0.163649
O O15 0.933740 0.696657 0.847847
O O16 0.000000 0.859776 0.750000
O O17 0.580840 0.000000 0.500000
O O18 0.150816 0.000000 0.000000
#
# Coordination Sequence:
#
# PCOD9321557 Si02
#       8
#     8   8   8   8   4   8   8   8
#     4  11  25  48  71 104 141 179 238 297 368 445
#     4  11  24  47  74 102 138 185 232 299 374 444
#     4  11  24  42  68 100 135 180 227 291 355 422
#     4  11  23  40  66  97 139 183 234 291 351 417
#     4  12  26  44  72 100 148 196 242 296 372 424
#     4  12  26  41  66 105 137 188 243 292 354 435
#     4  11  23  46  70  95 142 183 230 291 362 423
#     4  11  25  47  70 104 145 190 242 306 358 433
#
# _framework density 22.235284
#
# number of rings (size 3 to 8) (size 9 to 14) (size 15 to 20)
#    0.000    0.800    4.000    3.600    4.667    4.267 
#    7.200    0.000    1.467    0.000    0.000    0.000 
#    0.000    0.000    0.000    0.000    0.000    0.000 
#
# Total GULP energy -167381.151272 kJ/mol
# GULP energy per Si atom -5579.371709 kJ/mol
# Density = 2.218468 g / cm^3
# Si number density = 22.235284 Si / 1000 Ang^3
#
#
#
# Elastic Constant Matrix: (Units=GPa)
#
#
# Indices 1 2 3 4 5 6 
#
# 1 37.9712 3.3287 -4.0288 0.0000 0.0000 0.0000
# 2 3.3287 72.9587 16.5970 0.0000 0.0000 0.0000
# 3 -4.0288 16.5970 62.3210 0.0000 0.0000 0.0000
# 4 0.0000 0.0000 0.0000 39.0024 0.0000 0.0000
# 5 0.0000 0.0000 0.0000 0.0000 19.7923 0.0000
# 6 0.0000 0.0000 0.0000 0.0000 0.0000 -26.6691
#
#
#
# Elastic Compliance Matrix: (Units=1/GPa)
#
#
# Indices 1 2 3 4 5 6 
#
# 1 0.026718 -0.001716 0.002184 0.000000 0.000000 0.000000
# 2 -0.001716 0.014700 -0.004026 0.000000 0.000000 0.000000
# 3 0.002184 -0.004026 0.017259 0.000000 0.000000 0.000000
# 4 0.000000 0.000000 0.000000 0.025639 0.000000 0.000000
# 5 0.000000 0.000000 0.000000 0.000000 0.050525 0.000000
# 6 0.000000 0.000000 0.000000 0.000000 0.000000 -0.037497
#
#
# Mechanical properties :
#
#
# Convention : Reuss Voigt Hill
#
# Bulk Modulus (GPa) = 19.39393 22.78276 21.08834
# Shear Modulus (GPa) = 41.10218 16.91537 29.00877
#
# Velocity S-wave (km/s) = 4.30410 2.76115 3.61588
# Velocity P-wave (km/s) = 5.78285 4.52037 5.19014
#
# Compressibility (1/GPa) = 0.05156253
#
# Stress axis : x y z
#
# Youngs Moduli (GPa) = 37.42808 68.02498 57.93979
#
# Poissons Ratio (x) = 0.11672 -0.12655
# Poissons Ratio (y) = 0.06422 0.23326
# Poissons Ratio (z) = -0.08175 0.27386
#
# Static dielectric constant tensor:
#      x y z
#    x 1.795810 0.000000 0.000000 
#    y 0.000000 1.784720 0.000000 
#    z 0.000000 0.000000 1.996740 
# 
# From -- ./inp_files/11127.got.cif
#   From: 2010.05.17/outbox.cif.g08.bks.cpg/sg20_6_cif.got.tgz:11127.got - 2010.06.03 22:52:26.
