data_PCOD9321028
_publ_section_title
;
Structure prediction by ZEFSAII (Michael W. Deem and Ramdas Pophale) SiO2 
 PCOD9321028
Probable space group: C 2 2 21
;
_chemical_formula_sum "Si O2"
_cell_formula_units_Z 60
_cell_length_a 6.196201
_cell_length_b 22.808653
_cell_length_c 18.740486
_cell_angle_alpha 90.000000
_cell_angle_beta 90.000000
_cell_angle_gamma 90.000000
_cell_volume 2648.536637
_symmetry_space_group_name_H-M "C 2 2 21"
_symmetry_group_IT_number 20
_symmetry_cell_setting 'orthorhombic'
loop_
_space_group_symop_operation_xyz
x,y,z
-x,-y,1/2+z
x,-y,-z
-x,y,1/2-z
1/2+x,1/2+y,z
1/2-x,1/2-y,1/2+z
1/2+x,1/2-y,-z
1/2-x,1/2+y,1/2-z
loop_
_atom_site_type_symbol
_atom_site_label
_atom_site_fract_x
_atom_site_fract_y
_atom_site_fract_z
Si Si1 0.178970 0.952214 0.615826
Si Si2 0.322695 0.775755 0.022279
Si Si3 0.237643 0.490482 0.577409
Si Si4 0.031802 0.438486 0.166110
Si Si5 0.981662 0.373208 0.924937
Si Si6 0.358596 0.211555 0.187745
Si Si7 0.464751 0.195708 0.663494
Si Si8 0.500000 0.377639 0.750000
O O1 0.291444 0.904505 0.564126
O O2 0.100073 0.918141 0.687283
O O3 0.986243 0.979888 0.573307
O O4 0.319891 0.008249 0.639601
O O5 0.350482 0.783159 0.108158
O O6 0.070825 0.753298 0.002312
O O7 0.354652 0.839971 0.986628
O O8 0.135690 0.500000 0.500000
O O9 0.190222 0.545008 0.627279
O O10 0.151287 0.428230 0.605764
O O11 0.000000 0.443051 0.250000
O O12 0.091464 0.371966 0.149059
O O13 0.008557 0.325859 0.863462
O O14 0.500000 0.237995 0.250000
O O15 0.234598 0.262047 0.146949
O O16 0.182680 0.165647 0.218334
O O17 0.500000 0.201778 0.750000
#
# Coordination Sequence:
#
# PCOD9321028 Si02
#       8
#     8   8   8   8   8   8   8   4
#     4  11  24  40  72 101 138 187 239 305 368 440
#     4  12  29  49  76 111 156 202 251 312 386 458
#     4  11  24  43  70 101 137 182 241 302 366 438
#     4  10  24  48  67 100 141 188 242 299 369 446
#     4  11  25  44  69 103 146 186 243 301 375 436
#     4  12  24  42  70 107 139 186 239 306 369 443
#     4  11  26  49  73 104 149 195 250 306 374 464
#     4  12  22  38  70 104 138 174 240 298 370 430
#
# _framework density 22.654018000000001
#
# number of rings (size 3 to 8) (size 9 to 14) (size 15 to 20)
#    0.000    0.800    4.667    1.600    7.467    3.200 
#    8.400    0.000    0.000    0.000    0.000    0.000 
#    0.000    0.000    0.000    0.000    0.000    0.000 
#
# Total GULP energy -167141.469066 kJ/mol
# GULP energy per Si atom -5571.382302 kJ/mol
# Density = 2.260246 g / cm^3
# Si number density = 22.654018 Si / 1000 Ang^3
#
#
#
# Elastic Constant Matrix: (Units=GPa)
#
#
# Indices 1 2 3 4 5 6 
#
# 1 66.4086 37.5939 0.6658 0.0000 0.0000 0.0000
# 2 37.5939 133.7329 19.4695 0.0000 0.0000 0.0000
# 3 0.6658 19.4695 58.6220 0.0000 0.0000 0.0000
# 4 0.0000 0.0000 0.0000 73.5453 0.0000 0.0000
# 5 0.0000 0.0000 0.0000 0.0000 28.5285 0.0000
# 6 0.0000 0.0000 0.0000 0.0000 0.0000 14.7545
#
#
#
# Elastic Compliance Matrix: (Units=1/GPa)
#
#
# Indices 1 2 3 4 5 6 
#
# 1 0.018042 -0.005298 0.001555 0.000000 0.000000 0.000000
# 2 -0.005298 0.009413 -0.003066 0.000000 0.000000 0.000000
# 3 0.001555 -0.003066 0.018059 0.000000 0.000000 0.000000
# 4 0.000000 0.000000 0.000000 0.013597 0.000000 0.000000
# 5 0.000000 0.000000 0.000000 0.000000 0.035053 0.000000
# 6 0.000000 0.000000 0.000000 0.000000 0.000000 0.067776
#
#
# Mechanical properties :
#
#
# Convention : Reuss Voigt Hill
#
# Bulk Modulus (GPa) = 31.35266 41.58019 36.46642
# Shear Modulus (GPa) = 26.85412 36.76795 31.81103
#
# Velocity S-wave (km/s) = 3.44670 4.03304 3.75135
# Velocity P-wave (km/s) = 5.45064 6.33100 5.90724
#
# Compressibility (1/GPa) = 0.03189522
#
# Stress axis : x y z
#
# Youngs Moduli (GPa) = 55.42624 106.23211 55.37368
#
# Poissons Ratio (x) = 0.56283 -0.08609
# Poissons Ratio (y) = 0.29366 0.16979
# Poissons Ratio (z) = -0.08617 0.32573
#
# Static dielectric constant tensor:
#      x y z
#    x 1.851000 0.000000 0.000000 
#    y 0.000000 1.795480 0.000000 
#    z 0.000000 0.000000 1.891670 
# 
# From -- ./inp_files/26246.got.cif
#   From: 2010.05.17/outbox.cif.g08.bks.cpg/sg20_14_cif.got.tgz:26246.got - 2010.06.03 22:52:26.
