data_PCOD9321338
_publ_section_title
;
Structure prediction by ZEFSAII (Michael W. Deem and Ramdas Pophale) SiO2 
 PCOD9321338
Probable space group: C 2 2 21
;
_chemical_formula_sum "Si O2"
_cell_formula_units_Z 60
_cell_length_a 22.703249
_cell_length_b 5.440962
_cell_length_c 23.367033
_cell_angle_alpha 90.000000
_cell_angle_beta 90.000000
_cell_angle_gamma 90.000000
_cell_volume 2886.471521
_symmetry_space_group_name_H-M "C 2 2 21"
_symmetry_group_IT_number 20
_symmetry_cell_setting 'orthorhombic'
loop_
_space_group_symop_operation_xyz
x,y,z
-x,-y,1/2+z
x,-y,-z
-x,y,1/2-z
1/2+x,1/2+y,z
1/2-x,1/2-y,1/2+z
1/2+x,1/2-y,-z
1/2-x,1/2+y,1/2-z
loop_
_atom_site_type_symbol
_atom_site_label
_atom_site_fract_x
_atom_site_fract_y
_atom_site_fract_z
Si Si1 0.633534 0.658871 0.362517
Si Si2 0.249504 0.373163 0.787867
Si Si3 0.083644 0.866187 0.941100
Si Si4 0.030414 0.776921 0.153197
Si Si5 0.938040 0.842755 0.748922
Si Si6 0.086478 0.667967 0.403816
Si Si7 0.494233 0.000000 0.000000
Si Si8 0.863635 0.405140 0.343607
O O1 0.695149 0.662576 0.329485
O O2 0.583986 0.634314 0.313017
O O3 0.625858 0.410697 0.398902
O O4 0.621122 0.913017 0.395287
O O5 0.241199 0.120222 0.751395
O O6 0.192824 0.436688 0.827089
O O7 0.136218 0.761196 0.900899
O O8 0.037525 0.660305 0.961294
O O9 0.046200 0.038705 0.898753
O O10 0.102772 0.000000 0.000000
O O11 0.078839 0.568897 0.147613
O O12 0.964708 0.679773 0.144690
O O13 0.044119 0.920406 0.211485
O O14 0.882512 0.742194 0.713236
O O15 0.000000 0.693870 0.750000
O O16 0.048909 0.662322 0.461637
#
# Coordination Sequence:
#
# PCOD9321338 Si02
#       8
#     8   8   8   8   8   8   4   8
#     4  12  26  44  65 103 135 188 234 278 341 430
#     4  12  26  49  73  97 142 197 242 286 345 417
#     4  11  21  39  65 104 138 176 234 289 361 425
#     4  11  22  36  63 100 140 174 219 280 365 415
#     4  11  22  36  60  98 143 174 212 288 352 426
#     4  12  25  43  68 100 139 176 231 285 354 423
#     4  12  24  42  70  98 144 184 220 300 362 444
#     4  11  24  40  65 100 135 185 234 288 349 424
#
# _framework density 20.786625999999998
#
# number of rings (size 3 to 8) (size 9 to 14) (size 15 to 20)
#    0.000    0.533    5.333    3.200    3.733    0.533 
#    0.000    0.000    1.467    1.600    0.000    0.000 
#    0.000    0.000    0.000    0.000    0.000    0.000 
#
# Total GULP energy -167555.925026 kJ/mol
# GULP energy per Si atom -5585.197501 kJ/mol
# Density = 2.073931 g / cm^3
# Si number density = 20.786626 Si / 1000 Ang^3
#
#
#
# Elastic Constant Matrix: (Units=GPa)
#
#
# Indices 1 2 3 4 5 6 
#
# 1 64.8671 2.8103 -22.3854 0.0000 0.0000 0.0000
# 2 2.8103 100.0216 15.0484 0.0000 0.0000 0.0000
# 3 -22.3854 15.0484 56.1177 0.0000 0.0000 0.0000
# 4 0.0000 0.0000 0.0000 20.2298 0.0000 0.0000
# 5 0.0000 0.0000 0.0000 0.0000 28.7041 0.0000
# 6 0.0000 0.0000 0.0000 0.0000 0.0000 25.1025
#
#
#
# Elastic Compliance Matrix: (Units=1/GPa)
#
#
# Indices 1 2 3 4 5 6 
#
# 1 0.018139 -0.001665 0.007682 0.000000 0.000000 0.000000
# 2 -0.001665 0.010571 -0.003499 0.000000 0.000000 0.000000
# 3 0.007682 -0.003499 0.021823 0.000000 0.000000 0.000000
# 4 0.000000 0.000000 0.000000 0.049432 0.000000 0.000000
# 5 0.000000 0.000000 0.000000 0.000000 0.034838 0.000000
# 6 0.000000 0.000000 0.000000 0.000000 0.000000 0.039837
#
#
# Mechanical properties :
#
#
# Convention : Reuss Voigt Hill
#
# Bulk Modulus (GPa) = 17.99568 23.55033 20.77300
# Shear Modulus (GPa) = 26.57777 29.84283 28.21030
#
# Velocity S-wave (km/s) = 3.57963 3.79314 3.68793
# Velocity P-wave (km/s) = 5.07554 5.52612 5.30562
#
# Compressibility (1/GPa) = 0.05556890
#
# Stress axis : x y z
#
# Youngs Moduli (GPa) = 55.12836 94.59775 45.82413
#
# Poissons Ratio (x) = 0.15755 -0.35204
# Poissons Ratio (y) = 0.09182 0.16034
# Poissons Ratio (z) = -0.42352 0.33101
#
# Static dielectric constant tensor:
#      x y z
#    x 1.734750 0.000000 0.000000 
#    y 0.000000 1.981050 0.000000 
#    z 0.000000 0.000000 1.710070 
# 
# From -- ./inp_files/29548.got.cif
#   From: 2010.05.17/outbox.cif.g08.bks.cpg/sg20_15_cif.got.tgz:29548.got - 2010.06.03 22:52:26.
