data_PCOD9321449
_publ_section_title
;
Structure prediction by ZEFSAII (Michael W. Deem and Ramdas Pophale) SiO2 
 PCOD9321449
Probable space group: C 2 2 21
;
_chemical_formula_sum "Si O2"
_cell_formula_units_Z 64
_cell_length_a 11.173177
_cell_length_b 20.037559
_cell_length_c 12.889303
_cell_angle_alpha 90.000000
_cell_angle_beta 90.000000
_cell_angle_gamma 90.000000
_cell_volume 2885.698316
_symmetry_space_group_name_H-M "C 2 2 21"
_symmetry_group_IT_number 20
_symmetry_cell_setting 'orthorhombic'
loop_
_space_group_symop_operation_xyz
x,y,z
-x,-y,1/2+z
x,-y,-z
-x,y,1/2-z
1/2+x,1/2+y,z
1/2-x,1/2-y,1/2+z
1/2+x,1/2-y,-z
1/2-x,1/2+y,1/2-z
loop_
_atom_site_type_symbol
_atom_site_label
_atom_site_fract_x
_atom_site_fract_y
_atom_site_fract_z
Si Si1 0.425525 0.670209 0.643739
Si Si2 0.276557 0.546943 0.598239
Si Si3 0.404854 0.136031 0.014969
Si Si4 0.635646 0.989569 0.207056
Si Si5 0.198453 0.749798 0.727252
Si Si6 0.130376 0.369954 0.739201
Si Si7 0.338829 0.853958 0.415484
Si Si8 0.881195 0.218325 0.014941
O O1 0.500000 0.671604 0.750000
O O2 0.386902 0.595605 0.616513
O O3 0.306167 0.712023 0.666783
O O4 0.501803 0.697921 0.548350
O O5 0.297229 0.500000 0.500000
O O6 0.162056 0.593060 0.570259
O O7 0.238210 0.514784 0.705787
O O8 0.395928 0.269990 0.862032
O O9 0.540026 0.149777 0.981573
O O10 0.384139 0.099965 0.123837
O O11 0.500000 0.977491 0.250000
O O12 0.638260 0.068647 0.180367
O O13 0.664271 0.929904 0.127591
O O14 0.261058 0.819082 0.759292
O O15 0.159648 0.698647 0.817970
O O16 0.153780 0.291426 0.526974
O O17 0.000000 0.334336 0.750000
O O18 0.224633 0.832352 0.483928
#
# Coordination Sequence:
#
# PCOD9321449 Si02
#       8
#     8   8   8   8   8   8   8   8
#     4  12  23  46  72  98 143 193 241 286 361 439
#     4  12  24  43  69  98 134 185 237 288 359 437
#     4  12  23  41  69 103 141 181 239 301 359 430
#     4  11  22  41  66 100 137 179 229 300 365 426
#     4  12  24  44  69 107 143 190 237 301 363 430
#     4  11  23  41  65 100 146 184 227 294 372 425
#     4  12  24  42  72 108 143 189 247 301 369 438
#     4  12  24  41  70 107 142 183 239 296 356 431
#
# _framework density 22.178341
#
# number of rings (size 3 to 8) (size 9 to 14) (size 15 to 20)
#    0.000    0.250    7.500    2.625    0.000    0.000 
#    0.000    4.375    0.000    0.000    0.000    0.000 
#    0.000    0.000    0.000    0.000    0.000    0.000 
#
# Total GULP energy -178828.622944 kJ/mol
# GULP energy per Si atom -5588.394467 kJ/mol
# Density = 2.212786 g / cm^3
# Si number density = 22.178341 Si / 1000 Ang^3
#
#
#
# Elastic Constant Matrix: (Units=GPa)
#
#
# Indices 1 2 3 4 5 6 
#
# 1 50.1013 28.0205 28.6888 0.0000 0.0000 0.0000
# 2 28.0205 127.3454 26.1147 0.0000 0.0000 0.0000
# 3 28.6888 26.1147 80.6256 0.0000 0.0000 0.0000
# 4 0.0000 0.0000 0.0000 41.1372 0.0000 0.0000
# 5 0.0000 0.0000 0.0000 0.0000 42.0087 0.0000
# 6 0.0000 0.0000 0.0000 0.0000 0.0000 30.8365
#
#
#
# Elastic Compliance Matrix: (Units=1/GPa)
#
#
# Indices 1 2 3 4 5 6 
#
# 1 0.027069 -0.004264 -0.008251 0.000000 0.000000 0.000000
# 2 -0.004264 0.009083 -0.001425 0.000000 0.000000 0.000000
# 3 -0.008251 -0.001425 0.015800 0.000000 0.000000 0.000000
# 4 0.000000 0.000000 0.000000 0.024309 0.000000 0.000000
# 5 0.000000 0.000000 0.000000 0.000000 0.023805 0.000000
# 6 0.000000 0.000000 0.000000 0.000000 0.000000 0.032429
#
#
# Mechanical properties :
#
#
# Convention : Reuss Voigt Hill
#
# Bulk Modulus (GPa) = 41.54006 47.08005 44.31006
# Shear Modulus (GPa) = 29.69152 34.47970 32.08561
#
# Velocity S-wave (km/s) = 3.66288 3.94719 3.80769
# Velocity P-wave (km/s) = 6.05472 6.48443 6.27325
#
# Compressibility (1/GPa) = 0.02407315
#
# Stress axis : x y z
#
# Youngs Moduli (GPa) = 36.94285 110.09468 63.28999
#
# Poissons Ratio (x) = 0.46946 0.52218
# Poissons Ratio (y) = 0.15753 0.09017
# Poissons Ratio (z) = 0.30480 0.15685
#
# Static dielectric constant tensor:
#      x y z
#    x 1.810740 0.000000 0.000000 
#    y 0.000000 1.851730 0.000000 
#    z 0.000000 0.000000 1.907160 
# 
# From -- ./inp_files/20261.got.cif
#   From: 2010.05.17/outbox.cif.g08.bks.cpg/sg20_11_cif.got.tgz:20261.got - 2010.06.03 22:52:26.
