data_PCOD9321007
_publ_section_title
;
Structure prediction by ZEFSAII (Michael W. Deem and Ramdas Pophale) SiO2 
 PCOD9321007
Probable space group: C 2 2 21
;
_chemical_formula_sum "Si O2"
_cell_formula_units_Z 28
_cell_length_a 11.079282
_cell_length_b 12.168074
_cell_length_c 9.215658
_cell_angle_alpha 90.000000
_cell_angle_beta 90.000000
_cell_angle_gamma 90.000000
_cell_volume 1242.395324
_symmetry_space_group_name_H-M "C 2 2 21"
_symmetry_group_IT_number 20
_symmetry_cell_setting 'orthorhombic'
loop_
_space_group_symop_operation_xyz
x,y,z
-x,-y,1/2+z
x,-y,-z
-x,y,1/2-z
1/2+x,1/2+y,z
1/2-x,1/2-y,1/2+z
1/2+x,1/2-y,-z
1/2-x,1/2+y,1/2-z
loop_
_atom_site_type_symbol
_atom_site_label
_atom_site_fract_x
_atom_site_fract_y
_atom_site_fract_z
Si Si1 0.556590 0.094263 0.595036
Si Si2 0.483033 0.500000 0.000000
Si Si3 0.664789 0.305555 0.498556
Si Si4 0.813990 0.864055 0.337750
O O1 0.500000 0.114795 0.750000
O O2 0.567999 0.207010 0.507756
O O3 0.695349 0.062438 0.631612
O O4 0.496794 0.000000 0.500000
O O5 0.393825 0.411637 0.924755
O O6 0.570278 0.572589 0.898369
O O7 0.779738 0.249033 0.575946
O O8 0.684189 0.337165 0.332106
#
# Coordination Sequence:
#
# PCOD9321007 Si02
#       4
#     8   4   8   8
#     4  10  24  47  71 104 147 194 241 305 367 444
#     4  12  24  46  76 108 148 200 248 302 374 440
#     4  10  26  43  75 110 143 197 242 310 365 446
#     4  10  24  47  68 109 149 187 247 304 367 437
#
# _framework density 22.537109000000001
#
# number of rings (size 3 to 8) (size 9 to 14) (size 15 to 20)
#    1.714    0.000    1.429    0.857    4.000   11.429 
#    2.571    0.000    0.000    0.000    0.000    0.000 
#    0.000    0.000    0.000    0.000    0.000    0.000 
#
# Total GULP energy -78055.903454 kJ/mol
# GULP energy per Si atom -5575.421675 kJ/mol
# Density = 2.248581 g / cm^3
# Si number density = 22.537109 Si / 1000 Ang^3
#
#
#
# Elastic Constant Matrix: (Units=GPa)
#
#
# Indices 1 2 3 4 5 6 
#
# 1 81.2502 26.7714 33.9993 0.0000 0.0000 0.0000
# 2 26.7714 120.8923 35.0117 0.0000 0.0000 0.0000
# 3 33.9993 35.0117 125.1998 0.0000 0.0000 0.0000
# 4 0.0000 0.0000 0.0000 40.1372 0.0000 0.0000
# 5 0.0000 0.0000 0.0000 0.0000 36.0411 0.0000
# 6 0.0000 0.0000 0.0000 0.0000 0.0000 46.4630
#
#
#
# Elastic Compliance Matrix: (Units=1/GPa)
#
#
# Indices 1 2 3 4 5 6 
#
# 1 0.014423 -0.002241 -0.003290 0.000000 0.000000 0.000000
# 2 -0.002241 0.009349 -0.002006 0.000000 0.000000 0.000000
# 3 -0.003290 -0.002006 0.009442 0.000000 0.000000 0.000000
# 4 0.000000 0.000000 0.000000 0.024915 0.000000 0.000000
# 5 0.000000 0.000000 0.000000 0.000000 0.027746 0.000000
# 6 0.000000 0.000000 0.000000 0.000000 0.000000 0.021522
#
#
# Mechanical properties :
#
#
# Convention : Reuss Voigt Hill
#
# Bulk Modulus (GPa) = 55.12789 57.65634 56.39211
# Shear Modulus (GPa) = 38.90542 39.96559 39.43551
#
# Velocity S-wave (km/s) = 4.15936 4.21565 4.18760
# Velocity P-wave (km/s) = 6.89791 7.02382 6.96115
#
# Compressibility (1/GPa) = 0.01813964
#
# Stress axis : x y z
#
# Youngs Moduli (GPa) = 69.33481 106.96308 105.91460
#
# Poissons Ratio (x) = 0.23971 0.34845
# Poissons Ratio (y) = 0.15539 0.21245
# Poissons Ratio (z) = 0.22811 0.21455
#
# Static dielectric constant tensor:
#      x y z
#    x 1.911190 0.000000 0.000000 
#    y 0.000000 1.807390 0.000000 
#    z 0.000000 0.000000 1.816810 
# 
# From -- ./inp_files/7787.got.cif
#   From: 2010.05.17/outbox.cif.g08.bks.cpg/sg20_4_cif.got.tgz:7787.got - 2010.06.03 22:52:26.
