data_PCOD9321128
_publ_section_title
;
Structure prediction by ZEFSAII (Michael W. Deem and Ramdas Pophale) SiO2 
 PCOD9321128
Probable space group: C 2 2 21
;
_chemical_formula_sum "Si O2"
_cell_formula_units_Z 48
_cell_length_a 8.995784
_cell_length_b 12.904390
_cell_length_c 18.080405
_cell_angle_alpha 90.000000
_cell_angle_beta 90.000000
_cell_angle_gamma 90.000000
_cell_volume 2098.865715
_symmetry_space_group_name_H-M "C 2 2 21"
_symmetry_group_IT_number 20
_symmetry_cell_setting 'orthorhombic'
loop_
_space_group_symop_operation_xyz
x,y,z
-x,-y,1/2+z
x,-y,-z
-x,y,1/2-z
1/2+x,1/2+y,z
1/2-x,1/2-y,1/2+z
1/2+x,1/2-y,-z
1/2-x,1/2+y,1/2-z
loop_
_atom_site_type_symbol
_atom_site_label
_atom_site_fract_x
_atom_site_fract_y
_atom_site_fract_z
Si Si1 0.753062 0.320339 0.500096
Si Si2 0.069185 0.722977 0.140783
Si Si3 0.000000 0.275226 0.250000
Si Si4 0.698627 0.541181 0.876826
Si Si5 0.977577 0.000000 0.000000
Si Si6 0.452140 0.156331 0.914427
Si Si7 0.216687 0.648120 0.290304
O O1 0.631807 0.406431 0.483568
O O2 0.647966 0.228896 0.531879
O O3 0.877958 0.323831 0.436493
O O4 0.860549 0.334570 0.571005
O O5 0.893569 0.701712 0.149769
O O6 0.121187 0.845077 0.138151
O O7 0.138853 0.667618 0.212033
O O8 0.940373 0.329481 0.175273
O O9 0.130337 0.207078 0.216849
O O10 0.740697 0.469973 0.807708
O O11 0.855492 0.552191 0.920019
O O12 0.582847 0.481361 0.929662
#
# Coordination Sequence:
#
# PCOD9321128 Si02
#       7
#     8   8   4   8   4   8   8
#     4  11  24  48  72 111 144 200 260 316 385 477
#     4  10  25  50  73 110 152 207 256 325 396 470
#     4  12  24  46  68 116 144 198 252 318 388 462
#     4  11  26  49  75 112 154 205 255 329 399 469
#     4  12  28  44  72 116 146 204 264 324 398 466
#     4  11  26  46  77 106 154 200 256 313 404 463
#     4  11  25  46  75 109 152 195 259 322 389 483
#
# _framework density 22.869495000000001
#
# number of rings (size 3 to 8) (size 9 to 14) (size 15 to 20)
#    0.000    1.000    3.333    3.000    9.333    2.667 
#    0.000    0.000    0.000    0.000    0.000    0.000 
#    0.000    0.000    0.000    0.000    0.000    0.000 
#
# Total GULP energy -133729.688168 kJ/mol
# GULP energy per Si atom -5572.070340 kJ/mol
# Density = 2.281744 g / cm^3
# Si number density = 22.869495 Si / 1000 Ang^3
#
#
#
# Elastic Constant Matrix: (Units=GPa)
#
#
# Indices 1 2 3 4 5 6 
#
# 1 172.6458 42.4276 32.2405 0.0000 0.0000 0.0000
# 2 42.4276 51.1360 37.2056 0.0000 0.0000 0.0000
# 3 32.2405 37.2056 93.6799 0.0000 0.0000 0.0000
# 4 0.0000 0.0000 0.0000 32.7375 0.0000 0.0000
# 5 0.0000 0.0000 0.0000 0.0000 29.8693 0.0000
# 6 0.0000 0.0000 0.0000 0.0000 0.0000 20.4441
#
#
#
# Elastic Compliance Matrix: (Units=1/GPa)
#
#
# Indices 1 2 3 4 5 6 
#
# 1 0.007277 -0.005929 -0.000150 0.000000 0.000000 0.000000
# 2 -0.005929 0.032334 -0.010801 0.000000 0.000000 0.000000
# 3 -0.000150 -0.010801 0.015016 0.000000 0.000000 0.000000
# 4 0.000000 0.000000 0.000000 0.030546 0.000000 0.000000
# 5 0.000000 0.000000 0.000000 0.000000 0.033479 0.000000
# 6 0.000000 0.000000 0.000000 0.000000 0.000000 0.048914
#
#
# Mechanical properties :
#
#
# Convention : Reuss Voigt Hill
#
# Bulk Modulus (GPa) = 47.92210 60.13436 54.02823
# Shear Modulus (GPa) = 24.00601 30.31602 27.16102
#
# Velocity S-wave (km/s) = 3.24342 3.64484 3.44997
# Velocity P-wave (km/s) = 5.91831 6.63813 6.28853
#
# Compressibility (1/GPa) = 0.02086720
#
# Stress axis : x y z
#
# Youngs Moduli (GPa) = 137.41526 30.92760 66.59610
#
# Poissons Ratio (x) = 0.18337 0.00997
# Poissons Ratio (y) = 0.81473 0.71931
# Poissons Ratio (z) = 0.02058 0.33405
#
# Static dielectric constant tensor:
#      x y z
#    x 1.980020 0.000000 0.000000 
#    y 0.000000 2.017840 0.000000 
#    z 0.000000 0.000000 2.151330 
# 
# From -- ./inp_files/23516.got.cif
#   From: 2010.05.17/outbox.cif.g08.bks.cpg/sg20_12_cif.got.tgz:23516.got - 2010.06.03 22:52:26.
