data_PCOD9321085
_publ_section_title
;
Structure prediction by ZEFSAII (Michael W. Deem and Ramdas Pophale) SiO2 
 PCOD9321085
Probable space group: C 2 2 21
;
_chemical_formula_sum "Si O2"
_cell_formula_units_Z 40
_cell_length_a 8.467539
_cell_length_b 17.658606
_cell_length_c 13.130495
_cell_angle_alpha 90.000000
_cell_angle_beta 90.000000
_cell_angle_gamma 90.000000
_cell_volume 1963.336411
_symmetry_space_group_name_H-M "C 2 2 21"
_symmetry_group_IT_number 20
_symmetry_cell_setting 'orthorhombic'
loop_
_space_group_symop_operation_xyz
x,y,z
-x,-y,1/2+z
x,-y,-z
-x,y,1/2-z
1/2+x,1/2+y,z
1/2-x,1/2-y,1/2+z
1/2+x,1/2-y,-z
1/2-x,1/2+y,1/2-z
loop_
_atom_site_type_symbol
_atom_site_label
_atom_site_fract_x
_atom_site_fract_y
_atom_site_fract_z
Si Si1 0.500000 0.127865 0.250000
Si Si2 0.674605 0.150952 0.789155
Si Si3 0.844338 0.845607 0.422395
Si Si4 0.802561 0.513296 0.387292
Si Si5 0.140497 0.736294 0.418110
Si Si6 0.506861 0.500000 0.000000
O O1 0.598557 0.180451 0.325836
O O2 0.387537 0.076527 0.320860
O O3 0.500000 0.167468 0.750000
O O4 0.796502 0.157201 0.695590
O O5 0.683767 0.065639 0.829304
O O6 0.724387 0.207182 0.878534
O O7 0.699916 0.813063 0.487879
O O8 0.991827 0.789946 0.440335
O O9 0.892710 0.929998 0.457633
O O10 0.876502 0.500000 0.500000
O O11 0.618035 0.528771 0.413761
#
# Coordination Sequence:
#
# PCOD9321085 Si02
#       6
#     4   8   8   8   8   4
#     4  12  26  44  72 106 140 186 236 296 354 428
#     4  12  25  47  74 101 142 192 232 295 358 421
#     4  12  27  46  73 106 145 187 239 289 361 423
#     4  10  25  44  70 101 143 181 238 292 353 422
#     4  12  27  46  71 108 146 184 236 296 354 426
#     4  10  26  46  74 100 144 188 234 304 338 432
#
# _framework density 20.373481000000002
#
# number of rings (size 3 to 8) (size 9 to 14) (size 15 to 20)
#    0.600    0.000    5.000    1.200   11.200    1.600 
#    0.000    0.000    0.000    0.000    0.000    0.000 
#    0.000    0.000    0.000    0.000    0.000    0.000 
#
# Total GULP energy -111837.614655 kJ/mol
# GULP energy per Si atom -5591.880733 kJ/mol
# Density = 2.032711 g / cm^3
# Si number density = 20.373481 Si / 1000 Ang^3
#
#
#
# Elastic Constant Matrix: (Units=GPa)
#
#
# Indices 1 2 3 4 5 6 
#
# 1 66.7618 20.9828 11.0523 0.0000 0.0000 0.0000
# 2 20.9828 92.3848 11.6065 0.0000 0.0000 0.0000
# 3 11.0523 11.6065 51.1381 0.0000 0.0000 0.0000
# 4 0.0000 0.0000 0.0000 27.4875 0.0000 0.0000
# 5 0.0000 0.0000 0.0000 0.0000 35.6607 0.0000
# 6 0.0000 0.0000 0.0000 0.0000 0.0000 26.3554
#
#
#
# Elastic Compliance Matrix: (Units=1/GPa)
#
#
# Indices 1 2 3 4 5 6 
#
# 1 0.016510 -0.003398 -0.002797 0.000000 0.000000 0.000000
# 2 -0.003398 0.011842 -0.001953 0.000000 0.000000 0.000000
# 3 -0.002797 -0.001953 0.020603 0.000000 0.000000 0.000000
# 4 0.000000 0.000000 0.000000 0.036380 0.000000 0.000000
# 5 0.000000 0.000000 0.000000 0.000000 0.028042 0.000000
# 6 0.000000 0.000000 0.000000 0.000000 0.000000 0.037943
#
#
# Mechanical properties :
#
#
# Convention : Reuss Voigt Hill
#
# Bulk Modulus (GPa) = 30.62115 33.06310 31.84212
# Shear Modulus (GPa) = 28.01097 29.01027 28.51062
#
# Velocity S-wave (km/s) = 3.71195 3.77758 3.74491
# Velocity P-wave (km/s) = 5.78221 5.94059 5.86194
#
# Compressibility (1/GPa) = 0.03265717
#
# Stress axis : x y z
#
# Youngs Moduli (GPa) = 60.57031 84.44862 48.53742
#
# Poissons Ratio (x) = 0.28699 0.13575
# Poissons Ratio (y) = 0.20584 0.09480
# Poissons Ratio (z) = 0.16941 0.16494
#
# Static dielectric constant tensor:
#      x y z
#    x 1.731000 0.000000 0.000000 
#    y 0.000000 1.669740 0.000000 
#    z 0.000000 0.000000 1.708380 
# 
# From -- ./inp_files/12760.got.cif
#   From: 2010.05.17/outbox.cif.g08.bks.cpg/sg20_7_cif.got.tgz:12760.got - 2010.06.03 22:52:26.
