data_PCOD9321448
_publ_section_title
;
Structure prediction by ZEFSAII (Michael W. Deem and Ramdas Pophale) SiO2 
 PCOD9321448
Probable space group: C 2 2 21
;
_chemical_formula_sum "Si O2"
_cell_formula_units_Z 40
_cell_length_a 14.548111
_cell_length_b 13.619139
_cell_length_c 8.303799
_cell_angle_alpha 90.000000
_cell_angle_beta 90.000000
_cell_angle_gamma 90.000000
_cell_volume 1645.254497
_symmetry_space_group_name_H-M "C 2 2 21"
_symmetry_group_IT_number 20
_symmetry_cell_setting 'orthorhombic'
loop_
_space_group_symop_operation_xyz
x,y,z
-x,-y,1/2+z
x,-y,-z
-x,y,1/2-z
1/2+x,1/2+y,z
1/2-x,1/2-y,1/2+z
1/2+x,1/2-y,-z
1/2-x,1/2+y,1/2-z
loop_
_atom_site_type_symbol
_atom_site_label
_atom_site_fract_x
_atom_site_fract_y
_atom_site_fract_z
Si Si1 0.460689 0.287435 0.427034
Si Si2 0.288610 0.817468 0.674466
Si Si3 0.363640 0.810606 0.041741
Si Si4 0.405248 0.506234 0.702691
Si Si5 0.789285 0.000000 0.000000
Si Si6 0.736024 0.000000 0.500000
O O1 0.500000 0.263804 0.250000
O O2 0.361304 0.240163 0.436713
O O3 0.533564 0.232639 0.540511
O O4 0.442365 0.404637 0.409954
O O5 0.327134 0.810582 0.855547
O O6 0.193548 0.760841 0.654859
O O7 0.273333 0.921250 0.588793
O O8 0.330556 0.921183 0.084436
O O9 0.500000 0.450771 0.750000
O O10 0.358607 0.547700 0.867670
O O11 0.313265 0.459276 0.625520
#
# Coordination Sequence:
#
# PCOD9321448 Si02
#       6
#     8   8   8   8   4   4
#     4   9  20  40  64  87 127 177 206 269 338 387
#     4  11  22  41  63  94 128 174 221 277 333 396
#     4  11  24  42  69  91 133 175 223 274 344 394
#     4  11  22  41  65  94 133 171 221 276 334 387
#     4  12  23  37  66  98 130 174 224 282 330 400
#     4  12  23  43  66 100 130 178 226 276 326 414
#
# _framework density 24.312349999999999
#
# number of rings (size 3 to 8) (size 9 to 14) (size 15 to 20)
#    0.000    1.200    4.000    4.200    0.000    0.800 
#    0.000    1.000    0.000    0.000    0.000    0.000 
#    0.000    0.000    0.000    0.000    0.000    0.000 
#
# Total GULP energy -111455.810060 kJ/mol
# GULP energy per Si atom -5572.790503 kJ/mol
# Density = 2.425701 g / cm^3
# Si number density = 24.312350 Si / 1000 Ang^3
#
#
#
# Elastic Constant Matrix: (Units=GPa)
#
#
# Indices 1 2 3 4 5 6 
#
# 1 83.3006 -4.2733 -11.0763 0.0000 0.0000 0.0000
# 2 -4.2733 80.1302 -2.3302 0.0000 0.0000 0.0000
# 3 -11.0763 -2.3302 42.8536 0.0000 0.0000 0.0000
# 4 0.0000 0.0000 0.0000 17.6374 0.0000 0.0000
# 5 0.0000 0.0000 0.0000 0.0000 27.5857 0.0000
# 6 0.0000 0.0000 0.0000 0.0000 0.0000 41.1206
#
#
#
# Elastic Compliance Matrix: (Units=1/GPa)
#
#
# Indices 1 2 3 4 5 6 
#
# 1 0.012478 0.000760 0.003267 0.000000 0.000000 0.000000
# 2 0.000760 0.012546 0.000879 0.000000 0.000000 0.000000
# 3 0.003267 0.000879 0.024227 0.000000 0.000000 0.000000
# 4 0.000000 0.000000 0.000000 0.056698 0.000000 0.000000
# 5 0.000000 0.000000 0.000000 0.000000 0.036251 0.000000
# 6 0.000000 0.000000 0.000000 0.000000 0.000000 0.024319
#
#
# Mechanical properties :
#
#
# Convention : Reuss Voigt Hill
#
# Bulk Modulus (GPa) = 16.93116 18.99162 17.96139
# Shear Modulus (GPa) = 28.34555 32.19968 30.27261
#
# Velocity S-wave (km/s) = 3.41822 3.64320 3.53250
# Velocity P-wave (km/s) = 4.74954 5.05230 4.90325
#
# Compressibility (1/GPa) = 0.05906271
#
# Stress axis : x y z
#
# Youngs Moduli (GPa) = 80.14053 79.70795 41.27570
#
# Poissons Ratio (x) = -0.06061 -0.13483
# Poissons Ratio (y) = -0.06094 -0.03627
# Poissons Ratio (z) = -0.26178 -0.07004
#
# Static dielectric constant tensor:
#      x y z
#    x 1.897390 0.000000 0.000000 
#    y 0.000000 1.997810 0.000000 
#    z 0.000000 0.000000 2.144150 
# 
# From -- ./inp_files/8178.got.cif
#   From: 2010.05.17/outbox.cif.g08.bks.cpg/sg20_5_cif.got.tgz:8178.got - 2010.06.03 22:52:26.
