data_PCOD9321277
_publ_section_title
;
Structure prediction by ZEFSAII (Michael W. Deem and Ramdas Pophale) SiO2 
 PCOD9321277
Probable space group: C 2 2 21
;
_chemical_formula_sum "Si O2"
_cell_formula_units_Z 40
_cell_length_a 8.002751
_cell_length_b 17.646092
_cell_length_c 13.103977
_cell_angle_alpha 90.000000
_cell_angle_beta 90.000000
_cell_angle_gamma 90.000000
_cell_volume 1850.507994
_symmetry_space_group_name_H-M "C 2 2 21"
_symmetry_group_IT_number 20
_symmetry_cell_setting 'orthorhombic'
loop_
_space_group_symop_operation_xyz
x,y,z
-x,-y,1/2+z
x,-y,-z
-x,y,1/2-z
1/2+x,1/2+y,z
1/2-x,1/2-y,1/2+z
1/2+x,1/2-y,-z
1/2-x,1/2+y,1/2-z
loop_
_atom_site_type_symbol
_atom_site_label
_atom_site_fract_x
_atom_site_fract_y
_atom_site_fract_z
Si Si1 0.057515 0.868374 0.638506
Si Si2 0.404660 0.203195 0.660240
Si Si3 0.414700 0.838282 0.566461
Si Si4 0.639794 0.315747 0.182318
Si Si5 0.749600 0.912380 0.505814
O O1 0.012503 0.778036 0.634587
O O2 0.931248 0.904112 0.557370
O O3 0.000000 0.894538 0.750000
O O4 0.254520 0.877901 0.618848
O O5 0.500000 0.157560 0.750000
O O6 0.370084 0.164128 0.554058
O O7 0.242104 0.223406 0.725030
O O8 0.420590 0.753514 0.611619
O O9 0.600124 0.872946 0.569630
O O10 0.500000 0.357775 0.250000
O O11 0.734006 0.370880 0.103787
O O12 0.706203 0.000000 0.500000
#
# Coordination Sequence:
#
# PCOD9321277 Si02
#       5
#     8   8   8   8   8
#     4  11  23  41  68 101 138 179 231 294 349 417
#     4  11  20  39  66 105 133 169 237 296 335 412
#     4  12  23  43  73 102 138 182 237 300 348 417
#     4  12  24  41  75 103 136 186 245 297 355 416
#     4  12  28  46  66 104 147 185 234 291 363 435
#
# _framework density 21.615687000000001
#
# number of rings (size 3 to 8) (size 9 to 14) (size 15 to 20)
#    0.000    0.400    8.000    2.400    0.000    1.600 
#    0.000    4.000    0.000    0.000    0.000    0.000 
#    0.000    0.000    0.000    0.000    0.000    0.000 
#
# Total GULP energy -111516.240087 kJ/mol
# GULP energy per Si atom -5575.812004 kJ/mol
# Density = 2.156649 g / cm^3
# Si number density = 21.615687 Si / 1000 Ang^3
#
#
#
# Elastic Constant Matrix: (Units=GPa)
#
#
# Indices 1 2 3 4 5 6 
#
# 1 101.5605 23.6562 37.3659 0.0000 0.0000 0.0000
# 2 23.6562 67.3897 1.7491 0.0000 0.0000 0.0000
# 3 37.3659 1.7491 104.9021 0.0000 0.0000 0.0000
# 4 0.0000 0.0000 0.0000 -1.9017 0.0000 0.0000
# 5 0.0000 0.0000 0.0000 0.0000 57.3160 0.0000
# 6 0.0000 0.0000 0.0000 0.0000 0.0000 5.7136
#
#
#
# Elastic Compliance Matrix: (Units=1/GPa)
#
#
# Indices 1 2 3 4 5 6 
#
# 1 0.012442 -0.004254 -0.004361 0.000000 0.000000 0.000000
# 2 -0.004254 0.016300 0.001244 0.000000 0.000000 0.000000
# 3 -0.004361 0.001244 0.011065 0.000000 0.000000 0.000000
# 4 0.000000 0.000000 0.000000 -0.525854 0.000000 0.000000
# 5 0.000000 0.000000 0.000000 0.000000 0.017447 0.000000
# 6 0.000000 0.000000 0.000000 0.000000 0.000000 0.175021
#
#
# Mechanical properties :
#
#
# Convention : Reuss Voigt Hill
#
# Bulk Modulus (GPa) = 39.89755 44.37720 42.13737
# Shear Modulus (GPa) = -18.48558 26.29765 3.90604
#
# Velocity S-wave (km/s) = -2.92754 3.49176 1.34572
# Velocity P-wave (km/s) = 2.65903 6.06887 4.68517
#
# Compressibility (1/GPa) = 0.02506420
#
# Stress axis : x y z
#
# Youngs Moduli (GPa) = 80.37488 61.34891 90.37289
#
# Poissons Ratio (x) = 0.26100 0.39410
# Poissons Ratio (y) = 0.34194 -0.11239
# Poissons Ratio (z) = 0.35050 -0.07629
#
# Static dielectric constant tensor:
#      x y z
#    x 1.987910 0.000000 0.000000 
#    y 0.000000 1.751890 0.000000 
#    z 0.000000 0.000000 1.824990 
# 
# From -- ./inp_files/12883.got.cif
#   From: 2010.05.17/outbox.cif.g08.bks.cpg/sg20_7_cif.got.tgz:12883.got - 2010.06.03 22:52:26.
