data_PCOD9321672
_publ_section_title
;
Structure prediction by ZEFSAII (Michael W. Deem and Ramdas Pophale) SiO2 
 PCOD9321672
Probable space group: C 2 2 21
;
_chemical_formula_sum "Si O2"
_cell_formula_units_Z 40
_cell_length_a 8.918268
_cell_length_b 17.910131
_cell_length_c 12.076952
_cell_angle_alpha 90.000000
_cell_angle_beta 90.000000
_cell_angle_gamma 90.000000
_cell_volume 1929.019517
_symmetry_space_group_name_H-M "C 2 2 21"
_symmetry_group_IT_number 20
_symmetry_cell_setting 'orthorhombic'
loop_
_space_group_symop_operation_xyz
x,y,z
-x,-y,1/2+z
x,-y,-z
-x,y,1/2-z
1/2+x,1/2+y,z
1/2-x,1/2-y,1/2+z
1/2+x,1/2-y,-z
1/2-x,1/2+y,1/2-z
loop_
_atom_site_type_symbol
_atom_site_label
_atom_site_fract_x
_atom_site_fract_y
_atom_site_fract_z
Si Si1 0.863770 0.425980 0.936417
Si Si2 0.341943 0.167376 0.428698
Si Si3 0.650941 0.656646 0.889042
Si Si4 0.690033 0.608351 0.640598
Si Si5 0.326152 0.554333 0.216495
O O1 0.772310 0.448384 0.827435
O O2 0.000616 0.372645 0.904595
O O3 0.918458 0.500000 0.000000
O O4 0.752872 0.382838 0.019571
O O5 0.349941 0.254915 0.407493
O O6 0.298492 0.148573 0.554848
O O7 0.218376 0.127412 0.351956
O O8 0.708506 0.637620 0.765798
O O9 0.481192 0.626088 0.893923
O O10 0.709229 0.519270 0.644770
O O11 0.500000 0.552583 0.250000
#
# Coordination Sequence:
#
# PCOD9321672 Si02
#       5
#     8   8   8   8   8
#     4  12  24  45  69 104 138 176 228 280 344 402
#     4  12  28  41  72 104 142 171 227 295 346 391
#     4  11  25  46  71 100 137 186 223 284 337 416
#     4  11  23  48  69  96 140 185 232 267 344 417
#     4  12  24  45  73 100 132 189 234 272 331 422
#
# _framework density 20.735921999999999
#
# number of rings (size 3 to 8) (size 9 to 14) (size 15 to 20)
#    0.000    0.400    4.000    4.800    8.400    0.800 
#    0.000    0.000    0.000    0.000    0.000    0.000 
#    0.000    0.000    0.000    0.000    0.000    0.000 
#
# Total GULP energy -112043.334514 kJ/mol
# GULP energy per Si atom -5602.166726 kJ/mol
# Density = 2.068873 g / cm^3
# Si number density = 20.735922 Si / 1000 Ang^3
#
#
#
# Elastic Constant Matrix: (Units=GPa)
#
#
# Indices 1 2 3 4 5 6 
#
# 1 47.1166 16.7378 21.9802 0.0000 0.0000 0.0000
# 2 16.7378 128.3597 3.0805 0.0000 0.0000 0.0000
# 3 21.9802 3.0805 54.9062 0.0000 0.0000 0.0000
# 4 0.0000 0.0000 0.0000 27.1305 0.0000 0.0000
# 5 0.0000 0.0000 0.0000 0.0000 35.7469 0.0000
# 6 0.0000 0.0000 0.0000 0.0000 0.0000 -46.0707
#
#
#
# Elastic Compliance Matrix: (Units=1/GPa)
#
#
# Indices 1 2 3 4 5 6 
#
# 1 0.027441 -0.003319 -0.010799 0.000000 0.000000 0.000000
# 2 -0.003319 0.008203 0.000868 0.000000 0.000000 0.000000
# 3 -0.010799 0.000868 0.022487 0.000000 0.000000 0.000000
# 4 0.000000 0.000000 0.000000 0.036859 0.000000 0.000000
# 5 0.000000 0.000000 0.000000 0.000000 0.027974 0.000000
# 6 0.000000 0.000000 0.000000 0.000000 0.000000 -0.021706
#
#
# Mechanical properties :
#
#
# Convention : Reuss Voigt Hill
#
# Bulk Modulus (GPa) = 31.61402 34.88660 33.25031
# Shear Modulus (GPa) = 36.15301 15.93360 26.04330
#
# Velocity S-wave (km/s) = 4.18005 2.77502 3.54778
# Velocity P-wave (km/s) = 6.21097 5.20849 5.73169
#
# Compressibility (1/GPa) = 0.03163154
#
# Stress axis : x y z
#
# Youngs Moduli (GPa) = 36.44209 121.91315 44.46966
#
# Poissons Ratio (x) = 0.40464 0.48023
# Poissons Ratio (y) = 0.12095 -0.03862
# Poissons Ratio (z) = 0.39354 -0.10588
#
# Static dielectric constant tensor:
#      x y z
#    x 1.721810 0.000000 0.000000 
#    y 0.000000 1.706130 0.000000 
#    z 0.000000 0.000000 1.723000 
# 
# From -- ./inp_files/12656.got.cif
#   From: 2010.05.17/outbox.cif.g08.bks.cpg/sg20_7_cif.got.tgz:12656.got - 2010.06.03 22:52:26.
