data_PCOD9321819
_publ_section_title
;
Structure prediction by ZEFSAII (Michael W. Deem and Ramdas Pophale) SiO2 
 PCOD9321819
Probable space group: C 2 2 21
;
_chemical_formula_sum "Si O2"
_cell_formula_units_Z 48
_cell_length_a 19.449677
_cell_length_b 10.723921
_cell_length_c 9.838222
_cell_angle_alpha 90.000000
_cell_angle_beta 90.000000
_cell_angle_gamma 90.000000
_cell_volume 2052.024859
_symmetry_space_group_name_H-M "C 2 2 21"
_symmetry_group_IT_number 20
_symmetry_cell_setting 'orthorhombic'
loop_
_space_group_symop_operation_xyz
x,y,z
-x,-y,1/2+z
x,-y,-z
-x,y,1/2-z
1/2+x,1/2+y,z
1/2-x,1/2-y,1/2+z
1/2+x,1/2-y,-z
1/2-x,1/2+y,1/2-z
loop_
_atom_site_type_symbol
_atom_site_label
_atom_site_fract_x
_atom_site_fract_y
_atom_site_fract_z
Si Si1 0.283317 0.251296 0.666576
Si Si2 0.153994 0.549275 0.646568
Si Si3 0.421273 0.809971 0.751612
Si Si4 0.072614 0.785218 0.547765
Si Si5 0.215884 0.122718 0.425462
Si Si6 0.083237 0.148365 0.019904
O O1 0.255162 0.347983 0.777415
O O2 0.406031 0.150239 0.892335
O O3 0.236868 0.227938 0.535266
O O4 0.357142 0.298123 0.615096
O O5 0.180810 0.500000 0.500000
O O6 0.121557 0.434884 0.727747
O O7 0.205489 0.628131 0.740843
O O8 0.500000 0.852492 0.750000
O O9 0.407783 0.725861 0.620173
O O10 0.416787 0.725296 0.885689
O O11 0.133424 0.877135 0.594077
O O12 0.994287 0.824244 0.573233
O O13 0.240354 0.000000 0.500000
O O14 0.090742 0.000000 0.000000
#
# Coordination Sequence:
#
# PCOD9321819 Si02
#       6
#     8   8   8   8   8   8
#     4  11  28  44  71 109 135 195 236 297 358 423
#     4   9  20  41  68 102 142 180 231 297 351 421
#     4   9  20  37  69 102 141 183 223 290 352 407
#     4   9  21  44  68 104 139 186 234 289 361 414
#     4  11  27  46  71 102 143 192 232 295 359 429
#     4  11  25  43  69 109 143 192 237 294 352 432
#
# _framework density 23.391528000000001
#
# number of rings (size 3 to 8) (size 9 to 14) (size 15 to 20)
#    0.000    2.000    0.000    0.500    9.333    4.667 
#    9.000    2.500    0.000    0.000    0.000    0.000 
#    0.000    0.000    0.000    0.000    0.000    0.000 
#
# Total GULP energy -134214.212234 kJ/mol
# GULP energy per Si atom -5592.258843 kJ/mol
# Density = 2.333829 g / cm^3
# Si number density = 23.391528 Si / 1000 Ang^3
#
#
#
# Elastic Constant Matrix: (Units=GPa)
#
#
# Indices 1 2 3 4 5 6 
#
# 1 88.6762 17.4376 50.4584 0.0000 0.0000 0.0000
# 2 17.4376 112.4644 44.9430 0.0000 0.0000 0.0000
# 3 50.4584 44.9430 132.0386 0.0000 0.0000 0.0000
# 4 0.0000 0.0000 0.0000 30.9931 0.0000 0.0000
# 5 0.0000 0.0000 0.0000 0.0000 32.1129 0.0000
# 6 0.0000 0.0000 0.0000 0.0000 0.0000 21.2539
#
#
#
# Elastic Compliance Matrix: (Units=1/GPa)
#
#
# Indices 1 2 3 4 5 6 
#
# 1 0.014411 -0.000039 -0.005494 0.000000 0.000000 0.000000
# 2 -0.000039 0.010292 -0.003488 0.000000 0.000000 0.000000
# 3 -0.005494 -0.003488 0.010860 0.000000 0.000000 0.000000
# 4 0.000000 0.000000 0.000000 0.032265 0.000000 0.000000
# 5 0.000000 0.000000 0.000000 0.000000 0.031140 0.000000
# 6 0.000000 0.000000 0.000000 0.000000 0.000000 0.047050
#
#
# Mechanical properties :
#
#
# Convention : Reuss Voigt Hill
#
# Bulk Modulus (GPa) = 57.07485 62.09526 59.58506
# Shear Modulus (GPa) = 29.42900 31.56131 30.49515
#
# Velocity S-wave (km/s) = 3.55083 3.67722 3.61457
# Velocity P-wave (km/s) = 6.42370 6.68079 6.55350
#
# Compressibility (1/GPa) = 0.01752085
#
# Stress axis : x y z
#
# Youngs Moduli (GPa) = 69.39292 97.16574 92.07866
#
# Poissons Ratio (x) = 0.00379 0.50586
# Poissons Ratio (y) = 0.00270 0.32119
# Poissons Ratio (z) = 0.38123 0.33893
#
# Static dielectric constant tensor:
#      x y z
#    x 1.913160 0.000000 0.000000 
#    y 0.000000 1.913500 0.000000 
#    z 0.000000 0.000000 1.894910 
# 
# From -- ./inp_files/9344.got.cif
#   From: 2010.05.17/outbox.cif.g08.bks.cpg/sg20_5_cif.got.tgz:9344.got - 2010.06.03 22:52:26.
