data_PCOD9321671
_publ_section_title
;
Structure prediction by ZEFSAII (Michael W. Deem and Ramdas Pophale) SiO2 
 PCOD9321671
Probable space group: C 2 2 21
;
_chemical_formula_sum "Si O2"
_cell_formula_units_Z 48
_cell_length_a 17.806897
_cell_length_b 8.909891
_cell_length_c 12.958119
_cell_angle_alpha 90.000000
_cell_angle_beta 90.000000
_cell_angle_gamma 90.000000
_cell_volume 2055.902912
_symmetry_space_group_name_H-M "C 2 2 21"
_symmetry_group_IT_number 20
_symmetry_cell_setting 'orthorhombic'
loop_
_space_group_symop_operation_xyz
x,y,z
-x,-y,1/2+z
x,-y,-z
-x,y,1/2-z
1/2+x,1/2+y,z
1/2-x,1/2-y,1/2+z
1/2+x,1/2-y,-z
1/2-x,1/2+y,1/2-z
loop_
_atom_site_type_symbol
_atom_site_label
_atom_site_fract_x
_atom_site_fract_y
_atom_site_fract_z
Si Si1 0.771747 0.875037 0.774835
Si Si2 0.597488 0.155446 0.973143
Si Si3 0.361618 0.083541 0.756455
Si Si4 0.646882 0.608720 0.581814
Si Si5 0.463802 0.870010 0.862351
Si Si6 0.730701 0.658142 0.033680
O O1 0.802768 0.707668 0.800803
O O2 0.784170 0.870098 0.653452
O O3 0.686534 0.937970 0.781681
O O4 0.820278 0.001329 0.830758
O O5 0.595069 0.147069 0.846543
O O6 0.649984 0.292173 0.009526
O O7 0.523252 0.855579 0.955890
O O8 0.639047 0.000000 0.000000
O O9 0.417552 0.025405 0.845619
O O10 0.608097 0.500000 0.500000
O O11 0.594007 0.736426 0.622804
O O12 0.714825 0.699230 0.527337
O O13 0.500000 0.850659 0.750000
O O14 0.763077 0.500000 0.000000
#
# Coordination Sequence:
#
# PCOD9321671 Si02
#       6
#     8   8   8   8   8   8
#     4  11  23  47  79 110 148 191 258 327 377 442
#     4  11  24  45  74 105 155 196 254 311 389 457
#     4  11  23  47  78 115 149 200 256 318 388 462
#     4  12  28  47  72 111 150 195 257 330 370 459
#     4  12  27  49  73 107 159 208 251 309 394 478
#     4  11  26  43  79 113 142 195 256 323 383 457
#
# _framework density 23.347404999999998
#
# number of rings (size 3 to 8) (size 9 to 14) (size 15 to 20)
#    0.000    0.667    6.667    0.500    4.667    2.667 
#    3.000    0.000    0.000    0.000    0.000    0.000 
#    0.000    0.000    0.000    0.000    0.000    0.000 
#
# Total GULP energy -133953.231642 kJ/mol
# GULP energy per Si atom -5581.384652 kJ/mol
# Density = 2.329427 g / cm^3
# Si number density = 23.347405 Si / 1000 Ang^3
#
#
#
# Elastic Constant Matrix: (Units=GPa)
#
#
# Indices 1 2 3 4 5 6 
#
# 1 116.2775 49.8742 38.5627 0.0000 0.0000 0.0000
# 2 49.8742 120.6711 31.4698 0.0000 0.0000 0.0000
# 3 38.5627 31.4698 72.1576 0.0000 0.0000 0.0000
# 4 0.0000 0.0000 0.0000 45.4040 0.0000 0.0000
# 5 0.0000 0.0000 0.0000 0.0000 30.6115 0.0000
# 6 0.0000 0.0000 0.0000 0.0000 0.0000 58.8059
#
#
#
# Elastic Compliance Matrix: (Units=1/GPa)
#
#
# Indices 1 2 3 4 5 6 
#
# 1 0.011703 -0.003617 -0.004677 0.000000 0.000000 0.000000
# 2 -0.003617 0.010469 -0.002633 0.000000 0.000000 0.000000
# 3 -0.004677 -0.002633 0.017506 0.000000 0.000000 0.000000
# 4 0.000000 0.000000 0.000000 0.022024 0.000000 0.000000
# 5 0.000000 0.000000 0.000000 0.000000 0.032667 0.000000
# 6 0.000000 0.000000 0.000000 0.000000 0.000000 0.017005
#
#
# Mechanical properties :
#
#
# Convention : Reuss Voigt Hill
#
# Bulk Modulus (GPa) = 56.10246 60.99107 58.54676
# Shear Modulus (GPa) = 35.92781 39.57760 37.75270
#
# Velocity S-wave (km/s) = 3.92705 4.12170 4.02555
# Velocity P-wave (km/s) = 6.68161 6.98793 6.83649
#
# Compressibility (1/GPa) = 0.01782453
#
# Stress axis : x y z
#
# Youngs Moduli (GPa) = 85.45145 95.52465 57.12349
#
# Poissons Ratio (x) = 0.34553 0.26714
# Poissons Ratio (y) = 0.30909 0.15038
# Poissons Ratio (z) = 0.39962 0.25147
#
# Static dielectric constant tensor:
#      x y z
#    x 2.048540 0.000000 0.000000 
#    y 0.000000 1.898100 0.000000 
#    z 0.000000 0.000000 1.943320 
# 
# From -- ./inp_files/21273.got.cif
#   From: 2010.05.17/outbox.cif.g08.bks.cpg/sg20_11_cif.got.tgz:21273.got - 2010.06.03 22:52:26.
