data_PCOD9321845
_publ_section_title
;
Structure prediction by ZEFSAII (Michael W. Deem and Ramdas Pophale) SiO2 
 PCOD9321845
Probable space group: C 2 2 21
;
_chemical_formula_sum "Si O2"
_cell_formula_units_Z 32
_cell_length_a 5.097900
_cell_length_b 14.843132
_cell_length_c 17.487234
_cell_angle_alpha 90.000000
_cell_angle_beta 90.000000
_cell_angle_gamma 90.000000
_cell_volume 1323.238058
_symmetry_space_group_name_H-M "C 2 2 21"
_symmetry_group_IT_number 20
_symmetry_cell_setting 'orthorhombic'
loop_
_space_group_symop_operation_xyz
x,y,z
-x,-y,1/2+z
x,-y,-z
-x,y,1/2-z
1/2+x,1/2+y,z
1/2-x,1/2-y,1/2+z
1/2+x,1/2-y,-z
1/2-x,1/2+y,1/2-z
loop_
_atom_site_type_symbol
_atom_site_label
_atom_site_fract_x
_atom_site_fract_y
_atom_site_fract_z
Si Si1 0.689292 0.638160 0.927362
Si Si2 0.519190 0.188263 0.339849
Si Si3 0.742883 0.480966 0.804560
Si Si4 0.677451 0.101307 0.018685
O O1 0.547717 0.718136 0.880606
O O2 0.748239 0.557066 0.869038
O O3 0.960227 0.660956 0.972202
O O4 0.468619 0.611013 0.987752
O O5 0.500000 0.207473 0.250000
O O6 0.769460 0.120832 0.338673
O O7 0.338046 0.122830 0.391959
O O8 0.500000 0.497940 0.750000
O O9 0.000000 0.485264 0.750000
O O10 0.592497 0.000000 0.000000
#
# Coordination Sequence:
#
# PCOD9321845 Si02
#       4
#     8   8   8   8
#     4  12  26  48  78 108 153 202 266 314 393 466
#     4  11  27  48  74 116 152 201 258 325 391 468
#     4  11  25  46  76 112 158 204 253 323 396 460
#     4  12  26  49  78 110 153 207 259 322 389 466
#
# _framework density 24.1831
#
# number of rings (size 3 to 8) (size 9 to 14) (size 15 to 20)
#    0.000    0.500    2.500    4.500    3.500    4.000 
#    0.000    2.500    0.000    0.000    0.000    0.000 
#    0.000    0.000    0.000    0.000    0.000    0.000 
#
# Total GULP energy -89328.623228 kJ/mol
# GULP energy per Si atom -5583.038952 kJ/mol
# Density = 2.412806 g / cm^3
# Si number density = 24.183100 Si / 1000 Ang^3
#
#
#
# Elastic Constant Matrix: (Units=GPa)
#
#
# Indices 1 2 3 4 5 6 
#
# 1 140.9920 -20.1453 56.3733 0.0000 0.0000 0.0000
# 2 -20.1453 97.5048 35.6202 0.0000 0.0000 0.0000
# 3 56.3733 35.6202 151.9519 0.0000 0.0000 0.0000
# 4 0.0000 0.0000 0.0000 40.8970 0.0000 0.0000
# 5 0.0000 0.0000 0.0000 0.0000 43.4279 0.0000
# 6 0.0000 0.0000 0.0000 0.0000 0.0000 9.4484
#
#
#
# Elastic Compliance Matrix: (Units=1/GPa)
#
#
# Indices 1 2 3 4 5 6 
#
# 1 0.009294 0.003478 -0.004263 0.000000 0.000000 0.000000
# 2 0.003478 0.012518 -0.004225 0.000000 0.000000 0.000000
# 3 -0.004263 -0.004225 0.009153 0.000000 0.000000 0.000000
# 4 0.000000 0.000000 0.000000 0.024452 0.000000 0.000000
# 5 0.000000 0.000000 0.000000 0.000000 0.023027 0.000000
# 6 0.000000 0.000000 0.000000 0.000000 0.000000 0.105838
#
#
# Mechanical properties :
#
#
# Convention : Reuss Voigt Hill
#
# Bulk Modulus (GPa) = 47.74525 59.34946 53.54735
# Shear Modulus (GPa) = 24.84058 39.99468 32.41763
#
# Velocity S-wave (km/s) = 3.20845 4.07114 3.66527
# Velocity P-wave (km/s) = 5.78893 6.83329 6.33268
#
# Compressibility (1/GPa) = 0.02094449
#
# Stress axis : x y z
#
# Youngs Moduli (GPa) = 107.59503 79.88657 109.25372
#
# Poissons Ratio (x) = -0.27782 0.46578
# Poissons Ratio (y) = -0.37418 0.46155
# Poissons Ratio (z) = 0.45871 0.33749
#
# Static dielectric constant tensor:
#      x y z
#    x 1.893380 0.000000 0.000000 
#    y 0.000000 2.000720 0.000000 
#    z 0.000000 0.000000 1.945930 
# 
# From -- ./inp_files/22496.got.cif
#   From: 2010.05.17/outbox.cif.g08.bks.cpg/sg20_12_cif.got.tgz:22496.got - 2010.06.03 22:52:26.
