data_PCOD9321816
_publ_section_title
;
Structure prediction by ZEFSAII (Michael W. Deem and Ramdas Pophale) SiO2 
 PCOD9321816
Probable space group: C 2 2 21
;
_chemical_formula_sum "Si O2"
_cell_formula_units_Z 48
_cell_length_a 5.092686
_cell_length_b 13.573806
_cell_length_c 30.086713
_cell_angle_alpha 90.000000
_cell_angle_beta 90.000000
_cell_angle_gamma 90.000000
_cell_volume 2079.808174
_symmetry_space_group_name_H-M "C 2 2 21"
_symmetry_group_IT_number 20
_symmetry_cell_setting 'orthorhombic'
loop_
_space_group_symop_operation_xyz
x,y,z
-x,-y,1/2+z
x,-y,-z
-x,y,1/2-z
1/2+x,1/2+y,z
1/2-x,1/2-y,1/2+z
1/2+x,1/2-y,-z
1/2-x,1/2+y,1/2-z
loop_
_atom_site_type_symbol
_atom_site_label
_atom_site_fract_x
_atom_site_fract_y
_atom_site_fract_z
Si Si1 0.193473 0.365878 0.411636
Si Si2 0.600488 0.674927 0.700592
Si Si3 0.917913 0.227273 0.162550
Si Si4 0.035205 0.733403 0.470490
Si Si5 0.028405 0.003531 0.361701
Si Si6 0.155080 0.482871 0.952902
O O1 0.036818 0.281789 0.385014
O O2 0.049301 0.427270 0.449542
O O3 0.445282 0.310903 0.432640
O O4 0.256970 0.450686 0.375452
O O5 0.500000 0.655756 0.750000
O O6 0.874634 0.730935 0.697466
O O7 0.640622 0.573970 0.673474
O O8 0.376129 0.741325 0.676497
O O9 0.967356 0.112196 0.157392
O O10 0.825319 0.753725 0.510234
O O11 0.982694 0.623448 0.452983
O O12 0.172576 0.009804 0.409059
O O13 0.300034 0.500000 0.000000
#
# Coordination Sequence:
#
# PCOD9321816 Si02
#       6
#     8   8   8   8   8   8
#     4  11  25  43  68 101 144 187 240 295 351 414
#     4  11  26  48  75 108 143 181 236 298 362 436
#     4  11  25  46  74 105 142 186 230 292 364 423
#     4  12  27  45  67  98 142 193 244 295 345 407
#     4  11  26  44  75 103 148 189 238 296 358 428
#     4  12  24  43  71 103 142 194 241 289 348 419
#
# _framework density 23.079052000000001
#
# number of rings (size 3 to 8) (size 9 to 14) (size 15 to 20)
#    0.000    0.667    5.000    1.500    4.667    2.000 
#    0.000    0.000    0.000    0.000    0.000    0.000 
#    0.000    0.000    0.000    0.000    0.000    0.000 
#
# Total GULP energy -134333.570542 kJ/mol
# GULP energy per Si atom -5597.232106 kJ/mol
# Density = 2.302652 g / cm^3
# Si number density = 23.079052 Si / 1000 Ang^3
#
#
#
# Elastic Constant Matrix: (Units=GPa)
#
#
# Indices 1 2 3 4 5 6 
#
# 1 47.7123 19.9645 -1.2520 0.0000 0.0000 0.0000
# 2 19.9645 190.5804 38.9916 0.0000 0.0000 0.0000
# 3 -1.2520 38.9916 100.5606 0.0000 0.0000 0.0000
# 4 0.0000 0.0000 0.0000 18.9620 0.0000 0.0000
# 5 0.0000 0.0000 0.0000 0.0000 37.5569 0.0000
# 6 0.0000 0.0000 0.0000 0.0000 0.0000 20.0481
#
#
#
# Elastic Compliance Matrix: (Units=1/GPa)
#
#
# Indices 1 2 3 4 5 6 
#
# 1 0.022069 -0.002572 0.001272 0.000000 0.000000 0.000000
# 2 -0.002572 0.005999 -0.002358 0.000000 0.000000 0.000000
# 3 0.001272 -0.002358 0.010874 0.000000 0.000000 0.000000
# 4 0.000000 0.000000 0.000000 0.052737 0.000000 0.000000
# 5 0.000000 0.000000 0.000000 0.000000 0.026626 0.000000
# 6 0.000000 0.000000 0.000000 0.000000 0.000000 0.049880
#
#
# Mechanical properties :
#
#
# Convention : Reuss Voigt Hill
#
# Bulk Modulus (GPa) = 31.61975 50.47351 41.04663
# Shear Modulus (GPa) = 26.87539 34.05665 30.46602
#
# Velocity S-wave (km/s) = 3.41617 3.84559 3.63722
# Velocity P-wave (km/s) = 5.41208 6.45255 5.95508
#
# Compressibility (1/GPa) = 0.03162581
#
# Stress axis : x y z
#
# Youngs Moduli (GPa) = 45.31325 166.69377 91.95890
#
# Poissons Ratio (x) = 0.42875 -0.11698
# Poissons Ratio (y) = 0.11655 0.21685
# Poissons Ratio (z) = -0.05764 0.39308
#
# Static dielectric constant tensor:
#      x y z
#    x 1.913140 0.000000 0.000000 
#    y 0.000000 1.839610 0.000000 
#    z 0.000000 0.000000 1.911860 
# 
# From -- ./inp_files/29834.got.cif
#   From: 2010.05.17/outbox.cif.g08.bks.cpg/sg20_15_cif.got.tgz:29834.got - 2010.06.03 22:52:26.
