data_PCOD9321970
_publ_section_title
;
Structure prediction by ZEFSAII (Michael W. Deem and Ramdas Pophale) SiO2 
 PCOD9321970
Probable space group: C 2 2 21
;
_chemical_formula_sum "Si O2"
_cell_formula_units_Z 36
_cell_length_a 11.451997
_cell_length_b 22.797913
_cell_length_c 5.647180
_cell_angle_alpha 90.000000
_cell_angle_beta 90.000000
_cell_angle_gamma 90.000000
_cell_volume 1474.374967
_symmetry_space_group_name_H-M "C 2 2 21"
_symmetry_group_IT_number 20
_symmetry_cell_setting 'orthorhombic'
loop_
_space_group_symop_operation_xyz
x,y,z
-x,-y,1/2+z
x,-y,-z
-x,y,1/2-z
1/2+x,1/2+y,z
1/2-x,1/2-y,1/2+z
1/2+x,1/2-y,-z
1/2-x,1/2+y,1/2-z
loop_
_atom_site_type_symbol
_atom_site_label
_atom_site_fract_x
_atom_site_fract_y
_atom_site_fract_z
Si Si1 0.679915 0.248168 0.646981
Si Si2 0.500000 0.544991 0.250000
Si Si3 0.211711 0.000000 0.000000
Si Si4 0.812924 0.435264 0.375982
Si Si5 0.420132 0.358076 0.047129
Si Si6 0.500000 0.147985 0.750000
O O1 0.751782 0.252262 0.398302
O O2 0.609480 0.308722 0.641058
O O3 0.595410 0.191891 0.636935
O O4 0.620412 0.511567 0.214493
O O5 0.497852 0.588584 0.468597
O O6 0.294381 0.949367 0.095856
O O7 0.821740 0.500000 0.500000
O O8 0.702092 0.392751 0.422170
O O9 0.926429 0.395737 0.417141
O O10 0.500000 0.328993 0.250000
#
# Coordination Sequence:
#
# PCOD9321970 Si02
#       6
#     8   4   4   8   8   4
#     4  12  31  57  84 120 166 219 281 352 420 496
#     4  12  23  40  74 110 154 209 264 344 394 478
#     4  12  24  42  72 114 164 206 274 326 416 488
#     4  12  27  51  73 119 163 220 267 334 417 506
#     4  12  26  46  82 116 158 211 280 344 415 478
#     4  12  31  54  84 120 166 219 280 340 424 510
#
# _framework density 24.417126
#
# number of rings (size 3 to 8) (size 9 to 14) (size 15 to 20)
#    0.000    0.000    6.667    2.000   10.889    0.000 
#    4.000    0.000    0.000    0.000    0.000    0.000 
#    0.000    0.000    0.000    0.000    0.000    0.000 
#
# Total GULP energy -100341.280750 kJ/mol
# GULP energy per Si atom -5574.515597 kJ/mol
# Density = 2.436155 g / cm^3
# Si number density = 24.417126 Si / 1000 Ang^3
#
#
#
# Elastic Constant Matrix: (Units=GPa)
#
#
# Indices 1 2 3 4 5 6 
#
# 1 138.2237 79.5890 47.6015 0.0000 0.0000 0.0000
# 2 79.5890 161.3375 37.2535 0.0000 0.0000 0.0000
# 3 47.6015 37.2535 93.0127 0.0000 0.0000 0.0000
# 4 0.0000 0.0000 0.0000 44.7894 0.0000 0.0000
# 5 0.0000 0.0000 0.0000 0.0000 29.2388 0.0000
# 6 0.0000 0.0000 0.0000 0.0000 0.0000 54.1298
#
#
#
# Elastic Compliance Matrix: (Units=1/GPa)
#
#
# Indices 1 2 3 4 5 6 
#
# 1 0.011256 -0.004653 -0.003897 0.000000 0.000000 0.000000
# 2 -0.004653 0.008753 -0.001125 0.000000 0.000000 0.000000
# 3 -0.003897 -0.001125 0.013196 0.000000 0.000000 0.000000
# 4 0.000000 0.000000 0.000000 0.022327 0.000000 0.000000
# 5 0.000000 0.000000 0.000000 0.000000 0.034201 0.000000
# 6 0.000000 0.000000 0.000000 0.000000 0.000000 0.018474
#
#
# Mechanical properties :
#
#
# Convention : Reuss Voigt Hill
#
# Bulk Modulus (GPa) = 72.16936 80.16245 76.16591
# Shear Modulus (GPa) = 37.82897 40.84028 39.33462
#
# Velocity S-wave (km/s) = 3.94036 4.09419 4.01801
# Velocity P-wave (km/s) = 7.09387 7.43314 7.26548
#
# Compressibility (1/GPa) = 0.01385630
#
# Stress axis : x y z
#
# Youngs Moduli (GPa) = 88.84412 114.24539 75.78069
#
# Poissons Ratio (x) = 0.53155 0.29531
# Poissons Ratio (y) = 0.41337 0.08523
# Poissons Ratio (z) = 0.34621 0.12849
#
# Static dielectric constant tensor:
#      x y z
#    x 1.983490 0.000000 0.000000 
#    y 0.000000 1.892770 0.000000 
#    z 0.000000 0.000000 2.143240 
# 
# From -- ./inp_files/1290.got.cif
#   From: 2010.05.17/outbox.cif.g08.bks.cpg/sg20_1_cif.got.tgz:1290.got - 2010.06.03 22:52:26.
