data_PCOD9321043
_publ_section_title
;
Structure prediction by ZEFSAII (Michael W. Deem and Ramdas Pophale) SiO2 
 PCOD9321043
Probable space group: C 2 2 21
;
_chemical_formula_sum "Si O2"
_cell_formula_units_Z 48
_cell_length_a 14.584117
_cell_length_b 25.494602
_cell_length_c 6.127545
_cell_angle_alpha 90.000000
_cell_angle_beta 90.000000
_cell_angle_gamma 90.000000
_cell_volume 2278.320855
_symmetry_space_group_name_H-M "C 2 2 21"
_symmetry_group_IT_number 20
_symmetry_cell_setting 'orthorhombic'
loop_
_space_group_symop_operation_xyz
x,y,z
-x,-y,1/2+z
x,-y,-z
-x,y,1/2-z
1/2+x,1/2+y,z
1/2-x,1/2-y,1/2+z
1/2+x,1/2-y,-z
1/2-x,1/2+y,1/2-z
loop_
_atom_site_type_symbol
_atom_site_label
_atom_site_fract_x
_atom_site_fract_y
_atom_site_fract_z
Si Si1 0.174428 0.186075 0.746410
Si Si2 0.148332 0.708066 0.038861
Si Si3 0.455895 0.500000 0.000000
Si Si4 0.077814 0.560211 0.429378
Si Si5 0.500000 0.146180 0.750000
Si Si6 0.232428 0.629204 0.365970
Si Si7 0.586115 0.383786 0.588362
O O1 0.254872 0.209220 0.591416
O O2 0.096881 0.156455 0.610055
O O3 0.131349 0.232705 0.887594
O O4 0.231622 0.146189 0.898263
O O5 0.067860 0.681825 0.895817
O O6 0.166408 0.672270 0.252724
O O7 0.500000 0.499325 0.750000
O O8 0.409554 0.443143 0.999094
O O9 0.071438 0.500000 0.500000
O O10 0.179125 0.574456 0.350735
O O11 0.000000 0.568471 0.250000
O O12 0.059804 0.605146 0.608893
O O13 0.323274 0.626023 0.225824
O O14 0.500000 0.376810 0.750000
#
# Coordination Sequence:
#
# PCOD9321043 Si02
#       7
#     8   8   4   8   4   8   8
#     4  11  23  43  75 101 148 189 244 307 369 457
#     4  11  23  44  71 100 142 193 240 299 372 443
#     4  10  24  48  78 102 150 200 240 316 388 448
#     4  12  25  44  72 106 144 183 243 311 371 451
#     4  12  24  44  72 104 144 192 246 300 380 456
#     4  11  24  44  71 102 141 190 241 303 378 449
#     4  10  26  48  72 107 147 189 250 311 378 457
#
# _framework density 21.068148000000001
#
# number of rings (size 3 to 8) (size 9 to 14) (size 15 to 20)
#    0.000    1.000    5.833    0.000    4.667    1.333 
#    4.500    3.333    0.000    0.000    0.000    0.000 
#    0.000    0.000    0.000    0.000    0.000    0.000 
#
# Total GULP energy -133965.849098 kJ/mol
# GULP energy per Si atom -5581.910379 kJ/mol
# Density = 2.102020 g / cm^3
# Si number density = 21.068148 Si / 1000 Ang^3
#
#
#
# Elastic Constant Matrix: (Units=GPa)
#
#
# Indices 1 2 3 4 5 6 
#
# 1 97.6164 57.1843 37.2133 0.0000 0.0000 0.0000
# 2 57.1843 146.1149 52.8300 0.0000 0.0000 0.0000
# 3 37.2133 52.8300 90.1950 0.0000 0.0000 0.0000
# 4 0.0000 0.0000 0.0000 35.4298 0.0000 0.0000
# 5 0.0000 0.0000 0.0000 0.0000 24.2941 0.0000
# 6 0.0000 0.0000 0.0000 0.0000 0.0000 37.8384
#
#
#
# Elastic Compliance Matrix: (Units=1/GPa)
#
#
# Indices 1 2 3 4 5 6 
#
# 1 0.014008 -0.004304 -0.003258 0.000000 0.000000 0.000000
# 2 -0.004304 0.010005 -0.004085 0.000000 0.000000 0.000000
# 3 -0.003258 -0.004085 0.014824 0.000000 0.000000 0.000000
# 4 0.000000 0.000000 0.000000 0.028225 0.000000 0.000000
# 5 0.000000 0.000000 0.000000 0.000000 0.041162 0.000000
# 6 0.000000 0.000000 0.000000 0.000000 0.000000 0.026428
#
#
# Mechanical properties :
#
#
# Convention : Reuss Voigt Hill
#
# Bulk Modulus (GPa) = 64.33830 69.82016 67.07923
# Shear Modulus (GPa) = 30.65097 31.95904 31.30500
#
# Velocity S-wave (km/s) = 3.81839 3.89901 3.85891
# Velocity P-wave (km/s) = 7.07422 7.31313 7.19466
#
# Compressibility (1/GPa) = 0.01554284
#
# Stress axis : x y z
#
# Youngs Moduli (GPa) = 71.38961 99.94809 67.45846
#
# Poissons Ratio (x) = 0.43017 0.21981
# Poissons Ratio (y) = 0.30726 0.27554
# Poissons Ratio (z) = 0.23262 0.40825
#
# Static dielectric constant tensor:
#      x y z
#    x 1.791540 0.000000 0.000000 
#    y 0.000000 1.767830 0.000000 
#    z 0.000000 0.000000 1.842040 
# 
# From -- ./inp_files/2057.got.cif
#   From: 2010.05.17/outbox.cif.g08.bks.cpg/sg20_2_cif.got.tgz:2057.got - 2010.06.03 22:52:26.
