data_PCOD9321731
_publ_section_title
;
Structure prediction by ZEFSAII (Michael W. Deem and Ramdas Pophale) SiO2 
 PCOD9321731
Probable space group: C 2 2 21
;
_chemical_formula_sum "Si O2"
_cell_formula_units_Z 48
_cell_length_a 8.779745
_cell_length_b 18.539254
_cell_length_c 14.455667
_cell_angle_alpha 90.000000
_cell_angle_beta 90.000000
_cell_angle_gamma 90.000000
_cell_volume 2352.947799
_symmetry_space_group_name_H-M "C 2 2 21"
_symmetry_group_IT_number 20
_symmetry_cell_setting 'orthorhombic'
loop_
_space_group_symop_operation_xyz
x,y,z
-x,-y,1/2+z
x,-y,-z
-x,y,1/2-z
1/2+x,1/2+y,z
1/2-x,1/2-y,1/2+z
1/2+x,1/2-y,-z
1/2-x,1/2+y,1/2-z
loop_
_atom_site_type_symbol
_atom_site_label
_atom_site_fract_x
_atom_site_fract_y
_atom_site_fract_z
Si Si1 0.088802 0.381972 0.086540
Si Si2 0.901373 0.570019 0.080648
Si Si3 0.000000 0.528954 0.750000
Si Si4 0.919882 0.729304 0.151332
Si Si5 0.447475 0.726551 0.354349
Si Si6 0.612166 0.500000 0.000000
Si Si7 0.431236 0.362014 0.023577
O O1 0.107633 0.419256 0.187569
O O2 0.007885 0.305476 0.106162
O O3 0.250096 0.371309 0.036284
O O4 0.984578 0.430702 0.019919
O O5 0.947953 0.651140 0.108579
O O6 0.936277 0.522891 0.170978
O O7 0.726841 0.548970 0.060318
O O8 0.735878 0.731162 0.150790
O O9 0.977939 0.796850 0.091467
O O10 0.000000 0.733338 0.250000
O O11 0.500000 0.715614 0.250000
O O12 0.517661 0.666761 0.422710
O O13 0.507370 0.561033 0.953385
#
# Coordination Sequence:
#
# PCOD9321731 Si02
#       7
#     8   8   4   8   8   4   8
#     4  11  25  46  72 104 146 196 243 304 381 446
#     4  12  24  43  73 101 142 189 240 300 363 445
#     4  12  24  42  70 108 138 184 250 300 366 446
#     4  11  25  44  71 105 139 194 244 298 365 439
#     4  11  24  43  71 107 142 190 246 304 360 448
#     4  12  26  46  70 104 148 186 236 302 372 422
#     4  11  27  46  70 106 151 190 243 309 379 440
#
# _framework density 20.399941999999999
#
# number of rings (size 3 to 8) (size 9 to 14) (size 15 to 20)
#    0.000    0.667    6.667    0.000    4.667    4.000 
#    0.000    0.833    0.000    0.000    0.000    0.000 
#    0.000    0.000    0.000    0.000    0.000    0.000 
#
# Total GULP energy -133751.013532 kJ/mol
# GULP energy per Si atom -5572.958897 kJ/mol
# Density = 2.035351 g / cm^3
# Si number density = 20.399942 Si / 1000 Ang^3
#
#
#
# Elastic Constant Matrix: (Units=GPa)
#
#
# Indices 1 2 3 4 5 6 
#
# 1 63.4297 26.5662 49.6392 0.0000 0.0000 0.0000
# 2 26.5662 122.4882 55.5059 0.0000 0.0000 0.0000
# 3 49.6392 55.5059 156.8213 0.0000 0.0000 0.0000
# 4 0.0000 0.0000 0.0000 39.4366 0.0000 0.0000
# 5 0.0000 0.0000 0.0000 0.0000 27.2416 0.0000
# 6 0.0000 0.0000 0.0000 0.0000 0.0000 28.5091
#
#
#
# Elastic Compliance Matrix: (Units=1/GPa)
#
#
# Indices 1 2 3 4 5 6 
#
# 1 0.021308 -0.001864 -0.006085 0.000000 0.000000 0.000000
# 2 -0.001864 0.009887 -0.002909 0.000000 0.000000 0.000000
# 3 -0.006085 -0.002909 0.009333 0.000000 0.000000 0.000000
# 4 0.000000 0.000000 0.000000 0.025357 0.000000 0.000000
# 5 0.000000 0.000000 0.000000 0.000000 0.036709 0.000000
# 6 0.000000 0.000000 0.000000 0.000000 0.000000 0.035077
#
#
# Mechanical properties :
#
#
# Convention : Reuss Voigt Hill
#
# Bulk Modulus (GPa) = 53.16110 67.35132 60.25621
# Shear Modulus (GPa) = 30.18289 33.10596 31.64442
#
# Velocity S-wave (km/s) = 3.85067 4.03283 3.94280
# Velocity P-wave (km/s) = 6.77394 7.40081 7.09430
#
# Compressibility (1/GPa) = 0.01881075
#
# Stress axis : x y z
#
# Youngs Moduli (GPa) = 46.93017 101.14593 107.15224
#
# Poissons Ratio (x) = 0.18854 0.65202
# Poissons Ratio (y) = 0.08748 0.31174
# Poissons Ratio (z) = 0.28557 0.29426
#
# Static dielectric constant tensor:
#      x y z
#    x 1.745450 0.000000 0.000000 
#    y 0.000000 1.831390 0.000000 
#    z 0.000000 0.000000 1.703360 
# 
# From -- ./inp_files/18960.got.cif
#   From: 2010.05.17/outbox.cif.g08.bks.cpg/sg20_10_cif.got.tgz:18960.got - 2010.06.03 22:52:26.
