data_PCOD9321993
_publ_section_title
;
Structure prediction by ZEFSAII (Michael W. Deem and Ramdas Pophale) SiO2 
 PCOD9321993
Probable space group: C 2 2 21
;
_chemical_formula_sum "Si O2"
_cell_formula_units_Z 32
_cell_length_a 8.617062
_cell_length_b 28.414552
_cell_length_c 5.326971
_cell_angle_alpha 90.000000
_cell_angle_beta 90.000000
_cell_angle_gamma 90.000000
_cell_volume 1304.308616
_symmetry_space_group_name_H-M "C 2 2 21"
_symmetry_group_IT_number 20
_symmetry_cell_setting 'orthorhombic'
loop_
_space_group_symop_operation_xyz
x,y,z
-x,-y,1/2+z
x,-y,-z
-x,y,1/2-z
1/2+x,1/2+y,z
1/2-x,1/2-y,1/2+z
1/2+x,1/2-y,-z
1/2-x,1/2+y,1/2-z
loop_
_atom_site_type_symbol
_atom_site_label
_atom_site_fract_x
_atom_site_fract_y
_atom_site_fract_z
Si Si1 0.760096 0.096503 0.629404
Si Si2 0.500000 0.370223 0.750000
Si Si3 0.000000 0.029848 0.750000
Si Si4 0.760965 0.810486 0.081373
Si Si5 0.500000 0.230771 0.250000
Si Si6 0.000000 0.471733 0.250000
O O1 0.860274 0.065160 0.823171
O O2 0.731848 0.150372 0.705319
O O3 0.612716 0.064367 0.604205
O O4 0.875085 0.099658 0.398055
O O5 0.609609 0.336412 0.586551
O O6 0.961060 0.000000 0.500000
O O7 0.857137 0.763876 0.157335
O O8 0.595891 0.799402 0.953231
O O9 0.937679 0.500000 0.500000
#
# Coordination Sequence:
#
# PCOD9321993 Si02
#       6
#     8   4   4   8   4   4
#     4  12  27  48  78 113 162 215 274 335 428 499
#     4  12  23  50  77 113 156 220 279 333 416 513
#     4  12  24  44  76 110 148 204 268 334 393 485
#     4  12  27  49  75 119 156 226 265 359 407 517
#     4  12  27  49  80 113 174 202 295 335 431 484
#     4  12  32  53  81 128 172 220 282 356 428 516
#
# _framework density 24.534071000000001
#
# number of rings (size 3 to 8) (size 9 to 14) (size 15 to 20)
#    0.000    0.000    5.000    3.750    7.000    0.000 
#    0.000    0.000    0.000    0.000    0.000    0.000 
#    0.000    0.000    0.000    0.000    0.000    0.000 
#
# Total GULP energy -89301.714261 kJ/mol
# GULP energy per Si atom -5581.357141 kJ/mol
# Density = 2.447823 g / cm^3
# Si number density = 24.534071 Si / 1000 Ang^3
#
#
#
# Elastic Constant Matrix: (Units=GPa)
#
#
# Indices 1 2 3 4 5 6 
#
# 1 120.6899 55.5515 39.7748 0.0000 0.0000 0.0000
# 2 55.5515 104.2309 50.1384 0.0000 0.0000 0.0000
# 3 39.7748 50.1384 116.0835 0.0000 0.0000 0.0000
# 4 0.0000 0.0000 0.0000 40.0822 0.0000 0.0000
# 5 0.0000 0.0000 0.0000 0.0000 50.2664 0.0000
# 6 0.0000 0.0000 0.0000 0.0000 0.0000 48.0463
#
#
#
# Elastic Compliance Matrix: (Units=1/GPa)
#
#
# Indices 1 2 3 4 5 6 
#
# 1 0.011207 -0.005208 -0.001591 0.000000 0.000000 0.000000
# 2 -0.005208 0.014530 -0.004491 0.000000 0.000000 0.000000
# 3 -0.001591 -0.004491 0.011099 0.000000 0.000000 0.000000
# 4 0.000000 0.000000 0.000000 0.024949 0.000000 0.000000
# 5 0.000000 0.000000 0.000000 0.000000 0.019894 0.000000
# 6 0.000000 0.000000 0.000000 0.000000 0.000000 0.020813
#
#
# Mechanical properties :
#
#
# Convention : Reuss Voigt Hill
#
# Bulk Modulus (GPa) = 70.14156 70.21486 70.17821
# Shear Modulus (GPa) = 38.51353 40.71495 39.61424
#
# Velocity S-wave (km/s) = 3.96637 4.07815 4.02265
# Velocity P-wave (km/s) = 7.04469 7.13138 7.08816
#
# Compressibility (1/GPa) = 0.01425688
#
# Stress axis : x y z
#
# Youngs Moduli (GPa) = 89.23024 68.82230 90.09479
#
# Poissons Ratio (x) = 0.35841 0.14331
# Poissons Ratio (y) = 0.46469 0.40465
# Poissons Ratio (z) = 0.14193 0.30911
#
# Static dielectric constant tensor:
#      x y z
#    x 1.946910 0.000000 0.000000 
#    y 0.000000 2.060290 0.000000 
#    z 0.000000 0.000000 2.216600 
# 
# From -- ./inp_files/644.got.cif
#   From: 2010.05.17/outbox.cif.g08.bks.cpg/sg20_1_cif.got.tgz:644.got - 2010.06.03 22:52:26.
