data_PCOD9321808
_publ_section_title
;
Structure prediction by ZEFSAII (Michael W. Deem and Ramdas Pophale) SiO2 
 PCOD9321808
Probable space group: C 2 2 21
;
_chemical_formula_sum "Si O2"
_cell_formula_units_Z 40
_cell_length_a 8.115885
_cell_length_b 26.339239
_cell_length_c 8.464873
_cell_angle_alpha 90.000000
_cell_angle_beta 90.000000
_cell_angle_gamma 90.000000
_cell_volume 1809.504029
_symmetry_space_group_name_H-M "C 2 2 21"
_symmetry_group_IT_number 20
_symmetry_cell_setting 'orthorhombic'
loop_
_space_group_symop_operation_xyz
x,y,z
-x,-y,1/2+z
x,-y,-z
-x,y,1/2-z
1/2+x,1/2+y,z
1/2-x,1/2-y,1/2+z
1/2+x,1/2-y,-z
1/2-x,1/2+y,1/2-z
loop_
_atom_site_type_symbol
_atom_site_label
_atom_site_fract_x
_atom_site_fract_y
_atom_site_fract_z
Si Si1 0.406200 0.779622 0.107232
Si Si2 0.656586 0.412672 0.424131
Si Si3 0.302677 0.444706 0.440872
Si Si4 0.003010 0.620885 0.062943
Si Si5 0.854015 0.798824 0.149783
O O1 0.500000 0.750364 0.250000
O O2 0.278078 0.809346 0.215325
O O3 0.507067 0.823003 0.016157
O O4 0.321102 0.740996 0.988354
O O5 0.493374 0.438060 0.497186
O O6 0.687713 0.435874 0.249126
O O7 0.600340 0.353717 0.414132
O O8 0.833029 0.410066 0.511129
O O9 0.249195 0.500000 0.500000
O O10 0.165453 0.406047 0.506815
O O11 0.000000 0.626162 0.250000
O O12 0.000000 0.774290 0.250000
#
# Coordination Sequence:
#
# PCOD9321808 Si02
#       5
#     8   8   8   8   8
#     4  12  24  43  68 105 145 195 247 296 360 447
#     4  11  24  50  74 103 152 190 240 321 364 434
#     4  11  25  48  79 105 139 196 248 309 384 436
#     4  12  26  45  73 110 154 195 246 302 368 444
#     4  12  23  42  70 102 145 196 237 302 369 422
#
# _framework density 22.105505000000001
#
# number of rings (size 3 to 8) (size 9 to 14) (size 15 to 20)
#    0.000    0.400    6.000    2.400    2.800    6.400 
#    0.000    0.000    0.000    0.000    0.000    0.000 
#    0.000    0.000    0.000    0.000    0.000    0.000 
#
# Total GULP energy -111590.446802 kJ/mol
# GULP energy per Si atom -5579.522340 kJ/mol
# Density = 2.205519 g / cm^3
# Si number density = 22.105505 Si / 1000 Ang^3
#
#
#
# Elastic Constant Matrix: (Units=GPa)
#
#
# Indices 1 2 3 4 5 6 
#
# 1 117.3975 12.5890 58.8470 0.0000 0.0000 0.0000
# 2 12.5890 108.5679 41.0037 0.0000 0.0000 0.0000
# 3 58.8470 41.0037 130.0185 0.0000 0.0000 0.0000
# 4 0.0000 0.0000 0.0000 4.2692 0.0000 0.0000
# 5 0.0000 0.0000 0.0000 0.0000 22.7805 0.0000
# 6 0.0000 0.0000 0.0000 0.0000 0.0000 31.7883
#
#
#
# Elastic Compliance Matrix: (Units=1/GPa)
#
#
# Indices 1 2 3 4 5 6 
#
# 1 0.011063 0.000691 -0.005225 0.000000 0.000000 0.000000
# 2 0.000691 0.010499 -0.003624 0.000000 0.000000 0.000000
# 3 -0.005225 -0.003624 0.011199 0.000000 0.000000 0.000000
# 4 0.000000 0.000000 0.000000 0.234236 0.000000 0.000000
# 5 0.000000 0.000000 0.000000 0.000000 0.043897 0.000000
# 6 0.000000 0.000000 0.000000 0.000000 0.000000 0.031458
#
#
# Mechanical properties :
#
#
# Convention : Reuss Voigt Hill
#
# Bulk Modulus (GPa) = 60.80866 64.54036 62.67451
# Shear Modulus (GPa) = 13.73057 28.00388 20.86723
#
# Velocity S-wave (km/s) = 2.49497 3.56311 3.07576
# Velocity P-wave (km/s) = 5.98898 6.79615 6.40529
#
# Compressibility (1/GPa) = 0.01644502
#
# Stress axis : x y z
#
# Youngs Moduli (GPa) = 90.39041 95.24404 89.29465
#
# Poissons Ratio (x) = -0.06577 0.46656
# Poissons Ratio (y) = -0.06242 0.32358
# Poissons Ratio (z) = 0.47229 0.34514
#
# Static dielectric constant tensor:
#      x y z
#    x 2.048840 0.000000 0.000000 
#    y 0.000000 1.721310 0.000000 
#    z 0.000000 0.000000 1.810710 
# 
# From -- ./inp_files/6082.got.cif
#   From: 2010.05.17/outbox.cif.g08.bks.cpg/sg20_4_cif.got.tgz:6082.got - 2010.06.03 22:52:26.
