data_PCOD9321320
_publ_section_title
;
Structure prediction by ZEFSAII (Michael W. Deem and Ramdas Pophale) SiO2 
 PCOD9321320
Probable space group: C 2 2 21
;
_chemical_formula_sum "Si O2"
_cell_formula_units_Z 28
_cell_length_a 11.640637
_cell_length_b 19.628186
_cell_length_c 4.989154
_cell_angle_alpha 90.000000
_cell_angle_beta 90.000000
_cell_angle_gamma 90.000000
_cell_volume 1139.944797
_symmetry_space_group_name_H-M "C 2 2 21"
_symmetry_group_IT_number 20
_symmetry_cell_setting 'orthorhombic'
loop_
_space_group_symop_operation_xyz
x,y,z
-x,-y,1/2+z
x,-y,-z
-x,y,1/2-z
1/2+x,1/2+y,z
1/2-x,1/2-y,1/2+z
1/2+x,1/2-y,-z
1/2-x,1/2+y,1/2-z
loop_
_atom_site_type_symbol
_atom_site_label
_atom_site_fract_x
_atom_site_fract_y
_atom_site_fract_z
Si Si1 0.251865 0.893302 0.944926
Si Si2 0.108152 0.614350 0.933629
Si Si3 0.569372 0.500000 0.000000
Si Si4 0.579828 0.723223 0.011666
O O1 0.357830 0.902938 0.738996
O O2 0.199455 0.817314 0.965294
O O3 0.148823 0.942331 0.870286
O O4 0.288363 0.910063 0.246834
O O5 0.101363 0.696516 0.946024
O O6 0.000000 0.591827 0.750000
O O7 0.500000 0.530196 0.750000
O O8 0.500000 0.697691 0.250000
O O9 0.500000 0.714737 0.750000
#
# Coordination Sequence:
#
# PCOD9321320 Si02
#       4
#     8   8   4   8
#     4  12  23  41  65  93 127 171 211 260 321 378
#     4  11  23  40  63  93 129 167 213 263 314 379
#     4  12  26  46  68  96 128 164 214 270 322 388
#     4  11  21  37  62  96 130 164 205 260 320 378
#
# _framework density 24.562593
#
# number of rings (size 3 to 8) (size 9 to 14) (size 15 to 20)
#    0.000    0.571    0.000   11.143    0.000    0.000 
#    0.000    2.857    0.000    1.714    0.000    0.000 
#    0.000    0.000    0.000    0.000    0.000    0.000 
#
# Total GULP energy -78237.935309 kJ/mol
# GULP energy per Si atom -5588.423951 kJ/mol
# Density = 2.450669 g / cm^3
# Si number density = 24.562593 Si / 1000 Ang^3
#
#
#
# Elastic Constant Matrix: (Units=GPa)
#
#
# Indices 1 2 3 4 5 6 
#
# 1 75.5400 8.8680 42.5445 0.0000 0.0000 0.0000
# 2 8.8680 37.0343 -0.9774 0.0000 0.0000 0.0000
# 3 42.5445 -0.9774 172.1112 0.0000 0.0000 0.0000
# 4 0.0000 0.0000 0.0000 29.5058 0.0000 0.0000
# 5 0.0000 0.0000 0.0000 0.0000 60.7886 0.0000
# 6 0.0000 0.0000 0.0000 0.0000 0.0000 30.0062
#
#
#
# Elastic Compliance Matrix: (Units=1/GPa)
#
#
# Indices 1 2 3 4 5 6 
#
# 1 0.015928 -0.003919 -0.003960 0.000000 0.000000 0.000000
# 2 -0.003919 0.027970 0.001127 0.000000 0.000000 0.000000
# 3 -0.003960 0.001127 0.006795 0.000000 0.000000 0.000000
# 4 0.000000 0.000000 0.000000 0.033892 0.000000 0.000000
# 5 0.000000 0.000000 0.000000 0.000000 0.016450 0.000000
# 6 0.000000 0.000000 0.000000 0.000000 0.000000 0.033326
#
#
# Mechanical properties :
#
#
# Convention : Reuss Voigt Hill
#
# Bulk Modulus (GPa) = 26.88731 42.83954 34.86342
# Shear Modulus (GPa) = 31.19915 39.67680 35.43797
#
# Velocity S-wave (km/s) = 3.56784 4.02348 3.80249
# Velocity P-wave (km/s) = 5.28610 6.25007 5.78819
#
# Compressibility (1/GPa) = 0.03719226
#
# Stress axis : x y z
#
# Youngs Moduli (GPa) = 62.78218 35.75250 147.15905
#
# Poissons Ratio (x) = 0.14010 0.58268
# Poissons Ratio (y) = 0.24602 -0.16592
# Poissons Ratio (z) = 0.24859 -0.04031
#
# Static dielectric constant tensor:
#      x y z
#    x 1.835360 0.000000 0.000000 
#    y 0.000000 1.961110 0.000000 
#    z 0.000000 0.000000 1.842790 
# 
# From -- ./inp_files/955.got.cif
#   From: 2010.05.17/outbox.cif.g08.bks.cpg/sg20_1_cif.got.tgz:955.got - 2010.06.03 22:52:26.
