data_PCOD9321592
_publ_section_title
;
Structure prediction by ZEFSAII (Michael W. Deem and Ramdas Pophale) SiO2 
 PCOD9321592
Probable space group: C 2 2 21
;
_chemical_formula_sum "Si O2"
_cell_formula_units_Z 36
_cell_length_a 6.712785
_cell_length_b 16.234313
_cell_length_c 14.761053
_cell_angle_alpha 90.000000
_cell_angle_beta 90.000000
_cell_angle_gamma 90.000000
_cell_volume 1608.621956
_symmetry_space_group_name_H-M "C 2 2 21"
_symmetry_group_IT_number 20
_symmetry_cell_setting 'orthorhombic'
loop_
_space_group_symop_operation_xyz
x,y,z
-x,-y,1/2+z
x,-y,-z
-x,y,1/2-z
1/2+x,1/2+y,z
1/2-x,1/2-y,1/2+z
1/2+x,1/2-y,-z
1/2-x,1/2+y,1/2-z
loop_
_atom_site_type_symbol
_atom_site_label
_atom_site_fract_x
_atom_site_fract_y
_atom_site_fract_z
Si Si1 0.000000 0.424731 0.250000
Si Si2 0.880333 0.296285 0.576187
Si Si3 0.855895 0.543091 0.093019
Si Si4 0.473730 0.642073 0.344109
Si Si5 0.256102 0.701842 0.867618
O O1 0.890971 0.482065 0.176257
O O2 0.837251 0.370527 0.306621
O O3 0.666424 0.312718 0.618803
O O4 0.845204 0.295344 0.467793
O O5 0.508073 0.282214 0.387625
O O6 0.004399 0.377408 0.601145
O O7 0.632566 0.579596 0.088121
O O8 0.909026 0.500000 0.000000
O O9 0.500000 0.595084 0.250000
O O10 0.319745 0.714778 0.320697
#
# Coordination Sequence:
#
# PCOD9321592 Si02
#       5
#     4   8   8   8   8
#     4  12  24  50  72 120 144 192 260 304 366 454
#     4  11  23  46  73 105 146 200 232 311 377 431
#     4  11  25  45  72 105 154 191 237 307 379 439
#     4  11  24  46  68 105 141 190 240 296 370 442
#     4  11  23  42  77 106 146 185 254 302 359 449
#
# _framework density 22.379403
#
# number of rings (size 3 to 8) (size 9 to 14) (size 15 to 20)
#    0.000    0.889    5.556    1.333    0.000    3.556 
#    4.000    2.222    0.000    0.000    0.000    0.000 
#    0.000    0.000    0.000    0.000    0.000    0.000 
#
# Total GULP energy -100478.713813 kJ/mol
# GULP energy per Si atom -5582.150767 kJ/mol
# Density = 2.232847 g / cm^3
# Si number density = 22.379403 Si / 1000 Ang^3
#
#
#
# Elastic Constant Matrix: (Units=GPa)
#
#
# Indices 1 2 3 4 5 6 
#
# 1 126.9270 33.8603 34.5788 0.0000 0.0000 0.0000
# 2 33.8603 76.8742 32.4688 0.0000 0.0000 0.0000
# 3 34.5788 32.4688 115.3296 0.0000 0.0000 0.0000
# 4 0.0000 0.0000 0.0000 42.3186 0.0000 0.0000
# 5 0.0000 0.0000 0.0000 0.0000 12.6755 0.0000
# 6 0.0000 0.0000 0.0000 0.0000 0.0000 16.4108
#
#
#
# Elastic Compliance Matrix: (Units=1/GPa)
#
#
# Indices 1 2 3 4 5 6 
#
# 1 0.009262 -0.003299 -0.001848 0.000000 0.000000 0.000000
# 2 -0.003299 0.015939 -0.003498 0.000000 0.000000 0.000000
# 3 -0.001848 -0.003498 0.010210 0.000000 0.000000 0.000000
# 4 0.000000 0.000000 0.000000 0.023630 0.000000 0.000000
# 5 0.000000 0.000000 0.000000 0.000000 0.078892 0.000000
# 6 0.000000 0.000000 0.000000 0.000000 0.000000 0.060935
#
#
# Mechanical properties :
#
#
# Convention : Reuss Voigt Hill
#
# Bulk Modulus (GPa) = 55.18774 57.88295 56.53535
# Shear Modulus (GPa) = 22.50228 28.82918 25.66573
#
# Velocity S-wave (km/s) = 3.17439 3.59305 3.39019
# Velocity P-wave (km/s) = 6.17651 6.56764 6.37507
#
# Compressibility (1/GPa) = 0.01811997
#
# Stress axis : x y z
#
# Youngs Moduli (GPa) = 107.96633 62.73978 97.94523
#
# Poissons Ratio (x) = 0.20698 0.18103
# Poissons Ratio (y) = 0.35618 0.34263
# Poissons Ratio (z) = 0.19955 0.21947
#
# Static dielectric constant tensor:
#      x y z
#    x 1.904060 0.000000 0.000000 
#    y 0.000000 1.778000 0.000000 
#    z 0.000000 0.000000 1.891890 
# 
# From -- ./inp_files/18457.got.cif
#   From: 2010.05.17/outbox.cif.g08.bks.cpg/sg20_10_cif.got.tgz:18457.got - 2010.06.03 22:52:26.
