data_PCOD9321192
_publ_section_title
;
Structure prediction by ZEFSAII (Michael W. Deem and Ramdas Pophale) SiO2 
 PCOD9321192
Probable space group: C 2 2 21
;
_chemical_formula_sum "Si O2"
_cell_formula_units_Z 40
_cell_length_a 17.514462
_cell_length_b 17.975198
_cell_length_c 5.736308
_cell_angle_alpha 90.000000
_cell_angle_beta 90.000000
_cell_angle_gamma 90.000000
_cell_volume 1805.938457
_symmetry_space_group_name_H-M "C 2 2 21"
_symmetry_group_IT_number 20
_symmetry_cell_setting 'orthorhombic'
loop_
_space_group_symop_operation_xyz
x,y,z
-x,-y,1/2+z
x,-y,-z
-x,y,1/2-z
1/2+x,1/2+y,z
1/2-x,1/2-y,1/2+z
1/2+x,1/2-y,-z
1/2-x,1/2+y,1/2-z
loop_
_atom_site_type_symbol
_atom_site_label
_atom_site_fract_x
_atom_site_fract_y
_atom_site_fract_z
Si Si1 0.559049 0.202229 0.438218
Si Si2 0.857130 0.791085 0.689209
Si Si3 0.301963 0.843285 0.625279
Si Si4 0.500000 0.926929 0.250000
Si Si5 0.867041 0.500000 0.500000
Si Si6 0.545028 0.584242 0.997848
O O1 0.500000 0.232715 0.250000
O O2 0.579446 0.263012 0.629912
O O3 0.639661 0.176443 0.333372
O O4 0.516518 0.129857 0.540435
O O5 0.785198 0.829075 0.811989
O O6 0.826776 0.715652 0.571005
O O7 0.892882 0.850333 0.512447
O O8 0.318156 0.927613 0.554446
O O9 0.573882 0.976343 0.202909
O O10 0.500000 0.588500 0.250000
O O11 0.578040 0.500000 0.000000
O O12 0.500000 0.590228 0.750000
#
# Coordination Sequence:
#
# PCOD9321192 Si02
#       6
#     8   8   8   4   4   8
#     4  12  24  46  77 109 148 204 258 322 383 463
#     4  12  27  48  76 110 154 206 257 320 394 472
#     4  12  27  48  71 108 157 200 254 318 389 480
#     4  12  24  44  70 112 150 188 258 324 376 468
#     4  12  24  46  72 110 154 198 256 316 402 472
#     4  10  26  51  79 114 150 199 270 337 390 459
#
# _framework density 22.149149000000001
#
# number of rings (size 3 to 8) (size 9 to 14) (size 15 to 20)
#    0.000    0.400    6.000    1.200    7.000    0.000 
#   12.600    0.000    0.000    0.000    0.000    0.000 
#    0.000    0.000    0.000    0.000    0.000    0.000 
#
# Total GULP energy -111941.254007 kJ/mol
# GULP energy per Si atom -5597.062700 kJ/mol
# Density = 2.209874 g / cm^3
# Si number density = 22.149149 Si / 1000 Ang^3
#
#
#
# Elastic Constant Matrix: (Units=GPa)
#
#
# Indices 1 2 3 4 5 6 
#
# 1 115.4948 81.5849 51.2407 0.0000 0.0000 0.0000
# 2 81.5849 219.2192 59.8138 0.0000 0.0000 0.0000
# 3 51.2407 59.8138 104.1683 0.0000 0.0000 0.0000
# 4 0.0000 0.0000 0.0000 30.4590 0.0000 0.0000
# 5 0.0000 0.0000 0.0000 0.0000 36.5190 0.0000
# 6 0.0000 0.0000 0.0000 0.0000 0.0000 26.4518
#
#
#
# Elastic Compliance Matrix: (Units=1/GPa)
#
#
# Indices 1 2 3 4 5 6 
#
# 1 0.013232 -0.003734 -0.004365 0.000000 0.000000 0.000000
# 2 -0.003734 0.006463 -0.001874 0.000000 0.000000 0.000000
# 3 -0.004365 -0.001874 0.012823 0.000000 0.000000 0.000000
# 4 0.000000 0.000000 0.000000 0.032831 0.000000 0.000000
# 5 0.000000 0.000000 0.000000 0.000000 0.027383 0.000000
# 6 0.000000 0.000000 0.000000 0.000000 0.000000 0.037805
#
#
# Mechanical properties :
#
#
# Convention : Reuss Voigt Hill
#
# Bulk Modulus (GPa) = 79.54078 91.57346 85.55712
# Shear Modulus (GPa) = 32.32609 35.10215 33.71412
#
# Velocity S-wave (km/s) = 3.82445 3.98528 3.90569
# Velocity P-wave (km/s) = 7.44925 7.91267 7.68445
#
# Compressibility (1/GPa) = 0.01257217
#
# Stress axis : x y z
#
# Youngs Moduli (GPa) = 75.57164 154.73843 77.98282
#
# Poissons Ratio (x) = 0.57772 0.34042
# Poissons Ratio (y) = 0.28215 0.14616
# Poissons Ratio (z) = 0.32989 0.29002
#
# Static dielectric constant tensor:
#      x y z
#    x 1.799470 0.000000 0.000000 
#    y 0.000000 1.793370 0.000000 
#    z 0.000000 0.000000 1.905280 
# 
# From -- ./inp_files/2527.got.cif
#   From: 2010.05.17/outbox.cif.g08.bks.cpg/sg20_2_cif.got.tgz:2527.got - 2010.06.03 22:52:26.
