data_PCOD9321285
_publ_section_title
;
Structure prediction by ZEFSAII (Michael W. Deem and Ramdas Pophale) SiO2 
 PCOD9321285
Probable space group: C 2 2 21
;
_chemical_formula_sum "Si O2"
_cell_formula_units_Z 48
_cell_length_a 7.672842
_cell_length_b 19.378160
_cell_length_c 13.769947
_cell_angle_alpha 90.000000
_cell_angle_beta 90.000000
_cell_angle_gamma 90.000000
_cell_volume 2047.392280
_symmetry_space_group_name_H-M "C 2 2 21"
_symmetry_group_IT_number 20
_symmetry_cell_setting 'orthorhombic'
loop_
_space_group_symop_operation_xyz
x,y,z
-x,-y,1/2+z
x,-y,-z
-x,y,1/2-z
1/2+x,1/2+y,z
1/2-x,1/2-y,1/2+z
1/2+x,1/2-y,-z
1/2-x,1/2+y,1/2-z
loop_
_atom_site_type_symbol
_atom_site_label
_atom_site_fract_x
_atom_site_fract_y
_atom_site_fract_z
Si Si1 0.283718 0.042998 0.247024
Si Si2 0.729706 0.610458 0.700999
Si Si3 0.843194 0.932575 0.530807
Si Si4 0.382347 0.676419 0.612523
Si Si5 0.527184 0.075119 0.970671
Si Si6 0.884017 0.666748 0.348592
O O1 0.500000 0.033509 0.250000
O O2 0.213100 0.062438 0.141406
O O3 0.244520 0.109016 0.314877
O O4 0.201110 0.971128 0.279661
O O5 0.569307 0.651788 0.654199
O O6 0.749320 0.646048 0.805519
O O7 0.881611 0.607863 0.621693
O O8 0.895506 0.857123 0.494582
O O9 0.675871 0.940630 0.458446
O O10 0.955750 0.000000 0.500000
O O11 0.344742 0.757296 0.614071
O O12 0.530450 0.127237 0.060876
O O13 0.605618 0.000000 0.000000
O O14 0.000000 0.676093 0.250000
#
# Coordination Sequence:
#
# PCOD9321285 Si02
#       6
#     8   8   8   8   8   8
#     4  11  20  41  74  94 125 176 237 277 321 400
#     4  11  23  42  62  98 133 177 214 277 340 404
#     4  11  21  38  67 101 120 171 231 278 318 405
#     4  11  26  41  64  95 145 179 207 273 361 403
#     4  11  22  38  70  99 119 169 245 278 311 398
#     4  11  21  42  65  95 134 180 217 279 345 392
#
# _framework density 23.444458000000001
#
# number of rings (size 3 to 8) (size 9 to 14) (size 15 to 20)
#    0.000    1.000    8.333    1.000    0.000    3.333 
#    0.000    0.000    0.000    4.000    0.000    0.000 
#    0.000    0.000    0.000    0.000    0.000    0.000 
#
# Total GULP energy -133738.930854 kJ/mol
# GULP energy per Si atom -5572.455452 kJ/mol
# Density = 2.339110 g / cm^3
# Si number density = 23.444458 Si / 1000 Ang^3
#
#
#
# Elastic Constant Matrix: (Units=GPa)
#
#
# Indices 1 2 3 4 5 6 
#
# 1 40.1345 -5.2202 -6.1085 0.0000 0.0000 0.0000
# 2 -5.2202 193.0651 32.1853 0.0000 0.0000 0.0000
# 3 -6.1085 32.1853 75.9817 0.0000 0.0000 0.0000
# 4 0.0000 0.0000 0.0000 64.7092 0.0000 0.0000
# 5 0.0000 0.0000 0.0000 0.0000 17.9442 0.0000
# 6 0.0000 0.0000 0.0000 0.0000 0.0000-1211.4593
#
#
#
# Elastic Compliance Matrix: (Units=1/GPa)
#
#
# Indices 1 2 3 4 5 6 
#
# 1 0.025249 0.000370 0.001873 0.000000 0.000000 0.000000
# 2 0.000370 0.005579 -0.002333 0.000000 0.000000 0.000000
# 3 0.001873 -0.002333 0.014300 0.000000 0.000000 0.000000
# 4 0.000000 0.000000 0.000000 0.015454 0.000000 0.000000
# 5 0.000000 0.000000 0.000000 0.000000 0.055728 0.000000
# 6 0.000000 0.000000 0.000000 0.000000 0.000000 -0.000825
#
#
# Mechanical properties :
#
#
# Convention : Reuss Voigt Hill
#
# Bulk Modulus (GPa) = 22.24770 38.98829 30.61800
# Shear Modulus (GPa) = 38.27102 -206.53955 -84.13426
#
# Velocity S-wave (km/s) = 4.04470 -9.39620 -5.99704
# Velocity P-wave (km/s) = 5.59668 10.05246 5.90462
#
# Compressibility (1/GPa) = 0.04494846
#
# Stress axis : x y z
#
# Youngs Moduli (GPa) = 39.60476 179.25686 69.93012
#
# Poissons Ratio (x) = -0.06641 -0.13098
# Poissons Ratio (y) = -0.01467 0.16317
# Poissons Ratio (z) = -0.07418 0.41825
#
# Static dielectric constant tensor:
#      x y z
#    x 1.872880 0.000000 0.000000 
#    y 0.000000 1.985570 0.000000 
#    z 0.000000 0.000000 7.607900 
# 
# From -- ./inp_files/18849.got.cif
#   From: 2010.05.17/outbox.cif.g08.bks.cpg/sg20_10_cif.got.tgz:18849.got - 2010.06.03 22:52:26.
