data_PCOD9321875
_publ_section_title
;
Structure prediction by ZEFSAII (Michael W. Deem and Ramdas Pophale) SiO2 
 PCOD9321875
Probable space group: C 2 2 21
;
_chemical_formula_sum "Si O2"
_cell_formula_units_Z 40
_cell_length_a 9.459245
_cell_length_b 27.031289
_cell_length_c 7.336447
_cell_angle_alpha 90.000000
_cell_angle_beta 90.000000
_cell_angle_gamma 90.000000
_cell_volume 1875.897110
_symmetry_space_group_name_H-M "C 2 2 21"
_symmetry_group_IT_number 20
_symmetry_cell_setting 'orthorhombic'
loop_
_space_group_symop_operation_xyz
x,y,z
-x,-y,1/2+z
x,-y,-z
-x,y,1/2-z
1/2+x,1/2+y,z
1/2-x,1/2-y,1/2+z
1/2+x,1/2-y,-z
1/2-x,1/2+y,1/2-z
loop_
_atom_site_type_symbol
_atom_site_label
_atom_site_fract_x
_atom_site_fract_y
_atom_site_fract_z
Si Si1 0.617867 0.196587 0.002718
Si Si2 0.711956 0.500000 0.500000
Si Si3 0.704141 0.791274 0.414237
Si Si4 0.393070 0.378297 0.580351
Si Si5 0.000000 0.053292 0.750000
Si Si6 0.151809 0.410814 0.823799
O O1 0.449703 0.209023 0.013565
O O2 0.664442 0.193780 0.791421
O O3 0.718246 0.238499 0.087543
O O4 0.645755 0.143944 0.092875
O O5 0.617490 0.516114 0.671823
O O6 0.802981 0.548257 0.465204
O O7 0.816506 0.829256 0.502286
O O8 0.500000 0.367915 0.750000
O O9 0.462233 0.410260 0.418580
O O10 0.266507 0.410004 0.664825
O O11 0.000000 0.423304 0.750000
#
# Coordination Sequence:
#
# PCOD9321875 Si02
#       6
#     8   4   8   8   4   8
#     4  11  26  47  70 113 152 197 249 300 373 444
#     4  12  26  46  78 106 148 200 250 310 378 422
#     4  11  26  44  77 109 153 199 242 303 371 452
#     4  12  26  48  78 109 152 197 244 305 379 442
#     4  12  26  50  74 116 148 190 260 308 364 456
#     4  12  26  50  72 108 151 192 248 316 368 437
#
# _framework density 21.323132000000001
#
# number of rings (size 3 to 8) (size 9 to 14) (size 15 to 20)
#    0.000    0.400    4.000    3.600    5.600    1.600 
#    3.600    0.000    0.000    0.000    0.000    0.000 
#    0.000    0.000    0.000    0.000    0.000    0.000 
#
# Total GULP energy -111929.992274 kJ/mol
# GULP energy per Si atom -5596.499614 kJ/mol
# Density = 2.127460 g / cm^3
# Si number density = 21.323132 Si / 1000 Ang^3
#
#
#
# Elastic Constant Matrix: (Units=GPa)
#
#
# Indices 1 2 3 4 5 6 
#
# 1 142.0768 56.8397 55.1491 0.0000 0.0000 0.0000
# 2 56.8397 88.3061 10.0846 0.0000 0.0000 0.0000
# 3 55.1491 10.0846 86.2209 0.0000 0.0000 0.0000
# 4 0.0000 0.0000 0.0000 33.2210 0.0000 0.0000
# 5 0.0000 0.0000 0.0000 0.0000 24.8545 0.0000
# 6 0.0000 0.0000 0.0000 0.0000 0.0000 29.9850
#
#
#
# Elastic Compliance Matrix: (Units=1/GPa)
#
#
# Indices 1 2 3 4 5 6 
#
# 1 0.012877 -0.007447 -0.007365 0.000000 0.000000 0.000000
# 2 -0.007447 0.015785 0.002917 0.000000 0.000000 0.000000
# 3 -0.007365 0.002917 0.015968 0.000000 0.000000 0.000000
# 4 0.000000 0.000000 0.000000 0.030101 0.000000 0.000000
# 5 0.000000 0.000000 0.000000 0.000000 0.040234 0.000000
# 6 0.000000 0.000000 0.000000 0.000000 0.000000 0.033350
#
#
# Mechanical properties :
#
#
# Convention : Reuss Voigt Hill
#
# Bulk Modulus (GPa) = 47.98743 62.30563 55.14653
# Shear Modulus (GPa) = 27.92493 30.58081 29.25287
#
# Velocity S-wave (km/s) = 3.62278 3.79114 3.70791
# Velocity P-wave (km/s) = 6.32875 6.96038 6.65206
#
# Compressibility (1/GPa) = 0.02083879
#
# Stress axis : x y z
#
# Youngs Moduli (GPa) = 77.65954 63.35286 62.62562
#
# Poissons Ratio (x) = 0.47180 0.46125
# Poissons Ratio (y) = 0.57835 -0.18269
# Poissons Ratio (z) = 0.57198 -0.18481
#
# Static dielectric constant tensor:
#      x y z
#    x 1.763250 0.000000 0.000000 
#    y 0.000000 1.734030 0.000000 
#    z 0.000000 0.000000 1.861980 
# 
# From -- ./inp_files/6177.got.cif
#   From: 2010.05.17/outbox.cif.g08.bks.cpg/sg20_4_cif.got.tgz:6177.got - 2010.06.03 22:52:26.
