data_PCOD9321371
_publ_section_title
;
Structure prediction by ZEFSAII (Michael W. Deem and Ramdas Pophale) SiO2 
 PCOD9321371
Probable space group: C 2 2 21
;
_chemical_formula_sum "Si O2"
_cell_formula_units_Z 64
_cell_length_a 11.444318
_cell_length_b 28.993711
_cell_length_c 7.902692
_cell_angle_alpha 90.000000
_cell_angle_beta 90.000000
_cell_angle_gamma 90.000000
_cell_volume 2622.217906
_symmetry_space_group_name_H-M "C 2 2 21"
_symmetry_group_IT_number 20
_symmetry_cell_setting 'orthorhombic'
loop_
_space_group_symop_operation_xyz
x,y,z
-x,-y,1/2+z
x,-y,-z
-x,y,1/2-z
1/2+x,1/2+y,z
1/2-x,1/2-y,1/2+z
1/2+x,1/2-y,-z
1/2-x,1/2+y,1/2-z
loop_
_atom_site_type_symbol
_atom_site_label
_atom_site_fract_x
_atom_site_fract_y
_atom_site_fract_z
Si Si1 0.212154 0.775177 0.967531
Si Si2 0.243512 0.590918 0.980437
Si Si3 0.996068 0.164281 0.435135
Si Si4 0.490117 0.428722 0.439981
Si Si5 0.220602 0.183683 0.655932
Si Si6 0.362934 0.013943 0.738300
Si Si7 0.742524 0.062391 0.432974
Si Si8 0.138907 0.349187 0.713260
O O1 0.094109 0.796199 0.895182
O O2 0.202200 0.720533 0.947586
O O3 0.314668 0.800158 0.857907
O O4 0.215445 0.793018 0.159995
O O5 0.377226 0.573552 0.008222
O O6 0.247506 0.629826 0.830812
O O7 0.168515 0.547642 0.916180
O O8 0.198941 0.626436 0.123560
O O9 0.952503 0.125080 0.563309
O O10 0.000000 0.140047 0.250000
O O11 0.105566 0.183782 0.536325
O O12 0.500000 0.447914 0.250000
O O13 0.380732 0.447328 0.544428
O O14 0.500000 0.005657 0.750000
O O15 0.298599 0.965107 0.765041
O O16 0.319053 0.041017 0.903677
O O17 0.690598 0.113690 0.420715
O O18 0.000000 0.349123 0.750000
#
# Coordination Sequence:
#
# PCOD9321371 Si02
#       8
#     8   8   8   8   8   8   8   8
#     4  12  23  44  66 102 148 192 252 312 374 455
#     4  11  24  44  70 105 142 194 243 308 380 448
#     4  11  22  40  69 102 140 196 244 304 380 449
#     4  11  21  42  73 104 145 183 242 303 376 451
#     4  11  25  41  70 103 144 196 250 313 379 451
#     4  11  24  46  74 100 145 192 248 295 376 453
#     4  11  24  44  73 106 141 196 241 307 375 452
#     4  12  26  44  70 103 148 191 256 308 374 450
#
# _framework density 24.40682
#
# number of rings (size 3 to 8) (size 9 to 14) (size 15 to 20)
#    0.000    0.750    2.500    6.750    0.000    3.500 
#    0.000    6.875    0.000    0.000    0.000    0.000 
#    0.000    0.000    0.000    0.000    0.000    0.000 
#
# Total GULP energy -178587.517081 kJ/mol
# GULP energy per Si atom -5580.859909 kJ/mol
# Density = 2.435127 g / cm^3
# Si number density = 24.406820 Si / 1000 Ang^3
#
#
#
# Elastic Constant Matrix: (Units=GPa)
#
#
# Indices 1 2 3 4 5 6 
#
# 1 173.4984 34.7021 33.4103 0.0000 0.0000 0.0000
# 2 34.7021 96.4392 -6.0890 0.0000 0.0000 0.0000
# 3 33.4103 -6.0890 133.7137 0.0000 0.0000 0.0000
# 4 0.0000 0.0000 0.0000 32.2946 0.0000 0.0000
# 5 0.0000 0.0000 0.0000 0.0000 35.2086 0.0000
# 6 0.0000 0.0000 0.0000 0.0000 0.0000 23.7239
#
#
#
# Elastic Compliance Matrix: (Units=1/GPa)
#
#
# Indices 1 2 3 4 5 6 
#
# 1 0.006600 -0.002486 -0.001762 0.000000 0.000000 0.000000
# 2 -0.002486 0.011336 0.001137 0.000000 0.000000 0.000000
# 3 -0.001762 0.001137 0.007971 0.000000 0.000000 0.000000
# 4 0.000000 0.000000 0.000000 0.030965 0.000000 0.000000
# 5 0.000000 0.000000 0.000000 0.000000 0.028402 0.000000
# 6 0.000000 0.000000 0.000000 0.000000 0.000000 0.042152
#
#
# Mechanical properties :
#
#
# Convention : Reuss Voigt Hill
#
# Bulk Modulus (GPa) = 50.80183 58.63311 54.71747
# Shear Modulus (GPa) = 35.66089 41.02063 38.34076
#
# Velocity S-wave (km/s) = 3.82659 4.10409 3.96776
# Velocity P-wave (km/s) = 6.35480 6.82154 6.59230
#
# Compressibility (1/GPa) = 0.01968433
#
# Stress axis : x y z
#
# Youngs Moduli (GPa) = 151.50523 88.21676 125.45745
#
# Poissons Ratio (x) = 0.21934 0.22111
# Poissons Ratio (y) = 0.37669 -0.14270
# Poissons Ratio (z) = 0.26702 -0.10034
#
# Static dielectric constant tensor:
#      x y z
#    x 1.933630 0.000000 0.000000 
#    y 0.000000 2.027560 0.000000 
#    z 0.000000 0.000000 3.511700 
# 
# From -- ./inp_files/7664.got.cif
#   From: 2010.05.17/outbox.cif.g08.bks.cpg/sg20_4_cif.got.tgz:7664.got - 2010.06.03 22:52:26.
