data_PCOD9321525
_publ_section_title
;
Structure prediction by ZEFSAII (Michael W. Deem and Ramdas Pophale) SiO2 
 PCOD9321525
Probable space group: C 2 2 21
;
_chemical_formula_sum "Si O2"
_cell_formula_units_Z 60
_cell_length_a 27.238901
_cell_length_b 8.439007
_cell_length_c 10.268791
_cell_angle_alpha 90.000000
_cell_angle_beta 90.000000
_cell_angle_gamma 90.000000
_cell_volume 2360.479555
_symmetry_space_group_name_H-M "C 2 2 21"
_symmetry_group_IT_number 20
_symmetry_cell_setting 'orthorhombic'
loop_
_space_group_symop_operation_xyz
x,y,z
-x,-y,1/2+z
x,-y,-z
-x,y,1/2-z
1/2+x,1/2+y,z
1/2-x,1/2-y,1/2+z
1/2+x,1/2-y,-z
1/2-x,1/2+y,1/2-z
loop_
_atom_site_type_symbol
_atom_site_label
_atom_site_fract_x
_atom_site_fract_y
_atom_site_fract_z
Si Si1 0.706802 0.500000 0.500000
Si Si2 0.630266 0.244249 0.257944
Si Si3 0.552672 0.307414 0.028678
Si Si4 0.413174 0.782557 0.260095
Si Si5 0.772224 0.469571 0.751232
Si Si6 0.329775 0.156905 0.916016
Si Si7 0.557782 0.683487 0.511165
Si Si8 0.827289 0.054192 0.353693
O O1 0.744682 0.502422 0.618734
O O2 0.676770 0.666396 0.475640
O O3 0.677186 0.128716 0.238898
O O4 0.597192 0.235322 0.390343
O O5 0.657147 0.413806 0.244228
O O6 0.591060 0.247414 0.137815
O O7 0.558772 0.202256 0.896270
O O8 0.558608 0.500000 0.000000
O O9 0.496085 0.293435 0.071580
O O10 0.380259 0.885328 0.160402
O O11 0.367159 0.682449 0.315182
O O12 0.447331 0.717888 0.144583
O O13 0.785952 0.637810 0.814216
O O14 0.729484 0.401802 0.843539
O O15 0.821191 0.500000 0.000000
O O16 0.571953 0.500000 0.500000
O O17 0.835428 0.000000 0.500000
#
# Coordination Sequence:
#
# PCOD9321525 Si02
#       8
#     4   8   8   8   8   8   8   8
#     4  12  30  52  82 114 168 238 278 342 422 496
#     4  12  24  46  74 114 170 211 274 361 426 496
#     4  11  22  45  73 120 163 217 289 354 430 516
#     4  12  23  43  72 110 165 213 270 351 422 504
#     4  12  30  46  75 111 160 220 287 331 412 515
#     4  12  30  50  78 118 169 219 292 348 413 501
#     4  11  23  39  76 116 162 216 283 361 432 506
#     4  12  24  44  70 108 157 228 273 339 425 502
#
# _framework density 25.418562000000001
#
# number of rings (size 3 to 8) (size 9 to 14) (size 15 to 20)
#    0.000    0.267    5.333    2.800    8.400    3.200 
#    0.000    0.000    0.000    8.000    0.000    0.000 
#    0.000    0.000    0.000    0.000    0.000    0.000 
#
# Total GULP energy -167203.866725 kJ/mol
# GULP energy per Si atom -5573.462224 kJ/mol
# Density = 2.536071 g / cm^3
# Si number density = 25.418562 Si / 1000 Ang^3
#
#
#
# Elastic Constant Matrix: (Units=GPa)
#
#
# Indices 1 2 3 4 5 6 
#
# 1 207.5820 54.7118 70.0077 0.0000 0.0000 0.0000
# 2 54.7118 93.0406 27.3485 0.0000 0.0000 0.0000
# 3 70.0077 27.3485 169.5459 0.0000 0.0000 0.0000
# 4 0.0000 0.0000 0.0000 7.1775 0.0000 0.0000
# 5 0.0000 0.0000 0.0000 0.0000 44.1505 0.0000
# 6 0.0000 0.0000 0.0000 0.0000 0.0000 18.2055
#
#
#
# Elastic Compliance Matrix: (Units=1/GPa)
#
#
# Indices 1 2 3 4 5 6 
#
# 1 0.006353 -0.003112 -0.002121 0.000000 0.000000 0.000000
# 2 -0.003112 0.012808 -0.000781 0.000000 0.000000 0.000000
# 3 -0.002121 -0.000781 0.006900 0.000000 0.000000 0.000000
# 4 0.000000 0.000000 0.000000 0.139325 0.000000 0.000000
# 5 0.000000 0.000000 0.000000 0.000000 0.022650 0.000000
# 6 0.000000 0.000000 0.000000 0.000000 0.000000 0.054929
#
#
# Mechanical properties :
#
#
# Convention : Reuss Voigt Hill
#
# Bulk Modulus (GPa) = 71.26606 86.03385 78.64996
# Shear Modulus (GPa) = 19.25519 35.11339 27.18429
#
# Velocity S-wave (km/s) = 2.75530 3.72076 3.27382
# Velocity P-wave (km/s) = 6.18224 7.23734 6.73050
#
# Compressibility (1/GPa) = 0.01403192
#
# Stress axis : x y z
#
# Youngs Moduli (GPa) = 157.40394 78.07800 144.92886
#
# Poissons Ratio (x) = 0.24301 0.30743
# Poissons Ratio (y) = 0.48990 0.11316
# Poissons Ratio (z) = 0.33389 0.06096
#
# Static dielectric constant tensor:
#      x y z
#    x 2.065200 0.000000 0.000000 
#    y 0.000000 2.127090 0.000000 
#    z 0.000000 0.000000 2.177720 
# 
# From -- ./inp_files/11582.got.cif
#   From: 2010.05.17/outbox.cif.g08.bks.cpg/sg20_6_cif.got.tgz:11582.got - 2010.06.03 22:52:26.
