data_PCOD9321421
_publ_section_title
;
Structure prediction by ZEFSAII (Michael W. Deem and Ramdas Pophale) SiO2 
 PCOD9321421
Probable space group: C 2 2 21
;
_chemical_formula_sum "Si O2"
_cell_formula_units_Z 48
_cell_length_a 8.089171
_cell_length_b 30.383201
_cell_length_c 8.663580
_cell_angle_alpha 90.000000
_cell_angle_beta 90.000000
_cell_angle_gamma 90.000000
_cell_volume 2129.290581
_symmetry_space_group_name_H-M "C 2 2 21"
_symmetry_group_IT_number 20
_symmetry_cell_setting 'orthorhombic'
loop_
_space_group_symop_operation_xyz
x,y,z
-x,-y,1/2+z
x,-y,-z
-x,y,1/2-z
1/2+x,1/2+y,z
1/2-x,1/2-y,1/2+z
1/2+x,1/2-y,-z
1/2-x,1/2+y,1/2-z
loop_
_atom_site_type_symbol
_atom_site_label
_atom_site_fract_x
_atom_site_fract_y
_atom_site_fract_z
Si Si1 0.840999 0.786787 0.156956
Si Si2 0.671787 0.046839 0.061785
Si Si3 0.335506 0.634832 0.351728
Si Si4 0.837020 0.356918 0.537396
Si Si5 0.227338 0.544750 0.417874
Si Si6 0.156686 0.699532 0.536992
O O1 0.880296 0.741059 0.071721
O O2 0.697879 0.785225 0.289270
O O3 0.000000 0.801087 0.250000
O O4 0.787840 0.821607 0.029910
O O5 0.707928 0.093596 0.982456
O O6 0.743928 0.045113 0.233570
O O7 0.470966 0.047075 0.058993
O O8 0.726863 0.000000 0.000000
O O9 0.500000 0.632527 0.250000
O O10 0.189204 0.639445 0.222122
O O11 0.312119 0.591124 0.456105
O O12 0.316511 0.676667 0.460317
O O13 0.012885 0.337368 0.481207
O O14 0.285934 0.500000 0.500000
#
# Coordination Sequence:
#
# PCOD9321421 Si02
#       6
#     8   8   8   8   8   8
#     4  12  26  42  64  96 132 167 211 268 325 379
#     4   9  18  36  63  94 124 159 211 264 304 365
#     4  11  22  39  64  92 129 172 212 266 324 377
#     4  11  23  43  66  95 128 170 219 259 317 383
#     4   9  18  35  59  91 122 162 209 255 315 370
#     4  12  24  43  66  92 125 172 217 265 314 387
#
# _framework density 22.542718000000001
#
# number of rings (size 3 to 8) (size 9 to 14) (size 15 to 20)
#    0.000    1.333    1.667    5.000    0.000    2.667 
#    6.000    3.333    0.000    2.000    0.000    0.000 
#    0.000    0.000    0.000    0.000    0.000    0.000 
#
# Total GULP energy -133971.880304 kJ/mol
# GULP energy per Si atom -5582.161679 kJ/mol
# Density = 2.249141 g / cm^3
# Si number density = 22.542718 Si / 1000 Ang^3
#
#
#
# Elastic Constant Matrix: (Units=GPa)
#
#
# Indices 1 2 3 4 5 6 
#
# 1 60.3131 2.2699 -3.1900 0.0000 0.0000 0.0000
# 2 2.2699 123.1571 25.6069 0.0000 0.0000 0.0000
# 3 -3.1900 25.6069 44.3891 0.0000 0.0000 0.0000
# 4 0.0000 0.0000 0.0000 45.8967 0.0000 0.0000
# 5 0.0000 0.0000 0.0000 0.0000 25.4046 0.0000
# 6 0.0000 0.0000 0.0000 0.0000 0.0000 12.6422
#
#
#
# Elastic Compliance Matrix: (Units=1/GPa)
#
#
# Indices 1 2 3 4 5 6 
#
# 1 0.016687 -0.000633 0.001564 0.000000 0.000000 0.000000
# 2 -0.000633 0.009250 -0.005382 0.000000 0.000000 0.000000
# 3 0.001564 -0.005382 0.025745 0.000000 0.000000 0.000000
# 4 0.000000 0.000000 0.000000 0.021788 0.000000 0.000000
# 5 0.000000 0.000000 0.000000 0.000000 0.039363 0.000000
# 6 0.000000 0.000000 0.000000 0.000000 0.000000 0.079100
#
#
# Mechanical properties :
#
#
# Convention : Reuss Voigt Hill
#
# Bulk Modulus (GPa) = 23.37464 30.80367 27.08916
# Shear Modulus (GPa) = 23.24558 30.33353 26.78956
#
# Velocity S-wave (km/s) = 3.21468 3.67222 3.45104
# Velocity P-wave (km/s) = 4.91635 5.62801 5.28417
#
# Compressibility (1/GPa) = 0.04278140
#
# Stress axis : x y z
#
# Youngs Moduli (GPa) = 59.92801 108.10396 38.84244
#
# Poissons Ratio (x) = 0.06841 -0.06076
# Poissons Ratio (y) = 0.03792 0.20904
# Poissons Ratio (z) = -0.09374 0.58179
#
# Static dielectric constant tensor:
#      x y z
#    x 1.959640 0.000000 0.000000 
#    y 0.000000 1.898990 0.000000 
#    z 0.000000 0.000000 1.824000 
# 
# From -- ./inp_files/6514.got.cif
#   From: 2010.05.17/outbox.cif.g08.bks.cpg/sg20_4_cif.got.tgz:6514.got - 2010.06.03 22:52:26.
