data_PCOD9321022
_publ_section_title
;
Structure prediction by ZEFSAII (Michael W. Deem and Ramdas Pophale) SiO2 
 PCOD9321022
Probable space group: C 2 2 21
;
_chemical_formula_sum "Si O2"
_cell_formula_units_Z 64
_cell_length_a 32.311978
_cell_length_b 8.469576
_cell_length_c 11.049317
_cell_angle_alpha 90.000000
_cell_angle_beta 90.000000
_cell_angle_gamma 90.000000
_cell_volume 3023.852809
_symmetry_space_group_name_H-M "C 2 2 21"
_symmetry_group_IT_number 20
_symmetry_cell_setting 'orthorhombic'
loop_
_space_group_symop_operation_xyz
x,y,z
-x,-y,1/2+z
x,-y,-z
-x,y,1/2-z
1/2+x,1/2+y,z
1/2-x,1/2-y,1/2+z
1/2+x,1/2-y,-z
1/2-x,1/2+y,1/2-z
loop_
_atom_site_type_symbol
_atom_site_label
_atom_site_fract_x
_atom_site_fract_y
_atom_site_fract_z
Si Si1 0.873523 0.596805 0.379468
Si Si2 0.826457 0.321340 0.008555
Si Si3 0.192637 0.784962 0.241826
Si Si4 0.899867 0.617755 0.825946
Si Si5 0.954598 0.876940 0.690768
Si Si6 0.045126 0.791422 0.092102
Si Si7 0.980760 0.561862 0.127592
Si Si8 0.233745 0.921828 0.632825
O O1 0.862913 0.500000 0.500000
O O2 0.844579 0.748213 0.352150
O O3 0.870882 0.470831 0.270770
O O4 0.921101 0.655253 0.385782
O O5 0.825363 0.256816 0.873438
O O6 0.872128 0.672971 0.936491
O O7 0.810121 0.500000 0.000000
O O8 0.799264 0.211395 0.094995
O O9 0.227817 0.664032 0.196095
O O10 0.213880 0.953519 0.271980
O O11 0.923772 0.764473 0.765016
O O12 0.933589 0.487796 0.865426
O O13 0.954920 0.823749 0.550704
O O14 0.000000 0.869197 0.750000
O O15 0.942436 0.060085 0.674218
O O16 0.998375 0.738202 0.123819
O O17 0.000000 0.490484 0.250000
O O18 0.997379 0.500000 0.000000
O O19 0.244528 0.000000 0.500000
#
# Coordination Sequence:
#
# PCOD9321022 Si02
#       8
#     8   8   8   8   8   8   8   8
#     4  12  24  42  71 100 137 186 236 296 361 437
#     4  11  23  43  69 107 142 185 231 293 355 433
#     4  11  24  45  73 105 143 185 233 295 359 439
#     4  12  24  40  70  96 138 179 239 292 357 438
#     4  11  25  44  64  96 136 183 236 306 365 429
#     4  11  24  43  65  95 138 178 240 299 363 431
#     4  12  23  39  68  97 129 182 236 287 355 426
#     4  10  24  47  77 107 150 190 238 299 364 448
#
# _framework density 21.165053
#
# number of rings (size 3 to 8) (size 9 to 14) (size 15 to 20)
#    0.000    0.750    3.750    4.125    1.750    0.000 
#    0.000    0.000    2.750    0.000    0.000    0.000 
#    0.000    0.000    0.000    0.000    0.000    0.000 
#
# Total GULP energy -178615.259781 kJ/mol
# GULP energy per Si atom -5581.726868 kJ/mol
# Density = 2.111688 g / cm^3
# Si number density = 21.165053 Si / 1000 Ang^3
#
#
#
# Elastic Constant Matrix: (Units=GPa)
#
#
# Indices 1 2 3 4 5 6 
#
# 1 108.4370 39.6317 49.8349 0.0000 0.0000 0.0000
# 2 39.6317 99.9650 34.7980 0.0000 0.0000 0.0000
# 3 49.8349 34.7980 105.1158 0.0000 0.0000 0.0000
# 4 0.0000 0.0000 0.0000 32.4524 0.0000 0.0000
# 5 0.0000 0.0000 0.0000 0.0000 31.2936 0.0000
# 6 0.0000 0.0000 0.0000 0.0000 0.0000 30.6716
#
#
#
# Elastic Compliance Matrix: (Units=1/GPa)
#
#
# Indices 1 2 3 4 5 6 
#
# 1 0.012697 -0.003321 -0.004920 0.000000 0.000000 0.000000
# 2 -0.003321 0.012175 -0.002456 0.000000 0.000000 0.000000
# 3 -0.004920 -0.002456 0.012659 0.000000 0.000000 0.000000
# 4 0.000000 0.000000 0.000000 0.030814 0.000000 0.000000
# 5 0.000000 0.000000 0.000000 0.000000 0.031955 0.000000
# 6 0.000000 0.000000 0.000000 0.000000 0.000000 0.032603
#
#
# Mechanical properties :
#
#
# Convention : Reuss Voigt Hill
#
# Bulk Modulus (GPa) = 61.97089 62.44965 62.21027
# Shear Modulus (GPa) = 31.31314 31.50040 31.40677
#
# Velocity S-wave (km/s) = 3.85057 3.86206 3.85632
# Velocity P-wave (km/s) = 7.00803 7.03260 7.02033
#
# Compressibility (1/GPa) = 0.01613661
#
# Stress axis : x y z
#
# Youngs Moduli (GPa) = 78.75950 82.13497 78.99541
#
# Poissons Ratio (x) = 0.27277 0.38867
# Poissons Ratio (y) = 0.26156 0.19401
# Poissons Ratio (z) = 0.38751 0.20172
#
# Static dielectric constant tensor:
#      x y z
#    x 1.756880 0.000000 0.000000 
#    y 0.000000 1.822260 0.000000 
#    z 0.000000 0.000000 1.788180 
# 
# From -- ./inp_files/17268.got.cif
#   From: 2010.05.17/outbox.cif.g08.bks.cpg/sg20_9_cif.got.tgz:17268.got - 2010.06.03 22:52:26.
