data_PCOD9321879
_publ_section_title
;
Structure prediction by ZEFSAII (Michael W. Deem and Ramdas Pophale) SiO2 
 PCOD9321879
Probable space group: C 2 2 21
;
_chemical_formula_sum "Si O2"
_cell_formula_units_Z 28
_cell_length_a 5.157349
_cell_length_b 18.520529
_cell_length_c 11.745134
_cell_angle_alpha 90.000000
_cell_angle_beta 90.000000
_cell_angle_gamma 90.000000
_cell_volume 1121.857988
_symmetry_space_group_name_H-M "C 2 2 21"
_symmetry_group_IT_number 20
_symmetry_cell_setting 'orthorhombic'
loop_
_space_group_symop_operation_xyz
x,y,z
-x,-y,1/2+z
x,-y,-z
-x,y,1/2-z
1/2+x,1/2+y,z
1/2-x,1/2-y,1/2+z
1/2+x,1/2-y,-z
1/2-x,1/2+y,1/2-z
loop_
_atom_site_type_symbol
_atom_site_label
_atom_site_fract_x
_atom_site_fract_y
_atom_site_fract_z
Si Si1 0.183451 0.100764 0.579703
Si Si2 0.500000 0.798055 0.250000
Si Si3 0.242852 0.939389 0.673988
Si Si4 0.165003 0.775305 0.062565
O O1 0.357203 0.150767 0.659983
O O2 0.181185 0.021847 0.634030
O O3 0.904608 0.139986 0.575644
O O4 0.273098 0.099152 0.448352
O O5 0.287727 0.752319 0.182293
O O6 0.500000 0.937236 0.750000
O O7 0.000000 0.914345 0.750000
O O8 0.393568 0.759910 0.973281
#
# Coordination Sequence:
#
# PCOD9321879 Si02
#       4
#     8   4   8   8
#     4  11  26  47  83 108 156 202 256 310 400 453
#     4  12  24  50  78 110 148 206 260 312 396 468
#     4  11  26  46  75 118 155 194 250 317 383 466
#     4  12  27  48  74 110 146 199 265 318 378 460
#
# _framework density 24.958597000000001
#
# number of rings (size 3 to 8) (size 9 to 14) (size 15 to 20)
#    0.000    0.571    4.286    2.571    4.000    2.286 
#    2.571    5.714    0.000    0.000    0.000    0.000 
#    0.000    0.000    0.000    0.000    0.000    0.000 
#
# Total GULP energy -78436.731687 kJ/mol
# GULP energy per Si atom -5602.623692 kJ/mol
# Density = 2.490179 g / cm^3
# Si number density = 24.958597 Si / 1000 Ang^3
#
#
#
# Elastic Constant Matrix: (Units=GPa)
#
#
# Indices 1 2 3 4 5 6 
#
# 1 201.3236 51.0753 105.0518 0.0000 0.0000 0.0000
# 2 51.0753 62.9525 44.6169 0.0000 0.0000 0.0000
# 3 105.0518 44.6169 220.6386 0.0000 0.0000 0.0000
# 4 0.0000 0.0000 0.0000 43.0477 0.0000 0.0000
# 5 0.0000 0.0000 0.0000 0.0000 57.6093 0.0000
# 6 0.0000 0.0000 0.0000 0.0000 0.0000 30.8729
#
#
#
# Elastic Compliance Matrix: (Units=1/GPa)
#
#
# Indices 1 2 3 4 5 6 
#
# 1 0.007418 -0.004103 -0.002702 0.000000 0.000000 0.000000
# 2 -0.004103 0.020812 -0.002255 0.000000 0.000000 0.000000
# 3 -0.002702 -0.002255 0.006275 0.000000 0.000000 0.000000
# 4 0.000000 0.000000 0.000000 0.023230 0.000000 0.000000
# 5 0.000000 0.000000 0.000000 0.000000 0.017358 0.000000
# 6 0.000000 0.000000 0.000000 0.000000 0.000000 0.032391
#
#
# Mechanical properties :
#
#
# Convention : Reuss Voigt Hill
#
# Bulk Modulus (GPa) = 61.03376 98.48920 79.76148
# Shear Modulus (GPa) = 38.14839 45.25069 41.69954
#
# Velocity S-wave (km/s) = 3.91380 4.26259 4.09191
# Velocity P-wave (km/s) = 6.70305 7.98579 7.37237
#
# Compressibility (1/GPa) = 0.01638438
#
# Stress axis : x y z
#
# Youngs Moduli (GPa) = 134.80375 48.04842 159.36619
#
# Poissons Ratio (x) = 0.19716 0.43064
# Poissons Ratio (y) = 0.55316 0.35935
# Poissons Ratio (z) = 0.36427 0.10834
#
# Static dielectric constant tensor:
#      x y z
#    x 1.953330 0.000000 0.000000 
#    y 0.000000 2.028000 0.000000 
#    z 0.000000 0.000000 1.995480 
# 
# From -- ./inp_files/5055.got.cif
#   From: 2010.05.17/outbox.cif.g08.bks.cpg/sg20_3_cif.got.tgz:5055.got - 2010.06.03 22:52:26.
