data_PCOD9321310
_publ_section_title
;
Structure prediction by ZEFSAII (Michael W. Deem and Ramdas Pophale) SiO2 
 PCOD9321310
Probable space group: C 2 2 21
;
_chemical_formula_sum "Si O2"
_cell_formula_units_Z 60
_cell_length_a 27.519561
_cell_length_b 14.441894
_cell_length_c 7.734551
_cell_angle_alpha 90.000000
_cell_angle_beta 90.000000
_cell_angle_gamma 90.000000
_cell_volume 3073.978051
_symmetry_space_group_name_H-M "C 2 2 21"
_symmetry_group_IT_number 20
_symmetry_cell_setting 'orthorhombic'
loop_
_space_group_symop_operation_xyz
x,y,z
-x,-y,1/2+z
x,-y,-z
-x,y,1/2-z
1/2+x,1/2+y,z
1/2-x,1/2-y,1/2+z
1/2+x,1/2-y,-z
1/2-x,1/2+y,1/2-z
loop_
_atom_site_type_symbol
_atom_site_label
_atom_site_fract_x
_atom_site_fract_y
_atom_site_fract_z
Si Si1 0.029381 0.099150 0.428233
Si Si2 0.849038 0.968190 0.298972
Si Si3 0.291760 0.219859 0.887952
Si Si4 0.697506 0.832210 0.788909
Si Si5 0.237615 0.474496 0.293547
Si Si6 0.000000 0.207211 0.750000
Si Si7 0.115730 0.167354 0.264149
Si Si8 0.397400 0.275010 0.369425
O O1 0.998655 0.141683 0.582799
O O2 0.070495 0.175892 0.390967
O O3 0.000000 0.086103 0.250000
O O4 0.045375 0.000000 0.500000
O O5 0.793523 0.961397 0.236529
O O6 0.877097 0.871236 0.283902
O O7 0.846449 0.000000 0.500000
O O8 0.874597 0.057437 0.221272
O O9 0.240292 0.272088 0.875667
O O10 0.288193 0.124230 0.781675
O O11 0.335026 0.282068 0.815636
O O12 0.301035 0.194424 0.086259
O O13 0.645086 0.800923 0.854478
O O14 0.711858 0.940013 0.800205
O O15 0.238813 0.500000 0.500000
O O16 0.052300 0.255962 0.778464
O O17 0.099996 0.198589 0.072758
#
# Coordination Sequence:
#
# PCOD9321310 Si02
#       8
#     8   8   8   8   8   4   8   8
#     4  12  24  40  60  89 125 168 213 258 310 370
#     4   9  17  31  53  81 120 161 192 233 301 368
#     4  11  21  36  58  86 118 158 207 253 313 386
#     4  11  21  37  58  86 119 159 205 259 314 376
#     4   9  18  35  56  80 117 160 199 243 307 373
#     4  12  24  40  60  86 120 166 216 260 310 372
#     4  11  22  38  59  87 123 163 202 254 312 372
#     4  11  22  38  60  85 121 164 209 257 311 371
#
# _framework density 19.518681999999998
#
# number of rings (size 3 to 8) (size 9 to 14) (size 15 to 20)
#    0.000    1.333    4.667    2.400    0.000    0.000 
#    0.000    4.000    0.000    0.000    1.733    0.000 
#    0.000    0.000    0.000    0.000    0.000    0.000 
#
# Total GULP energy -167527.534754 kJ/mol
# GULP energy per Si atom -5584.251158 kJ/mol
# Density = 1.947426 g / cm^3
# Si number density = 19.518682 Si / 1000 Ang^3
#
#
#
# Elastic Constant Matrix: (Units=GPa)
#
#
# Indices 1 2 3 4 5 6 
#
# 1 123.3696 25.3647 28.7127 0.0000 0.0000 0.0000
# 2 25.3647 54.7151 3.7640 0.0000 0.0000 0.0000
# 3 28.7127 3.7640 67.4583 0.0000 0.0000 0.0000
# 4 0.0000 0.0000 0.0000 9.1091 0.0000 0.0000
# 5 0.0000 0.0000 0.0000 0.0000 18.8480 0.0000
# 6 0.0000 0.0000 0.0000 0.0000 0.0000 28.0357
#
#
#
# Elastic Compliance Matrix: (Units=1/GPa)
#
#
# Indices 1 2 3 4 5 6 
#
# 1 0.009922 -0.004326 -0.003982 0.000000 0.000000 0.000000
# 2 -0.004326 0.020233 0.000712 0.000000 0.000000 0.000000
# 3 -0.003982 0.000712 0.016479 0.000000 0.000000 0.000000
# 4 0.000000 0.000000 0.000000 0.109780 0.000000 0.000000
# 5 0.000000 0.000000 0.000000 0.000000 0.053056 0.000000
# 6 0.000000 0.000000 0.000000 0.000000 0.000000 0.035669
#
#
# Mechanical properties :
#
#
# Convention : Reuss Voigt Hill
#
# Bulk Modulus (GPa) = 31.80329 40.13620 35.96975
# Shear Modulus (GPa) = 18.46317 23.71201 21.08759
#
# Velocity S-wave (km/s) = 3.07892 3.48923 3.29048
# Velocity P-wave (km/s) = 5.38227 6.06965 5.73626
#
# Compressibility (1/GPa) = 0.03144329
#
# Stress axis : x y z
#
# Youngs Moduli (GPa) = 100.78860 49.42479 60.68334
#
# Poissons Ratio (x) = 0.21379 0.24162
# Poissons Ratio (y) = 0.43597 -0.04322
# Poissons Ratio (z) = 0.40131 -0.03520
#
# Static dielectric constant tensor:
#      x y z
#    x 1.740700 0.000000 0.000000 
#    y 0.000000 1.657760 0.000000 
#    z 0.000000 0.000000 1.650100 
# 
# From -- ./inp_files/10775.got.cif
#   From: 2010.05.17/outbox.cif.g08.bks.cpg/sg20_6_cif.got.tgz:10775.got - 2010.06.03 22:52:26.
