data_PCOD9321065
_publ_section_title
;
Structure prediction by ZEFSAII (Michael W. Deem and Ramdas Pophale) SiO2 
 PCOD9321065
Probable space group: C 2 2 21
;
_chemical_formula_sum "Si O2"
_cell_formula_units_Z 32
_cell_length_a 5.347032
_cell_length_b 9.015511
_cell_length_c 28.830630
_cell_angle_alpha 90.000000
_cell_angle_beta 90.000000
_cell_angle_gamma 90.000000
_cell_volume 1389.815860
_symmetry_space_group_name_H-M "C 2 2 21"
_symmetry_group_IT_number 20
_symmetry_cell_setting 'orthorhombic'
loop_
_space_group_symop_operation_xyz
x,y,z
-x,-y,1/2+z
x,-y,-z
-x,y,1/2-z
1/2+x,1/2+y,z
1/2-x,1/2-y,1/2+z
1/2+x,1/2-y,-z
1/2-x,1/2+y,1/2-z
loop_
_atom_site_type_symbol
_atom_site_label
_atom_site_fract_x
_atom_site_fract_y
_atom_site_fract_z
Si Si1 0.367300 0.337317 0.700791
Si Si2 0.690449 0.336660 0.616692
Si Si3 0.048635 0.169050 0.017065
Si Si4 0.972936 0.877469 0.156107
O O1 0.500000 0.339305 0.750000
O O2 0.549715 0.272105 0.661546
O O3 0.129138 0.233261 0.695404
O O4 0.341551 0.504342 0.681019
O O5 0.524353 0.331711 0.571263
O O6 0.723332 0.507606 0.632184
O O7 0.927162 0.229720 0.615522
O O8 0.808586 0.247412 0.993040
O O9 0.071081 0.000000 0.000000
#
# Coordination Sequence:
#
# PCOD9321065 Si02
#       4
#     8   8   8   8
#     4  10  26  40  68  97 137 176 228 275 344 410
#     4  10  26  42  70  94 138 174 230 285 348 415
#     4  12  28  47  74 106 141 187 240 298 363 428
#     4  10  25  40  68  93 136 173 225 275 345 403
#
# _framework density 23.024630999999999
#
# number of rings (size 3 to 8) (size 9 to 14) (size 15 to 20)
#    1.500    0.000    0.000    2.250   14.000    0.000 
#    0.000    0.000    0.000    0.000    0.000    0.000 
#    0.000    0.000    0.000    0.000    0.000    0.000 
#
# Total GULP energy -89174.991910 kJ/mol
# GULP energy per Si atom -5573.436994 kJ/mol
# Density = 2.297223 g / cm^3
# Si number density = 23.024631 Si / 1000 Ang^3
#
#
#
# Elastic Constant Matrix: (Units=GPa)
#
#
# Indices 1 2 3 4 5 6 
#
# 1 51.7147 49.7271 27.0899 0.0000 0.0000 0.0000
# 2 49.7271 179.7337 35.9246 0.0000 0.0000 0.0000
# 3 27.0899 35.9246 74.5537 0.0000 0.0000 0.0000
# 4 0.0000 0.0000 0.0000 -36.5639 0.0000 0.0000
# 5 0.0000 0.0000 0.0000 0.0000 37.5532 0.0000
# 6 0.0000 0.0000 0.0000 0.0000 0.0000 83.0645
#
#
#
# Elastic Compliance Matrix: (Units=1/GPa)
#
#
# Indices 1 2 3 4 5 6 
#
# 1 0.029770 -0.006722 -0.007578 0.000000 0.000000 0.000000
# 2 -0.006722 0.007674 -0.001256 0.000000 0.000000 0.000000
# 3 -0.007578 -0.001256 0.016772 0.000000 0.000000 0.000000
# 4 0.000000 0.000000 0.000000 -0.027349 0.000000 0.000000
# 5 0.000000 0.000000 0.000000 0.000000 0.026629 0.000000
# 6 0.000000 0.000000 0.000000 0.000000 0.000000 0.012039
#
#
# Mechanical properties :
#
#
# Convention : Reuss Voigt Hill
#
# Bulk Modulus (GPa) = 43.28069 59.05392 51.16731
# Shear Modulus (GPa) = 47.91664 29.69478 38.80571
#
# Velocity S-wave (km/s) = 4.56686 3.59513 4.10982
# Velocity P-wave (km/s) = 6.82984 6.55264 6.69267
#
# Compressibility (1/GPa) = 0.02310499
#
# Stress axis : x y z
#
# Youngs Moduli (GPa) = 33.59075 130.30205 59.62371
#
# Poissons Ratio (x) = 0.87586 0.45185
# Poissons Ratio (y) = 0.22579 0.07486
# Poissons Ratio (z) = 0.25456 0.16361
#
# Static dielectric constant tensor:
#      x y z
#    x 3.945420 0.000000 0.000000 
#    y 0.000000 1.827970 0.000000 
#    z 0.000000 0.000000 1.538320 
# 
# From -- ./inp_files/30594.got.cif
#   From: 2010.05.17/outbox.cif.g08.bks.cpg/sg20_16_cif.got.tgz:30594.got - 2010.06.03 22:52:26.
