data_PCOD9321456
_publ_section_title
;
Structure prediction by ZEFSAII (Michael W. Deem and Ramdas Pophale) SiO2 
 PCOD9321456
Probable space group: C 2 2 21
;
_chemical_formula_sum "Si O2"
_cell_formula_units_Z 40
_cell_length_a 11.391124
_cell_length_b 18.823208
_cell_length_c 8.103187
_cell_angle_alpha 90.000000
_cell_angle_beta 90.000000
_cell_angle_gamma 90.000000
_cell_volume 1737.465069
_symmetry_space_group_name_H-M "C 2 2 21"
_symmetry_group_IT_number 20
_symmetry_cell_setting 'orthorhombic'
loop_
_space_group_symop_operation_xyz
x,y,z
-x,-y,1/2+z
x,-y,-z
-x,y,1/2-z
1/2+x,1/2+y,z
1/2-x,1/2-y,1/2+z
1/2+x,1/2-y,-z
1/2-x,1/2+y,1/2-z
loop_
_atom_site_type_symbol
_atom_site_label
_atom_site_fract_x
_atom_site_fract_y
_atom_site_fract_z
Si Si1 0.000000 0.755155 0.750000
Si Si2 0.632939 0.671257 0.771303
Si Si3 0.443898 0.131895 0.992235
Si Si4 0.879826 0.500000 0.500000
Si Si5 0.745065 0.961355 0.323117
Si Si6 0.235818 0.207779 0.126350
O O1 0.995459 0.702371 0.907657
O O2 0.878326 0.798966 0.743523
O O3 0.500000 0.693010 0.750000
O O4 0.646051 0.586750 0.769992
O O5 0.714466 0.712988 0.644070
O O6 0.682092 0.695314 0.947408
O O7 0.359176 0.094954 0.857709
O O8 0.537430 0.069745 0.020987
O O9 0.351420 0.156945 0.134804
O O10 0.800510 0.497873 0.664004
O O11 0.761994 0.000000 0.500000
#
# Coordination Sequence:
#
# PCOD9321456 Si02
#       6
#     4   8   8   4   8   8
#     4  12  20  46  68 102 152 180 242 314 358 456
#     4  11  25  49  72 106 155 194 247 310 375 451
#     4  11  22  41  68 106 143 185 244 307 368 441
#     4  12  22  46  78 108 152 194 246 320 378 438
#     4  11  24  47  70 110 147 192 254 306 365 450
#     4  11  23  44  71 103 147 192 241 303 370 444
#
# _framework density 23.022044000000001
#
# number of rings (size 3 to 8) (size 9 to 14) (size 15 to 20)
#    0.000    0.800    7.000    1.200    0.000    0.000 
#   27.000    0.000    2.200    0.000    0.000    0.000 
#    0.000    0.000    0.000    0.000    0.000    0.000 
#
# Total GULP energy -111641.368610 kJ/mol
# GULP energy per Si atom -5582.068430 kJ/mol
# Density = 2.296965 g / cm^3
# Si number density = 23.022044 Si / 1000 Ang^3
#
#
#
# Elastic Constant Matrix: (Units=GPa)
#
#
# Indices 1 2 3 4 5 6 
#
# 1 120.8732 41.2002 48.5828 0.0000 0.0000 0.0000
# 2 41.2002 80.5447 57.9100 0.0000 0.0000 0.0000
# 3 48.5828 57.9100 80.8835 0.0000 0.0000 0.0000
# 4 0.0000 0.0000 0.0000 31.9085 0.0000 0.0000
# 5 0.0000 0.0000 0.0000 0.0000 28.5373 0.0000
# 6 0.0000 0.0000 0.0000 0.0000 0.0000 50.2885
#
#
#
# Elastic Compliance Matrix: (Units=1/GPa)
#
#
# Indices 1 2 3 4 5 6 
#
# 1 0.011033 -0.001811 -0.005330 0.000000 0.000000 0.000000
# 2 -0.001811 0.025884 -0.017444 0.000000 0.000000 0.000000
# 3 -0.005330 -0.017444 0.028054 0.000000 0.000000 0.000000
# 4 0.000000 0.000000 0.000000 0.031340 0.000000 0.000000
# 5 0.000000 0.000000 0.000000 0.000000 0.035042 0.000000
# 6 0.000000 0.000000 0.000000 0.000000 0.000000 0.019885
#
#
# Mechanical properties :
#
#
# Convention : Reuss Voigt Hill
#
# Bulk Modulus (GPa) = 63.29024 64.18750 63.73887
# Shear Modulus (GPa) = 24.31010 31.12074 27.71542
#
# Velocity S-wave (km/s) = 3.25306 3.68064 3.47344
# Velocity P-wave (km/s) = 6.45451 6.78264 6.62061
#
# Compressibility (1/GPa) = 0.01580023
#
# Stress axis : x y z
#
# Youngs Moduli (GPa) = 90.63841 38.63390 35.64499
#
# Poissons Ratio (x) = 0.06998 0.18999
# Poissons Ratio (y) = 0.16417 0.62180
# Poissons Ratio (z) = 0.48311 0.67394
#
# Static dielectric constant tensor:
#      x y z
#    x 1.897720 0.000000 0.000000 
#    y 0.000000 1.921100 0.000000 
#    z 0.000000 0.000000 1.912070 
# 
# From -- ./inp_files/7267.got.cif
#   From: 2010.05.17/outbox.cif.g08.bks.cpg/sg20_4_cif.got.tgz:7267.got - 2010.06.03 22:52:26.
