data_PCOD9321643
_publ_section_title
;
Structure prediction by ZEFSAII (Michael W. Deem and Ramdas Pophale) SiO2 
 PCOD9321643
Probable space group: C 2 2 21
;
_chemical_formula_sum "Si O2"
_cell_formula_units_Z 40
_cell_length_a 14.915903
_cell_length_b 12.538840
_cell_length_c 9.539913
_cell_angle_alpha 90.000000
_cell_angle_beta 90.000000
_cell_angle_gamma 90.000000
_cell_volume 1784.232005
_symmetry_space_group_name_H-M "C 2 2 21"
_symmetry_group_IT_number 20
_symmetry_cell_setting 'orthorhombic'
loop_
_space_group_symop_operation_xyz
x,y,z
-x,-y,1/2+z
x,-y,-z
-x,y,1/2-z
1/2+x,1/2+y,z
1/2-x,1/2-y,1/2+z
1/2+x,1/2-y,-z
1/2-x,1/2+y,1/2-z
loop_
_atom_site_type_symbol
_atom_site_label
_atom_site_fract_x
_atom_site_fract_y
_atom_site_fract_z
Si Si1 0.931816 0.000000 0.500000
Si Si2 0.237212 0.572253 0.119824
Si Si3 0.405778 0.172270 0.176305
Si Si4 0.500000 0.641869 0.250000
Si Si5 0.654587 0.223249 0.619292
Si Si6 0.323996 0.389880 0.270161
O O1 0.985664 0.067202 0.385276
O O2 0.868602 0.081329 0.582872
O O3 0.170702 0.605817 0.243458
O O4 0.280535 0.681308 0.062341
O O5 0.315631 0.497002 0.180283
O O6 0.192746 0.500000 0.000000
O O7 0.500000 0.146868 0.250000
O O8 0.383609 0.296656 0.205732
O O9 0.394718 0.163835 0.008838
O O10 0.415942 0.718596 0.219481
O O11 0.722751 0.149094 0.703777
#
# Coordination Sequence:
#
# PCOD9321643 Si02
#       6
#     4   8   8   4   8   8
#     4  12  26  42  70 106 138 188 234 292 356 412
#     4  11  23  45  72 101 139 187 232 287 347 424
#     4  11  25  44  69 103 137 182 231 291 343 410
#     4  12  28  42  70 110 144 178 238 306 350 406
#     4  11  25  44  70 104 139 181 235 287 348 415
#     4  11  24  43  72  94 139 185 231 279 347 423
#
# _framework density 22.418609
#
# number of rings (size 3 to 8) (size 9 to 14) (size 15 to 20)
#    0.000    0.800    4.000    2.400    8.400    1.600 
#    5.400    0.000    0.000    0.000    0.000    0.000 
#    0.000    0.000    0.000    0.000    0.000    0.000 
#
# Total GULP energy -111896.969416 kJ/mol
# GULP energy per Si atom -5594.848471 kJ/mol
# Density = 2.236758 g / cm^3
# Si number density = 22.418609 Si / 1000 Ang^3
#
#
#
# Elastic Constant Matrix: (Units=GPa)
#
#
# Indices 1 2 3 4 5 6 
#
# 1 89.4062 5.9940 13.1418 0.0000 0.0000 0.0000
# 2 5.9940 52.6236 5.9252 0.0000 0.0000 0.0000
# 3 13.1418 5.9252 84.6265 0.0000 0.0000 0.0000
# 4 0.0000 0.0000 0.0000 36.0665 0.0000 0.0000
# 5 0.0000 0.0000 0.0000 0.0000 15.9620 0.0000
# 6 0.0000 0.0000 0.0000 0.0000 0.0000 32.1973
#
#
#
# Elastic Compliance Matrix: (Units=1/GPa)
#
#
# Indices 1 2 3 4 5 6 
#
# 1 0.011511 -0.001119 -0.001709 0.000000 0.000000 0.000000
# 2 -0.001119 0.019263 -0.001175 0.000000 0.000000 0.000000
# 3 -0.001709 -0.001175 0.012164 0.000000 0.000000 0.000000
# 4 0.000000 0.000000 0.000000 0.027727 0.000000 0.000000
# 5 0.000000 0.000000 0.000000 0.000000 0.062649 0.000000
# 6 0.000000 0.000000 0.000000 0.000000 0.000000 0.031058
#
#
# Mechanical properties :
#
#
# Convention : Reuss Voigt Hill
#
# Bulk Modulus (GPa) = 28.62686 30.75315 29.69000
# Shear Modulus (GPa) = 27.17069 30.28486 28.72778
#
# Velocity S-wave (km/s) = 3.48511 3.67942 3.58358
# Velocity P-wave (km/s) = 5.38439 5.63900 5.51316
#
# Compressibility (1/GPa) = 0.03493223
#
# Stress axis : x y z
#
# Youngs Moduli (GPa) = 86.87232 51.91408 82.20757
#
# Poissons Ratio (x) = 0.05808 0.14051
# Poissons Ratio (y) = 0.09718 0.09659
# Poissons Ratio (z) = 0.14849 0.06100
#
# Static dielectric constant tensor:
#      x y z
#    x 1.801950 0.000000 0.000000 
#    y 0.000000 1.808580 0.000000 
#    z 0.000000 0.000000 1.859570 
# 
# From -- ./inp_files/8135.got.cif
#   From: 2010.05.17/outbox.cif.g08.bks.cpg/sg20_5_cif.got.tgz:8135.got - 2010.06.03 22:52:26.
