data_PCOD9321431
_publ_section_title
;
Structure prediction by ZEFSAII (Michael W. Deem and Ramdas Pophale) SiO2 
 PCOD9321431
Probable space group: C 2 2 21
;
_chemical_formula_sum "Si O2"
_cell_formula_units_Z 56
_cell_length_a 13.489315
_cell_length_b 21.956046
_cell_length_c 8.902926
_cell_angle_alpha 90.000000
_cell_angle_beta 90.000000
_cell_angle_gamma 90.000000
_cell_volume 2636.797583
_symmetry_space_group_name_H-M "C 2 2 21"
_symmetry_group_IT_number 20
_symmetry_cell_setting 'orthorhombic'
loop_
_space_group_symop_operation_xyz
x,y,z
-x,-y,1/2+z
x,-y,-z
-x,y,1/2-z
1/2+x,1/2+y,z
1/2-x,1/2-y,1/2+z
1/2+x,1/2-y,-z
1/2-x,1/2+y,1/2-z
loop_
_atom_site_type_symbol
_atom_site_label
_atom_site_fract_x
_atom_site_fract_y
_atom_site_fract_z
Si Si1 0.256459 0.438034 0.200084
Si Si2 0.030151 0.939077 0.422075
Si Si3 0.384883 0.230516 0.984444
Si Si4 0.048676 0.813964 0.082038
Si Si5 0.720969 0.000000 0.500000
Si Si6 0.556732 0.903435 0.591919
Si Si7 0.757053 0.202383 0.754926
Si Si8 0.600034 0.000000 0.000000
O O1 0.350765 0.436584 0.089321
O O2 0.278237 0.464195 0.367163
O O3 0.226625 0.366926 0.206770
O O4 0.172652 0.482240 0.135109
O O5 0.000000 0.941718 0.250000
O O6 0.980765 0.878640 0.487735
O O7 0.998375 0.000000 0.500000
O O8 0.491526 0.262336 0.993597
O O9 0.404876 0.160330 0.027101
O O10 0.313264 0.263442 0.108884
O O11 0.334409 0.236141 0.822072
O O12 0.162785 0.804412 0.118894
O O13 0.000000 0.814076 0.250000
O O14 0.650108 0.050611 0.420641
O O15 0.500000 0.892070 0.750000
O O16 0.471216 0.941544 0.507957
#
# Coordination Sequence:
#
# PCOD9321431 Si02
#       8
#     8   8   8   8   4   8   8   4
#     4  12  22  43  65  96 137 171 225 278 335 409
#     4  11  22  40  66  93 126 175 216 276 338 394
#     4  11  23  43  68  93 128 178 227 271 340 404
#     4   9  19  42  62  86 129 167 217 263 325 397
#     4  11  24  40  63 100 136 170 221 274 338 407
#     4  11  22  41  64  96 135 176 217 275 341 405
#     4  11  23  43  69  93 126 180 220 278 333 405
#     4  11  26  40  67 100 136 176 223 276 340 415
#
# _framework density 21.237883
#
# number of rings (size 3 to 8) (size 9 to 14) (size 15 to 20)
#    0.000    1.143    7.857    1.286    1.000    2.286 
#    2.571    2.143    0.000    0.000    0.000    0.000 
#    0.000    0.000    0.000    0.000    0.000    0.000 
#
# Total GULP energy -156161.744185 kJ/mol
# GULP energy per Si atom -5577.205149 kJ/mol
# Density = 2.118955 g / cm^3
# Si number density = 21.237883 Si / 1000 Ang^3
#
#
#
# Elastic Constant Matrix: (Units=GPa)
#
#
# Indices 1 2 3 4 5 6 
#
# 1 45.0348 12.5389 5.7266 0.0000 0.0000 0.0000
# 2 12.5389 129.6646 21.4187 0.0000 0.0000 0.0000
# 3 5.7266 21.4187 35.6936 0.0000 0.0000 0.0000
# 4 0.0000 0.0000 0.0000 28.2356 0.0000 0.0000
# 5 0.0000 0.0000 0.0000 0.0000 11.1790 0.0000
# 6 0.0000 0.0000 0.0000 0.0000 0.0000 15.8322
#
#
#
# Elastic Compliance Matrix: (Units=1/GPa)
#
#
# Indices 1 2 3 4 5 6 
#
# 1 0.023038 -0.001795 -0.002619 0.000000 0.000000 0.000000
# 2 -0.001795 0.008701 -0.004933 0.000000 0.000000 0.000000
# 3 -0.002619 -0.004933 0.031397 0.000000 0.000000 0.000000
# 4 0.000000 0.000000 0.000000 0.035416 0.000000 0.000000
# 5 0.000000 0.000000 0.000000 0.000000 0.089454 0.000000
# 6 0.000000 0.000000 0.000000 0.000000 0.000000 0.063162
#
#
# Mechanical properties :
#
#
# Convention : Reuss Voigt Hill
#
# Bulk Modulus (GPa) = 22.50181 32.19570 27.34876
# Shear Modulus (GPa) = 17.56389 22.42995 19.99692
#
# Velocity S-wave (km/s) = 2.87889 3.25334 3.07183
# Velocity P-wave (km/s) = 4.65498 5.41339 5.04845
#
# Compressibility (1/GPa) = 0.04444088
#
# Stress axis : x y z
#
# Youngs Moduli (GPa) = 43.40668 114.93378 31.85067
#
# Poissons Ratio (x) = 0.20633 0.08341
# Poissons Ratio (y) = 0.07792 0.15712
# Poissons Ratio (z) = 0.11368 0.56697
#
# Static dielectric constant tensor:
#      x y z
#    x 1.820250 0.000000 0.000000 
#    y 0.000000 1.811910 0.000000 
#    z 0.000000 0.000000 1.773430 
# 
# From -- ./inp_files/8771.got.cif
#   From: 2010.05.17/outbox.cif.g08.bks.cpg/sg20_5_cif.got.tgz:8771.got - 2010.06.03 22:52:26.
