data_PCOD9321121
_publ_section_title
;
Structure prediction by ZEFSAII (Michael W. Deem and Ramdas Pophale) SiO2 
 PCOD9321121
Probable space group: C 2 2 21
;
_chemical_formula_sum "Si O2"
_cell_formula_units_Z 48
_cell_length_a 6.967368
_cell_length_b 21.805643
_cell_length_c 13.314288
_cell_angle_alpha 90.000000
_cell_angle_beta 90.000000
_cell_angle_gamma 90.000000
_cell_volume 2022.812339
_symmetry_space_group_name_H-M "C 2 2 21"
_symmetry_group_IT_number 20
_symmetry_cell_setting 'orthorhombic'
loop_
_space_group_symop_operation_xyz
x,y,z
-x,-y,1/2+z
x,-y,-z
-x,y,1/2-z
1/2+x,1/2+y,z
1/2-x,1/2-y,1/2+z
1/2+x,1/2-y,-z
1/2-x,1/2+y,1/2-z
loop_
_atom_site_type_symbol
_atom_site_label
_atom_site_fract_x
_atom_site_fract_y
_atom_site_fract_z
Si Si1 0.118245 0.322911 0.448548
Si Si2 0.000000 0.623459 0.750000
Si Si3 0.354121 0.548881 0.837293
Si Si4 0.714010 0.059184 0.277192
Si Si5 0.446329 0.591585 0.459200
Si Si6 0.755354 0.308742 0.570108
Si Si7 0.000000 0.679006 0.250000
O O1 0.104714 0.334132 0.330549
O O2 0.283085 0.366182 0.490134
O O3 0.159079 0.251996 0.472745
O O4 0.911836 0.338247 0.496321
O O5 0.844745 0.582855 0.689557
O O6 0.500000 0.570627 0.750000
O O7 0.323032 0.476571 0.811386
O O8 0.435971 0.561809 0.947772
O O9 0.500000 0.037097 0.250000
O O10 0.178699 0.048560 0.117108
O O11 0.669820 0.131945 0.283209
O O12 0.594221 0.640147 0.407201
O O13 0.892476 0.287065 0.661777
#
# Coordination Sequence:
#
# PCOD9321121 Si02
#       7
#     8   4   8   8   8   8   4
#     4  12  25  47  76 115 151 202 256 311 383 465
#     4  12  25  48  74 110 160 196 249 334 370 458
#     4  12  26  47  77 110 151 202 263 314 390 461
#     4  10  25  50  76 108 154 200 262 325 385 457
#     4  12  26  48  81 110 152 208 253 319 393 460
#     4  12  26  46  78 113 154 200 254 309 383 464
#     4  10  25  48  74 104 158 194 243 320 380 442
#
# _framework density 23.729341000000002
#
# number of rings (size 3 to 8) (size 9 to 14) (size 15 to 20)
#    0.500    0.000    7.500    0.000    2.333    4.667 
#    0.000    1.667    0.000    0.000    0.000    0.000 
#    0.000    0.000    0.000    0.000    0.000    0.000 
#
# Total GULP energy -133828.027330 kJ/mol
# GULP energy per Si atom -5576.167805 kJ/mol
# Density = 2.367533 g / cm^3
# Si number density = 23.729341 Si / 1000 Ang^3
#
#
#
# Elastic Constant Matrix: (Units=GPa)
#
#
# Indices 1 2 3 4 5 6 
#
# 1 148.2068 52.8705 72.1441 0.0000 0.0000 0.0000
# 2 52.8705 57.1109 15.9478 0.0000 0.0000 0.0000
# 3 72.1441 15.9478 120.5756 0.0000 0.0000 0.0000
# 4 0.0000 0.0000 0.0000 17.0651 0.0000 0.0000
# 5 0.0000 0.0000 0.0000 0.0000 54.6758 0.0000
# 6 0.0000 0.0000 0.0000 0.0000 0.0000 -86.3863
#
#
#
# Elastic Compliance Matrix: (Units=1/GPa)
#
#
# Indices 1 2 3 4 5 6 
#
# 1 0.014103 -0.011110 -0.006969 0.000000 0.000000 0.000000
# 2 -0.011110 0.026933 0.003085 0.000000 0.000000 0.000000
# 3 -0.006969 0.003085 0.012055 0.000000 0.000000 0.000000
# 4 0.000000 0.000000 0.000000 0.058599 0.000000 0.000000
# 5 0.000000 0.000000 0.000000 0.000000 0.018290 0.000000
# 6 0.000000 0.000000 0.000000 0.000000 0.000000 -0.011576
#
#
# Mechanical properties :
#
#
# Convention : Reuss Voigt Hill
#
# Bulk Modulus (GPa) = 43.28222 67.53536 55.40879
# Shear Modulus (GPa) = 32.03235 9.39965 20.71600
#
# Velocity S-wave (km/s) = 3.67809 1.99243 2.95788
# Velocity P-wave (km/s) = 6.02639 5.81511 5.92169
#
# Compressibility (1/GPa) = 0.02310417
#
# Stress axis : x y z
#
# Youngs Moduli (GPa) = 70.90808 37.12902 82.95233
#
# Poissons Ratio (x) = 0.41249 0.57807
# Poissons Ratio (y) = 0.78777 -0.25591
# Poissons Ratio (z) = 0.49414 -0.11454
#
# Static dielectric constant tensor:
#      x y z
#    x 1.917770 0.000000 0.000000 
#    y 0.000000 1.907250 0.000000 
#    z 0.000000 0.000000 1.964110 
# 
# From -- ./inp_files/17816.got.cif
#   From: 2010.05.17/outbox.cif.g08.bks.cpg/sg20_9_cif.got.tgz:17816.got - 2010.06.03 22:52:26.
