data_PCOD9321765
_publ_section_title
;
Structure prediction by ZEFSAII (Michael W. Deem and Ramdas Pophale) SiO2 
 PCOD9321765
Probable space group: C 2 2 21
;
_chemical_formula_sum "Si O2"
_cell_formula_units_Z 40
_cell_length_a 19.976368
_cell_length_b 4.966048
_cell_length_c 15.865717
_cell_angle_alpha 90.000000
_cell_angle_beta 90.000000
_cell_angle_gamma 90.000000
_cell_volume 1573.936280
_symmetry_space_group_name_H-M "C 2 2 21"
_symmetry_group_IT_number 20
_symmetry_cell_setting 'orthorhombic'
loop_
_space_group_symop_operation_xyz
x,y,z
-x,-y,1/2+z
x,-y,-z
-x,y,1/2-z
1/2+x,1/2+y,z
1/2-x,1/2-y,1/2+z
1/2+x,1/2-y,-z
1/2-x,1/2+y,1/2-z
loop_
_atom_site_type_symbol
_atom_site_label
_atom_site_fract_x
_atom_site_fract_y
_atom_site_fract_z
Si Si1 0.815414 0.315631 0.425787
Si Si2 0.024380 0.256869 0.651190
Si Si3 0.292904 0.957405 0.745845
Si Si4 0.610380 0.252086 0.623909
Si Si5 0.937053 0.000000 0.500000
Si Si6 0.204749 0.500000 0.500000
O O1 0.789398 0.500000 0.500000
O O2 0.823688 0.500027 0.345791
O O3 0.885871 0.197235 0.452269
O O4 0.756171 0.093651 0.425998
O O5 0.087521 0.051411 0.645737
O O6 0.000000 0.252108 0.750000
O O7 0.045316 0.558569 0.624792
O O8 0.977807 0.144734 0.575183
O O9 0.227050 0.149258 0.742326
O O10 0.343749 0.105334 0.807152
O O11 0.653771 0.216687 0.539408
#
# Coordination Sequence:
#
# PCOD9321765 Si02
#       6
#     8   8   8   8   4   4
#     4  11  26  43  77 103 154 189 242 303 367 446
#     4  12  28  49  74 103 145 196 252 299 359 432
#     4  12  25  46  72 112 150 188 237 299 374 449
#     4  12  26  45  77 102 147 184 242 302 362 426
#     4  11  28  48  70 108 144 201 252 300 362 431
#     4  11  24  46  66 116 138 187 232 298 378 435
#
# _framework density 25.413990999999999
#
# number of rings (size 3 to 8) (size 9 to 14) (size 15 to 20)
#    0.000    0.400    2.000    5.400   11.200    0.000 
#    0.000    0.000    0.000    0.000    0.000    0.000 
#    0.000    0.000    0.000    0.000    0.000    0.000 
#
# Total GULP energy -111969.721245 kJ/mol
# GULP energy per Si atom -5598.486062 kJ/mol
# Density = 2.535615 g / cm^3
# Si number density = 25.413991 Si / 1000 Ang^3
#
#
#
# Elastic Constant Matrix: (Units=GPa)
#
#
# Indices 1 2 3 4 5 6 
#
# 1 96.5905 13.3176 31.6634 0.0000 0.0000 0.0000
# 2 13.3176 95.5818 -1.7919 0.0000 0.0000 0.0000
# 3 31.6634 -1.7919 109.1004 0.0000 0.0000 0.0000
# 4 0.0000 0.0000 0.0000 26.1142 0.0000 0.0000
# 5 0.0000 0.0000 0.0000 0.0000 45.4330 0.0000
# 6 0.0000 0.0000 0.0000 0.0000 0.0000 160.1178
#
#
#
# Elastic Compliance Matrix: (Units=1/GPa)
#
#
# Indices 1 2 3 4 5 6 
#
# 1 0.011710 -0.001696 -0.003426 0.000000 0.000000 0.000000
# 2 -0.001696 0.010711 0.000668 0.000000 0.000000 0.000000
# 3 -0.003426 0.000668 0.010171 0.000000 0.000000 0.000000
# 4 0.000000 0.000000 0.000000 0.038293 0.000000 0.000000
# 5 0.000000 0.000000 0.000000 0.000000 0.022010 0.000000
# 6 0.000000 0.000000 0.000000 0.000000 0.000000 0.006245
#
#
# Mechanical properties :
#
#
# Convention : Reuss Voigt Hill
#
# Bulk Modulus (GPa) = 42.22236 43.07231 42.64734
# Shear Modulus (GPa) = 43.12418 63.53860 53.33139
#
# Velocity S-wave (km/s) = 4.12377 5.00557 4.58591
# Velocity P-wave (km/s) = 6.27088 7.09878 6.69763
#
# Compressibility (1/GPa) = 0.02368413
#
# Stress axis : x y z
#
# Youngs Moduli (GPa) = 85.39722 93.36156 98.31638
#
# Poissons Ratio (x) = 0.15832 0.33687
# Poissons Ratio (y) = 0.14482 -0.06568
# Poissons Ratio (z) = 0.29260 -0.06237
#
# Static dielectric constant tensor:
#      x y z
#    x 2.051530 0.000000 0.000000 
#    y 0.000000 1.870960 0.000000 
#    z 0.000000 0.000000 2.013740 
# 
# From -- ./inp_files/22647.got.cif
#   From: 2010.05.17/outbox.cif.g08.bks.cpg/sg20_12_cif.got.tgz:22647.got - 2010.06.03 22:52:26.
