data_PCOD9321100
_publ_section_title
;
Structure prediction by ZEFSAII (Michael W. Deem and Ramdas Pophale) SiO2 
 PCOD9321100
Probable space group: C 2 2 21
;
_chemical_formula_sum "Si O2"
_cell_formula_units_Z 48
_cell_length_a 23.285815
_cell_length_b 5.368262
_cell_length_c 16.164952
_cell_angle_alpha 90.000000
_cell_angle_beta 90.000000
_cell_angle_gamma 90.000000
_cell_volume 2020.689411
_symmetry_space_group_name_H-M "C 2 2 21"
_symmetry_group_IT_number 20
_symmetry_cell_setting 'orthorhombic'
loop_
_space_group_symop_operation_xyz
x,y,z
-x,-y,1/2+z
x,-y,-z
-x,y,1/2-z
1/2+x,1/2+y,z
1/2-x,1/2-y,1/2+z
1/2+x,1/2-y,-z
1/2-x,1/2+y,1/2-z
loop_
_atom_site_type_symbol
_atom_site_label
_atom_site_fract_x
_atom_site_fract_y
_atom_site_fract_z
Si Si1 0.447703 0.090327 0.344892
Si Si2 0.597858 0.408297 0.913571
Si Si3 0.667843 0.306342 0.575545
Si Si4 0.577634 0.974646 0.657583
Si Si5 0.774901 0.973986 0.381478
Si Si6 0.187420 0.166442 0.706889
O O1 0.419351 0.876643 0.400104
O O2 0.436755 0.964364 0.254119
O O3 0.514704 0.110513 0.369394
O O4 0.422984 0.372239 0.350412
O O5 0.666665 0.419498 0.917475
O O6 0.572845 0.500000 0.000000
O O7 0.660641 0.500000 0.500000
O O8 0.608716 0.156677 0.591661
O O9 0.729347 0.172270 0.561885
O O10 0.680804 0.392398 0.670470
O O11 0.628192 0.779070 0.673428
O O12 0.798633 0.814929 0.302810
O O13 0.737694 0.194856 0.341647
#
# Coordination Sequence:
#
# PCOD9321100 Si02
#       6
#     8   8   8   8   8   8
#     4  11  26  48  75 106 140 194 252 298 360 439
#     4  12  28  46  72 107 148 189 235 304 372 433
#     4  11  26  43  69 107 144 189 238 310 375 434
#     4  10  25  45  73 101 138 192 250 306 354 445
#     4  11  24  40  69 100 140 188 239 292 359 452
#     4  11  22  43  69  97 135 188 238 295 361 433
#
# _framework density 23.754270000000002
#
# number of rings (size 3 to 8) (size 9 to 14) (size 15 to 20)
#    0.000    1.000    3.333    1.500    9.333    4.000 
#    3.000    0.000    0.000    0.000    0.000    0.000 
#    0.000    0.000    0.000    0.000    0.000    0.000 
#
# Total GULP energy -133713.658858 kJ/mol
# GULP energy per Si atom -5571.402452 kJ/mol
# Density = 2.370020 g / cm^3
# Si number density = 23.754270 Si / 1000 Ang^3
#
#
#
# Elastic Constant Matrix: (Units=GPa)
#
#
# Indices 1 2 3 4 5 6 
#
# 1 199.5564 33.2262 10.4251 0.0000 0.0000 0.0000
# 2 33.2262 45.0606 0.3233 0.0000 0.0000 0.0000
# 3 10.4251 0.3233 62.5560 0.0000 0.0000 0.0000
# 4 0.0000 0.0000 0.0000 48.3686 0.0000 0.0000
# 5 0.0000 0.0000 0.0000 0.0000 -1.3254 0.0000
# 6 0.0000 0.0000 0.0000 0.0000 0.0000 45.5412
#
#
#
# Elastic Compliance Matrix: (Units=1/GPa)
#
#
# Indices 1 2 3 4 5 6 
#
# 1 0.005767 -0.004246 -0.000939 0.000000 0.000000 0.000000
# 2 -0.004246 0.025319 0.000577 0.000000 0.000000 0.000000
# 3 -0.000939 0.000577 0.016139 0.000000 0.000000 0.000000
# 4 0.000000 0.000000 0.000000 0.020675 0.000000 0.000000
# 5 0.000000 0.000000 0.000000 0.000000 -0.754515 0.000000
# 6 0.000000 0.000000 0.000000 0.000000 0.000000 0.021958
#
#
# Mechanical properties :
#
#
# Convention : Reuss Voigt Hill
#
# Bulk Modulus (GPa) = 26.30969 43.90247 35.10608
# Shear Modulus (GPa) = -7.77882 36.06345 14.14231
#
# Velocity S-wave (km/s) = -1.81158 3.90062 2.44264
# Velocity P-wave (km/s) = 2.59308 6.22965 4.77140
#
# Compressibility (1/GPa) = 0.03800881
#
# Stress axis : x y z
#
# Youngs Moduli (GPa) = 173.39765 39.49622 61.96086
#
# Poissons Ratio (x) = 0.16769 0.05819
# Poissons Ratio (y) = 0.73620 -0.03573
# Poissons Ratio (z) = 0.16285 -0.02278
#
# Static dielectric constant tensor:
#      x y z
#    x 1.913930 0.000000 0.000000 
#    y 0.000000 2.024730 0.000000 
#    z 0.000000 0.000000 2.034830 
# 
# From -- ./inp_files/25584.got.cif
#   From: 2010.05.17/outbox.cif.g08.bks.cpg/sg20_13_cif.got.tgz:25584.got - 2010.06.03 22:52:26.
