data_PCOD9321103
_publ_section_title
;
Structure prediction by ZEFSAII (Michael W. Deem and Ramdas Pophale) SiO2 
 PCOD9321103
Probable space group: C 2 2 21
;
_chemical_formula_sum "Si O2"
_cell_formula_units_Z 24
_cell_length_a 7.064407
_cell_length_b 11.202950
_cell_length_c 14.079715
_cell_angle_alpha 90.000000
_cell_angle_beta 90.000000
_cell_angle_gamma 90.000000
_cell_volume 1114.299598
_symmetry_space_group_name_H-M "C 2 2 21"
_symmetry_group_IT_number 20
_symmetry_cell_setting 'orthorhombic'
loop_
_space_group_symop_operation_xyz
x,y,z
-x,-y,1/2+z
x,-y,-z
-x,y,1/2-z
1/2+x,1/2+y,z
1/2-x,1/2-y,1/2+z
1/2+x,1/2-y,-z
1/2-x,1/2+y,1/2-z
loop_
_atom_site_type_symbol
_atom_site_label
_atom_site_fract_x
_atom_site_fract_y
_atom_site_fract_z
Si Si1 0.126699 0.823152 0.158505
Si Si2 0.000857 0.000000 0.000000
Si Si3 0.500000 0.889536 0.250000
Si Si4 0.368729 0.932776 0.590510
O O1 0.341302 0.814892 0.195568
O O2 0.055795 0.696482 0.117803
O O3 0.000000 0.855050 0.250000
O O4 0.111331 0.921150 0.075877
O O5 0.850675 0.919377 0.940869
O O6 0.607455 0.976866 0.177079
O O7 0.459193 0.000000 0.500000
#
# Coordination Sequence:
#
# PCOD9321103 Si02
#       4
#     8   4   4   8
#     4  12  25  48  73 102 148 187 234 298 350 421
#     4  10  26  44  68 108 142 186 238 290 356 414
#     4  12  26  44  74 104 138 190 240 286 358 426
#     4  10  25  46  68 109 138 182 241 283 361 415
#
# _framework density 21.538194000000001
#
# number of rings (size 3 to 8) (size 9 to 14) (size 15 to 20)
#    1.000    0.000    5.000    0.000    7.000    2.667 
#    0.000    0.000    0.000    0.000    0.000    0.000 
#    0.000    0.000    0.000    0.000    0.000    0.000 
#
# Total GULP energy -66973.954397 kJ/mol
# GULP energy per Si atom -5581.162866 kJ/mol
# Density = 2.148917 g / cm^3
# Si number density = 21.538194 Si / 1000 Ang^3
#
#
#
# Elastic Constant Matrix: (Units=GPa)
#
#
# Indices 1 2 3 4 5 6 
#
# 1 81.8287 0.2887 34.2292 0.0000 0.0000 0.0000
# 2 0.2887 84.6052 63.6517 0.0000 0.0000 0.0000
# 3 34.2292 63.6517 146.4683 0.0000 0.0000 0.0000
# 4 0.0000 0.0000 0.0000 44.7949 0.0000 0.0000
# 5 0.0000 0.0000 0.0000 0.0000 31.9755 0.0000
# 6 0.0000 0.0000 0.0000 0.0000 0.0000 5.9843
#
#
#
# Elastic Compliance Matrix: (Units=1/GPa)
#
#
# Indices 1 2 3 4 5 6 
#
# 1 0.014267 0.003655 -0.004922 0.000000 0.000000 0.000000
# 2 0.003655 0.018497 -0.008893 0.000000 0.000000 0.000000
# 3 -0.004922 -0.008893 0.011842 0.000000 0.000000 0.000000
# 4 0.000000 0.000000 0.000000 0.022324 0.000000 0.000000
# 5 0.000000 0.000000 0.000000 0.000000 0.031274 0.000000
# 6 0.000000 0.000000 0.000000 0.000000 0.000000 0.167103
#
#
# Mechanical properties :
#
#
# Convention : Reuss Voigt Hill
#
# Bulk Modulus (GPa) = 41.17644 56.58239 48.87942
# Shear Modulus (GPa) = 17.02282 30.86644 23.94463
#
# Velocity S-wave (km/s) = 2.81438 3.78974 3.33788
# Velocity P-wave (km/s) = 5.45163 6.74368 6.13179
#
# Compressibility (1/GPa) = 0.02428573
#
# Stress axis : x y z
#
# Youngs Moduli (GPa) = 70.09300 54.06175 84.44342
#
# Poissons Ratio (x) = -0.19757 0.41565
# Poissons Ratio (y) = -0.25616 0.75092
# Poissons Ratio (z) = 0.34502 0.48075
#
# Static dielectric constant tensor:
#      x y z
#    x 1.805030 0.000000 0.000000 
#    y 0.000000 1.733260 0.000000 
#    z 0.000000 0.000000 1.784990 
# 
# From -- ./inp_files/12317.got.cif
#   From: 2010.05.17/outbox.cif.g08.bks.cpg/sg20_7_cif.got.tgz:12317.got - 2010.06.03 22:52:26.
