data_PCOD9321790
_publ_section_title
;
Structure prediction by ZEFSAII (Michael W. Deem and Ramdas Pophale) SiO2 
 PCOD9321790
Probable space group: C 2 2 21
;
_chemical_formula_sum "Si O2"
_cell_formula_units_Z 48
_cell_length_a 17.714604
_cell_length_b 8.569460
_cell_length_c 14.892012
_cell_angle_alpha 90.000000
_cell_angle_beta 90.000000
_cell_angle_gamma 90.000000
_cell_volume 2260.675782
_symmetry_space_group_name_H-M "C 2 2 21"
_symmetry_group_IT_number 20
_symmetry_cell_setting 'orthorhombic'
loop_
_space_group_symop_operation_xyz
x,y,z
-x,-y,1/2+z
x,-y,-z
-x,y,1/2-z
1/2+x,1/2+y,z
1/2-x,1/2-y,1/2+z
1/2+x,1/2-y,-z
1/2-x,1/2+y,1/2-z
loop_
_atom_site_type_symbol
_atom_site_label
_atom_site_fract_x
_atom_site_fract_y
_atom_site_fract_z
Si Si1 0.779752 0.831354 0.785245
Si Si2 0.089092 0.680843 0.006896
Si Si3 0.749045 0.675377 0.964357
Si Si4 0.189560 0.159641 0.638848
Si Si5 0.062435 0.157296 0.180400
Si Si6 0.988141 0.179301 0.847978
O O1 0.783544 0.707103 0.866433
O O2 0.715251 0.782966 0.714973
O O3 0.856770 0.842642 0.728675
O O4 0.770150 0.998617 0.832765
O O5 0.161319 0.777213 0.041351
O O6 0.020599 0.713064 0.074374
O O7 0.108349 0.500000 0.000000
O O8 0.068051 0.744172 0.909331
O O9 0.756503 0.500000 0.000000
O O10 0.784960 0.784258 0.041133
O O11 0.099608 0.140105 0.639471
O O12 0.000000 0.217796 0.250000
O O13 0.035314 0.982519 0.154794
O O14 0.000000 0.253129 0.750000
#
# Coordination Sequence:
#
# PCOD9321790 Si02
#       6
#     8   8   8   8   8   8
#     4  12  25  46  75 108 148 187 252 307 363 442
#     4  12  27  48  72 107 150 194 243 310 372 438
#     4  12  27  47  71 105 150 197 246 309 374 434
#     4  12  25  46  75 112 144 194 247 304 365 442
#     4  11  24  48  75 104 143 200 238 295 372 450
#     4  11  24  47  76 103 145 195 244 289 373 445
#
# _framework density 21.232589999999998
#
# number of rings (size 3 to 8) (size 9 to 14) (size 15 to 20)
#    0.000    0.333    5.000    5.000    2.333    2.667 
#    6.000    0.000    0.000    0.000    0.000    0.000 
#    0.000    0.000    0.000    0.000    0.000    0.000 
#
# Total GULP energy -134402.260797 kJ/mol
# GULP energy per Si atom -5600.094200 kJ/mol
# Density = 2.118426 g / cm^3
# Si number density = 21.232590 Si / 1000 Ang^3
#
#
#
# Elastic Constant Matrix: (Units=GPa)
#
#
# Indices 1 2 3 4 5 6 
#
# 1 87.4881 39.2166 40.6006 0.0000 0.0000 0.0000
# 2 39.2166 67.1996 26.7267 0.0000 0.0000 0.0000
# 3 40.6006 26.7267 122.7152 0.0000 0.0000 0.0000
# 4 0.0000 0.0000 0.0000 24.2601 0.0000 0.0000
# 5 0.0000 0.0000 0.0000 0.0000 43.2988 0.0000
# 6 0.0000 0.0000 0.0000 0.0000 0.0000 24.2249
#
#
#
# Elastic Compliance Matrix: (Units=1/GPa)
#
#
# Indices 1 2 3 4 5 6 
#
# 1 0.016942 -0.008384 -0.003779 0.000000 0.000000 0.000000
# 2 -0.008384 0.020441 -0.001678 0.000000 0.000000 0.000000
# 3 -0.003779 -0.001678 0.009765 0.000000 0.000000 0.000000
# 4 0.000000 0.000000 0.000000 0.041220 0.000000 0.000000
# 5 0.000000 0.000000 0.000000 0.000000 0.023095 0.000000
# 6 0.000000 0.000000 0.000000 0.000000 0.000000 0.041280
#
#
# Mechanical properties :
#
#
# Convention : Reuss Voigt Hill
#
# Bulk Modulus (GPa) = 51.37363 54.49897 52.93630
# Shear Modulus (GPa) = 26.75017 29.74737 28.24877
#
# Velocity S-wave (km/s) = 3.55331 3.74709 3.65148
# Velocity P-wave (km/s) = 6.40959 6.66665 6.53938
#
# Compressibility (1/GPa) = 0.01946524
#
# Stress axis : x y z
#
# Youngs Moduli (GPa) = 59.02437 48.92070 102.40823
#
# Poissons Ratio (x) = 0.41015 0.38704
# Poissons Ratio (y) = 0.49486 0.17185
# Poissons Ratio (z) = 0.22307 0.08209
#
# Static dielectric constant tensor:
#      x y z
#    x 1.745420 0.000000 0.000000 
#    y 0.000000 1.773730 0.000000 
#    z 0.000000 0.000000 1.750110 
# 
# From -- ./inp_files/21261.got.cif
#   From: 2010.05.17/outbox.cif.g08.bks.cpg/sg20_11_cif.got.tgz:21261.got - 2010.06.03 22:52:26.
