data_PCOD9321311
_publ_section_title
;
Structure prediction by ZEFSAII (Michael W. Deem and Ramdas Pophale) SiO2 
 PCOD9321311
Probable space group: C 2 2 21
;
_chemical_formula_sum "Si O2"
_cell_formula_units_Z 24
_cell_length_a 28.084630
_cell_length_b 7.733954
_cell_length_c 4.992680
_cell_angle_alpha 90.000000
_cell_angle_beta 90.000000
_cell_angle_gamma 90.000000
_cell_volume 1084.436240
_symmetry_space_group_name_H-M "C 2 2 21"
_symmetry_group_IT_number 20
_symmetry_cell_setting 'orthorhombic'
loop_
_space_group_symop_operation_xyz
x,y,z
-x,-y,1/2+z
x,-y,-z
-x,y,1/2-z
1/2+x,1/2+y,z
1/2-x,1/2-y,1/2+z
1/2+x,1/2-y,-z
1/2-x,1/2+y,1/2-z
loop_
_atom_site_type_symbol
_atom_site_label
_atom_site_fract_x
_atom_site_fract_y
_atom_site_fract_z
Si Si1 0.530172 0.788984 0.007020
Si Si2 0.279276 0.305521 0.901069
Si Si3 0.124980 0.381604 0.246611
O O1 0.500000 0.731938 0.750000
O O2 0.500000 0.719818 0.250000
O O3 0.584843 0.764087 0.099566
O O4 0.528766 0.000000 0.000000
O O5 0.249739 0.203635 0.125695
O O6 0.283718 0.500000 0.000000
O O7 0.330985 0.223232 0.860538
O O8 0.105863 0.500000 0.500000
O O9 0.142605 0.500000 0.000000
#
# Coordination Sequence:
#
# PCOD9321311 Si02
#       3
#     8   8   8
#     4   9  16  28  49  82 118 150 191 245 297 349
#     4  12  25  42  63  91 128 168 213 262 317 378
#     4  11  21  36  60  91 126 164 208 259 314 371
#
# _framework density 22.131316000000002
#
# number of rings (size 3 to 8) (size 9 to 14) (size 15 to 20)
#    0.000    1.333    0.000   11.000    0.000    0.000 
#    0.000    0.000    0.000    0.000    0.000   30.333 
#    0.000    0.000    0.000    0.000    0.000    0.000 
#
# Total GULP energy -66979.996816 kJ/mol
# GULP energy per Si atom -5581.666401 kJ/mol
# Density = 2.208094 g / cm^3
# Si number density = 22.131316 Si / 1000 Ang^3
#
#
#
# Elastic Constant Matrix: (Units=GPa)
#
#
# Indices 1 2 3 4 5 6 
#
# 1 172.0478 25.9131 55.3243 0.0000 0.0000 0.0000
# 2 25.9131 48.2857 10.1624 0.0000 0.0000 0.0000
# 3 55.3243 10.1624 164.6025 0.0000 0.0000 0.0000
# 4 0.0000 0.0000 0.0000 16.7706 0.0000 0.0000
# 5 0.0000 0.0000 0.0000 0.0000 49.7632 0.0000
# 6 0.0000 0.0000 0.0000 0.0000 0.0000 -174.1644
#
#
#
# Elastic Compliance Matrix: (Units=1/GPa)
#
#
# Indices 1 2 3 4 5 6 
#
# 1 0.007001 -0.003305 -0.002149 0.000000 0.000000 0.000000
# 2 -0.003305 0.022543 -0.000281 0.000000 0.000000 0.000000
# 3 -0.002149 -0.000281 0.006815 0.000000 0.000000 0.000000
# 4 0.000000 0.000000 0.000000 0.059628 0.000000 0.000000
# 5 0.000000 0.000000 0.000000 0.000000 0.020095 0.000000
# 6 0.000000 0.000000 0.000000 0.000000 0.000000 -0.005742
#
#
# Mechanical properties :
#
#
# Convention : Reuss Voigt Hill
#
# Bulk Modulus (GPa) = 40.17857 63.08174 51.63015
# Shear Modulus (GPa) = 38.42993 -1.95704 18.23645
#
# Velocity S-wave (km/s) = 4.17159 -0.94138 2.87367
# Velocity P-wave (km/s) = 6.43405 5.23294 5.86433
#
# Compressibility (1/GPa) = 0.02488889
#
# Stress axis : x y z
#
# Youngs Moduli (GPa) = 142.83278 44.36002 146.73679
#
# Poissons Ratio (x) = 0.14661 0.31535
# Poissons Ratio (y) = 0.47206 0.04123
# Poissons Ratio (z) = 0.30696 0.01246
#
# Static dielectric constant tensor:
#      x y z
#    x 1.983140 0.000000 0.000000 
#    y 0.000000 1.814700 0.000000 
#    z 0.000000 0.000000 1.798970 
# 
# From -- ./inp_files/3960.got.cif
#   From: 2010.05.17/outbox.cif.g08.bks.cpg/sg20_2_cif.got.tgz:3960.got - 2010.06.03 22:52:26.
