data_PCOD9321752
_publ_section_title
;
Structure prediction by ZEFSAII (Michael W. Deem and Ramdas Pophale) SiO2 
 PCOD9321752
Probable space group: C 2 2 21
;
_chemical_formula_sum "Si O2"
_cell_formula_units_Z 36
_cell_length_a 11.891002
_cell_length_b 21.499682
_cell_length_c 6.033517
_cell_angle_alpha 90.000000
_cell_angle_beta 90.000000
_cell_angle_gamma 90.000000
_cell_volume 1542.485284
_symmetry_space_group_name_H-M "C 2 2 21"
_symmetry_group_IT_number 20
_symmetry_cell_setting 'orthorhombic'
loop_
_space_group_symop_operation_xyz
x,y,z
-x,-y,1/2+z
x,-y,-z
-x,y,1/2-z
1/2+x,1/2+y,z
1/2-x,1/2-y,1/2+z
1/2+x,1/2-y,-z
1/2-x,1/2+y,1/2-z
loop_
_atom_site_type_symbol
_atom_site_label
_atom_site_fract_x
_atom_site_fract_y
_atom_site_fract_z
Si Si1 0.625296 0.549700 0.315524
Si Si2 0.500000 0.969242 0.250000
Si Si3 0.372809 0.199344 0.236598
Si Si4 0.822799 0.166486 0.936836
Si Si5 0.221902 0.593982 0.565369
O O1 0.663385 0.500000 0.500000
O O2 0.500000 0.529356 0.250000
O O3 0.616196 0.622552 0.386148
O O4 0.720240 0.553050 0.125453
O O5 0.385298 0.932990 0.193821
O O6 0.479970 0.000000 0.500000
O O7 0.500000 0.176419 0.250000
O O8 0.297364 0.187368 0.455334
O O9 0.374562 0.270450 0.155815
O O10 0.316785 0.157475 0.050396
O O11 0.812020 0.117220 0.739969
#
# Coordination Sequence:
#
# PCOD9321752 Si02
#       5
#     8   4   8   8   8
#     4  11  30  49  76 111 157 213 268 335 405 486
#     4  12  32  50  82 118 158 222 272 336 414 480
#     4  11  24  44  74 109 153 198 259 324 399 478
#     4  11  25  45  74 110 148 203 256 326 395 477
#     4  11  27  51  73 110 157 203 266 332 398 489
#
# _framework density 23.338958999999999
#
# number of rings (size 3 to 8) (size 9 to 14) (size 15 to 20)
#    0.000    0.889    2.222    1.333   17.111    0.000 
#    2.000    0.000    0.000    0.000    0.000    0.000 
#    0.000    0.000    0.000    0.000    0.000    0.000 
#
# Total GULP energy -100499.377515 kJ/mol
# GULP energy per Si atom -5583.298751 kJ/mol
# Density = 2.328584 g / cm^3
# Si number density = 23.338959 Si / 1000 Ang^3
#
#
#
# Elastic Constant Matrix: (Units=GPa)
#
#
# Indices 1 2 3 4 5 6 
#
# 1 65.8436 13.1227 24.8104 0.0000 0.0000 0.0000
# 2 13.1227 122.4435 52.5840 0.0000 0.0000 0.0000
# 3 24.8104 52.5840 111.5687 0.0000 0.0000 0.0000
# 4 0.0000 0.0000 0.0000 56.5835 0.0000 0.0000
# 5 0.0000 0.0000 0.0000 0.0000 35.3497 0.0000
# 6 0.0000 0.0000 0.0000 0.0000 0.0000 29.5042
#
#
#
# Elastic Compliance Matrix: (Units=1/GPa)
#
#
# Indices 1 2 3 4 5 6 
#
# 1 0.016582 -0.000243 -0.003573 0.000000 0.000000 0.000000
# 2 -0.000243 0.010243 -0.004774 0.000000 0.000000 0.000000
# 3 -0.003573 -0.004774 0.012008 0.000000 0.000000 0.000000
# 4 0.000000 0.000000 0.000000 0.017673 0.000000 0.000000
# 5 0.000000 0.000000 0.000000 0.000000 0.028289 0.000000
# 6 0.000000 0.000000 0.000000 0.000000 0.000000 0.033893
#
#
# Mechanical properties :
#
#
# Convention : Reuss Voigt Hill
#
# Bulk Modulus (GPa) = 46.18118 53.43221 49.80669
# Shear Modulus (GPa) = 34.94414 38.24339 36.59377
#
# Velocity S-wave (km/s) = 3.87362 4.05236 3.96400
# Velocity P-wave (km/s) = 6.31163 6.69621 6.50676
#
# Compressibility (1/GPa) = 0.02165384
#
# Stress axis : x y z
#
# Youngs Moduli (GPa) = 60.30536 97.62606 83.28030
#
# Poissons Ratio (x) = 0.02369 0.29757
# Poissons Ratio (y) = 0.01463 0.39756
# Poissons Ratio (z) = 0.21548 0.46605
#
# Static dielectric constant tensor:
#      x y z
#    x 1.849090 0.000000 0.000000 
#    y 0.000000 1.881280 0.000000 
#    z 0.000000 0.000000 1.971130 
# 
# From -- ./inp_files/1194.got.cif
#   From: 2010.05.17/outbox.cif.g08.bks.cpg/sg20_1_cif.got.tgz:1194.got - 2010.06.03 22:52:26.
