data_PCOD9321221
_publ_section_title
;
Structure prediction by ZEFSAII (Michael W. Deem and Ramdas Pophale) SiO2 
 PCOD9321221
Probable space group: C 2 2 21
;
_chemical_formula_sum "Si O2"
_cell_formula_units_Z 32
_cell_length_a 12.824387
_cell_length_b 6.608460
_cell_length_c 16.021005
_cell_angle_alpha 90.000000
_cell_angle_beta 90.000000
_cell_angle_gamma 90.000000
_cell_volume 1357.771338
_symmetry_space_group_name_H-M "C 2 2 21"
_symmetry_group_IT_number 20
_symmetry_cell_setting 'orthorhombic'
loop_
_space_group_symop_operation_xyz
x,y,z
-x,-y,1/2+z
x,-y,-z
-x,y,1/2-z
1/2+x,1/2+y,z
1/2-x,1/2-y,1/2+z
1/2+x,1/2-y,-z
1/2-x,1/2+y,1/2-z
loop_
_atom_site_type_symbol
_atom_site_label
_atom_site_fract_x
_atom_site_fract_y
_atom_site_fract_z
Si Si1 0.328627 0.624358 0.766442
Si Si2 0.186965 0.197706 0.377133
Si Si3 0.700947 0.500000 0.000000
Si Si4 0.559013 0.309310 0.858723
Si Si5 0.500000 0.943948 0.750000
O O1 0.237356 0.691159 0.704060
O O2 0.283489 0.532285 0.851861
O O3 0.397151 0.462356 0.712781
O O4 0.408426 0.804203 0.785976
O O5 0.231151 0.331440 0.451604
O O6 0.062898 0.171518 0.382562
O O7 0.627991 0.626698 0.062964
O O8 0.552970 0.085763 0.819201
#
# Coordination Sequence:
#
# PCOD9321221 Si02
#       5
#     8   8   4   8   4
#     4  11  23  43  81 118 141 193 275 312 371 455
#     4  11  22  49  76 110 152 201 251 318 381 456
#     4  10  28  50  74 118 160 196 260 304 410 454
#     4  11  23  50  74 113 152 200 251 329 372 449
#     4  12  20  44  84 112 146 196 264 324 362 446
#
# _framework density 23.568034000000001
#
# number of rings (size 3 to 8) (size 9 to 14) (size 15 to 20)
#    0.000    1.000    5.000    1.500    0.000    0.000 
#   13.500    0.000    0.000    0.000    0.000    0.000 
#    0.000    0.000    0.000    0.000    0.000    0.000 
#
# Total GULP energy -89306.461370 kJ/mol
# GULP energy per Si atom -5581.653836 kJ/mol
# Density = 2.351439 g / cm^3
# Si number density = 23.568034 Si / 1000 Ang^3
#
#
#
# Elastic Constant Matrix: (Units=GPa)
#
#
# Indices 1 2 3 4 5 6 
#
# 1 166.7354 63.1914 64.8331 0.0000 0.0000 0.0000
# 2 63.1914 149.7737 72.3997 0.0000 0.0000 0.0000
# 3 64.8331 72.3997 103.1033 0.0000 0.0000 0.0000
# 4 0.0000 0.0000 0.0000 30.9887 0.0000 0.0000
# 5 0.0000 0.0000 0.0000 0.0000 25.6311 0.0000
# 6 0.0000 0.0000 0.0000 0.0000 0.0000 63.2173
#
#
#
# Elastic Compliance Matrix: (Units=1/GPa)
#
#
# Indices 1 2 3 4 5 6 
#
# 1 0.008142 -0.001454 -0.004099 0.000000 0.000000 0.000000
# 2 -0.001454 0.010367 -0.006366 0.000000 0.000000 0.000000
# 3 -0.004099 -0.006366 0.016747 0.000000 0.000000 0.000000
# 4 0.000000 0.000000 0.000000 0.032270 0.000000 0.000000
# 5 0.000000 0.000000 0.000000 0.000000 0.039015 0.000000
# 6 0.000000 0.000000 0.000000 0.000000 0.000000 0.015818
#
#
# Mechanical properties :
#
#
# Convention : Reuss Voigt Hill
#
# Bulk Modulus (GPa) = 87.57462 91.16230 89.36846
# Shear Modulus (GPa) = 33.33250 38.57996 35.95623
#
# Velocity S-wave (km/s) = 3.76481 4.05033 3.91018
# Velocity P-wave (km/s) = 7.49248 7.78704 7.64118
#
# Compressibility (1/GPa) = 0.01141883
#
# Stress axis : x y z
#
# Youngs Moduli (GPa) = 122.81295 96.45690 59.71316
#
# Poissons Ratio (x) = 0.14024 0.24478
# Poissons Ratio (y) = 0.17856 0.38012
# Poissons Ratio (z) = 0.50343 0.61402
#
# Static dielectric constant tensor:
#      x y z
#    x 1.958800 0.000000 0.000000 
#    y 0.000000 1.999180 0.000000 
#    z 0.000000 0.000000 1.916640 
# 
# From -- ./inp_files/24611.got.cif
#   From: 2010.05.17/outbox.cif.g08.bks.cpg/sg20_13_cif.got.tgz:24611.got - 2010.06.03 22:52:26.
