data_PCOD9321354
_publ_section_title
;
Structure prediction by ZEFSAII (Michael W. Deem and Ramdas Pophale) SiO2 
 PCOD9321354
Probable space group: C 2 2 21
;
_chemical_formula_sum "Si O2"
_cell_formula_units_Z 40
_cell_length_a 9.424572
_cell_length_b 22.377953
_cell_length_c 8.367747
_cell_angle_alpha 90.000000
_cell_angle_beta 90.000000
_cell_angle_gamma 90.000000
_cell_volume 1764.779843
_symmetry_space_group_name_H-M "C 2 2 21"
_symmetry_group_IT_number 20
_symmetry_cell_setting 'orthorhombic'
loop_
_space_group_symop_operation_xyz
x,y,z
-x,-y,1/2+z
x,-y,-z
-x,y,1/2-z
1/2+x,1/2+y,z
1/2-x,1/2-y,1/2+z
1/2+x,1/2-y,-z
1/2-x,1/2+y,1/2-z
loop_
_atom_site_type_symbol
_atom_site_label
_atom_site_fract_x
_atom_site_fract_y
_atom_site_fract_z
Si Si1 0.103844 0.547793 0.876491
Si Si2 0.909332 0.364114 0.904472
Si Si3 0.155843 0.124986 0.678047
Si Si4 0.841987 0.275468 0.178380
Si Si5 0.340448 0.634111 0.193378
O O1 0.224402 0.578347 0.768338
O O2 0.000000 0.516806 0.750000
O O3 0.160967 0.500000 0.000000
O O4 0.010208 0.595972 0.979469
O O5 0.770932 0.393020 0.819436
O O6 0.000000 0.344986 0.750000
O O7 0.852664 0.308453 0.008145
O O8 0.222688 0.188816 0.723719
O O9 0.162965 0.113827 0.489031
O O10 0.000000 0.118642 0.750000
O O11 0.811583 0.205449 0.179965
O O12 0.000000 0.283260 0.250000
O O13 0.500000 0.625599 0.250000
#
# Coordination Sequence:
#
# PCOD9321354 Si02
#       5
#     8   8   8   8   8
#     4  12  26  49  78 103 127 179 240 298 358 416
#     4  12  21  41  70 100 138 182 234 296 331 409
#     4  12  24  45  67  99 145 179 222 297 352 416
#     4  11  21  41  63 100 144 192 237 269 336 416
#     4  11  25  37  64 104 146 192 231 278 340 412
#
# _framework density 22.665716
#
# number of rings (size 3 to 8) (size 9 to 14) (size 15 to 20)
#    0.000    0.400    6.000    3.000    0.000    6.400 
#    0.000    2.000    0.000    0.000    0.000    0.000 
#    0.000    0.000    0.000    0.000    0.000    0.000 
#
# Total GULP energy -111777.481546 kJ/mol
# GULP energy per Si atom -5588.874077 kJ/mol
# Density = 2.261413 g / cm^3
# Si number density = 22.665716 Si / 1000 Ang^3
#
#
#
# Elastic Constant Matrix: (Units=GPa)
#
#
# Indices 1 2 3 4 5 6 
#
# 1 159.1950 27.9718 27.7865 0.0000 0.0000 0.0000
# 2 27.9718 47.6737 0.3862 0.0000 0.0000 0.0000
# 3 27.7865 0.3862 82.9682 0.0000 0.0000 0.0000
# 4 0.0000 0.0000 0.0000 16.9836 0.0000 0.0000
# 5 0.0000 0.0000 0.0000 0.0000 48.4449 0.0000
# 6 0.0000 0.0000 0.0000 0.0000 0.0000 17.0572
#
#
#
# Elastic Compliance Matrix: (Units=1/GPa)
#
#
# Indices 1 2 3 4 5 6 
#
# 1 0.007483 -0.004371 -0.002486 0.000000 0.000000 0.000000
# 2 -0.004371 0.023529 0.001354 0.000000 0.000000 0.000000
# 3 -0.002486 0.001354 0.012879 0.000000 0.000000 0.000000
# 4 0.000000 0.000000 0.000000 0.058880 0.000000 0.000000
# 5 0.000000 0.000000 0.000000 0.000000 0.020642 0.000000
# 6 0.000000 0.000000 0.000000 0.000000 0.000000 0.058626
#
#
# Mechanical properties :
#
#
# Convention : Reuss Voigt Hill
#
# Bulk Modulus (GPa) = 30.40694 44.68064 37.54379
# Shear Modulus (GPa) = 24.50887 32.07662 28.29274
#
# Velocity S-wave (km/s) = 3.29191 3.76600 3.53691
# Velocity P-wave (km/s) = 5.28142 6.21820 5.76886
#
# Compressibility (1/GPa) = 0.03288723
#
# Stress axis : x y z
#
# Youngs Moduli (GPa) = 133.62794 42.50005 77.64547
#
# Poissons Ratio (x) = 0.18575 0.19302
# Poissons Ratio (y) = 0.58404 -0.10515
# Poissons Ratio (z) = 0.33219 -0.05756
#
# Static dielectric constant tensor:
#      x y z
#    x 1.919920 0.000000 0.000000 
#    y 0.000000 1.833620 0.000000 
#    z 0.000000 0.000000 1.906620 
# 
# From -- ./inp_files/6045.got.cif
#   From: 2010.05.17/outbox.cif.g08.bks.cpg/sg20_4_cif.got.tgz:6045.got - 2010.06.03 22:52:26.
