data_PCOD9321679
_publ_section_title
;
Structure prediction by ZEFSAII (Michael W. Deem and Ramdas Pophale) SiO2 
 PCOD9321679
Probable space group: C 2 2 21
;
_chemical_formula_sum "Si O2"
_cell_formula_units_Z 32
_cell_length_a 11.131117
_cell_length_b 9.220726
_cell_length_c 13.929611
_cell_angle_alpha 90.000000
_cell_angle_beta 90.000000
_cell_angle_gamma 90.000000
_cell_volume 1429.693205
_symmetry_space_group_name_H-M "C 2 2 21"
_symmetry_group_IT_number 20
_symmetry_cell_setting 'orthorhombic'
loop_
_space_group_symop_operation_xyz
x,y,z
-x,-y,1/2+z
x,-y,-z
-x,y,1/2-z
1/2+x,1/2+y,z
1/2-x,1/2-y,1/2+z
1/2+x,1/2-y,-z
1/2-x,1/2+y,1/2-z
loop_
_atom_site_type_symbol
_atom_site_label
_atom_site_fract_x
_atom_site_fract_y
_atom_site_fract_z
Si Si1 0.225149 0.143651 0.549875
Si Si2 0.787132 0.413860 0.082631
Si Si3 0.628915 0.707343 0.757248
Si Si4 0.956093 0.517243 0.651719
O O1 0.206383 0.258002 0.465992
O O2 0.172877 0.210915 0.647923
O O3 0.359862 0.098670 0.585329
O O4 0.171980 0.000000 0.500000
O O5 0.718535 0.390437 0.181507
O O6 0.915564 0.489594 0.099133
O O7 0.716276 0.500000 0.000000
O O8 0.500000 0.633069 0.750000
O O9 0.398074 0.863031 0.688946
O O10 0.000000 0.595805 0.750000
#
# Coordination Sequence:
#
# PCOD9321679 Si02
#       4
#     8   8   8   8
#     4  12  26  46  78 117 154 199 268 325 382 464
#     4  12  26  46  78 113 151 212 259 315 400 461
#     4  11  26  48  73 108 154 200 256 321 385 465
#     4  11  23  50  78 103 156 207 248 320 392 459
#
# _framework density 22.382425999999999
#
# number of rings (size 3 to 8) (size 9 to 14) (size 15 to 20)
#    0.000    0.500    5.000    3.750    3.500    1.000 
#    0.000    0.000    0.000    0.000    0.000    0.000 
#    0.000    0.000    0.000    0.000    0.000    0.000 
#
# Total GULP energy -89159.303411 kJ/mol
# GULP energy per Si atom -5572.456463 kJ/mol
# Density = 2.233148 g / cm^3
# Si number density = 22.382426 Si / 1000 Ang^3
#
#
#
# Elastic Constant Matrix: (Units=GPa)
#
#
# Indices 1 2 3 4 5 6 
#
# 1 127.4956 20.8598 42.2557 0.0000 0.0000 0.0000
# 2 20.8598 106.7337 16.5330 0.0000 0.0000 0.0000
# 3 42.2557 16.5330 134.2277 0.0000 0.0000 0.0000
# 4 0.0000 0.0000 0.0000 42.5639 0.0000 0.0000
# 5 0.0000 0.0000 0.0000 0.0000 -140.5574 0.0000
# 6 0.0000 0.0000 0.0000 0.0000 0.0000 -29.2900
#
#
#
# Elastic Compliance Matrix: (Units=1/GPa)
#
#
# Indices 1 2 3 4 5 6 
#
# 1 0.008940 -0.001337 -0.002650 0.000000 0.000000 0.000000
# 2 -0.001337 0.009751 -0.000780 0.000000 0.000000 0.000000
# 3 -0.002650 -0.000780 0.008380 0.000000 0.000000 0.000000
# 4 0.000000 0.000000 0.000000 0.023494 0.000000 0.000000
# 5 0.000000 0.000000 0.000000 0.000000 -0.007115 0.000000
# 6 0.000000 0.000000 0.000000 0.000000 0.000000 -0.034141
#
#
# Mechanical properties :
#
#
# Convention : Reuss Voigt Hill
#
# Bulk Modulus (GPa) = 57.01857 58.63933 57.82895
# Shear Modulus (GPa) = 202.51204 -6.20280 98.15462
#
# Velocity S-wave (km/s) = 9.52232 -1.66652 6.62938
# Velocity P-wave (km/s) = 12.10080 4.74896 9.19190
#
# Compressibility (1/GPa) = 0.01753814
#
# Stress axis : x y z
#
# Youngs Moduli (GPa) = 111.85234 102.55110 119.32733
#
# Poissons Ratio (x) = 0.13709 0.31620
# Poissons Ratio (y) = 0.14953 0.09310
# Poissons Ratio (z) = 0.29639 0.08001
#
# Static dielectric constant tensor:
#      x y z
#    x 1.861610 0.000000 0.000000 
#    y 0.000000 3.146910 0.000000 
#    z 0.000000 0.000000 4.555400 
# 
# From -- ./inp_files/18287.got.cif
#   From: 2010.05.17/outbox.cif.g08.bks.cpg/sg20_10_cif.got.tgz:18287.got - 2010.06.03 22:52:26.
