data_PCOD9321365
_publ_section_title
;
Structure prediction by ZEFSAII (Michael W. Deem and Ramdas Pophale) SiO2 
 PCOD9321365
Probable space group: C 2 2 21
;
_chemical_formula_sum "Si O2"
_cell_formula_units_Z 56
_cell_length_a 15.040955
_cell_length_b 20.394679
_cell_length_c 9.665555
_cell_angle_alpha 90.000000
_cell_angle_beta 90.000000
_cell_angle_gamma 90.000000
_cell_volume 2964.961665
_symmetry_space_group_name_H-M "C 2 2 21"
_symmetry_group_IT_number 20
_symmetry_cell_setting 'orthorhombic'
loop_
_space_group_symop_operation_xyz
x,y,z
-x,-y,1/2+z
x,-y,-z
-x,y,1/2-z
1/2+x,1/2+y,z
1/2-x,1/2-y,1/2+z
1/2+x,1/2-y,-z
1/2-x,1/2+y,1/2-z
loop_
_atom_site_type_symbol
_atom_site_label
_atom_site_fract_x
_atom_site_fract_y
_atom_site_fract_z
Si Si1 0.500000 0.723002 0.250000
Si Si2 0.404921 0.248244 0.012883
Si Si3 0.166087 0.128513 0.198278
Si Si4 0.830239 0.660740 0.395993
Si Si5 0.197443 0.133046 0.627570
Si Si6 0.215240 0.807102 0.073476
Si Si7 0.500000 0.830089 0.750000
Si Si8 0.589327 0.504042 0.664198
O O1 0.525540 0.760433 0.388906
O O2 0.586118 0.678527 0.226112
O O3 0.376527 0.323503 0.045092
O O4 0.444060 0.215659 0.148204
O O5 0.313601 0.213359 0.972320
O O6 0.255408 0.151871 0.276573
O O7 0.134486 0.060071 0.265971
O O8 0.181690 0.137375 0.033444
O O9 0.783848 0.628993 0.530133
O O10 0.838863 0.738441 0.430972
O O11 0.924313 0.634031 0.340990
O O12 0.216853 0.170679 0.768845
O O13 0.157986 0.063603 0.668096
O O14 0.567423 0.500000 0.500000
O O15 0.500000 0.517701 0.750000
#
# Coordination Sequence:
#
# PCOD9321365 Si02
#       8
#     4   8   8   8   8   8   4   8
#     4  12  22  36  61  90 129 172 204 260 320 388
#     4  11  24  37  62  96 128 170 207 267 324 389
#     4  12  23  42  62  91 135 168 216 263 320 378
#     4  11  21  42  62  93 130 173 212 274 324 386
#     4  11  24  41  62  91 137 172 214 265 323 390
#     4  11  22  40  61  92 131 168 209 268 332 385
#     4  12  22  38  65  96 123 168 224 264 338 384
#     4  12  27  43  64  95 132 181 220 254 315 395
#
# _framework density 18.887259
#
# number of rings (size 3 to 8) (size 9 to 14) (size 15 to 20)
#    0.000    0.571    7.857    1.714    5.000    0.000 
#    0.000    0.000    0.000    0.000    7.429    0.000 
#    0.000    0.000    0.000    0.000    0.000    0.000 
#
# Total GULP energy -156317.472240 kJ/mol
# GULP energy per Si atom -5582.766866 kJ/mol
# Density = 1.884427 g / cm^3
# Si number density = 18.887259 Si / 1000 Ang^3
#
#
#
# Elastic Constant Matrix: (Units=GPa)
#
#
# Indices 1 2 3 4 5 6 
#
# 1 97.2628 17.0577 38.8308 0.0000 0.0000 0.0000
# 2 17.0577 47.8801 34.6674 0.0000 0.0000 0.0000
# 3 38.8308 34.6674 112.9245 0.0000 0.0000 0.0000
# 4 0.0000 0.0000 0.0000 30.2269 0.0000 0.0000
# 5 0.0000 0.0000 0.0000 0.0000 53.6806 0.0000
# 6 0.0000 0.0000 0.0000 0.0000 0.0000 6.5790
#
#
#
# Elastic Compliance Matrix: (Units=1/GPa)
#
#
# Indices 1 2 3 4 5 6 
#
# 1 0.012019 -0.001658 -0.003624 0.000000 0.000000 0.000000
# 2 -0.001658 0.027083 -0.007744 0.000000 0.000000 0.000000
# 3 -0.003624 -0.007744 0.012479 0.000000 0.000000 0.000000
# 4 0.000000 0.000000 0.000000 0.033083 0.000000 0.000000
# 5 0.000000 0.000000 0.000000 0.000000 0.018629 0.000000
# 6 0.000000 0.000000 0.000000 0.000000 0.000000 0.151998
#
#
# Mechanical properties :
#
#
# Convention : Reuss Voigt Hill
#
# Bulk Modulus (GPa) = 39.17119 48.79769 43.98444
# Shear Modulus (GPa) = 17.25008 29.26474 23.25741
#
# Velocity S-wave (km/s) = 3.02539 3.94057 3.51291
# Velocity P-wave (km/s) = 5.74356 6.82616 6.30813
#
# Compressibility (1/GPa) = 0.02552897
#
# Stress axis : x y z
#
# Youngs Moduli (GPa) = 83.20164 36.92292 80.13384
#
# Poissons Ratio (x) = 0.06122 0.29040
# Poissons Ratio (y) = 0.13795 0.62059
# Poissons Ratio (z) = 0.30152 0.28595
#
# Static dielectric constant tensor:
#      x y z
#    x 1.661700 0.000000 0.000000 
#    y 0.000000 1.644560 0.000000 
#    z 0.000000 0.000000 1.722970 
# 
# From -- ./inp_files/8772.got.cif
#   From: 2010.05.17/outbox.cif.g08.bks.cpg/sg20_5_cif.got.tgz:8772.got - 2010.06.03 22:52:26.
