data_PCOD9321827
_publ_section_title
;
Structure prediction by ZEFSAII (Michael W. Deem and Ramdas Pophale) SiO2 
 PCOD9321827
Probable space group: C 2 2 21
;
_chemical_formula_sum "Si O2"
_cell_formula_units_Z 64
_cell_length_a 11.283832
_cell_length_b 13.816485
_cell_length_c 18.517365
_cell_angle_alpha 90.000000
_cell_angle_beta 90.000000
_cell_angle_gamma 90.000000
_cell_volume 2886.910822
_symmetry_space_group_name_H-M "C 2 2 21"
_symmetry_group_IT_number 20
_symmetry_cell_setting 'orthorhombic'
loop_
_space_group_symop_operation_xyz
x,y,z
-x,-y,1/2+z
x,-y,-z
-x,y,1/2-z
1/2+x,1/2+y,z
1/2-x,1/2-y,1/2+z
1/2+x,1/2-y,-z
1/2-x,1/2+y,1/2-z
loop_
_atom_site_type_symbol
_atom_site_label
_atom_site_fract_x
_atom_site_fract_y
_atom_site_fract_z
Si Si1 0.956635 0.470322 0.082787
Si Si2 0.175431 0.204632 0.210258
Si Si3 0.410421 0.761313 0.554758
Si Si4 0.430517 0.140564 0.177890
Si Si5 0.597037 0.518846 0.809410
Si Si6 0.828066 0.637869 0.590240
Si Si7 0.062962 0.081034 0.558027
Si Si8 0.292706 0.175621 0.847934
O O1 0.892025 0.547060 0.133391
O O2 0.893297 0.371310 0.102709
O O3 0.093880 0.457955 0.105266
O O4 0.944306 0.500000 0.000000
O O5 0.317684 0.199610 0.202998
O O6 0.129982 0.094178 0.203065
O O7 0.139768 0.277532 0.146423
O O8 0.152359 0.254572 0.287295
O O9 0.489840 0.806022 0.618598
O O10 0.372192 0.829452 0.489192
O O11 0.488151 0.671084 0.526450
O O12 0.293304 0.728876 0.596422
O O13 0.500000 0.113877 0.250000
O O14 0.500000 0.548895 0.750000
O O15 0.526554 0.534284 0.884014
O O16 0.709085 0.592567 0.810431
O O17 0.688082 0.617250 0.590243
O O18 0.092565 0.000000 0.500000
#
# Coordination Sequence:
#
# PCOD9321827 Si02
#       8
#     8   8   8   8   8   8   8   8
#     4  12  28  48  72 107 147 189 246 302 365 439
#     4  12  26  47  71 108 143 191 238 307 363 438
#     4  11  25  45  70 107 138 196 241 305 362 447
#     4  12  25  48  74 102 142 192 244 292 371 431
#     4  11  26  46  71 102 142 187 242 293 366 431
#     4  12  27  43  73 103 151 187 247 304 369 434
#     4  11  25  45  68  99 143 189 238 298 363 433
#     4  11  27  45  77 104 147 193 247 303 367 442
#
# _framework density 22.169025999999999
#
# number of rings (size 3 to 8) (size 9 to 14) (size 15 to 20)
#    0.000    0.500    5.000    1.875    8.750    4.000 
#    0.000    0.000    0.000    0.000    0.000    0.000 
#    0.000    0.000    0.000    0.000    0.000    0.000 
#
# Total GULP energy -178968.191980 kJ/mol
# GULP energy per Si atom -5592.755999 kJ/mol
# Density = 2.211857 g / cm^3
# Si number density = 22.169026 Si / 1000 Ang^3
#
#
#
# Elastic Constant Matrix: (Units=GPa)
#
#
# Indices 1 2 3 4 5 6 
#
# 1 68.7555 14.2025 16.1249 0.0000 0.0000 0.0000
# 2 14.2025 75.1909 23.4644 0.0000 0.0000 0.0000
# 3 16.1249 23.4644 63.1409 0.0000 0.0000 0.0000
# 4 0.0000 0.0000 0.0000 34.5600 0.0000 0.0000
# 5 0.0000 0.0000 0.0000 0.0000 27.7658 0.0000
# 6 0.0000 0.0000 0.0000 0.0000 0.0000 38.5488
#
#
#
# Elastic Compliance Matrix: (Units=1/GPa)
#
#
# Indices 1 2 3 4 5 6 
#
# 1 0.015717 -0.001941 -0.003292 0.000000 0.000000 0.000000
# 2 -0.001941 0.015284 -0.005184 0.000000 0.000000 0.000000
# 3 -0.003292 -0.005184 0.018605 0.000000 0.000000 0.000000
# 4 0.000000 0.000000 0.000000 0.028935 0.000000 0.000000
# 5 0.000000 0.000000 0.000000 0.000000 0.036015 0.000000
# 6 0.000000 0.000000 0.000000 0.000000 0.000000 0.025941
#
#
# Mechanical properties :
#
#
# Convention : Reuss Voigt Hill
#
# Bulk Modulus (GPa) = 34.75769 34.96343 34.86056
# Shear Modulus (GPa) = 29.25275 30.39463 29.82369
#
# Velocity S-wave (km/s) = 3.63648 3.70677 3.67179
# Velocity P-wave (km/s) = 5.77447 5.84173 5.80819
#
# Compressibility (1/GPa) = 0.02877061
#
# Stress axis : x y z
#
# Youngs Moduli (GPa) = 63.62342 65.42820 53.74917
#
# Poissons Ratio (x) = 0.12702 0.17697
# Poissons Ratio (y) = 0.12351 0.27864
# Poissons Ratio (z) = 0.20948 0.33918
#
# Static dielectric constant tensor:
#      x y z
#    x 1.877990 0.000000 0.000000 
#    y 0.000000 1.882310 0.000000 
#    z 0.000000 0.000000 1.781450 
# 
# From -- ./inp_files/24456.got.cif
#   From: 2010.05.17/outbox.cif.g08.bks.cpg/sg20_13_cif.got.tgz:24456.got - 2010.06.03 22:52:26.
