data_PCOD9321727
_publ_section_title
;
Structure prediction by ZEFSAII (Michael W. Deem and Ramdas Pophale) SiO2 
 PCOD9321727
Probable space group: C 2 2 21
;
_chemical_formula_sum "Si O2"
_cell_formula_units_Z 32
_cell_length_a 5.144325
_cell_length_b 31.212459
_cell_length_c 8.559864
_cell_angle_alpha 90.000000
_cell_angle_beta 90.000000
_cell_angle_gamma 90.000000
_cell_volume 1374.431967
_symmetry_space_group_name_H-M "C 2 2 21"
_symmetry_group_IT_number 20
_symmetry_cell_setting 'orthorhombic'
loop_
_space_group_symop_operation_xyz
x,y,z
-x,-y,1/2+z
x,-y,-z
-x,y,1/2-z
1/2+x,1/2+y,z
1/2-x,1/2-y,1/2+z
1/2+x,1/2-y,-z
1/2-x,1/2+y,1/2-z
loop_
_atom_site_type_symbol
_atom_site_label
_atom_site_fract_x
_atom_site_fract_y
_atom_site_fract_z
Si Si1 0.918971 0.909216 0.930255
Si Si2 0.449169 0.321202 0.074323
Si Si3 0.917016 0.453398 0.067897
Si Si4 0.754229 0.271234 0.855834
O O1 0.000000 0.913349 0.750000
O O2 0.668180 0.937045 0.972839
O O3 0.849969 0.860224 0.972240
O O4 0.167421 0.923576 0.033982
O O5 0.500000 0.335938 0.250000
O O6 0.283015 0.277516 0.084975
O O7 0.714210 0.303905 0.996598
O O8 0.000000 0.454621 0.250000
O O9 0.847149 0.500000 0.000000
O O10 0.500000 0.274959 0.750000
O O11 0.000000 0.280602 0.750000
#
# Coordination Sequence:
#
# PCOD9321727 Si02
#       4
#     8   8   8   8
#     4  12  27  46  71 104 141 182 229 282 339 406
#     4  11  24  43  68  99 137 182 234 285 341 402
#     4  12  26  49  76 105 139 178 224 278 344 412
#     4  11  25  44  67  96 136 186 234 285 344 406
#
# _framework density 23.282347000000001
#
# number of rings (size 3 to 8) (size 9 to 14) (size 15 to 20)
#    0.000    0.500    0.000    9.000    0.000   11.000 
#    0.000    0.000    0.000    0.000    0.000    0.000 
#    0.000    0.000    0.000    0.000    0.000    0.000 
#
# Total GULP energy -89694.158950 kJ/mol
# GULP energy per Si atom -5605.884934 kJ/mol
# Density = 2.322936 g / cm^3
# Si number density = 23.282347 Si / 1000 Ang^3
#
#
#
# Elastic Constant Matrix: (Units=GPa)
#
#
# Indices 1 2 3 4 5 6 
#
# 1 123.3943 12.5852 32.6566 0.0000 0.0000 0.0000
# 2 12.5852 93.4174 35.5748 0.0000 0.0000 0.0000
# 3 32.6566 35.5748 124.9224 0.0000 0.0000 0.0000
# 4 0.0000 0.0000 0.0000 27.2250 0.0000 0.0000
# 5 0.0000 0.0000 0.0000 0.0000 40.7536 0.0000
# 6 0.0000 0.0000 0.0000 0.0000 0.0000 40.0182
#
#
#
# Elastic Compliance Matrix: (Units=1/GPa)
#
#
# Indices 1 2 3 4 5 6 
#
# 1 0.008716 -0.000344 -0.002181 0.000000 0.000000 0.000000
# 2 -0.000344 0.012020 -0.003333 0.000000 0.000000 0.000000
# 3 -0.002181 -0.003333 0.009524 0.000000 0.000000 0.000000
# 4 0.000000 0.000000 0.000000 0.036731 0.000000 0.000000
# 5 0.000000 0.000000 0.000000 0.000000 0.024538 0.000000
# 6 0.000000 0.000000 0.000000 0.000000 0.000000 0.024989
#
#
# Mechanical properties :
#
#
# Convention : Reuss Voigt Hill
#
# Bulk Modulus (GPa) = 53.92159 55.92971 54.92565
# Shear Modulus (GPa) = 37.19813 38.99384 38.09598
#
# Velocity S-wave (km/s) = 4.00146 4.09690 4.04946
# Velocity P-wave (km/s) = 6.67525 6.81572 6.74585
#
# Compressibility (1/GPa) = 0.01854545
#
# Stress axis : x y z
#
# Youngs Moduli (GPa) = 114.72774 83.19257 104.99528
#
# Poissons Ratio (x) = 0.02860 0.22896
# Poissons Ratio (y) = 0.03945 0.34997
# Poissons Ratio (z) = 0.25018 0.27730
#
# Static dielectric constant tensor:
#      x y z
#    x 1.838260 0.000000 0.000000 
#    y 0.000000 1.836910 0.000000 
#    z 0.000000 0.000000 1.921120 
# 
# From -- ./inp_files/5245.got.cif
#   From: 2010.05.17/outbox.cif.g08.bks.cpg/sg20_3_cif.got.tgz:5245.got - 2010.06.03 22:52:26.
