data_PCOD9321602
_publ_section_title
;
Structure prediction by ZEFSAII (Michael W. Deem and Ramdas Pophale) SiO2 
 PCOD9321602
Probable space group: C 2 2 21
;
_chemical_formula_sum "Si O2"
_cell_formula_units_Z 64
_cell_length_a 17.989196
_cell_length_b 11.667623
_cell_length_c 14.130107
_cell_angle_alpha 90.000000
_cell_angle_beta 90.000000
_cell_angle_gamma 90.000000
_cell_volume 2965.784507
_symmetry_space_group_name_H-M "C 2 2 21"
_symmetry_group_IT_number 20
_symmetry_cell_setting 'orthorhombic'
loop_
_space_group_symop_operation_xyz
x,y,z
-x,-y,1/2+z
x,-y,-z
-x,y,1/2-z
1/2+x,1/2+y,z
1/2-x,1/2-y,1/2+z
1/2+x,1/2-y,-z
1/2-x,1/2+y,1/2-z
loop_
_atom_site_type_symbol
_atom_site_label
_atom_site_fract_x
_atom_site_fract_y
_atom_site_fract_z
Si Si1 0.910466 0.597875 0.745623
Si Si2 0.435364 0.679704 0.173049
Si Si3 0.823272 0.999502 0.743663
Si Si4 0.173737 0.632296 0.289940
Si Si5 0.392726 0.301747 0.370361
Si Si6 0.473448 0.623385 0.971238
Si Si7 0.648339 0.128576 0.966658
Si Si8 0.690499 0.661264 0.588595
O O1 0.888573 0.705703 0.810271
O O2 0.873646 0.482988 0.784274
O O3 0.882276 0.630492 0.640390
O O4 0.000000 0.583428 0.750000
O O5 0.500000 0.679086 0.250000
O O6 0.386974 0.568842 0.199107
O O7 0.472132 0.688878 0.070578
O O8 0.855185 0.075486 0.656402
O O9 0.790650 0.093754 0.815163
O O10 0.758659 0.908596 0.723507
O O11 0.137485 0.714284 0.209277
O O12 0.174617 0.707238 0.384897
O O13 0.480814 0.326779 0.382987
O O14 0.378061 0.234385 0.468656
O O15 0.386691 0.613814 0.948577
O O16 0.505604 0.500000 0.000000
O O17 0.737747 0.140480 0.974047
O O18 0.627534 0.000000 0.000000
#
# Coordination Sequence:
#
# PCOD9321602 Si02
#       8
#     8   8   8   8   8   8   8   8
#     4  11  24  43  68  98 139 187 231 278 343 424
#     4  11  24  44  70  99 142 183 230 283 352 417
#     4  11  23  43  70 101 136 186 229 292 349 420
#     4  11  25  44  68 101 138 186 234 286 354 423
#     4  11  26  42  73 103 139 178 241 292 354 423
#     4  12  25  44  69 109 141 185 233 298 355 413
#     4  12  23  46  71 102 139 188 235 295 353 426
#     4  11  25  41  69 103 139 180 236 289 357 419
#
# _framework density 21.579450000000001
#
# number of rings (size 3 to 8) (size 9 to 14) (size 15 to 20)
#    0.000    0.750    3.750    3.375    5.250    2.000 
#    0.000    1.875    0.000    0.000    0.000    0.000 
#    0.000    0.000    0.000    0.000    0.000    0.000 
#
# Total GULP energy -178545.529818 kJ/mol
# GULP energy per Si atom -5579.547807 kJ/mol
# Density = 2.153033 g / cm^3
# Si number density = 21.579450 Si / 1000 Ang^3
#
#
#
# Elastic Constant Matrix: (Units=GPa)
#
#
# Indices 1 2 3 4 5 6 
#
# 1 93.9303 6.4114 5.5683 0.0000 0.0000 0.0000
# 2 6.4114 94.9964 16.9816 0.0000 0.0000 0.0000
# 3 5.5683 16.9816 52.2568 0.0000 0.0000 0.0000
# 4 0.0000 0.0000 0.0000 14.0181 0.0000 0.0000
# 5 0.0000 0.0000 0.0000 0.0000 27.6530 0.0000
# 6 0.0000 0.0000 0.0000 0.0000 0.0000 26.5511
#
#
#
# Elastic Compliance Matrix: (Units=1/GPa)
#
#
# Indices 1 2 3 4 5 6 
#
# 1 0.010741 -0.000552 -0.000965 0.000000 0.000000 0.000000
# 2 -0.000552 0.011204 -0.003582 0.000000 0.000000 0.000000
# 3 -0.000965 -0.003582 0.020403 0.000000 0.000000 0.000000
# 4 0.000000 0.000000 0.000000 0.071336 0.000000 0.000000
# 5 0.000000 0.000000 0.000000 0.000000 0.036162 0.000000
# 6 0.000000 0.000000 0.000000 0.000000 0.000000 0.037663
#
#
# Mechanical properties :
#
#
# Convention : Reuss Voigt Hill
#
# Bulk Modulus (GPa) = 31.10475 33.23401 32.16938
# Shear Modulus (GPa) = 23.98933 27.79260 25.89097
#
# Velocity S-wave (km/s) = 3.33780 3.59265 3.46757
# Velocity P-wave (km/s) = 5.41293 5.71347 5.56523
#
# Compressibility (1/GPa) = 0.03214943
#
# Stress axis : x y z
#
# Youngs Moduli (GPa) = 93.10032 89.25115 49.01206
#
# Poissons Ratio (x) = 0.04930 0.04730
# Poissons Ratio (y) = 0.05143 0.17557
# Poissons Ratio (z) = 0.08984 0.31971
#
# Static dielectric constant tensor:
#      x y z
#    x 1.815940 0.000000 0.000000 
#    y 0.000000 1.857930 0.000000 
#    z 0.000000 0.000000 1.793680 
# 
# From -- ./inp_files/21506.got.cif
#   From: 2010.05.17/outbox.cif.g08.bks.cpg/sg20_11_cif.got.tgz:21506.got - 2010.06.03 22:52:26.
