data_PCOD9321149
_publ_section_title
;
Structure prediction by ZEFSAII (Michael W. Deem and Ramdas Pophale) SiO2 
 PCOD9321149
Probable space group: C 2 2 21
;
_chemical_formula_sum "Si O2"
_cell_formula_units_Z 36
_cell_length_a 19.616141
_cell_length_b 16.137613
_cell_length_c 5.037113
_cell_angle_alpha 90.000000
_cell_angle_beta 90.000000
_cell_angle_gamma 90.000000
_cell_volume 1594.536866
_symmetry_space_group_name_H-M "C 2 2 21"
_symmetry_group_IT_number 20
_symmetry_cell_setting 'orthorhombic'
loop_
_space_group_symop_operation_xyz
x,y,z
-x,-y,1/2+z
x,-y,-z
-x,y,1/2-z
1/2+x,1/2+y,z
1/2-x,1/2-y,1/2+z
1/2+x,1/2-y,-z
1/2-x,1/2+y,1/2-z
loop_
_atom_site_type_symbol
_atom_site_label
_atom_site_fract_x
_atom_site_fract_y
_atom_site_fract_z
Si Si1 0.887678 0.812060 0.427379
Si Si2 0.152687 0.095814 0.429908
Si Si3 0.808957 0.355501 0.583481
Si Si4 0.110650 0.409539 0.415454
Si Si5 0.500000 0.782739 0.250000
O O1 0.867529 0.884810 0.629185
O O2 0.829569 0.740739 0.445863
O O3 0.954949 0.770373 0.547499
O O4 0.890836 0.847575 0.131903
O O5 0.230785 0.124414 0.467160
O O6 0.145592 0.000000 0.500000
O O7 0.855320 0.405226 0.373401
O O8 0.831665 0.382728 0.875790
O O9 0.085922 0.500000 0.500000
O O10 0.050662 0.342620 0.412924
#
# Coordination Sequence:
#
# PCOD9321149 Si02
#       5
#     8   8   8   8   4
#     4  11  24  43  66  94 129 175 217 262 321 389
#     4  12  24  42  68  99 129 165 216 277 330 378
#     4  11  23  42  68  99 133 167 207 265 335 402
#     4  11  23  40  66 101 134 170 209 263 328 394
#     4  10  26  44  66  92 134 182 226 262 310 388
#
# _framework density 22.577089000000001
#
# number of rings (size 3 to 8) (size 9 to 14) (size 15 to 20)
#    0.000    0.889    0.000    8.000    0.000   11.556 
#    0.000    2.222    0.000    0.000    0.000    0.000 
#    0.000    0.000    0.000    0.000    0.000    0.000 
#
# Total GULP energy -100897.128410 kJ/mol
# GULP energy per Si atom -5605.396023 kJ/mol
# Density = 2.252570 g / cm^3
# Si number density = 22.577089 Si / 1000 Ang^3
#
#
#
# Elastic Constant Matrix: (Units=GPa)
#
#
# Indices 1 2 3 4 5 6 
#
# 1 81.7641 24.1399 -10.7141 0.0000 0.0000 0.0000
# 2 24.1399 105.8463 15.9379 0.0000 0.0000 0.0000
# 3 -10.7141 15.9379 50.9483 0.0000 0.0000 0.0000
# 4 0.0000 0.0000 0.0000 43.3852 0.0000 0.0000
# 5 0.0000 0.0000 0.0000 0.0000 33.0229 0.0000
# 6 0.0000 0.0000 0.0000 0.0000 0.0000 -2.4714
#
#
#
# Elastic Compliance Matrix: (Units=1/GPa)
#
#
# Indices 1 2 3 4 5 6 
#
# 1 0.013885 -0.003785 0.004104 0.000000 0.000000 0.000000
# 2 -0.003785 0.010946 -0.004220 0.000000 0.000000 0.000000
# 3 0.004104 -0.004220 0.021811 0.000000 0.000000 0.000000
# 4 0.000000 0.000000 0.000000 0.023049 0.000000 0.000000
# 5 0.000000 0.000000 0.000000 0.000000 0.030282 0.000000
# 6 0.000000 0.000000 0.000000 0.000000 0.000000 -0.404635
#
#
# Mechanical properties :
#
#
# Convention : Reuss Voigt Hill
#
# Bulk Modulus (GPa) = 25.74609 33.03179 29.38894
# Shear Modulus (GPa) = -17.61112 28.73367 5.56127
#
# Velocity S-wave (km/s) = -2.79596 3.57135 1.57117
# Velocity P-wave (km/s) = 1.00261 5.62748 4.04189
#
# Compressibility (1/GPa) = 0.03884085
#
# Stress axis : x y z
#
# Youngs Moduli (GPa) = 72.01762 91.35509 45.84848
#
# Poissons Ratio (x) = 0.34576 -0.18816
# Poissons Ratio (y) = 0.27257 0.19349
# Poissons Ratio (z) = -0.29556 0.38554
#
# Static dielectric constant tensor:
#      x y z
#    x 1.806240 0.000000 0.000000 
#    y 0.000000 1.828390 0.000000 
#    z 0.000000 0.000000 1.801800 
# 
# From -- ./inp_files/3066.got.cif
#   From: 2010.05.17/outbox.cif.g08.bks.cpg/sg20_2_cif.got.tgz:3066.got - 2010.06.03 22:52:26.
