data_PCOD9321573
_publ_section_title
;
Structure prediction by ZEFSAII (Michael W. Deem and Ramdas Pophale) SiO2 
 PCOD9321573
Probable space group: C 2 2 21
;
_chemical_formula_sum "Si O2"
_cell_formula_units_Z 56
_cell_length_a 22.928163
_cell_length_b 5.449229
_cell_length_c 20.310082
_cell_angle_alpha 90.000000
_cell_angle_beta 90.000000
_cell_angle_gamma 90.000000
_cell_volume 2537.558111
_symmetry_space_group_name_H-M "C 2 2 21"
_symmetry_group_IT_number 20
_symmetry_cell_setting 'orthorhombic'
loop_
_space_group_symop_operation_xyz
x,y,z
-x,-y,1/2+z
x,-y,-z
-x,y,1/2-z
1/2+x,1/2+y,z
1/2-x,1/2-y,1/2+z
1/2+x,1/2-y,-z
1/2-x,1/2+y,1/2-z
loop_
_atom_site_type_symbol
_atom_site_label
_atom_site_fract_x
_atom_site_fract_y
_atom_site_fract_z
Si Si1 0.381142 0.289779 0.801462
Si Si2 0.268587 0.000000 0.000000
Si Si3 0.180847 0.169906 0.767194
Si Si4 0.943417 0.420016 0.713752
Si Si5 0.779683 0.504969 0.853845
Si Si6 0.008310 0.562710 0.927043
Si Si7 0.331537 0.500000 0.000000
Si Si8 0.936461 0.070472 0.906391
O O1 0.334921 0.388950 0.749179
O O2 0.343124 0.139710 0.854486
O O3 0.415309 0.514118 0.833412
O O4 0.428882 0.130938 0.765800
O O5 0.252529 0.924802 0.923839
O O6 0.296117 0.261666 0.980933
O O7 0.118430 0.278261 0.789624
O O8 0.205223 0.294445 0.700299
O O9 0.230598 0.178098 0.821570
O O10 0.955236 0.531125 0.640669
O O11 0.000000 0.297726 0.750000
O O12 0.976102 0.831143 0.927127
O O13 0.035123 0.500000 0.000000
O O14 0.965047 0.331626 0.918161
O O15 0.375814 0.420013 0.056068
#
# Coordination Sequence:
#
# PCOD9321573 Si02
#       8
#     8   4   8   8   8   8   4   8
#     4  11  23  41  69  99 138 183 234 302 348 429
#     4  12  26  40  72 109 146 179 234 314 356 440
#     4  11  24  45  72  98 143 191 237 298 353 441
#     4  11  25  43  69 104 137 188 246 293 353 430
#     4  11  24  44  70 107 139 185 243 291 375 424
#     4  12  25  44  66 100 145 190 235 294 359 431
#     4  12  22  40  66 107 144 181 232 294 384 418
#     4  12  23  40  69  99 139 185 232 296 365 421
#
# _framework density 22.068460000000002
#
# number of rings (size 3 to 8) (size 9 to 14) (size 15 to 20)
#    0.000    0.571    5.714    2.571    4.000    0.571 
#    0.000    1.429    0.000    0.000    0.000    0.000 
#    0.000    0.000    0.000    0.000    0.000    0.000 
#
# Total GULP energy -155879.019025 kJ/mol
# GULP energy per Si atom -5567.107822 kJ/mol
# Density = 2.201823 g / cm^3
# Si number density = 22.068460 Si / 1000 Ang^3
#
#
#
# Elastic Constant Matrix: (Units=GPa)
#
#
# Indices 1 2 3 4 5 6 
#
# 1 66.2956 4.5748 23.6796 0.0000 0.0000 0.0000
# 2 4.5748 59.4657 -19.8057 0.0000 0.0000 0.0000
# 3 23.6796 -19.8057 119.5770 0.0000 0.0000 0.0000
# 4 0.0000 0.0000 0.0000 27.7008 0.0000 0.0000
# 5 0.0000 0.0000 0.0000 0.0000 25.0884 0.0000
# 6 0.0000 0.0000 0.0000 0.0000 0.0000 -188.0748
#
#
#
# Elastic Compliance Matrix: (Units=1/GPa)
#
#
# Indices 1 2 3 4 5 6 
#
# 1 0.016578 -0.002507 -0.003698 0.000000 0.000000 0.000000
# 2 -0.002507 0.018177 0.003507 0.000000 0.000000 0.000000
# 3 -0.003698 0.003507 0.009676 0.000000 0.000000 0.000000
# 4 0.000000 0.000000 0.000000 0.036100 0.000000 0.000000
# 5 0.000000 0.000000 0.000000 0.000000 0.039859 0.000000
# 6 0.000000 0.000000 0.000000 0.000000 0.000000 -0.005317
#
#
# Mechanical properties :
#
#
# Convention : Reuss Voigt Hill
#
# Bulk Modulus (GPa) = 25.61782 29.13731 27.37756
# Shear Modulus (GPa) = 37.45851 -11.26447 13.09702
#
# Velocity S-wave (km/s) = 4.12439 -2.26173 2.43877
# Velocity P-wave (km/s) = 5.85785 2.53205 4.51252
#
# Compressibility (1/GPa) = 0.03903533
#
# Stress axis : x y z
#
# Youngs Moduli (GPa) = 60.32142 55.01340 103.34797
#
# Poissons Ratio (x) = 0.13792 0.38219
# Poissons Ratio (y) = 0.15123 -0.36246
# Poissons Ratio (z) = 0.22308 -0.19294
#
# Static dielectric constant tensor:
#      x y z
#    x 1.825570 0.000000 0.000000 
#    y 0.000000 1.893110 0.000000 
#    z 0.000000 0.000000 2.659480 
# 
# From -- ./inp_files/28017.got.cif
#   From: 2010.05.17/outbox.cif.g08.bks.cpg/sg20_15_cif.got.tgz:28017.got - 2010.06.03 22:52:26.
