data_PCOD9321264
_publ_section_title
;
Structure prediction by ZEFSAII (Michael W. Deem and Ramdas Pophale) SiO2 
 PCOD9321264
Probable space group: C 2 2 21
;
_chemical_formula_sum "Si O2"
_cell_formula_units_Z 36
_cell_length_a 14.903750
_cell_length_b 23.588241
_cell_length_c 4.885298
_cell_angle_alpha 90.000000
_cell_angle_beta 90.000000
_cell_angle_gamma 90.000000
_cell_volume 1717.442374
_symmetry_space_group_name_H-M "C 2 2 21"
_symmetry_group_IT_number 20
_symmetry_cell_setting 'orthorhombic'
loop_
_space_group_symop_operation_xyz
x,y,z
-x,-y,1/2+z
x,-y,-z
-x,y,1/2-z
1/2+x,1/2+y,z
1/2-x,1/2-y,1/2+z
1/2+x,1/2-y,-z
1/2-x,1/2+y,1/2-z
loop_
_atom_site_type_symbol
_atom_site_label
_atom_site_fract_x
_atom_site_fract_y
_atom_site_fract_z
Si Si1 0.938980 0.669567 0.488797
Si Si2 0.286409 0.593925 0.508660
Si Si3 0.762232 0.714880 0.791774
Si Si4 0.934954 0.000000 0.500000
Si Si5 0.329342 0.064677 0.492502
O O1 0.849870 0.698956 0.611412
O O2 0.903198 0.608589 0.391796
O O3 0.000000 0.696153 0.250000
O O4 0.000000 0.660965 0.750000
O O5 0.291085 0.660595 0.584987
O O6 0.371056 0.553752 0.568936
O O7 0.203543 0.575980 0.700237
O O8 0.256264 0.578985 0.200517
O O9 0.708767 0.749797 0.559957
O O10 0.000000 0.014335 0.250000
O O11 0.357308 0.000000 0.500000
#
# Coordination Sequence:
#
# PCOD9321264 Si02
#       5
#     8   8   8   4   8
#     4  11  23  39  61  96 131 161 209 272 326 371
#     4  11  22  41  64  94 128 166 224 264 322 407
#     4  11  23  43  69  92 124 182 230 263 325 410
#     4  12  24  40  66  98 132 166 212 286 342 372
#     4  11  20  37  64  91 128 174 200 243 319 405
#
# _framework density 20.961403000000001
#
# number of rings (size 3 to 8) (size 9 to 14) (size 15 to 20)
#    0.000    0.889    2.222    8.000    0.000    0.889 
#    0.000    4.444    0.000    0.000    0.000    0.000 
#    0.000    0.000    0.000    0.000    0.000    0.000 
#
# Total GULP energy -100396.690665 kJ/mol
# GULP energy per Si atom -5577.593926 kJ/mol
# Density = 2.091369 g / cm^3
# Si number density = 20.961403 Si / 1000 Ang^3
#
#
#
# Elastic Constant Matrix: (Units=GPa)
#
#
# Indices 1 2 3 4 5 6 
#
# 1 80.2990 27.3115 16.5007 0.0000 0.0000 0.0000
# 2 27.3115 85.6720 27.2848 0.0000 0.0000 0.0000
# 3 16.5007 27.2848 98.1058 0.0000 0.0000 0.0000
# 4 0.0000 0.0000 0.0000 16.5423 0.0000 0.0000
# 5 0.0000 0.0000 0.0000 0.0000 47.3374 0.0000
# 6 0.0000 0.0000 0.0000 0.0000 0.0000 12.3221
#
#
#
# Elastic Compliance Matrix: (Units=1/GPa)
#
#
# Indices 1 2 3 4 5 6 
#
# 1 0.014102 -0.004104 -0.001231 0.000000 0.000000 0.000000
# 2 -0.004104 0.014001 -0.003204 0.000000 0.000000 0.000000
# 3 -0.001231 -0.003204 0.011291 0.000000 0.000000 0.000000
# 4 0.000000 0.000000 0.000000 0.060451 0.000000 0.000000
# 5 0.000000 0.000000 0.000000 0.000000 0.021125 0.000000
# 6 0.000000 0.000000 0.000000 0.000000 0.000000 0.081155
#
#
# Mechanical properties :
#
#
# Convention : Reuss Voigt Hill
#
# Bulk Modulus (GPa) = 44.80650 45.14119 44.97385
# Shear Modulus (GPa) = 22.06141 28.10569 25.08355
#
# Velocity S-wave (km/s) = 3.24771 3.66571 3.46302
# Velocity P-wave (km/s) = 5.95698 6.28480 6.12308
#
# Compressibility (1/GPa) = 0.02231819
#
# Stress axis : x y z
#
# Youngs Moduli (GPa) = 70.91143 71.42364 88.56579
#
# Poissons Ratio (x) = 0.29310 0.10899
# Poissons Ratio (y) = 0.29100 0.28374
# Poissons Ratio (z) = 0.08726 0.22882
#
# Static dielectric constant tensor:
#      x y z
#    x 1.750170 0.000000 0.000000 
#    y 0.000000 1.860150 0.000000 
#    z 0.000000 0.000000 1.766030 
# 
# From -- ./inp_files/1223.got.cif
#   From: 2010.05.17/outbox.cif.g08.bks.cpg/sg20_1_cif.got.tgz:1223.got - 2010.06.03 22:52:26.
