data_PCOD9321659
_publ_section_title
;
Structure prediction by ZEFSAII (Michael W. Deem and Ramdas Pophale) SiO2 
 PCOD9321659
Probable space group: C 2 2 21
;
_chemical_formula_sum "Si O2"
_cell_formula_units_Z 60
_cell_length_a 12.150167
_cell_length_b 19.250338
_cell_length_c 10.942703
_cell_angle_alpha 90.000000
_cell_angle_beta 90.000000
_cell_angle_gamma 90.000000
_cell_volume 2559.441565
_symmetry_space_group_name_H-M "C 2 2 21"
_symmetry_group_IT_number 20
_symmetry_cell_setting 'orthorhombic'
loop_
_space_group_symop_operation_xyz
x,y,z
-x,-y,1/2+z
x,-y,-z
-x,y,1/2-z
1/2+x,1/2+y,z
1/2-x,1/2-y,1/2+z
1/2+x,1/2-y,-z
1/2-x,1/2+y,1/2-z
loop_
_atom_site_type_symbol
_atom_site_label
_atom_site_fract_x
_atom_site_fract_y
_atom_site_fract_z
Si Si1 0.015033 0.158000 0.511752
Si Si2 0.000000 0.582726 0.250000
Si Si3 0.717036 0.388736 0.902540
Si Si4 0.639410 0.844920 0.365366
Si Si5 0.220171 0.191274 0.350020
Si Si6 0.791109 0.511712 0.755844
Si Si7 0.043745 0.684396 0.033813
Si Si8 0.432352 0.473801 0.133684
O O1 0.115488 0.157684 0.416645
O O2 0.046174 0.108179 0.622579
O O3 0.905158 0.130374 0.446378
O O4 0.996348 0.236882 0.552690
O O5 0.102737 0.533152 0.225316
O O6 0.993704 0.632339 0.133440
O O7 0.740781 0.348024 0.776460
O O8 0.738326 0.469534 0.870571
O O9 0.795571 0.361587 0.009053
O O10 0.686868 0.771007 0.322272
O O11 0.510721 0.837198 0.403953
O O12 0.670556 0.910525 0.283747
O O13 0.325636 0.185467 0.439702
O O14 0.695356 0.511592 0.656371
O O15 0.500000 0.501569 0.250000
O O16 0.465713 0.500000 0.000000
#
# Coordination Sequence:
#
# PCOD9321659 Si02
#       8
#     8   4   8   8   8   8   8   8
#     4  11  26  45  73 113 146 199 260 329 389 469
#     4  12  26  46  72 104 152 212 252 320 392 486
#     4  12  22  46  75 102 154 196 260 321 401 466
#     4  11  25  45  74 113 148 200 262 326 388 475
#     4  11  24  45  76 109 149 205 262 329 395 463
#     4  12  27  48  74 111 149 208 252 320 391 479
#     4  11  23  46  73 105 150 203 259 320 395 471
#     4  12  28  51  80 117 161 203 261 329 399 475
#
# _framework density 23.442615
#
# number of rings (size 3 to 8) (size 9 to 14) (size 15 to 20)
#    0.000    0.533    4.000    3.200    0.933    3.200 
#    4.800    0.000    0.000    0.000    0.000    0.000 
#    0.000    0.000    0.000    0.000    0.000    0.000 
#
# Total GULP energy -167983.517034 kJ/mol
# GULP energy per Si atom -5599.450568 kJ/mol
# Density = 2.338926 g / cm^3
# Si number density = 23.442615 Si / 1000 Ang^3
#
#
#
# Elastic Constant Matrix: (Units=GPa)
#
#
# Indices 1 2 3 4 5 6 
#
# 1 136.8039 37.4733 24.1630 0.0000 0.0000 0.0000
# 2 37.4733 115.3599 34.6934 0.0000 0.0000 0.0000
# 3 24.1630 34.6934 70.8938 0.0000 0.0000 0.0000
# 4 0.0000 0.0000 0.0000 37.9072 0.0000 0.0000
# 5 0.0000 0.0000 0.0000 0.0000 30.6157 0.0000
# 6 0.0000 0.0000 0.0000 0.0000 0.0000 29.6315
#
#
#
# Elastic Compliance Matrix: (Units=1/GPa)
#
#
# Indices 1 2 3 4 5 6 
#
# 1 0.008205 -0.002139 -0.001750 0.000000 0.000000 0.000000
# 2 -0.002139 0.010722 -0.004518 0.000000 0.000000 0.000000
# 3 -0.001750 -0.004518 0.016913 0.000000 0.000000 0.000000
# 4 0.000000 0.000000 0.000000 0.026380 0.000000 0.000000
# 5 0.000000 0.000000 0.000000 0.000000 0.032663 0.000000
# 6 0.000000 0.000000 0.000000 0.000000 0.000000 0.033748
#
#
# Mechanical properties :
#
#
# Convention : Reuss Voigt Hill
#
# Bulk Modulus (GPa) = 52.55877 57.30187 54.93032
# Shear Modulus (GPa) = 32.94106 34.74610 33.84358
#
# Velocity S-wave (km/s) = 3.75264 3.85408 3.80370
# Velocity P-wave (km/s) = 6.42225 6.65596 6.54015
#
# Compressibility (1/GPa) = 0.01902632
#
# Stress axis : x y z
#
# Youngs Moduli (GPa) = 121.88168 93.26518 59.12626
#
# Poissons Ratio (x) = 0.19949 0.10345
# Poissons Ratio (y) = 0.26070 0.26714
# Poissons Ratio (z) = 0.21325 0.42138
#
# Static dielectric constant tensor:
#      x y z
#    x 1.899450 0.000000 0.000000 
#    y 0.000000 1.897060 0.000000 
#    z 0.000000 0.000000 1.858470 
# 
# From -- ./inp_files/14382.got.cif
#   From: 2010.05.17/outbox.cif.g08.bks.cpg/sg20_8_cif.got.tgz:14382.got - 2010.06.03 22:52:26.
