data_PCOD9321855
_publ_section_title
;
Structure prediction by ZEFSAII (Michael W. Deem and Ramdas Pophale) SiO2 
 PCOD9321855
Probable space group: C 2 2 21
;
_chemical_formula_sum "Si O2"
_cell_formula_units_Z 60
_cell_length_a 20.314667
_cell_length_b 7.297455
_cell_length_c 15.970687
_cell_angle_alpha 90.000000
_cell_angle_beta 90.000000
_cell_angle_gamma 90.000000
_cell_volume 2367.580376
_symmetry_space_group_name_H-M "C 2 2 21"
_symmetry_group_IT_number 20
_symmetry_cell_setting 'orthorhombic'
loop_
_space_group_symop_operation_xyz
x,y,z
-x,-y,1/2+z
x,-y,-z
-x,y,1/2-z
1/2+x,1/2+y,z
1/2-x,1/2-y,1/2+z
1/2+x,1/2-y,-z
1/2-x,1/2+y,1/2-z
loop_
_atom_site_type_symbol
_atom_site_label
_atom_site_fract_x
_atom_site_fract_y
_atom_site_fract_z
Si Si1 0.366452 0.310648 0.548954
Si Si2 0.457858 0.928166 0.164462
Si Si3 0.272867 0.641280 0.938441
Si Si4 0.275189 0.811406 0.671021
Si Si5 0.536483 0.472442 0.668408
Si Si6 0.600411 0.582500 0.821539
Si Si7 0.970005 0.500000 0.500000
Si Si8 0.312423 0.038535 0.158821
O O1 0.374454 0.500000 0.500000
O O2 0.296047 0.223936 0.528403
O O3 0.372163 0.386958 0.644555
O O4 0.422428 0.167070 0.527024
O O5 0.500000 0.963961 0.250000
O O6 0.447991 0.718302 0.126021
O O7 0.384667 0.987713 0.187554
O O8 0.487369 0.031608 0.083882
O O9 0.247151 0.501772 0.867898
O O10 0.314884 0.817505 0.916296
O O11 0.308345 0.500000 0.000000
O O12 0.349608 0.741440 0.653282
O O13 0.228064 0.646417 0.643148
O O14 0.273842 0.849707 0.769691
O O15 0.500000 0.386328 0.750000
O O16 0.593197 0.577697 0.719378
O O17 0.526084 0.591784 0.859876
#
# Coordination Sequence:
#
# PCOD9321855 Si02
#       8
#     8   8   8   8   8   8   4   8
#     4  12  24  43  73 109 150 195 256 326 393 462
#     4  11  25  48  76 110 155 208 264 331 402 483
#     4  12  28  47  75 118 154 201 256 333 401 481
#     4  12  26  46  78 113 153 195 267 319 401 481
#     4   7  17  36  70  99 139 189 239 306 370 456
#     4   9  19  40  68 104 142 188 243 310 379 454
#     4  12  26  48  74 116 152 210 270 326 404 494
#     4  12  29  47  78 113 157 209 263 336 404 487
#
# _framework density 25.34233
#
# number of rings (size 3 to 8) (size 9 to 14) (size 15 to 20)
#    0.800    0.267    4.667    0.800    5.600    1.067 
#    7.200    2.000    0.000    0.000    0.000    0.000 
#    0.000    0.000    0.000    0.000    0.000    0.000 
#
# Total GULP energy -167420.336030 kJ/mol
# GULP energy per Si atom -5580.677868 kJ/mol
# Density = 2.528465 g / cm^3
# Si number density = 25.342330 Si / 1000 Ang^3
#
#
#
# Elastic Constant Matrix: (Units=GPa)
#
#
# Indices 1 2 3 4 5 6 
#
# 1 120.8362 53.4483 30.9468 0.0000 0.0000 0.0000
# 2 53.4483 142.3257 19.3602 0.0000 0.0000 0.0000
# 3 30.9468 19.3602 57.6531 0.0000 0.0000 0.0000
# 4 0.0000 0.0000 0.0000 44.4908 0.0000 0.0000
# 5 0.0000 0.0000 0.0000 0.0000 29.7929 0.0000
# 6 0.0000 0.0000 0.0000 0.0000 0.0000 12.7363
#
#
#
# Elastic Compliance Matrix: (Units=1/GPa)
#
#
# Indices 1 2 3 4 5 6 
#
# 1 0.011040 -0.003500 -0.004751 0.000000 0.000000 0.000000
# 2 -0.003500 0.008472 -0.000966 0.000000 0.000000 0.000000
# 3 -0.004751 -0.000966 0.020220 0.000000 0.000000 0.000000
# 4 0.000000 0.000000 0.000000 0.022477 0.000000 0.000000
# 5 0.000000 0.000000 0.000000 0.000000 0.033565 0.000000
# 6 0.000000 0.000000 0.000000 0.000000 0.000000 0.078516
#
#
# Mechanical properties :
#
#
# Convention : Reuss Voigt Hill
#
# Bulk Modulus (GPa) = 46.95285 58.70285 52.82785
# Shear Modulus (GPa) = 25.02214 31.87463 28.44839
#
# Velocity S-wave (km/s) = 3.14565 3.55034 3.35410
# Velocity P-wave (km/s) = 5.63570 6.32620 5.99091
#
# Compressibility (1/GPa) = 0.02129796
#
# Stress axis : x y z
#
# Youngs Moduli (GPa) = 90.57590 118.03745 49.45644
#
# Poissons Ratio (x) = 0.41311 0.23497
# Poissons Ratio (y) = 0.31700 0.04779
# Poissons Ratio (z) = 0.43033 0.11406
#
# Static dielectric constant tensor:
#      x y z
#    x 2.023460 0.000000 0.000000 
#    y 0.000000 2.026950 0.000000 
#    z 0.000000 0.000000 2.334000 
# 
# From -- ./inp_files/28048.got.cif
#   From: 2010.05.17/outbox.cif.g08.bks.cpg/sg20_15_cif.got.tgz:28048.got - 2010.06.03 22:52:26.
