data_PCOD9321930
_publ_section_title
;
Structure prediction by ZEFSAII (Michael W. Deem and Ramdas Pophale) SiO2 
 PCOD9321930
Probable space group: C 2 2 21
;
_chemical_formula_sum "Si O2"
_cell_formula_units_Z 64
_cell_length_a 4.958718
_cell_length_b 32.647531
_cell_length_c 16.724824
_cell_angle_alpha 90.000000
_cell_angle_beta 90.000000
_cell_angle_gamma 90.000000
_cell_volume 2707.580079
_symmetry_space_group_name_H-M "C 2 2 21"
_symmetry_group_IT_number 20
_symmetry_cell_setting 'orthorhombic'
loop_
_space_group_symop_operation_xyz
x,y,z
-x,-y,1/2+z
x,-y,-z
-x,y,1/2-z
1/2+x,1/2+y,z
1/2-x,1/2-y,1/2+z
1/2+x,1/2-y,-z
1/2-x,1/2+y,1/2-z
loop_
_atom_site_type_symbol
_atom_site_label
_atom_site_fract_x
_atom_site_fract_y
_atom_site_fract_z
Si Si1 0.426692 0.129503 0.933360
Si Si2 0.904304 0.853807 0.958965
Si Si3 0.471461 0.280972 0.662330
Si Si4 0.017824 0.537778 0.954309
Si Si5 0.320464 0.421847 0.824238
Si Si6 0.307474 0.305106 0.327775
Si Si7 0.300101 0.033045 0.123199
Si Si8 0.394659 0.743095 0.945107
O O1 0.562663 0.084163 0.926261
O O2 0.365725 0.154875 0.851916
O O3 0.640514 0.152229 0.988467
O O4 0.154119 0.131161 0.986662
O O5 0.944067 0.813342 0.904991
O O6 0.847321 0.889719 0.895408
O O7 0.118260 0.742106 0.993415
O O8 0.500000 0.299520 0.750000
O O9 0.623235 0.236493 0.670216
O O10 0.168693 0.270770 0.632855
O O11 0.897251 0.513506 0.879420
O O12 0.189345 0.500000 0.000000
O O13 0.815599 0.544496 0.029305
O O14 0.500000 0.404767 0.750000
O O15 0.503174 0.461245 0.845046
O O16 0.011989 0.437700 0.830705
O O17 0.500000 0.308226 0.250000
O O18 0.496753 0.297611 0.404582
#
# Coordination Sequence:
#
# PCOD9321930 Si02
#       8
#     8   8   8   8   8   8   8   8
#     4  12  27  43  74 104 139 182 240 303 350 426
#     4  12  26  43  67 108 137 180 243 292 355 426
#     4  12  28  46  70  98 141 191 228 293 363 432
#     4   8  18  43  70 100 137 176 235 292 346 414
#     4  12  21  41  64 103 149 186 221 294 366 430
#     4  12  29  49  70 101 146 189 241 303 374 426
#     4   9  21  37  68  98 138 183 232 278 354 428
#     4  12  26  45  73 101 129 180 246 301 348 422
#
# _framework density 23.637345
#
# number of rings (size 3 to 8) (size 9 to 14) (size 15 to 20)
#    0.750    0.000    5.000    1.500    7.000    3.000 
#    0.000    1.875    0.000    3.000    0.000    0.000 
#    0.000    0.000    0.000    0.000    0.000    0.000 
#
# Total GULP energy -178221.448306 kJ/mol
# GULP energy per Si atom -5569.420260 kJ/mol
# Density = 2.358355 g / cm^3
# Si number density = 23.637345 Si / 1000 Ang^3
#
#
#
# Elastic Constant Matrix: (Units=GPa)
#
#
# Indices 1 2 3 4 5 6 
#
# 1 88.0182 6.9431 20.6137 0.0000 0.0000 0.0000
# 2 6.9431 146.5218 28.3811 0.0000 0.0000 0.0000
# 3 20.6137 28.3811 78.5578 0.0000 0.0000 0.0000
# 4 0.0000 0.0000 0.0000 17.8750 0.0000 0.0000
# 5 0.0000 0.0000 0.0000 0.0000 35.7481 0.0000
# 6 0.0000 0.0000 0.0000 0.0000 0.0000 16.9509
#
#
#
# Elastic Compliance Matrix: (Units=1/GPa)
#
#
# Indices 1 2 3 4 5 6 
#
# 1 0.012105 0.000045 -0.003193 0.000000 0.000000 0.000000
# 2 0.000045 0.007339 -0.002663 0.000000 0.000000 0.000000
# 3 -0.003193 -0.002663 0.014529 0.000000 0.000000 0.000000
# 4 0.000000 0.000000 0.000000 0.055944 0.000000 0.000000
# 5 0.000000 0.000000 0.000000 0.000000 0.027974 0.000000
# 6 0.000000 0.000000 0.000000 0.000000 0.000000 0.058994
#
#
# Mechanical properties :
#
#
# Convention : Reuss Voigt Hill
#
# Bulk Modulus (GPa) = 44.73952 47.21929 45.97940
# Shear Modulus (GPa) = 25.51575 31.25879 28.38727
#
# Velocity S-wave (km/s) = 3.28909 3.64047 3.46923
# Velocity P-wave (km/s) = 5.77864 6.13927 5.96168
#
# Compressibility (1/GPa) = 0.02235161
#
# Stress axis : x y z
#
# Youngs Moduli (GPa) = 82.60727 136.26534 68.82627
#
# Poissons Ratio (x) = -0.00610 0.21974
# Poissons Ratio (y) = -0.00370 0.18329
# Poissons Ratio (z) = 0.26374 0.36288
#
# Static dielectric constant tensor:
#      x y z
#    x 2.024700 0.000000 0.000000 
#    y 0.000000 1.994550 0.000000 
#    z 0.000000 0.000000 1.994590 
# 
# From -- ./inp_files/22998.got.cif
#   From: 2010.05.17/outbox.cif.g08.bks.cpg/sg20_12_cif.got.tgz:22998.got - 2010.06.03 22:52:26.
