data_PCOD9321223
_publ_section_title
;
Structure prediction by ZEFSAII (Michael W. Deem and Ramdas Pophale) SiO2 
 PCOD9321223
Probable space group: C 2 2 21
;
_chemical_formula_sum "Si O2"
_cell_formula_units_Z 24
_cell_length_a 5.266074
_cell_length_b 17.823895
_cell_length_c 9.688044
_cell_angle_alpha 90.000000
_cell_angle_beta 90.000000
_cell_angle_gamma 90.000000
_cell_volume 909.338702
_symmetry_space_group_name_H-M "C 2 2 21"
_symmetry_group_IT_number 20
_symmetry_cell_setting 'orthorhombic'
loop_
_space_group_symop_operation_xyz
x,y,z
-x,-y,1/2+z
x,-y,-z
-x,y,1/2-z
1/2+x,1/2+y,z
1/2-x,1/2-y,1/2+z
1/2+x,1/2-y,-z
1/2-x,1/2+y,1/2-z
loop_
_atom_site_type_symbol
_atom_site_label
_atom_site_fract_x
_atom_site_fract_y
_atom_site_fract_z
Si Si1 0.500000 0.247115 0.250000
Si Si2 0.055562 0.500000 0.500000
Si Si3 0.330127 0.635174 0.385279
Si Si4 0.818389 0.884805 0.144169
O O1 0.586659 0.190096 0.370622
O O2 0.273780 0.309148 0.234643
O O3 0.891633 0.559888 0.586888
O O4 0.514583 0.644839 0.515400
O O5 0.500000 0.644959 0.250000
O O6 0.221234 0.552044 0.401443
O O7 0.000000 0.928915 0.250000
#
# Coordination Sequence:
#
# PCOD9321223 Si02
#       4
#     4   4   8   8
#     4  10  28  50  82 110 162 210 268 326 400 470
#     4  12  28  52  84 120 166 216 266 336 400 488
#     4  12  28  48  84 119 163 210 272 332 403 480
#     4  10  28  50  81 119 157 213 268 331 400 477
#
# _framework density 26.392807999999999
#
# number of rings (size 3 to 8) (size 9 to 14) (size 15 to 20)
#    1.000    0.000    0.000    3.000    9.333   14.667 
#    0.000    0.000    0.000    0.000    0.000    0.000 
#    0.000    0.000    0.000    0.000    0.000    0.000 
#
# Total GULP energy -66959.647887 kJ/mol
# GULP energy per Si atom -5579.970657 kJ/mol
# Density = 2.633274 g / cm^3
# Si number density = 26.392808 Si / 1000 Ang^3
#
#
#
# Elastic Constant Matrix: (Units=GPa)
#
#
# Indices 1 2 3 4 5 6 
#
# 1 115.2178 63.2480 56.5516 0.0000 0.0000 0.0000
# 2 63.2480 207.4991 26.5451 0.0000 0.0000 0.0000
# 3 56.5516 26.5451 140.3698 0.0000 0.0000 0.0000
# 4 0.0000 0.0000 0.0000 56.5092 0.0000 0.0000
# 5 0.0000 0.0000 0.0000 0.0000 25.1790 0.0000
# 6 0.0000 0.0000 0.0000 0.0000 0.0000 -20.8330
#
#
#
# Elastic Compliance Matrix: (Units=1/GPa)
#
#
# Indices 1 2 3 4 5 6 
#
# 1 0.012691 -0.003294 -0.004490 0.000000 0.000000 0.000000
# 2 -0.003294 0.005794 0.000231 0.000000 0.000000 0.000000
# 3 -0.004490 0.000231 0.008889 0.000000 0.000000 0.000000
# 4 0.000000 0.000000 0.000000 0.017696 0.000000 0.000000
# 5 0.000000 0.000000 0.000000 0.000000 0.039716 0.000000
# 6 0.000000 0.000000 0.000000 0.000000 0.000000 -0.048001
#
#
# Mechanical properties :
#
#
# Convention : Reuss Voigt Hill
#
# Bulk Modulus (GPa) = 81.50689 83.97513 82.74101
# Shear Modulus (GPa) = 89.31689 33.28716 61.30202
#
# Velocity S-wave (km/s) = 5.82365 3.55522 4.82465
# Velocity P-wave (km/s) = 8.72749 6.98135 7.90280
#
# Compressibility (1/GPa) = 0.01226890
#
# Stress axis : x y z
#
# Youngs Moduli (GPa) = 78.79419 172.59991 112.49576
#
# Poissons Ratio (x) = 0.56855 0.50512
# Poissons Ratio (y) = 0.25955 -0.02604
# Poissons Ratio (z) = 0.35379 -0.03995
#
# Static dielectric constant tensor:
#      x y z
#    x 2.135140 0.000000 0.000000 
#    y 0.000000 2.019130 0.000000 
#    z 0.000000 0.000000 2.135380 
# 
# From -- ./inp_files/17373.got.cif
#   From: 2010.05.17/outbox.cif.g08.bks.cpg/sg20_9_cif.got.tgz:17373.got - 2010.06.03 22:52:26.
