data_PCOD9321847
_publ_section_title
;
Structure prediction by ZEFSAII (Michael W. Deem and Ramdas Pophale) SiO2 
 PCOD9321847
Probable space group: C 2 2 21
;
_chemical_formula_sum "Si O2"
_cell_formula_units_Z 20
_cell_length_a 17.885651
_cell_length_b 8.699902
_cell_length_c 5.200474
_cell_angle_alpha 90.000000
_cell_angle_beta 90.000000
_cell_angle_gamma 90.000000
_cell_volume 809.211493
_symmetry_space_group_name_H-M "C 2 2 21"
_symmetry_group_IT_number 20
_symmetry_cell_setting 'orthorhombic'
loop_
_space_group_symop_operation_xyz
x,y,z
-x,-y,1/2+z
x,-y,-z
-x,y,1/2-z
1/2+x,1/2+y,z
1/2-x,1/2-y,1/2+z
1/2+x,1/2-y,-z
1/2-x,1/2+y,1/2-z
loop_
_atom_site_type_symbol
_atom_site_label
_atom_site_fract_x
_atom_site_fract_y
_atom_site_fract_z
Si Si1 0.792415 0.102514 0.255106
Si Si2 0.371912 0.828764 0.942187
Si Si3 0.500000 0.607922 0.750000
O O1 0.706881 0.155427 0.292032
O O2 0.811019 0.000000 0.500000
O O3 0.846671 0.245244 0.206145
O O4 0.798145 0.000000 0.000000
O O5 0.430447 0.720196 0.803225
O O6 0.400198 0.000000 0.000000
O O7 0.491179 0.500000 0.500000
#
# Coordination Sequence:
#
# PCOD9321847 Si02
#       3
#     8   8   4
#     4  11  25  46  78 117 152 190 242 308 379 443
#     4  11  26  49  80 113 149 193 252 311 366 440
#     4  12  32  54  74 104 154 208 248 302 376 446
#
# _framework density 24.715416999999999
#
# number of rings (size 3 to 8) (size 9 to 14) (size 15 to 20)
#    0.000    0.800    0.000    6.000    0.000   24.000 
#    0.000    0.000    0.000    0.000    0.000    0.000 
#    0.000    0.000    0.000    0.000    0.000    0.000 
#
# Total GULP energy -56162.406546 kJ/mol
# GULP energy per Si atom -5616.240655 kJ/mol
# Density = 2.465916 g / cm^3
# Si number density = 24.715417 Si / 1000 Ang^3
#
#
#
# Elastic Constant Matrix: (Units=GPa)
#
#
# Indices 1 2 3 4 5 6 
#
# 1 136.3215 96.8723 58.0047 0.0000 0.0000 0.0000
# 2 96.8723 247.1992 118.6985 0.0000 0.0000 0.0000
# 3 58.0047 118.6985 205.4495 0.0000 0.0000 0.0000
# 4 0.0000 0.0000 0.0000 34.0666 0.0000 0.0000
# 5 0.0000 0.0000 0.0000 0.0000 28.1693 0.0000
# 6 0.0000 0.0000 0.0000 0.0000 0.0000 40.7363
#
#
#
# Elastic Compliance Matrix: (Units=1/GPa)
#
#
# Indices 1 2 3 4 5 6 
#
# 1 0.010260 -0.003639 -0.000794 0.000000 0.000000 0.000000
# 2 -0.003639 0.006889 -0.002953 0.000000 0.000000 0.000000
# 3 -0.000794 -0.002953 0.006798 0.000000 0.000000 0.000000
# 4 0.000000 0.000000 0.000000 0.029354 0.000000 0.000000
# 5 0.000000 0.000000 0.000000 0.000000 0.035500 0.000000
# 6 0.000000 0.000000 0.000000 0.000000 0.000000 0.024548
#
#
# Mechanical properties :
#
#
# Convention : Reuss Voigt Hill
#
# Bulk Modulus (GPa) = 109.00076 126.23569 117.61822
# Shear Modulus (GPa) = 38.11591 41.62075 39.86833
#
# Velocity S-wave (km/s) = 3.93134 4.10811 4.02069
# Velocity P-wave (km/s) = 8.05017 8.58421 8.32148
#
# Compressibility (1/GPa) = 0.00917425
#
# Stress axis : x y z
#
# Youngs Moduli (GPa) = 97.46999 145.15152 147.11160
#
# Poissons Ratio (x) = 0.52824 0.11681
# Poissons Ratio (y) = 0.35472 0.43440
# Poissons Ratio (z) = 0.07739 0.42861
#
# Static dielectric constant tensor:
#      x y z
#    x 1.960030 0.000000 0.000000 
#    y 0.000000 1.996570 0.000000 
#    z 0.000000 0.000000 1.945070 
# 
# From -- ./inp_files/252.got.cif
#   From: 2010.05.17/outbox.cif.g08.bks.cpg/sg20_1_cif.got.tgz:252.got - 2010.06.03 22:52:26.
