data_PCOD9321506
_publ_section_title
;
Structure prediction by ZEFSAII (Michael W. Deem and Ramdas Pophale) SiO2 
 PCOD9321506
Probable space group: C 2 2 21
;
_chemical_formula_sum "Si O2"
_cell_formula_units_Z 48
_cell_length_a 16.909048
_cell_length_b 7.916995
_cell_length_c 17.361164
_cell_angle_alpha 90.000000
_cell_angle_beta 90.000000
_cell_angle_gamma 90.000000
_cell_volume 2324.119033
_symmetry_space_group_name_H-M "C 2 2 21"
_symmetry_group_IT_number 20
_symmetry_cell_setting 'orthorhombic'
loop_
_space_group_symop_operation_xyz
x,y,z
-x,-y,1/2+z
x,-y,-z
-x,y,1/2-z
1/2+x,1/2+y,z
1/2-x,1/2-y,1/2+z
1/2+x,1/2-y,-z
1/2-x,1/2+y,1/2-z
loop_
_atom_site_type_symbol
_atom_site_label
_atom_site_fract_x
_atom_site_fract_y
_atom_site_fract_z
Si Si1 0.894547 0.427534 0.835288
Si Si2 0.464260 0.763628 0.083047
Si Si3 0.138154 0.000000 0.500000
Si Si4 0.249994 0.749997 0.405352
Si Si5 0.605462 0.927527 0.164697
Si Si6 0.535741 0.236354 0.083041
Si Si7 0.138160 0.000000 0.000000
O O1 0.906277 0.587387 0.891487
O O2 0.808927 0.354566 0.851633
O O3 0.904534 0.499994 0.749990
O O4 0.962373 0.289489 0.857686
O O5 0.537642 0.789466 0.142304
O O6 0.416703 0.591547 0.064831
O O7 0.499989 0.803444 0.999999
O O8 0.193783 0.863667 0.459059
O O9 0.308913 0.854572 0.351636
O O10 0.306209 0.636318 0.459051
O O11 0.593728 0.087361 0.108488
O O12 0.583302 0.408430 0.064823
#
# Coordination Sequence:
#
# PCOD9321506 Si02
#       7
#     8   8   4   8   8   8   4
#     4  11  25  44  68  98 142 186 220 281 349 413
#     4  11  22  43  72  99 128 177 239 285 330 395
#     4  12  25  42  72 109 130 178 236 293 334 406
#     4  12  26  40  68 106 142 178 222 286 354 408
#     4  11  25  44  68  98 142 186 220 281 349 413
#     4  11  22  43  72  99 128 177 239 285 330 395
#     4  12  25  42  72 109 130 178 236 293 334 406
#
# _framework density 20.652985999999999
#
# number of rings (size 3 to 8) (size 9 to 14) (size 15 to 20)
#    0.000    0.667    3.333    6.500    0.000    2.667 
#    0.000    0.000    7.333    0.000    0.000    0.000 
#    0.000    0.000    0.000    0.000    0.000    0.000 
#
# Total GULP energy -134012.512050 kJ/mol
# GULP energy per Si atom -5583.854669 kJ/mol
# Density = 2.060598 g / cm^3
# Si number density = 20.652986 Si / 1000 Ang^3
#
#
#
# Elastic Constant Matrix: (Units=GPa)
#
#
# Indices 1 2 3 4 5 6 
#
# 1 160.4866 72.2526 58.9650 0.0000 0.0000 0.0000
# 2 72.2526 114.2280 50.9535 0.0000 0.0000 0.0000
# 3 58.9650 50.9535 133.1696 0.0000 0.0000 0.0000
# 4 0.0000 0.0000 0.0000 24.2603 0.0000 0.0000
# 5 0.0000 0.0000 0.0000 0.0000 14.9983 0.0000
# 6 0.0000 0.0000 0.0000 0.0000 0.0000 75.6151
#
#
#
# Elastic Compliance Matrix: (Units=1/GPa)
#
#
# Indices 1 2 3 4 5 6 
#
# 1 0.009233 -0.004843 -0.002235 0.000000 0.000000 0.000000
# 2 -0.004843 0.013096 -0.002867 0.000000 0.000000 0.000000
# 3 -0.002235 -0.002867 0.009596 0.000000 0.000000 0.000000
# 4 0.000000 0.000000 0.000000 0.041220 0.000000 0.000000
# 5 0.000000 0.000000 0.000000 0.000000 0.066674 0.000000
# 6 0.000000 0.000000 0.000000 0.000000 0.000000 0.013225
#
#
# Mechanical properties :
#
#
# Convention : Reuss Voigt Hill
#
# Bulk Modulus (GPa) = 83.08694 85.80291 84.44493
# Shear Modulus (GPa) = 28.25752 38.02228 33.13990
#
# Velocity S-wave (km/s) = 3.70294 4.29535 4.01010
# Velocity P-wave (km/s) = 7.65504 8.13851 7.90047
#
# Compressibility (1/GPa) = 0.01203559
#
# Stress axis : x y z
#
# Youngs Moduli (GPa) = 108.31258 76.35685 104.21370
#
# Poissons Ratio (x) = 0.36979 0.23292
# Poissons Ratio (y) = 0.52455 0.29874
# Poissons Ratio (z) = 0.24208 0.21889
#
# Static dielectric constant tensor:
#      x y z
#    x 1.763810 0.000000 0.000000 
#    y 0.000000 1.811280 0.000000 
#    z 0.000000 0.000000 1.705160 
# 
# From -- ./inp_files/21329.got.cif
#   From: 2010.05.17/outbox.cif.g08.bks.cpg/sg20_11_cif.got.tgz:21329.got - 2010.06.03 22:52:26.
