data_PCOD9321476
_publ_section_title
;
Structure prediction by ZEFSAII (Michael W. Deem and Ramdas Pophale) SiO2 
 PCOD9321476
Probable space group: C 2 2 21
;
_chemical_formula_sum "Si O2"
_cell_formula_units_Z 48
_cell_length_a 8.859826
_cell_length_b 28.472184
_cell_length_c 9.433033
_cell_angle_alpha 90.000000
_cell_angle_beta 90.000000
_cell_angle_gamma 90.000000
_cell_volume 2379.563661
_symmetry_space_group_name_H-M "C 2 2 21"
_symmetry_group_IT_number 20
_symmetry_cell_setting 'orthorhombic'
loop_
_space_group_symop_operation_xyz
x,y,z
-x,-y,1/2+z
x,-y,-z
-x,y,1/2-z
1/2+x,1/2+y,z
1/2-x,1/2-y,1/2+z
1/2+x,1/2-y,-z
1/2-x,1/2+y,1/2-z
loop_
_atom_site_type_symbol
_atom_site_label
_atom_site_fract_x
_atom_site_fract_y
_atom_site_fract_z
Si Si1 0.610689 0.779533 0.640974
Si Si2 0.572987 0.955087 0.401926
Si Si3 0.616516 0.273812 0.645971
Si Si4 0.940439 0.621362 0.398581
Si Si5 0.432820 0.454261 0.404806
Si Si6 0.423008 0.622194 0.102425
O O1 0.500000 0.751705 0.750000
O O2 0.657109 0.754384 0.495551
O O3 0.751059 0.787986 0.745269
O O4 0.518169 0.826814 0.599188
O O5 0.500000 0.962840 0.250000
O O6 0.501148 0.909375 0.473521
O O7 0.752855 0.948787 0.394469
O O8 0.541245 0.000000 0.500000
O O9 0.500000 0.247336 0.750000
O O10 0.542378 0.322327 0.591744
O O11 0.759054 0.619776 0.397603
O O12 0.000000 0.600342 0.250000
O O13 0.465402 0.500000 0.500000
O O14 0.500000 0.461092 0.250000
O O15 0.507436 0.409259 0.479483
O O16 0.500000 0.606128 0.250000
#
# Coordination Sequence:
#
# PCOD9321476 Si02
#       6
#     8   8   8   8   8   8
#     4  11  23  45  65  99 136 177 231 281 348 405
#     4  11  25  44  68 101 134 176 223 275 335 398
#     4  11  24  41  69  99 133 184 224 284 345 410
#     4  11  22  42  67  95 134 174 222 277 332 400
#     4  11  25  44  67  99 136 176 223 275 332 400
#     4  11  23  42  68  97 131 177 224 271 339 398
#
# _framework density 20.171766000000002
#
# number of rings (size 3 to 8) (size 9 to 14) (size 15 to 20)
#    0.000    1.000    3.333    4.000    2.333    6.667 
#    3.000    0.000    0.000    0.000    0.000    0.000 
#    0.000    0.000    0.000    0.000    0.000    0.000 
#
# Total GULP energy -133989.828716 kJ/mol
# GULP energy per Si atom -5582.909530 kJ/mol
# Density = 2.012585 g / cm^3
# Si number density = 20.171766 Si / 1000 Ang^3
#
#
#
# Elastic Constant Matrix: (Units=GPa)
#
#
# Indices 1 2 3 4 5 6 
#
# 1 105.7025 56.3386 78.8576 0.0000 0.0000 0.0000
# 2 56.3386 82.7186 79.9406 0.0000 0.0000 0.0000
# 3 78.8576 79.9406 192.2269 0.0000 0.0000 0.0000
# 4 0.0000 0.0000 0.0000 29.6517 0.0000 0.0000
# 5 0.0000 0.0000 0.0000 0.0000 41.5313 0.0000
# 6 0.0000 0.0000 0.0000 0.0000 0.0000 41.0872
#
#
#
# Elastic Compliance Matrix: (Units=1/GPa)
#
#
# Indices 1 2 3 4 5 6 
#
# 1 0.016091 -0.007657 -0.003416 0.000000 0.000000 0.000000
# 2 -0.007657 0.023857 -0.006780 0.000000 0.000000 0.000000
# 3 -0.003416 -0.006780 0.009423 0.000000 0.000000 0.000000
# 4 0.000000 0.000000 0.000000 0.033725 0.000000 0.000000
# 5 0.000000 0.000000 0.000000 0.000000 0.024078 0.000000
# 6 0.000000 0.000000 0.000000 0.000000 0.000000 0.024338
#
#
# Mechanical properties :
#
#
# Convention : Reuss Voigt Hill
#
# Bulk Modulus (GPa) = 73.18967 90.10240 81.64603
# Shear Modulus (GPa) = 29.10800 33.48813 31.29807
#
# Velocity S-wave (km/s) = 3.80281 4.07891 3.94328
# Velocity P-wave (km/s) = 7.45948 8.18217 7.82917
#
# Compressibility (1/GPa) = 0.01366313
#
# Stress axis : x y z
#
# Youngs Moduli (GPa) = 62.14794 41.91681 106.12063
#
# Poissons Ratio (x) = 0.32098 0.36255
# Poissons Ratio (y) = 0.47589 0.71949
# Poissons Ratio (z) = 0.21232 0.28419
#
# Static dielectric constant tensor:
#      x y z
#    x 1.765660 0.000000 0.000000 
#    y 0.000000 1.711960 0.000000 
#    z 0.000000 0.000000 1.678400 
# 
# From -- ./inp_files/6505.got.cif
#   From: 2010.05.17/outbox.cif.g08.bks.cpg/sg20_4_cif.got.tgz:6505.got - 2010.06.03 22:52:26.
