data_PCOD9321575
_publ_section_title
;
Structure prediction by ZEFSAII (Michael W. Deem and Ramdas Pophale) SiO2 
 PCOD9321575
Probable space group: C 2 2 21
;
_chemical_formula_sum "Si O2"
_cell_formula_units_Z 40
_cell_length_a 17.364508
_cell_length_b 5.039843
_cell_length_c 21.700975
_cell_angle_alpha 90.000000
_cell_angle_beta 90.000000
_cell_angle_gamma 90.000000
_cell_volume 1899.147678
_symmetry_space_group_name_H-M "C 2 2 21"
_symmetry_group_IT_number 20
_symmetry_cell_setting 'orthorhombic'
loop_
_space_group_symop_operation_xyz
x,y,z
-x,-y,1/2+z
x,-y,-z
-x,y,1/2-z
1/2+x,1/2+y,z
1/2-x,1/2-y,1/2+z
1/2+x,1/2-y,-z
1/2-x,1/2+y,1/2-z
loop_
_atom_site_type_symbol
_atom_site_label
_atom_site_fract_x
_atom_site_fract_y
_atom_site_fract_z
Si Si1 0.591074 0.633722 0.254782
Si Si2 0.045083 0.260776 0.543066
Si Si3 0.863010 0.672007 0.439468
Si Si4 0.859408 0.645081 0.166913
Si Si5 0.815687 0.175953 0.369898
O O1 0.500000 0.592172 0.250000
O O2 0.631660 0.387868 0.287000
O O3 0.625856 0.645104 0.186604
O O4 0.607449 0.889230 0.297634
O O5 0.072241 0.500000 0.500000
O O6 0.094289 0.271949 0.605258
O O7 0.955915 0.313282 0.560898
O O8 0.049463 0.000000 0.500000
O O9 0.842168 0.500000 0.500000
O O10 0.825951 0.482930 0.388059
O O11 0.836871 0.972040 0.425228
O O12 0.770452 0.608973 0.150184
#
# Coordination Sequence:
#
# PCOD9321575 Si02
#       5
#     8   8   8   8   8
#     4  12  24  43  67  93 127 171 217 263 319 388
#     4  11  23  42  64  90 124 166 212 260 311 378
#     4  11  23  42  65  92 125 168 214 258 313 384
#     4  12  25  42  64  96 130 165 212 268 325 380
#     4  12  24  41  65  95 130 166 209 267 325 382
#
# _framework density 21.062079000000001
#
# number of rings (size 3 to 8) (size 9 to 14) (size 15 to 20)
#    0.000    0.400    0.000   10.800    0.000    2.400 
#    0.000    0.000    0.000    0.000    0.000    0.000 
#    0.000    0.000    0.000    0.000    0.000    0.000 
#
# Total GULP energy -111841.173834 kJ/mol
# GULP energy per Si atom -5592.058692 kJ/mol
# Density = 2.101414 g / cm^3
# Si number density = 21.062079 Si / 1000 Ang^3
#
#
#
# Elastic Constant Matrix: (Units=GPa)
#
#
# Indices 1 2 3 4 5 6 
#
# 1 98.7789 -32.0091 13.2319 0.0000 0.0000 0.0000
# 2 -32.0091 90.6761 2.0094 0.0000 0.0000 0.0000
# 3 13.2319 2.0094 58.9445 0.0000 0.0000 0.0000
# 4 0.0000 0.0000 0.0000 56.6507 0.0000 0.0000
# 5 0.0000 0.0000 0.0000 0.0000 45.9661 0.0000
# 6 0.0000 0.0000 0.0000 0.0000 0.0000 -10.0196
#
#
#
# Elastic Compliance Matrix: (Units=1/GPa)
#
#
# Indices 1 2 3 4 5 6 
#
# 1 0.011879 0.004256 -0.002812 0.000000 0.000000 0.000000
# 2 0.004256 0.012561 -0.001384 0.000000 0.000000 0.000000
# 3 -0.002812 -0.001384 0.017643 0.000000 0.000000 0.000000
# 4 0.000000 0.000000 0.000000 0.017652 0.000000 0.000000
# 5 0.000000 0.000000 0.000000 0.000000 0.021755 0.000000
# 6 0.000000 0.000000 0.000000 0.000000 0.000000 -0.099804
#
#
# Mechanical properties :
#
#
# Convention : Reuss Voigt Hill
#
# Bulk Modulus (GPa) = 23.69389 23.87377 23.78383
# Shear Modulus (GPa) = -1145.26682 36.19725 -554.53478
#
# Velocity S-wave (km/s) = -23.34391 4.15010 -16.24369
# Velocity P-wave (km/s) = 26.74528 5.85866 18.45246
#
# Compressibility (1/GPa) = 0.04220497
#
# Stress axis : x y z
#
# Youngs Moduli (GPa) = 84.17974 79.60999 56.67818
#
# Poissons Ratio (x) = -0.33880 0.15937
# Poissons Ratio (y) = -0.35825 0.07842
# Poissons Ratio (z) = 0.23669 0.11014
#
# Static dielectric constant tensor:
#      x y z
#    x 1.693510 0.000000 0.000000 
#    y 0.000000 1.725420 0.000000 
#    z 0.000000 0.000000 1.908610 
# 
# From -- ./inp_files/25090.got.cif
#   From: 2010.05.17/outbox.cif.g08.bks.cpg/sg20_13_cif.got.tgz:25090.got - 2010.06.03 22:52:26.
