data_PCOD9321651
_publ_section_title
;
Structure prediction by ZEFSAII (Michael W. Deem and Ramdas Pophale) SiO2 
 PCOD9321651
Probable space group: C 2 2 21
;
_chemical_formula_sum "Si O2"
_cell_formula_units_Z 40
_cell_length_a 11.666238
_cell_length_b 7.531050
_cell_length_c 19.565427
_cell_angle_alpha 90.000000
_cell_angle_beta 90.000000
_cell_angle_gamma 90.000000
_cell_volume 1718.999275
_symmetry_space_group_name_H-M "C 2 2 21"
_symmetry_group_IT_number 20
_symmetry_cell_setting 'orthorhombic'
loop_
_space_group_symop_operation_xyz
x,y,z
-x,-y,1/2+z
x,-y,-z
-x,y,1/2-z
1/2+x,1/2+y,z
1/2-x,1/2-y,1/2+z
1/2+x,1/2-y,-z
1/2-x,1/2+y,1/2-z
loop_
_atom_site_type_symbol
_atom_site_label
_atom_site_fract_x
_atom_site_fract_y
_atom_site_fract_z
Si Si1 0.256711 0.289390 0.006139
Si Si2 0.445593 0.686118 0.675582
Si Si3 0.500400 0.695810 0.529776
Si Si4 0.729934 0.633725 0.156565
Si Si5 0.125259 0.546113 0.764064
O O1 0.388399 0.220764 0.990047
O O2 0.235563 0.205245 0.080347
O O3 0.272422 0.500000 0.000000
O O4 0.131639 0.263418 0.971275
O O5 0.500000 0.658001 0.750000
O O6 0.529618 0.694672 0.610558
O O7 0.367588 0.516475 0.660717
O O8 0.383387 0.877208 0.684975
O O9 0.488914 0.500000 0.500000
O O10 0.834320 0.531251 0.191778
O O11 0.703267 0.801776 0.204899
O O12 0.000000 0.622487 0.750000
#
# Coordination Sequence:
#
# PCOD9321651 Si02
#       5
#     8   8   8   8   8
#     4  11  25  45  71 103 143 188 249 300 366 442
#     4  11  23  45  75 102 146 190 243 309 366 441
#     4  11  24  47  70 102 143 191 237 303 370 435
#     4  12  23  44  71 102 142 193 238 300 373 438
#     4  11  24  42  65 106 141 179 237 297 364 437
#
# _framework density 23.269352999999999
#
# number of rings (size 3 to 8) (size 9 to 14) (size 15 to 20)
#    0.000    0.800    4.000    4.200    0.000    0.800 
#    3.600    0.000    0.000    0.000    0.000    0.000 
#    0.000    0.000    0.000    0.000    0.000    0.000 
#
# Total GULP energy -111514.211810 kJ/mol
# GULP energy per Si atom -5575.710590 kJ/mol
# Density = 2.321639 g / cm^3
# Si number density = 23.269353 Si / 1000 Ang^3
#
#
#
# Elastic Constant Matrix: (Units=GPa)
#
#
# Indices 1 2 3 4 5 6 
#
# 1 132.4440 14.2509 27.2790 0.0000 0.0000 0.0000
# 2 14.2509 51.3897 -26.2054 0.0000 0.0000 0.0000
# 3 27.2790 -26.2054 61.6221 0.0000 0.0000 0.0000
# 4 0.0000 0.0000 0.0000 21.4738 0.0000 0.0000
# 5 0.0000 0.0000 0.0000 0.0000 4.6013 0.0000
# 6 0.0000 0.0000 0.0000 0.0000 0.0000 30.3767
#
#
#
# Elastic Compliance Matrix: (Units=1/GPa)
#
#
# Indices 1 2 3 4 5 6 
#
# 1 0.009637 -0.006191 -0.006899 0.000000 0.000000 0.000000
# 2 -0.006191 0.028824 0.014998 0.000000 0.000000 0.000000
# 3 -0.006899 0.014998 0.025660 0.000000 0.000000 0.000000
# 4 0.000000 0.000000 0.000000 0.046568 0.000000 0.000000
# 5 0.000000 0.000000 0.000000 0.000000 0.217331 0.000000
# 6 0.000000 0.000000 0.000000 0.000000 0.000000 0.032920
#
#
# Mechanical properties :
#
#
# Convention : Reuss Voigt Hill
#
# Bulk Modulus (GPa) = 14.71919 30.67832 22.69875
# Shear Modulus (GPa) = 13.16588 26.63244 19.89916
#
# Velocity S-wave (km/s) = 2.38124 3.38676 2.92749
# Velocity P-wave (km/s) = 3.72823 5.33911 4.60466
#
# Compressibility (1/GPa) = 0.06793854
#
# Stress axis : x y z
#
# Youngs Moduli (GPa) = 103.76248 34.69346 38.97117
#
# Poissons Ratio (x) = 0.21477 0.26886
# Poissons Ratio (y) = 0.64234 -0.58449
# Poissons Ratio (z) = 0.71584 -0.52033
#
# Static dielectric constant tensor:
#      x y z
#    x 2.079510 0.000000 0.000000 
#    y 0.000000 1.979010 0.000000 
#    z 0.000000 0.000000 1.927470 
# 
# From -- ./inp_files/27098.got.cif
#   From: 2010.05.17/outbox.cif.g08.bks.cpg/sg20_14_cif.got.tgz:27098.got - 2010.06.03 22:52:26.
