data_PCOD9321230
_publ_section_title
;
Structure prediction by ZEFSAII (Michael W. Deem and Ramdas Pophale) SiO2 
 PCOD9321230
Probable space group: C 2 2 21
;
_chemical_formula_sum "Si O2"
_cell_formula_units_Z 48
_cell_length_a 22.100113
_cell_length_b 14.611797
_cell_length_c 7.792546
_cell_angle_alpha 90.000000
_cell_angle_beta 90.000000
_cell_angle_gamma 90.000000
_cell_volume 2516.387382
_symmetry_space_group_name_H-M "C 2 2 21"
_symmetry_group_IT_number 20
_symmetry_cell_setting 'orthorhombic'
loop_
_space_group_symop_operation_xyz
x,y,z
-x,-y,1/2+z
x,-y,-z
-x,y,1/2-z
1/2+x,1/2+y,z
1/2-x,1/2-y,1/2+z
1/2+x,1/2-y,-z
1/2-x,1/2+y,1/2-z
loop_
_atom_site_type_symbol
_atom_site_label
_atom_site_fract_x
_atom_site_fract_y
_atom_site_fract_z
Si Si1 0.770737 0.449107 0.837344
Si Si2 0.692715 0.298413 0.663046
Si Si3 0.772422 0.369233 0.376929
Si Si4 0.911602 0.595385 0.087009
Si Si5 0.935438 0.735558 0.783815
Si Si6 0.100218 0.391623 0.969666
O O1 0.730126 0.364522 0.786332
O O2 0.770634 0.527190 0.690258
O O3 0.838981 0.419803 0.887985
O O4 0.743391 0.500000 0.000000
O O5 0.713924 0.330310 0.474736
O O6 0.711837 0.195376 0.715122
O O7 0.621780 0.302287 0.703069
O O8 0.829050 0.362547 0.509743
O O9 0.928594 0.620469 0.282286
O O10 0.934043 0.500000 0.000000
O O11 0.928989 0.674405 0.955272
O O12 0.929118 0.664607 0.624541
O O13 0.000000 0.780783 0.750000
O O14 0.097155 0.500000 0.000000
#
# Coordination Sequence:
#
# PCOD9321230 Si02
#       6
#     8   8   8   8   8   8
#     4  11  20  35  61  93 122 149 186 246 319 374
#     4  11  21  36  58  86 119 155 192 245 303 360
#     4  11  20  34  59  93 123 151 192 247 314 373
#     4  11  19  35  59  87 116 151 191 244 310 370
#     4  11  26  40  53  79 119 167 210 245 282 348
#     4  11  18  36  57  84 118 149 190 250 305 366
#
# _framework density 19.074964000000001
#
# number of rings (size 3 to 8) (size 9 to 14) (size 15 to 20)
#    0.000    1.000    5.000    5.500    0.000    1.333 
#    0.000    0.000    0.000    2.000    0.000    0.000 
#    0.000    0.000    0.000    0.000    0.000    0.000 
#
# Total GULP energy -133970.181870 kJ/mol
# GULP energy per Si atom -5582.090911 kJ/mol
# Density = 1.903155 g / cm^3
# Si number density = 19.074964 Si / 1000 Ang^3
#
#
#
# Elastic Constant Matrix: (Units=GPa)
#
#
# Indices 1 2 3 4 5 6 
#
# 1 110.5534 21.8440 17.7253 0.0000 0.0000 0.0000
# 2 21.8440 44.6956 6.9935 0.0000 0.0000 0.0000
# 3 17.7253 6.9935 130.3476 0.0000 0.0000 0.0000
# 4 0.0000 0.0000 0.0000 32.4441 0.0000 0.0000
# 5 0.0000 0.0000 0.0000 0.0000 -4.0779 0.0000
# 6 0.0000 0.0000 0.0000 0.0000 0.0000 13.2188
#
#
#
# Elastic Compliance Matrix: (Units=1/GPa)
#
#
# Indices 1 2 3 4 5 6 
#
# 1 0.010174 -0.004796 -0.001126 0.000000 0.000000 0.000000
# 2 -0.004796 0.024824 -0.000680 0.000000 0.000000 0.000000
# 3 -0.001126 -0.000680 0.007861 0.000000 0.000000 0.000000
# 4 0.000000 0.000000 0.000000 0.030822 0.000000 0.000000
# 5 0.000000 0.000000 0.000000 0.000000 -0.245225 0.000000
# 6 0.000000 0.000000 0.000000 0.000000 0.000000 0.075650
#
#
# Mechanical properties :
#
#
# Convention : Reuss Voigt Hill
#
# Bulk Modulus (GPa) = 33.72080 42.08027 37.90054
# Shear Modulus (GPa) = -68.67630 24.25259 -22.21186
#
# Velocity S-wave (km/s) = -6.00679 3.56959 -3.41611
# Velocity P-wave (km/s) = 5.51292 6.25281 2.08631
#
# Compressibility (1/GPa) = 0.02965528
#
# Stress axis : x y z
#
# Youngs Moduli (GPa) = 98.29392 40.28392 127.20379
#
# Poissons Ratio (x) = 0.19320 0.14325
# Poissons Ratio (y) = 0.47141 0.08646
# Poissons Ratio (z) = 0.11069 0.02738
#
# Static dielectric constant tensor:
#      x y z
#    x 1.716680 0.000000 0.000000 
#    y 0.000000 1.629280 0.000000 
#    z 0.000000 0.000000 1.754190 
# 
# From -- ./inp_files/10053.got.cif
#   From: 2010.05.17/outbox.cif.g08.bks.cpg/sg20_6_cif.got.tgz:10053.got - 2010.06.03 22:52:26.
