data_PCOD9321524
_publ_section_title
;
Structure prediction by ZEFSAII (Michael W. Deem and Ramdas Pophale) SiO2 
 PCOD9321524
Probable space group: C 2 2 21
;
_chemical_formula_sum "Si O2"
_cell_formula_units_Z 48
_cell_length_a 18.280029
_cell_length_b 9.194619
_cell_length_c 13.964587
_cell_angle_alpha 90.000000
_cell_angle_beta 90.000000
_cell_angle_gamma 90.000000
_cell_volume 2347.138485
_symmetry_space_group_name_H-M "C 2 2 21"
_symmetry_group_IT_number 20
_symmetry_cell_setting 'orthorhombic'
loop_
_space_group_symop_operation_xyz
x,y,z
-x,-y,1/2+z
x,-y,-z
-x,y,1/2-z
1/2+x,1/2+y,z
1/2-x,1/2-y,1/2+z
1/2+x,1/2-y,-z
1/2-x,1/2+y,1/2-z
loop_
_atom_site_type_symbol
_atom_site_label
_atom_site_fract_x
_atom_site_fract_y
_atom_site_fract_z
Si Si1 0.583497 0.219664 0.441149
Si Si2 0.345183 0.917046 0.120816
Si Si3 0.422049 0.771557 0.275049
Si Si4 0.419201 0.172987 0.503225
Si Si5 0.582035 0.559481 0.723267
Si Si6 0.325440 0.605049 0.586087
O O1 0.619152 0.198615 0.546272
O O2 0.496079 0.222065 0.456339
O O3 0.603807 0.355911 0.373634
O O4 0.612588 0.069871 0.392726
O O5 0.358003 0.863353 0.227849
O O6 0.260006 0.925842 0.097768
O O7 0.500000 0.843316 0.250000
O O8 0.416799 0.767485 0.388519
O O9 0.422084 0.615411 0.222615
O O10 0.349184 0.236127 0.448883
O O11 0.419709 0.000000 0.500000
O O12 0.500000 0.611256 0.750000
O O13 0.635489 0.586742 0.812278
O O14 0.353271 0.500000 0.500000
#
# Coordination Sequence:
#
# PCOD9321524 Si02
#       6
#     8   8   8   8   8   8
#     4  11  22  45  71  99 134 190 236 282 361 432
#     4  11  25  45  71  99 143 186 229 303 366 427
#     4  11  23  42  68 104 134 178 239 294 352 426
#     4  12  24  44  73 103 138 186 243 296 354 437
#     4  11  25  40  69 102 134 186 241 290 353 431
#     4  12  25  47  68  99 149 185 229 303 370 422
#
# _framework density 20.450433
#
# number of rings (size 3 to 8) (size 9 to 14) (size 15 to 20)
#    0.000    0.667    8.333    0.000    2.333    4.000 
#    3.000    0.000    0.000    0.000    0.000    0.000 
#    0.000    0.000    0.000    0.000    0.000    0.000 
#
# Total GULP energy -133952.813817 kJ/mol
# GULP energy per Si atom -5581.367242 kJ/mol
# Density = 2.040389 g / cm^3
# Si number density = 20.450433 Si / 1000 Ang^3
#
#
#
# Elastic Constant Matrix: (Units=GPa)
#
#
# Indices 1 2 3 4 5 6 
#
# 1 72.5482 23.2870 45.7431 0.0000 0.0000 0.0000
# 2 23.2870 68.9881 52.2572 0.0000 0.0000 0.0000
# 3 45.7431 52.2572 86.2361 0.0000 0.0000 0.0000
# 4 0.0000 0.0000 0.0000 31.9785 0.0000 0.0000
# 5 0.0000 0.0000 0.0000 0.0000 35.3551 0.0000
# 6 0.0000 0.0000 0.0000 0.0000 0.0000 14.4425
#
#
#
# Elastic Compliance Matrix: (Units=1/GPa)
#
#
# Indices 1 2 3 4 5 6 
#
# 1 0.020939 0.002487 -0.012614 0.000000 0.000000 0.000000
# 2 0.002487 0.027090 -0.017735 0.000000 0.000000 0.000000
# 3 -0.012614 -0.017735 0.029034 0.000000 0.000000 0.000000
# 4 0.000000 0.000000 0.000000 0.031271 0.000000 0.000000
# 5 0.000000 0.000000 0.000000 0.000000 0.028284 0.000000
# 6 0.000000 0.000000 0.000000 0.000000 0.000000 0.069240
#
#
# Mechanical properties :
#
#
# Convention : Reuss Voigt Hill
#
# Bulk Modulus (GPa) = 46.86309 52.26078 49.56194
# Shear Modulus (GPa) = 18.60848 23.45423 21.03136
#
# Velocity S-wave (km/s) = 3.01978 3.39024 3.21036
# Velocity P-wave (km/s) = 5.92655 6.39807 6.16682
#
# Compressibility (1/GPa) = 0.02133875
#
# Stress axis : x y z
#
# Youngs Moduli (GPa) = 47.75775 36.91454 34.44254
#
# Poissons Ratio (x) = -0.09180 0.43445
# Poissons Ratio (y) = -0.11876 0.61083
# Poissons Ratio (z) = 0.60241 0.65467
#
# Static dielectric constant tensor:
#      x y z
#    x 1.707520 0.000000 0.000000 
#    y 0.000000 1.763800 0.000000 
#    z 0.000000 0.000000 1.748250 
# 
# From -- ./inp_files/21299.got.cif
#   From: 2010.05.17/outbox.cif.g08.bks.cpg/sg20_11_cif.got.tgz:21299.got - 2010.06.03 22:52:26.
