data_PCOD9321823
_publ_section_title
;
Structure prediction by ZEFSAII (Michael W. Deem and Ramdas Pophale) SiO2 
 PCOD9321823
Probable space group: C 2 2 21
;
_chemical_formula_sum "Si O2"
_cell_formula_units_Z 40
_cell_length_a 9.599472
_cell_length_b 9.885829
_cell_length_c 19.493993
_cell_angle_alpha 90.000000
_cell_angle_beta 90.000000
_cell_angle_gamma 90.000000
_cell_volume 1849.955348
_symmetry_space_group_name_H-M "C 2 2 21"
_symmetry_group_IT_number 20
_symmetry_cell_setting 'orthorhombic'
loop_
_space_group_symop_operation_xyz
x,y,z
-x,-y,1/2+z
x,-y,-z
-x,y,1/2-z
1/2+x,1/2+y,z
1/2-x,1/2-y,1/2+z
1/2+x,1/2-y,-z
1/2-x,1/2+y,1/2-z
loop_
_atom_site_type_symbol
_atom_site_label
_atom_site_fract_x
_atom_site_fract_y
_atom_site_fract_z
Si Si1 0.137262 0.423100 0.202214
Si Si2 0.033006 0.419683 0.433310
Si Si3 0.658593 0.773063 0.774783
Si Si4 0.012313 0.120329 0.464858
Si Si5 0.835478 0.924498 0.403538
O O1 0.244257 0.306634 0.221996
O O2 0.202085 0.571438 0.215148
O O3 0.000000 0.408325 0.250000
O O4 0.081986 0.418710 0.125008
O O5 0.987649 0.500000 0.500000
O O6 0.072601 0.264846 0.450709
O O7 0.179207 0.480923 0.407513
O O8 0.500000 0.776456 0.750000
O O9 0.659989 0.686536 0.844861
O O10 0.890444 0.135426 0.523284
O O11 0.102600 0.000000 0.500000
O O12 0.942108 0.050985 0.398358
#
# Coordination Sequence:
#
# PCOD9321823 Si02
#       5
#     8   8   8   8   8
#     4  11  26  43  70 100 134 178 235 279 344 413
#     4  12  21  41  74  95 133 183 222 282 347 408
#     4  11  25  44  66  95 136 179 224 285 336 413
#     4   8  21  39  63  96 128 168 209 277 327 397
#     4   9  20  43  64  93 134 167 220 278 334 388
#
# _framework density 21.622143000000001
#
# number of rings (size 3 to 8) (size 9 to 14) (size 15 to 20)
#    1.200    0.400    4.000    1.200    2.800    2.400 
#    3.600    1.000    0.000    0.000    0.000    0.000 
#    0.000    0.000    0.000    0.000    0.000    0.000 
#
# Total GULP energy -111555.349684 kJ/mol
# GULP energy per Si atom -5577.767484 kJ/mol
# Density = 2.157293 g / cm^3
# Si number density = 21.622143 Si / 1000 Ang^3
#
#
#
# Elastic Constant Matrix: (Units=GPa)
#
#
# Indices 1 2 3 4 5 6 
#
# 1 33.4923 7.4246 4.6804 0.0000 0.0000 0.0000
# 2 7.4246 106.3205 18.1453 0.0000 0.0000 0.0000
# 3 4.6804 18.1453 61.1906 0.0000 0.0000 0.0000
# 4 0.0000 0.0000 0.0000 23.0402 0.0000 0.0000
# 5 0.0000 0.0000 0.0000 0.0000 4.9098 0.0000
# 6 0.0000 0.0000 0.0000 0.0000 0.0000 13.0218
#
#
#
# Elastic Compliance Matrix: (Units=1/GPa)
#
#
# Indices 1 2 3 4 5 6 
#
# 1 0.030513 -0.001825 -0.001793 0.000000 0.000000 0.000000
# 2 -0.001825 0.010016 -0.002831 0.000000 0.000000 0.000000
# 3 -0.001793 -0.002831 0.017319 0.000000 0.000000 0.000000
# 4 0.000000 0.000000 0.000000 0.043402 0.000000 0.000000
# 5 0.000000 0.000000 0.000000 0.000000 0.203675 0.000000
# 6 0.000000 0.000000 0.000000 0.000000 0.000000 0.076794
#
#
# Mechanical properties :
#
#
# Convention : Reuss Voigt Hill
#
# Bulk Modulus (GPa) = 22.24629 29.05600 25.65115
# Shear Modulus (GPa) = 12.20707 19.57790 15.89248
#
# Velocity S-wave (km/s) = 2.37863 3.01234 2.71405
# Velocity P-wave (km/s) = 4.22550 5.05630 4.65946
#
# Compressibility (1/GPa) = 0.04495131
#
# Stress axis : x y z
#
# Youngs Moduli (GPa) = 32.77329 99.83993 57.74052
#
# Poissons Ratio (x) = 0.18219 0.10352
# Poissons Ratio (y) = 0.05980 0.16344
# Poissons Ratio (z) = 0.05876 0.28260
#
# Static dielectric constant tensor:
#      x y z
#    x 1.763090 0.000000 0.000000 
#    y 0.000000 1.813650 0.000000 
#    z 0.000000 0.000000 1.810640 
# 
# From -- ./inp_files/28607.got.cif
#   From: 2010.05.17/outbox.cif.g08.bks.cpg/sg20_15_cif.got.tgz:28607.got - 2010.06.03 22:52:26.
