data_PCOD9321379
_publ_section_title
;
Structure prediction by ZEFSAII (Michael W. Deem and Ramdas Pophale) SiO2 
 PCOD9321379
Probable space group: C 2 2 21
;
_chemical_formula_sum "Si O2"
_cell_formula_units_Z 56
_cell_length_a 13.969451
_cell_length_b 11.372605
_cell_length_c 13.475376
_cell_angle_alpha 90.000000
_cell_angle_beta 90.000000
_cell_angle_gamma 90.000000
_cell_volume 2140.820160
_symmetry_space_group_name_H-M "C 2 2 21"
_symmetry_group_IT_number 20
_symmetry_cell_setting 'orthorhombic'
loop_
_space_group_symop_operation_xyz
x,y,z
-x,-y,1/2+z
x,-y,-z
-x,y,1/2-z
1/2+x,1/2+y,z
1/2-x,1/2-y,1/2+z
1/2+x,1/2-y,-z
1/2-x,1/2+y,1/2-z
loop_
_atom_site_type_symbol
_atom_site_label
_atom_site_fract_x
_atom_site_fract_y
_atom_site_fract_z
Si Si1 0.995289 0.637848 0.988049
Si Si2 0.491298 0.496891 0.886434
Si Si3 0.580720 0.249864 0.688366
Si Si4 0.785163 0.943281 0.396933
Si Si5 0.289992 0.185273 0.484799
Si Si6 0.117886 0.782802 0.357782
Si Si7 0.231255 0.614768 0.225756
O O1 0.913786 0.670087 0.908060
O O2 0.994840 0.500000 0.000000
O O3 0.963628 0.713111 0.082464
O O4 0.105382 0.673235 0.966521
O O5 0.471783 0.367279 0.849640
O O6 0.603264 0.521352 0.887145
O O7 0.427195 0.592173 0.829888
O O8 0.457459 0.500000 0.000000
O O9 0.500000 0.183506 0.750000
O O10 0.674427 0.302111 0.738034
O O11 0.787345 0.805864 0.421340
O O12 0.747702 0.000000 0.500000
O O13 0.737847 0.001039 0.298332
O O14 0.207564 0.192737 0.567773
O O15 0.276733 0.091964 0.393085
O O16 0.148630 0.697971 0.269113
#
# Coordination Sequence:
#
# PCOD9321379 Si02
#       7
#     8   8   8   8   8   8   8
#     4  12  28  54  79 107 161 214 254 331 411 482
#     4  11  21  43  79 104 148 193 262 316 387 449
#     4  12  24  48  76 117 148 204 268 331 392 474
#     4  11  22  46  78 109 153 210 258 328 392 473
#     4  12  26  51  75 114 161 203 273 325 404 476
#     4  12  26  48  78 114 153 209 257 328 396 485
#     4  12  27  42  75 116 154 198 265 323 402 469
#
# _framework density 26.158199
#
# number of rings (size 3 to 8) (size 9 to 14) (size 15 to 20)
#    0.000    0.286    7.143    1.714    4.000    2.286 
#    5.143    0.000    0.000    0.000    0.000    0.000 
#    0.000    0.000    0.000    0.000    0.000    0.000 
#
# Total GULP energy -156896.880201 kJ/mol
# GULP energy per Si atom -5603.460007 kJ/mol
# Density = 2.609866 g / cm^3
# Si number density = 26.158199 Si / 1000 Ang^3
#
#
#
# Elastic Constant Matrix: (Units=GPa)
#
#
# Indices 1 2 3 4 5 6 
#
# 1 100.5798 8.1290 -2.3024 0.0000 0.0000 0.0000
# 2 8.1290 106.9082 0.6382 0.0000 0.0000 0.0000
# 3 -2.3024 0.6382 100.4492 0.0000 0.0000 0.0000
# 4 0.0000 0.0000 0.0000 25.0421 0.0000 0.0000
# 5 0.0000 0.0000 0.0000 0.0000 47.1229 0.0000
# 6 0.0000 0.0000 0.0000 0.0000 0.0000 34.1470
#
#
#
# Elastic Compliance Matrix: (Units=1/GPa)
#
#
# Indices 1 2 3 4 5 6 
#
# 1 0.010009 -0.000762 0.000234 0.000000 0.000000 0.000000
# 2 -0.000762 0.009412 -0.000077 0.000000 0.000000 0.000000
# 3 0.000234 -0.000077 0.009961 0.000000 0.000000 0.000000
# 4 0.000000 0.000000 0.000000 0.039933 0.000000 0.000000
# 5 0.000000 0.000000 0.000000 0.000000 0.021221 0.000000
# 6 0.000000 0.000000 0.000000 0.000000 0.000000 0.029285
#
#
# Mechanical properties :
#
#
# Convention : Reuss Voigt Hill
#
# Bulk Modulus (GPa) = 35.49652 35.65185 35.57418
# Shear Modulus (GPa) = 38.33666 41.36053 39.84860
#
# Velocity S-wave (km/s) = 3.83243 3.98071 3.90727
# Velocity P-wave (km/s) = 5.76045 5.89804 5.82965
#
# Compressibility (1/GPa) = 0.02817178
#
# Stress axis : x y z
#
# Youngs Moduli (GPa) = 99.90661 106.24438 100.39007
#
# Poissons Ratio (x) = 0.08101 -0.02352
# Poissons Ratio (y) = 0.07618 0.00776
# Poissons Ratio (z) = -0.02341 0.00821
#
# Static dielectric constant tensor:
#      x y z
#    x 2.047260 0.000000 0.000000 
#    y 0.000000 2.041360 0.000000 
#    z 0.000000 0.000000 2.175440 
# 
# From -- ./inp_files/20733.got.cif
#   From: 2010.05.17/outbox.cif.g08.bks.cpg/sg20_11_cif.got.tgz:20733.got - 2010.06.03 22:52:26.
