data_PCOD9321713
_publ_section_title
;
Structure prediction by ZEFSAII (Michael W. Deem and Ramdas Pophale) SiO2 
 PCOD9321713
Probable space group: C 2 2 21
;
_chemical_formula_sum "Si O2"
_cell_formula_units_Z 60
_cell_length_a 16.819171
_cell_length_b 9.042355
_cell_length_c 18.639877
_cell_angle_alpha 90.000000
_cell_angle_beta 90.000000
_cell_angle_gamma 90.000000
_cell_volume 2834.844109
_symmetry_space_group_name_H-M "C 2 2 21"
_symmetry_group_IT_number 20
_symmetry_cell_setting 'orthorhombic'
loop_
_space_group_symop_operation_xyz
x,y,z
-x,-y,1/2+z
x,-y,-z
-x,y,1/2-z
1/2+x,1/2+y,z
1/2-x,1/2-y,1/2+z
1/2+x,1/2-y,-z
1/2-x,1/2+y,1/2-z
loop_
_atom_site_type_symbol
_atom_site_label
_atom_site_fract_x
_atom_site_fract_y
_atom_site_fract_z
Si Si1 0.376236 0.032344 0.110384
Si Si2 0.193761 0.658316 0.985669
Si Si3 0.617171 0.367030 0.097436
Si Si4 0.510264 0.500000 0.500000
Si Si5 0.456825 0.912747 0.676133
Si Si6 0.685540 0.141755 0.817104
Si Si7 0.360156 0.251286 0.976402
Si Si8 0.228132 0.955506 0.792792
O O1 0.469395 0.045839 0.125700
O O2 0.361256 0.862379 0.089207
O O3 0.316264 0.072933 0.174390
O O4 0.357238 0.143222 0.045417
O O5 0.152495 0.796052 0.024376
O O6 0.279698 0.655063 0.023088
O O7 0.152353 0.500000 0.000000
O O8 0.200843 0.673856 0.900760
O O9 0.544054 0.464186 0.069028
O O10 0.588731 0.226868 0.143606
O O11 0.679140 0.457047 0.146013
O O12 0.565331 0.640917 0.483089
O O13 0.500000 0.872913 0.750000
O O14 0.395390 0.047361 0.686472
O O15 0.755155 0.048312 0.778848
O O16 0.684817 0.300607 0.778897
#
# Coordination Sequence:
#
# PCOD9321713 Si02
#       8
#     8   8   8   4   8   8   8   8
#     4  11  24  44  70  98 139 189 228 284 356 434
#     4  12  24  43  77 109 140 179 247 298 355 420
#     4  12  27  46  73 107 143 192 235 305 352 435
#     4  12  26  42  66 106 148 176 234 294 368 414
#     4  12  26  48  70 102 143 189 239 289 362 428
#     4  12  27  45  75 106 140 190 243 300 355 432
#     4  11  24  42  69 105 140 182 226 295 357 426
#     4  12  26  48  74 102 144 189 247 293 364 430
#
# _framework density 21.165185999999999
#
# number of rings (size 3 to 8) (size 9 to 14) (size 15 to 20)
#    0.000    0.267    7.333    1.600    3.733    0.000 
#    0.000    0.667    0.000    0.000    0.000    0.000 
#    0.000    0.000    0.000    0.000    0.000    0.000 
#
# Total GULP energy -167783.951167 kJ/mol
# GULP energy per Si atom -5592.798372 kJ/mol
# Density = 2.111701 g / cm^3
# Si number density = 21.165186 Si / 1000 Ang^3
#
#
#
# Elastic Constant Matrix: (Units=GPa)
#
#
# Indices 1 2 3 4 5 6 
#
# 1 83.6279 32.3268 -0.1536 0.0000 0.0000 0.0000
# 2 32.3268 114.6465 20.4757 0.0000 0.0000 0.0000
# 3 -0.1536 20.4757 60.4679 0.0000 0.0000 0.0000
# 4 0.0000 0.0000 0.0000 29.6858 0.0000 0.0000
# 5 0.0000 0.0000 0.0000 0.0000 25.1756 0.0000
# 6 0.0000 0.0000 0.0000 0.0000 0.0000 34.1336
#
#
#
# Elastic Compliance Matrix: (Units=1/GPa)
#
#
# Indices 1 2 3 4 5 6 
#
# 1 0.013533 -0.004068 0.001412 0.000000 0.000000 0.000000
# 2 -0.004068 0.010507 -0.003568 0.000000 0.000000 0.000000
# 3 0.001412 -0.003568 0.017750 0.000000 0.000000 0.000000
# 4 0.000000 0.000000 0.000000 0.033686 0.000000 0.000000
# 5 0.000000 0.000000 0.000000 0.000000 0.039721 0.000000
# 6 0.000000 0.000000 0.000000 0.000000 0.000000 0.029297
#
#
# Mechanical properties :
#
#
# Convention : Reuss Voigt Hill
#
# Bulk Modulus (GPa) = 34.08243 40.44889 37.26566
# Shear Modulus (GPa) = 29.99009 31.53856 30.76432
#
# Velocity S-wave (km/s) = 3.76833 3.86439 3.81666
# Velocity P-wave (km/s) = 5.92214 6.25011 6.08833
#
# Compressibility (1/GPa) = 0.02934063
#
# Stress axis : x y z
#
# Youngs Moduli (GPa) = 73.89437 95.17661 56.33948
#
# Poissons Ratio (x) = 0.38718 -0.07955
# Poissons Ratio (y) = 0.30060 0.20103
# Poissons Ratio (z) = -0.10433 0.33960
#
# Static dielectric constant tensor:
#      x y z
#    x 1.747830 0.000000 0.000000 
#    y 0.000000 1.769680 0.000000 
#    z 0.000000 0.000000 1.774850 
# 
# From -- ./inp_files/25285.got.cif
#   From: 2010.05.17/outbox.cif.g08.bks.cpg/sg20_13_cif.got.tgz:25285.got - 2010.06.03 22:52:26.
