data_PCOD9321655
_publ_section_title
;
Structure prediction by ZEFSAII (Michael W. Deem and Ramdas Pophale) SiO2 
 PCOD9321655
Probable space group: C 2 2 21
;
_chemical_formula_sum "Si O2"
_cell_formula_units_Z 48
_cell_length_a 8.847377
_cell_length_b 14.858390
_cell_length_c 17.374982
_cell_angle_alpha 90.000000
_cell_angle_beta 90.000000
_cell_angle_gamma 90.000000
_cell_volume 2284.076526
_symmetry_space_group_name_H-M "C 2 2 21"
_symmetry_group_IT_number 20
_symmetry_cell_setting 'orthorhombic'
loop_
_space_group_symop_operation_xyz
x,y,z
-x,-y,1/2+z
x,-y,-z
-x,y,1/2-z
1/2+x,1/2+y,z
1/2-x,1/2-y,1/2+z
1/2+x,1/2-y,-z
1/2-x,1/2+y,1/2-z
loop_
_atom_site_type_symbol
_atom_site_label
_atom_site_fract_x
_atom_site_fract_y
_atom_site_fract_z
Si Si1 0.125290 0.899753 0.480855
Si Si2 0.638055 0.750276 0.396076
Si Si3 0.680362 0.031691 0.736539
Si Si4 0.189655 0.691353 0.849911
Si Si5 0.680299 0.831279 0.757213
Si Si6 0.784176 0.925692 0.435845
O O1 0.242453 0.845218 0.428840
O O2 0.964938 0.913162 0.438372
O O3 0.182776 0.000000 0.500000
O O4 0.097985 0.161475 0.444211
O O5 0.488850 0.792203 0.357449
O O6 0.757127 0.722990 0.330347
O O7 0.708439 0.828490 0.449112
O O8 0.500000 0.030236 0.750000
O O9 0.733665 0.115007 0.787802
O O10 0.726932 0.044284 0.648138
O O11 0.735789 0.933974 0.763655
O O12 0.257251 0.784231 0.819323
O O13 0.500000 0.829526 0.750000
O O14 0.744812 0.000000 0.500000
#
# Coordination Sequence:
#
# PCOD9321655 Si02
#       6
#     8   8   8   8   8   8
#     4  11  27  44  68 105 143 188 236 295 359 427
#     4  12  24  48  69 101 145 183 237 292 359 430
#     4  11  23  46  69 101 139 183 237 293 356 423
#     4  12  24  45  70 103 138 187 234 292 359 430
#     4  11  25  42  71 102 136 182 236 292 356 422
#     4  11  25  46  68 101 141 186 241 292 357 425
#
# _framework density 21.015056999999999
#
# number of rings (size 3 to 8) (size 9 to 14) (size 15 to 20)
#    0.000    0.667    3.333    3.500    7.000    0.667 
#    6.000    0.000    0.000    0.000    0.000    0.000 
#    0.000    0.000    0.000    0.000    0.000    0.000 
#
# Total GULP energy -134219.462855 kJ/mol
# GULP energy per Si atom -5592.477619 kJ/mol
# Density = 2.096723 g / cm^3
# Si number density = 21.015057 Si / 1000 Ang^3
#
#
#
# Elastic Constant Matrix: (Units=GPa)
#
#
# Indices 1 2 3 4 5 6 
#
# 1 72.4023 22.2489 38.6930 0.0000 0.0000 0.0000
# 2 22.2489 142.8019 43.0649 0.0000 0.0000 0.0000
# 3 38.6930 43.0649 99.1411 0.0000 0.0000 0.0000
# 4 0.0000 0.0000 0.0000 37.2076 0.0000 0.0000
# 5 0.0000 0.0000 0.0000 0.0000 28.7377 0.0000
# 6 0.0000 0.0000 0.0000 0.0000 0.0000 20.2298
#
#
#
# Elastic Compliance Matrix: (Units=1/GPa)
#
#
# Indices 1 2 3 4 5 6 
#
# 1 0.017525 -0.000768 -0.006506 0.000000 0.000000 0.000000
# 2 -0.000768 0.008092 -0.003215 0.000000 0.000000 0.000000
# 3 -0.006506 -0.003215 0.014022 0.000000 0.000000 0.000000
# 4 0.000000 0.000000 0.000000 0.026876 0.000000 0.000000
# 5 0.000000 0.000000 0.000000 0.000000 0.034798 0.000000
# 6 0.000000 0.000000 0.000000 0.000000 0.000000 0.049432
#
#
# Mechanical properties :
#
#
# Convention : Reuss Voigt Hill
#
# Bulk Modulus (GPa) = 53.58956 58.03987 55.81471
# Shear Modulus (GPa) = 28.09880 31.25757 29.67819
#
# Velocity S-wave (km/s) = 3.66058 3.86085 3.76205
# Velocity P-wave (km/s) = 6.58956 6.89588 6.74446
#
# Compressibility (1/GPa) = 0.01866035
#
# Stress axis : x y z
#
# Youngs Moduli (GPa) = 57.06255 123.57870 71.31503
#
# Poissons Ratio (x) = 0.09496 0.46396
# Poissons Ratio (y) = 0.04385 0.22928
# Poissons Ratio (z) = 0.37123 0.39732
#
# Static dielectric constant tensor:
#      x y z
#    x 1.737430 0.000000 0.000000 
#    y 0.000000 1.772290 0.000000 
#    z 0.000000 0.000000 1.745590 
# 
# From -- ./inp_files/23484.got.cif
#   From: 2010.05.17/outbox.cif.g08.bks.cpg/sg20_12_cif.got.tgz:23484.got - 2010.06.03 22:52:26.
