data_PCOD9321939
_publ_section_title
;
Structure prediction by ZEFSAII (Michael W. Deem and Ramdas Pophale) SiO2 
 PCOD9321939
Probable space group: C 2 2 21
;
_chemical_formula_sum "Si O2"
_cell_formula_units_Z 32
_cell_length_a 11.530295
_cell_length_b 11.603610
_cell_length_c 9.092005
_cell_angle_alpha 90.000000
_cell_angle_beta 90.000000
_cell_angle_gamma 90.000000
_cell_volume 1216.447047
_symmetry_space_group_name_H-M "C 2 2 21"
_symmetry_group_IT_number 20
_symmetry_cell_setting 'orthorhombic'
loop_
_space_group_symop_operation_xyz
x,y,z
-x,-y,1/2+z
x,-y,-z
-x,y,1/2-z
1/2+x,1/2+y,z
1/2-x,1/2-y,1/2+z
1/2+x,1/2-y,-z
1/2-x,1/2+y,1/2-z
loop_
_atom_site_type_symbol
_atom_site_label
_atom_site_fract_x
_atom_site_fract_y
_atom_site_fract_z
Si Si1 0.877796 0.739477 0.709575
Si Si2 0.101577 0.080740 0.637418
Si Si3 0.773186 0.536722 0.159499
Si Si4 0.048437 0.668951 0.489425
O O1 0.782930 0.836985 0.695183
O O2 0.000000 0.803261 0.750000
O O3 0.918263 0.675731 0.557820
O O4 0.873785 0.664482 0.860169
O O5 0.081882 0.210861 0.585254
O O6 0.000000 0.058224 0.750000
O O7 0.089878 0.000000 0.500000
O O8 0.222590 0.046561 0.714637
O O9 0.907456 0.571653 0.123041
O O10 0.722869 0.500000 0.000000
#
# Coordination Sequence:
#
# PCOD9321939 Si02
#       4
#     8   8   8   8
#     4   8  19  42  63  87 137 172 213 268 335 395
#     4  12  22  38  64  97 133 170 226 283 332 393
#     4  12  23  36  69 104 126 170 227 277 337 401
#     4   9  22  40  62  95 135 174 210 278 340 388
#
# _framework density 26.30612
#
# number of rings (size 3 to 8) (size 9 to 14) (size 15 to 20)
#    1.500    0.000    2.500    4.500    3.500    0.000 
#    0.000    0.000    5.500    1.500    0.000    0.000 
#    0.000    0.000    0.000    0.000    0.000    0.000 
#
# Total GULP energy -89268.649938 kJ/mol
# GULP energy per Si atom -5579.290621 kJ/mol
# Density = 2.624625 g / cm^3
# Si number density = 26.306120 Si / 1000 Ang^3
#
#
#
# Elastic Constant Matrix: (Units=GPa)
#
#
# Indices 1 2 3 4 5 6 
#
# 1 72.6220 0.4090 54.3606 0.0000 0.0000 0.0000
# 2 0.4090 90.0033 70.5874 0.0000 0.0000 0.0000
# 3 54.3606 70.5874 163.0210 0.0000 0.0000 0.0000
# 4 0.0000 0.0000 0.0000 272.2602 0.0000 0.0000
# 5 0.0000 0.0000 0.0000 0.0000 54.4268 0.0000
# 6 0.0000 0.0000 0.0000 0.0000 0.0000 29.8232
#
#
#
# Elastic Compliance Matrix: (Units=1/GPa)
#
#
# Indices 1 2 3 4 5 6 
#
# 1 0.021980 0.008553 -0.011033 0.000000 0.000000 0.000000
# 2 0.008553 0.020152 -0.011578 0.000000 0.000000 0.000000
# 3 -0.011033 -0.011578 0.014826 0.000000 0.000000 0.000000
# 4 0.000000 0.000000 0.000000 0.003673 0.000000 0.000000
# 5 0.000000 0.000000 0.000000 0.000000 0.018373 0.000000
# 6 0.000000 0.000000 0.000000 0.000000 0.000000 0.033531
#
#
# Mechanical properties :
#
#
# Convention : Reuss Voigt Hill
#
# Bulk Modulus (GPa) = 34.67016 64.04004 49.35510
# Shear Modulus (GPa) = 33.27435 84.65466 58.96450
#
# Velocity S-wave (km/s) = 3.56039 5.67895 4.73956
# Velocity P-wave (km/s) = 5.48725 8.20961 6.98239
#
# Compressibility (1/GPa) = 0.02884324
#
# Stress axis : x y z
#
# Youngs Moduli (GPa) = 45.49510 49.62281 67.44752
#
# Poissons Ratio (x) = -0.42442 0.74414
# Poissons Ratio (y) = -0.38912 0.78089
# Poissons Ratio (z) = 0.50194 0.57452
#
# Static dielectric constant tensor:
#      x y z
#    x 1.805660 0.000000 0.000000 
#    y 0.000000 2.255920 0.000000 
#    z 0.000000 0.000000 2.045560 
# 
# From -- ./inp_files/6753.got.cif
#   From: 2010.05.17/outbox.cif.g08.bks.cpg/sg20_4_cif.got.tgz:6753.got - 2010.06.03 22:52:26.
