data_PCOD9321561
_publ_section_title
;
Structure prediction by ZEFSAII (Michael W. Deem and Ramdas Pophale) SiO2 
 PCOD9321561
Probable space group: C 2 2 21
;
_chemical_formula_sum "Si O2"
_cell_formula_units_Z 64
_cell_length_a 18.523682
_cell_length_b 11.337757
_cell_length_c 13.669456
_cell_angle_alpha 90.000000
_cell_angle_beta 90.000000
_cell_angle_gamma 90.000000
_cell_volume 2870.818213
_symmetry_space_group_name_H-M "C 2 2 21"
_symmetry_group_IT_number 20
_symmetry_cell_setting 'orthorhombic'
loop_
_space_group_symop_operation_xyz
x,y,z
-x,-y,1/2+z
x,-y,-z
-x,y,1/2-z
1/2+x,1/2+y,z
1/2-x,1/2-y,1/2+z
1/2+x,1/2-y,-z
1/2-x,1/2+y,1/2-z
loop_
_atom_site_type_symbol
_atom_site_label
_atom_site_fract_x
_atom_site_fract_y
_atom_site_fract_z
Si Si1 0.952713 0.295993 0.347290
Si Si2 0.034495 0.957554 0.389201
Si Si3 0.751131 0.805718 0.288016
Si Si4 0.360534 0.436059 0.397018
Si Si5 0.623686 0.976627 0.261726
Si Si6 0.635598 0.382554 0.742452
Si Si7 0.565199 0.124728 0.535761
Si Si8 0.870873 0.273132 0.851112
O O1 0.919113 0.425315 0.330955
O O2 0.893067 0.198844 0.331815
O O3 0.000000 0.276904 0.250000
O O4 0.999839 0.286297 0.443978
O O5 0.074581 0.837376 0.355473
O O6 0.947948 0.933972 0.382972
O O7 0.049112 0.000000 0.500000
O O8 0.071774 0.061628 0.324005
O O9 0.809799 0.822740 0.375737
O O10 0.702604 0.919822 0.261346
O O11 0.694465 0.698931 0.310804
O O12 0.795315 0.770663 0.190649
O O13 0.345825 0.500000 0.500000
O O14 0.333715 0.510232 0.303578
O O15 0.594386 0.908819 0.358241
O O16 0.612024 0.114273 0.281360
O O17 0.623631 0.172464 0.460183
O O18 0.535885 0.000000 0.500000
#
# Coordination Sequence:
#
# PCOD9321561 Si02
#       8
#     8   8   8   8   8   8   8   8
#     4   9  18  35  65  92 126 177 227 284 346 416
#     4  11  26  44  72 108 142 188 241 302 364 431
#     4  11  24  43  68  98 134 191 233 296 356 430
#     4  11  25  46  69 106 144 188 240 296 366 434
#     4   9  21  41  65  97 136 182 235 280 365 425
#     4  11  23  44  70  98 145 184 240 293 360 439
#     4   9  20  39  63 100 130 176 235 292 347 422
#     4  11  23  40  68  97 144 178 233 301 357 425
#
# _framework density 22.293296000000002
#
# number of rings (size 3 to 8) (size 9 to 14) (size 15 to 20)
#    0.000    1.750    1.250    1.875    8.750    2.500 
#   11.250    0.000    0.000    3.000    0.000    0.000 
#    0.000    0.000    0.000    0.000    0.000    0.000 
#
# Total GULP energy -178257.072582 kJ/mol
# GULP energy per Si atom -5570.533518 kJ/mol
# Density = 2.224256 g / cm^3
# Si number density = 22.293296 Si / 1000 Ang^3
#
#
#
# Elastic Constant Matrix: (Units=GPa)
#
#
# Indices 1 2 3 4 5 6 
#
# 1 95.6463 42.2561 24.7327 0.0000 0.0000 0.0000
# 2 42.2561 112.4055 19.5895 0.0000 0.0000 0.0000
# 3 24.7327 19.5895 72.5844 0.0000 0.0000 0.0000
# 4 0.0000 0.0000 0.0000 24.6190 0.0000 0.0000
# 5 0.0000 0.0000 0.0000 0.0000 26.0928 0.0000
# 6 0.0000 0.0000 0.0000 0.0000 0.0000 35.5805
#
#
#
# Elastic Compliance Matrix: (Units=1/GPa)
#
#
# Indices 1 2 3 4 5 6 
#
# 1 0.013263 -0.004405 -0.003330 0.000000 0.000000 0.000000
# 2 -0.004405 0.010799 -0.001413 0.000000 0.000000 0.000000
# 3 -0.003330 -0.001413 0.015293 0.000000 0.000000 0.000000
# 4 0.000000 0.000000 0.000000 0.040619 0.000000 0.000000
# 5 0.000000 0.000000 0.000000 0.000000 0.038325 0.000000
# 6 0.000000 0.000000 0.000000 0.000000 0.000000 0.028105
#
#
# Mechanical properties :
#
#
# Convention : Reuss Voigt Hill
#
# Bulk Modulus (GPa) = 47.49059 50.42140 48.95599
# Shear Modulus (GPa) = 29.11711 30.19567 29.65639
#
# Velocity S-wave (km/s) = 3.61791 3.68431 3.65126
# Velocity P-wave (km/s) = 6.22907 6.38477 6.30740
#
# Compressibility (1/GPa) = 0.02105681
#
# Stress axis : x y z
#
# Youngs Moduli (GPa) = 75.40000 92.60321 65.38837
#
# Poissons Ratio (x) = 0.40795 0.21776
# Poissons Ratio (y) = 0.33217 0.09241
# Poissons Ratio (z) = 0.25110 0.13088
#
# Static dielectric constant tensor:
#      x y z
#    x 1.947420 0.000000 0.000000 
#    y 0.000000 1.934160 0.000000 
#    z 0.000000 0.000000 1.830620 
# 
# From -- ./inp_files/21517.got.cif
#   From: 2010.05.17/outbox.cif.g08.bks.cpg/sg20_11_cif.got.tgz:21517.got - 2010.06.03 22:52:26.
