data_PCOD9321077
_publ_section_title
;
Structure prediction by ZEFSAII (Michael W. Deem and Ramdas Pophale) SiO2 
 PCOD9321077
Probable space group: C 2 2 21
;
_chemical_formula_sum "Si O2"
_cell_formula_units_Z 32
_cell_length_a 17.313107
_cell_length_b 5.047818
_cell_length_c 14.860618
_cell_angle_alpha 90.000000
_cell_angle_beta 90.000000
_cell_angle_gamma 90.000000
_cell_volume 1298.720129
_symmetry_space_group_name_H-M "C 2 2 21"
_symmetry_group_IT_number 20
_symmetry_cell_setting 'orthorhombic'
loop_
_space_group_symop_operation_xyz
x,y,z
-x,-y,1/2+z
x,-y,-z
-x,y,1/2-z
1/2+x,1/2+y,z
1/2-x,1/2-y,1/2+z
1/2+x,1/2-y,-z
1/2-x,1/2+y,1/2-z
loop_
_atom_site_type_symbol
_atom_site_label
_atom_site_fract_x
_atom_site_fract_y
_atom_site_fract_z
Si Si1 0.360591 0.500000 0.000000
Si Si2 0.000000 0.307403 0.250000
Si Si3 0.713306 0.995470 0.896246
Si Si4 0.872299 0.997154 0.331707
Si Si5 0.499977 0.186610 0.077429
O O1 0.302508 0.572542 0.082134
O O2 0.417671 0.285516 0.042257
O O3 0.003091 0.502728 0.334713
O O4 0.075845 0.120770 0.247570
O O5 0.689624 0.282329 0.860002
O O6 0.673648 0.779250 0.831895
O O7 0.684747 0.000000 0.000000
O O8 0.942065 0.927489 0.401110
O O9 0.530668 0.000000 0.000000
#
# Coordination Sequence:
#
# PCOD9321077 Si02
#       5
#     4   4   8   8   8
#     4  10  28  42  80 118 162 196 272 316 404 458
#     4  12  28  46  84 118 158 196 278 322 392 452
#     4  10  25  43  78 112 151 203 255 311 387 473
#     4  12  24  47  76 112 150 201 259 313 376 462
#     4  12  27  48  83 118 157 206 260 337 384 467
#
# _framework density 24.639641999999998
#
# number of rings (size 3 to 8) (size 9 to 14) (size 15 to 20)
#    0.750    0.000    2.500    3.750   10.500    0.000 
#    0.000    0.000   16.500    0.000    0.000    0.000 
#    0.000    0.000    0.000    0.000    0.000    0.000 
#
# Total GULP energy -89364.220940 kJ/mol
# GULP energy per Si atom -5585.263809 kJ/mol
# Density = 2.458356 g / cm^3
# Si number density = 24.639642 Si / 1000 Ang^3
#
#
#
# Elastic Constant Matrix: (Units=GPa)
#
#
# Indices 1 2 3 4 5 6 
#
# 1 170.4351 43.8294 27.2478 0.0000 0.0000 0.0000
# 2 43.8294 157.9742 42.9257 0.0000 0.0000 0.0000
# 3 27.2478 42.9257 98.7720 0.0000 0.0000 0.0000
# 4 0.0000 0.0000 0.0000 36.1603 0.0000 0.0000
# 5 0.0000 0.0000 0.0000 0.0000 37.3556 0.0000
# 6 0.0000 0.0000 0.0000 0.0000 0.0000 19.3646
#
#
#
# Elastic Compliance Matrix: (Units=1/GPa)
#
#
# Indices 1 2 3 4 5 6 
#
# 1 0.006428 -0.001476 -0.001132 0.000000 0.000000 0.000000
# 2 -0.001476 0.007517 -0.002860 0.000000 0.000000 0.000000
# 3 -0.001132 -0.002860 0.011679 0.000000 0.000000 0.000000
# 4 0.000000 0.000000 0.000000 0.027655 0.000000 0.000000
# 5 0.000000 0.000000 0.000000 0.000000 0.026770 0.000000
# 6 0.000000 0.000000 0.000000 0.000000 0.000000 0.051641
#
#
# Mechanical properties :
#
#
# Convention : Reuss Voigt Hill
#
# Bulk Modulus (GPa) = 68.07665 72.79859 70.43762
# Shear Modulus (GPa) = 33.89378 39.45465 36.67421
#
# Velocity S-wave (km/s) = 3.71290 4.00592 3.86219
# Velocity P-wave (km/s) = 6.78747 7.14185 6.96691
#
# Compressibility (1/GPa) = 0.01468933
#
# Stress axis : x y z
#
# Youngs Moduli (GPa) = 155.57399 133.03840 85.62156
#
# Poissons Ratio (x) = 0.19634 0.09691
# Poissons Ratio (y) = 0.22960 0.24484
# Poissons Ratio (z) = 0.17608 0.38043
#
# Static dielectric constant tensor:
#      x y z
#    x 2.019800 0.000000 0.000000 
#    y 0.000000 1.915910 0.000000 
#    z 0.000000 0.000000 1.969890 
# 
# From -- ./inp_files/21069.got.cif
#   From: 2010.05.17/outbox.cif.g08.bks.cpg/sg20_11_cif.got.tgz:21069.got - 2010.06.03 22:52:26.
