data_PCOD9321375
_publ_section_title
;
Structure prediction by ZEFSAII (Michael W. Deem and Ramdas Pophale) SiO2 
 PCOD9321375
Probable space group: C 2 2 21
;
_chemical_formula_sum "Si O2"
_cell_formula_units_Z 48
_cell_length_a 13.540885
_cell_length_b 9.011470
_cell_length_c 19.480889
_cell_angle_alpha 90.000000
_cell_angle_beta 90.000000
_cell_angle_gamma 90.000000
_cell_volume 2377.121953
_symmetry_space_group_name_H-M "C 2 2 21"
_symmetry_group_IT_number 20
_symmetry_cell_setting 'orthorhombic'
loop_
_space_group_symop_operation_xyz
x,y,z
-x,-y,1/2+z
x,-y,-z
-x,y,1/2-z
1/2+x,1/2+y,z
1/2-x,1/2-y,1/2+z
1/2+x,1/2-y,-z
1/2-x,1/2+y,1/2-z
loop_
_atom_site_type_symbol
_atom_site_label
_atom_site_fract_x
_atom_site_fract_y
_atom_site_fract_z
Si Si1 0.064999 0.642238 0.542916
Si Si2 0.967915 0.522727 0.673120
Si Si3 0.245841 0.287708 0.968179
Si Si4 0.247918 0.074669 0.617653
Si Si5 0.448866 0.366199 0.455550
Si Si6 0.453748 0.317561 0.176460
O O1 0.030513 0.500000 0.500000
O O2 0.182297 0.651103 0.545189
O O3 0.018272 0.627960 0.617042
O O4 0.032633 0.786749 0.500693
O O5 0.850224 0.539626 0.658048
O O6 0.000000 0.564363 0.750000
O O7 0.014553 0.355676 0.663618
O O8 0.283787 0.422112 0.920482
O O9 0.136530 0.251711 0.944159
O O10 0.237398 0.323950 0.049324
O O11 0.162347 0.147425 0.664857
O O12 0.408268 0.500000 0.500000
O O13 0.493515 0.410721 0.383279
O O14 0.500000 0.354674 0.250000
#
# Coordination Sequence:
#
# PCOD9321375 Si02
#       6
#     8   8   8   8   8   8
#     4  12  21  40  66  98 132 177 238 289 337 410
#     4  11  24  44  69  99 142 184 227 290 355 418
#     4  11  22  37  70 100 133 179 236 286 347 410
#     4  11  21  43  69  97 133 189 226 280 355 414
#     4  12  23  40  67 102 135 178 238 292 340 412
#     4  11  24  43  69 101 144 185 227 289 356 420
#
# _framework density 20.192484
#
# number of rings (size 3 to 8) (size 9 to 14) (size 15 to 20)
#    0.000    0.667    6.667    1.500    0.000    1.333 
#    0.000    5.000    0.000    0.000    0.000    0.000 
#    0.000    0.000    0.000    0.000    0.000    0.000 
#
# Total GULP energy -133900.080946 kJ/mol
# GULP energy per Si atom -5579.170039 kJ/mol
# Density = 2.014653 g / cm^3
# Si number density = 20.192484 Si / 1000 Ang^3
#
#
#
# Elastic Constant Matrix: (Units=GPa)
#
#
# Indices 1 2 3 4 5 6 
#
# 1 144.5244 24.6763 64.2529 0.0000 0.0000 0.0000
# 2 24.6763 34.5765 33.7154 0.0000 0.0000 0.0000
# 3 64.2529 33.7154 153.4497 0.0000 0.0000 0.0000
# 4 0.0000 0.0000 0.0000 17.8329 0.0000 0.0000
# 5 0.0000 0.0000 0.0000 0.0000 36.1257 0.0000
# 6 0.0000 0.0000 0.0000 0.0000 0.0000 36.3982
#
#
#
# Elastic Compliance Matrix: (Units=1/GPa)
#
#
# Indices 1 2 3 4 5 6 
#
# 1 0.008809 -0.003424 -0.002936 0.000000 0.000000 0.000000
# 2 -0.003424 0.038138 -0.006946 0.000000 0.000000 0.000000
# 3 -0.002936 -0.006946 0.009272 0.000000 0.000000 0.000000
# 4 0.000000 0.000000 0.000000 0.056076 0.000000 0.000000
# 5 0.000000 0.000000 0.000000 0.000000 0.027681 0.000000
# 6 0.000000 0.000000 0.000000 0.000000 0.000000 0.027474
#
#
# Mechanical properties :
#
#
# Convention : Reuss Voigt Hill
#
# Bulk Modulus (GPa) = 33.77525 64.20443 48.98984
# Shear Modulus (GPa) = 24.51801 32.06509 28.29155
#
# Velocity S-wave (km/s) = 3.48834 3.98926 3.74718
# Velocity P-wave (km/s) = 5.74349 7.28589 6.56017
#
# Compressibility (1/GPa) = 0.02960748
#
# Stress axis : x y z
#
# Youngs Moduli (GPa) = 113.51652 26.22077 107.84619
#
# Poissons Ratio (x) = 0.08977 0.31668
# Poissons Ratio (y) = 0.38864 0.74909
# Poissons Ratio (z) = 0.33333 0.18213
#
# Static dielectric constant tensor:
#      x y z
#    x 1.715890 0.000000 0.000000 
#    y 0.000000 1.727630 0.000000 
#    z 0.000000 0.000000 1.682600 
# 
# From -- ./inp_files/24805.got.cif
#   From: 2010.05.17/outbox.cif.g08.bks.cpg/sg20_13_cif.got.tgz:24805.got - 2010.06.03 22:52:26.
