data_PCOD9321634
_publ_section_title
;
Structure prediction by ZEFSAII (Michael W. Deem and Ramdas Pophale) SiO2 
 PCOD9321634
Probable space group: C 2 2 21
;
_chemical_formula_sum "Si O2"
_cell_formula_units_Z 40
_cell_length_a 6.934811
_cell_length_b 13.323928
_cell_length_c 18.360227
_cell_angle_alpha 90.000000
_cell_angle_beta 90.000000
_cell_angle_gamma 90.000000
_cell_volume 1696.465191
_symmetry_space_group_name_H-M "C 2 2 21"
_symmetry_group_IT_number 20
_symmetry_cell_setting 'orthorhombic'
loop_
_space_group_symop_operation_xyz
x,y,z
-x,-y,1/2+z
x,-y,-z
-x,y,1/2-z
1/2+x,1/2+y,z
1/2-x,1/2-y,1/2+z
1/2+x,1/2-y,-z
1/2-x,1/2+y,1/2-z
loop_
_atom_site_type_symbol
_atom_site_label
_atom_site_fract_x
_atom_site_fract_y
_atom_site_fract_z
Si Si1 0.243369 0.937008 0.071633
Si Si2 0.589511 0.930592 0.171759
Si Si3 0.067951 0.798670 0.382601
Si Si4 0.352224 0.360804 0.643731
Si Si5 0.771780 0.343438 0.688454
O O1 0.439055 0.899386 0.108997
O O2 0.068902 0.858521 0.061460
O O3 0.168611 0.022074 0.127665
O O4 0.287050 0.000000 0.000000
O O5 0.790824 0.876081 0.157422
O O6 0.423221 0.665086 0.141848
O O7 0.626013 0.050337 0.170895
O O8 0.212077 0.708346 0.405347
O O9 0.912549 0.746557 0.330456
O O10 0.284768 0.343586 0.726927
O O11 0.000000 0.596739 0.750000
#
# Coordination Sequence:
#
# PCOD9321634 Si02
#       5
#     8   8   8   8   8
#     4  12  28  51  72 105 153 203 248 302 376 456
#     4  12  25  45  77 110 147 188 247 313 362 437
#     4  12  26  46  75 104 145 190 236 304 381 431
#     4  11  24  44  72 109 142 186 246 305 360 444
#     4  11  23  44  75 109 144 180 244 313 368 428
#
# _framework density 23.578438999999999
#
# number of rings (size 3 to 8) (size 9 to 14) (size 15 to 20)
#    0.000    0.400    6.000    1.800    8.400    0.800 
#    7.200    0.000    0.000    0.000    0.000    0.000 
#    0.000    0.000    0.000    0.000    0.000    0.000 
#
# Total GULP energy -111973.201317 kJ/mol
# GULP energy per Si atom -5598.660066 kJ/mol
# Density = 2.352477 g / cm^3
# Si number density = 23.578439 Si / 1000 Ang^3
#
#
#
# Elastic Constant Matrix: (Units=GPa)
#
#
# Indices 1 2 3 4 5 6 
#
# 1 168.1639 30.4926 18.8302 0.0000 0.0000 0.0000
# 2 30.4926 85.1318 -9.0893 0.0000 0.0000 0.0000
# 3 18.8302 -9.0893 25.9181 0.0000 0.0000 0.0000
# 4 0.0000 0.0000 0.0000 1.2344 0.0000 0.0000
# 5 0.0000 0.0000 0.0000 0.0000 19.5306 0.0000
# 6 0.0000 0.0000 0.0000 0.0000 0.0000 60.0723
#
#
#
# Elastic Compliance Matrix: (Units=1/GPa)
#
#
# Indices 1 2 3 4 5 6 
#
# 1 0.007263 -0.003288 -0.006430 0.000000 0.000000 0.000000
# 2 -0.003288 0.013692 0.007190 0.000000 0.000000 0.000000
# 3 -0.006430 0.007190 0.045776 0.000000 0.000000 0.000000
# 4 0.000000 0.000000 0.000000 0.810104 0.000000 0.000000
# 5 0.000000 0.000000 0.000000 0.000000 0.051202 0.000000
# 6 0.000000 0.000000 0.000000 0.000000 0.000000 0.016647
#
#
# Mechanical properties :
#
#
# Convention : Reuss Voigt Hill
#
# Bulk Modulus (GPa) = 16.21366 39.96453 28.08909
# Shear Modulus (GPa) = 5.15307 32.09948 18.62627
#
# Velocity S-wave (km/s) = 1.47995 3.69371 2.81369
# Velocity P-wave (km/s) = 3.13237 5.93108 4.74286
#
# Compressibility (1/GPa) = 0.06167638
#
# Stress axis : x y z
#
# Youngs Moduli (GPa) = 137.68969 73.03631 21.84551
#
# Poissons Ratio (x) = 0.24013 0.14046
# Poissons Ratio (y) = 0.45270 -0.15708
# Poissons Ratio (z) = 0.88529 -0.52516
#
# Static dielectric constant tensor:
#      x y z
#    x 1.898930 0.000000 0.000000 
#    y 0.000000 1.915730 0.000000 
#    z 0.000000 0.000000 1.871350 
# 
# From -- ./inp_files/26497.got.cif
#   From: 2010.05.17/outbox.cif.g08.bks.cpg/sg20_14_cif.got.tgz:26497.got - 2010.06.03 22:52:26.
