data_PCOD9321510
_publ_section_title
;
Structure prediction by ZEFSAII (Michael W. Deem and Ramdas Pophale) SiO2 
 PCOD9321510
Probable space group: C 2 2 21
;
_chemical_formula_sum "Si O2"
_cell_formula_units_Z 52
_cell_length_a 8.587440
_cell_length_b 17.228403
_cell_length_c 16.787376
_cell_angle_alpha 90.000000
_cell_angle_beta 90.000000
_cell_angle_gamma 90.000000
_cell_volume 2483.656641
_symmetry_space_group_name_H-M "C 2 2 21"
_symmetry_group_IT_number 20
_symmetry_cell_setting 'orthorhombic'
loop_
_space_group_symop_operation_xyz
x,y,z
-x,-y,1/2+z
x,-y,-z
-x,y,1/2-z
1/2+x,1/2+y,z
1/2-x,1/2-y,1/2+z
1/2+x,1/2-y,-z
1/2-x,1/2+y,1/2-z
loop_
_atom_site_type_symbol
_atom_site_label
_atom_site_fract_x
_atom_site_fract_y
_atom_site_fract_z
Si Si1 0.003243 0.819340 0.962063
Si Si2 0.228987 0.159467 0.171963
Si Si3 0.173424 0.002825 0.272418
Si Si4 0.500000 0.090066 0.750000
Si Si5 0.239862 0.934289 0.556429
Si Si6 0.051953 0.290421 0.889588
Si Si7 0.843598 0.267944 0.183905
O O1 0.162650 0.841496 0.918094
O O2 0.900637 0.891730 0.990033
O O3 0.912224 0.784105 0.886474
O O4 0.012339 0.756752 0.030847
O O5 0.197036 0.078172 0.215660
O O6 0.407306 0.182156 0.162138
O O7 0.155773 0.225098 0.230252
O O8 0.166454 0.031078 0.363381
O O9 0.000000 0.969263 0.250000
O O10 0.340091 0.956559 0.268970
O O11 0.566763 0.150689 0.684435
O O12 0.362021 0.869295 0.583380
O O13 0.309452 0.000000 0.500000
O O14 0.162286 0.232527 0.839654
#
# Coordination Sequence:
#
# PCOD9321510 Si02
#       7
#     8   8   8   4   8   8   8
#     4  11  22  44  69 100 142 188 235 305 378 438
#     4  12  20  45  75 100 140 195 251 291 363 466
#     4  12  25  47  73 102 147 198 245 292 373 450
#     4  12  28  42  72 108 142 176 248 320 352 416
#     4  11  25  44  67 100 146 188 236 307 376 436
#     4  11  25  40  73 107 140 187 248 301 381 443
#     4  11  23  44  68 102 138 183 244 304 354 431
#
# _framework density 20.936872000000001
#
# number of rings (size 3 to 8) (size 9 to 14) (size 15 to 20)
#    0.000    0.615    6.154    3.231    2.154    3.692 
#    0.000    0.769    0.000    0.000    0.000    0.000 
#    0.000    0.000    0.000    0.000    0.000    0.000 
#
# Total GULP energy -144954.680313 kJ/mol
# GULP energy per Si atom -5575.180012 kJ/mol
# Density = 2.088922 g / cm^3
# Si number density = 20.936872 Si / 1000 Ang^3
#
#
#
# Elastic Constant Matrix: (Units=GPa)
#
#
# Indices 1 2 3 4 5 6 
#
# 1 145.8142 47.0429 24.4519 0.0000 0.0000 0.0000
# 2 47.0429 78.8638 25.3734 0.0000 0.0000 0.0000
# 3 24.4519 25.3734 65.1573 0.0000 0.0000 0.0000
# 4 0.0000 0.0000 0.0000 14.6728 0.0000 0.0000
# 5 0.0000 0.0000 0.0000 0.0000 21.6418 0.0000
# 6 0.0000 0.0000 0.0000 0.0000 0.0000 20.2002
#
#
#
# Elastic Compliance Matrix: (Units=1/GPa)
#
#
# Indices 1 2 3 4 5 6 
#
# 1 0.008604 -0.004680 -0.001406 0.000000 0.000000 0.000000
# 2 -0.004680 0.017042 -0.004880 0.000000 0.000000 0.000000
# 3 -0.001406 -0.004880 0.017776 0.000000 0.000000 0.000000
# 4 0.000000 0.000000 0.000000 0.068154 0.000000 0.000000
# 5 0.000000 0.000000 0.000000 0.000000 0.046207 0.000000
# 6 0.000000 0.000000 0.000000 0.000000 0.000000 0.049504
#
#
# Mechanical properties :
#
#
# Convention : Reuss Voigt Hill
#
# Bulk Modulus (GPa) = 46.53638 53.73019 50.13329
# Shear Modulus (GPa) = 21.15229 24.16744 22.65986
#
# Velocity S-wave (km/s) = 3.18195 3.40119 3.29339
# Velocity P-wave (km/s) = 5.98122 6.41426 6.20152
#
# Compressibility (1/GPa) = 0.02148856
#
# Stress axis : x y z
#
# Youngs Moduli (GPa) = 116.22984 58.67971 56.25662
#
# Poissons Ratio (x) = 0.27460 0.07912
# Poissons Ratio (y) = 0.54392 0.27454
# Poissons Ratio (z) = 0.16346 0.28637
#
# Static dielectric constant tensor:
#      x y z
#    x 1.905050 0.000000 0.000000 
#    y 0.000000 1.758290 0.000000 
#    z 0.000000 0.000000 1.767320 
# 
# From -- ./inp_files/23686.got.cif
#   From: 2010.05.17/outbox.cif.g08.bks.cpg/sg20_12_cif.got.tgz:23686.got - 2010.06.03 22:52:26.
