data_PCOD9321756
_publ_section_title
;
Structure prediction by ZEFSAII (Michael W. Deem and Ramdas Pophale) SiO2 
 PCOD9321756
Probable space group: C 2 2 21
;
_chemical_formula_sum "Si O2"
_cell_formula_units_Z 36
_cell_length_a 19.328725
_cell_length_b 5.176005
_cell_length_c 16.673470
_cell_angle_alpha 90.000000
_cell_angle_beta 90.000000
_cell_angle_gamma 90.000000
_cell_volume 1668.106931
_symmetry_space_group_name_H-M "C 2 2 21"
_symmetry_group_IT_number 20
_symmetry_cell_setting 'orthorhombic'
loop_
_space_group_symop_operation_xyz
x,y,z
-x,-y,1/2+z
x,-y,-z
-x,y,1/2-z
1/2+x,1/2+y,z
1/2-x,1/2-y,1/2+z
1/2+x,1/2-y,-z
1/2-x,1/2+y,1/2-z
loop_
_atom_site_type_symbol
_atom_site_label
_atom_site_fract_x
_atom_site_fract_y
_atom_site_fract_z
Si Si1 0.579283 0.635856 0.245156
Si Si2 0.975939 0.500000 0.500000
Si Si3 0.881146 0.363373 0.648574
Si Si4 0.897595 0.197357 0.073662
Si Si5 0.254575 0.734918 0.551127
O O1 0.500000 0.720803 0.250000
O O2 0.586529 0.366906 0.199671
O O3 0.601181 0.588880 0.336882
O O4 0.616410 0.866191 0.196419
O O5 0.030640 0.658046 0.554845
O O6 0.924906 0.374505 0.565486
O O7 0.802755 0.289834 0.626622
O O8 0.824145 0.344744 0.071773
O O9 0.893655 0.000000 0.000000
O O10 0.285619 0.500000 0.500000
O O11 0.254345 0.000000 0.500000
#
# Coordination Sequence:
#
# PCOD9321756 Si02
#       5
#     8   4   8   8   8
#     4  12  26  45  68 108 142 182 239 302 346 418
#     4  12  24  46  74 104 134 198 236 284 362 432
#     4  12  27  43  74 103 145 183 239 291 358 420
#     4  11  26  45  74 101 144 190 242 290 364 427
#     4  11  24  45  71 105 142 189 237 291 349 429
#
# _framework density 21.58135
#
# number of rings (size 3 to 8) (size 9 to 14) (size 15 to 20)
#    0.000    0.444    4.444    3.333    3.111    1.778 
#    0.000    0.000    0.000    0.000    0.000    0.000 
#    0.000    0.000    0.000    0.000    0.000    0.000 
#
# Total GULP energy -100526.159379 kJ/mol
# GULP energy per Si atom -5584.786632 kJ/mol
# Density = 2.153223 g / cm^3
# Si number density = 21.581350 Si / 1000 Ang^3
#
#
#
# Elastic Constant Matrix: (Units=GPa)
#
#
# Indices 1 2 3 4 5 6 
#
# 1 90.5738 -2.9062 32.0982 0.0000 0.0000 0.0000
# 2 -2.9062 85.7621 46.4529 0.0000 0.0000 0.0000
# 3 32.0982 46.4529 168.8918 0.0000 0.0000 0.0000
# 4 0.0000 0.0000 0.0000 53.0517 0.0000 0.0000
# 5 0.0000 0.0000 0.0000 0.0000 -135.0024 0.0000
# 6 0.0000 0.0000 0.0000 0.0000 0.0000 -299.1899
#
#
#
# Elastic Compliance Matrix: (Units=1/GPa)
#
#
# Indices 1 2 3 4 5 6 
#
# 1 0.012108 0.001947 -0.002837 0.000000 0.000000 0.000000
# 2 0.001947 0.014014 -0.004225 0.000000 0.000000 0.000000
# 3 -0.002837 -0.004225 0.007622 0.000000 0.000000 0.000000
# 4 0.000000 0.000000 0.000000 0.018850 0.000000 0.000000
# 5 0.000000 0.000000 0.000000 0.000000 -0.007407 0.000000
# 6 0.000000 0.000000 0.000000 0.000000 0.000000 -0.003342
#
#
# Mechanical properties :
#
#
# Convention : Reuss Voigt Hill
#
# Bulk Modulus (GPa) = 42.52435 55.16861 48.84648
# Shear Modulus (GPa) = 83.45524 -58.25593 12.59965
#
# Velocity S-wave (km/s) = 6.22527 -5.20118 2.41886
# Velocity P-wave (km/s) = 8.45098 3.23281 5.52123
#
# Compressibility (1/GPa) = 0.02351594
#
# Stress axis : x y z
#
# Youngs Moduli (GPa) = 82.58677 71.35528 131.19877
#
# Poissons Ratio (x) = -0.13892 0.37217
# Poissons Ratio (y) = -0.16078 0.55426
# Poissons Ratio (z) = 0.23427 0.30145
#
# Static dielectric constant tensor:
#      x y z
#    x 1.815380 0.000000 0.000000 
#    y 0.000000 2.383070 0.000000 
#    z 0.000000 0.000000 2.379670 
# 
# From -- ./inp_files/21593.got.cif
#   From: 2010.05.17/outbox.cif.g08.bks.cpg/sg20_11_cif.got.tgz:21593.got - 2010.06.03 22:52:26.
