data_PCOD9321302
_publ_section_title
;
Structure prediction by ZEFSAII (Michael W. Deem and Ramdas Pophale) SiO2 
 PCOD9321302
Probable space group: C 2 2 21
;
_chemical_formula_sum "Si O2"
_cell_formula_units_Z 52
_cell_length_a 17.875039
_cell_length_b 13.462046
_cell_length_c 11.593312
_cell_angle_alpha 90.000000
_cell_angle_beta 90.000000
_cell_angle_gamma 90.000000
_cell_volume 2789.751964
_symmetry_space_group_name_H-M "C 2 2 21"
_symmetry_group_IT_number 20
_symmetry_cell_setting 'orthorhombic'
loop_
_space_group_symop_operation_xyz
x,y,z
-x,-y,1/2+z
x,-y,-z
-x,y,1/2-z
1/2+x,1/2+y,z
1/2-x,1/2-y,1/2+z
1/2+x,1/2-y,-z
1/2-x,1/2+y,1/2-z
loop_
_atom_site_type_symbol
_atom_site_label
_atom_site_fract_x
_atom_site_fract_y
_atom_site_fract_z
Si Si1 0.928887 0.054748 0.171448
Si Si2 0.448809 0.658563 0.939508
Si Si3 0.271204 0.597309 0.279176
Si Si4 0.695708 0.702796 0.653092
Si Si5 0.694942 0.894264 0.969513
Si Si6 0.378413 0.688607 0.597380
Si Si7 0.200721 0.000000 0.000000
O O1 0.857194 0.082446 0.245488
O O2 0.000000 0.045985 0.250000
O O3 0.920820 0.946207 0.114555
O O4 0.946923 0.136130 0.074654
O O5 0.382169 0.733322 0.908594
O O6 0.531513 0.682782 0.894114
O O7 0.250463 0.705305 0.326508
O O8 0.229527 0.588213 0.157349
O O9 0.253477 0.521615 0.383297
O O10 0.740717 0.629597 0.566056
O O11 0.665556 0.674042 0.780951
O O12 0.645285 0.794989 0.955548
O O13 0.657760 0.000000 0.000000
O O14 0.350822 0.596350 0.520575
#
# Coordination Sequence:
#
# PCOD9321302 Si02
#       7
#     8   8   8   8   8   8   4
#     4  11  21  34  58  92 130 161 196 256 329 379
#     4  11  21  37  59  90 126 163 205 260 319 385
#     4  11  23  37  61  94 124 166 204 263 324 381
#     4  11  22  39  60  90 126 165 214 260 319 384
#     4  11  22  41  60  88 123 171 215 261 308 388
#     4  11  23  36  64  92 125 167 211 264 326 380
#     4  12  20  38  58  94 130 154 202 268 328 370
#
# _framework density 18.639648999999999
#
# number of rings (size 3 to 8) (size 9 to 14) (size 15 to 20)
#    0.000    0.923    3.077    6.923    0.000    0.000 
#    0.000    0.000    1.692    0.000    8.000    0.000 
#    0.000    0.000    0.000    0.000    0.000    0.000 
#
# Total GULP energy -145003.504154 kJ/mol
# GULP energy per Si atom -5577.057852 kJ/mol
# Density = 1.859722 g / cm^3
# Si number density = 18.639649 Si / 1000 Ang^3
#
#
#
# Elastic Constant Matrix: (Units=GPa)
#
#
# Indices 1 2 3 4 5 6 
#
# 1 75.3514 34.4776 20.7776 0.0000 0.0000 0.0000
# 2 34.4776 97.0248 37.1844 0.0000 0.0000 0.0000
# 3 20.7776 37.1844 100.9322 0.0000 0.0000 0.0000
# 4 0.0000 0.0000 0.0000 33.2933 0.0000 0.0000
# 5 0.0000 0.0000 0.0000 0.0000 21.5752 0.0000
# 6 0.0000 0.0000 0.0000 0.0000 0.0000 -8.0164
#
#
#
# Elastic Compliance Matrix: (Units=1/GPa)
#
#
# Indices 1 2 3 4 5 6 
#
# 1 0.016015 -0.005155 -0.001398 0.000000 0.000000 0.000000
# 2 -0.005155 0.013661 -0.003971 0.000000 0.000000 0.000000
# 3 -0.001398 -0.003971 0.011658 0.000000 0.000000 0.000000
# 4 0.000000 0.000000 0.000000 0.030036 0.000000 0.000000
# 5 0.000000 0.000000 0.000000 0.000000 0.046350 0.000000
# 6 0.000000 0.000000 0.000000 0.000000 0.000000 -0.124744
#
#
# Mechanical properties :
#
#
# Convention : Reuss Voigt Hill
#
# Bulk Modulus (GPa) = 49.29593 50.90973 50.10283
# Shear Modulus (GPa) = 240.53184 21.42833 130.98009
#
# Velocity S-wave (km/s) = 11.37204 3.39427 8.39179
# Velocity P-wave (km/s) = 14.10444 6.53707 10.99246
#
# Compressibility (1/GPa) = 0.02028565
#
# Stress axis : x y z
#
# Youngs Moduli (GPa) = 62.43971 73.20290 85.77462
#
# Poissons Ratio (x) = 0.37739 0.11988
# Poissons Ratio (y) = 0.32190 0.34065
# Poissons Ratio (z) = 0.08726 0.29072
#
# Static dielectric constant tensor:
#      x y z
#    x 1.628100 0.000000 0.000000 
#    y 0.000000 1.684210 0.000000 
#    z 0.000000 0.000000 1.742940 
# 
# From -- ./inp_files/15833.got.cif
#   From: 2010.05.17/outbox.cif.g08.bks.cpg/sg20_8_cif.got.tgz:15833.got - 2010.06.03 22:52:26.
