data_PCOD9321704
_publ_section_title
;
Structure prediction by ZEFSAII (Michael W. Deem and Ramdas Pophale) SiO2 
 PCOD9321704
Probable space group: C 2 2 21
;
_chemical_formula_sum "Si O2"
_cell_formula_units_Z 60
_cell_length_a 5.348390
_cell_length_b 23.502510
_cell_length_c 18.935222
_cell_angle_alpha 90.000000
_cell_angle_beta 90.000000
_cell_angle_gamma 90.000000
_cell_volume 2380.168567
_symmetry_space_group_name_H-M "C 2 2 21"
_symmetry_group_IT_number 20
_symmetry_cell_setting 'orthorhombic'
loop_
_space_group_symop_operation_xyz
x,y,z
-x,-y,1/2+z
x,-y,-z
-x,y,1/2-z
1/2+x,1/2+y,z
1/2-x,1/2-y,1/2+z
1/2+x,1/2-y,-z
1/2-x,1/2+y,1/2-z
loop_
_atom_site_type_symbol
_atom_site_label
_atom_site_fract_x
_atom_site_fract_y
_atom_site_fract_z
Si Si1 0.343145 0.010857 0.074336
Si Si2 0.403403 0.201945 0.671046
Si Si3 0.147733 0.568888 0.823949
Si Si4 0.003253 0.903427 0.849089
Si Si5 0.500000 0.489519 0.750000
Si Si6 0.875045 0.689803 0.175400
Si Si7 0.132536 0.378360 0.950565
Si Si8 0.900845 0.277781 0.029584
O O1 0.200630 0.045342 0.136643
O O2 0.537008 0.057999 0.047062
O O3 0.489198 0.960168 0.113337
O O4 0.197439 0.000000 0.000000
O O5 0.500000 0.211213 0.750000
O O6 0.328450 0.136140 0.664650
O O7 0.179371 0.245360 0.656140
O O8 0.608868 0.220875 0.613875
O O9 0.409359 0.537773 0.808330
O O10 0.000000 0.559399 0.750000
O O11 0.118544 0.845497 0.822053
O O12 0.917772 0.886830 0.928489
O O13 0.835950 0.937719 0.791754
O O14 0.000000 0.687816 0.250000
O O15 0.034879 0.655478 0.118530
O O16 0.019133 0.339105 0.010204
O O17 0.129211 0.236388 0.003074
#
# Coordination Sequence:
#
# PCOD9321704 Si02
#       8
#     8   8   8   8   4   8   8   8
#     4  11  24  44  69 105 143 186 249 311 374 460
#     4  11  27  48  74 109 152 201 259 320 387 482
#     4  11  24  47  68 101 146 196 247 302 379 458
#     4  11  24  41  72 105 139 186 242 315 379 452
#     4  12  22  42  72 102 138 190 240 304 380 452
#     4  11  25  41  68 108 138 184 243 316 381 459
#     4  11  24  45  72 104 145 192 254 306 394 457
#     4  12  27  52  78 111 158 207 258 325 405 478
#
# _framework density 25.208300000000001
#
# number of rings (size 3 to 8) (size 9 to 14) (size 15 to 20)
#    0.000    0.800    4.000    2.400    9.333    0.533 
#    4.800    0.000    0.000    0.000    0.000    0.000 
#    0.000    0.000    0.000    0.000    0.000    0.000 
#
# Total GULP energy -167156.641124 kJ/mol
# GULP energy per Si atom -5571.888037 kJ/mol
# Density = 2.515093 g / cm^3
# Si number density = 25.208300 Si / 1000 Ang^3
#
#
#
# Elastic Constant Matrix: (Units=GPa)
#
#
# Indices 1 2 3 4 5 6 
#
# 1 48.4491 27.8795 0.4288 0.0000 0.0000 0.0000
# 2 27.8795 168.8512 35.0974 0.0000 0.0000 0.0000
# 3 0.4288 35.0974 120.5373 0.0000 0.0000 0.0000
# 4 0.0000 0.0000 0.0000 43.9330 0.0000 0.0000
# 5 0.0000 0.0000 0.0000 0.0000 28.5121 0.0000
# 6 0.0000 0.0000 0.0000 0.0000 0.0000 22.4403
#
#
#
# Elastic Compliance Matrix: (Units=1/GPa)
#
#
# Indices 1 2 3 4 5 6 
#
# 1 0.022940 -0.004014 0.001087 0.000000 0.000000 0.000000
# 2 -0.004014 0.007006 -0.002026 0.000000 0.000000 0.000000
# 3 0.001087 -0.002026 0.008882 0.000000 0.000000 0.000000
# 4 0.000000 0.000000 0.000000 0.022762 0.000000 0.000000
# 5 0.000000 0.000000 0.000000 0.000000 0.035073 0.000000
# 6 0.000000 0.000000 0.000000 0.000000 0.000000 0.044563
#
#
# Mechanical properties :
#
#
# Convention : Reuss Voigt Hill
#
# Bulk Modulus (GPa) = 34.57356 51.62768 43.10062
# Shear Modulus (GPa) = 31.09993 37.27253 34.18623
#
# Velocity S-wave (km/s) = 3.51624 3.84940 3.68659
# Velocity P-wave (km/s) = 5.49820 6.34682 5.93769
#
# Compressibility (1/GPa) = 0.02892383
#
# Stress axis : x y z
#
# Youngs Moduli (GPa) = 43.59158 142.73173 112.58523
#
# Poissons Ratio (x) = 0.57288 -0.12239
# Poissons Ratio (y) = 0.17496 0.22807
# Poissons Ratio (z) = -0.04739 0.28914
#
# Static dielectric constant tensor:
#      x y z
#    x 2.209530 0.000000 0.000000 
#    y 0.000000 1.966530 0.000000 
#    z 0.000000 0.000000 2.015100 
# 
# From -- ./inp_files/26229.got.cif
#   From: 2010.05.17/outbox.cif.g08.bks.cpg/sg20_14_cif.got.tgz:26229.got - 2010.06.03 22:52:26.
