data_PCOD9321603
_publ_section_title
;
Structure prediction by ZEFSAII (Michael W. Deem and Ramdas Pophale) SiO2 
 PCOD9321603
Probable space group: C 2 2 21
;
_chemical_formula_sum "Si O2"
_cell_formula_units_Z 40
_cell_length_a 19.073644
_cell_length_b 10.494614
_cell_length_c 7.967262
_cell_angle_alpha 90.000000
_cell_angle_beta 90.000000
_cell_angle_gamma 90.000000
_cell_volume 1594.811068
_symmetry_space_group_name_H-M "C 2 2 21"
_symmetry_group_IT_number 20
_symmetry_cell_setting 'orthorhombic'
loop_
_space_group_symop_operation_xyz
x,y,z
-x,-y,1/2+z
x,-y,-z
-x,y,1/2-z
1/2+x,1/2+y,z
1/2-x,1/2-y,1/2+z
1/2+x,1/2-y,-z
1/2-x,1/2+y,1/2-z
loop_
_atom_site_type_symbol
_atom_site_label
_atom_site_fract_x
_atom_site_fract_y
_atom_site_fract_z
Si Si1 0.996791 0.000000 0.000000
Si Si2 0.209966 0.068806 0.685031
Si Si3 0.407941 0.273044 0.068021
Si Si4 0.000000 0.558944 0.250000
Si Si5 0.361126 0.092801 0.648389
Si Si6 0.114939 0.146037 0.185723
O O1 0.948062 0.905561 0.105068
O O2 0.045406 0.089554 0.108727
O O3 0.166327 0.201119 0.660193
O O4 0.288643 0.089880 0.752920
O O5 0.205491 0.000000 0.500000
O O6 0.170243 0.966264 0.799361
O O7 0.457856 0.156492 0.123993
O O8 0.396107 0.283692 0.866814
O O9 0.936125 0.464150 0.297116
O O10 0.365300 0.234100 0.573707
O O11 0.342598 0.000000 0.500000
#
# Coordination Sequence:
#
# PCOD9321603 Si02
#       6
#     4   8   8   4   8   8
#     4  12  22  40  72 106 128 184 234 290 354 408
#     4   9  21  45  68  96 130 186 227 286 349 412
#     4  11  23  43  71 101 140 176 235 295 347 425
#     4  12  28  40  72 106 138 186 236 282 372 422
#     4  11  27  45  66  99 145 183 228 290 358 430
#     4  11  24  44  72  97 144 177 234 293 352 421
#
# _framework density 25.081339
#
# number of rings (size 3 to 8) (size 9 to 14) (size 15 to 20)
#    0.000    1.200    3.000    3.000    8.400    0.000 
#    7.200    0.000    0.000    0.000    0.000    0.000 
#    0.000    0.000    0.000    0.000    0.000    0.000 
#
# Total GULP energy -111636.255232 kJ/mol
# GULP energy per Si atom -5581.812762 kJ/mol
# Density = 2.502425 g / cm^3
# Si number density = 25.081339 Si / 1000 Ang^3
#
#
#
# Elastic Constant Matrix: (Units=GPa)
#
#
# Indices 1 2 3 4 5 6 
#
# 1 210.1286 50.0707 17.7776 0.0000 0.0000 0.0000
# 2 50.0707 91.0473 5.1996 0.0000 0.0000 0.0000
# 3 17.7776 5.1996 42.2490 0.0000 0.0000 0.0000
# 4 0.0000 0.0000 0.0000 23.3009 0.0000 0.0000
# 5 0.0000 0.0000 0.0000 0.0000 26.5215 0.0000
# 6 0.0000 0.0000 0.0000 0.0000 0.0000 39.0490
#
#
#
# Elastic Compliance Matrix: (Units=1/GPa)
#
#
# Indices 1 2 3 4 5 6 
#
# 1 0.005641 -0.002987 -0.002006 0.000000 0.000000 0.000000
# 2 -0.002987 0.012643 -0.000299 0.000000 0.000000 0.000000
# 3 -0.002006 -0.000299 0.024550 0.000000 0.000000 0.000000
# 4 0.000000 0.000000 0.000000 0.042917 0.000000 0.000000
# 5 0.000000 0.000000 0.000000 0.000000 0.037705 0.000000
# 6 0.000000 0.000000 0.000000 0.000000 0.000000 0.025609
#
#
# Mechanical properties :
#
#
# Convention : Reuss Voigt Hill
#
# Bulk Modulus (GPa) = 31.00823 54.39119 42.69971
# Shear Modulus (GPa) = 29.34291 35.79941 32.57116
#
# Velocity S-wave (km/s) = 3.42411 3.78210 3.60755
# Velocity P-wave (km/s) = 5.29363 6.38791 5.86634
#
# Compressibility (1/GPa) = 0.03224951
#
# Stress axis : x y z
#
# Youngs Moduli (GPa) = 177.28775 79.09343 40.73319
#
# Poissons Ratio (x) = 0.23629 0.08170
# Poissons Ratio (y) = 0.52963 0.01218
# Poissons Ratio (z) = 0.35560 0.02365
#
# Static dielectric constant tensor:
#      x y z
#    x 2.060280 0.000000 0.000000 
#    y 0.000000 1.932820 0.000000 
#    z 0.000000 0.000000 2.135780 
# 
# From -- ./inp_files/9172.got.cif
#   From: 2010.05.17/outbox.cif.g08.bks.cpg/sg20_5_cif.got.tgz:9172.got - 2010.06.03 22:52:26.
