data_PCOD9321165
_publ_section_title
;
Structure prediction by ZEFSAII (Michael W. Deem and Ramdas Pophale) SiO2 
 PCOD9321165
Probable space group: C 2 2 21
;
_chemical_formula_sum "Si O2"
_cell_formula_units_Z 60
_cell_length_a 11.514390
_cell_length_b 9.362105
_cell_length_c 26.263385
_cell_angle_alpha 90.000000
_cell_angle_beta 90.000000
_cell_angle_gamma 90.000000
_cell_volume 2831.164754
_symmetry_space_group_name_H-M "C 2 2 21"
_symmetry_group_IT_number 20
_symmetry_cell_setting 'orthorhombic'
loop_
_space_group_symop_operation_xyz
x,y,z
-x,-y,1/2+z
x,-y,-z
-x,y,1/2-z
1/2+x,1/2+y,z
1/2-x,1/2-y,1/2+z
1/2+x,1/2-y,-z
1/2-x,1/2+y,1/2-z
loop_
_atom_site_type_symbol
_atom_site_label
_atom_site_fract_x
_atom_site_fract_y
_atom_site_fract_z
Si Si1 0.160597 0.786053 0.213603
Si Si2 0.680052 0.299662 0.330686
Si Si3 0.103932 0.500000 0.500000
Si Si4 0.277077 0.611899 0.416108
Si Si5 0.527061 0.492768 0.146102
Si Si6 0.882361 0.404039 0.457282
Si Si7 0.564686 0.777435 0.303628
Si Si8 0.600581 0.996585 0.845174
O O1 0.140564 0.766019 0.273542
O O2 0.102055 0.930552 0.193241
O O3 0.298439 0.785384 0.204209
O O4 0.110262 0.656702 0.180203
O O5 0.720564 0.164849 0.363185
O O6 0.578846 0.383469 0.360301
O O7 0.790307 0.406656 0.326612
O O8 0.184378 0.542273 0.453172
O O9 0.011270 0.381519 0.480724
O O10 0.385160 0.512262 0.400696
O O11 0.323620 0.756619 0.442477
O O12 0.473263 0.645628 0.160792
O O13 0.819491 0.500000 0.500000
O O14 0.893920 0.497854 0.406124
O O15 0.500000 0.756487 0.250000
O O16 0.514131 0.921389 0.327617
#
# Coordination Sequence:
#
# PCOD9321165 Si02
#       8
#     8   8   4   8   8   8   8   8
#     4  12  27  40  70 105 143 195 236 275 350 416
#     4  11  24  45  66 104 148 184 238 286 341 431
#     4  10  26  46  76  96 134 176 242 296 370 414
#     4  11  25  47  70 101 137 185 230 302 360 423
#     4  12  26  42  69 101 145 183 238 283 346 422
#     4   9  23  49  69  97 137 170 240 303 350 417
#     4  12  23  43  68  96 145 187 227 284 338 410
#     4  11  24  45  69 101 139 191 233 291 357 404
#
# _framework density 21.192689999999999
#
# number of rings (size 3 to 8) (size 9 to 14) (size 15 to 20)
#    0.400    0.533    5.333    1.200    5.600    3.200 
#    4.800    0.000    0.000    0.000    0.000    0.000 
#    0.000    0.000    0.000    0.000    0.000    0.000 
#
# Total GULP energy -167811.608054 kJ/mol
# GULP energy per Si atom -5593.720268 kJ/mol
# Density = 2.114445 g / cm^3
# Si number density = 21.192690 Si / 1000 Ang^3
#
#
#
# Elastic Constant Matrix: (Units=GPa)
#
#
# Indices 1 2 3 4 5 6 
#
# 1 86.0537 27.2109 -17.3254 0.0000 0.0000 0.0000
# 2 27.2109 44.6197 -5.0710 0.0000 0.0000 0.0000
# 3 -17.3254 -5.0710 28.7670 0.0000 0.0000 0.0000
# 4 0.0000 0.0000 0.0000 19.4796 0.0000 0.0000
# 5 0.0000 0.0000 0.0000 0.0000 44.5586 0.0000
# 6 0.0000 0.0000 0.0000 0.0000 0.0000 26.8306
#
#
#
# Elastic Compliance Matrix: (Units=1/GPa)
#
#
# Indices 1 2 3 4 5 6 
#
# 1 0.016058 -0.008872 0.008107 0.000000 0.000000 0.000000
# 2 -0.008872 0.027771 -0.000448 0.000000 0.000000 0.000000
# 3 0.008107 -0.000448 0.039566 0.000000 0.000000 0.000000
# 4 0.000000 0.000000 0.000000 0.051336 0.000000 0.000000
# 5 0.000000 0.000000 0.000000 0.000000 0.022442 0.000000
# 6 0.000000 0.000000 0.000000 0.000000 0.000000 0.037271
#
#
# Mechanical properties :
#
#
# Convention : Reuss Voigt Hill
#
# Bulk Modulus (GPa) = 12.34999 18.78550 15.56775
# Shear Modulus (GPa) = 22.33559 28.48216 25.40887
#
# Velocity S-wave (km/s) = 3.24995 3.66999 3.46634
# Velocity P-wave (km/s) = 4.46352 5.18091 4.83553
#
# Compressibility (1/GPa) = 0.08097174
#
# Stress axis : x y z
#
# Youngs Moduli (GPa) = 62.27351 36.00879 25.27425
#
# Poissons Ratio (x) = 0.31945 -0.20491
# Poissons Ratio (y) = 0.55246 0.01131
# Poissons Ratio (z) = -0.50488 0.01612
#
# Static dielectric constant tensor:
#      x y z
#    x 1.774990 0.000000 0.000000 
#    y 0.000000 1.751040 0.000000 
#    z 0.000000 0.000000 1.755060 
# 
# From -- ./inp_files/30324.got.cif
#   From: 2010.05.17/outbox.cif.g08.bks.cpg/sg20_16_cif.got.tgz:30324.got - 2010.06.03 22:52:26.
