data_PCOD9321776
_publ_section_title
;
Structure prediction by ZEFSAII (Michael W. Deem and Ramdas Pophale) SiO2 
 PCOD9321776
Probable space group: C 2 2 21
;
_chemical_formula_sum "Si O2"
_cell_formula_units_Z 56
_cell_length_a 12.491136
_cell_length_b 17.300889
_cell_length_c 11.630026
_cell_angle_alpha 90.000000
_cell_angle_beta 90.000000
_cell_angle_gamma 90.000000
_cell_volume 2513.338838
_symmetry_space_group_name_H-M "C 2 2 21"
_symmetry_group_IT_number 20
_symmetry_cell_setting 'orthorhombic'
loop_
_space_group_symop_operation_xyz
x,y,z
-x,-y,1/2+z
x,-y,-z
-x,y,1/2-z
1/2+x,1/2+y,z
1/2-x,1/2-y,1/2+z
1/2+x,1/2-y,-z
1/2-x,1/2+y,1/2-z
loop_
_atom_site_type_symbol
_atom_site_label
_atom_site_fract_x
_atom_site_fract_y
_atom_site_fract_z
Si Si1 0.500000 0.436438 0.250000
Si Si2 0.628008 0.443122 0.593424
Si Si3 0.960901 0.806396 0.571847
Si Si4 0.367232 0.082707 0.894768
Si Si5 0.671785 0.321961 0.140232
Si Si6 0.237423 0.828316 0.759608
Si Si7 0.922940 0.412618 0.861734
Si Si8 0.000000 0.678340 0.750000
O O1 0.449191 0.496248 0.159001
O O2 0.596595 0.379400 0.213202
O O3 0.679953 0.500000 0.500000
O O4 0.547978 0.373768 0.553236
O O5 0.715125 0.396647 0.668140
O O6 0.907027 0.783815 0.452613
O O7 0.866781 0.831474 0.659656
O O8 0.006641 0.733885 0.640411
O O9 0.255773 0.122557 0.924490
O O10 0.403208 0.120763 0.774581
O O11 0.357677 0.992699 0.869226
O O12 0.450856 0.094505 0.001560
O O13 0.738758 0.254505 0.202124
O O14 0.343177 0.844216 0.831857
O O15 0.000000 0.417924 0.750000
#
# Coordination Sequence:
#
# PCOD9321776 Si02
#       8
#     4   8   8   8   8   8   8   4
#     4  12  25  42  75 110 140 178 248 298 351 436
#     4  12  24  46  73 103 140 188 243 296 356 427
#     4  12  23  43  73  99 139 183 233 288 361 423
#     4  11  24  46  74  95 138 186 236 285 352 434
#     4  12  27  43  71 109 139 188 228 297 362 428
#     4  12  25  46  68 100 144 182 231 291 357 423
#     4  11  26  46  69 100 136 187 239 288 350 418
#     4  12  23  46  69 102 138 186 236 282 355 420
#
# _framework density 22.281117999999999
#
# number of rings (size 3 to 8) (size 9 to 14) (size 15 to 20)
#    0.000    0.286    7.857    0.857    3.000    1.143 
#    5.143    0.000    0.000    0.000    0.000    0.000 
#    0.000    0.000    0.000    0.000    0.000    0.000 
#
# Total GULP energy -156094.395061 kJ/mol
# GULP energy per Si atom -5574.799824 kJ/mol
# Density = 2.223041 g / cm^3
# Si number density = 22.281118 Si / 1000 Ang^3
#
#
#
# Elastic Constant Matrix: (Units=GPa)
#
#
# Indices 1 2 3 4 5 6 
#
# 1 31.1205 5.1203 6.3194 0.0000 0.0000 0.0000
# 2 5.1203 104.6963 18.3925 0.0000 0.0000 0.0000
# 3 6.3194 18.3925 36.3095 0.0000 0.0000 0.0000
# 4 0.0000 0.0000 0.0000 23.9224 0.0000 0.0000
# 5 0.0000 0.0000 0.0000 0.0000 34.8530 0.0000
# 6 0.0000 0.0000 0.0000 0.0000 0.0000 34.3325
#
#
#
# Elastic Compliance Matrix: (Units=1/GPa)
#
#
# Indices 1 2 3 4 5 6 
#
# 1 0.033353 -0.000671 -0.005465 0.000000 0.000000 0.000000
# 2 -0.000671 0.010498 -0.005201 0.000000 0.000000 0.000000
# 3 -0.005465 -0.005201 0.031127 0.000000 0.000000 0.000000
# 4 0.000000 0.000000 0.000000 0.041802 0.000000 0.000000
# 5 0.000000 0.000000 0.000000 0.000000 0.028692 0.000000
# 6 0.000000 0.000000 0.000000 0.000000 0.000000 0.029127
#
#
# Mechanical properties :
#
#
# Convention : Reuss Voigt Hill
#
# Bulk Modulus (GPa) = 19.11904 25.75454 22.43679
# Shear Modulus (GPa) = 23.28755 28.10786 25.69771
#
# Velocity S-wave (km/s) = 3.23642 3.55563 3.39977
# Velocity P-wave (km/s) = 4.75030 5.33298 5.05005
#
# Compressibility (1/GPa) = 0.05230388
#
# Stress axis : x y z
#
# Youngs Moduli (GPa) = 29.98208 95.25690 32.12686
#
# Poissons Ratio (x) = 0.06393 0.17557
# Poissons Ratio (y) = 0.02012 0.16709
# Poissons Ratio (z) = 0.16385 0.49542
#
# Static dielectric constant tensor:
#      x y z
#    x 1.847040 0.000000 0.000000 
#    y 0.000000 1.780230 0.000000 
#    z 0.000000 0.000000 1.953970 
# 
# From -- ./inp_files/15188.got.cif
#   From: 2010.05.17/outbox.cif.g08.bks.cpg/sg20_8_cif.got.tgz:15188.got - 2010.06.03 22:52:26.
