data_PCOD9321069
_publ_section_title
;
Structure prediction by ZEFSAII (Michael W. Deem and Ramdas Pophale) SiO2 
 PCOD9321069
Probable space group: C 2 2 21
;
_chemical_formula_sum "Si O2"
_cell_formula_units_Z 48
_cell_length_a 34.383529
_cell_length_b 8.533321
_cell_length_c 7.738686
_cell_angle_alpha 90.000000
_cell_angle_beta 90.000000
_cell_angle_gamma 90.000000
_cell_volume 2270.574506
_symmetry_space_group_name_H-M "C 2 2 21"
_symmetry_group_IT_number 20
_symmetry_cell_setting 'orthorhombic'
loop_
_space_group_symop_operation_xyz
x,y,z
-x,-y,1/2+z
x,-y,-z
-x,y,1/2-z
1/2+x,1/2+y,z
1/2-x,1/2-y,1/2+z
1/2+x,1/2-y,-z
1/2-x,1/2+y,1/2-z
loop_
_atom_site_type_symbol
_atom_site_label
_atom_site_fract_x
_atom_site_fract_y
_atom_site_fract_z
Si Si1 0.609129 0.500949 0.795955
Si Si2 0.439898 0.000000 0.000000
Si Si3 0.264767 0.500000 0.000000
Si Si4 0.171299 0.200558 0.380549
Si Si5 0.876392 0.657918 0.178265
Si Si6 0.797700 0.501687 0.788441
Si Si7 0.035437 0.844242 0.618166
O O1 0.649147 0.439218 0.712376
O O2 0.605661 0.682020 0.745968
O O3 0.574994 0.393774 0.717981
O O4 0.609903 0.500000 0.000000
O O5 0.410970 0.965743 0.838679
O O6 0.460383 0.169752 0.968344
O O7 0.294907 0.643893 0.990224
O O8 0.238886 0.532191 0.168495
O O9 0.139392 0.296783 0.487431
O O10 0.190828 0.318833 0.248320
O O11 0.836277 0.597145 0.260953
O O12 0.791416 0.500000 0.000000
O O13 0.000000 0.833199 0.750000
O O14 0.028414 0.000000 0.500000
#
# Coordination Sequence:
#
# PCOD9321069 Si02
#       7
#     8   4   4   8   8   8   8
#     4  12  24  42  74 106 140 190 244 299 363 453
#     4  12  22  48  84 101 144 198 246 293 368 440
#     4  12  26  38  66  93 142 188 242 313 384 444
#     4  11  22  42  62  93 132 186 244 295 371 434
#     4  11  20  46  72  97 134 190 243 304 358 432
#     4  10  25  42  63  94 137 182 249 313 375 440
#     4  12  26  49  78 113 153 188 235 298 372 441
#
# _framework density 21.140025999999999
#
# number of rings (size 3 to 8) (size 9 to 14) (size 15 to 20)
#    0.000    0.667    7.500    0.500    7.000    1.333 
#    3.000    0.000    0.000    0.000    0.000    0.000 
#    0.000    0.000    0.000    0.000    0.000    0.000 
#
# Total GULP energy -133758.646219 kJ/mol
# GULP energy per Si atom -5573.276926 kJ/mol
# Density = 2.109191 g / cm^3
# Si number density = 21.140026 Si / 1000 Ang^3
#
#
#
# Elastic Constant Matrix: (Units=GPa)
#
#
# Indices 1 2 3 4 5 6 
#
# 1 112.6855 49.9208 44.9244 0.0000 0.0000 0.0000
# 2 49.9208 141.5449 27.5822 0.0000 0.0000 0.0000
# 3 44.9244 27.5822 67.2387 0.0000 0.0000 0.0000
# 4 0.0000 0.0000 0.0000 9.2403 0.0000 0.0000
# 5 0.0000 0.0000 0.0000 0.0000 5.3364 0.0000
# 6 0.0000 0.0000 0.0000 0.0000 0.0000 14.9924
#
#
#
# Elastic Compliance Matrix: (Units=1/GPa)
#
#
# Indices 1 2 3 4 5 6 
#
# 1 0.013324 -0.003222 -0.007580 0.000000 0.000000 0.000000
# 2 -0.003222 0.008458 -0.001317 0.000000 0.000000 0.000000
# 3 -0.007580 -0.001317 0.020477 0.000000 0.000000 0.000000
# 4 0.000000 0.000000 0.000000 0.108221 0.000000 0.000000
# 5 0.000000 0.000000 0.000000 0.000000 0.187393 0.000000
# 6 0.000000 0.000000 0.000000 0.000000 0.000000 0.066700
#
#
# Mechanical properties :
#
#
# Convention : Reuss Voigt Hill
#
# Bulk Modulus (GPa) = 55.49210 62.92488 59.20849
# Shear Modulus (GPa) = 11.49904 19.18327 15.34116
#
# Velocity S-wave (km/s) = 2.33480 3.01564 2.69679
# Velocity P-wave (km/s) = 5.79441 6.47733 6.14536
#
# Compressibility (1/GPa) = 0.01802058
#
# Stress axis : x y z
#
# Youngs Moduli (GPa) = 75.05466 118.23375 48.83472
#
# Poissons Ratio (x) = 0.38094 0.37018
# Poissons Ratio (y) = 0.24182 0.06431
# Poissons Ratio (z) = 0.56894 0.15570
#
# Static dielectric constant tensor:
#      x y z
#    x 1.774860 0.000000 0.000000 
#    y 0.000000 2.007910 0.000000 
#    z 0.000000 0.000000 2.105160 
# 
# From -- ./inp_files/6594.got.cif
#   From: 2010.05.17/outbox.cif.g08.bks.cpg/sg20_4_cif.got.tgz:6594.got - 2010.06.03 22:52:26.
