data_PCOD9321529
_publ_section_title
;
Structure prediction by ZEFSAII (Michael W. Deem and Ramdas Pophale) SiO2 
 PCOD9321529
Probable space group: C 2 2 21
;
_chemical_formula_sum "Si O2"
_cell_formula_units_Z 32
_cell_length_a 14.074029
_cell_length_b 9.492520
_cell_length_c 9.783514
_cell_angle_alpha 90.000000
_cell_angle_beta 90.000000
_cell_angle_gamma 90.000000
_cell_volume 1307.057921
_symmetry_space_group_name_H-M "C 2 2 21"
_symmetry_group_IT_number 20
_symmetry_cell_setting 'orthorhombic'
loop_
_space_group_symop_operation_xyz
x,y,z
-x,-y,1/2+z
x,-y,-z
-x,y,1/2-z
1/2+x,1/2+y,z
1/2-x,1/2-y,1/2+z
1/2+x,1/2-y,-z
1/2-x,1/2+y,1/2-z
loop_
_atom_site_type_symbol
_atom_site_label
_atom_site_fract_x
_atom_site_fract_y
_atom_site_fract_z
Si Si1 0.893281 0.475902 0.797746
Si Si2 0.639258 0.333941 0.969068
Si Si3 0.732226 0.348723 0.669834
Si Si4 0.078519 0.740791 0.511515
O O1 0.806183 0.476429 0.693521
O O2 0.886671 0.606383 0.899520
O O3 0.000000 0.491990 0.750000
O O4 0.894424 0.318445 0.863178
O O5 0.687767 0.317199 0.819956
O O6 0.533199 0.268377 0.972777
O O7 0.632664 0.500000 0.000000
O O8 0.702523 0.261764 0.086247
O O9 0.640481 0.365492 0.573642
#
# Coordination Sequence:
#
# PCOD9321529 Si02
#       4
#     8   8   8   8
#     4  11  22  45  76 105 144 196 255 310 373 462
#     4  12  27  51  76 116 161 197 257 320 385 464
#     4  12  24  47  76 111 152 201 256 317 380 456
#     4  11  25  48  72 108 151 202 255 308 383 455
#
# _framework density 24.482465000000001
#
# number of rings (size 3 to 8) (size 9 to 14) (size 15 to 20)
#    0.000    0.500    5.000    3.750    0.000    0.000 
#   13.500    0.000    0.000    0.000    0.000    0.000 
#    0.000    0.000    0.000    0.000    0.000    0.000 
#
# Total GULP energy -89396.625413 kJ/mol
# GULP energy per Si atom -5587.289088 kJ/mol
# Density = 2.442674 g / cm^3
# Si number density = 24.482465 Si / 1000 Ang^3
#
#
#
# Elastic Constant Matrix: (Units=GPa)
#
#
# Indices 1 2 3 4 5 6 
#
# 1 218.6482 40.7361 36.4805 0.0000 0.0000 0.0000
# 2 40.7361 96.3711 58.8263 0.0000 0.0000 0.0000
# 3 36.4805 58.8263 74.9797 0.0000 0.0000 0.0000
# 4 0.0000 0.0000 0.0000 28.0846 0.0000 0.0000
# 5 0.0000 0.0000 0.0000 0.0000 52.0343 0.0000
# 6 0.0000 0.0000 0.0000 0.0000 0.0000 -47.8739
#
#
#
# Elastic Compliance Matrix: (Units=1/GPa)
#
#
# Indices 1 2 3 4 5 6 
#
# 1 0.005051 -0.001219 -0.001502 0.000000 0.000000 0.000000
# 2 -0.001219 0.020207 -0.015261 0.000000 0.000000 0.000000
# 3 -0.001502 -0.015261 0.026041 0.000000 0.000000 0.000000
# 4 0.000000 0.000000 0.000000 0.035607 0.000000 0.000000
# 5 0.000000 0.000000 0.000000 0.000000 0.019218 0.000000
# 6 0.000000 0.000000 0.000000 0.000000 0.000000 -0.020888
#
#
# Mechanical properties :
#
#
# Convention : Reuss Voigt Hill
#
# Bulk Modulus (GPa) = 65.20214 73.56497 69.38355
# Shear Modulus (GPa) = 39.58527 23.37941 31.48234
#
# Velocity S-wave (km/s) = 4.02541 3.09357 3.58985
# Velocity P-wave (km/s) = 6.94948 6.54779 6.75162
#
# Compressibility (1/GPa) = 0.01533692
#
# Stress axis : x y z
#
# Youngs Moduli (GPa) = 197.97645 49.48757 38.40155
#
# Poissons Ratio (x) = 0.06030 0.05766
# Poissons Ratio (y) = 0.24124 0.58604
# Poissons Ratio (z) = 0.29727 0.75522
#
# Static dielectric constant tensor:
#      x y z
#    x 1.956910 0.000000 0.000000 
#    y 0.000000 2.044080 0.000000 
#    z 0.000000 0.000000 2.038400 
# 
# From -- ./inp_files/14758.got.cif
#   From: 2010.05.17/outbox.cif.g08.bks.cpg/sg20_8_cif.got.tgz:14758.got - 2010.06.03 22:52:26.
