data_PCOD9321222
_publ_section_title
;
Structure prediction by ZEFSAII (Michael W. Deem and Ramdas Pophale) SiO2 
 PCOD9321222
Probable space group: C 2 2 21
;
_chemical_formula_sum "Si O2"
_cell_formula_units_Z 48
_cell_length_a 5.445582
_cell_length_b 13.256137
_cell_length_c 27.013211
_cell_angle_alpha 90.000000
_cell_angle_beta 90.000000
_cell_angle_gamma 90.000000
_cell_volume 1950.012955
_symmetry_space_group_name_H-M "C 2 2 21"
_symmetry_group_IT_number 20
_symmetry_cell_setting 'orthorhombic'
loop_
_space_group_symop_operation_xyz
x,y,z
-x,-y,1/2+z
x,-y,-z
-x,y,1/2-z
1/2+x,1/2+y,z
1/2-x,1/2-y,1/2+z
1/2+x,1/2-y,-z
1/2-x,1/2+y,1/2-z
loop_
_atom_site_type_symbol
_atom_site_label
_atom_site_fract_x
_atom_site_fract_y
_atom_site_fract_z
Si Si1 0.021375 0.358452 0.934907
Si Si2 0.437270 0.435107 0.127994
Si Si3 0.000000 0.512481 0.250000
Si Si4 0.118905 0.851104 0.470786
Si Si5 0.801341 0.132075 0.168460
Si Si6 0.273586 0.000000 0.000000
Si Si7 0.579658 0.858042 0.329049
O O1 0.125812 0.357608 0.879759
O O2 0.870012 0.254800 0.942545
O O3 0.214649 0.349551 0.980772
O O4 0.895597 0.463864 0.948997
O O5 0.340233 0.434096 0.071819
O O6 0.486407 0.546830 0.148569
O O7 0.693132 0.375305 0.133036
O O8 0.198603 0.389130 0.156189
O O9 0.160354 0.583540 0.214688
O O10 0.147958 0.433319 0.284255
O O11 0.860465 0.894722 0.488621
O O12 0.915210 0.239301 0.181752
#
# Coordination Sequence:
#
# PCOD9321222 Si02
#       7
#     8   8   4   8   8   4   8
#     4  12  26  46  74 113 155 210 256 317 390 467
#     4  11  27  47  79 114 158 199 260 311 387 473
#     4  10  28  50  80 116 152 198 276 328 398 468
#     4  12  26  45  74 113 155 207 256 317 379 479
#     4  11  26  49  80 110 156 207 261 328 403 459
#     4  12  26  44  76 102 162 200 258 306 386 458
#     4  11  27  50  77 114 150 204 255 331 385 466
#
# _framework density 24.615219
#
# number of rings (size 3 to 8) (size 9 to 14) (size 15 to 20)
#    0.000    0.667    3.333    2.500    9.333   10.667 
#    0.000    0.000    0.000    0.000    0.000    0.000 
#    0.000    0.000    0.000    0.000    0.000    0.000 
#
# Total GULP energy -133982.862644 kJ/mol
# GULP energy per Si atom -5582.619277 kJ/mol
# Density = 2.455919 g / cm^3
# Si number density = 24.615219 Si / 1000 Ang^3
#
#
#
# Elastic Constant Matrix: (Units=GPa)
#
#
# Indices 1 2 3 4 5 6 
#
# 1 43.4610 20.6027 -0.9541 0.0000 0.0000 0.0000
# 2 20.6027 128.2195 5.2162 0.0000 0.0000 0.0000
# 3 -0.9541 5.2162 104.0190 0.0000 0.0000 0.0000
# 4 0.0000 0.0000 0.0000 39.7827 0.0000 0.0000
# 5 0.0000 0.0000 0.0000 0.0000 39.4656 0.0000
# 6 0.0000 0.0000 0.0000 0.0000 0.0000 34.1622
#
#
#
# Elastic Compliance Matrix: (Units=1/GPa)
#
#
# Indices 1 2 3 4 5 6 
#
# 1 0.024926 -0.004023 0.000430 0.000000 0.000000 0.000000
# 2 -0.004023 0.008464 -0.000461 0.000000 0.000000 0.000000
# 3 0.000430 -0.000461 0.009641 0.000000 0.000000 0.000000
# 4 0.000000 0.000000 0.000000 0.025137 0.000000 0.000000
# 5 0.000000 0.000000 0.000000 0.000000 0.025339 0.000000
# 6 0.000000 0.000000 0.000000 0.000000 0.000000 0.029272
#
#
# Mechanical properties :
#
#
# Convention : Reuss Voigt Hill
#
# Bulk Modulus (GPa) = 28.63425 36.15881 32.39653
# Shear Modulus (GPa) = 35.08131 39.40440 37.24286
#
# Velocity S-wave (km/s) = 3.77926 4.00536 3.89395
# Velocity P-wave (km/s) = 5.54092 6.00933 5.77987
#
# Compressibility (1/GPa) = 0.03492322
#
# Stress axis : x y z
#
# Youngs Moduli (GPa) = 40.11955 118.14379 103.72682
#
# Poissons Ratio (x) = 0.47525 -0.04464
# Poissons Ratio (y) = 0.16139 0.04785
# Poissons Ratio (z) = -0.01727 0.05451
#
# Static dielectric constant tensor:
#      x y z
#    x 2.108870 0.000000 0.000000 
#    y 0.000000 1.935120 0.000000 
#    z 0.000000 0.000000 2.008080 
# 
# From -- ./inp_files/29848.got.cif
#   From: 2010.05.17/outbox.cif.g08.bks.cpg/sg20_15_cif.got.tgz:29848.got - 2010.06.03 22:52:26.
