data_PCOD9321136
_publ_section_title
;
Structure prediction by ZEFSAII (Michael W. Deem and Ramdas Pophale) SiO2 
 PCOD9321136
Probable space group: C 2 2 21
;
_chemical_formula_sum "Si O2"
_cell_formula_units_Z 56
_cell_length_a 21.950740
_cell_length_b 6.162616
_cell_length_c 21.892751
_cell_angle_alpha 90.000000
_cell_angle_beta 90.000000
_cell_angle_gamma 90.000000
_cell_volume 2961.519595
_symmetry_space_group_name_H-M "C 2 2 21"
_symmetry_group_IT_number 20
_symmetry_cell_setting 'orthorhombic'
loop_
_space_group_symop_operation_xyz
x,y,z
-x,-y,1/2+z
x,-y,-z
-x,y,1/2-z
1/2+x,1/2+y,z
1/2-x,1/2-y,1/2+z
1/2+x,1/2-y,-z
1/2-x,1/2+y,1/2-z
loop_
_atom_site_type_symbol
_atom_site_label
_atom_site_fract_x
_atom_site_fract_y
_atom_site_fract_z
Si Si1 0.474465 0.204032 0.653518
Si Si2 0.074063 0.654126 0.339067
Si Si3 0.992446 0.090512 0.934137
Si Si4 0.689041 0.787375 0.826577
Si Si5 0.600229 0.517203 0.246115
Si Si6 0.391995 0.906611 0.567804
Si Si7 0.815747 0.395961 0.211904
O O1 0.503363 0.386930 0.610831
O O2 0.442524 0.321280 0.709522
O O3 0.524404 0.030324 0.674032
O O4 0.424856 0.081056 0.611903
O O5 0.140486 0.553297 0.327320
O O6 0.056495 0.743291 0.405730
O O7 0.067845 0.854510 0.292589
O O8 0.058158 0.211981 0.936602
O O9 0.976426 0.000000 0.000000
O O10 0.634548 0.636820 0.801779
O O11 0.669167 0.846610 0.895139
O O12 0.751276 0.654322 0.818743
O O13 0.692415 0.989044 0.778457
O O14 0.649479 0.668172 0.279775
O O15 0.382160 0.000000 0.500000
#
# Coordination Sequence:
#
# PCOD9321136 Si02
#       7
#     8   8   8   8   8   8   8
#     4  11  22  40  62  96 131 165 205 272 327 395
#     4  10  26  38  59  99 129 171 215 264 322 395
#     4  11  22  40  65  92 127 175 212 262 336 393
#     4  11  22  39  66  95 123 174 219 263 333 379
#     4  11  22  40  61  96 131 169 209 264 331 385
#     4  11  22  39  64 101 125 160 221 271 325 390
#     4  11  22  40  62  93 130 171 217 270 317 399
#
# _framework density 18.909212
#
# number of rings (size 3 to 8) (size 9 to 14) (size 15 to 20)
#    0.000    1.143    5.714    0.857    0.000    3.429 
#    0.000    0.000    0.000    5.143    3.714    0.000 
#    0.000    0.000    0.000    0.000    0.000    0.000 
#
# Total GULP energy -156502.003943 kJ/mol
# GULP energy per Si atom -5589.357284 kJ/mol
# Density = 1.886617 g / cm^3
# Si number density = 18.909212 Si / 1000 Ang^3
#
#
#
# Elastic Constant Matrix: (Units=GPa)
#
#
# Indices 1 2 3 4 5 6 
#
# 1 91.1036 40.1551 79.0669 0.0000 0.0000 0.0000
# 2 40.1551 101.7740 57.6005 0.0000 0.0000 0.0000
# 3 79.0669 57.6005 131.5550 0.0000 0.0000 0.0000
# 4 0.0000 0.0000 0.0000 39.1328 0.0000 0.0000
# 5 0.0000 0.0000 0.0000 0.0000 21.0253 0.0000
# 6 0.0000 0.0000 0.0000 0.0000 0.0000 37.5349
#
#
#
# Elastic Compliance Matrix: (Units=1/GPa)
#
#
# Indices 1 2 3 4 5 6 
#
# 1 0.023157 -0.001675 -0.013185 0.000000 0.000000 0.000000
# 2 -0.001675 0.013184 -0.004766 0.000000 0.000000 0.000000
# 3 -0.013185 -0.004766 0.017612 0.000000 0.000000 0.000000
# 4 0.000000 0.000000 0.000000 0.025554 0.000000 0.000000
# 5 0.000000 0.000000 0.000000 0.000000 0.047562 0.000000
# 6 0.000000 0.000000 0.000000 0.000000 0.000000 0.026642
#
#
# Mechanical properties :
#
#
# Convention : Reuss Voigt Hill
#
# Bulk Modulus (GPa) = 68.01401 75.34196 71.67799
# Shear Modulus (GPa) = 25.27002 29.37930 27.32466
#
# Velocity S-wave (km/s) = 3.65963 3.94598 3.80550
# Velocity P-wave (km/s) = 7.34193 7.79048 7.56953
#
# Compressibility (1/GPa) = 0.01470285
#
# Stress axis : x y z
#
# Youngs Moduli (GPa) = 43.18263 75.85085 56.77816
#
# Poissons Ratio (x) = 0.12703 0.74861
# Poissons Ratio (y) = 0.07232 0.27060
# Poissons Ratio (z) = 0.56935 0.36150
#
# Static dielectric constant tensor:
#      x y z
#    x 1.661520 0.000000 0.000000 
#    y 0.000000 1.686170 0.000000 
#    z 0.000000 0.000000 1.657150 
# 
# From -- ./inp_files/27999.got.cif
#   From: 2010.05.17/outbox.cif.g08.bks.cpg/sg20_14_cif.got.tgz:27999.got - 2010.06.03 22:52:26.
