data_PCOD9321279
_publ_section_title
;
Structure prediction by ZEFSAII (Michael W. Deem and Ramdas Pophale) SiO2 
 PCOD9321279
Probable space group: C 2 2 21
;
_chemical_formula_sum "Si O2"
_cell_formula_units_Z 48
_cell_length_a 12.492457
_cell_length_b 8.243045
_cell_length_c 18.758705
_cell_angle_alpha 90.000000
_cell_angle_beta 90.000000
_cell_angle_gamma 90.000000
_cell_volume 1931.694253
_symmetry_space_group_name_H-M "C 2 2 21"
_symmetry_group_IT_number 20
_symmetry_cell_setting 'orthorhombic'
loop_
_space_group_symop_operation_xyz
x,y,z
-x,-y,1/2+z
x,-y,-z
-x,y,1/2-z
1/2+x,1/2+y,z
1/2-x,1/2-y,1/2+z
1/2+x,1/2-y,-z
1/2-x,1/2+y,1/2-z
loop_
_atom_site_type_symbol
_atom_site_label
_atom_site_fract_x
_atom_site_fract_y
_atom_site_fract_z
Si Si1 0.892271 0.645600 0.286029
Si Si2 0.869850 0.548911 0.581379
Si Si3 0.371538 0.343326 0.087065
Si Si4 0.783030 0.533370 0.158107
Si Si5 0.447466 0.494917 0.681333
Si Si6 0.906799 0.658481 0.947619
O O1 0.891928 0.601750 0.368033
O O2 0.800293 0.553465 0.242581
O O3 0.896843 0.839574 0.283166
O O4 0.000000 0.580529 0.250000
O O5 0.869974 0.500000 0.500000
O O6 0.749255 0.598111 0.597380
O O7 0.975433 0.661810 0.587166
O O8 0.363485 0.171007 0.128163
O O9 0.461741 0.451394 0.125099
O O10 0.389816 0.304717 0.003203
O O11 0.659123 0.573663 0.144505
O O12 0.820762 0.372712 0.115444
O O13 0.500000 0.406234 0.750000
O O14 0.898097 0.500000 0.000000
#
# Coordination Sequence:
#
# PCOD9321279 Si02
#       6
#     8   8   8   8   8   8
#     4  11  20  40  67  91 122 171 219 266 327 391
#     4  11  23  41  64  92 130 171 221 270 329 403
#     4  11  23  42  62  96 134 172 216 276 331 389
#     4  11  22  41  68  94 123 175 219 265 335 391
#     4  11  22  41  67  92 134 172 216 278 332 389
#     4   9  20  38  62  87 120 167 219 260 326 391
#
# _framework density 24.848652000000001
#
# number of rings (size 3 to 8) (size 9 to 14) (size 15 to 20)
#    0.000    1.333    5.000    3.000    4.667    0.000 
#    3.000    2.500    0.000    0.000    0.000    0.000 
#    0.000    0.000    0.000    0.000    0.000    0.000 
#
# Total GULP energy -134075.841200 kJ/mol
# GULP energy per Si atom -5586.493383 kJ/mol
# Density = 2.479210 g / cm^3
# Si number density = 24.848652 Si / 1000 Ang^3
#
#
#
# Elastic Constant Matrix: (Units=GPa)
#
#
# Indices 1 2 3 4 5 6 
#
# 1 172.9546 15.4202 18.2017 0.0000 0.0000 0.0000
# 2 15.4202 24.0736 6.8962 0.0000 0.0000 0.0000
# 3 18.2017 6.8962 102.0357 0.0000 0.0000 0.0000
# 4 0.0000 0.0000 0.0000 15.6591 0.0000 0.0000
# 5 0.0000 0.0000 0.0000 0.0000 61.5987 0.0000
# 6 0.0000 0.0000 0.0000 0.0000 0.0000 11.5717
#
#
#
# Elastic Compliance Matrix: (Units=1/GPa)
#
#
# Indices 1 2 3 4 5 6 
#
# 1 0.006204 -0.003729 -0.000855 0.000000 0.000000 0.000000
# 2 -0.003729 0.044601 -0.002349 0.000000 0.000000 0.000000
# 3 -0.000855 -0.002349 0.010112 0.000000 0.000000 0.000000
# 4 0.000000 0.000000 0.000000 0.063861 0.000000 0.000000
# 5 0.000000 0.000000 0.000000 0.000000 0.016234 0.000000
# 6 0.000000 0.000000 0.000000 0.000000 0.000000 0.086418
#
#
# Mechanical properties :
#
#
# Convention : Reuss Voigt Hill
#
# Bulk Modulus (GPa) = 21.25367 42.23334 31.74350
# Shear Modulus (GPa) = 19.45680 35.00227 27.22953
#
# Velocity S-wave (km/s) = 2.80127 3.75723 3.31390
# Velocity P-wave (km/s) = 4.36287 5.98794 5.23880
#
# Compressibility (1/GPa) = 0.04705069
#
# Stress axis : x y z
#
# Youngs Moduli (GPa) = 161.17835 22.42106 98.89501
#
# Poissons Ratio (x) = 0.08361 0.08453
# Poissons Ratio (y) = 0.60108 0.23232
# Poissons Ratio (z) = 0.13776 0.05267
#
# Static dielectric constant tensor:
#      x y z
#    x 2.001430 0.000000 0.000000 
#    y 0.000000 2.036380 0.000000 
#    z 0.000000 0.000000 2.227700 
# 
# From -- ./inp_files/24228.got.cif
#   From: 2010.05.17/outbox.cif.g08.bks.cpg/sg20_13_cif.got.tgz:24228.got - 2010.06.03 22:52:26.
