data_PCOD9321159
_publ_section_title
;
Structure prediction by ZEFSAII (Michael W. Deem and Ramdas Pophale) SiO2 
 PCOD9321159
Probable space group: C 2 2 21
;
_chemical_formula_sum "Si O2"
_cell_formula_units_Z 28
_cell_length_a 10.409171
_cell_length_b 9.612655
_cell_length_c 12.315540
_cell_angle_alpha 90.000000
_cell_angle_beta 90.000000
_cell_angle_gamma 90.000000
_cell_volume 1232.290096
_symmetry_space_group_name_H-M "C 2 2 21"
_symmetry_group_IT_number 20
_symmetry_cell_setting 'orthorhombic'
loop_
_space_group_symop_operation_xyz
x,y,z
-x,-y,1/2+z
x,-y,-z
-x,y,1/2-z
1/2+x,1/2+y,z
1/2-x,1/2-y,1/2+z
1/2+x,1/2-y,-z
1/2-x,1/2+y,1/2-z
loop_
_atom_site_type_symbol
_atom_site_label
_atom_site_fract_x
_atom_site_fract_y
_atom_site_fract_z
Si Si1 0.117652 0.563630 0.697872
Si Si2 0.701841 0.500000 0.000000
Si Si3 0.206511 0.073920 0.600390
Si Si4 0.967566 0.820565 0.938738
O O1 0.209907 0.505993 0.605548
O O2 0.211877 0.606132 0.795810
O O3 0.045450 0.691017 0.638588
O O4 0.000000 0.476008 0.750000
O O5 0.605325 0.630958 0.018397
O O6 0.126116 0.195722 0.543118
O O7 0.098628 0.953897 0.621272
O O8 0.715560 0.000000 0.000000
#
# Coordination Sequence:
#
# PCOD9321159 Si02
#       4
#     8   4   8   8
#     4  12  25  38  75  97 134 181 216 277 342 391
#     4  10  26  46  64 104 132 168 234 276 326 410
#     4   7  20  43  64  97 139 165 228 277 316 408
#     4   8  22  43  69  93 135 177 220 267 339 385
#
# _framework density 22.721920999999998
#
# number of rings (size 3 to 8) (size 9 to 14) (size 15 to 20)
#    1.714    1.143    0.000    0.000   10.000    3.429 
#    0.000    0.000    0.000    0.000    0.000    0.000 
#    0.000    0.000    0.000    0.000    0.000    0.000 
#
# Total GULP energy -77968.050330 kJ/mol
# GULP energy per Si atom -5569.146452 kJ/mol
# Density = 2.267021 g / cm^3
# Si number density = 22.721921 Si / 1000 Ang^3
#
#
#
# Elastic Constant Matrix: (Units=GPa)
#
#
# Indices 1 2 3 4 5 6 
#
# 1 169.7117 26.5451 100.8897 0.0000 0.0000 0.0000
# 2 26.5451 38.4217 22.5209 0.0000 0.0000 0.0000
# 3 100.8897 22.5209 175.1284 0.0000 0.0000 0.0000
# 4 0.0000 0.0000 0.0000 24.6476 0.0000 0.0000
# 5 0.0000 0.0000 0.0000 0.0000 53.0893 0.0000
# 6 0.0000 0.0000 0.0000 0.0000 0.0000 14.5941
#
#
#
# Elastic Compliance Matrix: (Units=1/GPa)
#
#
# Indices 1 2 3 4 5 6 
#
# 1 0.009398 -0.003590 -0.004952 0.000000 0.000000 0.000000
# 2 -0.003590 0.029520 -0.001728 0.000000 0.000000 0.000000
# 3 -0.004952 -0.001728 0.008785 0.000000 0.000000 0.000000
# 4 0.000000 0.000000 0.000000 0.040572 0.000000 0.000000
# 5 0.000000 0.000000 0.000000 0.000000 0.018836 0.000000
# 6 0.000000 0.000000 0.000000 0.000000 0.000000 0.068521
#
#
# Mechanical properties :
#
#
# Convention : Reuss Voigt Hill
#
# Bulk Modulus (GPa) = 36.81541 75.90814 56.36178
# Shear Modulus (GPa) = 24.36322 34.01994 29.19158
#
# Velocity S-wave (km/s) = 3.27805 3.87360 3.58820
# Velocity P-wave (km/s) = 5.52859 7.31344 6.48273
#
# Compressibility (1/GPa) = 0.02716254
#
# Stress axis : x y z
#
# Youngs Moduli (GPa) = 106.40591 33.87514 113.82604
#
# Poissons Ratio (x) = 0.12162 0.56371
# Poissons Ratio (y) = 0.38201 0.19669
# Poissons Ratio (z) = 0.52697 0.05854
#
# Static dielectric constant tensor:
#      x y z
#    x 1.874290 0.000000 0.000000 
#    y 0.000000 1.918840 0.000000 
#    z 0.000000 0.000000 1.874800 
# 
# From -- ./inp_files/9913.got.cif
#   From: 2010.05.17/outbox.cif.g08.bks.cpg/sg20_5_cif.got.tgz:9913.got - 2010.06.03 22:52:26.
