data_PCOD9321034
_publ_section_title
;
Structure prediction by ZEFSAII (Michael W. Deem and Ramdas Pophale) SiO2 
 PCOD9321034
Probable space group: C 2 2 21
;
_chemical_formula_sum "Si O2"
_cell_formula_units_Z 36
_cell_length_a 13.559404
_cell_length_b 4.953753
_cell_length_c 20.141362
_cell_angle_alpha 90.000000
_cell_angle_beta 90.000000
_cell_angle_gamma 90.000000
_cell_volume 1352.894042
_symmetry_space_group_name_H-M "C 2 2 21"
_symmetry_group_IT_number 20
_symmetry_cell_setting 'orthorhombic'
loop_
_space_group_symop_operation_xyz
x,y,z
-x,-y,1/2+z
x,-y,-z
-x,y,1/2-z
1/2+x,1/2+y,z
1/2-x,1/2-y,1/2+z
1/2+x,1/2-y,-z
1/2-x,1/2+y,1/2-z
loop_
_atom_site_type_symbol
_atom_site_label
_atom_site_fract_x
_atom_site_fract_y
_atom_site_fract_z
Si Si1 0.682554 0.035352 0.264620
Si Si2 0.345169 0.313471 0.566288
Si Si3 0.544372 0.562874 0.814288
Si Si4 0.861867 0.221775 0.896712
Si Si5 0.012805 0.500000 0.500000
O O1 0.772955 0.250222 0.256257
O O2 0.596017 0.170102 0.219516
O O3 0.653746 0.038804 0.342280
O O4 0.330584 0.500000 0.500000
O O5 0.375360 0.477948 0.631405
O O6 0.248098 0.139611 0.583205
O O7 0.438851 0.127709 0.552459
O O8 0.500000 0.407274 0.750000
O O9 0.444332 0.561855 0.857448
O O10 0.915970 0.296074 0.963952
#
# Coordination Sequence:
#
# PCOD9321034 Si02
#       5
#     8   8   8   8   4
#     4  11  25  47  79 114 155 202 257 327 395 466
#     4  12  25  48  73 108 153 202 261 329 388 472
#     4  10  24  48  72 112 149 200 261 318 394 469
#     4  11  25  46  73 110 146 204 253 319 395 463
#     4  12  28  44  72 110 148 202 262 318 396 476
#
# _framework density 26.609622000000002
#
# number of rings (size 3 to 8) (size 9 to 14) (size 15 to 20)
#    0.000    0.889    5.556    0.000    3.111    5.333 
#    0.000    5.556    0.000    0.000    0.000    0.000 
#    0.000    0.000    0.000    0.000    0.000    0.000 
#
# Total GULP energy -100609.045863 kJ/mol
# GULP energy per Si atom -5589.391437 kJ/mol
# Density = 2.654906 g / cm^3
# Si number density = 26.609622 Si / 1000 Ang^3
#
#
#
# Elastic Constant Matrix: (Units=GPa)
#
#
# Indices 1 2 3 4 5 6 
#
# 1 200.6557 10.0880 59.9601 0.0000 0.0000 0.0000
# 2 10.0880 34.4137 16.4623 0.0000 0.0000 0.0000
# 3 59.9601 16.4623 127.6208 0.0000 0.0000 0.0000
# 4 0.0000 0.0000 0.0000 17.8473 0.0000 0.0000
# 5 0.0000 0.0000 0.0000 0.0000 19.8060 0.0000
# 6 0.0000 0.0000 0.0000 0.0000 0.0000 32.5270
#
#
#
# Elastic Compliance Matrix: (Units=1/GPa)
#
#
# Indices 1 2 3 4 5 6 
#
# 1 0.005803 -0.000423 -0.002672 0.000000 0.000000 0.000000
# 2 -0.000423 0.031000 -0.003800 0.000000 0.000000 0.000000
# 3 -0.002672 -0.003800 0.009581 0.000000 0.000000 0.000000
# 4 0.000000 0.000000 0.000000 0.056031 0.000000 0.000000
# 5 0.000000 0.000000 0.000000 0.000000 0.050490 0.000000
# 6 0.000000 0.000000 0.000000 0.000000 0.000000 0.030744
#
#
# Mechanical properties :
#
#
# Convention : Reuss Voigt Hill
#
# Bulk Modulus (GPa) = 30.68004 59.52344 45.10174
# Shear Modulus (GPa) = 24.00335 32.44803 28.22569
#
# Velocity S-wave (km/s) = 3.00668 3.49579 3.26042
# Velocity P-wave (km/s) = 4.85883 6.22188 5.58212
#
# Compressibility (1/GPa) = 0.03259448
#
# Stress axis : x y z
#
# Youngs Moduli (GPa) = 172.31310 32.25805 104.36994
#
# Poissons Ratio (x) = 0.01364 0.27888
# Poissons Ratio (y) = 0.07289 0.39661
# Poissons Ratio (z) = 0.46043 0.12258
#
# Static dielectric constant tensor:
#      x y z
#    x 2.073720 0.000000 0.000000 
#    y 0.000000 2.217890 0.000000 
#    z 0.000000 0.000000 2.008080 
# 
# From -- ./inp_files/27393.got.cif
#   From: 2010.05.17/outbox.cif.g08.bks.cpg/sg20_14_cif.got.tgz:27393.got - 2010.06.03 22:52:26.
