data_PCOD9321959
_publ_section_title
;
Structure prediction by ZEFSAII (Michael W. Deem and Ramdas Pophale) SiO2 
 PCOD9321959
Probable space group: C 2 2 21
;
_chemical_formula_sum "Si O2"
_cell_formula_units_Z 36
_cell_length_a 14.051782
_cell_length_b 5.794935
_cell_length_c 19.681243
_cell_angle_alpha 90.000000
_cell_angle_beta 90.000000
_cell_angle_gamma 90.000000
_cell_volume 1602.627151
_symmetry_space_group_name_H-M "C 2 2 21"
_symmetry_group_IT_number 20
_symmetry_cell_setting 'orthorhombic'
loop_
_space_group_symop_operation_xyz
x,y,z
-x,-y,1/2+z
x,-y,-z
-x,y,1/2-z
1/2+x,1/2+y,z
1/2-x,1/2-y,1/2+z
1/2+x,1/2-y,-z
1/2-x,1/2+y,1/2-z
loop_
_atom_site_type_symbol
_atom_site_label
_atom_site_fract_x
_atom_site_fract_y
_atom_site_fract_z
Si Si1 0.323821 0.708816 0.281329
Si Si2 0.500000 0.034511 0.250000
Si Si3 0.981115 0.917557 0.355652
Si Si4 0.805651 0.021004 0.143444
Si Si5 0.711624 0.000000 0.000000
Si Si6 0.608928 0.500000 0.000000
O O1 0.392387 0.510904 0.311806
O O2 0.243318 0.778559 0.335210
O O3 0.273314 0.665227 0.209293
O O4 0.404779 0.895680 0.265296
O O5 0.510025 0.182534 0.318692
O O6 0.081059 0.050746 0.353017
O O7 0.949690 0.927791 0.433259
O O8 0.769852 0.065794 0.067938
O O9 0.659582 0.751234 0.016001
#
# Coordination Sequence:
#
# PCOD9321959 Si02
#       6
#     8   4   8   8   4   4
#     4  12  25  46  75 114 151 197 268 317 398 466
#     4  12  22  46  78 108 154 200 256 330 386 476
#     4  12  25  49  73 109 156 201 262 323 400 462
#     4  12  25  47  75 113 148 209 257 331 382 487
#     4  12  29  50  77 112 160 202 276 315 409 468
#     4  12  29  52  75 110 156 214 252 335 391 478
#
# _framework density 22.463115999999999
#
# number of rings (size 3 to 8) (size 9 to 14) (size 15 to 20)
#    0.000    0.000    6.667    3.333    3.111    1.778 
#    0.000    2.222    0.000    0.000    0.000    0.000 
#    0.000    0.000    0.000    0.000    0.000    0.000 
#
# Total GULP energy -100284.206506 kJ/mol
# GULP energy per Si atom -5571.344806 kJ/mol
# Density = 2.241199 g / cm^3
# Si number density = 22.463116 Si / 1000 Ang^3
#
#
#
# Elastic Constant Matrix: (Units=GPa)
#
#
# Indices 1 2 3 4 5 6 
#
# 1 99.0606 12.0414 30.9164 0.0000 0.0000 0.0000
# 2 12.0414 31.6374 -1.8095 0.0000 0.0000 0.0000
# 3 30.9164 -1.8095 169.8933 0.0000 0.0000 0.0000
# 4 0.0000 0.0000 0.0000 16.0442 0.0000 0.0000
# 5 0.0000 0.0000 0.0000 0.0000 41.5943 0.0000
# 6 0.0000 0.0000 0.0000 0.0000 0.0000 32.6042
#
#
#
# Elastic Compliance Matrix: (Units=1/GPa)
#
#
# Indices 1 2 3 4 5 6 
#
# 1 0.011287 -0.004416 -0.002101 0.000000 0.000000 0.000000
# 2 -0.004416 0.033355 0.001159 0.000000 0.000000 0.000000
# 3 -0.002101 0.001159 0.006281 0.000000 0.000000 0.000000
# 4 0.000000 0.000000 0.000000 0.062328 0.000000 0.000000
# 5 0.000000 0.000000 0.000000 0.000000 0.024042 0.000000
# 6 0.000000 0.000000 0.000000 0.000000 0.000000 0.030671
#
#
# Mechanical properties :
#
#
# Convention : Reuss Voigt Hill
#
# Bulk Modulus (GPa) = 24.87150 42.54308 33.70729
# Shear Modulus (GPa) = 26.03044 35.34475 30.68760
#
# Velocity S-wave (km/s) = 3.40782 3.97099 3.70013
# Velocity P-wave (km/s) = 5.15563 6.32496 5.76999
#
# Compressibility (1/GPa) = 0.04020666
#
# Stress axis : x y z
#
# Youngs Moduli (GPa) = 88.59450 29.98026 159.21710
#
# Poissons Ratio (x) = 0.13240 0.33453
# Poissons Ratio (y) = 0.39125 -0.18452
# Poissons Ratio (z) = 0.18614 -0.03474
#
# Static dielectric constant tensor:
#      x y z
#    x 1.902300 0.000000 0.000000 
#    y 0.000000 2.032390 0.000000 
#    z 0.000000 0.000000 1.889380 
# 
# From -- ./inp_files/25944.got.cif
#   From: 2010.05.17/outbox.cif.g08.bks.cpg/sg20_13_cif.got.tgz:25944.got - 2010.06.03 22:52:26.
