data_PCOD9321378
_publ_section_title
;
Structure prediction by ZEFSAII (Michael W. Deem and Ramdas Pophale) SiO2 
 PCOD9321378
Probable space group: C 2 2 21
;
_chemical_formula_sum "Si O2"
_cell_formula_units_Z 40
_cell_length_a 9.094609
_cell_length_b 15.924506
_cell_length_c 11.905583
_cell_angle_alpha 90.000000
_cell_angle_beta 90.000000
_cell_angle_gamma 90.000000
_cell_volume 1724.251722
_symmetry_space_group_name_H-M "C 2 2 21"
_symmetry_group_IT_number 20
_symmetry_cell_setting 'orthorhombic'
loop_
_space_group_symop_operation_xyz
x,y,z
-x,-y,1/2+z
x,-y,-z
-x,y,1/2-z
1/2+x,1/2+y,z
1/2-x,1/2-y,1/2+z
1/2+x,1/2-y,-z
1/2-x,1/2+y,1/2-z
loop_
_atom_site_type_symbol
_atom_site_label
_atom_site_fract_x
_atom_site_fract_y
_atom_site_fract_z
Si Si1 0.115076 0.620201 0.937463
Si Si2 0.324701 0.690318 0.748973
Si Si3 0.339712 0.647456 0.296249
Si Si4 0.136524 0.445507 0.824275
Si Si5 0.286211 0.101307 0.971468
O O1 0.233130 0.668568 0.862578
O O2 0.088783 0.537141 0.863545
O O3 0.947901 0.645582 0.968604
O O4 0.177155 0.597831 0.058550
O O5 0.500000 0.688453 0.750000
O O6 0.267544 0.785541 0.736291
O O7 0.277350 0.628293 0.648577
O O8 0.500000 0.665721 0.250000
O O9 0.281236 0.558405 0.250641
O O10 0.312450 0.641854 0.429241
O O11 0.000000 0.412824 0.750000
O O12 0.299551 0.000000 0.000000
#
# Coordination Sequence:
#
# PCOD9321378 Si02
#       5
#     8   8   8   8   8
#     4  11  23  44  76 106 145 187 240 302 361 447
#     4  12  30  46  72 108 151 195 248 307 375 441
#     4  12  28  47  74 106 152 194 246 309 373 442
#     4  11  21  43  75 108 140 190 241 293 370 443
#     4  12  25  48  79 109 145 194 249 303 370 453
#
# _framework density 23.19847
#
# number of rings (size 3 to 8) (size 9 to 14) (size 15 to 20)
#    0.000    0.400    4.000    4.800    5.600    3.200 
#    0.000    0.000    0.000    0.000    0.000    0.000 
#    0.000    0.000    0.000    0.000    0.000    0.000 
#
# Total GULP energy -111581.799857 kJ/mol
# GULP energy per Si atom -5579.089993 kJ/mol
# Density = 2.314567 g / cm^3
# Si number density = 23.198470 Si / 1000 Ang^3
#
#
#
# Elastic Constant Matrix: (Units=GPa)
#
#
# Indices 1 2 3 4 5 6 
#
# 1 129.4973 18.8831 36.9708 0.0000 0.0000 0.0000
# 2 18.8831 61.5107 36.4086 0.0000 0.0000 0.0000
# 3 36.9708 36.4086 134.3189 0.0000 0.0000 0.0000
# 4 0.0000 0.0000 0.0000 14.1676 0.0000 0.0000
# 5 0.0000 0.0000 0.0000 0.0000 48.0704 0.0000
# 6 0.0000 0.0000 0.0000 0.0000 0.0000 6.7307
#
#
#
# Elastic Compliance Matrix: (Units=1/GPa)
#
#
# Indices 1 2 3 4 5 6 
#
# 1 0.008489 -0.001457 -0.001942 0.000000 0.000000 0.000000
# 2 -0.001457 0.019614 -0.004916 0.000000 0.000000 0.000000
# 3 -0.001942 -0.004916 0.009312 0.000000 0.000000 0.000000
# 4 0.000000 0.000000 0.000000 0.070584 0.000000 0.000000
# 5 0.000000 0.000000 0.000000 0.000000 0.020803 0.000000
# 6 0.000000 0.000000 0.000000 0.000000 0.000000 0.148572
#
#
# Mechanical properties :
#
#
# Convention : Reuss Voigt Hill
#
# Bulk Modulus (GPa) = 48.10748 56.65021 52.37885
# Shear Modulus (GPa) = 16.61512 29.33138 22.97325
#
# Velocity S-wave (km/s) = 2.67912 3.55965 3.15030
# Velocity P-wave (km/s) = 5.50932 6.43177 5.98833
#
# Compressibility (1/GPa) = 0.02078679
#
# Stress axis : x y z
#
# Youngs Moduli (GPa) = 117.80054 50.98367 107.38998
#
# Poissons Ratio (x) = 0.07427 0.20852
# Poissons Ratio (y) = 0.17160 0.52789
# Poissons Ratio (z) = 0.22873 0.25062
#
# Static dielectric constant tensor:
#      x y z
#    x 2.047640 0.000000 0.000000 
#    y 0.000000 2.019730 0.000000 
#    z 0.000000 0.000000 1.905090 
# 
# From -- ./inp_files/12672.got.cif
#   From: 2010.05.17/outbox.cif.g08.bks.cpg/sg20_7_cif.got.tgz:12672.got - 2010.06.03 22:52:26.
