data_PCOD9321376
_publ_section_title
;
Structure prediction by ZEFSAII (Michael W. Deem and Ramdas Pophale) SiO2 
 PCOD9321376
Probable space group: C 2 2 21
;
_chemical_formula_sum "Si O2"
_cell_formula_units_Z 36
_cell_length_a 9.149864
_cell_length_b 11.134382
_cell_length_c 13.439013
_cell_angle_alpha 90.000000
_cell_angle_beta 90.000000
_cell_angle_gamma 90.000000
_cell_volume 1369.140855
_symmetry_space_group_name_H-M "C 2 2 21"
_symmetry_group_IT_number 20
_symmetry_cell_setting 'orthorhombic'
loop_
_space_group_symop_operation_xyz
x,y,z
-x,-y,1/2+z
x,-y,-z
-x,y,1/2-z
1/2+x,1/2+y,z
1/2-x,1/2-y,1/2+z
1/2+x,1/2-y,-z
1/2-x,1/2+y,1/2-z
loop_
_atom_site_type_symbol
_atom_site_label
_atom_site_fract_x
_atom_site_fract_y
_atom_site_fract_z
Si Si1 0.228636 0.764250 0.674784
Si Si2 0.721798 0.263711 0.958849
Si Si3 0.509798 0.460110 0.604720
Si Si4 0.000000 0.176343 0.750000
Si Si5 0.525457 0.879074 0.439623
O O1 0.318658 0.776777 0.572308
O O2 0.116160 0.875179 0.670389
O O3 0.351186 0.753202 0.758778
O O4 0.132983 0.643739 0.654448
O O5 0.634864 0.383235 0.924343
O O6 0.634550 0.159460 0.902775
O O7 0.890021 0.288564 0.982579
O O8 0.580864 0.500000 0.500000
O O9 0.476948 0.582226 0.661096
O O10 0.525944 0.000000 0.500000
#
# Coordination Sequence:
#
# PCOD9321376 Si02
#       5
#     8   8   8   4   8
#     4   9  22  39  61  97 123 167 228 266 324 405
#     4   9  18  37  61  88 120 161 217 253 319 401
#     4  11  21  43  70  93 131 183 217 274 347 393
#     4  12  22  42  66  92 138 174 218 286 330 396
#     4   9  17  34  58  87 115 157 207 260 315 381
#
# _framework density 26.293861
#
# number of rings (size 3 to 8) (size 9 to 14) (size 15 to 20)
#    1.333    0.889    2.222    2.000    0.000    0.889 
#   12.000    0.000    0.000    0.000    0.000    0.000 
#    0.000    0.000    0.000    0.000    0.000    0.000 
#
# Total GULP energy -100281.606631 kJ/mol
# GULP energy per Si atom -5571.200368 kJ/mol
# Density = 2.623401 g / cm^3
# Si number density = 26.293861 Si / 1000 Ang^3
#
#
#
# Elastic Constant Matrix: (Units=GPa)
#
#
# Indices 1 2 3 4 5 6 
#
# 1 174.9758 34.8484 10.3938 0.0000 0.0000 0.0000
# 2 34.8484 91.7089 -5.5035 0.0000 0.0000 0.0000
# 3 10.3938 -5.5035 60.1932 0.0000 0.0000 0.0000
# 4 0.0000 0.0000 0.0000 13.7733 0.0000 0.0000
# 5 0.0000 0.0000 0.0000 0.0000 45.8681 0.0000
# 6 0.0000 0.0000 0.0000 0.0000 0.0000 24.9552
#
#
#
# Elastic Compliance Matrix: (Units=1/GPa)
#
#
# Indices 1 2 3 4 5 6 
#
# 1 0.006284 -0.002467 -0.001311 0.000000 0.000000 0.000000
# 2 -0.002467 0.011932 0.001517 0.000000 0.000000 0.000000
# 3 -0.001311 0.001517 0.016978 0.000000 0.000000 0.000000
# 4 0.000000 0.000000 0.000000 0.072604 0.000000 0.000000
# 5 0.000000 0.000000 0.000000 0.000000 0.021802 0.000000
# 6 0.000000 0.000000 0.000000 0.000000 0.000000 0.040072
#
#
# Mechanical properties :
#
#
# Convention : Reuss Voigt Hill
#
# Bulk Modulus (GPa) = 32.60079 45.15058 38.87568
# Shear Modulus (GPa) = 27.11234 36.06193 31.58714
#
# Velocity S-wave (km/s) = 3.21460 3.70739 3.46976
# Velocity P-wave (km/s) = 5.11896 5.96113 5.55603
#
# Compressibility (1/GPa) = 0.03067411
#
# Stress axis : x y z
#
# Youngs Moduli (GPa) = 159.12987 83.80572 58.89911
#
# Poissons Ratio (x) = 0.20671 0.07720
# Poissons Ratio (y) = 0.39250 -0.08934
# Poissons Ratio (z) = 0.20856 -0.12712
#
# Static dielectric constant tensor:
#      x y z
#    x 2.041520 0.000000 0.000000 
#    y 0.000000 2.049150 0.000000 
#    z 0.000000 0.000000 2.291020 
# 
# From -- ./inp_files/19593.got.cif
#   From: 2010.05.17/outbox.cif.g08.bks.cpg/sg20_10_cif.got.tgz:19593.got - 2010.06.03 22:52:26.
