data_PCOD9321668
_publ_section_title
;
Structure prediction by ZEFSAII (Michael W. Deem and Ramdas Pophale) SiO2 
 PCOD9321668
Probable space group: C 2 2 21
;
_chemical_formula_sum "Si O2"
_cell_formula_units_Z 40
_cell_length_a 10.075160
_cell_length_b 9.884428
_cell_length_c 16.881017
_cell_angle_alpha 90.000000
_cell_angle_beta 90.000000
_cell_angle_gamma 90.000000
_cell_volume 1681.133108
_symmetry_space_group_name_H-M "C 2 2 21"
_symmetry_group_IT_number 20
_symmetry_cell_setting 'orthorhombic'
loop_
_space_group_symop_operation_xyz
x,y,z
-x,-y,1/2+z
x,-y,-z
-x,y,1/2-z
1/2+x,1/2+y,z
1/2-x,1/2-y,1/2+z
1/2+x,1/2-y,-z
1/2-x,1/2+y,1/2-z
loop_
_atom_site_type_symbol
_atom_site_label
_atom_site_fract_x
_atom_site_fract_y
_atom_site_fract_z
Si Si1 0.066164 0.754499 0.835674
Si Si2 0.202819 0.195660 0.935826
Si Si3 0.302737 0.958480 0.819508
Si Si4 0.424933 0.354795 0.979386
Si Si5 0.606411 0.965665 0.854994
O O1 0.200556 0.836411 0.826329
O O2 0.965038 0.843126 0.887198
O O3 0.091020 0.618250 0.886605
O O4 0.000000 0.724403 0.750000
O O5 0.325003 0.230013 0.994694
O O6 0.174531 0.342179 0.898210
O O7 0.250912 0.083607 0.872725
O O8 0.065297 0.152121 0.975167
O O9 0.453512 0.922384 0.841746
O O10 0.315095 0.992659 0.726745
O O11 0.364668 0.500000 0.000000
#
# Coordination Sequence:
#
# PCOD9321668 Si02
#       5
#     8   8   8   8   8
#     4  12  24  50  73 103 152 193 247 310 366 448
#     4  12  28  48  74 112 146 199 250 305 383 450
#     4  11  23  47  74 107 145 191 248 307 370 447
#     4  12  28  47  74 109 149 197 247 309 385 441
#     4  11  24  45  75 110 143 192 248 305 375 441
#
# _framework density 23.793474
#
# number of rings (size 3 to 8) (size 9 to 14) (size 15 to 20)
#    0.000    0.400    6.000    2.400    5.600    0.000 
#    7.200    0.000    0.000    0.000    0.000    0.000 
#    0.000    0.000    0.000    0.000    0.000    0.000 
#
# Total GULP energy -111915.991030 kJ/mol
# GULP energy per Si atom -5595.799552 kJ/mol
# Density = 2.373932 g / cm^3
# Si number density = 23.793474 Si / 1000 Ang^3
#
#
#
# Elastic Constant Matrix: (Units=GPa)
#
#
# Indices 1 2 3 4 5 6 
#
# 1 119.8535 55.8202 13.9441 0.0000 0.0000 0.0000
# 2 55.8202 109.5700 26.6496 0.0000 0.0000 0.0000
# 3 13.9441 26.6496 71.7885 0.0000 0.0000 0.0000
# 4 0.0000 0.0000 0.0000 41.2180 0.0000 0.0000
# 5 0.0000 0.0000 0.0000 0.0000 37.7385 0.0000
# 6 0.0000 0.0000 0.0000 0.0000 0.0000 56.7887
#
#
#
# Elastic Compliance Matrix: (Units=1/GPa)
#
#
# Indices 1 2 3 4 5 6 
#
# 1 0.010939 -0.005558 -0.000062 0.000000 0.000000 0.000000
# 2 -0.005558 0.012856 -0.003693 0.000000 0.000000 0.000000
# 3 -0.000062 -0.003693 0.015313 0.000000 0.000000 0.000000
# 4 0.000000 0.000000 0.000000 0.024261 0.000000 0.000000
# 5 0.000000 0.000000 0.000000 0.000000 0.026498 0.000000
# 6 0.000000 0.000000 0.000000 0.000000 0.000000 0.017609
#
#
# Mechanical properties :
#
#
# Convention : Reuss Voigt Hill
#
# Bulk Modulus (GPa) = 48.82063 54.89330 51.85697
# Shear Modulus (GPa) = 37.61388 40.80223 39.20805
#
# Velocity S-wave (km/s) = 3.98030 4.14557 4.06377
# Velocity P-wave (km/s) = 6.45653 6.78492 6.62276
#
# Compressibility (1/GPa) = 0.02048315
#
# Stress axis : x y z
#
# Youngs Moduli (GPa) = 91.41392 77.78280 65.30525
#
# Poissons Ratio (x) = 0.43232 0.00402
# Poissons Ratio (y) = 0.50808 0.24117
# Poissons Ratio (z) = 0.00563 0.28725
#
# Static dielectric constant tensor:
#      x y z
#    x 1.923710 0.000000 0.000000 
#    y 0.000000 1.910840 0.000000 
#    z 0.000000 0.000000 1.942500 
# 
# From -- ./inp_files/24085.got.cif
#   From: 2010.05.17/outbox.cif.g08.bks.cpg/sg20_13_cif.got.tgz:24085.got - 2010.06.03 22:52:26.
