data_PCOD9321856
_publ_section_title
;
Structure prediction by ZEFSAII (Michael W. Deem and Ramdas Pophale) SiO2 
 PCOD9321856
Probable space group: C 2 2 21
;
_chemical_formula_sum "Si O2"
_cell_formula_units_Z 40
_cell_length_a 15.645465
_cell_length_b 12.977073
_cell_length_c 8.309271
_cell_angle_alpha 90.000000
_cell_angle_beta 90.000000
_cell_angle_gamma 90.000000
_cell_volume 1687.050747
_symmetry_space_group_name_H-M "C 2 2 21"
_symmetry_group_IT_number 20
_symmetry_cell_setting 'orthorhombic'
loop_
_space_group_symop_operation_xyz
x,y,z
-x,-y,1/2+z
x,-y,-z
-x,y,1/2-z
1/2+x,1/2+y,z
1/2-x,1/2-y,1/2+z
1/2+x,1/2-y,-z
1/2-x,1/2+y,1/2-z
loop_
_atom_site_type_symbol
_atom_site_label
_atom_site_fract_x
_atom_site_fract_y
_atom_site_fract_z
Si Si1 0.259307 0.888626 0.302562
Si Si2 0.960914 0.215774 0.018449
Si Si3 0.389777 0.500000 0.000000
Si Si4 0.905632 0.500000 0.500000
Si Si5 0.360570 0.704816 0.340878
Si Si6 0.702641 0.500000 0.000000
Si Si7 0.500000 0.852081 0.750000
O O1 0.342341 0.937184 0.384804
O O2 0.272428 0.768404 0.343446
O O3 0.176070 0.939339 0.383801
O O4 0.254108 0.924929 0.119068
O O5 0.899729 0.240776 0.168312
O O6 0.061753 0.236788 0.043095
O O7 0.939681 0.274465 0.853626
O O8 0.953285 0.093047 0.034004
O O9 0.960022 0.572274 0.382932
O O10 0.344705 0.584429 0.383710
#
# Coordination Sequence:
#
# PCOD9321856 Si02
#       7
#     8   8   4   4   8   4   4
#     4  11  27  46  73 114 161 205 266 323 404 480
#     4  11  26  49  77 112 154 209 264 333 388 482
#     4  11  25  48  76 111 163 198 266 321 397 476
#     4  11  28  49  73 118 149 216 272 335 394 479
#     4  11  26  49  74 117 154 206 273 322 398 480
#     4  12  27  47  83 109 162 214 254 340 405 471
#     4  12  28  46  84 106 160 210 270 338 398 466
#
# _framework density 23.710016
#
# number of rings (size 3 to 8) (size 9 to 14) (size 15 to 20)
#    0.000    0.800    4.000    0.600   11.200    1.600 
#    0.000    0.000    0.000    0.000    0.000    0.000 
#    0.000    0.000    0.000    0.000    0.000    0.000 
#
# Total GULP energy -111410.370988 kJ/mol
# GULP energy per Si atom -5570.518549 kJ/mol
# Density = 2.365605 g / cm^3
# Si number density = 23.710016 Si / 1000 Ang^3
#
#
#
# Elastic Constant Matrix: (Units=GPa)
#
#
# Indices 1 2 3 4 5 6 
#
# 1 84.9726 54.6297 45.6799 0.0000 0.0000 0.0000
# 2 54.6297 125.1497 50.1943 0.0000 0.0000 0.0000
# 3 45.6799 50.1943 102.3498 0.0000 0.0000 0.0000
# 4 0.0000 0.0000 0.0000 46.3963 0.0000 0.0000
# 5 0.0000 0.0000 0.0000 0.0000 3.5934 0.0000
# 6 0.0000 0.0000 0.0000 0.0000 0.0000 38.2969
#
#
#
# Elastic Compliance Matrix: (Units=1/GPa)
#
#
# Indices 1 2 3 4 5 6 
#
# 1 0.018432 -0.005909 -0.005329 0.000000 0.000000 0.000000
# 2 -0.005909 0.011841 -0.003170 0.000000 0.000000 0.000000
# 3 -0.005329 -0.003170 0.013703 0.000000 0.000000 0.000000
# 4 0.000000 0.000000 0.000000 0.021553 0.000000 0.000000
# 5 0.000000 0.000000 0.000000 0.000000 0.278291 0.000000
# 6 0.000000 0.000000 0.000000 0.000000 0.000000 0.026112
#
#
# Mechanical properties :
#
#
# Convention : Reuss Voigt Hill
#
# Bulk Modulus (GPa) = 65.95585 68.16442 67.06014
# Shear Modulus (GPa) = 12.38237 28.45520 20.41878
#
# Velocity S-wave (km/s) = 2.28774 3.46805 2.93778
# Velocity P-wave (km/s) = 5.90394 6.69688 6.31287
#
# Compressibility (1/GPa) = 0.01516166
#
# Stress axis : x y z
#
# Youngs Moduli (GPa) = 54.25423 84.45235 72.97529
#
# Poissons Ratio (x) = 0.49899 0.38886
# Poissons Ratio (y) = 0.32056 0.23133
# Poissons Ratio (z) = 0.28910 0.26771
#
# Static dielectric constant tensor:
#      x y z
#    x 1.881390 0.000000 0.000000 
#    y 0.000000 1.879350 0.000000 
#    z 0.000000 0.000000 2.027940 
# 
# From -- ./inp_files/7148.got.cif
#   From: 2010.05.17/outbox.cif.g08.bks.cpg/sg20_4_cif.got.tgz:7148.got - 2010.06.03 22:52:26.
