data_PCOD9321204
_publ_section_title
;
Structure prediction by ZEFSAII (Michael W. Deem and Ramdas Pophale) SiO2 
 PCOD9321204
Probable space group: C 2 2 21
;
_chemical_formula_sum "Si O2"
_cell_formula_units_Z 60
_cell_length_a 11.653726
_cell_length_b 24.685991
_cell_length_c 9.327131
_cell_angle_alpha 90.000000
_cell_angle_beta 90.000000
_cell_angle_gamma 90.000000
_cell_volume 2683.264257
_symmetry_space_group_name_H-M "C 2 2 21"
_symmetry_group_IT_number 20
_symmetry_cell_setting 'orthorhombic'
loop_
_space_group_symop_operation_xyz
x,y,z
-x,-y,1/2+z
x,-y,-z
-x,y,1/2-z
1/2+x,1/2+y,z
1/2-x,1/2-y,1/2+z
1/2+x,1/2-y,-z
1/2-x,1/2+y,1/2-z
loop_
_atom_site_type_symbol
_atom_site_label
_atom_site_fract_x
_atom_site_fract_y
_atom_site_fract_z
Si Si1 0.966286 0.689622 0.410119
Si Si2 0.939479 0.103179 0.000031
Si Si3 0.278262 0.427258 0.269572
Si Si4 0.289185 0.856217 0.969772
Si Si5 0.593800 0.999831 0.146188
Si Si6 0.570152 0.294228 0.901307
Si Si7 0.098712 0.000000 0.000000
Si Si8 0.277207 0.899005 0.677649
O O1 0.931980 0.738020 0.513856
O O2 0.867518 0.644825 0.383162
O O3 0.000000 0.709381 0.250000
O O4 0.081118 0.663809 0.476398
O O5 0.867968 0.089820 0.854774
O O6 0.018269 0.051522 0.036387
O O7 0.848777 0.113518 0.125608
O O8 0.012828 0.158097 0.002274
O O9 0.254757 0.378540 0.379791
O O10 0.156266 0.446875 0.205087
O O11 0.329071 0.476606 0.365676
O O12 0.203701 0.812297 0.897383
O O13 0.286735 0.902434 0.848412
O O14 0.500000 0.023551 0.250000
O O15 0.693187 0.042594 0.116159
O O16 0.525221 0.000000 0.000000
O O17 0.500000 0.290536 0.750000
#
# Coordination Sequence:
#
# PCOD9321204 Si02
#       8
#     8   8   8   8   8   8   4   8
#     4  10  27  47  76 103 142 190 245 300 371 431
#     4  12  26  46  69 106 148 185 243 296 366 433
#     4  12  27  45  72 108 146 192 241 301 360 448
#     4  11  25  46  74 105 142 191 241 299 370 430
#     4  12  27  45  72 105 144 192 242 293 362 437
#     4  12  27  46  72 109 143 191 244 312 366 438
#     4  12  26  42  70 108 146 188 236 298 368 436
#     4  11  24  50  71 102 148 189 232 302 360 437
#
# _framework density 22.360824000000001
#
# number of rings (size 3 to 8) (size 9 to 14) (size 15 to 20)
#    0.000    0.533    4.000    3.200    8.400    3.200 
#    0.000    0.000    0.000    0.000    0.000    0.000 
#    0.000    0.000    0.000    0.000    0.000    0.000 
#
# Total GULP energy -167673.048089 kJ/mol
# GULP energy per Si atom -5589.101603 kJ/mol
# Density = 2.230993 g / cm^3
# Si number density = 22.360824 Si / 1000 Ang^3
#
#
#
# Elastic Constant Matrix: (Units=GPa)
#
#
# Indices 1 2 3 4 5 6 
#
# 1 74.1162 1.7158 5.7454 0.0000 0.0000 0.0000
# 2 1.7158 51.7468 31.6473 0.0000 0.0000 0.0000
# 3 5.7454 31.6473 91.4664 0.0000 0.0000 0.0000
# 4 0.0000 0.0000 0.0000 39.2059 0.0000 0.0000
# 5 0.0000 0.0000 0.0000 0.0000 25.8680 0.0000
# 6 0.0000 0.0000 0.0000 0.0000 0.0000 -29.7623
#
#
#
# Elastic Compliance Matrix: (Units=1/GPa)
#
#
# Indices 1 2 3 4 5 6 
#
# 1 0.013559 0.000090 -0.000883 0.000000 0.000000 0.000000
# 2 0.000090 0.024512 -0.008487 0.000000 0.000000 0.000000
# 3 -0.000883 -0.008487 0.013925 0.000000 0.000000 0.000000
# 4 0.000000 0.000000 0.000000 0.025506 0.000000 0.000000
# 5 0.000000 0.000000 0.000000 0.000000 0.038658 0.000000
# 6 0.000000 0.000000 0.000000 0.000000 0.000000 -0.033600
#
#
# Mechanical properties :
#
#
# Convention : Reuss Voigt Hill
#
# Bulk Modulus (GPa) = 29.90702 32.83851 31.37276
# Shear Modulus (GPa) = 44.53744 18.94370 31.74057
#
# Velocity S-wave (km/s) = 4.46776 2.91380 3.77168
# Velocity P-wave (km/s) = 6.32600 5.10273 5.74701
#
# Compressibility (1/GPa) = 0.03343696
#
# Stress axis : x y z
#
# Youngs Moduli (GPa) = 73.75348 40.79584 71.81374
#
# Poissons Ratio (x) = -0.00369 0.06341
# Poissons Ratio (y) = -0.00667 0.60948
# Poissons Ratio (z) = 0.06512 0.34623
#
# Static dielectric constant tensor:
#      x y z
#    x 1.808480 0.000000 0.000000 
#    y 0.000000 1.821540 0.000000 
#    z 0.000000 0.000000 2.122320 
# 
# From -- ./inp_files/7563.got.cif
#   From: 2010.05.17/outbox.cif.g08.bks.cpg/sg20_4_cif.got.tgz:7563.got - 2010.06.03 22:52:26.
