data_PCOD9321152
_publ_section_title
;
Structure prediction by ZEFSAII (Michael W. Deem and Ramdas Pophale) SiO2 
 PCOD9321152
Probable space group: C 2 2 21
;
_chemical_formula_sum "Si O2"
_cell_formula_units_Z 60
_cell_length_a 19.571076
_cell_length_b 11.445460
_cell_length_c 12.058710
_cell_angle_alpha 90.000000
_cell_angle_beta 90.000000
_cell_angle_gamma 90.000000
_cell_volume 2701.150648
_symmetry_space_group_name_H-M "C 2 2 21"
_symmetry_group_IT_number 20
_symmetry_cell_setting 'orthorhombic'
loop_
_space_group_symop_operation_xyz
x,y,z
-x,-y,1/2+z
x,-y,-z
-x,y,1/2-z
1/2+x,1/2+y,z
1/2-x,1/2-y,1/2+z
1/2+x,1/2-y,-z
1/2-x,1/2+y,1/2-z
loop_
_atom_site_type_symbol
_atom_site_label
_atom_site_fract_x
_atom_site_fract_y
_atom_site_fract_z
Si Si1 0.051985 0.682393 0.346834
Si Si2 0.840665 0.056671 0.707644
Si Si3 0.833180 0.199700 0.205782
Si Si4 0.214159 0.380399 0.456073
Si Si5 0.469516 0.624265 0.551261
Si Si6 0.011997 0.500000 0.000000
Si Si7 0.056784 0.305056 0.150572
Si Si8 0.797268 0.725683 0.177569
O O1 0.129452 0.666233 0.313373
O O2 0.000000 0.651848 0.250000
O O3 0.030972 0.813202 0.383719
O O4 0.033887 0.599032 0.446861
O O5 0.775615 0.071303 0.622656
O O6 0.905289 0.104292 0.635461
O O7 0.816314 0.139567 0.807571
O O8 0.857865 0.930835 0.762267
O O9 0.836188 0.283024 0.097579
O O10 0.870559 0.280487 0.295030
O O11 0.752230 0.190505 0.223847
O O12 0.180694 0.500000 0.500000
O O13 0.239699 0.312519 0.565250
O O14 0.487956 0.500000 0.500000
O O15 0.452526 0.709533 0.447624
O O16 0.053492 0.568204 0.905673
O O17 0.000000 0.293530 0.250000
#
# Coordination Sequence:
#
# PCOD9321152 Si02
#       8
#     8   8   8   8   8   4   8   8
#     4  11  24  44  67 100 138 183 232 286 346 418
#     4  11  22  47  72 101 142 187 235 291 353 441
#     4  11  25  45  74 105 137 189 236 289 365 421
#     4  11  24  42  71 103 143 183 228 296 360 412
#     4  11  22  41  73  97 136 184 227 282 356 418
#     4  10  26  44  70 100 138 188 234 292 352 416
#     4  11  25  45  69 105 141 181 236 290 350 425
#     4  11  25  44  70 106 139 182 239 288 359 426
#
# _framework density 22.212755999999999
#
# number of rings (size 3 to 8) (size 9 to 14) (size 15 to 20)
#    0.000    1.067    4.000    1.600    4.667    3.200 
#    0.000    0.000    0.000    0.000    0.000    0.000 
#    0.000    0.000    0.000    0.000    0.000    0.000 
#
# Total GULP energy -167261.601618 kJ/mol
# GULP energy per Si atom -5575.386721 kJ/mol
# Density = 2.216220 g / cm^3
# Si number density = 22.212756 Si / 1000 Ang^3
#
#
#
# Elastic Constant Matrix: (Units=GPa)
#
#
# Indices 1 2 3 4 5 6 
#
# 1 60.3506 15.7213 0.2582 0.0000 0.0000 0.0000
# 2 15.7213 139.7615 50.6960 0.0000 0.0000 0.0000
# 3 0.2582 50.6960 70.1452 0.0000 0.0000 0.0000
# 4 0.0000 0.0000 0.0000 54.3170 0.0000 0.0000
# 5 0.0000 0.0000 0.0000 0.0000 21.8128 0.0000
# 6 0.0000 0.0000 0.0000 0.0000 0.0000 0.0020
#
#
#
# Elastic Compliance Matrix: (Units=1/GPa)
#
#
# Indices 1 2 3 4 5 6 
#
# 1 0.017239 -0.002597 0.001813 0.000000 0.000000 0.000000
# 2 -0.002597 0.010088 -0.007282 0.000000 0.000000 0.000000
# 3 0.001813 -0.007282 0.019512 0.000000 0.000000 0.000000
# 4 0.000000 0.000000 0.000000 0.018410 0.000000 0.000000
# 5 0.000000 0.000000 0.000000 0.000000 0.045845 0.000000
# 6 0.000000 0.000000 0.000000 0.000000 0.000000498.546708
#
#
# Mechanical properties :
#
#
# Convention : Reuss Voigt Hill
#
# Bulk Modulus (GPa) = 32.56392 44.84539 38.70465
# Shear Modulus (GPa) = 0.01003 28.79846 14.40424
#
# Velocity S-wave (km/s) = 0.06726 3.60458 2.54926
# Velocity P-wave (km/s) = 3.83378 6.12836 5.11149
#
# Compressibility (1/GPa) = 0.03070884
#
# Stress axis : x y z
#
# Youngs Moduli (GPa) = 58.00944 99.12310 51.25009
#
# Poissons Ratio (x) = 0.25741 -0.09294
# Poissons Ratio (y) = 0.15064 0.37319
# Poissons Ratio (z) = -0.10519 0.72178
#
# Static dielectric constant tensor:
#      x y z
#    x 1.823240 0.000000 0.000000 
#    y 0.000000 1.864260 0.000000 
#    z 0.000000 0.000000 1.933730 
# 
# From -- ./inp_files/16365.got.cif
#   From: 2010.05.17/outbox.cif.g08.bks.cpg/sg20_9_cif.got.tgz:16365.got - 2010.06.03 22:52:26.
