data_PCOD9321243
_publ_section_title
;
Structure prediction by ZEFSAII (Michael W. Deem and Ramdas Pophale) SiO2 
 PCOD9321243
Probable space group: C 2 2 21
;
_chemical_formula_sum "Si O2"
_cell_formula_units_Z 44
_cell_length_a 22.407302
_cell_length_b 14.950246
_cell_length_c 6.536868
_cell_angle_alpha 90.000000
_cell_angle_beta 90.000000
_cell_angle_gamma 90.000000
_cell_volume 2189.815985
_symmetry_space_group_name_H-M "C 2 2 21"
_symmetry_group_IT_number 20
_symmetry_cell_setting 'orthorhombic'
loop_
_space_group_symop_operation_xyz
x,y,z
-x,-y,1/2+z
x,-y,-z
-x,y,1/2-z
1/2+x,1/2+y,z
1/2-x,1/2-y,1/2+z
1/2+x,1/2-y,-z
1/2-x,1/2+y,1/2-z
loop_
_atom_site_type_symbol
_atom_site_label
_atom_site_fract_x
_atom_site_fract_y
_atom_site_fract_z
Si Si1 0.441458 0.000000 0.000000
Si Si2 0.193776 0.712095 0.601741
Si Si3 0.500000 0.842622 0.250000
Si Si4 0.244783 0.000000 0.500000
Si Si5 0.609115 0.244797 0.976670
Si Si6 0.818635 0.148630 0.753486
Si Si7 0.151790 0.410003 0.741785
O O1 0.476880 0.088760 0.928627
O O2 0.398434 0.982650 0.805238
O O3 0.160043 0.724236 0.811640
O O4 0.174971 0.795395 0.462285
O O5 0.263353 0.699343 0.644150
O O6 0.174174 0.624778 0.477145
O O7 0.451114 0.777753 0.354658
O O8 0.204729 0.053102 0.665879
O O9 0.291027 0.062018 0.373860
O O10 0.625940 0.336554 0.098629
O O11 0.617674 0.170243 0.149431
#
# Coordination Sequence:
#
# PCOD9321243 Si02
#       7
#     4   8   4   4   8   8   8
#     4  12  22  37  60  92 130 178 219 266 292 380
#     4  11  19  40  59  86 124 173 203 252 316 406
#     4  12  24  40  58  88 134 176 236 254 310 376
#     4  12  22  37  58 100 130 168 207 280 330 388
#     4  11  23  41  59  85 125 183 214 262 311 399
#     4  11  22  36  62  86 129 168 216 260 329 380
#     4  11  22  37  60  88 131 168 211 253 327 378
#
# _framework density 20.093012999999999
#
# number of rings (size 3 to 8) (size 9 to 14) (size 15 to 20)
#    0.000    0.727    5.455    4.364    0.000    0.000 
#    0.000    0.000    0.000    0.000    0.000    0.000 
#    5.455    0.727    0.000    0.000    0.000    0.000 
#
# Total GULP energy -122709.472829 kJ/mol
# GULP energy per Si atom -5577.703310 kJ/mol
# Density = 2.004728 g / cm^3
# Si number density = 20.093013 Si / 1000 Ang^3
#
#
#
# Elastic Constant Matrix: (Units=GPa)
#
#
# Indices 1 2 3 4 5 6 
#
# 1 96.5549 32.3376 39.2371 0.0000 0.0000 0.0000
# 2 32.3376 39.8280 13.1860 0.0000 0.0000 0.0000
# 3 39.2371 13.1860 88.0280 0.0000 0.0000 0.0000
# 4 0.0000 0.0000 0.0000 30.4616 0.0000 0.0000
# 5 0.0000 0.0000 0.0000 0.0000 29.4994 0.0000
# 6 0.0000 0.0000 0.0000 0.0000 0.0000 33.2217
#
#
#
# Elastic Compliance Matrix: (Units=1/GPa)
#
#
# Indices 1 2 3 4 5 6 
#
# 1 0.016510 -0.011541 -0.005630 0.000000 0.000000 0.000000
# 2 -0.011541 0.034486 -0.000021 0.000000 0.000000 0.000000
# 3 -0.005630 -0.000021 0.013873 0.000000 0.000000 0.000000
# 4 0.000000 0.000000 0.000000 0.032828 0.000000 0.000000
# 5 0.000000 0.000000 0.000000 0.000000 0.033899 0.000000
# 6 0.000000 0.000000 0.000000 0.000000 0.000000 0.030101
#
#
# Mechanical properties :
#
#
# Convention : Reuss Voigt Hill
#
# Bulk Modulus (GPa) = 32.80528 43.77024 38.28776
# Shear Modulus (GPa) = 24.24323 27.94655 26.09489
#
# Velocity S-wave (km/s) = 3.47731 3.73347 3.60766
# Velocity P-wave (km/s) = 5.69951 6.35737 6.03741
#
# Compressibility (1/GPa) = 0.03048290
#
# Stress axis : x y z
#
# Youngs Moduli (GPa) = 60.56919 28.99761 72.08316
#
# Poissons Ratio (x) = 0.33466 0.40585
# Poissons Ratio (y) = 0.69903 0.00155
# Poissons Ratio (z) = 0.34102 0.00062
#
# Static dielectric constant tensor:
#      x y z
#    x 1.760440 0.000000 0.000000 
#    y 0.000000 1.797680 0.000000 
#    z 0.000000 0.000000 1.743820 
# 
# From -- ./inp_files/3732.got.cif
#   From: 2010.05.17/outbox.cif.g08.bks.cpg/sg20_2_cif.got.tgz:3732.got - 2010.06.03 22:52:26.
