data_PCOD9321937
_publ_section_title
;
Structure prediction by ZEFSAII (Michael W. Deem and Ramdas Pophale) SiO2 
 PCOD9321937
Probable space group: C 2 2 21
;
_chemical_formula_sum "Si O2"
_cell_formula_units_Z 48
_cell_length_a 9.540289
_cell_length_b 30.340307
_cell_length_c 7.985029
_cell_angle_alpha 90.000000
_cell_angle_beta 90.000000
_cell_angle_gamma 90.000000
_cell_volume 2311.308942
_symmetry_space_group_name_H-M "C 2 2 21"
_symmetry_group_IT_number 20
_symmetry_cell_setting 'orthorhombic'
loop_
_space_group_symop_operation_xyz
x,y,z
-x,-y,1/2+z
x,-y,-z
-x,y,1/2-z
1/2+x,1/2+y,z
1/2-x,1/2-y,1/2+z
1/2+x,1/2-y,-z
1/2-x,1/2+y,1/2-z
loop_
_atom_site_type_symbol
_atom_site_label
_atom_site_fract_x
_atom_site_fract_y
_atom_site_fract_z
Si Si1 0.202612 0.211241 0.385395
Si Si2 0.602857 0.711898 0.999062
Si Si3 0.155542 0.975331 0.176110
Si Si4 0.799595 0.888153 0.888796
Si Si5 0.378727 0.387679 0.498597
Si Si6 0.116668 0.467266 0.874235
O O1 0.315702 0.248860 0.411593
O O2 0.151077 0.211398 0.193450
O O3 0.250954 0.161427 0.422918
O O4 0.064047 0.219026 0.497779
O O5 0.637397 0.662560 0.936577
O O6 0.000000 0.979924 0.250000
O O7 0.267382 0.000880 0.289637
O O8 0.177765 0.924028 0.129232
O O9 0.156084 0.000000 0.000000
O O10 0.813487 0.892962 0.685581
O O11 0.698279 0.926198 0.951181
O O12 0.954531 0.893927 0.966678
O O13 0.000000 0.449555 0.750000
O O14 0.038806 0.500000 0.000000
#
# Coordination Sequence:
#
# PCOD9321937 Si02
#       6
#     8   8   8   8   8   8
#     4   9  19  38  62  84 117 157 193 244 294 355
#     4   9  19  38  59  87 120 152 196 242 297 353
#     4  12  22  37  64  92 119 156 205 253 299 349
#     4   9  18  39  63  84 116 161 201 236 299 360
#     4   9  18  36  64  88 115 154 202 250 287 347
#     4  12  26  43  60  85 123 161 199 248 308 365
#
# _framework density 20.767453
#
# number of rings (size 3 to 8) (size 9 to 14) (size 15 to 20)
#    0.000    2.000    1.667    5.000    0.000    0.667 
#   15.000    0.000    0.000    0.000    0.000    0.000 
#    0.000    0.000    0.000    0.000    0.000    0.000 
#
# Total GULP energy -134099.597325 kJ/mol
# GULP energy per Si atom -5587.483222 kJ/mol
# Density = 2.072019 g / cm^3
# Si number density = 20.767453 Si / 1000 Ang^3
#
#
#
# Elastic Constant Matrix: (Units=GPa)
#
#
# Indices 1 2 3 4 5 6 
#
# 1 48.8562 59.9644 1.2993 0.0000 0.0000 0.0000
# 2 59.9644 162.0940 20.1276 0.0000 0.0000 0.0000
# 3 1.2993 20.1276 15.7725 0.0000 0.0000 0.0000
# 4 0.0000 0.0000 0.0000 35.6939 0.0000 0.0000
# 5 0.0000 0.0000 0.0000 0.0000 22.6207 0.0000
# 6 0.0000 0.0000 0.0000 0.0000 0.0000 30.3768
#
#
#
# Elastic Compliance Matrix: (Units=1/GPa)
#
#
# Indices 1 2 3 4 5 6 
#
# 1 0.041970 -0.017939 0.019436 0.000000 0.000000 0.000000
# 2 -0.017939 0.014999 -0.017663 0.000000 0.000000 0.000000
# 3 0.019436 -0.017663 0.084340 0.000000 0.000000 0.000000
# 4 0.000000 0.000000 0.000000 0.028016 0.000000 0.000000
# 5 0.000000 0.000000 0.000000 0.000000 0.044207 0.000000
# 6 0.000000 0.000000 0.000000 0.000000 0.000000 0.032920
#
#
# Mechanical properties :
#
#
# Convention : Reuss Voigt Hill
#
# Bulk Modulus (GPa) = 9.17633 43.27834 26.22734
# Shear Modulus (GPa) = 15.86745 27.42704 21.64724
#
# Velocity S-wave (km/s) = 2.76715 3.63805 3.23207
# Velocity P-wave (km/s) = 3.82593 6.20741 5.15605
#
# Compressibility (1/GPa) = 0.10897604
#
# Stress axis : x y z
#
# Youngs Moduli (GPa) = 23.82676 66.67144 11.85670
#
# Poissons Ratio (x) = 1.19605 -0.23044
# Poissons Ratio (y) = 0.42744 0.20942
# Poissons Ratio (z) = -0.46309 1.17760
#
# Static dielectric constant tensor:
#      x y z
#    x 1.709660 0.000000 0.000000 
#    y 0.000000 1.739780 0.000000 
#    z 0.000000 0.000000 1.768940 
# 
# From -- ./inp_files/6442.got.cif
#   From: 2010.05.17/outbox.cif.g08.bks.cpg/sg20_4_cif.got.tgz:6442.got - 2010.06.03 22:52:26.
