data_PCOD9321350
_publ_section_title
;
Structure prediction by ZEFSAII (Michael W. Deem and Ramdas Pophale) SiO2 
 PCOD9321350
Probable space group: C 2 2 21
;
_chemical_formula_sum "Si O2"
_cell_formula_units_Z 40
_cell_length_a 19.561047
_cell_length_b 7.774346
_cell_length_c 12.541793
_cell_angle_alpha 90.000000
_cell_angle_beta 90.000000
_cell_angle_gamma 90.000000
_cell_volume 1907.284987
_symmetry_space_group_name_H-M "C 2 2 21"
_symmetry_group_IT_number 20
_symmetry_cell_setting 'orthorhombic'
loop_
_space_group_symop_operation_xyz
x,y,z
-x,-y,1/2+z
x,-y,-z
-x,y,1/2-z
1/2+x,1/2+y,z
1/2-x,1/2-y,1/2+z
1/2+x,1/2-y,-z
1/2-x,1/2+y,1/2-z
loop_
_atom_site_type_symbol
_atom_site_label
_atom_site_fract_x
_atom_site_fract_y
_atom_site_fract_z
Si Si1 0.529218 0.728717 0.447649
Si Si2 0.538244 0.623021 0.859629
Si Si3 0.642229 0.843300 0.799213
Si Si4 0.722177 0.000000 0.000000
Si Si5 0.000000 0.530996 0.750000
Si Si6 0.323905 0.810930 0.948131
O O1 0.497047 0.553291 0.398702
O O2 0.481074 0.758501 0.548769
O O3 0.522120 0.859842 0.352709
O O4 0.604924 0.737783 0.499503
O O5 0.500000 0.652343 0.750000
O O6 0.618442 0.651199 0.838352
O O7 0.681076 0.943680 0.893050
O O8 0.673612 0.830265 0.680730
O O9 0.570471 0.938358 0.779567
O O10 0.767784 0.167628 0.974534
O O11 0.312757 0.000000 0.000000
#
# Coordination Sequence:
#
# PCOD9321350 Si02
#       6
#     8   8   8   4   4   8
#     4  11  23  40  69 111 142 189 239 304 388 450
#     4  11  21  40  68 106 141 180 233 312 382 446
#     4  12  26  48  74 110 148 192 255 321 382 456
#     4  12  32  52  72 110 154 206 266 320 358 462
#     4  12  22  40  76 108 150 178 234 322 394 434
#     4  12  27  51  78 104 152 214 261 304 380 467
#
# _framework density 20.97222
#
# number of rings (size 3 to 8) (size 9 to 14) (size 15 to 20)
#    0.000    0.400    6.000    2.400    2.800    0.000 
#    7.200    0.000    0.000    0.000    0.000    0.000 
#    0.000    0.000    0.000    0.000    0.000    0.000 
#
# Total GULP energy -111430.392496 kJ/mol
# GULP energy per Si atom -5571.519625 kJ/mol
# Density = 2.092449 g / cm^3
# Si number density = 20.972220 Si / 1000 Ang^3
#
#
#
# Elastic Constant Matrix: (Units=GPa)
#
#
# Indices 1 2 3 4 5 6 
#
# 1 84.3031 65.7352 72.8453 0.0000 0.0000 0.0000
# 2 65.7352 128.8855 74.1474 0.0000 0.0000 0.0000
# 3 72.8453 74.1474 214.9020 0.0000 0.0000 0.0000
# 4 0.0000 0.0000 0.0000 23.2507 0.0000 0.0000
# 5 0.0000 0.0000 0.0000 0.0000 32.3088 0.0000
# 6 0.0000 0.0000 0.0000 0.0000 0.0000 29.9080
#
#
#
# Elastic Compliance Matrix: (Units=1/GPa)
#
#
# Indices 1 2 3 4 5 6 
#
# 1 0.022908 -0.009004 -0.004659 0.000000 0.000000 0.000000
# 2 -0.009004 0.013219 -0.001509 0.000000 0.000000 0.000000
# 3 -0.004659 -0.001509 0.006753 0.000000 0.000000 0.000000
# 4 0.000000 0.000000 0.000000 0.043009 0.000000 0.000000
# 5 0.000000 0.000000 0.000000 0.000000 0.030951 0.000000
# 6 0.000000 0.000000 0.000000 0.000000 0.000000 0.033436
#
#
# Mechanical properties :
#
#
# Convention : Reuss Voigt Hill
#
# Bulk Modulus (GPa) = 79.75994 94.83851 87.29922
# Shear Modulus (GPa) = 27.05653 31.45102 29.25377
#
# Velocity S-wave (km/s) = 3.59571 3.87673 3.73886
# Velocity P-wave (km/s) = 7.43994 8.08443 7.76887
#
# Compressibility (1/GPa) = 0.01253762
#
# Stress axis : x y z
#
# Youngs Moduli (GPa) = 43.65295 75.64841 148.08122
#
# Poissons Ratio (x) = 0.68111 0.68985
# Poissons Ratio (y) = 0.39304 0.22345
# Poissons Ratio (z) = 0.20336 0.11415
#
# Static dielectric constant tensor:
#      x y z
#    x 1.745440 0.000000 0.000000 
#    y 0.000000 2.401990 0.000000 
#    z 0.000000 0.000000 1.787680 
# 
# From -- ./inp_files/12778.got.cif
#   From: 2010.05.17/outbox.cif.g08.bks.cpg/sg20_7_cif.got.tgz:12778.got - 2010.06.03 22:52:26.
