data_PCOD9321086
_publ_section_title
;
Structure prediction by ZEFSAII (Michael W. Deem and Ramdas Pophale) SiO2 
 PCOD9321086
Probable space group: C 2 2 21
;
_chemical_formula_sum "Si O2"
_cell_formula_units_Z 40
_cell_length_a 10.251414
_cell_length_b 10.368120
_cell_length_c 15.922540
_cell_angle_alpha 90.000000
_cell_angle_beta 90.000000
_cell_angle_gamma 90.000000
_cell_volume 1692.373188
_symmetry_space_group_name_H-M "C 2 2 21"
_symmetry_group_IT_number 20
_symmetry_cell_setting 'orthorhombic'
loop_
_space_group_symop_operation_xyz
x,y,z
-x,-y,1/2+z
x,-y,-z
-x,y,1/2-z
1/2+x,1/2+y,z
1/2-x,1/2-y,1/2+z
1/2+x,1/2-y,-z
1/2-x,1/2+y,1/2-z
loop_
_atom_site_type_symbol
_atom_site_label
_atom_site_fract_x
_atom_site_fract_y
_atom_site_fract_z
Si Si1 0.435557 0.724581 0.058867
Si Si2 0.183412 0.121025 0.610881
Si Si3 0.313499 0.386242 0.630301
Si Si4 0.606553 0.000000 0.500000
Si Si5 0.249918 0.869062 0.688820
Si Si6 0.500000 0.713525 0.750000
O O1 0.551547 0.626697 0.081575
O O2 0.345042 0.731036 0.141661
O O3 0.468687 0.870157 0.028293
O O4 0.359068 0.660057 0.981874
O O5 0.275767 0.236183 0.640409
O O6 0.058339 0.133377 0.672386
O O7 0.255974 0.987617 0.624624
O O8 0.203261 0.456618 0.575687
O O9 0.311683 0.429705 0.726324
O O10 0.386302 0.804222 0.711972
#
# Coordination Sequence:
#
# PCOD9321086 Si02
#       6
#     8   8   8   4   8   4
#     4  11  25  45  72 106 140 186 241 293 364 435
#     4  10  25  44  70 106 137 189 236 294 367 422
#     4  10  25  44  70 106 137 189 236 294 367 422
#     4  10  26  46  70 100 146 186 232 294 362 426
#     4  11  25  45  72 106 140 186 241 293 364 435
#     4  10  26  46  70 100 146 186 232 294 362 426
#
# _framework density 23.635449000000001
#
# number of rings (size 3 to 8) (size 9 to 14) (size 15 to 20)
#    0.000    1.600    0.000    1.200   16.800    4.800 
#    0.000    0.000    0.000    0.000    0.000    0.000 
#    0.000    0.000    0.000    0.000    0.000    0.000 
#
# Total GULP energy -111816.867927 kJ/mol
# GULP energy per Si atom -5590.843396 kJ/mol
# Density = 2.358165 g / cm^3
# Si number density = 23.635449 Si / 1000 Ang^3
#
#
#
# Elastic Constant Matrix: (Units=GPa)
#
#
# Indices 1 2 3 4 5 6 
#
# 1 38.0279 -15.0518 2.1721 0.0000 0.0000 0.0000
# 2 -15.0518 89.1016 7.3691 0.0000 0.0000 0.0000
# 3 2.1721 7.3691 112.8488 0.0000 0.0000 0.0000
# 4 0.0000 0.0000 0.0000 26.5648 0.0000 0.0000
# 5 0.0000 0.0000 0.0000 0.0000 28.4197 0.0000
# 6 0.0000 0.0000 0.0000 0.0000 0.0000 24.6610
#
#
#
# Elastic Compliance Matrix: (Units=1/GPa)
#
#
# Indices 1 2 3 4 5 6 
#
# 1 0.028264 0.004846 -0.000860 0.000000 0.000000 0.000000
# 2 0.004846 0.012115 -0.000884 0.000000 0.000000 0.000000
# 3 -0.000860 -0.000884 0.008936 0.000000 0.000000 0.000000
# 4 0.000000 0.000000 0.000000 0.037644 0.000000 0.000000
# 5 0.000000 0.000000 0.000000 0.000000 0.035187 0.000000
# 6 0.000000 0.000000 0.000000 0.000000 0.000000 0.040550
#
#
# Mechanical properties :
#
#
# Convention : Reuss Voigt Hill
#
# Bulk Modulus (GPa) = 18.01284 25.43967 21.72625
# Shear Modulus (GPa) = 28.57171 32.29503 30.43337
#
# Velocity S-wave (km/s) = 3.48062 3.70047 3.59223
# Velocity P-wave (km/s) = 4.87757 5.38931 5.13981
#
# Compressibility (1/GPa) = 0.05551596
#
# Stress axis : x y z
#
# Youngs Moduli (GPa) = 35.38116 82.54331 111.91028
#
# Poissons Ratio (x) = -0.39998 0.09629
# Poissons Ratio (y) = -0.17145 0.09897
# Poissons Ratio (z) = 0.03044 0.07300
#
# Static dielectric constant tensor:
#      x y z
#    x 1.951130 0.000000 0.000000 
#    y 0.000000 1.948870 0.000000 
#    z 0.000000 0.000000 1.982930 
# 
# From -- ./inp_files/19733.got.cif
#   From: 2010.05.17/outbox.cif.g08.bks.cpg/sg20_10_cif.got.tgz:19733.got - 2010.06.03 22:52:26.
