data_PCOD9321411
_publ_section_title
;
Structure prediction by ZEFSAII (Michael W. Deem and Ramdas Pophale) SiO2 
 PCOD9321411
Probable space group: C 2 2 21
;
_chemical_formula_sum "Si O2"
_cell_formula_units_Z 48
_cell_length_a 22.174232
_cell_length_b 21.019959
_cell_length_c 5.217810
_cell_angle_alpha 90.000000
_cell_angle_beta 90.000000
_cell_angle_gamma 90.000000
_cell_volume 2432.028794
_symmetry_space_group_name_H-M "C 2 2 21"
_symmetry_group_IT_number 20
_symmetry_cell_setting 'orthorhombic'
loop_
_space_group_symop_operation_xyz
x,y,z
-x,-y,1/2+z
x,-y,-z
-x,y,1/2-z
1/2+x,1/2+y,z
1/2-x,1/2-y,1/2+z
1/2+x,1/2-y,-z
1/2-x,1/2+y,1/2-z
loop_
_atom_site_type_symbol
_atom_site_label
_atom_site_fract_x
_atom_site_fract_y
_atom_site_fract_z
Si Si1 0.768372 0.158393 0.560797
Si Si2 0.261371 0.458317 0.754340
Si Si3 0.961004 0.700206 0.009601
Si Si4 0.330954 0.116019 0.531955
Si Si5 0.163325 0.737575 0.313128
Si Si6 0.435832 0.063341 0.872209
O O1 0.789107 0.109551 0.339029
O O2 0.724056 0.123937 0.765119
O O3 0.822959 0.193746 0.698446
O O4 0.724292 0.213145 0.450067
O O5 0.263319 0.500000 0.500000
O O6 0.283090 0.500000 0.000000
O O7 0.194488 0.433612 0.825524
O O8 0.946744 0.625039 0.048203
O O9 0.000000 0.705944 0.750000
O O10 0.895670 0.733513 0.010139
O O11 0.000000 0.723153 0.250000
O O12 0.344903 0.184093 0.407066
O O13 0.389112 0.088558 0.665041
O O14 0.500000 0.046780 0.750000
O O15 0.412216 0.000000 0.000000
#
# Coordination Sequence:
#
# PCOD9321411 Si02
#       6
#     8   8   8   8   8   8
#     4  11  22  38  63  95 121 168 215 279 343 406
#     4  11  24  41  58  87 123 166 208 258 328 403
#     4  11  24  42  62  85 121 172 219 272 334 379
#     4  11  23  39  61  86 119 168 216 278 333 384
#     4  11  22  39  62  92 128 161 223 278 339 403
#     4  11  24  40  55  83 117 171 235 284 312 362
#
# _framework density 19.736609000000001
#
# number of rings (size 3 to 8) (size 9 to 14) (size 15 to 20)
#    0.000    1.000    5.000    2.500    2.333    0.667 
#    0.000    0.000    0.000    0.000    0.000    0.000 
#    0.000    0.000    5.667    0.500    0.667    0.333 
#
# Total GULP energy -134152.994202 kJ/mol
# GULP energy per Si atom -5589.708092 kJ/mol
# Density = 1.969169 g / cm^3
# Si number density = 19.736609 Si / 1000 Ang^3
#
#
#
# Elastic Constant Matrix: (Units=GPa)
#
#
# Indices 1 2 3 4 5 6 
#
# 1 63.6711 38.9502 36.6269 0.0000 0.0000 0.0000
# 2 38.9502 61.6312 39.1161 0.0000 0.0000 0.0000
# 3 36.6269 39.1161 101.9837 0.0000 0.0000 0.0000
# 4 0.0000 0.0000 0.0000 29.5423 0.0000 0.0000
# 5 0.0000 0.0000 0.0000 0.0000 29.4942 0.0000
# 6 0.0000 0.0000 0.0000 0.0000 0.0000 -2.2432
#
#
#
# Elastic Compliance Matrix: (Units=1/GPa)
#
#
# Indices 1 2 3 4 5 6 
#
# 1 0.026869 -0.014349 -0.004146 0.000000 0.000000 0.000000
# 2 -0.014349 0.029110 -0.006012 0.000000 0.000000 0.000000
# 3 -0.004146 -0.006012 0.013600 0.000000 0.000000 0.000000
# 4 0.000000 0.000000 0.000000 0.033850 0.000000 0.000000
# 5 0.000000 0.000000 0.000000 0.000000 0.033905 0.000000
# 6 0.000000 0.000000 0.000000 0.000000 0.000000 -0.445789
#
#
# Mechanical properties :
#
#
# Convention : Reuss Voigt Hill
#
# Bulk Modulus (GPa) = 48.62694 50.74137 49.68415
# Shear Modulus (GPa) = -19.79518 18.86486 -0.46516
#
# Velocity S-wave (km/s) = -3.17040 3.09501 -0.48600
# Velocity P-wave (km/s) = 3.35998 6.20783 4.99133
#
# Compressibility (1/GPa) = 0.02056473
#
# Stress axis : x y z
#
# Youngs Moduli (GPa) = 37.21789 34.35297 73.52797
#
# Poissons Ratio (x) = 0.49294 0.30485
# Poissons Ratio (y) = 0.53405 0.44202
# Poissons Ratio (z) = 0.15431 0.20651
#
# Static dielectric constant tensor:
#      x y z
#    x 1.712440 0.000000 0.000000 
#    y 0.000000 1.730000 0.000000 
#    z 0.000000 0.000000 1.816670 
# 
# From -- ./inp_files/3187.got.cif
#   From: 2010.05.17/outbox.cif.g08.bks.cpg/sg20_2_cif.got.tgz:3187.got - 2010.06.03 22:52:26.
