data_PCOD9321274
_publ_section_title
;
Structure prediction by ZEFSAII (Michael W. Deem and Ramdas Pophale) SiO2 
 PCOD9321274
Probable space group: C 2 2 21
;
_chemical_formula_sum "Si O2"
_cell_formula_units_Z 48
_cell_length_a 22.392470
_cell_length_b 17.851137
_cell_length_c 6.271023
_cell_angle_alpha 90.000000
_cell_angle_beta 90.000000
_cell_angle_gamma 90.000000
_cell_volume 2506.722607
_symmetry_space_group_name_H-M "C 2 2 21"
_symmetry_group_IT_number 20
_symmetry_cell_setting 'orthorhombic'
loop_
_space_group_symop_operation_xyz
x,y,z
-x,-y,1/2+z
x,-y,-z
-x,y,1/2-z
1/2+x,1/2+y,z
1/2-x,1/2-y,1/2+z
1/2+x,1/2-y,-z
1/2-x,1/2+y,1/2-z
loop_
_atom_site_type_symbol
_atom_site_label
_atom_site_fract_x
_atom_site_fract_y
_atom_site_fract_z
Si Si1 0.762680 0.573062 0.865985
Si Si2 0.677350 0.795810 0.620839
Si Si3 0.570807 0.700687 0.738227
Si Si4 0.947699 0.924390 0.891484
Si Si5 0.242071 0.848256 0.536258
Si Si6 0.353593 0.618434 0.405482
O O1 0.755556 0.580680 0.612342
O O2 0.782619 0.500000 0.000000
O O3 0.803363 0.643105 0.945089
O O4 0.694131 0.585172 0.934959
O O5 0.610078 0.766512 0.633545
O O6 0.719350 0.722340 0.599604
O O7 0.696754 0.830857 0.844363
O O8 0.500000 0.717430 0.750000
O O9 0.573966 0.630335 0.576555
O O10 0.604045 0.675079 0.958769
O O11 0.895584 0.938583 0.721994
O O12 0.000000 0.889046 0.750000
O O13 0.969899 0.000000 0.000000
O O14 0.190725 0.852594 0.717775
#
# Coordination Sequence:
#
# PCOD9321274 Si02
#       6
#     8   8   8   8   8   8
#     4  11  25  39  63  93 126 162 204 266 336 393
#     4  11  21  37  64  90 120 161 210 265 317 381
#     4  12  24  42  60  90 123 170 224 263 309 377
#     4  12  26  39  57  83 130 176 218 256 307 366
#     4  11  20  39  63  91 123 162 206 262 328 380
#     4  11  23  36  61  86 124 164 208 260 309 382
#
# _framework density 19.148508
#
# number of rings (size 3 to 8) (size 9 to 14) (size 15 to 20)
#    0.000    0.667    6.667    1.500    4.667    2.000 
#    0.000    0.000    0.000    0.000    4.333    0.000 
#    0.000    0.000    0.000    0.000    0.000    0.000 
#
# Total GULP energy -133785.704502 kJ/mol
# GULP energy per Si atom -5574.404354 kJ/mol
# Density = 1.910493 g / cm^3
# Si number density = 19.148508 Si / 1000 Ang^3
#
#
#
# Elastic Constant Matrix: (Units=GPa)
#
#
# Indices 1 2 3 4 5 6 
#
# 1 102.0351 35.2167 34.4294 0.0000 0.0000 0.0000
# 2 35.2167 71.2392 38.7653 0.0000 0.0000 0.0000
# 3 34.4294 38.7653 96.2069 0.0000 0.0000 0.0000
# 4 0.0000 0.0000 0.0000 20.4607 0.0000 0.0000
# 5 0.0000 0.0000 0.0000 0.0000 29.8319 0.0000
# 6 0.0000 0.0000 0.0000 0.0000 0.0000 23.2429
#
#
#
# Elastic Compliance Matrix: (Units=1/GPa)
#
#
# Indices 1 2 3 4 5 6 
#
# 1 0.012266 -0.004707 -0.002493 0.000000 0.000000 0.000000
# 2 -0.004707 0.019786 -0.006288 0.000000 0.000000 0.000000
# 3 -0.002493 -0.006288 0.013820 0.000000 0.000000 0.000000
# 4 0.000000 0.000000 0.000000 0.048874 0.000000 0.000000
# 5 0.000000 0.000000 0.000000 0.000000 0.033521 0.000000
# 6 0.000000 0.000000 0.000000 0.000000 0.000000 0.043024
#
#
# Mechanical properties :
#
#
# Convention : Reuss Voigt Hill
#
# Bulk Modulus (GPa) = 52.92123 54.03377 53.47750
# Shear Modulus (GPa) = 24.44194 25.44510 24.94352
#
# Velocity S-wave (km/s) = 3.57661 3.64927 3.61312
# Velocity P-wave (km/s) = 6.68980 6.78496 6.73755
#
# Compressibility (1/GPa) = 0.01889601
#
# Stress axis : x y z
#
# Youngs Moduli (GPa) = 81.52331 50.54140 72.35859
#
# Poissons Ratio (x) = 0.23791 0.18039
# Poissons Ratio (y) = 0.38375 0.45498
# Poissons Ratio (z) = 0.20324 0.31780
#
# Static dielectric constant tensor:
#      x y z
#    x 1.676970 0.000000 0.000000 
#    y 0.000000 1.695830 0.000000 
#    z 0.000000 0.000000 1.779890 
# 
# From -- ./inp_files/3747.got.cif
#   From: 2010.05.17/outbox.cif.g08.bks.cpg/sg20_2_cif.got.tgz:3747.got - 2010.06.03 22:52:26.
