data_PCOD9321106
_publ_section_title
;
Structure prediction by ZEFSAII (Michael W. Deem and Ramdas Pophale) SiO2 
 PCOD9321106
Probable space group: C 2 2 21
;
_chemical_formula_sum "Si O2"
_cell_formula_units_Z 40
_cell_length_a 12.452227
_cell_length_b 9.284139
_cell_length_c 14.695285
_cell_angle_alpha 90.000000
_cell_angle_beta 90.000000
_cell_angle_gamma 90.000000
_cell_volume 1698.895540
_symmetry_space_group_name_H-M "C 2 2 21"
_symmetry_group_IT_number 20
_symmetry_cell_setting 'orthorhombic'
loop_
_space_group_symop_operation_xyz
x,y,z
-x,-y,1/2+z
x,-y,-z
-x,y,1/2-z
1/2+x,1/2+y,z
1/2-x,1/2-y,1/2+z
1/2+x,1/2-y,-z
1/2-x,1/2+y,1/2-z
loop_
_atom_site_type_symbol
_atom_site_label
_atom_site_fract_x
_atom_site_fract_y
_atom_site_fract_z
Si Si1 0.582743 0.563503 0.404124
Si Si2 0.742530 0.857410 0.771530
Si Si3 0.014121 0.355862 0.477843
Si Si4 0.560322 0.682328 0.845867
Si Si5 0.109810 0.625816 0.803263
O O1 0.620029 0.500000 0.500000
O O2 0.669718 0.549661 0.326252
O O3 0.570685 0.731527 0.421591
O O4 0.474113 0.479077 0.376049
O O5 0.681155 0.734608 0.830233
O O6 0.808042 0.760216 0.700519
O O7 0.654772 0.981615 0.753772
O O8 0.078430 0.500000 0.500000
O O9 0.918522 0.403591 0.409121
O O10 0.982342 0.280531 0.571901
O O11 0.500000 0.707526 0.750000
O O12 0.000000 0.663219 0.750000
#
# Coordination Sequence:
#
# PCOD9321106 Si02
#       5
#     8   8   8   8   8
#     4  10  25  46  74 105 147 194 244 309 374 446
#     4  12  26  44  77 108 143 203 239 302 374 451
#     4  11  24  48  75 105 156 190 244 325 366 436
#     4  11  25  47  73 109 150 197 248 307 374 445
#     4  12  27  47  73 110 152 191 252 310 371 446
#
# _framework density 23.544706000000001
#
# number of rings (size 3 to 8) (size 9 to 14) (size 15 to 20)
#    0.000    0.800    4.000    1.800    8.400    0.000 
#    0.000    3.000    0.000    0.000    0.000    0.000 
#    0.000    0.000    0.000    0.000    0.000    0.000 
#
# Total GULP energy -111645.824818 kJ/mol
# GULP energy per Si atom -5582.291241 kJ/mol
# Density = 2.349112 g / cm^3
# Si number density = 23.544706 Si / 1000 Ang^3
#
#
#
# Elastic Constant Matrix: (Units=GPa)
#
#
# Indices 1 2 3 4 5 6 
#
# 1 40.8165 24.1773 -0.5395 0.0000 0.0000 0.0000
# 2 24.1773 118.0596 17.1550 0.0000 0.0000 0.0000
# 3 -0.5395 17.1550 103.0349 0.0000 0.0000 0.0000
# 4 0.0000 0.0000 0.0000 18.5684 0.0000 0.0000
# 5 0.0000 0.0000 0.0000 0.0000 14.2936 0.0000
# 6 0.0000 0.0000 0.0000 0.0000 0.0000 42.2117
#
#
#
# Elastic Compliance Matrix: (Units=1/GPa)
#
#
# Indices 1 2 3 4 5 6 
#
# 1 0.028010 -0.005900 0.001129 0.000000 0.000000 0.000000
# 2 -0.005900 0.009923 -0.001683 0.000000 0.000000 0.000000
# 3 0.001129 -0.001683 0.009992 0.000000 0.000000 0.000000
# 4 0.000000 0.000000 0.000000 0.053855 0.000000 0.000000
# 5 0.000000 0.000000 0.000000 0.000000 0.069962 0.000000
# 6 0.000000 0.000000 0.000000 0.000000 0.000000 0.023690
#
#
# Mechanical properties :
#
#
# Convention : Reuss Voigt Hill
#
# Bulk Modulus (GPa) = 28.55832 38.16629 33.36231
# Shear Modulus (GPa) = 22.72609 29.75593 26.24101
#
# Velocity S-wave (km/s) = 3.11019 3.55886 3.34206
# Velocity P-wave (km/s) = 5.00534 5.75610 5.39380
#
# Compressibility (1/GPa) = 0.03501606
#
# Stress axis : x y z
#
# Youngs Moduli (GPa) = 35.70190 100.77450 100.08423
#
# Poissons Ratio (x) = 0.59458 -0.11300
# Poissons Ratio (y) = 0.21065 0.16845
# Poissons Ratio (z) = -0.04031 0.16961
#
# Static dielectric constant tensor:
#      x y z
#    x 1.932120 0.000000 0.000000 
#    y 0.000000 1.948140 0.000000 
#    z 0.000000 0.000000 1.923110 
# 
# From -- ./inp_files/24073.got.cif
#   From: 2010.05.17/outbox.cif.g08.bks.cpg/sg20_13_cif.got.tgz:24073.got - 2010.06.03 22:52:26.
