data_PCOD9321275
_publ_section_title
;
Structure prediction by ZEFSAII (Michael W. Deem and Ramdas Pophale) SiO2 
 PCOD9321275
Probable space group: C 2 2 21
;
_chemical_formula_sum "Si O2"
_cell_formula_units_Z 40
_cell_length_a 7.390936
_cell_length_b 12.860037
_cell_length_c 16.737143
_cell_angle_alpha 90.000000
_cell_angle_beta 90.000000
_cell_angle_gamma 90.000000
_cell_volume 1590.827121
_symmetry_space_group_name_H-M "C 2 2 21"
_symmetry_group_IT_number 20
_symmetry_cell_setting 'orthorhombic'
loop_
_space_group_symop_operation_xyz
x,y,z
-x,-y,1/2+z
x,-y,-z
-x,y,1/2-z
1/2+x,1/2+y,z
1/2-x,1/2-y,1/2+z
1/2+x,1/2-y,-z
1/2-x,1/2+y,1/2-z
loop_
_atom_site_type_symbol
_atom_site_label
_atom_site_fract_x
_atom_site_fract_y
_atom_site_fract_z
Si Si1 0.501137 0.909218 0.163298
Si Si2 0.563911 0.233902 0.159991
Si Si3 0.884934 0.022777 0.669050
Si Si4 0.997151 0.380537 0.994721
Si Si5 0.195453 0.928001 0.604625
O O1 0.500000 0.856237 0.250000
O O2 0.329805 0.987232 0.173639
O O3 0.471263 0.840659 0.083986
O O4 0.320810 0.978021 0.357882
O O5 0.500000 0.218622 0.250000
O O6 0.584424 0.356245 0.148653
O O7 0.750847 0.170545 0.157437
O O8 0.451157 0.185788 0.084294
O O9 0.000000 0.002003 0.750000
O O10 0.987769 0.954793 0.603983
O O11 0.212440 0.396065 0.978594
O O12 0.923400 0.500000 0.000000
#
# Coordination Sequence:
#
# PCOD9321275 Si02
#       5
#     8   8   8   8   8
#     4  11  20  39  65  92 134 176 221 283 338 400
#     4   9  20  40  65  95 135 171 227 288 335 413
#     4  11  22  38  68 101 126 182 234 273 346 416
#     4   8  19  37  63  87 121 177 211 266 352 381
#     4   9  20  42  65  87 132 174 215 277 341 393
#
# _framework density 25.144154
#
# number of rings (size 3 to 8) (size 9 to 14) (size 15 to 20)
#    1.200    1.200    2.000    0.600    0.000    0.000 
#    7.200   12.000    4.400    0.000    0.000    0.000 
#    0.000    0.000    0.000    0.000    0.000    0.000 
#
# Total GULP energy -111359.274504 kJ/mol
# GULP energy per Si atom -5567.963725 kJ/mol
# Density = 2.508692 g / cm^3
# Si number density = 25.144154 Si / 1000 Ang^3
#
#
#
# Elastic Constant Matrix: (Units=GPa)
#
#
# Indices 1 2 3 4 5 6 
#
# 1 89.6294 -9.6408 5.9516 0.0000 0.0000 0.0000
# 2 -9.6408 64.1675 21.2151 0.0000 0.0000 0.0000
# 3 5.9516 21.2151 193.2887 0.0000 0.0000 0.0000
# 4 0.0000 0.0000 0.0000 20.5201 0.0000 0.0000
# 5 0.0000 0.0000 0.0000 0.0000 29.5230 0.0000
# 6 0.0000 0.0000 0.0000 0.0000 0.0000 24.4903
#
#
#
# Elastic Compliance Matrix: (Units=1/GPa)
#
#
# Indices 1 2 3 4 5 6 
#
# 1 0.011398 0.001897 -0.000559 0.000000 0.000000 0.000000
# 2 0.001897 0.016487 -0.001868 0.000000 0.000000 0.000000
# 3 -0.000559 -0.001868 0.005396 0.000000 0.000000 0.000000
# 4 0.000000 0.000000 0.000000 0.048733 0.000000 0.000000
# 5 0.000000 0.000000 0.000000 0.000000 0.033872 0.000000
# 6 0.000000 0.000000 0.000000 0.000000 0.000000 0.040832
#
#
# Mechanical properties :
#
#
# Convention : Reuss Voigt Hill
#
# Bulk Modulus (GPa) = 31.03527 42.45971 36.74749
# Shear Modulus (GPa) = 29.67038 36.87733 33.27386
#
# Velocity S-wave (km/s) = 3.43886 3.83382 3.64170
# Velocity P-wave (km/s) = 5.30447 6.04324 5.68587
#
# Compressibility (1/GPa) = 0.03222140
#
# Stress axis : x y z
#
# Youngs Moduli (GPa) = 87.73258 60.65430 185.32740
#
# Poissons Ratio (x) = -0.11509 0.10364
# Poissons Ratio (y) = -0.16647 0.34619
# Poissons Ratio (z) = 0.04906 0.11330
#
# Static dielectric constant tensor:
#      x y z
#    x 2.039130 0.000000 0.000000 
#    y 0.000000 2.005420 0.000000 
#    z 0.000000 0.000000 2.146980 
# 
# From -- ./inp_files/18525.got.cif
#   From: 2010.05.17/outbox.cif.g08.bks.cpg/sg20_10_cif.got.tgz:18525.got - 2010.06.03 22:52:26.
