data_PCOD9321721
_publ_section_title
;
Structure prediction by ZEFSAII (Michael W. Deem and Ramdas Pophale) SiO2 
 PCOD9321721
Probable space group: C 2 2 21
;
_chemical_formula_sum "Si O2"
_cell_formula_units_Z 56
_cell_length_a 12.126548
_cell_length_b 13.052051
_cell_length_c 14.899372
_cell_angle_alpha 90.000000
_cell_angle_beta 90.000000
_cell_angle_gamma 90.000000
_cell_volume 2358.217814
_symmetry_space_group_name_H-M "C 2 2 21"
_symmetry_group_IT_number 20
_symmetry_cell_setting 'orthorhombic'
loop_
_space_group_symop_operation_xyz
x,y,z
-x,-y,1/2+z
x,-y,-z
-x,y,1/2-z
1/2+x,1/2+y,z
1/2-x,1/2-y,1/2+z
1/2+x,1/2-y,-z
1/2-x,1/2+y,1/2-z
loop_
_atom_site_type_symbol
_atom_site_label
_atom_site_fract_x
_atom_site_fract_y
_atom_site_fract_z
Si Si1 0.318499 0.103002 0.559045
Si Si2 0.477216 0.616556 0.479044
Si Si3 0.265794 0.820731 0.957384
Si Si4 0.786803 0.423232 0.243154
Si Si5 0.912360 0.837943 0.328850
Si Si6 0.938052 0.317988 0.105950
Si Si7 0.130387 0.351124 0.735608
O O1 0.271690 0.205868 0.514302
O O2 0.256546 0.103814 0.654884
O O3 0.446049 0.125482 0.585776
O O4 0.308149 0.000000 0.500000
O O5 0.516391 0.500000 0.500000
O O6 0.348517 0.617295 0.450568
O O7 0.472870 0.668815 0.577303
O O8 0.539405 0.696127 0.412637
O O9 0.328347 0.822660 0.862893
O O10 0.350692 0.857136 0.032182
O O11 0.679883 0.424056 0.179625
O O12 0.882190 0.352035 0.199556
O O13 0.828040 0.537436 0.254190
O O14 0.839504 0.738010 0.304882
O O15 0.000000 0.853777 0.250000
O O16 0.000000 0.355493 0.750000
#
# Coordination Sequence:
#
# PCOD9321721 Si02
#       7
#     8   8   8   8   8   8   8
#     4  11  27  45  71 105 150 194 252 315 387 448
#     4  11  25  47  73 108 146 204 249 306 398 458
#     4  11  24  45  69 107 143 191 247 310 372 464
#     4  12  25  46  73 114 148 191 256 320 383 438
#     4  11  24  49  72 103 150 199 255 303 382 476
#     4  11  25  44  73 104 148 184 251 318 370 460
#     4  11  24  42  76 103 144 195 251 306 382 457
#
# _framework density 23.746746999999999
#
# number of rings (size 3 to 8) (size 9 to 14) (size 15 to 20)
#    0.000    0.857    2.857    3.857    8.000    0.571 
#    2.571    0.000    0.000    0.000    0.000    0.000 
#    0.000    0.000    0.000    0.000    0.000    0.000 
#
# Total GULP energy -156492.448433 kJ/mol
# GULP energy per Si atom -5589.016015 kJ/mol
# Density = 2.369270 g / cm^3
# Si number density = 23.746747 Si / 1000 Ang^3
#
#
#
# Elastic Constant Matrix: (Units=GPa)
#
#
# Indices 1 2 3 4 5 6 
#
# 1 75.3485 -6.4611 1.6406 0.0000 0.0000 0.0000
# 2 -6.4611 57.1243 24.8848 0.0000 0.0000 0.0000
# 3 1.6406 24.8848 110.8744 0.0000 0.0000 0.0000
# 4 0.0000 0.0000 0.0000 -48.0344 0.0000 0.0000
# 5 0.0000 0.0000 0.0000 0.0000 23.6111 0.0000
# 6 0.0000 0.0000 0.0000 0.0000 0.0000 48.3308
#
#
#
# Elastic Compliance Matrix: (Units=1/GPa)
#
#
# Indices 1 2 3 4 5 6 
#
# 1 0.013437 0.001781 -0.000598 0.000000 0.000000 0.000000
# 2 0.001781 0.019639 -0.004434 0.000000 0.000000 0.000000
# 3 -0.000598 -0.004434 0.010023 0.000000 0.000000 0.000000
# 4 0.000000 0.000000 0.000000 -0.020818 0.000000 0.000000
# 5 0.000000 0.000000 0.000000 0.000000 0.042353 0.000000
# 6 0.000000 0.000000 0.000000 0.000000 0.000000 0.020691
#
#
# Mechanical properties :
#
#
# Convention : Reuss Voigt Hill
#
# Bulk Modulus (GPa) = 27.32587 31.49730 29.41158
# Shear Modulus (GPa) = 48.06445 19.66703 33.86574
#
# Velocity S-wave (km/s) = 4.50382 2.88097 3.78050
# Velocity P-wave (km/s) = 6.21112 4.93551 5.60969
#
# Compressibility (1/GPa) = 0.03659536
#
# Stress axis : x y z
#
# Youngs Moduli (GPa) = 74.41929 50.91994 99.76800
#
# Poissons Ratio (x) = -0.09067 0.05971
# Poissons Ratio (y) = -0.13251 0.44238
# Poissons Ratio (z) = 0.04454 0.22578
#
# Static dielectric constant tensor:
#      x y z
#    x 2.208880 0.000000 0.000000 
#    y 0.000000 2.040270 0.000000 
#    z 0.000000 0.000000 1.841320 
# 
# From -- ./inp_files/20020.got.cif
#   From: 2010.05.17/outbox.cif.g08.bks.cpg/sg20_11_cif.got.tgz:20020.got - 2010.06.03 22:52:26.
