data_PCOD9321436
_publ_section_title
;
Structure prediction by ZEFSAII (Michael W. Deem and Ramdas Pophale) SiO2 
 PCOD9321436
Probable space group: C 2 2 21
;
_chemical_formula_sum "Si O2"
_cell_formula_units_Z 52
_cell_length_a 16.712173
_cell_length_b 15.734577
_cell_length_c 9.692728
_cell_angle_alpha 90.000000
_cell_angle_beta 90.000000
_cell_angle_gamma 90.000000
_cell_volume 2548.789800
_symmetry_space_group_name_H-M "C 2 2 21"
_symmetry_group_IT_number 20
_symmetry_cell_setting 'orthorhombic'
loop_
_space_group_symop_operation_xyz
x,y,z
-x,-y,1/2+z
x,-y,-z
-x,y,1/2-z
1/2+x,1/2+y,z
1/2-x,1/2-y,1/2+z
1/2+x,1/2-y,-z
1/2-x,1/2+y,1/2-z
loop_
_atom_site_type_symbol
_atom_site_label
_atom_site_fract_x
_atom_site_fract_y
_atom_site_fract_z
Si Si1 0.679840 0.870059 0.308693
Si Si2 0.597438 0.291967 0.569989
Si Si3 0.307317 0.367981 0.697746
Si Si4 0.940910 0.430831 0.381512
Si Si5 0.248284 0.000000 0.000000
Si Si6 0.577075 0.740871 0.006747
Si Si7 0.669570 0.257270 0.270712
O O1 0.616742 0.795832 0.346913
O O2 0.646361 0.930505 0.189533
O O3 0.761823 0.824914 0.267602
O O4 0.696980 0.925711 0.441613
O O5 0.641556 0.362219 0.662591
O O6 0.503846 0.307588 0.548744
O O7 0.635896 0.277932 0.420668
O O8 0.302723 0.458135 0.622505
O O9 0.349737 0.301959 0.590536
O O10 0.218836 0.331317 0.728867
O O11 0.954057 0.500000 0.500000
O O12 0.942099 0.337473 0.449801
O O13 0.000000 0.440607 0.250000
O O14 0.602355 0.740373 0.847134
#
# Coordination Sequence:
#
# PCOD9321436 Si02
#       7
#     8   8   8   8   4   8   8
#     4  11  24  41  65  96 137 175 230 285 343 409
#     4  11  22  41  70  97 130 182 228 287 345 423
#     4  11  22  41  71  93 134 187 230 283 344 412
#     4  12  27  43  64 100 147 181 229 287 361 426
#     4  12  24  42  68 104 138 180 240 294 344 402
#     4  12  22  44  67  98 133 183 226 287 351 423
#     4  11  22  40  68 100 125 177 240 275 340 425
#
# _framework density 20.401838999999999
#
# number of rings (size 3 to 8) (size 9 to 14) (size 15 to 20)
#    0.000    0.615    7.692    1.846    3.231    1.231 
#    0.000    0.000    6.769    0.000    0.000    0.000 
#    0.000    0.000    0.000    0.000    0.000    0.000 
#
# Total GULP energy -145222.630143 kJ/mol
# GULP energy per Si atom -5585.485775 kJ/mol
# Density = 2.035540 g / cm^3
# Si number density = 20.401839 Si / 1000 Ang^3
#
#
#
# Elastic Constant Matrix: (Units=GPa)
#
#
# Indices 1 2 3 4 5 6 
#
# 1 55.7984 11.5834 27.6175 0.0000 0.0000 0.0000
# 2 11.5834 45.8373 19.7551 0.0000 0.0000 0.0000
# 3 27.6175 19.7551 135.8014 0.0000 0.0000 0.0000
# 4 0.0000 0.0000 0.0000 45.5463 0.0000 0.0000
# 5 0.0000 0.0000 0.0000 0.0000 37.9327 0.0000
# 6 0.0000 0.0000 0.0000 0.0000 0.0000 10.6809
#
#
#
# Elastic Compliance Matrix: (Units=1/GPa)
#
#
# Indices 1 2 3 4 5 6 
#
# 1 0.020471 -0.003605 -0.003639 0.000000 0.000000 0.000000
# 2 -0.003605 0.023910 -0.002745 0.000000 0.000000 0.000000
# 3 -0.003639 -0.002745 0.008503 0.000000 0.000000 0.000000
# 4 0.000000 0.000000 0.000000 0.021956 0.000000 0.000000
# 5 0.000000 0.000000 0.000000 0.000000 0.026363 0.000000
# 6 0.000000 0.000000 0.000000 0.000000 0.000000 0.093625
#
#
# Mechanical properties :
#
#
# Convention : Reuss Voigt Hill
#
# Bulk Modulus (GPa) = 30.38877 39.48322 34.93600
# Shear Modulus (GPa) = 22.14603 30.73072 26.43837
#
# Velocity S-wave (km/s) = 3.29825 3.88528 3.60374
# Velocity P-wave (km/s) = 5.42514 6.28665 5.87172
#
# Compressibility (1/GPa) = 0.03290690
#
# Stress axis : x y z
#
# Youngs Moduli (GPa) = 48.84953 41.82279 117.60522
#
# Poissons Ratio (x) = 0.15077 0.42793
# Poissons Ratio (y) = 0.17610 0.32284
# Poissons Ratio (z) = 0.17775 0.11481
#
# Static dielectric constant tensor:
#      x y z
#    x 1.757350 0.000000 0.000000 
#    y 0.000000 1.732810 0.000000 
#    z 0.000000 0.000000 1.746750 
# 
# From -- ./inp_files/9513.got.cif
#   From: 2010.05.17/outbox.cif.g08.bks.cpg/sg20_5_cif.got.tgz:9513.got - 2010.06.03 22:52:26.
