data_PCOD9321747
_publ_section_title
;
Structure prediction by ZEFSAII (Michael W. Deem and Ramdas Pophale) SiO2 
 PCOD9321747
Probable space group: C 2 2 21
;
_chemical_formula_sum "Si O2"
_cell_formula_units_Z 32
_cell_length_a 18.506160
_cell_length_b 14.473873
_cell_length_c 5.045237
_cell_angle_alpha 90.000000
_cell_angle_beta 90.000000
_cell_angle_gamma 90.000000
_cell_volume 1351.396041
_symmetry_space_group_name_H-M "C 2 2 21"
_symmetry_group_IT_number 20
_symmetry_cell_setting 'orthorhombic'
loop_
_space_group_symop_operation_xyz
x,y,z
-x,-y,1/2+z
x,-y,-z
-x,y,1/2-z
1/2+x,1/2+y,z
1/2-x,1/2-y,1/2+z
1/2+x,1/2-y,-z
1/2-x,1/2+y,1/2-z
loop_
_atom_site_type_symbol
_atom_site_label
_atom_site_fract_x
_atom_site_fract_y
_atom_site_fract_z
Si Si1 0.781898 0.700495 0.376400
Si Si2 0.721887 0.500000 0.500000
Si Si3 0.000000 0.124128 0.250000
Si Si4 0.123796 0.000000 0.000000
Si Si5 0.000000 0.437042 0.250000
Si Si6 0.557769 0.791637 0.937777
O O1 0.766801 0.754744 0.648775
O O2 0.765363 0.591456 0.408474
O O3 0.865136 0.720880 0.309928
O O4 0.676052 0.534157 0.760595
O O5 0.931363 0.059706 0.314064
O O6 0.983622 0.198727 0.478467
O O7 0.017421 0.500000 0.500000
O O8 0.935512 0.365164 0.323143
O O9 0.500000 0.837441 0.750000
#
# Coordination Sequence:
#
# PCOD9321747 Si02
#       6
#     8   4   4   4   4   8
#     4  12  29  50  77 112 158 209 259 321 395 477
#     4  12  27  50  76 113 160 210 260 314 402 483
#     4  11  26  44  75 116 144 200 251 332 392 453
#     4  12  27  48  78 111 156 196 262 326 392 477
#     4  11  24  44  71 108 144 184 245 312 370 443
#     4  11  27  47  78 111 155 197 260 319 391 456
#
# _framework density 23.679217999999999
#
# number of rings (size 3 to 8) (size 9 to 14) (size 15 to 20)
#    0.000    0.500    1.250    5.250   17.500    0.000 
#    2.250    0.000    0.000    0.000    0.000    0.000 
#    0.000    0.000    0.000    0.000    0.000    0.000 
#
# Total GULP energy -89113.975264 kJ/mol
# GULP energy per Si atom -5569.623454 kJ/mol
# Density = 2.362532 g / cm^3
# Si number density = 23.679218 Si / 1000 Ang^3
#
#
#
# Elastic Constant Matrix: (Units=GPa)
#
#
# Indices 1 2 3 4 5 6 
#
# 1 104.4946 27.3070 41.5734 0.0000 0.0000 0.0000
# 2 27.3070 123.3500 35.3335 0.0000 0.0000 0.0000
# 3 41.5734 35.3335 78.2216 0.0000 0.0000 0.0000
# 4 0.0000 0.0000 0.0000 42.1064 0.0000 0.0000
# 5 0.0000 0.0000 0.0000 0.0000 37.7780 0.0000
# 6 0.0000 0.0000 0.0000 0.0000 0.0000 71.1344
#
#
#
# Elastic Compliance Matrix: (Units=1/GPa)
#
#
# Indices 1 2 3 4 5 6 
#
# 1 0.012237 -0.000972 -0.006065 0.000000 0.000000 0.000000
# 2 -0.000972 0.009389 -0.003725 0.000000 0.000000 0.000000
# 3 -0.006065 -0.003725 0.017690 0.000000 0.000000 0.000000
# 4 0.000000 0.000000 0.000000 0.023749 0.000000 0.000000
# 5 0.000000 0.000000 0.000000 0.000000 0.026470 0.000000
# 6 0.000000 0.000000 0.000000 0.000000 0.000000 0.014058
#
#
# Mechanical properties :
#
#
# Convention : Reuss Voigt Hill
#
# Bulk Modulus (GPa) = 56.20013 57.16602 56.68308
# Shear Modulus (GPa) = 38.15438 43.66057 40.90748
#
# Velocity S-wave (km/s) = 4.01846 4.29865 4.16091
# Velocity P-wave (km/s) = 6.73173 6.98800 6.86106
#
# Compressibility (1/GPa) = 0.01779355
#
# Stress axis : x y z
#
# Youngs Moduli (GPa) = 81.72184 106.50687 56.52936
#
# Poissons Ratio (x) = 0.10349 0.34283
# Poissons Ratio (y) = 0.07941 0.21055
# Poissons Ratio (z) = 0.49561 0.39671
#
# Static dielectric constant tensor:
#      x y z
#    x 1.790030 0.000000 0.000000 
#    y 0.000000 2.079410 0.000000 
#    z 0.000000 0.000000 2.163230 
# 
# From -- ./inp_files/1635.got.cif
#   From: 2010.05.17/outbox.cif.g08.bks.cpg/sg20_1_cif.got.tgz:1635.got - 2010.06.03 22:52:26.
