data_PCOD9321173
_publ_section_title
;
Structure prediction by ZEFSAII (Michael W. Deem and Ramdas Pophale) SiO2 
 PCOD9321173
Probable space group: C 2 2 21
;
_chemical_formula_sum "Si O2"
_cell_formula_units_Z 32
_cell_length_a 13.464148
_cell_length_b 5.068956
_cell_length_c 17.814315
_cell_angle_alpha 90.000000
_cell_angle_beta 90.000000
_cell_angle_gamma 90.000000
_cell_volume 1215.812280
_symmetry_space_group_name_H-M "C 2 2 21"
_symmetry_group_IT_number 20
_symmetry_cell_setting 'orthorhombic'
loop_
_space_group_symop_operation_xyz
x,y,z
-x,-y,1/2+z
x,-y,-z
-x,y,1/2-z
1/2+x,1/2+y,z
1/2-x,1/2-y,1/2+z
1/2+x,1/2-y,-z
1/2-x,1/2+y,1/2-z
loop_
_atom_site_type_symbol
_atom_site_label
_atom_site_fract_x
_atom_site_fract_y
_atom_site_fract_z
Si Si1 0.488572 0.616752 0.915692
Si Si2 0.701862 0.949748 0.280203
Si Si3 0.390879 0.000000 0.500000
Si Si4 0.712770 0.827900 0.564522
Si Si5 0.000000 0.225538 0.750000
O O1 0.369204 0.615417 0.913618
O O2 0.515799 0.560689 0.828243
O O3 0.510830 0.500000 0.000000
O O4 0.542001 0.897687 0.931376
O O5 0.780617 0.150497 0.242498
O O6 0.727007 0.978521 0.367092
O O7 0.595238 0.082681 0.263607
O O8 0.314254 0.790591 0.464750
O O9 0.664120 0.000000 0.500000
#
# Coordination Sequence:
#
# PCOD9321173 Si02
#       5
#     8   8   4   8   4
#     4  11  24  46  71 103 142 191 241 298 366 433
#     4  11  27  48  73 108 146 191 242 303 368 439
#     4  12  24  42  74  98 138 192 238 298 372 428
#     4  11  25  44  72 101 143 184 244 299 361 436
#     4  10  26  48  68 108 152 190 246 308 364 440
#
# _framework density 26.319852000000001
#
# number of rings (size 3 to 8) (size 9 to 14) (size 15 to 20)
#    0.000    1.000    2.500    2.250   10.500    1.000 
#    0.000    0.000    0.000    0.000    0.000    0.000 
#    0.000    0.000    0.000    0.000    0.000    0.000 
#
# Total GULP energy -89396.572426 kJ/mol
# GULP energy per Si atom -5587.285777 kJ/mol
# Density = 2.625995 g / cm^3
# Si number density = 26.319852 Si / 1000 Ang^3
#
#
#
# Elastic Constant Matrix: (Units=GPa)
#
#
# Indices 1 2 3 4 5 6 
#
# 1 132.7236 21.9792 25.4789 0.0000 0.0000 0.0000
# 2 21.9792 46.2786 28.5163 0.0000 0.0000 0.0000
# 3 25.4789 28.5163 230.5933 0.0000 0.0000 0.0000
# 4 0.0000 0.0000 0.0000 43.1702 0.0000 0.0000
# 5 0.0000 0.0000 0.0000 0.0000 398.6445 0.0000
# 6 0.0000 0.0000 0.0000 0.0000 0.0000 7.9538
#
#
#
# Elastic Compliance Matrix: (Units=1/GPa)
#
#
# Indices 1 2 3 4 5 6 
#
# 1 0.008223 -0.003621 -0.000461 0.000000 0.000000 0.000000
# 2 -0.003621 0.024985 -0.002690 0.000000 0.000000 0.000000
# 3 -0.000461 -0.002690 0.004720 0.000000 0.000000 0.000000
# 4 0.000000 0.000000 0.000000 0.023164 0.000000 0.000000
# 5 0.000000 0.000000 0.000000 0.000000 0.002509 0.000000
# 6 0.000000 0.000000 0.000000 0.000000 0.000000 0.125726
#
#
# Mechanical properties :
#
#
# Convention : Reuss Voigt Hill
#
# Bulk Modulus (GPa) = 41.00912 62.39382 51.70147
# Shear Modulus (GPa) = 23.69681 112.19510 67.94595
#
# Velocity S-wave (km/s) = 3.00382 6.53606 5.08641
# Velocity P-wave (km/s) = 5.25790 8.98430 7.36081
#
# Compressibility (1/GPa) = 0.02438482
#
# Stress axis : x y z
#
# Youngs Moduli (GPa) = 121.61615 40.02328 211.85701
#
# Poissons Ratio (x) = 0.14494 0.09761
# Poissons Ratio (y) = 0.44041 0.56983
# Poissons Ratio (z) = 0.05603 0.10765
#
# Static dielectric constant tensor:
#      x y z
#    x 2.015770 0.000000 0.000000 
#    y 0.000000 2.159380 0.000000 
#    z 0.000000 0.000000 2.035230 
# 
# From -- ./inp_files/22517.got.cif
#   From: 2010.05.17/outbox.cif.g08.bks.cpg/sg20_12_cif.got.tgz:22517.got - 2010.06.03 22:52:26.
