data_PCOD9321113
_publ_section_title
;
Structure prediction by ZEFSAII (Michael W. Deem and Ramdas Pophale) SiO2 
 PCOD9321113
Probable space group: C 2 2 21
;
_chemical_formula_sum "Si O2"
_cell_formula_units_Z 28
_cell_length_a 13.779368
_cell_length_b 4.816281
_cell_length_c 17.152224
_cell_angle_alpha 90.000000
_cell_angle_beta 90.000000
_cell_angle_gamma 90.000000
_cell_volume 1138.312634
_symmetry_space_group_name_H-M "C 2 2 21"
_symmetry_group_IT_number 20
_symmetry_cell_setting 'orthorhombic'
loop_
_space_group_symop_operation_xyz
x,y,z
-x,-y,1/2+z
x,-y,-z
-x,y,1/2-z
1/2+x,1/2+y,z
1/2-x,1/2-y,1/2+z
1/2+x,1/2-y,-z
1/2-x,1/2+y,1/2-z
loop_
_atom_site_type_symbol
_atom_site_label
_atom_site_fract_x
_atom_site_fract_y
_atom_site_fract_z
Si Si1 0.958728 0.836549 0.626390
Si Si2 0.447305 0.000000 0.000000
Si Si3 0.156948 0.662561 0.177966
Si Si4 0.853071 0.468689 0.154478
O O1 0.929730 0.148875 0.643923
O O2 0.986566 0.734248 0.539765
O O3 0.054912 0.732599 0.671256
O O4 0.867604 0.649321 0.652918
O O5 0.380405 0.104120 0.071479
O O6 0.257224 0.783975 0.147303
O O7 0.157969 0.668072 0.271720
#
# Coordination Sequence:
#
# PCOD9321113 Si02
#       4
#     8   4   8   8
#     4  10  26  47  71 107 144 191 243 302 360 445
#     4   8  24  54  66 112 150 194 244 310 366 426
#     4  12  24  45  78 106 144 195 246 295 381 419
#     4  10  25  47  72 115 141 193 247 312 348 450
#
# _framework density 24.597814
#
# number of rings (size 3 to 8) (size 9 to 14) (size 15 to 20)
#    1.714    0.000    0.000    2.571    0.000   14.857 
#    0.000    0.000    0.000    0.000    0.000    0.000 
#    0.000    0.000    0.000    0.000    0.000    0.000 
#
# Total GULP energy -78334.209310 kJ/mol
# GULP energy per Si atom -5595.300665 kJ/mol
# Density = 2.454183 g / cm^3
# Si number density = 24.597814 Si / 1000 Ang^3
#
#
#
# Elastic Constant Matrix: (Units=GPa)
#
#
# Indices 1 2 3 4 5 6 
#
# 1 128.2642 5.5887 30.5642 0.0000 0.0000 0.0000
# 2 5.5887 73.1015 9.4746 0.0000 0.0000 0.0000
# 3 30.5642 9.4746 150.6604 0.0000 0.0000 0.0000
# 4 0.0000 0.0000 0.0000 39.4292 0.0000 0.0000
# 5 0.0000 0.0000 0.0000 0.0000 36.5669 0.0000
# 6 0.0000 0.0000 0.0000 0.0000 0.0000 15.7222
#
#
#
# Elastic Compliance Matrix: (Units=1/GPa)
#
#
# Indices 1 2 3 4 5 6 
#
# 1 0.008205 -0.000415 -0.001638 0.000000 0.000000 0.000000
# 2 -0.000415 0.013813 -0.000784 0.000000 0.000000 0.000000
# 3 -0.001638 -0.000784 0.007019 0.000000 0.000000 0.000000
# 4 0.000000 0.000000 0.000000 0.025362 0.000000 0.000000
# 5 0.000000 0.000000 0.000000 0.000000 0.027347 0.000000
# 6 0.000000 0.000000 0.000000 0.000000 0.000000 0.063604
#
#
# Mechanical properties :
#
#
# Convention : Reuss Voigt Hill
#
# Bulk Modulus (GPa) = 42.80563 49.25345 46.02954
# Shear Modulus (GPa) = 31.48354 38.77025 35.12690
#
# Velocity S-wave (km/s) = 3.58150 3.97440 3.78305
# Velocity P-wave (km/s) = 5.87731 6.41312 6.15105
#
# Compressibility (1/GPa) = 0.02336142
#
# Stress axis : x y z
#
# Youngs Moduli (GPa) = 121.87827 72.39556 142.46722
#
# Poissons Ratio (x) = 0.03004 0.23342
# Poissons Ratio (y) = 0.05057 0.11176
# Poissons Ratio (z) = 0.19969 0.05679
#
# Static dielectric constant tensor:
#      x y z
#    x 1.916910 0.000000 0.000000 
#    y 0.000000 1.920310 0.000000 
#    z 0.000000 0.000000 1.986170 
# 
# From -- ./inp_files/27354.got.cif
#   From: 2010.05.17/outbox.cif.g08.bks.cpg/sg20_14_cif.got.tgz:27354.got - 2010.06.03 22:52:26.
