data_PCOD9321838
_publ_section_title
;
Structure prediction by ZEFSAII (Michael W. Deem and Ramdas Pophale) SiO2 
 PCOD9321838
Probable space group: C 2 2 21
;
_chemical_formula_sum "Si O2"
_cell_formula_units_Z 32
_cell_length_a 14.619123
_cell_length_b 10.569080
_cell_length_c 9.550007
_cell_angle_alpha 90.000000
_cell_angle_beta 90.000000
_cell_angle_gamma 90.000000
_cell_volume 1475.578081
_symmetry_space_group_name_H-M "C 2 2 21"
_symmetry_group_IT_number 20
_symmetry_cell_setting 'orthorhombic'
loop_
_space_group_symop_operation_xyz
x,y,z
-x,-y,1/2+z
x,-y,-z
-x,y,1/2-z
1/2+x,1/2+y,z
1/2-x,1/2-y,1/2+z
1/2+x,1/2-y,-z
1/2-x,1/2+y,1/2-z
loop_
_atom_site_type_symbol
_atom_site_label
_atom_site_fract_x
_atom_site_fract_y
_atom_site_fract_z
Si Si1 0.634561 0.700168 0.144823
Si Si2 0.564872 0.355777 0.546924
Si Si3 0.665796 0.878247 0.594817
Si Si4 0.591030 0.025419 0.838581
O O1 0.543028 0.678583 0.054430
O O2 0.607920 0.651722 0.298392
O O3 0.725681 0.639281 0.086012
O O4 0.652415 0.849650 0.162382
O O5 0.575561 0.500000 0.500000
O O6 0.614448 0.247683 0.455970
O O7 0.640468 0.000000 0.500000
O O8 0.637974 0.912159 0.754063
O O9 0.500000 0.056659 0.750000
O O10 0.570241 0.000000 0.000000
#
# Coordination Sequence:
#
# PCOD9321838 Si02
#       4
#     8   8   8   8
#     4  11  25  46  72 104 151 187 242 307 355 440
#     4  11  25  49  71 104 152 193 239 300 371 432
#     4  12  26  46  77 108 143 195 247 300 369 437
#     4  12  25  47  74 105 145 191 243 304 366 432
#
# _framework density 21.686416000000001
#
# number of rings (size 3 to 8) (size 9 to 14) (size 15 to 20)
#    0.000    0.500    5.000    3.000    7.000    0.000 
#   13.500    0.000    0.000    0.000    0.000    0.000 
#    0.000    0.000    0.000    0.000    0.000    0.000 
#
# Total GULP energy -89548.062562 kJ/mol
# GULP energy per Si atom -5596.753910 kJ/mol
# Density = 2.163706 g / cm^3
# Si number density = 21.686416 Si / 1000 Ang^3
#
#
#
# Elastic Constant Matrix: (Units=GPa)
#
#
# Indices 1 2 3 4 5 6 
#
# 1 137.8828 64.0130 54.9692 0.0000 0.0000 0.0000
# 2 64.0130 172.0077 64.5949 0.0000 0.0000 0.0000
# 3 54.9692 64.5949 125.8314 0.0000 0.0000 0.0000
# 4 0.0000 0.0000 0.0000 28.5574 0.0000 0.0000
# 5 0.0000 0.0000 0.0000 0.0000 4.5563 0.0000
# 6 0.0000 0.0000 0.0000 0.0000 0.0000 24.4648
#
#
#
# Elastic Compliance Matrix: (Units=1/GPa)
#
#
# Indices 1 2 3 4 5 6 
#
# 1 0.009556 -0.002464 -0.002910 0.000000 0.000000 0.000000
# 2 -0.002464 0.007837 -0.002947 0.000000 0.000000 0.000000
# 3 -0.002910 -0.002947 0.010731 0.000000 0.000000 0.000000
# 4 0.000000 0.000000 0.000000 0.035017 0.000000 0.000000
# 5 0.000000 0.000000 0.000000 0.000000 0.219477 0.000000
# 6 0.000000 0.000000 0.000000 0.000000 0.000000 0.040875
#
#
# Mechanical properties :
#
#
# Convention : Reuss Voigt Hill
#
# Bulk Modulus (GPa) = 87.08063 89.20847 88.14455
# Shear Modulus (GPa) = 14.53645 28.32535 21.43090
#
# Velocity S-wave (km/s) = 2.59183 3.61797 3.14700
# Velocity P-wave (km/s) = 7.01416 7.66015 7.34426
#
# Compressibility (1/GPa) = 0.01148361
#
# Stress axis : x y z
#
# Youngs Moduli (GPa) = 104.64180 127.59614 93.18627
#
# Poissons Ratio (x) = 0.31435 0.27117
# Poissons Ratio (y) = 0.25780 0.27462
# Poissons Ratio (z) = 0.30451 0.37602
#
# Static dielectric constant tensor:
#      x y z
#    x 1.785500 0.000000 0.000000 
#    y 0.000000 1.818420 0.000000 
#    z 0.000000 0.000000 1.805810 
# 
# From -- ./inp_files/7830.got.cif
#   From: 2010.05.17/outbox.cif.g08.bks.cpg/sg20_4_cif.got.tgz:7830.got - 2010.06.03 22:52:26.
