data_PCOD9321087
_publ_section_title
;
Structure prediction by ZEFSAII (Michael W. Deem and Ramdas Pophale) SiO2 
 PCOD9321087
Probable space group: C 2 2 21
;
_chemical_formula_sum "Si O2"
_cell_formula_units_Z 28
_cell_length_a 17.085035
_cell_length_b 9.769535
_cell_length_c 6.690725
_cell_angle_alpha 90.000000
_cell_angle_beta 90.000000
_cell_angle_gamma 90.000000
_cell_volume 1116.767961
_symmetry_space_group_name_H-M "C 2 2 21"
_symmetry_group_IT_number 20
_symmetry_cell_setting 'orthorhombic'
loop_
_space_group_symop_operation_xyz
x,y,z
-x,-y,1/2+z
x,-y,-z
-x,y,1/2-z
1/2+x,1/2+y,z
1/2-x,1/2-y,1/2+z
1/2+x,1/2-y,-z
1/2-x,1/2+y,1/2-z
loop_
_atom_site_type_symbol
_atom_site_label
_atom_site_fract_x
_atom_site_fract_y
_atom_site_fract_z
Si Si1 0.912853 0.541917 0.728062
Si Si2 0.868616 0.000000 0.000000
Si Si3 0.631196 0.254229 0.271792
Si Si4 0.187321 0.208896 0.177322
O O1 0.895878 0.500000 0.500000
O O2 0.908113 0.391105 0.821320
O O3 0.851020 0.657509 0.778599
O O4 0.000000 0.597105 0.750000
O O5 0.911213 0.124443 0.890514
O O6 0.822443 0.924341 0.817976
O O7 0.721273 0.240031 0.344298
O O8 0.643143 0.295342 0.037593
#
# Coordination Sequence:
#
# PCOD9321087 Si02
#       4
#     8   4   8   8
#     4  10  25  44  72 100 133 181 236 278 334 419
#     4  12  24  38  66  94 140 176 214 286 354 376
#     4  11  23  42  68 103 137 177 235 282 339 413
#     4  11  23  42  68 103 137 177 235 282 339 413
#
# _framework density 25.072351999999999
#
# number of rings (size 3 to 8) (size 9 to 14) (size 15 to 20)
#    0.000    1.143    2.857    2.571    8.000    0.000 
#    0.000    1.429    0.000    0.000    0.000    0.000 
#    0.000    0.000    0.000    0.000    0.000    0.000 
#
# Total GULP energy -78255.790367 kJ/mol
# GULP energy per Si atom -5589.699312 kJ/mol
# Density = 2.501529 g / cm^3
# Si number density = 25.072352 Si / 1000 Ang^3
#
#
#
# Elastic Constant Matrix: (Units=GPa)
#
#
# Indices 1 2 3 4 5 6 
#
# 1 78.4408 26.5353 -7.0999 0.0000 0.0000 0.0000
# 2 26.5353 164.9570 28.4368 0.0000 0.0000 0.0000
# 3 -7.0999 28.4368 120.6898 0.0000 0.0000 0.0000
# 4 0.0000 0.0000 0.0000 112.0643 0.0000 0.0000
# 5 0.0000 0.0000 0.0000 0.0000 20.9690 0.0000
# 6 0.0000 0.0000 0.0000 0.0000 0.0000 31.8108
#
#
#
# Elastic Compliance Matrix: (Units=1/GPa)
#
#
# Indices 1 2 3 4 5 6 
#
# 1 0.013700 -0.002442 0.001381 0.000000 0.000000 0.000000
# 2 -0.002442 0.006754 -0.001735 0.000000 0.000000 0.000000
# 3 0.001381 -0.001735 0.008776 0.000000 0.000000 0.000000
# 4 0.000000 0.000000 0.000000 0.008923 0.000000 0.000000
# 5 0.000000 0.000000 0.000000 0.000000 0.047689 0.000000
# 6 0.000000 0.000000 0.000000 0.000000 0.000000 0.031436
#
#
# Mechanical properties :
#
#
# Convention : Reuss Voigt Hill
#
# Bulk Modulus (GPa) = 42.30453 51.09245 46.69849
# Shear Modulus (GPa) = 38.24128 54.04985 46.14556
#
# Velocity S-wave (km/s) = 3.90966 4.64805 4.29475
# Velocity P-wave (km/s) = 6.10657 7.01627 6.57717
#
# Compressibility (1/GPa) = 0.02363813
#
# Stress axis : x y z
#
# Youngs Moduli (GPa) = 72.99519 148.05845 113.95013
#
# Poissons Ratio (x) = 0.36154 -0.15739
# Poissons Ratio (y) = 0.17824 0.19771
# Poissons Ratio (z) = -0.10083 0.25689
#
# Static dielectric constant tensor:
#      x y z
#    x 1.821480 0.000000 0.000000 
#    y 0.000000 2.004830 0.000000 
#    z 0.000000 0.000000 2.204880 
# 
# From -- ./inp_files/9772.got.cif
#   From: 2010.05.17/outbox.cif.g08.bks.cpg/sg20_5_cif.got.tgz:9772.got - 2010.06.03 22:52:26.
