data_PCOD9321141
_publ_section_title
;
Structure prediction by ZEFSAII (Michael W. Deem and Ramdas Pophale) SiO2 
 PCOD9321141
Probable space group: C 2 2 21
;
_chemical_formula_sum "Si O2"
_cell_formula_units_Z 24
_cell_length_a 6.941568
_cell_length_b 7.502537
_cell_length_c 19.471604
_cell_angle_alpha 90.000000
_cell_angle_beta 90.000000
_cell_angle_gamma 90.000000
_cell_volume 1014.068884
_symmetry_space_group_name_H-M "C 2 2 21"
_symmetry_group_IT_number 20
_symmetry_cell_setting 'orthorhombic'
loop_
_space_group_symop_operation_xyz
x,y,z
-x,-y,1/2+z
x,-y,-z
-x,y,1/2-z
1/2+x,1/2+y,z
1/2-x,1/2-y,1/2+z
1/2+x,1/2-y,-z
1/2-x,1/2+y,1/2-z
loop_
_atom_site_type_symbol
_atom_site_label
_atom_site_fract_x
_atom_site_fract_y
_atom_site_fract_z
Si Si1 0.823423 0.969584 0.422803
Si Si2 0.470530 0.176707 0.643074
Si Si3 0.862650 0.701217 0.313980
O O1 0.602865 0.900080 0.419807
O O2 0.930875 0.814554 0.380246
O O3 0.889440 0.000000 0.500000
O O4 0.854147 0.150659 0.379884
O O5 0.644115 0.231806 0.694666
O O6 0.356879 0.007169 0.669592
O O7 0.000000 0.733007 0.250000
#
# Coordination Sequence:
#
# PCOD9321141 Si02
#       3
#     8   8   8
#     4  10  26  42  69  94 131 166 216 262 320 376
#     4  10  26  39  67  91 128 166 213 262 318 380
#     4  10  26  40  66  92 132 168 216 262 320 376
#
# _framework density 23.667031999999999
#
# number of rings (size 3 to 8) (size 9 to 14) (size 15 to 20)
#    2.000    0.000    0.000    0.000   14.000    1.333 
#    0.000    0.000    0.000    0.000    0.000    0.000 
#    0.000    0.000    0.000    0.000    0.000    0.000 
#
# Total GULP energy -67006.486116 kJ/mol
# GULP energy per Si atom -5583.873843 kJ/mol
# Density = 2.361316 g / cm^3
# Si number density = 23.667032 Si / 1000 Ang^3
#
#
#
# Elastic Constant Matrix: (Units=GPa)
#
#
# Indices 1 2 3 4 5 6 
#
# 1 52.6825 32.1090 0.0378 0.0000 0.0000 0.0000
# 2 32.1090 176.1016 17.9141 0.0000 0.0000 0.0000
# 3 0.0378 17.9141 62.3081 0.0000 0.0000 0.0000
# 4 0.0000 0.0000 0.0000 21.5761 0.0000 0.0000
# 5 0.0000 0.0000 0.0000 0.0000 16.2553 0.0000
# 6 0.0000 0.0000 0.0000 0.0000 0.0000 34.6703
#
#
#
# Elastic Compliance Matrix: (Units=1/GPa)
#
#
# Indices 1 2 3 4 5 6 
#
# 1 0.021434 -0.004024 0.001144 0.000000 0.000000 0.000000
# 2 -0.004024 0.006605 -0.001897 0.000000 0.000000 0.000000
# 3 0.001144 -0.001897 0.016594 0.000000 0.000000 0.000000
# 4 0.000000 0.000000 0.000000 0.046348 0.000000 0.000000
# 5 0.000000 0.000000 0.000000 0.000000 0.061518 0.000000
# 6 0.000000 0.000000 0.000000 0.000000 0.000000 0.028843
#
#
# Mechanical properties :
#
#
# Convention : Reuss Voigt Hill
#
# Bulk Modulus (GPa) = 28.50730 43.46824 35.98777
# Shear Modulus (GPa) = 24.68053 30.56909 27.62481
#
# Velocity S-wave (km/s) = 3.23278 3.59783 3.42018
# Velocity P-wave (km/s) = 5.09959 5.97207 5.55299
#
# Compressibility (1/GPa) = 0.03507874
#
# Stress axis : x y z
#
# Youngs Moduli (GPa) = 46.65569 151.39454 60.26321
#
# Poissons Ratio (x) = 0.60928 -0.06894
# Poissons Ratio (y) = 0.18776 0.11430
# Poissons Ratio (z) = -0.05338 0.28714
#
# Static dielectric constant tensor:
#      x y z
#    x 1.930940 0.000000 0.000000 
#    y 0.000000 1.815540 0.000000 
#    z 0.000000 0.000000 1.936930 
# 
# From -- ./inp_files/18070.got.cif
#   From: 2010.05.17/outbox.cif.g08.bks.cpg/sg20_10_cif.got.tgz:18070.got - 2010.06.03 22:52:26.
