data_PCOD9321906
_publ_section_title
;
Structure prediction by ZEFSAII (Michael W. Deem and Ramdas Pophale) SiO2 
 PCOD9321906
Probable space group: C 2 2 21
;
_chemical_formula_sum "Si O2"
_cell_formula_units_Z 40
_cell_length_a 8.693137
_cell_length_b 23.322733
_cell_length_c 7.977394
_cell_angle_alpha 90.000000
_cell_angle_beta 90.000000
_cell_angle_gamma 90.000000
_cell_volume 1617.398391
_symmetry_space_group_name_H-M "C 2 2 21"
_symmetry_group_IT_number 20
_symmetry_cell_setting 'orthorhombic'
loop_
_space_group_symop_operation_xyz
x,y,z
-x,-y,1/2+z
x,-y,-z
-x,y,1/2-z
1/2+x,1/2+y,z
1/2-x,1/2-y,1/2+z
1/2+x,1/2-y,-z
1/2-x,1/2+y,1/2-z
loop_
_atom_site_type_symbol
_atom_site_label
_atom_site_fract_x
_atom_site_fract_y
_atom_site_fract_z
Si Si1 0.731510 0.430030 0.076533
Si Si2 0.737829 0.911958 0.822688
Si Si3 0.589472 0.202101 0.017067
Si Si4 0.000000 0.981110 0.750000
Si Si5 0.767303 0.694298 0.846320
Si Si6 0.014156 0.500000 0.000000
O O1 0.617335 0.476596 0.155837
O O2 0.707782 0.370179 0.166207
O O3 0.899237 0.458044 0.100131
O O4 0.739410 0.413947 0.878219
O O5 0.673226 0.851594 0.890361
O O6 0.618504 0.958615 0.889733
O O7 0.903925 0.938460 0.873596
O O8 0.407219 0.195009 0.983526
O O9 0.659918 0.208028 0.832254
O O10 0.637501 0.260133 0.109091
#
# Coordination Sequence:
#
# PCOD9321906 Si02
#       6
#     8   8   8   4   8   4
#     4  12  27  49  77 115 157 210 261 322 398 465
#     4  12  28  48  78 114 156 212 255 331 387 474
#     4  11  27  49  77 110 152 198 266 322 398 465
#     4  12  30  46  76 122 164 202 262 322 398 468
#     4  11  27  49  77 110 147 204 258 329 392 470
#     4  12  26  46  84 112 160 208 266 312 394 472
#
# _framework density 24.731075000000001
#
# number of rings (size 3 to 8) (size 9 to 14) (size 15 to 20)
#    0.000    0.400    4.000    1.800    5.600    7.200 
#    0.000    0.000    0.000    0.000    0.000    0.000 
#    0.000    0.000    0.000    0.000    0.000    0.000 
#
# Total GULP energy -111944.261544 kJ/mol
# GULP energy per Si atom -5597.213077 kJ/mol
# Density = 2.467479 g / cm^3
# Si number density = 24.731075 Si / 1000 Ang^3
#
#
#
# Elastic Constant Matrix: (Units=GPa)
#
#
# Indices 1 2 3 4 5 6 
#
# 1 130.2636 37.1922 29.2678 0.0000 0.0000 0.0000
# 2 37.1922 153.9369 5.5488 0.0000 0.0000 0.0000
# 3 29.2678 5.5488 74.4349 0.0000 0.0000 0.0000
# 4 0.0000 0.0000 0.0000 40.9634 0.0000 0.0000
# 5 0.0000 0.0000 0.0000 0.0000 41.7573 0.0000
# 6 0.0000 0.0000 0.0000 0.0000 0.0000 30.0223
#
#
#
# Elastic Compliance Matrix: (Units=1/GPa)
#
#
# Indices 1 2 3 4 5 6 
#
# 1 0.009028 -0.002059 -0.003396 0.000000 0.000000 0.000000
# 2 -0.002059 0.006983 0.000289 0.000000 0.000000 0.000000
# 3 -0.003396 0.000289 0.014748 0.000000 0.000000 0.000000
# 4 0.000000 0.000000 0.000000 0.024412 0.000000 0.000000
# 5 0.000000 0.000000 0.000000 0.000000 0.023948 0.000000
# 6 0.000000 0.000000 0.000000 0.000000 0.000000 0.033309
#
#
# Mechanical properties :
#
#
# Convention : Reuss Voigt Hill
#
# Bulk Modulus (GPa) = 48.95430 55.85032 52.40231
# Shear Modulus (GPa) = 38.58958 41.65705 40.12331
#
# Velocity S-wave (km/s) = 3.95443 4.10860 4.03225
# Velocity P-wave (km/s) = 6.37869 6.71859 6.55085
#
# Compressibility (1/GPa) = 0.02042721
#
# Stress axis : x y z
#
# Youngs Moduli (GPa) = 110.77152 143.20182 67.80395
#
# Poissons Ratio (x) = 0.29481 0.23027
# Poissons Ratio (y) = 0.22805 -0.01959
# Poissons Ratio (z) = 0.37620 -0.04137
#
# Static dielectric constant tensor:
#      x y z
#    x 2.012210 0.000000 0.000000 
#    y 0.000000 1.904820 0.000000 
#    z 0.000000 0.000000 2.060140 
# 
# From -- ./inp_files/6152.got.cif
#   From: 2010.05.17/outbox.cif.g08.bks.cpg/sg20_4_cif.got.tgz:6152.got - 2010.06.03 22:52:26.
