data_PCOD9321098
_publ_section_title
;
Structure prediction by ZEFSAII (Michael W. Deem and Ramdas Pophale) SiO2 
 PCOD9321098
Probable space group: C 2 2 21
;
_chemical_formula_sum "Si O2"
_cell_formula_units_Z 52
_cell_length_a 13.245076
_cell_length_b 20.421202
_cell_length_c 7.503109
_cell_angle_alpha 90.000000
_cell_angle_beta 90.000000
_cell_angle_gamma 90.000000
_cell_volume 2029.443717
_symmetry_space_group_name_H-M "C 2 2 21"
_symmetry_group_IT_number 20
_symmetry_cell_setting 'orthorhombic'
loop_
_space_group_symop_operation_xyz
x,y,z
-x,-y,1/2+z
x,-y,-z
-x,y,1/2-z
1/2+x,1/2+y,z
1/2-x,1/2-y,1/2+z
1/2+x,1/2-y,-z
1/2-x,1/2+y,1/2-z
loop_
_atom_site_type_symbol
_atom_site_label
_atom_site_fract_x
_atom_site_fract_y
_atom_site_fract_z
Si Si1 0.829119 0.896155 0.979425
Si Si2 0.747735 0.738999 0.385362
Si Si3 0.500000 0.528653 0.250000
Si Si4 0.542864 0.715676 0.043354
Si Si5 0.073056 0.337985 0.413620
Si Si6 0.873139 0.909968 0.381611
Si Si7 0.702591 0.885747 0.675247
O O1 0.048655 0.851005 0.070043
O O2 0.730830 0.917999 0.863962
O O3 0.923023 0.929718 0.874631
O O4 0.822508 0.905436 0.188138
O O5 0.673265 0.682877 0.462757
O O6 0.677341 0.802202 0.346877
O O7 0.841155 0.760795 0.508215
O O8 0.795771 0.691950 0.231452
O O9 0.430633 0.476919 0.350941
O O10 0.500000 0.706232 0.250000
O O11 0.483995 0.779814 0.983951
O O12 0.104919 0.393354 0.553361
O O13 0.000000 0.356488 0.250000
O O14 0.794750 0.905590 0.544327
#
# Coordination Sequence:
#
# PCOD9321098 Si02
#       7
#     8   8   4   8   8   8   8
#     4  10  29  47  74 105 168 218 280 349 419 523
#     4  10  25  46  72 113 174 215 275 356 419 515
#     4  12  30  52  76 130 168 226 302 356 454 544
#     4  11  26  45  79 124 168 226 278 347 431 531
#     4  11  24  41  75 109 159 216 275 333 425 517
#     4  12  27  45  79 110 168 221 273 353 425 525
#     4  10  25  45  70 105 156 210 277 344 415 508
#
# _framework density 25.622783999999999
#
# number of rings (size 3 to 8) (size 9 to 14) (size 15 to 20)
#    0.923    0.308    1.538    2.308   14.000    0.615 
#    0.000    1.538    0.000    0.000    0.000    4.308 
#    0.000    0.000    0.000    0.000    0.000    0.000 
#
# Total GULP energy -144836.887541 kJ/mol
# GULP energy per Si atom -5570.649521 kJ/mol
# Density = 2.556447 g / cm^3
# Si number density = 25.622784 Si / 1000 Ang^3
#
#
#
# Elastic Constant Matrix: (Units=GPa)
#
#
# Indices 1 2 3 4 5 6 
#
# 1 112.8800 35.6511 67.1168 0.0000 0.0000 0.0000
# 2 35.6511 90.8161 42.3381 0.0000 0.0000 0.0000
# 3 67.1168 42.3381 212.6169 0.0000 0.0000 0.0000
# 4 0.0000 0.0000 0.0000 30.5225 0.0000 0.0000
# 5 0.0000 0.0000 0.0000 0.0000 62.1100 0.0000
# 6 0.0000 0.0000 0.0000 0.0000 0.0000 45.7278
#
#
#
# Elastic Compliance Matrix: (Units=1/GPa)
#
#
# Indices 1 2 3 4 5 6 
#
# 1 0.011673 -0.003158 -0.003056 0.000000 0.000000 0.000000
# 2 -0.003158 0.012992 -0.001590 0.000000 0.000000 0.000000
# 3 -0.003056 -0.001590 0.005985 0.000000 0.000000 0.000000
# 4 0.000000 0.000000 0.000000 0.032763 0.000000 0.000000
# 5 0.000000 0.000000 0.000000 0.000000 0.016100 0.000000
# 6 0.000000 0.000000 0.000000 0.000000 0.000000 0.021869
#
#
# Mechanical properties :
#
#
# Convention : Reuss Voigt Hill
#
# Bulk Modulus (GPa) = 66.48091 78.50278 72.49184
# Shear Modulus (GPa) = 40.98203 45.75252 43.36727
#
# Velocity S-wave (km/s) = 4.00363 4.23024 4.11850
# Velocity P-wave (km/s) = 6.88291 7.38677 7.13929
#
# Compressibility (1/GPa) = 0.01504191
#
# Stress axis : x y z
#
# Youngs Moduli (GPa) = 85.66449 76.96869 167.09251
#
# Poissons Ratio (x) = 0.24305 0.51066
# Poissons Ratio (y) = 0.27051 0.26573
# Poissons Ratio (z) = 0.26180 0.12240
#
# Static dielectric constant tensor:
#      x y z
#    x 2.173200 0.000000 0.000000 
#    y 0.000000 2.049210 0.000000 
#    z 0.000000 0.000000 2.112110 
# 
# From -- ./inp_files/8861.got.cif
#   From: 2010.05.17/outbox.cif.g08.bks.cpg/sg20_5_cif.got.tgz:8861.got - 2010.06.03 22:52:26.
