data_PCOD9321534
_publ_section_title
;
Structure prediction by ZEFSAII (Michael W. Deem and Ramdas Pophale) SiO2 
 PCOD9321534
Probable space group: C 2 2 21
;
_chemical_formula_sum "Si O2"
_cell_formula_units_Z 64
_cell_length_a 10.899823
_cell_length_b 9.523541
_cell_length_c 27.113549
_cell_angle_alpha 90.000000
_cell_angle_beta 90.000000
_cell_angle_gamma 90.000000
_cell_volume 2814.519547
_symmetry_space_group_name_H-M "C 2 2 21"
_symmetry_group_IT_number 20
_symmetry_cell_setting 'orthorhombic'
loop_
_space_group_symop_operation_xyz
x,y,z
-x,-y,1/2+z
x,-y,-z
-x,y,1/2-z
1/2+x,1/2+y,z
1/2-x,1/2-y,1/2+z
1/2+x,1/2-y,-z
1/2-x,1/2+y,1/2-z
loop_
_atom_site_type_symbol
_atom_site_label
_atom_site_fract_x
_atom_site_fract_y
_atom_site_fract_z
Si Si1 0.684239 0.356905 0.471873
Si Si2 0.963975 0.788490 0.408801
Si Si3 0.235129 0.376231 0.462306
Si Si4 0.923207 0.502581 0.875055
Si Si5 0.701348 0.389649 0.300380
Si Si6 0.706242 0.083661 0.274487
Si Si7 0.055645 0.991548 0.832773
Si Si8 0.863343 0.723806 0.611836
O O1 0.712122 0.500000 0.500000
O O2 0.571919 0.378566 0.434203
O O3 0.646936 0.233378 0.509831
O O4 0.800089 0.298648 0.440822
O O5 0.851652 0.785943 0.446026
O O6 0.021192 0.640378 0.396025
O O7 0.917464 0.860357 0.358633
O O8 0.267048 0.500000 0.500000
O O9 0.178627 0.445915 0.413732
O O10 0.871277 0.475394 0.820501
O O11 0.028331 0.617122 0.877321
O O12 0.676613 0.248712 0.267872
O O13 0.801595 0.488644 0.274098
O O14 0.582330 0.483131 0.313384
O O15 0.756725 0.317733 0.349244
O O16 0.848328 0.056314 0.291119
O O17 0.081209 0.875512 0.875117
#
# Coordination Sequence:
#
# PCOD9321534 Si02
#       8
#     8   8   8   8   8   8   8   8
#     4  12  26  45  68 104 142 187 248 292 353 436
#     4  12  23  45  71  98 139 187 238 291 355 422
#     4  12  26  44  73 103 141 190 236 298 358 422
#     4  12  26  45  68 105 146 182 238 298 356 430
#     4  11  25  48  74 104 145 182 244 295 361 435
#     4  11  25  47  72 108 140 188 238 296 361 437
#     4  11  22  46  76  99 137 190 236 291 362 421
#     4  11  27  45  72 103 146 189 236 301 359 428
#
# _framework density 22.739228000000001
#
# number of rings (size 3 to 8) (size 9 to 14) (size 15 to 20)
#    0.000    0.500    5.000    3.000    5.250    3.000 
#    2.250    0.000    0.000    0.000    0.000    0.000 
#    0.000    0.000    0.000    0.000    0.000    0.000 
#
# Total GULP energy -178985.338224 kJ/mol
# GULP energy per Si atom -5593.291820 kJ/mol
# Density = 2.268747 g / cm^3
# Si number density = 22.739228 Si / 1000 Ang^3
#
#
#
# Elastic Constant Matrix: (Units=GPa)
#
#
# Indices 1 2 3 4 5 6 
#
# 1 78.9956 18.6187 -8.8022 0.0000 0.0000 0.0000
# 2 18.6187 110.0928 11.0614 0.0000 0.0000 0.0000
# 3 -8.8022 11.0614 25.9387 0.0000 0.0000 0.0000
# 4 0.0000 0.0000 0.0000 40.6775 0.0000 0.0000
# 5 0.0000 0.0000 0.0000 0.0000 19.5818 0.0000
# 6 0.0000 0.0000 0.0000 0.0000 0.0000 -126.6934
#
#
#
# Elastic Compliance Matrix: (Units=1/GPa)
#
#
# Indices 1 2 3 4 5 6 
#
# 1 0.014033 -0.002979 0.006033 0.000000 0.000000 0.000000
# 2 -0.002979 0.010122 -0.005328 0.000000 0.000000 0.000000
# 3 0.006033 -0.005328 0.042871 0.000000 0.000000 0.000000
# 4 0.000000 0.000000 0.000000 0.024584 0.000000 0.000000
# 5 0.000000 0.000000 0.000000 0.000000 0.051068 0.000000
# 6 0.000000 0.000000 0.000000 0.000000 0.000000 -0.007893
#
#
# Mechanical properties :
#
#
# Convention : Reuss Voigt Hill
#
# Bulk Modulus (GPa) = 16.00551 28.53144 22.26847
# Shear Modulus (GPa) = 31.21870 -0.34351 15.43759
#
# Velocity S-wave (km/s) = 3.70929 -0.38909 2.60839
# Velocity P-wave (km/s) = 5.03975 3.51747 4.34579
#
# Compressibility (1/GPa) = 0.06247848
#
# Stress axis : x y z
#
# Youngs Moduli (GPa) = 71.25878 98.79074 23.32553
#
# Poissons Ratio (x) = 0.29434 -0.14072
# Poissons Ratio (y) = 0.21231 0.12427
# Poissons Ratio (z) = -0.42988 0.52632
#
# Static dielectric constant tensor:
#      x y z
#    x 1.871940 0.000000 0.000000 
#    y 0.000000 2.146430 0.000000 
#    z 0.000000 0.000000 2.117820 
# 
# From -- ./inp_files/31192.got.cif
#   From: 2010.05.17/outbox.cif.g08.bks.cpg/sg20_16_cif.got.tgz:31192.got - 2010.06.03 22:52:26.
