data_PCOD9321994
_publ_section_title
;
Structure prediction by ZEFSAII (Michael W. Deem and Ramdas Pophale) SiO2 
 PCOD9321994
Probable space group: C 2 2 21
;
_chemical_formula_sum "Si O2"
_cell_formula_units_Z 32
_cell_length_a 8.215700
_cell_length_b 27.533198
_cell_length_c 5.610995
_cell_angle_alpha 90.000000
_cell_angle_beta 90.000000
_cell_angle_gamma 90.000000
_cell_volume 1269.232289
_symmetry_space_group_name_H-M "C 2 2 21"
_symmetry_group_IT_number 20
_symmetry_cell_setting 'orthorhombic'
loop_
_space_group_symop_operation_xyz
x,y,z
-x,-y,1/2+z
x,-y,-z
-x,y,1/2-z
1/2+x,1/2+y,z
1/2-x,1/2-y,1/2+z
1/2+x,1/2-y,-z
1/2-x,1/2+y,1/2-z
loop_
_atom_site_type_symbol
_atom_site_label
_atom_site_fract_x
_atom_site_fract_y
_atom_site_fract_z
Si Si1 0.759776 0.093198 0.613653
Si Si2 0.500000 0.357953 0.750000
Si Si3 0.000000 0.025889 0.750000
Si Si4 0.725603 0.813354 0.081872
Si Si5 0.500000 0.240417 0.250000
Si Si6 0.915901 0.500000 0.000000
O O1 0.694857 0.140182 0.749913
O O2 0.908920 0.112006 0.452921
O O3 0.840979 0.057392 0.806553
O O4 0.659052 0.054723 0.460693
O O5 0.648557 0.328813 0.629232
O O6 0.962271 0.000000 0.500000
O O7 0.839893 0.773591 0.211568
O O8 0.559856 0.792500 0.969954
O O9 0.000000 0.490900 0.250000
#
# Coordination Sequence:
#
# PCOD9321994 Si02
#       6
#     8   4   4   8   4   4
#     4  12  27  48  83 116 168 215 292 353 445 530
#     4  12  23  50  81 124 162 218 293 358 449 536
#     4  12  24  42  80 118 150 206 270 347 411 502
#     4  12  27  51  81 126 162 233 281 374 439 543
#     4  12  27  54  81 116 182 216 303 363 456 528
#     4  12  34  54  76 124 182 232 294 362 454 542
#
# _framework density 25.212092999999999
#
# number of rings (size 3 to 8) (size 9 to 14) (size 15 to 20)
#    0.000    0.000    6.250    2.250    5.250    2.000 
#    0.000    0.000    0.000    0.000    0.000    0.000 
#    0.000    0.000    0.000    0.000    0.000    0.000 
#
# Total GULP energy -89348.637473 kJ/mol
# GULP energy per Si atom -5584.289842 kJ/mol
# Density = 2.515471 g / cm^3
# Si number density = 25.212093 Si / 1000 Ang^3
#
#
#
# Elastic Constant Matrix: (Units=GPa)
#
#
# Indices 1 2 3 4 5 6 
#
# 1 68.9078 49.9069 20.9916 0.0000 0.0000 0.0000
# 2 49.9069 158.3794 49.3523 0.0000 0.0000 0.0000
# 3 20.9916 49.3523 86.3258 0.0000 0.0000 0.0000
# 4 0.0000 0.0000 0.0000 52.4399 0.0000 0.0000
# 5 0.0000 0.0000 0.0000 0.0000 50.5573 0.0000
# 6 0.0000 0.0000 0.0000 0.0000 0.0000 8.9546
#
#
#
# Elastic Compliance Matrix: (Units=1/GPa)
#
#
# Indices 1 2 3 4 5 6 
#
# 1 0.018952 -0.005519 -0.001453 0.000000 0.000000 0.000000
# 2 -0.005519 0.009290 -0.003969 0.000000 0.000000 0.000000
# 3 -0.001453 -0.003969 0.014206 0.000000 0.000000 0.000000
# 4 0.000000 0.000000 0.000000 0.019069 0.000000 0.000000
# 5 0.000000 0.000000 0.000000 0.000000 0.019780 0.000000
# 6 0.000000 0.000000 0.000000 0.000000 0.000000 0.111674
#
#
# Mechanical properties :
#
#
# Convention : Reuss Voigt Hill
#
# Bulk Modulus (GPa) = 48.62444 61.56827 55.09636
# Shear Modulus (GPa) = 22.55206 35.28117 28.91662
#
# Velocity S-wave (km/s) = 2.99405 3.74488 3.39032
# Velocity P-wave (km/s) = 5.59290 6.57054 6.10133
#
# Compressibility (1/GPa) = 0.02056579
#
# Stress axis : x y z
#
# Youngs Moduli (GPa) = 52.76443 107.64441 70.39073
#
# Poissons Ratio (x) = 0.59411 0.10229
# Poissons Ratio (y) = 0.29122 0.27937
# Poissons Ratio (z) = 0.07668 0.42723
#
# Static dielectric constant tensor:
#      x y z
#    x 2.104270 0.000000 0.000000 
#    y 0.000000 2.090280 0.000000 
#    z 0.000000 0.000000 2.015540 
# 
# From -- ./inp_files/645.got.cif
#   From: 2010.05.17/outbox.cif.g08.bks.cpg/sg20_1_cif.got.tgz:645.got - 2010.06.03 22:52:26.
