data_PCOD9321212
_publ_section_title
;
Structure prediction by ZEFSAII (Michael W. Deem and Ramdas Pophale) SiO2 
 PCOD9321212
Probable space group: C 2 2 21
;
_chemical_formula_sum "Si O2"
_cell_formula_units_Z 40
_cell_length_a 14.989798
_cell_length_b 8.952080
_cell_length_c 14.149769
_cell_angle_alpha 90.000000
_cell_angle_beta 90.000000
_cell_angle_gamma 90.000000
_cell_volume 1898.755675
_symmetry_space_group_name_H-M "C 2 2 21"
_symmetry_group_IT_number 20
_symmetry_cell_setting 'orthorhombic'
loop_
_space_group_symop_operation_xyz
x,y,z
-x,-y,1/2+z
x,-y,-z
-x,y,1/2-z
1/2+x,1/2+y,z
1/2-x,1/2-y,1/2+z
1/2+x,1/2-y,-z
1/2-x,1/2+y,1/2-z
loop_
_atom_site_type_symbol
_atom_site_label
_atom_site_fract_x
_atom_site_fract_y
_atom_site_fract_z
Si Si1 0.185284 0.969934 0.321687
Si Si2 0.583144 0.000000 0.500000
Si Si3 0.279493 0.883121 0.851347
Si Si4 0.500000 0.606042 0.250000
Si Si5 0.635539 0.500000 0.000000
Si Si6 0.562320 0.230328 0.941108
Si Si7 0.714643 0.000000 0.000000
O O1 0.200141 0.791682 0.334060
O O2 0.253838 0.033109 0.244054
O O3 0.218410 0.050964 0.417574
O O4 0.084293 0.012560 0.291704
O O5 0.639994 0.047711 0.409764
O O6 0.522364 0.135371 0.531315
O O7 0.196579 0.928242 0.919542
O O8 0.458187 0.703135 0.336698
O O9 0.573301 0.639959 0.979841
O O10 0.648072 0.122163 0.954494
#
# Coordination Sequence:
#
# PCOD9321212 Si02
#       7
#     8   4   8   4   4   8   4
#     4  12  27  48  72 110 147 203 249 313 375 443
#     4  10  28  46  75 109 148 194 246 312 376 443
#     4  11  27  47  74 105 148 196 247 307 370 457
#     4  12  28  46  78 110 152 192 260 316 372 452
#     4  11  22  48  72 101 146 192 241 300 374 440
#     4  11  26  48  74 108 148 197 243 316 369 449
#     4  11  26  48  75 104 148 200 251 302 384 449
#
# _framework density 21.066427999999998
#
# number of rings (size 3 to 8) (size 9 to 14) (size 15 to 20)
#    0.000    0.800    4.000    0.000   14.000    0.000 
#    3.600    0.000    0.000    0.000    0.000    0.000 
#    0.000    0.000    0.000    0.000    0.000    0.000 
#
# Total GULP energy -111583.160670 kJ/mol
# GULP energy per Si atom -5579.158033 kJ/mol
# Density = 2.101848 g / cm^3
# Si number density = 21.066428 Si / 1000 Ang^3
#
#
#
# Elastic Constant Matrix: (Units=GPa)
#
#
# Indices 1 2 3 4 5 6 
#
# 1 162.9223 86.3027 85.6862 0.0000 0.0000 0.0000
# 2 86.3027 132.8678 55.2472 0.0000 0.0000 0.0000
# 3 85.6862 55.2472 138.4604 0.0000 0.0000 0.0000
# 4 0.0000 0.0000 0.0000 37.2504 0.0000 0.0000
# 5 0.0000 0.0000 0.0000 0.0000 36.8217 0.0000
# 6 0.0000 0.0000 0.0000 0.0000 0.0000 2.4476
#
#
#
# Elastic Compliance Matrix: (Units=1/GPa)
#
#
# Indices 1 2 3 4 5 6 
#
# 1 0.011711 -0.005507 -0.005050 0.000000 0.000000 0.000000
# 2 -0.005507 0.011613 -0.001226 0.000000 0.000000 0.000000
# 3 -0.005050 -0.001226 0.010837 0.000000 0.000000 0.000000
# 4 0.000000 0.000000 0.000000 0.026845 0.000000 0.000000
# 5 0.000000 0.000000 0.000000 0.000000 0.027158 0.000000
# 6 0.000000 0.000000 0.000000 0.000000 0.000000 0.408570
#
#
# Mechanical properties :
#
#
# Convention : Reuss Voigt Hill
#
# Bulk Modulus (GPa) = 94.38295 98.74696 96.56496
# Shear Modulus (GPa) = 9.54508 29.10489 19.32498
#
# Velocity S-wave (km/s) = 2.13091 3.72099 3.03204
# Velocity P-wave (km/s) = 7.13822 8.08931 7.62860
#
# Compressibility (1/GPa) = 0.01059513
#
# Stress axis : x y z
#
# Youngs Moduli (GPa) = 85.39024 86.11136 92.28020
#
# Poissons Ratio (x) = 0.47420 0.46602
# Poissons Ratio (y) = 0.47023 0.11311
# Poissons Ratio (z) = 0.43122 0.10555
#
# Static dielectric constant tensor:
#      x y z
#    x 1.804020 0.000000 0.000000 
#    y 0.000000 1.858480 0.000000 
#    z 0.000000 0.000000 1.775430 
# 
# From -- ./inp_files/20527.got.cif
#   From: 2010.05.17/outbox.cif.g08.bks.cpg/sg20_11_cif.got.tgz:20527.got - 2010.06.03 22:52:26.
