data_PCOD9321226
_publ_section_title
;
Structure prediction by ZEFSAII (Michael W. Deem and Ramdas Pophale) SiO2 
 PCOD9321226
Probable space group: C 2 2 21
;
_chemical_formula_sum "Si O2"
_cell_formula_units_Z 40
_cell_length_a 5.419173
_cell_length_b 15.296038
_cell_length_c 18.765917
_cell_angle_alpha 90.000000
_cell_angle_beta 90.000000
_cell_angle_gamma 90.000000
_cell_volume 1555.542068
_symmetry_space_group_name_H-M "C 2 2 21"
_symmetry_group_IT_number 20
_symmetry_cell_setting 'orthorhombic'
loop_
_space_group_symop_operation_xyz
x,y,z
-x,-y,1/2+z
x,-y,-z
-x,y,1/2-z
1/2+x,1/2+y,z
1/2-x,1/2-y,1/2+z
1/2+x,1/2-y,-z
1/2-x,1/2+y,1/2-z
loop_
_atom_site_type_symbol
_atom_site_label
_atom_site_fract_x
_atom_site_fract_y
_atom_site_fract_z
Si Si1 0.699751 0.231946 0.164748
Si Si2 0.000000 0.627539 0.750000
Si Si3 0.203167 0.856358 0.863344
Si Si4 0.704713 0.652932 0.971916
Si Si5 0.998306 0.478682 0.383663
Si Si6 0.833043 0.000000 0.000000
O O1 0.788866 0.313091 0.213781
O O2 0.432627 0.189224 0.176938
O O3 0.681277 0.269933 0.084130
O O4 0.937047 0.167986 0.167343
O O5 0.899496 0.566664 0.686778
O O6 0.272424 0.958809 0.865079
O O7 0.215460 0.823087 0.945407
O O8 0.930671 0.596473 0.940243
O O9 0.489398 0.580831 0.970624
O O10 0.812825 0.534643 0.430959
#
# Coordination Sequence:
#
# PCOD9321226 Si02
#       6
#     8   4   8   8   8   4
#     4  11  28  44  72 101 159 193 251 304 392 459
#     4  10  28  54  64 112 148 226 244 322 396 470
#     4  12  23  46  72 111 140 197 250 320 372 450
#     4  11  23  42  69 113 146 190 244 321 379 454
#     4  11  24  44  78 106 154 194 263 320 383 462
#     4  12  20  42  80 114 148 188 270 318 378 460
#
# _framework density 25.714509
#
# number of rings (size 3 to 8) (size 9 to 14) (size 15 to 20)
#    0.000    0.800    4.000    2.400    5.600    2.400 
#    3.600    0.000    0.000    0.000    0.000    0.000 
#    0.000    0.000    0.000    0.000    0.000    0.000 
#
# Total GULP energy -111980.113445 kJ/mol
# GULP energy per Si atom -5599.005672 kJ/mol
# Density = 2.565598 g / cm^3
# Si number density = 25.714509 Si / 1000 Ang^3
#
#
#
# Elastic Constant Matrix: (Units=GPa)
#
#
# Indices 1 2 3 4 5 6 
#
# 1 104.0345 34.4393 7.8932 0.0000 0.0000 0.0000
# 2 34.4393 70.8510 13.3169 0.0000 0.0000 0.0000
# 3 7.8932 13.3169 121.9068 0.0000 0.0000 0.0000
# 4 0.0000 0.0000 0.0000 59.9755 0.0000 0.0000
# 5 0.0000 0.0000 0.0000 0.0000 15.1711 0.0000
# 6 0.0000 0.0000 0.0000 0.0000 0.0000 22.4977
#
#
#
# Elastic Compliance Matrix: (Units=1/GPa)
#
#
# Indices 1 2 3 4 5 6 
#
# 1 0.011458 -0.005544 -0.000136 0.000000 0.000000 0.000000
# 2 -0.005544 0.017092 -0.001508 0.000000 0.000000 0.000000
# 3 -0.000136 -0.001508 0.008377 0.000000 0.000000 0.000000
# 4 0.000000 0.000000 0.000000 0.016673 0.000000 0.000000
# 5 0.000000 0.000000 0.000000 0.000000 0.065915 0.000000
# 6 0.000000 0.000000 0.000000 0.000000 0.000000 0.044449
#
#
# Mechanical properties :
#
#
# Convention : Reuss Voigt Hill
#
# Bulk Modulus (GPa) = 44.34560 45.34345 44.84453
# Shear Modulus (GPa) = 26.90240 35.60505 31.25373
#
# Velocity S-wave (km/s) = 3.23800 3.72510 3.49006
# Velocity P-wave (km/s) = 5.59127 6.01444 5.80671
#
# Compressibility (1/GPa) = 0.02255015
#
# Stress axis : x y z
#
# Youngs Moduli (GPa) = 87.27744 58.50589 119.38070
#
# Poissons Ratio (x) = 0.32434 0.01627
# Poissons Ratio (y) = 0.48384 0.18005
# Poissons Ratio (z) = 0.01189 0.08824
#
# Static dielectric constant tensor:
#      x y z
#    x 2.088800 0.000000 0.000000 
#    y 0.000000 2.013610 0.000000 
#    z 0.000000 0.000000 2.027300 
# 
# From -- ./inp_files/22659.got.cif
#   From: 2010.05.17/outbox.cif.g08.bks.cpg/sg20_12_cif.got.tgz:22659.got - 2010.06.03 22:52:26.
