data_PCOD9321901
_publ_section_title
;
Structure prediction by ZEFSAII (Michael W. Deem and Ramdas Pophale) SiO2 
 PCOD9321901
Probable space group: C 2 2 21
;
_chemical_formula_sum "Si O2"
_cell_formula_units_Z 32
_cell_length_a 8.947192
_cell_length_b 26.791132
_cell_length_c 5.125841
_cell_angle_alpha 90.000000
_cell_angle_beta 90.000000
_cell_angle_gamma 90.000000
_cell_volume 1228.691777
_symmetry_space_group_name_H-M "C 2 2 21"
_symmetry_group_IT_number 20
_symmetry_cell_setting 'orthorhombic'
loop_
_space_group_symop_operation_xyz
x,y,z
-x,-y,1/2+z
x,-y,-z
-x,y,1/2-z
1/2+x,1/2+y,z
1/2-x,1/2-y,1/2+z
1/2+x,1/2-y,-z
1/2-x,1/2+y,1/2-z
loop_
_atom_site_type_symbol
_atom_site_label
_atom_site_fract_x
_atom_site_fract_y
_atom_site_fract_z
Si Si1 0.747093 0.652554 0.933470
Si Si2 0.500000 0.731095 0.750000
Si Si3 0.316577 0.500000 0.000000
Si Si4 0.500000 0.203802 0.750000
Si Si5 0.500000 0.096280 0.250000
Si Si6 0.500000 0.578309 0.750000
Si Si7 0.108161 0.500000 0.500000
O O1 0.627860 0.698935 0.900897
O O2 0.861505 0.667358 0.703627
O O3 0.634362 0.608895 0.872163
O O4 0.858996 0.632247 0.164026
O O5 0.550754 0.765181 0.504887
O O6 0.424568 0.453426 0.025091
O O7 0.217296 0.500555 0.255412
O O8 0.517219 0.052663 0.475622
#
# Coordination Sequence:
#
# PCOD9321901 Si02
#       7
#     8   4   4   4   4   4   4
#     4  11  27  50  87 128 170 232 302 373 435 572
#     4  11  27  56  82 126 174 224 284 372 473 537
#     4  12  26  54  76 120 171 253 288 374 437 539
#     4  12  26  53  83 124 174 224 281 379 472 534
#     4  12  27  53  79 134 172 242 303 371 447 526
#     4  11  26  52  80 126 174 240 308 364 454 527
#     4  12  28  50  84 114 191 227 302 370 451 511
#
# _framework density 26.043959000000001
#
# number of rings (size 3 to 8) (size 9 to 14) (size 15 to 20)
#    0.000    0.500    2.500    3.750    3.500    3.000 
#    4.500    0.000    0.000    0.000    0.000    0.000 
#    0.000    0.000    0.000    0.000    0.000    0.000 
#
# Total GULP energy -89108.474869 kJ/mol
# GULP energy per Si atom -5569.279679 kJ/mol
# Density = 2.598468 g / cm^3
# Si number density = 26.043959 Si / 1000 Ang^3
#
#
#
# Elastic Constant Matrix: (Units=GPa)
#
#
# Indices 1 2 3 4 5 6 
#
# 1 204.8872 94.7575 83.0407 0.0000 0.0000 0.0000
# 2 94.7575 146.7712 85.9573 0.0000 0.0000 0.0000
# 3 83.0407 85.9573 212.2711 0.0000 0.0000 0.0000
# 4 0.0000 0.0000 0.0000 0.7829 0.0000 0.0000
# 5 0.0000 0.0000 0.0000 0.0000 63.2895 0.0000
# 6 0.0000 0.0000 0.0000 0.0000 0.0000 76.7052
#
#
#
# Elastic Compliance Matrix: (Units=1/GPa)
#
#
# Indices 1 2 3 4 5 6 
#
# 1 0.007193 -0.003927 -0.001224 0.000000 0.000000 0.000000
# 2 -0.003927 0.011076 -0.002949 0.000000 0.000000 0.000000
# 3 -0.001224 -0.002949 0.006384 0.000000 0.000000 0.000000
# 4 0.000000 0.000000 0.000000 1.277363 0.000000 0.000000
# 5 0.000000 0.000000 0.000000 0.000000 0.015800 0.000000
# 6 0.000000 0.000000 0.000000 0.000000 0.000000 0.013037
#
#
# Mechanical properties :
#
#
# Convention : Reuss Voigt Hill
#
# Bulk Modulus (GPa) = 118.29688 121.27117 119.78402
# Shear Modulus (GPa) = 3.70406 48.16710 25.93558
#
# Velocity S-wave (km/s) = 1.19387 4.30519 3.15911
# Velocity P-wave (km/s) = 6.88629 8.44855 7.70711
#
# Compressibility (1/GPa) = 0.00845331
#
# Stress axis : x y z
#
# Youngs Moduli (GPa) = 139.02471 90.28745 156.65001
#
# Poissons Ratio (x) = 0.35458 0.19167
# Poissons Ratio (y) = 0.54599 0.46191
# Poissons Ratio (z) = 0.17011 0.26623
#
# Static dielectric constant tensor:
#      x y z
#    x 2.136570 0.000000 0.000000 
#    y 0.000000 2.181280 0.000000 
#    z 0.000000 0.000000 1.940250 
# 
# From -- ./inp_files/749.got.cif
#   From: 2010.05.17/outbox.cif.g08.bks.cpg/sg20_1_cif.got.tgz:749.got - 2010.06.03 22:52:26.
