data_PCOD9321566
_publ_section_title
;
Structure prediction by ZEFSAII (Michael W. Deem and Ramdas Pophale) SiO2 
 PCOD9321566
Probable space group: C 2 2 21
;
_chemical_formula_sum "Si O2"
_cell_formula_units_Z 40
_cell_length_a 13.562142
_cell_length_b 10.073494
_cell_length_c 14.882175
_cell_angle_alpha 90.000000
_cell_angle_beta 90.000000
_cell_angle_gamma 90.000000
_cell_volume 2033.175307
_symmetry_space_group_name_H-M "C 2 2 21"
_symmetry_group_IT_number 20
_symmetry_cell_setting 'orthorhombic'
loop_
_space_group_symop_operation_xyz
x,y,z
-x,-y,1/2+z
x,-y,-z
-x,y,1/2-z
1/2+x,1/2+y,z
1/2-x,1/2-y,1/2+z
1/2+x,1/2-y,-z
1/2-x,1/2+y,1/2-z
loop_
_atom_site_type_symbol
_atom_site_label
_atom_site_fract_x
_atom_site_fract_y
_atom_site_fract_z
Si Si1 0.309792 0.508432 0.225906
Si Si2 0.402985 0.000502 0.190248
Si Si3 0.676844 0.247011 0.593467
Si Si4 0.594982 0.711752 0.601408
Si Si5 0.620875 0.586786 0.910078
O O1 0.193930 0.499349 0.247094
O O2 0.330845 0.637617 0.166954
O O3 0.346790 0.380546 0.171357
O O4 0.363539 0.505094 0.322377
O O5 0.500000 0.991816 0.250000
O O6 0.402236 0.137445 0.135370
O O7 0.390856 0.876315 0.123676
O O8 0.643800 0.297816 0.496425
O O9 0.787992 0.189622 0.590216
O O10 0.482983 0.660608 0.596975
O O11 0.625122 0.500000 0.000000
#
# Coordination Sequence:
#
# PCOD9321566 Si02
#       5
#     8   8   8   8   8
#     4  11  23  42  64  90 124 167 209 255 315 384
#     4  11  23  41  63  91 125 165 208 264 320 371
#     4  11  24  41  64  95 127 163 212 267 316 374
#     4  12  24  42  65  93 128 170 212 257 319 386
#     4  11  24  42  66  93 129 169 212 263 319 383
#
# _framework density 19.673660000000002
#
# number of rings (size 3 to 8) (size 9 to 14) (size 15 to 20)
#    0.000    0.800    0.000   10.200    0.000    4.800 
#    0.000    4.000    0.000    0.000    0.000    0.000 
#    0.000    0.000    0.000    0.000    0.000    0.000 
#
# Total GULP energy -111967.571082 kJ/mol
# GULP energy per Si atom -5598.378554 kJ/mol
# Density = 1.962888 g / cm^3
# Si number density = 19.673660 Si / 1000 Ang^3
#
#
#
# Elastic Constant Matrix: (Units=GPa)
#
#
# Indices 1 2 3 4 5 6 
#
# 1 91.7098 13.2640 60.7308 0.0000 0.0000 0.0000
# 2 13.2640 62.9777 56.0292 0.0000 0.0000 0.0000
# 3 60.7308 56.0292 172.6772 0.0000 0.0000 0.0000
# 4 0.0000 0.0000 0.0000 36.7479 0.0000 0.0000
# 5 0.0000 0.0000 0.0000 0.0000 28.0980 0.0000
# 6 0.0000 0.0000 0.0000 0.0000 0.0000 14.6346
#
#
#
# Elastic Compliance Matrix: (Units=1/GPa)
#
#
# Indices 1 2 3 4 5 6 
#
# 1 0.014404 0.002071 -0.005738 0.000000 0.000000 0.000000
# 2 0.002071 0.022620 -0.008068 0.000000 0.000000 0.000000
# 3 -0.005738 -0.008068 0.010427 0.000000 0.000000 0.000000
# 4 0.000000 0.000000 0.000000 0.027212 0.000000 0.000000
# 5 0.000000 0.000000 0.000000 0.000000 0.035590 0.000000
# 6 0.000000 0.000000 0.000000 0.000000 0.000000 0.068331
#
#
# Mechanical properties :
#
#
# Convention : Reuss Voigt Hill
#
# Bulk Modulus (GPa) = 41.69842 65.26807 53.48324
# Shear Modulus (GPa) = 23.80397 29.05215 26.42806
#
# Velocity S-wave (km/s) = 3.48219 3.84696 3.66911
# Velocity P-wave (km/s) = 6.11626 7.27870 6.72265
#
# Compressibility (1/GPa) = 0.02398172
#
# Stress axis : x y z
#
# Youngs Moduli (GPa) = 69.42450 44.20788 95.90371
#
# Poissons Ratio (x) = -0.09156 0.55030
# Poissons Ratio (y) = -0.14379 0.77377
# Poissons Ratio (z) = 0.39836 0.35668
#
# Static dielectric constant tensor:
#      x y z
#    x 1.664590 0.000000 0.000000 
#    y 0.000000 1.668870 0.000000 
#    z 0.000000 0.000000 1.675190 
# 
# From -- ./inp_files/18522.got.cif
#   From: 2010.05.17/outbox.cif.g08.bks.cpg/sg20_10_cif.got.tgz:18522.got - 2010.06.03 22:52:26.
