data_PCOD9321015
_publ_section_title
;
Structure prediction by ZEFSAII (Michael W. Deem and Ramdas Pophale) SiO2 
 PCOD9321015
Probable space group: C 2 2 21
;
_chemical_formula_sum "Si O2"
_cell_formula_units_Z 56
_cell_length_a 28.532306
_cell_length_b 5.071668
_cell_length_c 15.936865
_cell_angle_alpha 90.000000
_cell_angle_beta 90.000000
_cell_angle_gamma 90.000000
_cell_volume 2306.166095
_symmetry_space_group_name_H-M "C 2 2 21"
_symmetry_group_IT_number 20
_symmetry_cell_setting 'orthorhombic'
loop_
_space_group_symop_operation_xyz
x,y,z
-x,-y,1/2+z
x,-y,-z
-x,y,1/2-z
1/2+x,1/2+y,z
1/2-x,1/2-y,1/2+z
1/2+x,1/2-y,-z
1/2-x,1/2+y,1/2-z
loop_
_atom_site_type_symbol
_atom_site_label
_atom_site_fract_x
_atom_site_fract_y
_atom_site_fract_z
Si Si1 0.878389 0.500000 0.500000
Si Si2 0.607857 0.580482 0.406264
Si Si3 0.514296 0.237912 0.555071
Si Si4 0.429984 0.770801 0.335893
Si Si5 0.679271 0.500000 0.000000
Si Si6 0.741828 0.768477 0.140728
Si Si7 0.202494 0.270323 0.326119
Si Si8 0.442928 0.728368 0.763783
O O1 0.904572 0.365805 0.420594
O O2 0.850638 0.754535 0.463818
O O3 0.623725 0.500000 0.500000
O O4 0.568312 0.797413 0.424218
O O5 0.651723 0.678300 0.354027
O O6 0.576835 0.366586 0.353810
O O7 0.507862 0.500000 0.500000
O O8 0.484554 0.243349 0.638656
O O9 0.496399 0.000000 0.500000
O O10 0.420044 0.483370 0.300439
O O11 0.424698 0.988036 0.264480
O O12 0.710602 0.349171 0.932231
O O13 0.760548 0.065410 0.131787
O O14 0.712374 0.748553 0.226954
O O15 0.785868 0.569800 0.149327
O O16 0.500000 0.724109 0.750000
#
# Coordination Sequence:
#
# PCOD9321015 Si02
#       8
#     4   8   8   8   4   8   8   8
#     4  12  28  42  74 111 140 195 246 308 366 440
#     4  11  28  46  75 110 146 190 256 307 365 445
#     4  11  24  44  71 103 148 197 243 306 361 432
#     4  12  26  45  73 102 150 196 251 295 371 431
#     4  12  26  46  76 109 142 185 248 310 376 458
#     4  10  24  47  75 101 145 182 233 299 382 448
#     4  10  24  47  73 105 138 191 229 300 375 447
#     4  12  27  47  71 104 144 203 246 306 366 432
#
# _framework density 24.282727999999999
#
# number of rings (size 3 to 8) (size 9 to 14) (size 15 to 20)
#    0.000    0.857    2.143    3.000    9.000    3.429 
#    0.000    0.000    0.000    0.000    0.000    0.000 
#    0.000    0.000    0.000    0.000    0.000    0.000 
#
# Total GULP energy -156757.142708 kJ/mol
# GULP energy per Si atom -5598.469382 kJ/mol
# Density = 2.422746 g / cm^3
# Si number density = 24.282728 Si / 1000 Ang^3
#
#
#
# Elastic Constant Matrix: (Units=GPa)
#
#
# Indices 1 2 3 4 5 6 
#
# 1 59.2384 -1.9464 22.8391 0.0000 0.0000 0.0000
# 2 -1.9464 100.6937 23.9391 0.0000 0.0000 0.0000
# 3 22.8391 23.9391 78.9494 0.0000 0.0000 0.0000
# 4 0.0000 0.0000 0.0000 39.9344 0.0000 0.0000
# 5 0.0000 0.0000 0.0000 0.0000 20.4385 0.0000
# 6 0.0000 0.0000 0.0000 0.0000 0.0000 22.9294
#
#
#
# Elastic Compliance Matrix: (Units=1/GPa)
#
#
# Indices 1 2 3 4 5 6 
#
# 1 0.019309 0.001833 -0.006142 0.000000 0.000000 0.000000
# 2 0.001833 0.010877 -0.003828 0.000000 0.000000 0.000000
# 3 -0.006142 -0.003828 0.015604 0.000000 0.000000 0.000000
# 4 0.000000 0.000000 0.000000 0.025041 0.000000 0.000000
# 5 0.000000 0.000000 0.000000 0.000000 0.048927 0.000000
# 6 0.000000 0.000000 0.000000 0.000000 0.000000 0.043612
#
#
# Mechanical properties :
#
#
# Convention : Reuss Voigt Hill
#
# Bulk Modulus (GPa) = 33.87979 36.50500 35.19239
# Shear Modulus (GPa) = 26.38764 29.59710 27.99237
#
# Velocity S-wave (km/s) = 3.30006 3.49500 3.39893
# Velocity P-wave (km/s) = 5.33883 5.59934 5.47064
#
# Compressibility (1/GPa) = 0.02951612
#
# Stress axis : x y z
#
# Youngs Moduli (GPa) = 51.78899 91.93949 64.08635
#
# Poissons Ratio (x) = -0.16856 0.39361
# Poissons Ratio (y) = -0.09495 0.24535
# Poissons Ratio (z) = 0.31808 0.35198
#
# Static dielectric constant tensor:
#      x y z
#    x 1.957310 0.000000 0.000000 
#    y 0.000000 1.889440 0.000000 
#    z 0.000000 0.000000 1.924890 
# 
# From -- ./inp_files/22328.got.cif
#   From: 2010.05.17/outbox.cif.g08.bks.cpg/sg20_12_cif.got.tgz:22328.got - 2010.06.03 22:52:26.
