data_PCOD9321995
_publ_section_title
;
Structure prediction by ZEFSAII (Michael W. Deem and Ramdas Pophale) SiO2 
 PCOD9321995
Probable space group: C 2 2 21
;
_chemical_formula_sum "Si O2"
_cell_formula_units_Z 48
_cell_length_a 5.157427
_cell_length_b 30.752390
_cell_length_c 13.141026
_cell_angle_alpha 90.000000
_cell_angle_beta 90.000000
_cell_angle_gamma 90.000000
_cell_volume 2084.208860
_symmetry_space_group_name_H-M "C 2 2 21"
_symmetry_group_IT_number 20
_symmetry_cell_setting 'orthorhombic'
loop_
_space_group_symop_operation_xyz
x,y,z
-x,-y,1/2+z
x,-y,-z
-x,y,1/2-z
1/2+x,1/2+y,z
1/2-x,1/2-y,1/2+z
1/2+x,1/2-y,-z
1/2-x,1/2+y,1/2-z
loop_
_atom_site_type_symbol
_atom_site_label
_atom_site_fract_x
_atom_site_fract_y
_atom_site_fract_z
Si Si1 0.723422 0.048074 0.027850
Si Si2 0.980324 0.134187 0.539519
Si Si3 0.500000 0.033042 0.250000
Si Si4 0.000000 0.730644 0.750000
Si Si5 0.500000 0.325903 0.250000
Si Si6 0.000000 0.027420 0.750000
Si Si7 0.881522 0.772132 0.543650
Si Si8 0.867806 0.420154 0.140172
O O1 0.566560 0.052611 0.136582
O O2 0.894318 0.092474 0.017444
O O3 0.525290 0.049124 0.933411
O O4 0.851930 0.000000 0.000000
O O5 0.093911 0.147129 0.651192
O O6 0.967273 0.178602 0.477611
O O7 0.686651 0.121838 0.573023
O O8 0.754827 0.003529 0.256322
O O9 0.249673 0.702004 0.718136
O O10 0.099434 0.760615 0.839377
O O11 0.082231 0.060350 0.838486
O O12 0.593054 0.759579 0.508813
O O13 0.000000 0.414686 0.250000
#
# Coordination Sequence:
#
# PCOD9321995 Si02
#       8
#     8   8   4   4   4   4   8   8
#     4  12  27  51  77 114 161 219 265 333 392 477
#     4  12  28  44  81 118 160 203 269 327 398 482
#     4  12  28  50  78 104 159 214 271 314 398 462
#     4  12  24  50  80 113 154 201 246 324 402 478
#     4  12  25  46  85 117 148 193 258 333 402 451
#     4  12  23  52  73 110 145 208 269 323 378 455
#     4  12  26  50  78 114 153 199 250 322 404 473
#     4  12  25  46  76 116 157 202 270 335 395 455
#
# _framework density 23.030322000000002
#
# number of rings (size 3 to 8) (size 9 to 14) (size 15 to 20)
#    0.000    0.000    5.833    3.500    8.167    0.667 
#    6.000    0.000    0.000    0.000    0.000    0.000 
#    0.000    0.000    0.000    0.000    0.000    0.000 
#
# Total GULP energy -133822.184945 kJ/mol
# GULP energy per Si atom -5575.924373 kJ/mol
# Density = 2.297790 g / cm^3
# Si number density = 23.030322 Si / 1000 Ang^3
#
#
#
# Elastic Constant Matrix: (Units=GPa)
#
#
# Indices 1 2 3 4 5 6 
#
# 1 95.8035 35.2782 22.5301 0.0000 0.0000 0.0000
# 2 35.2782 146.6335 47.7852 0.0000 0.0000 0.0000
# 3 22.5301 47.7852 132.3751 0.0000 0.0000 0.0000
# 4 0.0000 0.0000 0.0000 44.2499 0.0000 0.0000
# 5 0.0000 0.0000 0.0000 0.0000 34.0587 0.0000
# 6 0.0000 0.0000 0.0000 0.0000 0.0000 22.8706
#
#
#
# Elastic Compliance Matrix: (Units=1/GPa)
#
#
# Indices 1 2 3 4 5 6 
#
# 1 0.011591 -0.002432 -0.001095 0.000000 0.000000 0.000000
# 2 -0.002432 0.008239 -0.002560 0.000000 0.000000 0.000000
# 3 -0.001095 -0.002560 0.008665 0.000000 0.000000 0.000000
# 4 0.000000 0.000000 0.000000 0.022599 0.000000 0.000000
# 5 0.000000 0.000000 0.000000 0.000000 0.029361 0.000000
# 6 0.000000 0.000000 0.000000 0.000000 0.000000 0.043724
#
#
# Mechanical properties :
#
#
# Convention : Reuss Voigt Hill
#
# Bulk Modulus (GPa) = 61.27112 65.11104 63.19108
# Shear Modulus (GPa) = 35.26251 38.18375 36.72313
#
# Velocity S-wave (km/s) = 3.91722 4.07624 3.99752
# Velocity P-wave (km/s) = 6.86453 7.10546 6.98603
#
# Compressibility (1/GPa) = 0.01632090
#
# Stress axis : x y z
#
# Youngs Moduli (GPa) = 86.27373 121.37178 115.40852
#
# Poissons Ratio (x) = 0.29516 0.12636
# Poissons Ratio (y) = 0.20980 0.29548
# Poissons Ratio (z) = 0.09446 0.31075
#
# Static dielectric constant tensor:
#      x y z
#    x 1.916010 0.000000 0.000000 
#    y 0.000000 1.971190 0.000000 
#    z 0.000000 0.000000 1.668670 
# 
# From -- ./inp_files/17862.got.cif
#   From: 2010.05.17/outbox.cif.g08.bks.cpg/sg20_9_cif.got.tgz:17862.got - 2010.06.03 22:52:26.
