data_PCOD9321907
_publ_section_title
;
Structure prediction by ZEFSAII (Michael W. Deem and Ramdas Pophale) SiO2 
 PCOD9321907
Probable space group: C 2 2 21
;
_chemical_formula_sum "Si O2"
_cell_formula_units_Z 32
_cell_length_a 9.573659
_cell_length_b 18.221262
_cell_length_c 7.484339
_cell_angle_alpha 90.000000
_cell_angle_beta 90.000000
_cell_angle_gamma 90.000000
_cell_volume 1305.599147
_symmetry_space_group_name_H-M "C 2 2 21"
_symmetry_group_IT_number 20
_symmetry_cell_setting 'orthorhombic'
loop_
_space_group_symop_operation_xyz
x,y,z
-x,-y,1/2+z
x,-y,-z
-x,y,1/2-z
1/2+x,1/2+y,z
1/2-x,1/2-y,1/2+z
1/2+x,1/2-y,-z
1/2-x,1/2+y,1/2-z
loop_
_atom_site_type_symbol
_atom_site_label
_atom_site_fract_x
_atom_site_fract_y
_atom_site_fract_z
Si Si1 0.682052 0.164744 0.043623
Si Si2 0.503424 0.300596 0.463888
Si Si3 0.260145 0.397190 0.606437
Si Si4 0.342148 0.041906 0.748794
O O1 0.837097 0.196398 0.019641
O O2 0.326865 0.151018 0.245371
O O3 0.675932 0.090441 0.927213
O O4 0.570740 0.224611 0.985511
O O5 0.500000 0.311729 0.250000
O O6 0.409267 0.363165 0.557935
O O7 0.178110 0.406583 0.421357
O O8 0.263981 0.475898 0.707410
O O9 0.500000 0.011587 0.750000
#
# Coordination Sequence:
#
# PCOD9321907 Si02
#       4
#     8   8   8   8
#     4  12  28  50  81 115 161 210 264 333 404 477
#     4  12  27  51  78 119 161 212 265 334 407 482
#     4  11  27  50  76 115 152 209 268 325 405 474
#     4  11  28  49  79 116 157 206 269 333 398 487
#
# _framework density 24.509820000000001
#
# number of rings (size 3 to 8) (size 9 to 14) (size 15 to 20)
#    0.000    0.500    2.500    3.000   14.000    0.000 
#   18.000    0.000    0.000    0.000    0.000    0.000 
#    0.000    0.000    0.000    0.000    0.000    0.000 
#
# Total GULP energy -89713.281245 kJ/mol
# GULP energy per Si atom -5607.080078 kJ/mol
# Density = 2.445404 g / cm^3
# Si number density = 24.509820 Si / 1000 Ang^3
#
#
#
# Elastic Constant Matrix: (Units=GPa)
#
#
# Indices 1 2 3 4 5 6 
#
# 1 99.9533 56.6904 2.1110 0.0000 0.0000 0.0000
# 2 56.6904 113.4168 24.2943 0.0000 0.0000 0.0000
# 3 2.1110 24.2943 123.6705 0.0000 0.0000 0.0000
# 4 0.0000 0.0000 0.0000 44.4478 0.0000 0.0000
# 5 0.0000 0.0000 0.0000 0.0000 30.8979 0.0000
# 6 0.0000 0.0000 0.0000 0.0000 0.0000 41.1239
#
#
#
# Elastic Compliance Matrix: (Units=1/GPa)
#
#
# Indices 1 2 3 4 5 6 
#
# 1 0.014131 -0.007319 0.001197 0.000000 0.000000 0.000000
# 2 -0.007319 0.012996 -0.002428 0.000000 0.000000 0.000000
# 3 0.001197 -0.002428 0.008543 0.000000 0.000000 0.000000
# 4 0.000000 0.000000 0.000000 0.022498 0.000000 0.000000
# 5 0.000000 0.000000 0.000000 0.000000 0.032365 0.000000
# 6 0.000000 0.000000 0.000000 0.000000 0.000000 0.024317
#
#
# Mechanical properties :
#
#
# Convention : Reuss Voigt Hill
#
# Bulk Modulus (GPa) = 53.85781 55.91467 54.88624
# Shear Modulus (GPa) = 36.19530 40.22358 38.20944
#
# Velocity S-wave (km/s) = 3.84704 4.05547 3.95263
# Velocity P-wave (km/s) = 6.46178 6.69267 6.57824
#
# Compressibility (1/GPa) = 0.01856741
#
# Stress axis : x y z
#
# Youngs Moduli (GPa) = 70.76745 76.94851 117.06127
#
# Poissons Ratio (x) = 0.56322 -0.14008
# Poissons Ratio (y) = 0.51798 0.28422
# Poissons Ratio (z) = -0.08468 0.18683
#
# Static dielectric constant tensor:
#      x y z
#    x 1.872250 0.000000 0.000000 
#    y 0.000000 2.006720 0.000000 
#    z 0.000000 0.000000 1.941120 
# 
# From -- ./inp_files/5784.got.cif
#   From: 2010.05.17/outbox.cif.g08.bks.cpg/sg20_3_cif.got.tgz:5784.got - 2010.06.03 22:52:26.
