data_PCOD9321162
_publ_section_title
;
Structure prediction by ZEFSAII (Michael W. Deem and Ramdas Pophale) SiO2 
 PCOD9321162
Probable space group: C 2 2 21
;
_chemical_formula_sum "Si O2"
_cell_formula_units_Z 32
_cell_length_a 21.753721
_cell_length_b 8.206212
_cell_length_c 8.389922
_cell_angle_alpha 90.000000
_cell_angle_beta 90.000000
_cell_angle_gamma 90.000000
_cell_volume 1497.732348
_symmetry_space_group_name_H-M "C 2 2 21"
_symmetry_group_IT_number 20
_symmetry_cell_setting 'orthorhombic'
loop_
_space_group_symop_operation_xyz
x,y,z
-x,-y,1/2+z
x,-y,-z
-x,y,1/2-z
1/2+x,1/2+y,z
1/2-x,1/2-y,1/2+z
1/2+x,1/2-y,-z
1/2-x,1/2+y,1/2-z
loop_
_atom_site_type_symbol
_atom_site_label
_atom_site_fract_x
_atom_site_fract_y
_atom_site_fract_z
Si Si1 0.384111 0.589943 0.168244
Si Si2 0.662009 0.709561 0.847618
Si Si3 0.080307 0.500000 0.000000
Si Si4 0.000000 0.303682 0.250000
Si Si5 0.207601 0.314027 0.498911
O O1 0.373586 0.459771 0.309877
O O2 0.446147 0.690130 0.184377
O O3 0.327028 0.712409 0.139196
O O4 0.388334 0.500000 0.000000
O O5 0.720118 0.691313 0.963562
O O6 0.690212 0.747727 0.672697
O O7 0.621056 0.858561 0.914730
O O8 0.035455 0.414578 0.124675
O O9 0.186156 0.500000 0.500000
#
# Coordination Sequence:
#
# PCOD9321162 Si02
#       5
#     8   8   4   4   8
#     4  10  26  46  73 107 146 199 245 301 369 441
#     4  11  27  46  76 113 147 191 244 306 378 445
#     4  12  32  48  76 104 148 198 256 304 372 442
#     4  12  30  48  74 100 148 198 258 306 360 440
#     4  11  24  44  77 107 154 186 240 305 376 443
#
# _framework density 21.365632999999999
#
# number of rings (size 3 to 8) (size 9 to 14) (size 15 to 20)
#    0.000    1.000    0.000    3.000   28.000    0.000 
#    0.000    0.000    0.000    0.000    0.000    0.000 
#    0.000    0.000    0.000    0.000    0.000    0.000 
#
# Total GULP energy -89486.975158 kJ/mol
# GULP energy per Si atom -5592.935947 kJ/mol
# Density = 2.131700 g / cm^3
# Si number density = 21.365633 Si / 1000 Ang^3
#
#
#
# Elastic Constant Matrix: (Units=GPa)
#
#
# Indices 1 2 3 4 5 6 
#
# 1 153.8782 85.9176 59.8328 0.0000 0.0000 0.0000
# 2 85.9176 161.2886 56.6225 0.0000 0.0000 0.0000
# 3 59.8328 56.6225 100.7318 0.0000 0.0000 0.0000
# 4 0.0000 0.0000 0.0000 35.1997 0.0000 0.0000
# 5 0.0000 0.0000 0.0000 0.0000 40.6577 0.0000
# 6 0.0000 0.0000 0.0000 0.0000 0.0000 47.0925
#
#
#
# Elastic Compliance Matrix: (Units=1/GPa)
#
#
# Indices 1 2 3 4 5 6 
#
# 1 0.010286 -0.004154 -0.003774 0.000000 0.000000 0.000000
# 2 -0.004154 0.009402 -0.002818 0.000000 0.000000 0.000000
# 3 -0.003774 -0.002818 0.013753 0.000000 0.000000 0.000000
# 4 0.000000 0.000000 0.000000 0.028409 0.000000 0.000000
# 5 0.000000 0.000000 0.000000 0.000000 0.024596 0.000000
# 6 0.000000 0.000000 0.000000 0.000000 0.000000 0.021235
#
#
# Mechanical properties :
#
#
# Convention : Reuss Voigt Hill
#
# Bulk Modulus (GPa) = 83.69138 91.18271 87.43705
# Shear Modulus (GPa) = 37.55003 38.82502 38.18752
#
# Velocity S-wave (km/s) = 4.19680 4.26745 4.23227
# Velocity P-wave (km/s) = 7.92087 8.18850 8.05580
#
# Compressibility (1/GPa) = 0.01194866
#
# Stress axis : x y z
#
# Youngs Moduli (GPa) = 97.22245 106.35971 72.71094
#
# Poissons Ratio (x) = 0.44182 0.27444
# Poissons Ratio (y) = 0.40387 0.20487
# Poissons Ratio (z) = 0.36696 0.29968
#
# Static dielectric constant tensor:
#      x y z
#    x 1.740010 0.000000 0.000000 
#    y 0.000000 1.470180 0.000000 
#    z 0.000000 0.000000 1.857660 
# 
# From -- ./inp_files/5837.got.cif
#   From: 2010.05.17/outbox.cif.g08.bks.cpg/sg20_3_cif.got.tgz:5837.got - 2010.06.03 22:52:26.
