data_PCOD9321758
_publ_section_title
;
Structure prediction by ZEFSAII (Michael W. Deem and Ramdas Pophale) SiO2 
 PCOD9321758
Probable space group: C 2 2 21
;
_chemical_formula_sum "Si O2"
_cell_formula_units_Z 56
_cell_length_a 14.292912
_cell_length_b 12.128435
_cell_length_c 14.567621
_cell_angle_alpha 90.000000
_cell_angle_beta 90.000000
_cell_angle_gamma 90.000000
_cell_volume 2525.306630
_symmetry_space_group_name_H-M "C 2 2 21"
_symmetry_group_IT_number 20
_symmetry_cell_setting 'orthorhombic'
loop_
_space_group_symop_operation_xyz
x,y,z
-x,-y,1/2+z
x,-y,-z
-x,y,1/2-z
1/2+x,1/2+y,z
1/2-x,1/2-y,1/2+z
1/2+x,1/2-y,-z
1/2-x,1/2+y,1/2-z
loop_
_atom_site_type_symbol
_atom_site_label
_atom_site_fract_x
_atom_site_fract_y
_atom_site_fract_z
Si Si1 0.251329 0.048376 0.633135
Si Si2 0.642244 0.456181 0.906426
Si Si3 0.456417 0.944318 0.850377
Si Si4 0.197173 0.402414 0.329602
Si Si5 0.095763 0.500000 0.000000
Si Si6 0.844946 0.814424 0.881402
Si Si7 0.500000 0.605552 0.250000
Si Si8 0.301863 0.777329 0.918056
O O1 0.197953 0.936151 0.608756
O O2 0.292972 0.035669 0.733437
O O3 0.334893 0.071048 0.562342
O O4 0.192748 0.159366 0.631398
O O5 0.724088 0.546428 0.893498
O O6 0.576723 0.455451 0.815394
O O7 0.700551 0.340414 0.914970
O O8 0.592530 0.500000 0.000000
O O9 0.500000 0.933915 0.750000
O O10 0.374397 0.859078 0.870706
O O11 0.406545 0.063962 0.862331
O O12 0.533812 0.932892 0.928812
O O13 0.210393 0.272366 0.317828
O O14 0.942228 0.828419 0.827577
O O15 0.836029 0.752680 0.978767
#
# Coordination Sequence:
#
# PCOD9321758 Si02
#       8
#     8   8   8   8   4   8   4   8
#     4  12  25  46  73 101 149 199 243 302 384 457
#     4  11  24  49  77 109 149 205 251 313 384 458
#     4  11  25  43  71 114 144 185 253 318 365 443
#     4  11  24  45  73 101 147 193 243 303 382 449
#     4  12  24  44  74 108 142 190 254 310 364 442
#     4  12  25  47  72 107 146 199 244 308 381 459
#     4  12  28  46  74 118 154 190 264 320 376 456
#     4  11  25  46  75 104 151 197 245 309 390 453
#
# _framework density 22.175525
#
# number of rings (size 3 to 8) (size 9 to 14) (size 15 to 20)
#    0.000    0.571    5.714    1.714    5.000    4.571 
#    1.286    2.857    0.000    0.000    0.000    0.000 
#    0.000    0.000    0.000    0.000    0.000    0.000 
#
# Total GULP energy -156262.159557 kJ/mol
# GULP energy per Si atom -5580.791413 kJ/mol
# Density = 2.212505 g / cm^3
# Si number density = 22.175525 Si / 1000 Ang^3
#
#
#
# Elastic Constant Matrix: (Units=GPa)
#
#
# Indices 1 2 3 4 5 6 
#
# 1 76.1682 37.1918 39.1459 0.0000 0.0000 0.0000
# 2 37.1918 137.8787 20.6130 0.0000 0.0000 0.0000
# 3 39.1459 20.6130 112.9377 0.0000 0.0000 0.0000
# 4 0.0000 0.0000 0.0000 27.0823 0.0000 0.0000
# 5 0.0000 0.0000 0.0000 0.0000 36.8135 0.0000
# 6 0.0000 0.0000 0.0000 0.0000 0.0000 10.0678
#
#
#
# Elastic Compliance Matrix: (Units=1/GPa)
#
#
# Indices 1 2 3 4 5 6 
#
# 1 0.017899 -0.004010 -0.005472 0.000000 0.000000 0.000000
# 2 -0.004010 0.008355 -0.000135 0.000000 0.000000 0.000000
# 3 -0.005472 -0.000135 0.010776 0.000000 0.000000 0.000000
# 4 0.000000 0.000000 0.000000 0.036924 0.000000 0.000000
# 5 0.000000 0.000000 0.000000 0.000000 0.027164 0.000000
# 6 0.000000 0.000000 0.000000 0.000000 0.000000 0.099327
#
#
# Mechanical properties :
#
#
# Convention : Reuss Voigt Hill
#
# Bulk Modulus (GPa) = 56.19479 57.87622 57.03550
# Shear Modulus (GPa) = 22.16205 30.12833 26.14519
#
# Velocity S-wave (km/s) = 3.16475 3.68996 3.43740
# Velocity P-wave (km/s) = 6.22496 6.65659 6.44439
#
# Compressibility (1/GPa) = 0.01779524
#
# Stress axis : x y z
#
# Youngs Moduli (GPa) = 55.86806 119.69430 92.80028
#
# Poissons Ratio (x) = 0.47999 0.50783
# Poissons Ratio (y) = 0.22404 0.01252
# Poissons Ratio (z) = 0.30572 0.01615
#
# Static dielectric constant tensor:
#      x y z
#    x 1.832500 0.000000 0.000000 
#    y 0.000000 1.815360 0.000000 
#    z 0.000000 0.000000 1.895000 
# 
# From -- ./inp_files/20782.got.cif
#   From: 2010.05.17/outbox.cif.g08.bks.cpg/sg20_11_cif.got.tgz:20782.got - 2010.06.03 22:52:26.
