data_PCOD9321123
_publ_section_title
;
Structure prediction by ZEFSAII (Michael W. Deem and Ramdas Pophale) SiO2 
 PCOD9321123
Probable space group: C 2 2 21
;
_chemical_formula_sum "Si O2"
_cell_formula_units_Z 40
_cell_length_a 29.637800
_cell_length_b 4.923061
_cell_length_c 11.247795
_cell_angle_alpha 90.000000
_cell_angle_beta 90.000000
_cell_angle_gamma 90.000000
_cell_volume 1641.151116
_symmetry_space_group_name_H-M "C 2 2 21"
_symmetry_group_IT_number 20
_symmetry_cell_setting 'orthorhombic'
loop_
_space_group_symop_operation_xyz
x,y,z
-x,-y,1/2+z
x,-y,-z
-x,y,1/2-z
1/2+x,1/2+y,z
1/2-x,1/2-y,1/2+z
1/2+x,1/2-y,-z
1/2-x,1/2+y,1/2-z
loop_
_atom_site_type_symbol
_atom_site_label
_atom_site_fract_x
_atom_site_fract_y
_atom_site_fract_z
Si Si1 0.157263 0.500000 0.500000
Si Si2 0.500000 0.085068 0.750000
Si Si3 0.903480 0.182588 0.181534
Si Si4 0.480330 0.000000 0.500000
Si Si5 0.926843 0.000000 0.500000
Si Si6 0.279847 0.872452 0.773466
Si Si7 0.370821 0.813363 0.689301
O O1 0.123165 0.710506 0.565285
O O2 0.191725 0.604652 0.396651
O O3 0.543893 0.251394 0.698928
O O4 0.495421 0.892011 0.631076
O O5 0.880292 0.372936 0.283358
O O6 0.891973 0.870023 0.204972
O O7 0.458499 0.728192 0.444752
O O8 0.895975 0.192533 0.578534
O O9 0.239548 0.658993 0.769001
O O10 0.317879 0.770347 0.682555
#
# Coordination Sequence:
#
# PCOD9321123 Si02
#       7
#     4   4   8   4   4   8   8
#     4  10  25  49  72 108 156 194 244 312 407 445
#     4  12  24  48  70 122 142 208 260 314 374 460
#     4  11  24  42  72 102 147 196 243 310 366 458
#     4  12  27  40  76  98 159 176 265 304 374 433
#     4  12  22  47  64  98 135 204 227 308 355 454
#     4  11  25  45  74 109 145 186 248 312 377 479
#     4  11  23  44  69  99 143 189 240 298 385 430
#
# _framework density 24.373138000000001
#
# number of rings (size 3 to 8) (size 9 to 14) (size 15 to 20)
#    0.000    0.800    4.000    3.000    0.000   11.200 
#    0.000    4.000    0.000    0.000    0.000    0.000 
#    0.000    0.000    0.000    0.000    0.000    0.000 
#
# Total GULP energy -111435.056407 kJ/mol
# GULP energy per Si atom -5571.752820 kJ/mol
# Density = 2.431766 g / cm^3
# Si number density = 24.373138 Si / 1000 Ang^3
#
#
#
# Elastic Constant Matrix: (Units=GPa)
#
#
# Indices 1 2 3 4 5 6 
#
# 1 135.3333 15.9220 24.5190 0.0000 0.0000 0.0000
# 2 15.9220 83.0150 8.3486 0.0000 0.0000 0.0000
# 3 24.5190 8.3486 122.8930 0.0000 0.0000 0.0000
# 4 0.0000 0.0000 0.0000 30.6650 0.0000 0.0000
# 5 0.0000 0.0000 0.0000 0.0000 46.1556 0.0000
# 6 0.0000 0.0000 0.0000 0.0000 0.0000 25.9542
#
#
#
# Elastic Compliance Matrix: (Units=1/GPa)
#
#
# Indices 1 2 3 4 5 6 
#
# 1 0.007814 -0.001351 -0.001467 0.000000 0.000000 0.000000
# 2 -0.001351 0.012363 -0.000570 0.000000 0.000000 0.000000
# 3 -0.001467 -0.000570 0.008469 0.000000 0.000000 0.000000
# 4 0.000000 0.000000 0.000000 0.032610 0.000000 0.000000
# 5 0.000000 0.000000 0.000000 0.000000 0.021666 0.000000
# 6 0.000000 0.000000 0.000000 0.000000 0.000000 0.038529
#
#
# Mechanical properties :
#
#
# Convention : Reuss Voigt Hill
#
# Bulk Modulus (GPa) = 45.72919 48.75782 47.24351
# Shear Modulus (GPa) = 36.89569 40.05176 38.47372
#
# Velocity S-wave (km/s) = 3.89496 4.05813 3.97738
# Velocity P-wave (km/s) = 6.24744 6.48121 6.36540
#
# Compressibility (1/GPa) = 0.02186787
#
# Stress axis : x y z
#
# Youngs Moduli (GPa) = 127.97631 80.88978 118.08282
#
# Poissons Ratio (x) = 0.10929 0.17325
# Poissons Ratio (y) = 0.17291 0.06734
# Poissons Ratio (z) = 0.18777 0.04613
#
# Static dielectric constant tensor:
#      x y z
#    x 1.981140 0.000000 0.000000 
#    y 0.000000 1.924850 0.000000 
#    z 0.000000 0.000000 2.377410 
# 
# From -- ./inp_files/12140.got.cif
#   From: 2010.05.17/outbox.cif.g08.bks.cpg/sg20_7_cif.got.tgz:12140.got - 2010.06.03 22:52:26.
