data_PCOD9321179
_publ_section_title
;
Structure prediction by ZEFSAII (Michael W. Deem and Ramdas Pophale) SiO2 
 PCOD9321179
Probable space group: C 2 2 21
;
_chemical_formula_sum "Si O2"
_cell_formula_units_Z 48
_cell_length_a 13.940123
_cell_length_b 5.118946
_cell_length_c 26.875952
_cell_angle_alpha 90.000000
_cell_angle_beta 90.000000
_cell_angle_gamma 90.000000
_cell_volume 1917.833987
_symmetry_space_group_name_H-M "C 2 2 21"
_symmetry_group_IT_number 20
_symmetry_cell_setting 'orthorhombic'
loop_
_space_group_symop_operation_xyz
x,y,z
-x,-y,1/2+z
x,-y,-z
-x,y,1/2-z
1/2+x,1/2+y,z
1/2-x,1/2-y,1/2+z
1/2+x,1/2-y,-z
1/2-x,1/2+y,1/2-z
loop_
_atom_site_type_symbol
_atom_site_label
_atom_site_fract_x
_atom_site_fract_y
_atom_site_fract_z
Si Si1 0.135380 0.660649 0.050928
Si Si2 0.162647 0.264372 0.467481
Si Si3 0.277253 0.981286 0.779454
Si Si4 0.477500 0.842033 0.802687
Si Si5 0.141247 0.673990 0.853134
Si Si6 0.522902 0.474995 0.397036
O O1 0.228516 0.846157 0.046384
O O2 0.168923 0.484258 0.097627
O O3 0.033546 0.792582 0.063538
O O4 0.124734 0.500000 0.000000
O O5 0.122144 0.500000 0.500000
O O6 0.169937 0.000000 0.500000
O O7 0.096017 0.175908 0.421959
O O8 0.267131 0.756068 0.737177
O O9 0.388731 0.031958 0.790863
O O10 0.221269 0.836663 0.824144
O O11 0.500000 0.699419 0.750000
O O12 0.437798 0.682651 0.849933
O O13 0.574308 0.984173 0.819899
O O14 0.065310 0.878746 0.872783
#
# Coordination Sequence:
#
# PCOD9321179 Si02
#       6
#     8   8   8   8   8   8
#     4  10  26  49  73 110 153 203 256 325 385 468
#     4  11  28  48  75 112 151 199 256 320 389 458
#     4  12  27  48  78 111 158 205 256 322 389 464
#     4  11  24  48  73 112 154 204 253 323 380 465
#     4  11  26  44  75 115 146 206 260 313 396 463
#     4  11  27  44  79 108 156 198 264 317 390 467
#
# _framework density 25.028234999999999
#
# number of rings (size 3 to 8) (size 9 to 14) (size 15 to 20)
#    0.000    1.000    1.667    2.000   16.333    2.000 
#    0.000    0.000    0.000    0.000    0.000    0.000 
#    0.000    0.000    0.000    0.000    0.000    0.000 
#
# Total GULP energy -134273.308553 kJ/mol
# GULP energy per Si atom -5594.721190 kJ/mol
# Density = 2.497127 g / cm^3
# Si number density = 25.028235 Si / 1000 Ang^3
#
#
#
# Elastic Constant Matrix: (Units=GPa)
#
#
# Indices 1 2 3 4 5 6 
#
# 1 89.3042 10.9695 52.3672 0.0000 0.0000 0.0000
# 2 10.9695 73.8383 27.9069 0.0000 0.0000 0.0000
# 3 52.3672 27.9069 140.9389 0.0000 0.0000 0.0000
# 4 0.0000 0.0000 0.0000 29.2690 0.0000 0.0000
# 5 0.0000 0.0000 0.0000 0.0000 41.3640 0.0000
# 6 0.0000 0.0000 0.0000 0.0000 0.0000 -29.2182
#
#
#
# Elastic Compliance Matrix: (Units=1/GPa)
#
#
# Indices 1 2 3 4 5 6 
#
# 1 0.014318 -0.000126 -0.005295 0.000000 0.000000 0.000000
# 2 -0.000126 0.014640 -0.002852 0.000000 0.000000 0.000000
# 3 -0.005295 -0.002852 0.009627 0.000000 0.000000 0.000000
# 4 0.000000 0.000000 0.000000 0.034166 0.000000 0.000000
# 5 0.000000 0.000000 0.000000 0.000000 0.024176 0.000000
# 6 0.000000 0.000000 0.000000 0.000000 0.000000 -0.034225
#
#
# Mechanical properties :
#
#
# Convention : Reuss Voigt Hill
#
# Bulk Modulus (GPa) = 45.37340 54.06318 49.71829
# Shear Modulus (GPa) = 57.74080 22.47216 40.10648
#
# Velocity S-wave (km/s) = 4.80836 2.99970 4.00740
# Velocity P-wave (km/s) = 6.99967 5.80046 6.42809
#
# Compressibility (1/GPa) = 0.02203935
#
# Stress axis : x y z
#
# Youngs Moduli (GPa) = 69.84140 68.30741 103.86968
#
# Poissons Ratio (x) = 0.00860 0.55000
# Poissons Ratio (y) = 0.00879 0.29624
# Poissons Ratio (z) = 0.36982 0.19481
#
# Static dielectric constant tensor:
#      x y z
#    x 2.000570 0.000000 0.000000 
#    y 0.000000 1.839810 0.000000 
#    z 0.000000 0.000000 1.586040 
# 
# From -- ./inp_files/30413.got.cif
#   From: 2010.05.17/outbox.cif.g08.bks.cpg/sg20_16_cif.got.tgz:30413.got - 2010.06.03 22:52:26.
