data_PCOD9321631
_publ_section_title
;
Structure prediction by ZEFSAII (Michael W. Deem and Ramdas Pophale) SiO2 
 PCOD9321631
Probable space group: C 2 2 21
;
_chemical_formula_sum "Si O2"
_cell_formula_units_Z 48
_cell_length_a 11.782536
_cell_length_b 10.187846
_cell_length_c 17.583698
_cell_angle_alpha 90.000000
_cell_angle_beta 90.000000
_cell_angle_gamma 90.000000
_cell_volume 2110.723585
_symmetry_space_group_name_H-M "C 2 2 21"
_symmetry_group_IT_number 20
_symmetry_cell_setting 'orthorhombic'
loop_
_space_group_symop_operation_xyz
x,y,z
-x,-y,1/2+z
x,-y,-z
-x,y,1/2-z
1/2+x,1/2+y,z
1/2-x,1/2-y,1/2+z
1/2+x,1/2-y,-z
1/2-x,1/2+y,1/2-z
loop_
_atom_site_type_symbol
_atom_site_label
_atom_site_fract_x
_atom_site_fract_y
_atom_site_fract_z
Si Si1 0.735766 0.504300 0.600418
Si Si2 0.866344 0.404782 0.877664
Si Si3 0.000000 0.224653 0.250000
Si Si4 0.528377 0.864146 0.088809
Si Si5 0.500000 0.732448 0.750000
Si Si6 0.363468 0.698521 0.998111
Si Si7 0.323136 0.507235 0.729714
O O1 0.714613 0.359349 0.566489
O O2 0.629114 0.582137 0.564188
O O3 0.739611 0.521269 0.689833
O O4 0.846284 0.582577 0.572710
O O5 0.950270 0.508359 0.914447
O O6 0.817620 0.314951 0.945040
O O7 0.766318 0.480959 0.835542
O O8 0.938028 0.320357 0.814707
O O9 0.990405 0.310764 0.325553
O O10 0.104905 0.124740 0.243812
O O11 0.479692 0.752071 0.033642
O O12 0.404219 0.632549 0.717546
#
# Coordination Sequence:
#
# PCOD9321631 Si02
#       7
#     8   8   4   8   4   8   8
#     4  11  24  49  76  99 150 201 230 317 373 425
#     4  12  26  45  71 108 151 188 246 304 365 446
#     4  11  23  44  74 110 139 191 256 298 360 455
#     4  12  26  46  75 111 145 200 246 299 379 440
#     4  11  25  46  72 108 141 187 252 302 358 447
#     4  11  26  46  71 109 147 188 250 302 369 449
#     4  11  24  46  75 105 145 195 241 308 369 427
#
# _framework density 22.741015000000001
#
# number of rings (size 3 to 8) (size 9 to 14) (size 15 to 20)
#    0.000    0.667    3.333    4.000    7.000    1.333 
#    0.000    0.000    0.000    0.000    0.000    0.000 
#    0.000    0.000    0.000    0.000    0.000    0.000 
#
# Total GULP energy -134106.573614 kJ/mol
# GULP energy per Si atom -5587.773901 kJ/mol
# Density = 2.268926 g / cm^3
# Si number density = 22.741015 Si / 1000 Ang^3
#
#
#
# Elastic Constant Matrix: (Units=GPa)
#
#
# Indices 1 2 3 4 5 6 
#
# 1 113.9649 54.5916 32.4793 0.0000 0.0000 0.0000
# 2 54.5916 106.0843 27.8261 0.0000 0.0000 0.0000
# 3 32.4793 27.8261 82.2689 0.0000 0.0000 0.0000
# 4 0.0000 0.0000 0.0000 47.8060 0.0000 0.0000
# 5 0.0000 0.0000 0.0000 0.0000 22.0748 0.0000
# 6 0.0000 0.0000 0.0000 0.0000 0.0000 12.1694
#
#
#
# Elastic Compliance Matrix: (Units=1/GPa)
#
#
# Indices 1 2 3 4 5 6 
#
# 1 0.012274 -0.005536 -0.002973 0.000000 0.000000 0.000000
# 2 -0.005536 0.012842 -0.002158 0.000000 0.000000 0.000000
# 3 -0.002973 -0.002158 0.014059 0.000000 0.000000 0.000000
# 4 0.000000 0.000000 0.000000 0.020918 0.000000 0.000000
# 5 0.000000 0.000000 0.000000 0.000000 0.045301 0.000000
# 6 0.000000 0.000000 0.000000 0.000000 0.000000 0.082174
#
#
# Mechanical properties :
#
#
# Convention : Reuss Voigt Hill
#
# Bulk Modulus (GPa) = 56.05406 59.12357 57.58881
# Shear Modulus (GPa) = 23.27233 28.90476 26.08854
#
# Velocity S-wave (km/s) = 3.20248 3.56903 3.39071
# Velocity P-wave (km/s) = 6.19491 6.56042 6.38028
#
# Compressibility (1/GPa) = 0.01783992
#
# Stress axis : x y z
#
# Youngs Moduli (GPa) = 81.47294 77.87246 71.12965
#
# Poissons Ratio (x) = 0.43114 0.21148
# Poissons Ratio (y) = 0.45107 0.15347
# Poissons Ratio (z) = 0.24223 0.16802
#
# Static dielectric constant tensor:
#      x y z
#    x 1.874280 0.000000 0.000000 
#    y 0.000000 1.954600 0.000000 
#    z 0.000000 0.000000 2.049340 
# 
# From -- ./inp_files/24267.got.cif
#   From: 2010.05.17/outbox.cif.g08.bks.cpg/sg20_13_cif.got.tgz:24267.got - 2010.06.03 22:52:26.
