data_PCOD9321044
_publ_section_title
;
Structure prediction by ZEFSAII (Michael W. Deem and Ramdas Pophale) SiO2 
 PCOD9321044
Probable space group: C 2 2 21
;
_chemical_formula_sum "Si O2"
_cell_formula_units_Z 28
_cell_length_a 12.288561
_cell_length_b 18.130287
_cell_length_c 5.098970
_cell_angle_alpha 90.000000
_cell_angle_beta 90.000000
_cell_angle_gamma 90.000000
_cell_volume 1136.025724
_symmetry_space_group_name_H-M "C 2 2 21"
_symmetry_group_IT_number 20
_symmetry_cell_setting 'orthorhombic'
loop_
_space_group_symop_operation_xyz
x,y,z
-x,-y,1/2+z
x,-y,-z
-x,y,1/2-z
1/2+x,1/2+y,z
1/2-x,1/2-y,1/2+z
1/2+x,1/2-y,-z
1/2-x,1/2+y,1/2-z
loop_
_atom_site_type_symbol
_atom_site_label
_atom_site_fract_x
_atom_site_fract_y
_atom_site_fract_z
Si Si1 0.900409 0.917728 0.426371
Si Si2 0.000000 0.579300 0.250000
Si Si3 0.810382 0.224686 0.300058
Si Si4 0.196653 0.500000 0.500000
Si Si5 0.000000 0.324829 0.250000
O O1 0.862525 0.855847 0.637778
O O2 0.778431 0.944894 0.342015
O O3 0.000000 0.886874 0.250000
O O4 0.944475 0.000000 0.500000
O O5 0.887999 0.537278 0.194289
O O6 0.975356 0.625239 0.505847
O O7 0.782285 0.263877 0.579476
O O8 0.902924 0.272979 0.167520
#
# Coordination Sequence:
#
# PCOD9321044 Si02
#       5
#     8   4   8   4   4
#     4  10  26  49  78 119 165 216 267 334 407 494
#     4  12  25  52  78 125 152 218 264 346 398 483
#     4  12  28  49  81 117 160 209 268 332 400 479
#     4  10  24  48  78 112 164 204 270 330 408 478
#     4  12  27  46  80 111 164 200 272 322 404 463
#
# _framework density 24.647331000000001
#
# number of rings (size 3 to 8) (size 9 to 14) (size 15 to 20)
#    0.857    0.000    0.000    6.000    8.000    0.000 
#    7.714    0.000    0.000    0.000    0.000    0.000 
#    0.000    0.000    0.000    0.000    0.000    0.000 
#
# Total GULP energy -77992.060285 kJ/mol
# GULP energy per Si atom -5570.861449 kJ/mol
# Density = 2.459123 g / cm^3
# Si number density = 24.647331 Si / 1000 Ang^3
#
#
#
# Elastic Constant Matrix: (Units=GPa)
#
#
# Indices 1 2 3 4 5 6 
#
# 1 151.8998 26.1493 18.9926 0.0000 0.0000 0.0000
# 2 26.1493 102.4957 39.5054 0.0000 0.0000 0.0000
# 3 18.9926 39.5054 81.8859 0.0000 0.0000 0.0000
# 4 0.0000 0.0000 0.0000 197.7695 0.0000 0.0000
# 5 0.0000 0.0000 0.0000 0.0000 2.3160 0.0000
# 6 0.0000 0.0000 0.0000 0.0000 0.0000 -33.5232
#
#
#
# Elastic Compliance Matrix: (Units=1/GPa)
#
#
# Indices 1 2 3 4 5 6 
#
# 1 0.006943 -0.001413 -0.000928 0.000000 0.000000 0.000000
# 2 -0.001413 0.012273 -0.005593 0.000000 0.000000 0.000000
# 3 -0.000928 -0.005593 0.015126 0.000000 0.000000 0.000000
# 4 0.000000 0.000000 0.000000 0.005056 0.000000 0.000000
# 5 0.000000 0.000000 0.000000 0.000000 0.431784 0.000000
# 6 0.000000 0.000000 0.000000 0.000000 0.000000 -0.029830
#
#
# Mechanical properties :
#
#
# Convention : Reuss Voigt Hill
#
# Bulk Modulus (GPa) = 54.13752 56.17510 55.15631
# Shear Modulus (GPa) = 10.79031 50.08807 30.43919
#
# Velocity S-wave (km/s) = 2.09461 4.51287 3.51805
# Velocity P-wave (km/s) = 5.27848 7.07077 6.23932
#
# Compressibility (1/GPa) = 0.01847148
#
# Stress axis : x y z
#
# Youngs Moduli (GPa) = 144.03647 81.48028 66.11205
#
# Poissons Ratio (x) = 0.11517 0.06138
# Poissons Ratio (y) = 0.20359 0.36978
# Poissons Ratio (z) = 0.13372 0.45573
#
# Static dielectric constant tensor:
#      x y z
#    x 1.163580 0.000000 0.000000 
#    y 0.000000 2.010780 0.000000 
#    z 0.000000 0.000000 1.979030 
# 
# From -- ./inp_files/972.got.cif
#   From: 2010.05.17/outbox.cif.g08.bks.cpg/sg20_1_cif.got.tgz:972.got - 2010.06.03 22:52:26.
