data_PCOD9321234
_publ_section_title
;
Structure prediction by ZEFSAII (Michael W. Deem and Ramdas Pophale) SiO2 
 PCOD9321234
Probable space group: C 2 2 21
;
_chemical_formula_sum "Si O2"
_cell_formula_units_Z 64
_cell_length_a 11.704616
_cell_length_b 12.147936
_cell_length_c 21.165406
_cell_angle_alpha 90.000000
_cell_angle_beta 90.000000
_cell_angle_gamma 90.000000
_cell_volume 3009.444018
_symmetry_space_group_name_H-M "C 2 2 21"
_symmetry_group_IT_number 20
_symmetry_cell_setting 'orthorhombic'
loop_
_space_group_symop_operation_xyz
x,y,z
-x,-y,1/2+z
x,-y,-z
-x,y,1/2-z
1/2+x,1/2+y,z
1/2-x,1/2-y,1/2+z
1/2+x,1/2-y,-z
1/2-x,1/2+y,1/2-z
loop_
_atom_site_type_symbol
_atom_site_label
_atom_site_fract_x
_atom_site_fract_y
_atom_site_fract_z
Si Si1 0.847434 0.204732 0.133189
Si Si2 0.191978 0.190464 0.215782
Si Si3 0.439007 0.136506 0.182389
Si Si4 0.010976 0.593004 0.673044
Si Si5 0.579631 0.528180 0.572977
Si Si6 0.109300 0.796026 0.115393
Si Si7 0.281377 0.096394 0.654716
Si Si8 0.628537 0.455559 0.225962
O O1 0.824485 0.192483 0.208968
O O2 0.931719 0.309171 0.133351
O O3 0.904599 0.090406 0.109062
O O4 0.728711 0.235301 0.096302
O O5 0.323148 0.200599 0.196424
O O6 0.148359 0.293656 0.175617
O O7 0.138688 0.075507 0.195596
O O8 0.500000 0.132747 0.250000
O O9 0.516286 0.204290 0.134082
O O10 0.402864 0.011911 0.167300
O O11 0.000000 0.611152 0.750000
O O12 0.897497 0.529821 0.645221
O O13 0.589155 0.500000 0.500000
O O14 0.466449 0.605230 0.582808
O O15 0.689856 0.595611 0.599562
O O16 0.151379 0.858975 0.177979
O O17 0.215558 0.053800 0.716145
O O18 0.500000 0.441120 0.250000
#
# Coordination Sequence:
#
# PCOD9321234 Si02
#       8
#     8   8   8   8   8   8   8   8
#     4  12  24  42  69 100 142 176 236 293 346 432
#     4  12  21  32  58 104 137 166 208 288 363 424
#     4  11  19  34  58  96 143 167 207 268 360 436
#     4  11  23  36  62 109 148 172 209 288 374 440
#     4  12  29  51  69  96 138 200 250 288 348 434
#     4  12  22  43  72  98 134 185 237 293 353 424
#     4  12  22  39  64  98 143 180 219 285 371 434
#     4  12  21  35  62 102 138 176 223 288 370 425
#
# _framework density 21.266386000000001
#
# number of rings (size 3 to 8) (size 9 to 14) (size 15 to 20)
#    0.000    0.250    7.500    3.375    3.500    0.000 
#    2.250    0.000    0.000    0.000    0.000    0.000 
#    0.000    0.000    0.000    0.000    0.000    0.000 
#
# Total GULP energy -178335.319619 kJ/mol
# GULP energy per Si atom -5572.978738 kJ/mol
# Density = 2.121798 g / cm^3
# Si number density = 21.266386 Si / 1000 Ang^3
#
#
#
# Elastic Constant Matrix: (Units=GPa)
#
#
# Indices 1 2 3 4 5 6 
#
# 1 109.7409 2.6108 18.1783 0.0000 0.0000 0.0000
# 2 2.6108 109.9158 25.0232 0.0000 0.0000 0.0000
# 3 18.1783 25.0232 49.2288 0.0000 0.0000 0.0000
# 4 0.0000 0.0000 0.0000 12.2690 0.0000 0.0000
# 5 0.0000 0.0000 0.0000 0.0000 10.1330 0.0000
# 6 0.0000 0.0000 0.0000 0.0000 0.0000 19.4277
#
#
#
# Elastic Compliance Matrix: (Units=1/GPa)
#
#
# Indices 1 2 3 4 5 6 
#
# 1 0.009749 0.000665 -0.003938 0.000000 0.000000 0.000000
# 2 0.000665 0.010334 -0.005498 0.000000 0.000000 0.000000
# 3 -0.003938 -0.005498 0.024562 0.000000 0.000000 0.000000
# 4 0.000000 0.000000 0.000000 0.081507 0.000000 0.000000
# 5 0.000000 0.000000 0.000000 0.000000 0.098687 0.000000
# 6 0.000000 0.000000 0.000000 0.000000 0.000000 0.051473
#
#
# Mechanical properties :
#
#
# Convention : Reuss Voigt Hill
#
# Bulk Modulus (GPa) = 36.89697 40.05666 38.47681
# Shear Modulus (GPa) = 16.50777 23.23750 19.87263
#
# Velocity S-wave (km/s) = 2.78913 3.30917 3.06021
# Velocity P-wave (km/s) = 5.26876 5.78596 5.53341
#
# Compressibility (1/GPa) = 0.02710250
#
# Stress axis : x y z
#
# Youngs Moduli (GPa) = 102.57625 96.76991 40.71302
#
# Poissons Ratio (x) = -0.06434 0.16032
# Poissons Ratio (y) = -0.06820 0.22385
# Poissons Ratio (z) = 0.40393 0.53206
#
# Static dielectric constant tensor:
#      x y z
#    x 2.155150 0.000000 0.000000 
#    y 0.000000 1.891310 0.000000 
#    z 0.000000 0.000000 1.730070 
# 
# From -- ./inp_files/29179.got.cif
#   From: 2010.05.17/outbox.cif.g08.bks.cpg/sg20_15_cif.got.tgz:29179.got - 2010.06.03 22:52:26.
