data_PCOD9321260
_publ_section_title
;
Structure prediction by ZEFSAII (Michael W. Deem and Ramdas Pophale) SiO2 
 PCOD9321260
Probable space group: C 2 2 21
;
_chemical_formula_sum "Si O2"
_cell_formula_units_Z 48
_cell_length_a 16.607284
_cell_length_b 11.483445
_cell_length_c 12.224443
_cell_angle_alpha 90.000000
_cell_angle_beta 90.000000
_cell_angle_gamma 90.000000
_cell_volume 2331.309251
_symmetry_space_group_name_H-M "C 2 2 21"
_symmetry_group_IT_number 20
_symmetry_cell_setting 'orthorhombic'
loop_
_space_group_symop_operation_xyz
x,y,z
-x,-y,1/2+z
x,-y,-z
-x,y,1/2-z
1/2+x,1/2+y,z
1/2-x,1/2-y,1/2+z
1/2+x,1/2-y,-z
1/2-x,1/2+y,1/2-z
loop_
_atom_site_type_symbol
_atom_site_label
_atom_site_fract_x
_atom_site_fract_y
_atom_site_fract_z
Si Si1 0.282481 0.675963 0.355542
Si Si2 0.872324 0.480181 0.871970
Si Si3 0.879609 0.000000 0.500000
Si Si4 0.688305 0.377708 0.436455
Si Si5 0.373536 0.655538 0.695278
Si Si6 0.500000 0.846936 0.750000
Si Si7 0.187152 0.727032 0.645035
O O1 0.197817 0.609473 0.337308
O O2 0.327730 0.600923 0.443968
O O3 0.267646 0.808262 0.394775
O O4 0.326452 0.679899 0.240138
O O5 0.956339 0.426248 0.838757
O O6 0.858214 0.608572 0.826196
O O7 0.863170 0.500000 0.000000
O O8 0.912842 0.935545 0.391103
O O9 0.698311 0.500000 0.500000
O O10 0.637747 0.385957 0.322752
O O11 0.661178 0.284064 0.529900
O O12 0.432047 0.765341 0.698156
O O13 0.282928 0.692286 0.654616
#
# Coordination Sequence:
#
# PCOD9321260 Si02
#       7
#     8   8   4   8   8   4   8
#     4  11  20  36  69 100 128 169 230 283 344 379
#     4  12  21  45  70  93 141 185 216 284 353 410
#     4  12  20  44  70  96 132 186 228 288 328 406
#     4  11  21  36  64  99 132 171 232 281 333 404
#     4  11  23  41  65  98 137 185 221 286 345 405
#     4  12  26  44  66 102 146 178 226 274 364 416
#     4  11  21  38  68 100 127 178 235 275 334 407
#
# _framework density 20.589289000000001
#
# number of rings (size 3 to 8) (size 9 to 14) (size 15 to 20)
#    0.000    0.667    9.167    1.000    2.333    0.000 
#    4.500    0.833    0.000    0.000    0.000    0.000 
#    0.000    0.000    0.000    0.000    0.000    0.000 
#
# Total GULP energy -133681.869395 kJ/mol
# GULP energy per Si atom -5570.077891 kJ/mol
# Density = 2.054243 g / cm^3
# Si number density = 20.589289 Si / 1000 Ang^3
#
#
#
# Elastic Constant Matrix: (Units=GPa)
#
#
# Indices 1 2 3 4 5 6 
#
# 1 34.0632 31.6144 12.6662 0.0000 0.0000 0.0000
# 2 31.6144 125.3663 51.3900 0.0000 0.0000 0.0000
# 3 12.6662 51.3900 152.3361 0.0000 0.0000 0.0000
# 4 0.0000 0.0000 0.0000 45.6291 0.0000 0.0000
# 5 0.0000 0.0000 0.0000 0.0000 5.1443 0.0000
# 6 0.0000 0.0000 0.0000 0.0000 0.0000 32.4707
#
#
#
# Elastic Compliance Matrix: (Units=1/GPa)
#
#
# Indices 1 2 3 4 5 6 
#
# 1 0.038329 -0.009701 0.000086 0.000000 0.000000 0.000000
# 2 -0.009701 0.011712 -0.003144 0.000000 0.000000 0.000000
# 3 0.000086 -0.003144 0.007618 0.000000 0.000000 0.000000
# 4 0.000000 0.000000 0.000000 0.021916 0.000000 0.000000
# 5 0.000000 0.000000 0.000000 0.000000 0.194390 0.000000
# 6 0.000000 0.000000 0.000000 0.000000 0.000000 0.030797
#
#
# Mechanical properties :
#
#
# Convention : Reuss Voigt Hill
#
# Bulk Modulus (GPa) = 31.11416 55.90073 43.50744
# Shear Modulus (GPa) = 14.66303 31.05515 22.85909
#
# Velocity S-wave (km/s) = 2.67154 3.88792 3.33564
# Velocity P-wave (km/s) = 4.96596 6.88214 6.00103
#
# Compressibility (1/GPa) = 0.03213971
#
# Stress axis : x y z
#
# Youngs Moduli (GPa) = 26.09012 85.38371 131.26710
#
# Poissons Ratio (x) = 0.82828 -0.01124
# Poissons Ratio (y) = 0.25309 0.41275
# Poissons Ratio (z) = -0.00223 0.26848
#
# Static dielectric constant tensor:
#      x y z
#    x 1.745040 0.000000 0.000000 
#    y 0.000000 1.799980 0.000000 
#    z 0.000000 0.000000 1.826860 
# 
# From -- ./inp_files/15748.got.cif
#   From: 2010.05.17/outbox.cif.g08.bks.cpg/sg20_8_cif.got.tgz:15748.got - 2010.06.03 22:52:26.
