data_PCOD9321547
_publ_section_title
;
Structure prediction by ZEFSAII (Michael W. Deem and Ramdas Pophale) SiO2 
 PCOD9321547
Probable space group: C 2 2 21
;
_chemical_formula_sum "Si O2"
_cell_formula_units_Z 36
_cell_length_a 22.883911
_cell_length_b 9.196165
_cell_length_c 8.188180
_cell_angle_alpha 90.000000
_cell_angle_beta 90.000000
_cell_angle_gamma 90.000000
_cell_volume 1723.155165
_symmetry_space_group_name_H-M "C 2 2 21"
_symmetry_group_IT_number 20
_symmetry_cell_setting 'orthorhombic'
loop_
_space_group_symop_operation_xyz
x,y,z
-x,-y,1/2+z
x,-y,-z
-x,y,1/2-z
1/2+x,1/2+y,z
1/2-x,1/2-y,1/2+z
1/2+x,1/2-y,-z
1/2-x,1/2+y,1/2-z
loop_
_atom_site_type_symbol
_atom_site_label
_atom_site_fract_x
_atom_site_fract_y
_atom_site_fract_z
Si Si1 0.176618 0.522512 0.308775
Si Si2 0.937976 0.593199 0.664131
Si Si3 0.867055 0.105465 0.354119
Si Si4 0.248765 0.227890 0.641641
Si Si5 0.667177 0.500000 0.500000
O O1 0.183912 0.500000 0.500000
O O2 0.109788 0.497805 0.265771
O O3 0.201256 0.678951 0.258229
O O4 0.216778 0.402036 0.226116
O O5 0.945006 0.500000 0.500000
O O6 0.907900 0.751583 0.645925
O O7 0.000000 0.607794 0.750000
O O8 0.800796 0.159326 0.396246
O O9 0.885605 0.000000 0.500000
O O10 0.865608 0.028069 0.173755
O O11 0.207913 0.143395 0.513252
#
# Coordination Sequence:
#
# PCOD9321547 Si02
#       5
#     8   8   8   8   4
#     4  11  24  40  68  98 142 181 227 288 345 427
#     4  11  27  50  73 103 135 183 250 297 362 430
#     4  11  27  46  71 107 144 192 243 292 368 428
#     4  11  23  38  62 109 144 182 228 274 361 424
#     4  12  26  40  70 104 158 188 234 298 348 452
#
# _framework density 20.891907
#
# number of rings (size 3 to 8) (size 9 to 14) (size 15 to 20)
#    0.000    0.889    2.222    4.000   12.444    0.000 
#    2.000    0.000    0.000    0.000    0.000    0.000 
#    0.000    0.000    0.000    0.000    0.000    0.000 
#
# Total GULP energy -100549.985775 kJ/mol
# GULP energy per Si atom -5586.110321 kJ/mol
# Density = 2.084436 g / cm^3
# Si number density = 20.891907 Si / 1000 Ang^3
#
#
#
# Elastic Constant Matrix: (Units=GPa)
#
#
# Indices 1 2 3 4 5 6 
#
# 1 142.1808 47.9950 33.1985 0.0000 0.0000 0.0000
# 2 47.9950 88.4564 19.2322 0.0000 0.0000 0.0000
# 3 33.1985 19.2322 114.4041 0.0000 0.0000 0.0000
# 4 0.0000 0.0000 0.0000 25.9238 0.0000 0.0000
# 5 0.0000 0.0000 0.0000 0.0000 254.5575 0.0000
# 6 0.0000 0.0000 0.0000 0.0000 0.0000 8.9030
#
#
#
# Elastic Compliance Matrix: (Units=1/GPa)
#
#
# Indices 1 2 3 4 5 6 
#
# 1 0.008974 -0.004466 -0.001853 0.000000 0.000000 0.000000
# 2 -0.004466 0.013957 -0.001050 0.000000 0.000000 0.000000
# 3 -0.001853 -0.001050 0.009455 0.000000 0.000000 0.000000
# 4 0.000000 0.000000 0.000000 0.038575 0.000000 0.000000
# 5 0.000000 0.000000 0.000000 0.000000 0.003928 0.000000
# 6 0.000000 0.000000 0.000000 0.000000 0.000000 0.112321
#
#
# Mechanical properties :
#
#
# Convention : Reuss Voigt Hill
#
# Bulk Modulus (GPa) = 56.66861 60.65476 58.66168
# Shear Modulus (GPa) = 24.05807 74.18459 49.12133
#
# Velocity S-wave (km/s) = 3.39713 5.96539 4.85419
# Velocity P-wave (km/s) = 6.52464 8.74891 7.71733
#
# Compressibility (1/GPa) = 0.01764645
#
# Stress axis : x y z
#
# Youngs Moduli (GPa) = 111.43842 71.65119 105.76097
#
# Poissons Ratio (x) = 0.31999 0.19600
# Poissons Ratio (y) = 0.49768 0.11107
# Poissons Ratio (z) = 0.20652 0.07525
#
# Static dielectric constant tensor:
#      x y z
#    x 1.703010 0.000000 0.000000 
#    y 0.000000 1.776220 0.000000 
#    z 0.000000 0.000000 1.861050 
# 
# From -- ./inp_files/5924.got.cif
#   From: 2010.05.17/outbox.cif.g08.bks.cpg/sg20_3_cif.got.tgz:5924.got - 2010.06.03 22:52:26.
