data_PCOD9321238
_publ_section_title
;
Structure prediction by ZEFSAII (Michael W. Deem and Ramdas Pophale) SiO2 
 PCOD9321238
Probable space group: C 2 2 21
;
_chemical_formula_sum "Si O2"
_cell_formula_units_Z 48
_cell_length_a 9.380246
_cell_length_b 16.757243
_cell_length_c 16.760546
_cell_angle_alpha 90.000000
_cell_angle_beta 90.000000
_cell_angle_gamma 90.000000
_cell_volume 2634.540977
_symmetry_space_group_name_H-M "C 2 2 21"
_symmetry_group_IT_number 20
_symmetry_cell_setting 'orthorhombic'
loop_
_space_group_symop_operation_xyz
x,y,z
-x,-y,1/2+z
x,-y,-z
-x,y,1/2-z
1/2+x,1/2+y,z
1/2-x,1/2-y,1/2+z
1/2+x,1/2-y,-z
1/2-x,1/2+y,1/2-z
loop_
_atom_site_type_symbol
_atom_site_label
_atom_site_fract_x
_atom_site_fract_y
_atom_site_fract_z
Si Si1 0.929165 0.749092 0.337054
Si Si2 0.058491 0.209727 0.144177
Si Si3 0.641520 0.024277 0.302933
Si Si4 0.307249 0.368814 0.797049
Si Si5 0.663984 0.833653 0.567575
Si Si6 0.343613 0.147790 0.881871
O O1 0.836151 0.667713 0.332265
O O2 0.809865 0.813635 0.360195
O O3 0.000000 0.762882 0.250000
O O4 0.052921 0.732801 0.400986
O O5 0.146474 0.191622 0.225244
O O6 0.176475 0.201286 0.076650
O O7 0.938196 0.140063 0.142683
O O8 0.970398 0.291512 0.143667
O O9 0.500000 0.032040 0.250000
O O10 0.646389 0.936993 0.339587
O O11 0.772512 0.047700 0.244117
O O12 0.647815 0.091191 0.372391
O O13 0.641212 0.858619 0.477048
#
# Coordination Sequence:
#
# PCOD9321238 Si02
#       6
#     8   8   8   8   8   8
#     4  11  19  38  62  85 114 155 204 234 288 357
#     4   9  19  34  62  83 112 148 198 235 285 348
#     4  11  21  37  61  86 116 157 200 243 294 354
#     4   9  17  36  59  83 104 155 196 232 274 359
#     4  11  20  41  60  85 121 162 188 237 311 369
#     4  11  25  34  59  95 121 145 197 260 295 336
#
# _framework density 18.219493
#
# number of rings (size 3 to 8) (size 9 to 14) (size 15 to 20)
#    0.000    1.667    5.000    1.500    4.667    0.000 
#    6.000    0.000    0.000    0.000   13.000    0.000 
#    0.000    0.000    0.000    0.000    0.000    0.000 
#
# Total GULP energy -133757.401986 kJ/mol
# GULP energy per Si atom -5573.225083 kJ/mol
# Density = 1.817802 g / cm^3
# Si number density = 18.219493 Si / 1000 Ang^3
#
#
#
# Elastic Constant Matrix: (Units=GPa)
#
#
# Indices 1 2 3 4 5 6 
#
# 1 122.2416 54.9737 40.7620 0.0000 0.0000 0.0000
# 2 54.9737 107.5462 28.1823 0.0000 0.0000 0.0000
# 3 40.7620 28.1823 61.2278 0.0000 0.0000 0.0000
# 4 0.0000 0.0000 0.0000 18.9612 0.0000 0.0000
# 5 0.0000 0.0000 0.0000 0.0000 22.8799 0.0000
# 6 0.0000 0.0000 0.0000 0.0000 0.0000 19.2790
#
#
#
# Elastic Compliance Matrix: (Units=1/GPa)
#
#
# Indices 1 2 3 4 5 6 
#
# 1 0.012309 -0.004713 -0.006025 0.000000 0.000000 0.000000
# 2 -0.004713 0.012378 -0.002560 0.000000 0.000000 0.000000
# 3 -0.006025 -0.002560 0.021522 0.000000 0.000000 0.000000
# 4 0.000000 0.000000 0.000000 0.052739 0.000000 0.000000
# 5 0.000000 0.000000 0.000000 0.000000 0.043706 0.000000
# 6 0.000000 0.000000 0.000000 0.000000 0.000000 0.051870
#
#
# Mechanical properties :
#
#
# Convention : Reuss Voigt Hill
#
# Bulk Modulus (GPa) = 50.98682 59.87240 55.42961
# Shear Modulus (GPa) = 21.96261 23.36387 22.66324
#
# Velocity S-wave (km/s) = 3.47572 3.58488 3.53072
# Velocity P-wave (km/s) = 6.64477 7.07589 6.86372
#
# Compressibility (1/GPa) = 0.01961291
#
# Stress axis : x y z
#
# Youngs Moduli (GPa) = 81.23954 80.78657 46.46389
#
# Poissons Ratio (x) = 0.38076 0.27997
# Poissons Ratio (y) = 0.38289 0.11894
# Poissons Ratio (z) = 0.48950 0.20680
#
# Static dielectric constant tensor:
#      x y z
#    x 1.670040 0.000000 0.000000 
#    y 0.000000 1.611140 0.000000 
#    z 0.000000 0.000000 1.656830 
# 
# From -- ./inp_files/23441.got.cif
#   From: 2010.05.17/outbox.cif.g08.bks.cpg/sg20_12_cif.got.tgz:23441.got - 2010.06.03 22:52:26.
