data_PCOD9321570
_publ_section_title
;
Structure prediction by ZEFSAII (Michael W. Deem and Ramdas Pophale) SiO2 
 PCOD9321570
Probable space group: C 2 2 21
;
_chemical_formula_sum "Si O2"
_cell_formula_units_Z 64
_cell_length_a 16.810016
_cell_length_b 15.496491
_cell_length_c 12.175074
_cell_angle_alpha 90.000000
_cell_angle_beta 90.000000
_cell_angle_gamma 90.000000
_cell_volume 3171.561262
_symmetry_space_group_name_H-M "C 2 2 21"
_symmetry_group_IT_number 20
_symmetry_cell_setting 'orthorhombic'
loop_
_space_group_symop_operation_xyz
x,y,z
-x,-y,1/2+z
x,-y,-z
-x,y,1/2-z
1/2+x,1/2+y,z
1/2-x,1/2-y,1/2+z
1/2+x,1/2-y,-z
1/2-x,1/2+y,1/2-z
loop_
_atom_site_type_symbol
_atom_site_label
_atom_site_fract_x
_atom_site_fract_y
_atom_site_fract_z
Si Si1 0.303912 0.475282 0.112274
Si Si2 0.926070 0.663820 0.183151
Si Si3 0.326618 0.871049 0.158826
Si Si4 0.516177 0.098080 0.540698
Si Si5 0.160390 0.349416 0.096166
Si Si6 0.409829 0.641749 0.729935
Si Si7 0.240235 0.563502 0.313211
Si Si8 0.811272 0.167853 0.511961
O O1 0.226277 0.421914 0.071856
O O2 0.354313 0.412167 0.189089
O O3 0.279177 0.553880 0.192734
O O4 0.347414 0.500000 0.000000
O O5 0.911006 0.758398 0.232141
O O6 0.842869 0.614519 0.190851
O O7 0.000000 0.622543 0.250000
O O8 0.958599 0.660785 0.059305
O O9 0.321453 0.828008 0.276952
O O10 0.275191 0.822017 0.068895
O O11 0.285716 0.965619 0.158565
O O12 0.418264 0.884079 0.132047
O O13 0.426997 0.112036 0.579999
O O14 0.526349 0.000000 0.500000
O O15 0.164696 0.262278 0.027969
O O16 0.500000 0.610747 0.750000
O O17 0.373141 0.637091 0.606659
O O18 0.296074 0.604714 0.407580
#
# Coordination Sequence:
#
# PCOD9321570 Si02
#       8
#     8   8   8   8   8   8   8   8
#     4  11  26  43  66 101 138 175 224 289 345 393
#     4  11  24  39  66 101 134 180 222 272 338 414
#     4  11  23  41  66  98 137 170 226 280 331 402
#     4  12  23  39  66 100 141 180 213 268 342 417
#     4  11  25  39  63 102 137 179 216 280 333 412
#     4  11  25  48  70  96 130 177 234 287 340 409
#     4  11  23  42  70 101 129 182 229 275 332 417
#     4  12  23  45  70  95 132 184 233 274 345 408
#
# _framework density 20.179335999999999
#
# number of rings (size 3 to 8) (size 9 to 14) (size 15 to 20)
#    0.000    0.750    5.000    3.375    7.000    0.000 
#    2.250    0.000    0.000    0.000    0.000    0.000 
#    0.000    0.000    0.000    0.000    0.000    0.000 
#
# Total GULP energy -178755.103723 kJ/mol
# GULP energy per Si atom -5586.096991 kJ/mol
# Density = 2.013341 g / cm^3
# Si number density = 20.179336 Si / 1000 Ang^3
#
#
#
# Elastic Constant Matrix: (Units=GPa)
#
#
# Indices 1 2 3 4 5 6 
#
# 1 119.3209 31.8461 34.7040 0.0000 0.0000 0.0000
# 2 31.8461 29.2956 37.6555 0.0000 0.0000 0.0000
# 3 34.7040 37.6555 130.7938 0.0000 0.0000 0.0000
# 4 0.0000 0.0000 0.0000 35.7383 0.0000 0.0000
# 5 0.0000 0.0000 0.0000 0.0000 30.4813 0.0000
# 6 0.0000 0.0000 0.0000 0.0000 0.0000 22.4911
#
#
#
# Elastic Compliance Matrix: (Units=1/GPa)
#
#
# Indices 1 2 3 4 5 6 
#
# 1 0.011872 -0.014059 0.000898 0.000000 0.000000 0.000000
# 2 -0.014059 0.070837 -0.016663 0.000000 0.000000 0.000000
# 3 0.000898 -0.016663 0.012205 0.000000 0.000000 0.000000
# 4 0.000000 0.000000 0.000000 0.027981 0.000000 0.000000
# 5 0.000000 0.000000 0.000000 0.000000 0.032807 0.000000
# 6 0.000000 0.000000 0.000000 0.000000 0.000000 0.044462
#
#
# Mechanical properties :
#
#
# Convention : Reuss Voigt Hill
#
# Bulk Modulus (GPa) = 28.35812 54.20238 41.28025
# Shear Modulus (GPa) = 18.41153 29.42246 23.91700
#
# Velocity S-wave (km/s) = 3.02386 3.82258 3.44644
# Velocity P-wave (km/s) = 5.12594 6.81187 6.02813
#
# Compressibility (1/GPa) = 0.03526327
#
# Stress axis : x y z
#
# Youngs Moduli (GPa) = 84.23116 14.11693 81.93465
#
# Poissons Ratio (x) = 0.19848 -0.07355
# Poissons Ratio (y) = 1.18425 1.36531
# Poissons Ratio (z) = -0.07561 0.23524
#
# Static dielectric constant tensor:
#      x y z
#    x 1.714220 0.000000 0.000000 
#    y 0.000000 1.706500 0.000000 
#    z 0.000000 0.000000 1.788440 
# 
# From -- ./inp_files/15321.got.cif
#   From: 2010.05.17/outbox.cif.g08.bks.cpg/sg20_8_cif.got.tgz:15321.got - 2010.06.03 22:52:26.
