data_PCOD9321428
_publ_section_title
;
Structure prediction by ZEFSAII (Michael W. Deem and Ramdas Pophale) SiO2 
 PCOD9321428
Probable space group: C 2 2 21
;
_chemical_formula_sum "Si O2"
_cell_formula_units_Z 40
_cell_length_a 21.558677
_cell_length_b 17.616692
_cell_length_c 5.034341
_cell_angle_alpha 90.000000
_cell_angle_beta 90.000000
_cell_angle_gamma 90.000000
_cell_volume 1912.005320
_symmetry_space_group_name_H-M "C 2 2 21"
_symmetry_group_IT_number 20
_symmetry_cell_setting 'orthorhombic'
loop_
_space_group_symop_operation_xyz
x,y,z
-x,-y,1/2+z
x,-y,-z
-x,y,1/2-z
1/2+x,1/2+y,z
1/2-x,1/2-y,1/2+z
1/2+x,1/2-y,-z
1/2-x,1/2+y,1/2-z
loop_
_atom_site_type_symbol
_atom_site_label
_atom_site_fract_x
_atom_site_fract_y
_atom_site_fract_z
Si Si1 0.270604 0.416894 0.905183
Si Si2 0.931970 0.417272 0.372380
Si Si3 0.365866 0.287978 0.917589
Si Si4 0.935245 0.742908 0.405916
Si Si5 0.310505 0.123893 0.909395
O O1 0.327410 0.361649 0.841100
O O2 0.223140 0.414064 0.658896
O O3 0.290820 0.500000 0.000000
O O4 0.232745 0.385765 0.154990
O O5 0.931661 0.500000 0.500000
O O6 0.920161 0.347293 0.574816
O O7 0.877389 0.411912 0.157473
O O8 0.000000 0.403090 0.250000
O O9 0.421080 0.270792 0.705856
O O10 0.322243 0.213808 0.929268
O O11 0.390714 0.291005 0.216301
O O12 0.000000 0.748368 0.250000
#
# Coordination Sequence:
#
# PCOD9321428 Si02
#       5
#     8   8   8   8   8
#     4  12  25  41  64  91 123 162 208 262 314 364
#     4  11  24  39  61  92 133 171 210 253 300 359
#     4  11  23  41  64  91 125 162 206 255 306 371
#     4  11  22  40  65  92 122 163 207 251 307 370
#     4  11  23  41  61  88 125 168 209 249 304 366
#
# _framework density 20.920442999999999
#
# number of rings (size 3 to 8) (size 9 to 14) (size 15 to 20)
#    0.000    0.800    0.000    9.600    0.000    4.800 
#    0.000    0.000    0.000    2.400    0.000    1.400 
#    0.000    0.000    0.000    0.000    0.000    0.000 
#
# Total GULP energy -111859.581666 kJ/mol
# GULP energy per Si atom -5592.979083 kJ/mol
# Density = 2.087283 g / cm^3
# Si number density = 20.920443 Si / 1000 Ang^3
#
#
#
# Elastic Constant Matrix: (Units=GPa)
#
#
# Indices 1 2 3 4 5 6 
#
# 1 77.3560 58.6285 22.6636 0.0000 0.0000 0.0000
# 2 58.6285 94.1860 15.8482 0.0000 0.0000 0.0000
# 3 22.6636 15.8482 110.6059 0.0000 0.0000 0.0000
# 4 0.0000 0.0000 0.0000 23.1858 0.0000 0.0000
# 5 0.0000 0.0000 0.0000 0.0000 81.9530 0.0000
# 6 0.0000 0.0000 0.0000 0.0000 0.0000 -2.7543
#
#
#
# Elastic Compliance Matrix: (Units=1/GPa)
#
#
# Indices 1 2 3 4 5 6 
#
# 1 0.025417 -0.015314 -0.003014 0.000000 0.000000 0.000000
# 2 -0.015314 0.020107 0.000257 0.000000 0.000000 0.000000
# 3 -0.003014 0.000257 0.009622 0.000000 0.000000 0.000000
# 4 0.000000 0.000000 0.000000 0.043130 0.000000 0.000000
# 5 0.000000 0.000000 0.000000 0.000000 0.012202 0.000000
# 6 0.000000 0.000000 0.000000 0.000000 0.000000 -0.363071
#
#
# Mechanical properties :
#
#
# Convention : Reuss Voigt Hill
#
# Bulk Modulus (GPa) = 52.62207 52.93649 52.77928
# Shear Modulus (GPa) = -23.79636 32.81075 4.50719
#
# Velocity S-wave (km/s) = -3.37630 3.96455 1.46940
# Velocity P-wave (km/s) = 3.16368 6.80555 5.30680
#
# Compressibility (1/GPa) = 0.01900344
#
# Stress axis : x y z
#
# Youngs Moduli (GPa) = 39.34361 49.73416 103.93046
#
# Poissons Ratio (x) = 0.76165 0.31322
# Poissons Ratio (y) = 0.60252 -0.02671
# Poissons Ratio (z) = 0.11857 -0.01278
#
# Static dielectric constant tensor:
#      x y z
#    x 1.765080 0.000000 0.000000 
#    y 0.000000 1.591470 0.000000 
#    z 0.000000 0.000000 1.787340 
# 
# From -- ./inp_files/2493.got.cif
#   From: 2010.05.17/outbox.cif.g08.bks.cpg/sg20_2_cif.got.tgz:2493.got - 2010.06.03 22:52:26.
