data_PCOD9321571
_publ_section_title
;
Structure prediction by ZEFSAII (Michael W. Deem and Ramdas Pophale) SiO2 
 PCOD9321571
Probable space group: C 2 2 21
;
_chemical_formula_sum "Si O2"
_cell_formula_units_Z 40
_cell_length_a 8.565949
_cell_length_b 11.674405
_cell_length_c 17.498564
_cell_angle_alpha 90.000000
_cell_angle_beta 90.000000
_cell_angle_gamma 90.000000
_cell_volume 1749.897659
_symmetry_space_group_name_H-M "C 2 2 21"
_symmetry_group_IT_number 20
_symmetry_cell_setting 'orthorhombic'
loop_
_space_group_symop_operation_xyz
x,y,z
-x,-y,1/2+z
x,-y,-z
-x,y,1/2-z
1/2+x,1/2+y,z
1/2-x,1/2-y,1/2+z
1/2+x,1/2-y,-z
1/2-x,1/2+y,1/2-z
loop_
_atom_site_type_symbol
_atom_site_label
_atom_site_fract_x
_atom_site_fract_y
_atom_site_fract_z
Si Si1 0.713629 0.500000 0.500000
Si Si2 0.978565 0.229364 0.010190
Si Si3 0.270778 0.888969 0.948685
Si Si4 0.329816 0.325558 0.712158
Si Si5 0.500000 0.081491 0.250000
Si Si6 0.574291 0.103507 0.867448
O O1 0.608176 0.390355 0.518379
O O2 0.817065 0.459065 0.428946
O O3 0.965735 0.309891 0.084684
O O4 0.158369 0.195675 0.003236
O O5 0.923405 0.310031 0.941302
O O6 0.185734 0.897009 0.867429
O O7 0.295543 0.000000 0.000000
O O8 0.500000 0.349518 0.750000
O O9 0.166515 0.352847 0.755151
O O10 0.334176 0.191011 0.688180
O O11 0.511786 0.994284 0.321278
#
# Coordination Sequence:
#
# PCOD9321571 Si02
#       6
#     4   8   8   8   4   8
#     4  12  24  42  74 106 146 194 238 314 386 430
#     4  11  23  41  67 105 144 181 242 303 368 437
#     4  11  24  43  70 107 143 189 246 306 371 435
#     4  11  26  52  70 111 154 194 257 311 373 464
#     4  12  28  48  80 100 152 214 242 310 394 444
#     4  11  27  46  69 112 149 188 260 314 365 469
#
# _framework density 22.85848
#
# number of rings (size 3 to 8) (size 9 to 14) (size 15 to 20)
#    0.000    0.800    6.000    1.200    9.800    0.000 
#    1.800    0.000    0.000    0.000    0.000    0.000 
#    0.000    0.000    0.000    0.000    0.000    0.000 
#
# Total GULP energy -111670.814514 kJ/mol
# GULP energy per Si atom -5583.540726 kJ/mol
# Density = 2.280645 g / cm^3
# Si number density = 22.858480 Si / 1000 Ang^3
#
#
#
# Elastic Constant Matrix: (Units=GPa)
#
#
# Indices 1 2 3 4 5 6 
#
# 1 121.3448 58.6908 35.6925 0.0000 0.0000 0.0000
# 2 58.6908 140.8471 42.0713 0.0000 0.0000 0.0000
# 3 35.6925 42.0713 43.3457 0.0000 0.0000 0.0000
# 4 0.0000 0.0000 0.0000 40.9384 0.0000 0.0000
# 5 0.0000 0.0000 0.0000 0.0000 30.2877 0.0000
# 6 0.0000 0.0000 0.0000 0.0000 0.0000 53.0151
#
#
#
# Elastic Compliance Matrix: (Units=1/GPa)
#
#
# Indices 1 2 3 4 5 6 
#
# 1 0.011605 -0.002790 -0.006847 0.000000 0.000000 0.000000
# 2 -0.002790 0.010670 -0.008058 0.000000 0.000000 0.000000
# 3 -0.006847 -0.008058 0.036530 0.000000 0.000000 0.000000
# 4 0.000000 0.000000 0.000000 0.024427 0.000000 0.000000
# 5 0.000000 0.000000 0.000000 0.000000 0.033017 0.000000
# 6 0.000000 0.000000 0.000000 0.000000 0.000000 0.018863
#
#
# Mechanical properties :
#
#
# Convention : Reuss Voigt Hill
#
# Bulk Modulus (GPa) = 42.71246 64.27185 53.49216
# Shear Modulus (GPa) = 28.04151 36.12044 32.08098
#
# Velocity S-wave (km/s) = 3.50629 3.97946 3.75034
# Velocity P-wave (km/s) = 5.92607 7.02090 6.49659
#
# Compressibility (1/GPa) = 0.02341237
#
# Stress axis : x y z
#
# Youngs Moduli (GPa) = 86.17208 93.72377 27.37458
#
# Poissons Ratio (x) = 0.26152 0.18745
# Poissons Ratio (y) = 0.24045 0.22059
# Poissons Ratio (z) = 0.59006 0.75526
#
# Static dielectric constant tensor:
#      x y z
#    x 1.939230 0.000000 0.000000 
#    y 0.000000 1.840410 0.000000 
#    z 0.000000 0.000000 1.995360 
# 
# From -- ./inp_files/23205.got.cif
#   From: 2010.05.17/outbox.cif.g08.bks.cpg/sg20_12_cif.got.tgz:23205.got - 2010.06.03 22:52:26.
