data_PCOD9321105
_publ_section_title
;
Structure prediction by ZEFSAII (Michael W. Deem and Ramdas Pophale) SiO2 
 PCOD9321105
Probable space group: C 2 2 21
;
_chemical_formula_sum "Si O2"
_cell_formula_units_Z 36
_cell_length_a 5.024145
_cell_length_b 13.400053
_cell_length_c 22.824777
_cell_angle_alpha 90.000000
_cell_angle_beta 90.000000
_cell_angle_gamma 90.000000
_cell_volume 1536.650934
_symmetry_space_group_name_H-M "C 2 2 21"
_symmetry_group_IT_number 20
_symmetry_cell_setting 'orthorhombic'
loop_
_space_group_symop_operation_xyz
x,y,z
-x,-y,1/2+z
x,-y,-z
-x,y,1/2-z
1/2+x,1/2+y,z
1/2-x,1/2-y,1/2+z
1/2+x,1/2-y,-z
1/2-x,1/2+y,1/2-z
loop_
_atom_site_type_symbol
_atom_site_label
_atom_site_fract_x
_atom_site_fract_y
_atom_site_fract_z
Si Si1 0.737618 0.000000 0.000000
Si Si2 0.470995 0.591697 0.182360
Si Si3 0.603720 0.408851 0.100506
Si Si4 0.963910 0.724238 0.181766
Si Si5 0.541291 0.182113 0.510100
O O1 0.558678 0.912007 0.972087
O O2 0.922669 0.942615 0.045770
O O3 0.500000 0.559875 0.250000
O O4 0.580471 0.503481 0.142422
O O5 0.667239 0.684654 0.174259
O O6 0.174792 0.633878 0.171868
O O7 0.877684 0.371356 0.070945
O O8 0.195876 0.237954 0.012676
O O9 0.010787 0.813820 0.137463
O O10 0.000000 0.755105 0.250000
#
# Coordination Sequence:
#
# PCOD9321105 Si02
#       5
#     4   8   8   8   8
#     4  12  30  48  70 112 146 200 252 298 362 430
#     4  10  25  48  75 110 145 180 240 305 366 430
#     4  12  28  46  79 104 144 198 244 296 363 437
#     4  10  25  46  73 107 143 185 236 302 370 435
#     4  12  29  49  69 103 151 195 245 300 353 431
#
# _framework density 23.427572000000001
#
# number of rings (size 3 to 8) (size 9 to 14) (size 15 to 20)
#    0.000    0.889    2.222    1.333    9.333    1.778 
#    0.000    6.667    0.000    0.000    0.000    0.000 
#    0.000    0.000    0.000    0.000    0.000    0.000 
#
# Total GULP energy -100749.527483 kJ/mol
# GULP energy per Si atom -5597.195971 kJ/mol
# Density = 2.337425 g / cm^3
# Si number density = 23.427572 Si / 1000 Ang^3
#
#
#
# Elastic Constant Matrix: (Units=GPa)
#
#
# Indices 1 2 3 4 5 6 
#
# 1 112.5866 29.2297 23.3167 0.0000 0.0000 0.0000
# 2 29.2297 123.4633 65.4835 0.0000 0.0000 0.0000
# 3 23.3167 65.4835 108.1470 0.0000 0.0000 0.0000
# 4 0.0000 0.0000 0.0000 55.8320 0.0000 0.0000
# 5 0.0000 0.0000 0.0000 0.0000 21.6653 0.0000
# 6 0.0000 0.0000 0.0000 0.0000 0.0000 30.2939
#
#
#
# Elastic Compliance Matrix: (Units=1/GPa)
#
#
# Indices 1 2 3 4 5 6 
#
# 1 0.009539 -0.001720 -0.001015 0.000000 0.000000 0.000000
# 2 -0.001720 0.012241 -0.007041 0.000000 0.000000 0.000000
# 3 -0.001015 -0.007041 0.013729 0.000000 0.000000 0.000000
# 4 0.000000 0.000000 0.000000 0.017911 0.000000 0.000000
# 5 0.000000 0.000000 0.000000 0.000000 0.046157 0.000000
# 6 0.000000 0.000000 0.000000 0.000000 0.000000 0.033010
#
#
# Mechanical properties :
#
#
# Convention : Reuss Voigt Hill
#
# Bulk Modulus (GPa) = 62.67062 64.47294 63.57178
# Shear Modulus (GPa) = 31.75434 36.63604 34.19519
#
# Velocity S-wave (km/s) = 3.68560 3.95878 3.82463
# Velocity P-wave (km/s) = 6.70227 6.96246 6.83360
#
# Compressibility (1/GPa) = 0.01595644
#
# Stress axis : x y z
#
# Youngs Moduli (GPa) = 104.83494 81.68979 72.83755
#
# Poissons Ratio (x) = 0.14049 0.07395
# Poissons Ratio (y) = 0.18030 0.51288
# Poissons Ratio (z) = 0.10643 0.57521
#
# Static dielectric constant tensor:
#      x y z
#    x 1.887290 0.000000 0.000000 
#    y 0.000000 1.868540 0.000000 
#    z 0.000000 0.000000 1.924690 
# 
# From -- ./inp_files/28234.got.cif
#   From: 2010.05.17/outbox.cif.g08.bks.cpg/sg20_15_cif.got.tgz:28234.got - 2010.06.03 22:52:26.
