data_PCOD9321738
_publ_section_title
;
Structure prediction by ZEFSAII (Michael W. Deem and Ramdas Pophale) SiO2 
 PCOD9321738
Probable space group: C 2 2 21
;
_chemical_formula_sum "Si O2"
_cell_formula_units_Z 56
_cell_length_a 15.928594
_cell_length_b 8.491695
_cell_length_c 19.997982
_cell_angle_alpha 90.000000
_cell_angle_beta 90.000000
_cell_angle_gamma 90.000000
_cell_volume 2704.942284
_symmetry_space_group_name_H-M "C 2 2 21"
_symmetry_group_IT_number 20
_symmetry_cell_setting 'orthorhombic'
loop_
_space_group_symop_operation_xyz
x,y,z
-x,-y,1/2+z
x,-y,-z
-x,y,1/2-z
1/2+x,1/2+y,z
1/2-x,1/2-y,1/2+z
1/2+x,1/2-y,-z
1/2-x,1/2+y,1/2-z
loop_
_atom_site_type_symbol
_atom_site_label
_atom_site_fract_x
_atom_site_fract_y
_atom_site_fract_z
Si Si1 0.548406 0.842052 0.456021
Si Si2 0.004715 0.821437 0.343350
Si Si3 0.713401 0.751788 0.295909
Si Si4 0.721618 0.341106 0.545823
Si Si5 0.439839 0.034347 0.808918
Si Si6 0.366233 0.437184 0.240048
Si Si7 0.101113 0.823932 0.020441
O O1 0.636153 0.754389 0.471378
O O2 0.544279 0.884740 0.378993
O O3 0.464941 0.743249 0.468115
O O4 0.544869 0.000000 0.500000
O O5 0.035766 0.648159 0.320495
O O6 0.090342 0.919513 0.333099
O O7 0.937501 0.900337 0.294118
O O8 0.955866 0.815373 0.412624
O O9 0.725850 0.680601 0.371664
O O10 0.654757 0.908088 0.294997
O O11 0.669358 0.611611 0.255707
O O12 0.796896 0.807534 0.258399
O O13 0.715472 0.500000 0.500000
O O14 0.811775 0.268371 0.525640
O O15 0.500000 0.092493 0.750000
O O16 0.122561 0.000000 0.000000
#
# Coordination Sequence:
#
# PCOD9321738 Si02
#       7
#     8   8   8   8   8   8   8
#     4  11  24  44  74 101 139 184 235 300 363 424
#     4  11  24  45  71  99 145 184 232 296 346 421
#     4  11  26  45  72 103 140 189 236 295 360 425
#     4  11  26  48  69 102 139 185 243 297 357 430
#     4  11  24  44  72 101 138 184 237 288 353 420
#     4  11  24  44  68 103 140 182 234 289 352 420
#     4  12  26  45  71 103 141 188 238 290 361 429
#
# _framework density 20.702846000000001
#
# number of rings (size 3 to 8) (size 9 to 14) (size 15 to 20)
#    0.000    0.857    4.286    2.143    8.000    0.000 
#    2.571    0.000    0.000    0.000    0.000    0.000 
#    0.000    0.000    0.000    0.000    0.000    0.000 
#
# Total GULP energy -156114.436725 kJ/mol
# GULP energy per Si atom -5575.515597 kJ/mol
# Density = 2.065573 g / cm^3
# Si number density = 20.702846 Si / 1000 Ang^3
#
#
#
# Elastic Constant Matrix: (Units=GPa)
#
#
# Indices 1 2 3 4 5 6 
#
# 1 107.5749 32.2137 20.4228 0.0000 0.0000 0.0000
# 2 32.2137 87.1445 10.0048 0.0000 0.0000 0.0000
# 3 20.4228 10.0048 39.0413 0.0000 0.0000 0.0000
# 4 0.0000 0.0000 0.0000 11.2480 0.0000 0.0000
# 5 0.0000 0.0000 0.0000 0.0000 46.7938 0.0000
# 6 0.0000 0.0000 0.0000 0.0000 0.0000 40.8704
#
#
#
# Elastic Compliance Matrix: (Units=1/GPa)
#
#
# Indices 1 2 3 4 5 6 
#
# 1 0.011327 -0.003613 -0.004999 0.000000 0.000000 0.000000
# 2 -0.003613 0.012976 -0.001435 0.000000 0.000000 0.000000
# 3 -0.004999 -0.001435 0.028597 0.000000 0.000000 0.000000
# 4 0.000000 0.000000 0.000000 0.088905 0.000000 0.000000
# 5 0.000000 0.000000 0.000000 0.000000 0.021370 0.000000
# 6 0.000000 0.000000 0.000000 0.000000 0.000000 0.024468
#
#
# Mechanical properties :
#
#
# Convention : Reuss Voigt Hill
#
# Bulk Modulus (GPa) = 30.48382 39.89369 35.18876
# Shear Modulus (GPa) = 22.86535 31.19041 27.02788
#
# Velocity S-wave (km/s) = 3.32694 3.88567 3.61711
# Velocity P-wave (km/s) = 5.43272 6.28035 5.87185
#
# Compressibility (1/GPa) = 0.03280428
#
# Stress axis : x y z
#
# Youngs Moduli (GPa) = 88.28529 77.06788 34.96898
#
# Poissons Ratio (x) = 0.27846 0.17482
# Poissons Ratio (y) = 0.31899 0.05018
# Poissons Ratio (z) = 0.44136 0.11060
#
# Static dielectric constant tensor:
#      x y z
#    x 1.752880 0.000000 0.000000 
#    y 0.000000 1.782080 0.000000 
#    z 0.000000 0.000000 1.750030 
# 
# From -- ./inp_files/27550.got.cif
#   From: 2010.05.17/outbox.cif.g08.bks.cpg/sg20_14_cif.got.tgz:27550.got - 2010.06.03 22:52:26.
