data_PCOD9321612
_publ_section_title
;
Structure prediction by ZEFSAII (Michael W. Deem and Ramdas Pophale) SiO2 
 PCOD9321612
Probable space group: C 2 2 21
;
_chemical_formula_sum "Si O2"
_cell_formula_units_Z 60
_cell_length_a 7.359970
_cell_length_b 12.432852
_cell_length_c 28.985365
_cell_angle_alpha 90.000000
_cell_angle_beta 90.000000
_cell_angle_gamma 90.000000
_cell_volume 2652.317933
_symmetry_space_group_name_H-M "C 2 2 21"
_symmetry_group_IT_number 20
_symmetry_cell_setting 'orthorhombic'
loop_
_space_group_symop_operation_xyz
x,y,z
-x,-y,1/2+z
x,-y,-z
-x,y,1/2-z
1/2+x,1/2+y,z
1/2-x,1/2-y,1/2+z
1/2+x,1/2-y,-z
1/2-x,1/2+y,1/2-z
loop_
_atom_site_type_symbol
_atom_site_label
_atom_site_fract_x
_atom_site_fract_y
_atom_site_fract_z
Si Si1 0.001233 0.391132 0.177594
Si Si2 0.688563 0.127538 0.919254
Si Si3 0.989959 0.995846 0.371506
Si Si4 0.525816 0.877759 0.679104
Si Si5 0.398976 0.652735 0.797355
Si Si6 0.169539 0.372718 0.582537
Si Si7 0.495392 0.000000 0.500000
Si Si8 0.120830 0.159365 0.294105
O O1 0.042004 0.378291 0.122808
O O2 0.904036 0.503069 0.188822
O O3 0.204748 0.403576 0.198546
O O4 0.911620 0.285593 0.197642
O O5 0.755593 0.251082 0.922003
O O6 0.613555 0.080464 0.966584
O O7 0.851951 0.047893 0.904619
O O8 0.822101 0.045103 0.398553
O O9 0.053121 0.091174 0.337766
O O10 0.971147 0.892775 0.337644
O O11 0.647871 0.777377 0.693249
O O12 0.516444 0.870912 0.623172
O O13 0.337031 0.858681 0.705359
O O14 0.500000 0.638220 0.750000
O O15 0.103672 0.422611 0.534857
O O16 0.000000 0.126784 0.250000
#
# Coordination Sequence:
#
# PCOD9321612 Si02
#       8
#     8   8   8   8   8   8   4   8
#     4  11  23  44  64  97 139 184 227 282 348 409
#     4  11  24  49  71  99 140 177 226 291 359 422
#     4  11  23  44  74  94 143 188 218 283 359 410
#     4  12  24  42  70  97 137 189 230 285 358 402
#     4  11  23  44  66 101 143 182 239 291 330 413
#     4  12  26  48  71 104 136 181 232 290 364 430
#     4  12  28  46  74 104 132 168 238 298 340 448
#     4  12  24  42  69 103 142 190 240 284 333 407
#
# _framework density 22.621724
#
# number of rings (size 3 to 8) (size 9 to 14) (size 15 to 20)
#    0.000    0.533    8.000    1.200    1.867    3.200 
#    2.400    0.000    0.000    0.000    0.000    0.000 
#    0.000    0.000    0.000    0.000    0.000    0.000 
#
# Total GULP energy -167921.120156 kJ/mol
# GULP energy per Si atom -5597.370672 kJ/mol
# Density = 2.257024 g / cm^3
# Si number density = 22.621724 Si / 1000 Ang^3
#
#
#
# Elastic Constant Matrix: (Units=GPa)
#
#
# Indices 1 2 3 4 5 6 
#
# 1 62.9217 37.3098 31.9529 0.0000 0.0000 0.0000
# 2 37.3098 191.1937 48.7874 0.0000 0.0000 0.0000
# 3 31.9529 48.7874 136.2772 0.0000 0.0000 0.0000
# 4 0.0000 0.0000 0.0000 35.5317 0.0000 0.0000
# 5 0.0000 0.0000 0.0000 0.0000 34.4093 0.0000
# 6 0.0000 0.0000 0.0000 0.0000 0.0000 36.4571
#
#
#
# Elastic Compliance Matrix: (Units=1/GPa)
#
#
# Indices 1 2 3 4 5 6 
#
# 1 0.019388 -0.002887 -0.003512 0.000000 0.000000 0.000000
# 2 -0.002887 0.006186 -0.001538 0.000000 0.000000 0.000000
# 3 -0.003512 -0.001538 0.008712 0.000000 0.000000 0.000000
# 4 0.000000 0.000000 0.000000 0.028144 0.000000 0.000000
# 5 0.000000 0.000000 0.000000 0.000000 0.029062 0.000000
# 6 0.000000 0.000000 0.000000 0.000000 0.000000 0.027430
#
#
# Mechanical properties :
#
#
# Convention : Reuss Voigt Hill
#
# Bulk Modulus (GPa) = 54.31235 69.61030 61.96133
# Shear Modulus (GPa) = 35.47768 39.43578 37.45673
#
# Velocity S-wave (km/s) = 3.96447 4.17978 4.07355
# Velocity P-wave (km/s) = 6.70948 7.35747 7.04093
#
# Compressibility (1/GPa) = 0.01841202
#
# Stress axis : x y z
#
# Youngs Moduli (GPa) = 51.57718 161.65321 114.78404
#
# Poissons Ratio (x) = 0.46673 0.40316
# Poissons Ratio (y) = 0.14891 0.17650
# Poissons Ratio (z) = 0.18116 0.24857
#
# Static dielectric constant tensor:
#      x y z
#    x 1.874370 0.000000 0.000000 
#    y 0.000000 1.847140 0.000000 
#    z 0.000000 0.000000 1.825210 
# 
# From -- ./inp_files/30167.got.cif
#   From: 2010.05.17/outbox.cif.g08.bks.cpg/sg20_16_cif.got.tgz:30167.got - 2010.06.03 22:52:26.
