data_PCOD9321775
_publ_section_title
;
Structure prediction by ZEFSAII (Michael W. Deem and Ramdas Pophale) SiO2 
 PCOD9321775
Probable space group: C 2 2 21
;
_chemical_formula_sum "Si O2"
_cell_formula_units_Z 56
_cell_length_a 4.824197
_cell_length_b 14.270128
_cell_length_c 29.216565
_cell_angle_alpha 90.000000
_cell_angle_beta 90.000000
_cell_angle_gamma 90.000000
_cell_volume 2011.324100
_symmetry_space_group_name_H-M "C 2 2 21"
_symmetry_group_IT_number 20
_symmetry_cell_setting 'orthorhombic'
loop_
_space_group_symop_operation_xyz
x,y,z
-x,-y,1/2+z
x,-y,-z
-x,y,1/2-z
1/2+x,1/2+y,z
1/2-x,1/2-y,1/2+z
1/2+x,1/2-y,-z
1/2-x,1/2+y,1/2-z
loop_
_atom_site_type_symbol
_atom_site_label
_atom_site_fract_x
_atom_site_fract_y
_atom_site_fract_z
Si Si1 0.322556 0.631087 0.133167
Si Si2 0.000000 0.755467 0.750000
Si Si3 0.820378 0.596498 0.193372
Si Si4 0.893630 0.451697 0.414942
Si Si5 0.752474 0.385948 0.174888
Si Si6 0.407716 0.702429 0.475707
Si Si7 0.224731 0.000000 0.000000
Si Si8 0.936678 0.210332 0.895582
O O1 0.635328 0.625568 0.149509
O O2 0.236348 0.548235 0.100486
O O3 0.204670 0.725612 0.111760
O O4 0.136487 0.608591 0.178304
O O5 0.774638 0.826879 0.729420
O O6 0.884031 0.689095 0.790519
O O7 0.744070 0.487043 0.200493
O O8 0.635782 0.383121 0.423577
O O9 0.074385 0.410111 0.372014
O O10 0.079291 0.465345 0.458842
O O11 0.464243 0.341254 0.155423
O O12 0.190558 0.743664 0.513105
O O13 0.268286 0.724738 0.426594
O O14 0.433877 0.591374 0.481864
#
# Coordination Sequence:
#
# PCOD9321775 Si02
#       8
#     8   4   8   8   8   8   4   8
#     4  11  24  46  74 106 149 197 251 310 388 456
#     4  12  26  52  78 114 156 206 258 336 410 478
#     4  11  26  48  74 111 146 194 254 312 384 475
#     4  11  24  47  75 111 155 210 261 327 392 479
#     4  11  26  49  78 110 156 204 266 330 402 486
#     4  12  28  47  73 114 155 204 267 323 390 471
#     4  12  24  50  74 118 162 212 268 332 394 470
#     4  12  23  45  75 105 151 206 252 322 394 465
#
# _framework density 27.842354
#
# number of rings (size 3 to 8) (size 9 to 14) (size 15 to 20)
#    0.000    0.571    5.714    1.714    0.000    3.429 
#    7.714    0.000    0.000    0.000    0.000    0.000 
#    0.000    0.000    0.000    0.000    0.000    0.000 
#
# Total GULP energy -156772.260978 kJ/mol
# GULP energy per Si atom -5599.009321 kJ/mol
# Density = 2.777898 g / cm^3
# Si number density = 27.842354 Si / 1000 Ang^3
#
#
#
# Elastic Constant Matrix: (Units=GPa)
#
#
# Indices 1 2 3 4 5 6 
#
# 1 65.4011 27.9324 41.5217 0.0000 0.0000 0.0000
# 2 27.9324 239.1504 82.4571 0.0000 0.0000 0.0000
# 3 41.5217 82.4571 161.0470 0.0000 0.0000 0.0000
# 4 0.0000 0.0000 0.0000 51.7474 0.0000 0.0000
# 5 0.0000 0.0000 0.0000 0.0000 57.2605 0.0000
# 6 0.0000 0.0000 0.0000 0.0000 0.0000 16.2658
#
#
#
# Elastic Compliance Matrix: (Units=1/GPa)
#
#
# Indices 1 2 3 4 5 6 
#
# 1 0.018359 -0.000622 -0.004415 0.000000 0.000000 0.000000
# 2 -0.000622 0.005099 -0.002450 0.000000 0.000000 0.000000
# 3 -0.004415 -0.002450 0.008602 0.000000 0.000000 0.000000
# 4 0.000000 0.000000 0.000000 0.019325 0.000000 0.000000
# 5 0.000000 0.000000 0.000000 0.000000 0.017464 0.000000
# 6 0.000000 0.000000 0.000000 0.000000 0.000000 0.061479
#
#
# Mechanical properties :
#
#
# Convention : Reuss Voigt Hill
#
# Bulk Modulus (GPa) = 58.52904 85.49122 72.01013
# Shear Modulus (GPa) = 33.11320 45.96721 39.54020
#
# Velocity S-wave (km/s) = 3.45238 4.06764 3.77257
# Velocity P-wave (km/s) = 6.07940 7.26863 6.70045
#
# Compressibility (1/GPa) = 0.01708553
#
# Stress axis : x y z
#
# Youngs Moduli (GPa) = 54.46968 196.11775 116.24942
#
# Poissons Ratio (x) = 0.12200 0.51322
# Poissons Ratio (y) = 0.03388 0.28485
# Poissons Ratio (z) = 0.24047 0.48055
#
# Static dielectric constant tensor:
#      x y z
#    x 2.156030 0.000000 0.000000 
#    y 0.000000 2.178040 0.000000 
#    z 0.000000 0.000000 2.238660 
# 
# From -- ./inp_files/30760.got.cif
#   From: 2010.05.17/outbox.cif.g08.bks.cpg/sg20_16_cif.got.tgz:30760.got - 2010.06.03 22:52:26.
