data_PCOD9321598
_publ_section_title
;
Structure prediction by ZEFSAII (Michael W. Deem and Ramdas Pophale) SiO2 
 PCOD9321598
Probable space group: C 2 2 21
;
_chemical_formula_sum "Si O2"
_cell_formula_units_Z 64
_cell_length_a 13.946432
_cell_length_b 14.366652
_cell_length_c 16.848138
_cell_angle_alpha 90.000000
_cell_angle_beta 90.000000
_cell_angle_gamma 90.000000
_cell_volume 3375.752491
_symmetry_space_group_name_H-M "C 2 2 21"
_symmetry_group_IT_number 20
_symmetry_cell_setting 'orthorhombic'
loop_
_space_group_symop_operation_xyz
x,y,z
-x,-y,1/2+z
x,-y,-z
-x,y,1/2-z
1/2+x,1/2+y,z
1/2-x,1/2-y,1/2+z
1/2+x,1/2-y,-z
1/2-x,1/2+y,1/2-z
loop_
_atom_site_type_symbol
_atom_site_label
_atom_site_fract_x
_atom_site_fract_y
_atom_site_fract_z
Si Si1 0.552398 0.190719 0.675279
Si Si2 0.701340 0.548111 0.186274
Si Si3 0.934536 0.832283 0.574843
Si Si4 0.278437 0.754009 0.533969
Si Si5 0.738460 0.774685 0.787058
Si Si6 0.835868 0.567364 0.928077
Si Si7 0.394940 0.615802 0.784667
Si Si8 0.883362 0.103027 0.973564
O O1 0.500000 0.147306 0.750000
O O2 0.489039 0.274813 0.642726
O O3 0.655983 0.230495 0.699934
O O4 0.570973 0.116787 0.606803
O O5 0.630945 0.591652 0.119395
O O6 0.747031 0.631625 0.237219
O O7 0.781668 0.488947 0.140690
O O8 0.644509 0.478364 0.243969
O O9 0.867728 0.762553 0.523987
O O10 0.016585 0.874641 0.518327
O O11 0.302049 0.787388 0.623509
O O12 0.232992 0.651023 0.543693
O O13 0.197064 0.822084 0.499274
O O14 0.674005 0.700418 0.740739
O O15 0.856560 0.500000 0.000000
O O16 0.500000 0.633685 0.750000
O O17 0.397481 0.606262 0.879282
O O18 0.852561 0.000000 0.000000
#
# Coordination Sequence:
#
# PCOD9321598 Si02
#       8
#     8   8   8   8   8   8   8   8
#     4  11  23  43  69  97 134 176 228 275 333 405
#     4  12  24  41  72  99 127 177 232 270 330 408
#     4  12  24  41  72  99 127 177 232 270 330 408
#     4  11  23  44  66  97 136 170 219 283 335 392
#     4  11  23  44  66  97 136 170 219 283 335 392
#     4  11  23  43  69  97 134 176 228 275 333 405
#     4  12  26  41  65 100 138 170 214 278 343 392
#     4  12  26  41  65 100 138 170 214 278 343 392
#
# _framework density 18.958736999999999
#
# number of rings (size 3 to 8) (size 9 to 14) (size 15 to 20)
#    0.000    0.500    7.500    3.000    3.500    0.000 
#    0.000    2.500    0.000    0.000    0.000    0.000 
#    0.000    0.000    0.000    0.000    0.000    0.000 
#
# Total GULP energy -178919.673280 kJ/mol
# GULP energy per Si atom -5591.239790 kJ/mol
# Density = 1.891559 g / cm^3
# Si number density = 18.958737 Si / 1000 Ang^3
#
#
#
# Elastic Constant Matrix: (Units=GPa)
#
#
# Indices 1 2 3 4 5 6 
#
# 1 39.0062 34.6201 5.6277 0.0000 0.0000 0.0000
# 2 34.6201 102.5475 27.8020 0.0000 0.0000 0.0000
# 3 5.6277 27.8020 93.5005 0.0000 0.0000 0.0000
# 4 0.0000 0.0000 0.0000 44.1925 0.0000 0.0000
# 5 0.0000 0.0000 0.0000 0.0000 32.6082 0.0000
# 6 0.0000 0.0000 0.0000 0.0000 0.0000 -23.7725
#
#
#
# Elastic Compliance Matrix: (Units=1/GPa)
#
#
# Indices 1 2 3 4 5 6 
#
# 1 0.036827 -0.012869 0.001610 0.000000 0.000000 0.000000
# 2 -0.012869 0.015104 -0.003716 0.000000 0.000000 0.000000
# 3 0.001610 -0.003716 0.011703 0.000000 0.000000 0.000000
# 4 0.000000 0.000000 0.000000 0.022628 0.000000 0.000000
# 5 0.000000 0.000000 0.000000 0.000000 0.030667 0.000000
# 6 0.000000 0.000000 0.000000 0.000000 0.000000 -0.042065
#
#
# Mechanical properties :
#
#
# Convention : Reuss Voigt Hill
#
# Bulk Modulus (GPa) = 29.68891 41.23931 35.46411
# Shear Modulus (GPa) = 43.08752 21.73928 32.41340
#
# Velocity S-wave (km/s) = 4.77246 3.38991 4.13931
# Velocity P-wave (km/s) = 6.78691 6.09273 6.44917
#
# Compressibility (1/GPa) = 0.03368261
#
# Stress axis : x y z
#
# Youngs Moduli (GPa) = 27.15408 66.20831 85.44598
#
# Poissons Ratio (x) = 0.85205 -0.13757
# Poissons Ratio (y) = 0.34945 0.31756
# Poissons Ratio (z) = -0.04372 0.24606
#
# Static dielectric constant tensor:
#      x y z
#    x 1.640930 0.000000 0.000000 
#    y 0.000000 1.634820 0.000000 
#    z 0.000000 0.000000 1.671590 
# 
# From -- ./inp_files/24996.got.cif
#   From: 2010.05.17/outbox.cif.g08.bks.cpg/sg20_13_cif.got.tgz:24996.got - 2010.06.03 22:52:26.
