data_PCOD9321209
_publ_section_title
;
Structure prediction by ZEFSAII (Michael W. Deem and Ramdas Pophale) SiO2 
 PCOD9321209
Probable space group: C 2 2 21
;
_chemical_formula_sum "Si O2"
_cell_formula_units_Z 60
_cell_length_a 8.204892
_cell_length_b 11.244967
_cell_length_c 28.067999
_cell_angle_alpha 90.000000
_cell_angle_beta 90.000000
_cell_angle_gamma 90.000000
_cell_volume 2589.658556
_symmetry_space_group_name_H-M "C 2 2 21"
_symmetry_group_IT_number 20
_symmetry_cell_setting 'orthorhombic'
loop_
_space_group_symop_operation_xyz
x,y,z
-x,-y,1/2+z
x,-y,-z
-x,y,1/2-z
1/2+x,1/2+y,z
1/2-x,1/2-y,1/2+z
1/2+x,1/2-y,-z
1/2-x,1/2+y,1/2-z
loop_
_atom_site_type_symbol
_atom_site_label
_atom_site_fract_x
_atom_site_fract_y
_atom_site_fract_z
Si Si1 0.798146 0.746234 0.014540
Si Si2 0.580024 0.133593 0.057785
Si Si3 0.859872 0.337121 0.168683
Si Si4 0.487689 0.280592 0.150395
Si Si5 0.559442 0.678885 0.098851
Si Si6 0.338169 0.546752 0.921501
Si Si7 0.783851 0.405036 0.813450
Si Si8 0.500000 0.665002 0.250000
O O1 0.657398 0.722721 0.053188
O O2 0.928908 0.642340 0.021402
O O3 0.883374 0.866165 0.035124
O O4 0.716259 0.778792 0.965091
O O5 0.522475 0.186665 0.107835
O O6 0.661448 0.006826 0.066808
O O7 0.664380 0.330238 0.162938
O O8 0.952760 0.283153 0.122933
O O9 0.887058 0.475299 0.180281
O O10 0.921687 0.250389 0.210246
O O11 0.367440 0.377918 0.126738
O O12 0.401059 0.208748 0.192399
O O13 0.450651 0.567277 0.084260
O O14 0.684555 0.628135 0.138394
O O15 0.645742 0.411113 0.773053
#
# Coordination Sequence:
#
# PCOD9321209 Si02
#       8
#     8   8   8   8   8   8   8   4
#     4  11  25  42  63  98 141 185 239 288 337 395
#     4  11  23  41  64  97 138 187 233 289 334 390
#     4  11  25  45  74 102 137 180 215 285 347 413
#     4  11  24  42  71 102 134 184 231 275 344 413
#     4  11  22  41  71 100 136 178 235 278 336 410
#     4  11  22  42  64  99 136 182 229 287 329 396
#     4  11  24  47  71 102 134 174 225 278 345 419
#     4  10  28  46  68 112 134 166 224 282 346 426
#
# _framework density 23.169077000000001
#
# number of rings (size 3 to 8) (size 9 to 14) (size 15 to 20)
#    0.000    1.067    5.333    1.200    1.867    3.733 
#    0.000    2.667    0.000    0.000    0.000    0.000 
#    0.000    0.000    0.000    0.000    0.000    0.000 
#
# Total GULP energy -167785.558023 kJ/mol
# GULP energy per Si atom -5592.851934 kJ/mol
# Density = 2.311634 g / cm^3
# Si number density = 23.169077 Si / 1000 Ang^3
#
#
#
# Elastic Constant Matrix: (Units=GPa)
#
#
# Indices 1 2 3 4 5 6 
#
# 1 83.1769 44.2531 15.9557 0.0000 0.0000 0.0000
# 2 44.2531 113.2169 10.1769 0.0000 0.0000 0.0000
# 3 15.9557 10.1769 52.0902 0.0000 0.0000 0.0000
# 4 0.0000 0.0000 0.0000 22.4812 0.0000 0.0000
# 5 0.0000 0.0000 0.0000 0.0000 44.6173 0.0000
# 6 0.0000 0.0000 0.0000 0.0000 0.0000 41.0421
#
#
#
# Elastic Compliance Matrix: (Units=1/GPa)
#
#
# Indices 1 2 3 4 5 6 
#
# 1 0.015854 -0.005863 -0.003711 0.000000 0.000000 0.000000
# 2 -0.005863 0.011159 -0.000384 0.000000 0.000000 0.000000
# 3 -0.003711 -0.000384 0.020409 0.000000 0.000000 0.000000
# 4 0.000000 0.000000 0.000000 0.044482 0.000000 0.000000
# 5 0.000000 0.000000 0.000000 0.000000 0.022413 0.000000
# 6 0.000000 0.000000 0.000000 0.000000 0.000000 0.024365
#
#
# Mechanical properties :
#
#
# Convention : Reuss Voigt Hill
#
# Bulk Modulus (GPa) = 36.35607 43.25062 39.80334
# Shear Modulus (GPa) = 29.80336 33.50134 31.65235
#
# Velocity S-wave (km/s) = 3.59045 3.80669 3.70015
# Velocity P-wave (km/s) = 5.73709 6.16677 5.95581
#
# Compressibility (1/GPa) = 0.02750572
#
# Stress axis : x y z
#
# Youngs Moduli (GPa) = 63.07619 89.61456 48.99764
#
# Poissons Ratio (x) = 0.52543 0.18181
# Poissons Ratio (y) = 0.36983 0.01882
# Poissons Ratio (z) = 0.23406 0.03443
#
# Static dielectric constant tensor:
#      x y z
#    x 1.936980 0.000000 0.000000 
#    y 0.000000 1.853830 0.000000 
#    z 0.000000 0.000000 1.858250 
# 
# From -- ./inp_files/31036.got.cif
#   From: 2010.05.17/outbox.cif.g08.bks.cpg/sg20_16_cif.got.tgz:31036.got - 2010.06.03 22:52:26.
