data_PCOD9321268
_publ_section_title
;
Structure prediction by ZEFSAII (Michael W. Deem and Ramdas Pophale) SiO2 
 PCOD9321268
Probable space group: C 2 2 21
;
_chemical_formula_sum "Si O2"
_cell_formula_units_Z 64
_cell_length_a 20.167273
_cell_length_b 16.547380
_cell_length_c 9.929006
_cell_angle_alpha 90.000000
_cell_angle_beta 90.000000
_cell_angle_gamma 90.000000
_cell_volume 3313.463499
_symmetry_space_group_name_H-M "C 2 2 21"
_symmetry_group_IT_number 20
_symmetry_cell_setting 'orthorhombic'
loop_
_space_group_symop_operation_xyz
x,y,z
-x,-y,1/2+z
x,-y,-z
-x,y,1/2-z
1/2+x,1/2+y,z
1/2-x,1/2-y,1/2+z
1/2+x,1/2-y,-z
1/2-x,1/2+y,1/2-z
loop_
_atom_site_type_symbol
_atom_site_label
_atom_site_fract_x
_atom_site_fract_y
_atom_site_fract_z
Si Si1 0.300588 0.203462 0.874391
Si Si2 0.699411 0.296539 0.874391
Si Si3 0.576051 0.111548 0.252187
Si Si4 0.923949 0.111548 0.747812
Si Si5 0.576250 0.747358 0.527703
Si Si6 0.174963 0.520871 0.658175
Si Si7 0.923750 0.747357 0.472298
Si Si8 0.825037 0.979129 0.658175
O O1 0.266996 0.250000 0.750000
O O2 0.328326 0.116780 0.829216
O O3 0.249999 0.193178 1.000000
O O4 0.365015 0.252672 0.921484
O O5 0.915744 0.330062 0.624191
O O6 0.671673 0.383221 0.829216
O O7 0.634984 0.247328 0.921483
O O8 0.500000 0.083201 0.250000
O O9 0.585256 0.172174 0.379541
O O10 0.624870 0.036272 0.262169
O O11 0.915744 0.169939 0.875808
O O12 0.914745 0.172174 0.620458
O O13 0.000000 0.083201 0.750000
O O14 0.875130 0.036273 0.737830
O O15 0.500000 0.750000 0.477924
O O16 0.165922 0.500000 0.500000
O O17 0.250000 0.500000 0.696258
O O18 0.834078 0.000000 0.500000
#
# Coordination Sequence:
#
# PCOD9321268 Si02
#       8
#     8   8   8   8   8   8   8   8
#     4  12  26  41  64  93 123 167 207 261 314 370
#     4  12  26  41  64  93 123 167 207 261 314 370
#     4   9  18  36  65  94 121 163 208 251 302 372
#     4   9  18  36  65  94 121 163 208 251 302 372
#     4   9  19  38  64  91 123 163 206 249 308 373
#     4  11  20  38  63  91 118 162 212 253 304 373
#     4   9  19  38  64  91 123 163 206 249 308 373
#     4  11  20  38  63  91 118 162 212 253 304 373
#
# _framework density 19.315137
#
# number of rings (size 3 to 8) (size 9 to 14) (size 15 to 20)
#    0.000    1.750    5.000    1.500    7.000    0.500 
#    4.500    1.250    0.000    0.000    0.000    0.000 
#    0.000    0.000    0.000    0.000    0.000    0.000 
#
# Total GULP energy -178617.233139 kJ/mol
# GULP energy per Si atom -5581.788536 kJ/mol
# Density = 1.927117 g / cm^3
# Si number density = 19.315137 Si / 1000 Ang^3
#
#
#
# Elastic Constant Matrix: (Units=GPa)
#
#
# Indices 1 2 3 4 5 6 
#
# 1 107.4414 55.2986 35.3165 0.0000 0.0000 0.0000
# 2 55.2986 117.8897 31.5756 0.0000 0.0000 0.0000
# 3 35.3165 31.5756 38.3845 0.0000 0.0000 0.0000
# 4 0.0000 0.0000 0.0000 14.9368 0.0000 0.0000
# 5 0.0000 0.0000 0.0000 0.0000 25.3419 0.0000
# 6 0.0000 0.0000 0.0000 0.0000 0.0000 35.6167
#
#
#
# Elastic Compliance Matrix: (Units=1/GPa)
#
#
# Indices 1 2 3 4 5 6 
#
# 1 0.014825 -0.004233 -0.010158 0.000000 0.000000 0.000000
# 2 -0.004233 0.012088 -0.006049 0.000000 0.000000 0.000000
# 3 -0.010158 -0.006049 0.040374 0.000000 0.000000 0.000000
# 4 0.000000 0.000000 0.000000 0.066949 0.000000 0.000000
# 5 0.000000 0.000000 0.000000 0.000000 0.039460 0.000000
# 6 0.000000 0.000000 0.000000 0.000000 0.000000 0.028077
#
#
# Mechanical properties :
#
#
# Convention : Reuss Voigt Hill
#
# Bulk Modulus (GPa) = 37.86843 56.45520 47.16181
# Shear Modulus (GPa) = 19.88417 24.61410 22.24913
#
# Velocity S-wave (km/s) = 3.21200 3.57367 3.39765
# Velocity P-wave (km/s) = 5.77963 6.80588 6.31364
#
# Compressibility (1/GPa) = 0.02640722
#
# Stress axis : x y z
#
# Youngs Moduli (GPa) = 67.45285 82.72362 24.76836
#
# Poissons Ratio (x) = 0.35020 0.25159
# Poissons Ratio (y) = 0.28555 0.14983
# Poissons Ratio (z) = 0.68517 0.50040
#
# Static dielectric constant tensor:
#      x y z
#    x 1.671390 0.000000 0.000000 
#    y 0.000000 1.714730 0.000000 
#    z 0.000000 0.000000 1.709220 
# 
# From -- ./inp_files/15352.got.cif
#   From: 2010.05.17/outbox.cif.g08.bks.cpg/sg20_8_cif.got.tgz:15352.got - 2010.06.03 22:52:26.
