data_PCOD9321578
_publ_section_title
;
Structure prediction by ZEFSAII (Michael W. Deem and Ramdas Pophale) SiO2 
 PCOD9321578
Probable space group: C 2 2 21
;
_chemical_formula_sum "Si O2"
_cell_formula_units_Z 40
_cell_length_a 17.043302
_cell_length_b 8.794460
_cell_length_c 10.899527
_cell_angle_alpha 90.000000
_cell_angle_beta 90.000000
_cell_angle_gamma 90.000000
_cell_volume 1633.693455
_symmetry_space_group_name_H-M "C 2 2 21"
_symmetry_group_IT_number 20
_symmetry_cell_setting 'orthorhombic'
loop_
_space_group_symop_operation_xyz
x,y,z
-x,-y,1/2+z
x,-y,-z
-x,y,1/2-z
1/2+x,1/2+y,z
1/2-x,1/2-y,1/2+z
1/2+x,1/2-y,-z
1/2-x,1/2+y,1/2-z
loop_
_atom_site_type_symbol
_atom_site_label
_atom_site_fract_x
_atom_site_fract_y
_atom_site_fract_z
Si Si1 0.090297 0.356943 0.090654
Si Si2 0.075825 0.240936 0.699963
Si Si3 0.916718 0.256968 0.079163
Si Si4 0.189964 0.485579 0.311173
Si Si5 0.872925 0.946763 0.687153
O O1 0.154468 0.398923 0.193301
O O2 0.108561 0.174268 0.079429
O O3 0.996573 0.346697 0.112477
O O4 0.099533 0.500000 0.000000
O O5 0.070715 0.194327 0.557512
O O6 0.150000 0.350530 0.700538
O O7 0.000000 0.330703 0.750000
O O8 0.082492 0.105356 0.797199
O O9 0.844922 0.376775 0.082871
O O10 0.898162 0.136043 0.184868
O O11 0.281998 0.508632 0.314251
#
# Coordination Sequence:
#
# PCOD9321578 Si02
#       5
#     8   8   8   8   8
#     4  11  23  45  71  95 132 187 241 286 354 446
#     4  12  23  41  67  99 135 180 241 301 354 420
#     4  11  23  44  70  97 137 192 237 287 357 438
#     4  11  23  42  66  98 140 183 232 292 363 441
#     4  11  25  42  66 101 141 178 231 306 370 425
#
# _framework density 24.484397000000001
#
# number of rings (size 3 to 8) (size 9 to 14) (size 15 to 20)
#    0.000    0.800    0.000   10.800    0.000    3.200 
#    0.000   11.000    0.000    0.000    0.000    0.000 
#    0.000    0.000    0.000    0.000    0.000    0.000 
#
# Total GULP energy -111658.705631 kJ/mol
# GULP energy per Si atom -5582.935282 kJ/mol
# Density = 2.442867 g / cm^3
# Si number density = 24.484397 Si / 1000 Ang^3
#
#
#
# Elastic Constant Matrix: (Units=GPa)
#
#
# Indices 1 2 3 4 5 6 
#
# 1 162.0784 27.8515 33.0586 0.0000 0.0000 0.0000
# 2 27.8515 127.3651 42.5328 0.0000 0.0000 0.0000
# 3 33.0586 42.5328 107.2329 0.0000 0.0000 0.0000
# 4 0.0000 0.0000 0.0000 43.6811 0.0000 0.0000
# 5 0.0000 0.0000 0.0000 0.0000 -35.8261 0.0000
# 6 0.0000 0.0000 0.0000 0.0000 0.0000**********
#
#
#
# Elastic Compliance Matrix: (Units=1/GPa)
#
#
# Indices 1 2 3 4 5 6 
#
# 1 0.006670 -0.000890 -0.001703 0.000000 0.000000 0.000000
# 2 -0.000890 0.009169 -0.003362 0.000000 0.000000 0.000000
# 3 -0.001703 -0.003362 0.011184 0.000000 0.000000 0.000000
# 4 0.000000 0.000000 0.000000 0.022893 0.000000 0.000000
# 5 0.000000 0.000000 0.000000 0.000000 -0.027913 0.000000
# 6 0.000000 0.000000 0.000000 0.000000 0.000000 -0.000034
#
#
# Mechanical properties :
#
#
# Convention : Reuss Voigt Hill
#
# Bulk Modulus (GPa) = 66.17192 67.06246 66.61719
# Shear Modulus (GPa) = 128.47251 -5898.54440 -2885.03595
#
# Velocity S-wave (km/s) = 7.25156 -49.13587 -34.36385
# Velocity P-wave (km/s) = 9.85892 56.49479 39.33487
#
# Compressibility (1/GPa) = 0.01511215
#
# Stress axis : x y z
#
# Youngs Moduli (GPa) = 149.92072 109.06465 89.41095
#
# Poissons Ratio (x) = 0.09704 0.15231
# Poissons Ratio (y) = 0.13339 0.30064
# Poissons Ratio (z) = 0.25538 0.36672
#
# Static dielectric constant tensor:
#      x y z
#    x 1.854830 0.000000 0.000000 
#    y 0.000000 2.007310 0.000000 
#    z 0.000000 0.000000 35.292100 
# 
# From -- ./inp_files/15568.got.cif
#   From: 2010.05.17/outbox.cif.g08.bks.cpg/sg20_8_cif.got.tgz:15568.got - 2010.06.03 22:52:26.
