data_PCOD9321528
_publ_section_title
;
Structure prediction by ZEFSAII (Michael W. Deem and Ramdas Pophale) SiO2 
 PCOD9321528
Probable space group: C 2 2 21
;
_chemical_formula_sum "Si O2"
_cell_formula_units_Z 44
_cell_length_a 12.130578
_cell_length_b 8.044866
_cell_length_c 17.681867
_cell_angle_alpha 90.000000
_cell_angle_beta 90.000000
_cell_angle_gamma 90.000000
_cell_volume 1725.553500
_symmetry_space_group_name_H-M "C 2 2 21"
_symmetry_group_IT_number 20
_symmetry_cell_setting 'orthorhombic'
loop_
_space_group_symop_operation_xyz
x,y,z
-x,-y,1/2+z
x,-y,-z
-x,y,1/2-z
1/2+x,1/2+y,z
1/2-x,1/2-y,1/2+z
1/2+x,1/2-y,-z
1/2-x,1/2+y,1/2-z
loop_
_atom_site_type_symbol
_atom_site_label
_atom_site_fract_x
_atom_site_fract_y
_atom_site_fract_z
Si Si1 0.337542 0.456547 0.380672
Si Si2 0.876239 0.183231 0.780392
Si Si3 0.159380 0.421399 0.300142
Si Si4 0.507116 0.000000 0.500000
Si Si5 0.559271 0.348738 0.443724
Si Si6 0.076205 0.319539 0.141310
O O1 0.312477 0.402575 0.290669
O O2 0.210188 0.430604 0.390058
O O3 0.428972 0.348474 0.419659
O O4 0.384507 0.639515 0.386776
O O5 0.861624 0.380463 0.784181
O O6 0.000000 0.149249 0.750000
O O7 0.874850 0.120355 0.865906
O O8 0.158906 0.356937 0.210044
O O9 0.046680 0.321613 0.324512
O O10 0.571983 0.832476 0.522168
O O11 0.430676 0.947013 0.428008
O O12 0.579269 0.500000 0.500000
#
# Coordination Sequence:
#
# PCOD9321528 Si02
#       6
#     8   8   8   4   8   8
#     4   9  21  45  77 105 147 203 260 327 388 445
#     4   8  19  43  74 107 140 196 260 313 387 446
#     4   9  23  42  76 114 146 197 269 332 375 453
#     4  12  28  44  68 114 166 206 252 316 412 490
#     4  11  22  45  74 107 156 206 253 320 396 484
#     4  11  23  45  74 114 156 198 264 323 389 484
#
# _framework density 25.499064000000001
#
# number of rings (size 3 to 8) (size 9 to 14) (size 15 to 20)
#    1.091    1.091    1.818    0.000    7.636    2.909 
#   13.091    1.818    0.000    0.000    0.000    0.000 
#    0.000    0.000    0.000    0.000    0.000    0.000 
#
# Total GULP energy -122691.740956 kJ/mol
# GULP energy per Si atom -5576.897316 kJ/mol
# Density = 2.544103 g / cm^3
# Si number density = 25.499064 Si / 1000 Ang^3
#
#
#
# Elastic Constant Matrix: (Units=GPa)
#
#
# Indices 1 2 3 4 5 6 
#
# 1 80.5770 37.8478 34.3052 0.0000 0.0000 0.0000
# 2 37.8478 81.7403 47.7098 0.0000 0.0000 0.0000
# 3 34.3052 47.7098 140.3050 0.0000 0.0000 0.0000
# 4 0.0000 0.0000 0.0000 32.3781 0.0000 0.0000
# 5 0.0000 0.0000 0.0000 0.0000 43.1481 0.0000
# 6 0.0000 0.0000 0.0000 0.0000 0.0000 24.9487
#
#
#
# Elastic Compliance Matrix: (Units=1/GPa)
#
#
# Indices 1 2 3 4 5 6 
#
# 1 0.016201 -0.006474 -0.001760 0.000000 0.000000 0.000000
# 2 -0.006474 0.017851 -0.004487 0.000000 0.000000 0.000000
# 3 -0.001760 -0.004487 0.009083 0.000000 0.000000 0.000000
# 4 0.000000 0.000000 0.000000 0.030885 0.000000 0.000000
# 5 0.000000 0.000000 0.000000 0.000000 0.023176 0.000000
# 6 0.000000 0.000000 0.000000 0.000000 0.000000 0.040082
#
#
# Mechanical properties :
#
#
# Convention : Reuss Voigt Hill
#
# Bulk Modulus (GPa) = 56.52006 60.26091 58.39049
# Shear Modulus (GPa) = 29.65299 32.27897 30.96598
#
# Velocity S-wave (km/s) = 3.41384 3.56179 3.48860
# Velocity P-wave (km/s) = 6.14432 6.37174 6.25906
#
# Compressibility (1/GPa) = 0.01769283
#
# Stress axis : x y z
#
# Youngs Moduli (GPa) = 61.72590 56.02069 110.09180
#
# Poissons Ratio (x) = 0.36269 0.19372
# Poissons Ratio (y) = 0.39963 0.49398
# Poissons Ratio (z) = 0.10861 0.25136
#
# Static dielectric constant tensor:
#      x y z
#    x 2.313530 0.000000 0.000000 
#    y 0.000000 1.895520 0.000000 
#    z 0.000000 0.000000 2.280640 
# 
# From -- ./inp_files/24748.got.cif
#   From: 2010.05.17/outbox.cif.g08.bks.cpg/sg20_13_cif.got.tgz:24748.got - 2010.06.03 22:52:26.
