data_PCOD9321131
_publ_section_title
;
Structure prediction by ZEFSAII (Michael W. Deem and Ramdas Pophale) SiO2 
 PCOD9321131
Probable space group: C 2 2 21
;
_chemical_formula_sum "Si O2"
_cell_formula_units_Z 32
_cell_length_a 13.310785
_cell_length_b 5.035054
_cell_length_c 19.081049
_cell_angle_alpha 90.000000
_cell_angle_beta 90.000000
_cell_angle_gamma 90.000000
_cell_volume 1278.821850
_symmetry_space_group_name_H-M "C 2 2 21"
_symmetry_group_IT_number 20
_symmetry_cell_setting 'orthorhombic'
loop_
_space_group_symop_operation_xyz
x,y,z
-x,-y,1/2+z
x,-y,-z
-x,y,1/2-z
1/2+x,1/2+y,z
1/2-x,1/2-y,1/2+z
1/2+x,1/2-y,-z
1/2-x,1/2+y,1/2-z
loop_
_atom_site_type_symbol
_atom_site_label
_atom_site_fract_x
_atom_site_fract_y
_atom_site_fract_z
Si Si1 0.000000 0.452273 0.250000
Si Si2 0.810034 0.500000 0.000000
Si Si3 0.710606 0.181917 0.212911
Si Si4 0.979937 0.000000 0.500000
Si Si5 0.612760 0.300542 0.620296
Si Si6 0.333429 0.000000 0.500000
O O1 0.907501 0.620657 0.283345
O O2 0.948445 0.275325 0.189877
O O3 0.870563 0.549899 0.929336
O O4 0.748717 0.766615 0.016342
O O5 0.737122 0.486009 0.230255
O O6 0.774098 0.113696 0.143322
O O7 0.916056 0.265218 0.514579
O O8 0.046180 0.023851 0.430105
#
# Coordination Sequence:
#
# PCOD9321131 Si02
#       6
#     4   4   8   4   8   4
#     4  10  26  54  86 116 170 216 274 326 430 486
#     4  11  25  48  80 120 168 210 282 350 410 494
#     4  10  25  50  79 113 157 207 263 331 403 488
#     4  11  25  48  82 120 164 216 286 340 414 494
#     4  11  26  52  85 120 165 215 282 344 411 493
#     4  10  26  50  74 118 164 220 262 348 424 484
#
# _framework density 25.023031
#
# number of rings (size 3 to 8) (size 9 to 14) (size 15 to 20)
#    0.000    1.500    0.000    1.500    3.500   16.000 
#   31.500    0.000    0.000    0.000    0.000    0.000 
#    0.000    0.000    0.000    0.000    0.000    0.000 
#
# Total GULP energy -89092.741293 kJ/mol
# GULP energy per Si atom -5568.296331 kJ/mol
# Density = 2.496608 g / cm^3
# Si number density = 25.023031 Si / 1000 Ang^3
#
#
#
# Elastic Constant Matrix: (Units=GPa)
#
#
# Indices 1 2 3 4 5 6 
#
# 1 179.7814 78.1559 55.7065 0.0000 0.0000 0.0000
# 2 78.1559 161.4621 34.3732 0.0000 0.0000 0.0000
# 3 55.7065 34.3732 142.0898 0.0000 0.0000 0.0000
# 4 0.0000 0.0000 0.0000 36.8374 0.0000 0.0000
# 5 0.0000 0.0000 0.0000 0.0000-1102.2335 0.0000
# 6 0.0000 0.0000 0.0000 0.0000 0.0000 79.6520
#
#
#
# Elastic Compliance Matrix: (Units=1/GPa)
#
#
# Indices 1 2 3 4 5 6 
#
# 1 0.007656 -0.003233 -0.002219 0.000000 0.000000 0.000000
# 2 -0.003233 0.007895 -0.000642 0.000000 0.000000 0.000000
# 3 -0.002219 -0.000642 0.008063 0.000000 0.000000 0.000000
# 4 0.000000 0.000000 0.000000 0.027146 0.000000 0.000000
# 5 0.000000 0.000000 0.000000 0.000000 -0.000907 0.000000
# 6 0.000000 0.000000 0.000000 0.000000 0.000000 0.012555
#
#
# Mechanical properties :
#
#
# Convention : Reuss Voigt Hill
#
# Bulk Modulus (GPa) = 87.53196 91.08941 89.31068
# Shear Modulus (GPa) = 63.77118 -176.14231 -56.18557
#
# Velocity S-wave (km/s) = 5.05374 -8.39910 -4.74366
# Velocity P-wave (km/s) = 8.31326 7.58806 2.40121
#
# Compressibility (1/GPa) = 0.01142440
#
# Stress axis : x y z
#
# Youngs Moduli (GPa) = 130.62476 126.65931 124.01963
#
# Poissons Ratio (x) = 0.40952 0.27522
# Poissons Ratio (y) = 0.42234 0.07966
# Poissons Ratio (z) = 0.28988 0.08136
#
# Static dielectric constant tensor:
#      x y z
#    x 2.047490 0.000000 0.000000 
#    y 0.000000 2.009730 0.000000 
#    z 0.000000 0.000000 2.497950 
# 
# From -- ./inp_files/27378.got.cif
#   From: 2010.05.17/outbox.cif.g08.bks.cpg/sg20_14_cif.got.tgz:27378.got - 2010.06.03 22:52:26.
