data_PCOD9321030
_publ_section_title
;
Structure prediction by ZEFSAII (Michael W. Deem and Ramdas Pophale) SiO2 
 PCOD9321030
Probable space group: C 2 2 21
;
_chemical_formula_sum "Si O2"
_cell_formula_units_Z 56
_cell_length_a 13.556955
_cell_length_b 15.273144
_cell_length_c 12.507813
_cell_angle_alpha 90.000000
_cell_angle_beta 90.000000
_cell_angle_gamma 90.000000
_cell_volume 2589.834313
_symmetry_space_group_name_H-M "C 2 2 21"
_symmetry_group_IT_number 20
_symmetry_cell_setting 'orthorhombic'
loop_
_space_group_symop_operation_xyz
x,y,z
-x,-y,1/2+z
x,-y,-z
-x,y,1/2-z
1/2+x,1/2+y,z
1/2-x,1/2-y,1/2+z
1/2+x,1/2-y,-z
1/2-x,1/2+y,1/2-z
loop_
_atom_site_type_symbol
_atom_site_label
_atom_site_fract_x
_atom_site_fract_y
_atom_site_fract_z
Si Si1 0.481859 0.394149 0.498208
Si Si2 0.700251 0.684838 0.114393
Si Si3 0.141691 0.866229 0.668913
Si Si4 0.707143 0.126128 0.987000
Si Si5 0.000000 0.857153 0.250000
Si Si6 0.472107 0.000000 0.500000
Si Si7 0.806125 0.051357 0.783202
Si Si8 0.662923 0.028252 0.383083
O O1 0.495648 0.500000 0.500000
O O2 0.373951 0.371455 0.541666
O O3 0.556496 0.351835 0.584133
O O4 0.504677 0.354818 0.382179
O O5 0.651878 0.697341 0.231412
O O6 0.712535 0.776771 0.058515
O O7 0.799043 0.627431 0.132464
O O8 0.242986 0.872286 0.602751
O O9 0.127717 0.963055 0.719226
O O10 0.599332 0.083216 0.989194
O O11 0.770120 0.068901 0.902977
O O12 0.120176 0.874958 0.243855
O O13 0.546126 0.984873 0.600136
O O14 0.713654 0.030891 0.707135
O O15 0.701610 0.000000 0.500000
#
# Coordination Sequence:
#
# PCOD9321030 Si02
#       8
#     8   8   8   8   4   4   8   8
#     4  12  22  41  68 105 140 182 231 296 375 443
#     4  11  26  41  71 105 145 186 235 320 358 435
#     4  11  22  44  68 100 139 177 235 295 366 429
#     4  12  24  47  71 101 142 191 251 297 360 432
#     4  12  22  34  74 104 138 174 234 294 368 440
#     4  10  24  48  70 102 134 202 240 292 346 466
#     4  11  21  41  71 102 130 188 232 299 358 444
#     4   9  22  44  67  95 143 184 244 285 365 437
#
# _framework density 21.623004999999999
#
# number of rings (size 3 to 8) (size 9 to 14) (size 15 to 20)
#    0.429    0.571    4.286    3.429    0.000    4.000 
#    5.143    0.000    0.000    0.000    0.000    0.000 
#    0.000    0.000    0.000    0.000    0.000    0.000 
#
# Total GULP energy -155924.266240 kJ/mol
# GULP energy per Si atom -5568.723794 kJ/mol
# Density = 2.157379 g / cm^3
# Si number density = 21.623005 Si / 1000 Ang^3
#
#
#
# Elastic Constant Matrix: (Units=GPa)
#
#
# Indices 1 2 3 4 5 6 
#
# 1 104.0732 11.0019 -0.8547 0.0000 0.0000 0.0000
# 2 11.0019 47.6769 11.8028 0.0000 0.0000 0.0000
# 3 -0.8547 11.8028 89.2007 0.0000 0.0000 0.0000
# 4 0.0000 0.0000 0.0000 12.4228 0.0000 0.0000
# 5 0.0000 0.0000 0.0000 0.0000 38.0886 0.0000
# 6 0.0000 0.0000 0.0000 0.0000 0.0000 -27.2710
#
#
#
# Elastic Compliance Matrix: (Units=1/GPa)
#
#
# Indices 1 2 3 4 5 6 
#
# 1 0.009863 -0.002377 0.000409 0.000000 0.000000 0.000000
# 2 -0.002377 0.022258 -0.002968 0.000000 0.000000 0.000000
# 3 0.000409 -0.002968 0.011607 0.000000 0.000000 0.000000
# 4 0.000000 0.000000 0.000000 0.080497 0.000000 0.000000
# 5 0.000000 0.000000 0.000000 0.000000 0.026255 0.000000
# 6 0.000000 0.000000 0.000000 0.000000 0.000000 -0.036669
#
#
# Mechanical properties :
#
#
# Convention : Reuss Voigt Hill
#
# Bulk Modulus (GPa) = 29.53674 31.65011 30.59343
# Shear Modulus (GPa) = 37.04561 19.24814 28.14688
#
# Velocity S-wave (km/s) = 4.14363 2.98681 3.61184
# Velocity P-wave (km/s) = 6.04834 5.15400 5.61899
#
# Compressibility (1/GPa) = 0.03385614
#
# Stress axis : x y z
#
# Youngs Moduli (GPa) = 101.38606 44.92806 86.15272
#
# Poissons Ratio (x) = 0.10681 -0.03524
# Poissons Ratio (y) = 0.24103 0.25569
# Poissons Ratio (z) = -0.04147 0.13334
#
# Static dielectric constant tensor:
#      x y z
#    x 1.816300 0.000000 0.000000 
#    y 0.000000 1.817000 0.000000 
#    z 0.000000 0.000000 1.830620 
# 
# From -- ./inp_files/15173.got.cif
#   From: 2010.05.17/outbox.cif.g08.bks.cpg/sg20_8_cif.got.tgz:15173.got - 2010.06.03 22:52:26.
