data_PCOD9321538
_publ_section_title
;
Structure prediction by ZEFSAII (Michael W. Deem and Ramdas Pophale) SiO2 
 PCOD9321538
Probable space group: C 2 2 21
;
_chemical_formula_sum "Si O2"
_cell_formula_units_Z 36
_cell_length_a 13.388568
_cell_length_b 5.269778
_cell_length_c 19.639793
_cell_angle_alpha 90.000000
_cell_angle_beta 90.000000
_cell_angle_gamma 90.000000
_cell_volume 1385.681296
_symmetry_space_group_name_H-M "C 2 2 21"
_symmetry_group_IT_number 20
_symmetry_cell_setting 'orthorhombic'
loop_
_space_group_symop_operation_xyz
x,y,z
-x,-y,1/2+z
x,-y,-z
-x,y,1/2-z
1/2+x,1/2+y,z
1/2-x,1/2-y,1/2+z
1/2+x,1/2-y,-z
1/2-x,1/2+y,1/2-z
loop_
_atom_site_type_symbol
_atom_site_label
_atom_site_fract_x
_atom_site_fract_y
_atom_site_fract_z
Si Si1 0.500000 0.701826 0.250000
Si Si2 0.498903 0.901692 0.104830
Si Si3 0.811324 0.687661 0.074547
Si Si4 0.652036 0.000000 0.000000
Si Si5 0.477935 0.500000 0.000000
Si Si6 0.705445 0.564517 0.719011
O O1 0.522556 0.871798 0.183820
O O2 0.407368 0.524098 0.231506
O O3 0.579101 0.074766 0.063194
O O4 0.524370 0.644210 0.063835
O O5 0.376992 0.942361 0.099879
O O6 0.722678 0.764537 0.022383
O O7 0.904230 0.802526 0.034824
O O8 0.782308 0.837122 0.142347
O O9 0.732480 0.810503 0.764163
#
# Coordination Sequence:
#
# PCOD9321538 Si02
#       6
#     4   8   8   4   4   8
#     4  12  28  50  86 116 170 224 268 360 424 510
#     4  12  25  52  79 120 165 216 287 341 431 505
#     4  11  25  48  77 115 170 208 274 358 402 492
#     4  11  26  48  81 116 148 225 274 328 419 504
#     4  11  22  48  77 108 156 215 258 356 403 486
#     4  12  28  50  78 120 164 216 277 338 427 505
#
# _framework density 25.980003
#
# number of rings (size 3 to 8) (size 9 to 14) (size 15 to 20)
#    0.000    0.444    4.444    2.667    0.000    7.111 
#    8.000    0.000    0.000    0.000    0.000    0.000 
#    0.000    0.000    0.000    0.000    0.000    0.000 
#
# Total GULP energy -100411.422977 kJ/mol
# GULP energy per Si atom -5578.412388 kJ/mol
# Density = 2.592087 g / cm^3
# Si number density = 25.980003 Si / 1000 Ang^3
#
#
#
# Elastic Constant Matrix: (Units=GPa)
#
#
# Indices 1 2 3 4 5 6 
#
# 1 156.4056 47.5606 31.3932 0.0000 0.0000 0.0000
# 2 47.5606 90.9706 40.7427 0.0000 0.0000 0.0000
# 3 31.3932 40.7427 166.3457 0.0000 0.0000 0.0000
# 4 0.0000 0.0000 0.0000 -79.2087 0.0000 0.0000
# 5 0.0000 0.0000 0.0000 0.0000 28.1692 0.0000
# 6 0.0000 0.0000 0.0000 0.0000 0.0000 42.6554
#
#
#
# Elastic Compliance Matrix: (Units=1/GPa)
#
#
# Indices 1 2 3 4 5 6 
#
# 1 0.007642 -0.003762 -0.000521 0.000000 0.000000 0.000000
# 2 -0.003762 0.014199 -0.002768 0.000000 0.000000 0.000000
# 3 -0.000521 -0.002768 0.006788 0.000000 0.000000 0.000000
# 4 0.000000 0.000000 0.000000 -0.012625 0.000000 0.000000
# 5 0.000000 0.000000 0.000000 0.000000 0.035500 0.000000
# 6 0.000000 0.000000 0.000000 0.000000 0.000000 0.023444
#
#
# Mechanical properties :
#
#
# Convention : Reuss Voigt Hill
#
# Bulk Modulus (GPa) = 68.83459 72.56831 70.70145
# Shear Modulus (GPa) = 53.25290 17.92486 35.58888
#
# Velocity S-wave (km/s) = 4.53234 2.62954 3.70517
# Velocity P-wave (km/s) = 7.34454 6.10019 6.75109
#
# Compressibility (1/GPa) = 0.01452758
#
# Stress axis : x y z
#
# Youngs Moduli (GPa) = 130.85263 70.42720 147.32404
#
# Poissons Ratio (x) = 0.26496 0.07672
# Poissons Ratio (y) = 0.49229 0.40775
# Poissons Ratio (z) = 0.06815 0.19492
#
# Static dielectric constant tensor:
#      x y z
#    x 2.283680 0.000000 0.000000 
#    y 0.000000 2.252020 0.000000 
#    z 0.000000 0.000000 2.070310 
# 
# From -- ./inp_files/27408.got.cif
#   From: 2010.05.17/outbox.cif.g08.bks.cpg/sg20_14_cif.got.tgz:27408.got - 2010.06.03 22:52:26.
