data_PCOD9321698
_publ_section_title
;
Structure prediction by ZEFSAII (Michael W. Deem and Ramdas Pophale) SiO2 
 PCOD9321698
Probable space group: C 2 2 21
;
_chemical_formula_sum "Si O2"
_cell_formula_units_Z 60
_cell_length_a 8.787543
_cell_length_b 11.448212
_cell_length_c 23.349778
_cell_angle_alpha 90.000000
_cell_angle_beta 90.000000
_cell_angle_gamma 90.000000
_cell_volume 2349.026316
_symmetry_space_group_name_H-M "C 2 2 21"
_symmetry_group_IT_number 20
_symmetry_cell_setting 'orthorhombic'
loop_
_space_group_symop_operation_xyz
x,y,z
-x,-y,1/2+z
x,-y,-z
-x,y,1/2-z
1/2+x,1/2+y,z
1/2-x,1/2-y,1/2+z
1/2+x,1/2-y,-z
1/2-x,1/2+y,1/2-z
loop_
_atom_site_type_symbol
_atom_site_label
_atom_site_fract_x
_atom_site_fract_y
_atom_site_fract_z
Si Si1 0.746246 0.261497 0.213699
Si Si2 0.579201 0.776040 0.672899
Si Si3 0.521154 0.481412 0.875692
Si Si4 0.074240 0.536852 0.646599
Si Si5 0.249723 0.374164 0.448991
Si Si6 0.736517 0.896485 0.100902
Si Si7 0.500000 0.575670 0.250000
Si Si8 0.046708 0.222999 0.047343
O O1 0.603646 0.225009 0.174498
O O2 0.659641 0.286558 0.273208
O O3 0.843690 0.361130 0.182462
O O4 0.861327 0.157952 0.230049
O O5 0.654400 0.709260 0.620629
O O6 0.614637 0.913205 0.673263
O O7 0.623148 0.581405 0.903729
O O8 0.353111 0.497883 0.902075
O O9 0.531791 0.495473 0.807694
O O10 0.562858 0.349616 0.893498
O O11 0.126151 0.534412 0.579177
O O12 0.896096 0.567521 0.645148
O O13 0.363619 0.360139 0.502923
O O14 0.129738 0.265461 0.455807
O O15 0.645331 0.841605 0.048431
#
# Coordination Sequence:
#
# PCOD9321698 Si02
#       8
#     8   8   8   8   8   8   4   8
#     4  11  24  41  65  98 139 190 242 292 352 422
#     4  11  25  43  67 100 141 190 241 296 354 428
#     4  12  26  46  72 105 147 196 245 303 374 438
#     4  11  24  45  68 100 142 185 236 297 360 427
#     4  11  24  45  75 103 139 187 238 299 367 438
#     4  11  25  44  71 104 138 183 239 295 362 435
#     4  12  24  44  72 102 148 200 246 306 362 434
#     4  11  25  49  75 108 148 187 243 311 368 438
#
# _framework density 25.542497999999998
#
# number of rings (size 3 to 8) (size 9 to 14) (size 15 to 20)
#    0.000    0.800    0.000    7.600    0.000    7.467 
#    0.000   13.333    0.000    0.000    0.000    0.000 
#    0.000    0.000    0.000    0.000    0.000    0.000 
#
# Total GULP energy -167227.087247 kJ/mol
# GULP energy per Si atom -5574.236242 kJ/mol
# Density = 2.548436 g / cm^3
# Si number density = 25.542498 Si / 1000 Ang^3
#
#
#
# Elastic Constant Matrix: (Units=GPa)
#
#
# Indices 1 2 3 4 5 6 
#
# 1 173.6926 29.4857 4.3477 0.0000 0.0000 0.0000
# 2 29.4857 70.5998 10.9043 0.0000 0.0000 0.0000
# 3 4.3477 10.9043 36.2317 0.0000 0.0000 0.0000
# 4 0.0000 0.0000 0.0000 0.4761 0.0000 0.0000
# 5 0.0000 0.0000 0.0000 0.0000 41.3069 0.0000
# 6 0.0000 0.0000 0.0000 0.0000 0.0000 27.4366
#
#
#
# Elastic Compliance Matrix: (Units=1/GPa)
#
#
# Indices 1 2 3 4 5 6 
#
# 1 0.006197 -0.002594 0.000037 0.000000 0.000000 0.000000
# 2 -0.002594 0.015941 -0.004486 0.000000 0.000000 0.000000
# 3 0.000037 -0.004486 0.028946 0.000000 0.000000 0.000000
# 4 0.000000 0.000000 0.000000 2.100245 0.000000 0.000000
# 5 0.000000 0.000000 0.000000 0.000000 0.024209 0.000000
# 6 0.000000 0.000000 0.000000 0.000000 0.000000 0.036448
#
#
# Mechanical properties :
#
#
# Convention : Reuss Voigt Hill
#
# Bulk Modulus (GPa) = 27.02906 41.11104 34.07005
# Shear Modulus (GPa) = 2.23374 29.56302 15.89838
#
# Velocity S-wave (km/s) = 0.93617 3.40576 2.49756
# Velocity P-wave (km/s) = 3.43126 5.62100 4.65667
#
# Compressibility (1/GPa) = 0.03699722
#
# Stress axis : x y z
#
# Youngs Moduli (GPa) = 161.37676 62.73328 34.54725
#
# Poissons Ratio (x) = 0.16271 -0.00128
# Poissons Ratio (y) = 0.41857 0.15499
# Poissons Ratio (z) = -0.00597 0.28143
#
# Static dielectric constant tensor:
#      x y z
#    x 2.095810 0.000000 0.000000 
#    y 0.000000 2.008760 0.000000 
#    z 0.000000 0.000000 2.093220 
# 
# From -- ./inp_files/30158.got.cif
#   From: 2010.05.17/outbox.cif.g08.bks.cpg/sg20_16_cif.got.tgz:30158.got - 2010.06.03 22:52:26.
