data_PCOD9321419
_publ_section_title
;
Structure prediction by ZEFSAII (Michael W. Deem and Ramdas Pophale) SiO2 
 PCOD9321419
Probable space group: C 2 2 21
;
_chemical_formula_sum "Si O2"
_cell_formula_units_Z 48
_cell_length_a 9.471742
_cell_length_b 17.510941
_cell_length_c 15.075092
_cell_angle_alpha 90.000000
_cell_angle_beta 90.000000
_cell_angle_gamma 90.000000
_cell_volume 2500.341423
_symmetry_space_group_name_H-M "C 2 2 21"
_symmetry_group_IT_number 20
_symmetry_cell_setting 'orthorhombic'
loop_
_space_group_symop_operation_xyz
x,y,z
-x,-y,1/2+z
x,-y,-z
-x,y,1/2-z
1/2+x,1/2+y,z
1/2-x,1/2-y,1/2+z
1/2+x,1/2-y,-z
1/2-x,1/2+y,1/2-z
loop_
_atom_site_type_symbol
_atom_site_label
_atom_site_fract_x
_atom_site_fract_y
_atom_site_fract_z
Si Si1 0.263100 0.059294 0.917201
Si Si2 0.923088 0.545886 0.592509
Si Si3 0.871213 0.611272 0.313687
Si Si4 0.065951 0.169487 0.020138
Si Si5 0.868779 0.069192 0.307782
Si Si6 0.730469 0.175446 0.995887
O O1 0.423138 0.084921 0.898434
O O2 0.212210 0.006008 0.838425
O O3 0.150235 0.123470 0.943075
O O4 0.270023 0.000000 0.000000
O O5 0.926325 0.500000 0.500000
O O6 0.896842 0.478593 0.662782
O O7 0.805951 0.609883 0.576070
O O8 0.733705 0.618650 0.253319
O O9 0.839642 0.651436 0.408446
O O10 0.000000 0.637120 0.250000
O O11 0.081957 0.116702 0.106970
O O12 0.899716 0.182595 0.003611
O O13 0.152267 0.247363 0.031993
O O14 0.000000 0.045488 0.250000
#
# Coordination Sequence:
#
# PCOD9321419 Si02
#       6
#     8   8   8   8   8   8
#     4   9  19  36  60  85 115 152 192 237 291 353
#     4   9  19  36  60  86 114 151 195 235 289 357
#     4  11  22  39  65  91 117 155 200 254 304 349
#     4  11  24  40  61  86 123 166 199 243 298 365
#     4  11  22  39  63  91 119 151 202 256 302 345
#     4  11  24  40  61  87 122 163 204 239 298 369
#
# _framework density 19.197379000000002
#
# number of rings (size 3 to 8) (size 9 to 14) (size 15 to 20)
#    0.000    1.667    3.333    1.000    7.000    2.000 
#    0.000    3.333    0.000    0.000    0.000    0.000 
#    0.000    0.000    0.000    0.000    0.000    0.000 
#
# Total GULP energy -133812.021094 kJ/mol
# GULP energy per Si atom -5575.500879 kJ/mol
# Density = 1.915369 g / cm^3
# Si number density = 19.197379 Si / 1000 Ang^3
#
#
#
# Elastic Constant Matrix: (Units=GPa)
#
#
# Indices 1 2 3 4 5 6 
#
# 1 114.7059 14.9839 7.6953 0.0000 0.0000 0.0000
# 2 14.9839 57.7868 -2.5703 0.0000 0.0000 0.0000
# 3 7.6953 -2.5703 41.4865 0.0000 0.0000 0.0000
# 4 0.0000 0.0000 0.0000 -231.5694 0.0000 0.0000
# 5 0.0000 0.0000 0.0000 0.0000 27.8437 0.0000
# 6 0.0000 0.0000 0.0000 0.0000 0.0000 42.5309
#
#
#
# Elastic Compliance Matrix: (Units=1/GPa)
#
#
# Indices 1 2 3 4 5 6 
#
# 1 0.009163 -0.002458 -0.001852 0.000000 0.000000 0.000000
# 2 -0.002458 0.018012 0.001572 0.000000 0.000000 0.000000
# 3 -0.001852 0.001572 0.024545 0.000000 0.000000 0.000000
# 4 0.000000 0.000000 0.000000 -0.004318 0.000000 0.000000
# 5 0.000000 0.000000 0.000000 0.000000 0.035915 0.000000
# 6 0.000000 0.000000 0.000000 0.000000 0.000000 0.023512
#
#
# Mechanical properties :
#
#
# Convention : Reuss Voigt Hill
#
# Bulk Modulus (GPa) = 21.62447 28.24413 24.93430
# Shear Modulus (GPa) = 39.14782 -19.31426 9.91678
#
# Velocity S-wave (km/s) = 4.52068 -3.17533 2.27528
# Velocity P-wave (km/s) = 6.20785 1.14052 4.46308
#
# Compressibility (1/GPa) = 0.04624390
#
# Stress axis : x y z
#
# Youngs Moduli (GPa) = 109.13068 55.51741 40.74130
#
# Poissons Ratio (x) = 0.13648 0.07545
# Poissons Ratio (y) = 0.26829 -0.06404
# Poissons Ratio (z) = 0.20211 -0.08727
#
# Static dielectric constant tensor:
#      x y z
#    x 2.008310 0.000000 0.000000 
#    y 0.000000 1.655890 0.000000 
#    z 0.000000 0.000000 1.618820 
# 
# From -- ./inp_files/18839.got.cif
#   From: 2010.05.17/outbox.cif.g08.bks.cpg/sg20_10_cif.got.tgz:18839.got - 2010.06.03 22:52:26.
