data_PCOD9321155
_publ_section_title
;
Structure prediction by ZEFSAII (Michael W. Deem and Ramdas Pophale) SiO2 
 PCOD9321155
Probable space group: C 2 2 21
;
_chemical_formula_sum "Si O2"
_cell_formula_units_Z 32
_cell_length_a 11.682132
_cell_length_b 8.497425
_cell_length_c 12.843722
_cell_angle_alpha 90.000000
_cell_angle_beta 90.000000
_cell_angle_gamma 90.000000
_cell_volume 1274.971116
_symmetry_space_group_name_H-M "C 2 2 21"
_symmetry_group_IT_number 20
_symmetry_cell_setting 'orthorhombic'
loop_
_space_group_symop_operation_xyz
x,y,z
-x,-y,1/2+z
x,-y,-z
-x,y,1/2-z
1/2+x,1/2+y,z
1/2-x,1/2-y,1/2+z
1/2+x,1/2-y,-z
1/2-x,1/2+y,1/2-z
loop_
_atom_site_type_symbol
_atom_site_label
_atom_site_fract_x
_atom_site_fract_y
_atom_site_fract_z
Si Si1 0.178293 0.784547 0.337864
Si Si2 0.386315 0.668319 0.444428
Si Si3 0.126811 0.533642 0.766001
Si Si4 0.083815 0.500000 0.000000
Si Si5 0.000000 0.019033 0.250000
O O1 0.258761 0.745780 0.437343
O O2 0.131827 0.616462 0.306204
O O3 0.268136 0.849440 0.250609
O O4 0.077345 0.910691 0.327105
O O5 0.386646 0.500000 0.500000
O O6 0.422178 0.619022 0.327896
O O7 0.463109 0.817775 0.483952
O O8 0.140613 0.479700 0.886317
O O9 0.000000 0.596202 0.750000
#
# Coordination Sequence:
#
# PCOD9321155 Si02
#       5
#     8   8   8   4   4
#     4  11  24  44  77 104 148 201 252 306 386 455
#     4  11  26  51  76 115 160 204 261 321 390 462
#     4  11  24  46  70 104 146 191 245 313 374 455
#     4  10  26  44  74 116 144 192 270 298 382 486
#     4  12  24  50  82 112 158 206 254 328 394 458
#
# _framework density 25.098607000000001
#
# number of rings (size 3 to 8) (size 9 to 14) (size 15 to 20)
#    0.000    1.000    3.750    1.500    7.000    0.000 
#   11.250    0.000    0.000    0.000    0.000    0.000 
#    0.000    0.000    0.000    0.000    0.000    0.000 
#
# Total GULP energy -89067.834180 kJ/mol
# GULP energy per Si atom -5566.739636 kJ/mol
# Density = 2.504148 g / cm^3
# Si number density = 25.098607 Si / 1000 Ang^3
#
#
#
# Elastic Constant Matrix: (Units=GPa)
#
#
# Indices 1 2 3 4 5 6 
#
# 1 100.6599 30.1707 -5.7883 0.0000 0.0000 0.0000
# 2 30.1707 182.9232 22.9662 0.0000 0.0000 0.0000
# 3 -5.7883 22.9662 80.6530 0.0000 0.0000 0.0000
# 4 0.0000 0.0000 0.0000 42.3100 0.0000 0.0000
# 5 0.0000 0.0000 0.0000 0.0000 15.2316 0.0000
# 6 0.0000 0.0000 0.0000 0.0000 0.0000 26.7130
#
#
#
# Elastic Compliance Matrix: (Units=1/GPa)
#
#
# Indices 1 2 3 4 5 6 
#
# 1 0.010582 -0.001909 0.001303 0.000000 0.000000 0.000000
# 2 -0.001909 0.006014 -0.001849 0.000000 0.000000 0.000000
# 3 0.001303 -0.001849 0.013019 0.000000 0.000000 0.000000
# 4 0.000000 0.000000 0.000000 0.023635 0.000000 0.000000
# 5 0.000000 0.000000 0.000000 0.000000 0.065653 0.000000
# 6 0.000000 0.000000 0.000000 0.000000 0.000000 0.037435
#
#
# Mechanical properties :
#
#
# Convention : Reuss Voigt Hill
#
# Bulk Modulus (GPa) = 40.47998 50.99260 45.73629
# Shear Modulus (GPa) = 29.50157 37.97676 33.73917
#
# Velocity S-wave (km/s) = 3.43217 3.89408 3.67040
# Velocity P-wave (km/s) = 5.64533 6.37020 6.01869
#
# Compressibility (1/GPa) = 0.02470357
#
# Stress axis : x y z
#
# Youngs Moduli (GPa) = 94.50451 166.28379 76.81115
#
# Poissons Ratio (x) = 0.31741 -0.10008
# Poissons Ratio (y) = 0.18040 0.14206
# Poissons Ratio (z) = -0.12314 0.30753
#
# Static dielectric constant tensor:
#      x y z
#    x 2.065800 0.000000 0.000000 
#    y 0.000000 2.034700 0.000000 
#    z 0.000000 0.000000 2.001450 
# 
# From -- ./inp_files/18299.got.cif
#   From: 2010.05.17/outbox.cif.g08.bks.cpg/sg20_10_cif.got.tgz:18299.got - 2010.06.03 22:52:26.
