data_PCOD9321677
_publ_section_title
;
Structure prediction by ZEFSAII (Michael W. Deem and Ramdas Pophale) SiO2 
 PCOD9321677
Probable space group: C 2 2 21
;
_chemical_formula_sum "Si O2"
_cell_formula_units_Z 56
_cell_length_a 15.872860
_cell_length_b 12.547244
_cell_length_c 11.477725
_cell_angle_alpha 90.000000
_cell_angle_beta 90.000000
_cell_angle_gamma 90.000000
_cell_volume 2285.911142
_symmetry_space_group_name_H-M "C 2 2 21"
_symmetry_group_IT_number 20
_symmetry_cell_setting 'orthorhombic'
loop_
_space_group_symop_operation_xyz
x,y,z
-x,-y,1/2+z
x,-y,-z
-x,y,1/2-z
1/2+x,1/2+y,z
1/2-x,1/2-y,1/2+z
1/2+x,1/2-y,-z
1/2-x,1/2+y,1/2-z
loop_
_atom_site_type_symbol
_atom_site_label
_atom_site_fract_x
_atom_site_fract_y
_atom_site_fract_z
Si Si1 0.066272 0.682151 0.856467
Si Si2 0.663523 0.500000 0.000000
Si Si3 0.759951 0.320494 0.055882
Si Si4 0.017864 0.923287 0.882061
Si Si5 0.733276 0.916171 0.199180
Si Si6 0.610579 0.329743 0.448884
Si Si7 0.864073 0.621403 0.402819
Si Si8 0.500000 0.227701 0.250000
O O1 0.052488 0.803152 0.892768
O O2 0.159733 0.671981 0.807331
O O3 0.000000 0.654311 0.750000
O O4 0.077903 0.616558 0.978636
O O5 0.717594 0.601626 0.037765
O O6 0.588364 0.513562 0.904949
O O7 0.751406 0.404477 0.163211
O O8 0.700835 0.219104 0.078848
O O9 0.849035 0.273004 0.015751
O O10 0.000000 0.940005 0.750000
O O11 0.932873 0.905133 0.955940
O O12 0.813017 0.882955 0.122603
O O13 0.691744 0.021862 0.142739
O O14 0.541354 0.294707 0.354447
O O15 0.926941 0.653921 0.301253
#
# Coordination Sequence:
#
# PCOD9321677 Si02
#       8
#     8   4   8   8   8   8   8   4
#     4  11  23  49  78 114 157 210 268 336 405 496
#     4  12  26  48  72 116 158 206 268 330 400 498
#     4  12  27  48  77 115 164 206 274 336 412 480
#     4  11  25  48  79 112 158 210 269 333 409 487
#     4  12  28  46  81 115 160 211 272 333 415 487
#     4  12  26  51  83 114 164 215 272 339 412 487
#     4  12  26  51  76 120 160 209 275 338 401 501
#     4  12  26  50  78 116 164 208 266 348 402 486
#
# _framework density 24.497890999999999
#
# number of rings (size 3 to 8) (size 9 to 14) (size 15 to 20)
#    0.000    0.286    5.714    2.143    3.000    4.571 
#    1.286    0.000    0.000    0.000    0.000    0.000 
#    0.000    0.000    0.000    0.000    0.000    0.000 
#
# Total GULP energy -156208.156782 kJ/mol
# GULP energy per Si atom -5578.862742 kJ/mol
# Density = 2.444213 g / cm^3
# Si number density = 24.497891 Si / 1000 Ang^3
#
#
#
# Elastic Constant Matrix: (Units=GPa)
#
#
# Indices 1 2 3 4 5 6 
#
# 1 124.8631 56.1036 28.6569 0.0000 0.0000 0.0000
# 2 56.1036 126.8419 30.3278 0.0000 0.0000 0.0000
# 3 28.6569 30.3278 113.2293 0.0000 0.0000 0.0000
# 4 0.0000 0.0000 0.0000 -110.8138 0.0000 0.0000
# 5 0.0000 0.0000 0.0000 0.0000 50.4679 0.0000
# 6 0.0000 0.0000 0.0000 0.0000 0.0000 53.6154
#
#
#
# Elastic Compliance Matrix: (Units=1/GPa)
#
#
# Indices 1 2 3 4 5 6 
#
# 1 0.010219 -0.004169 -0.001470 0.000000 0.000000 0.000000
# 2 -0.004169 0.010124 -0.001657 0.000000 0.000000 0.000000
# 3 -0.001470 -0.001657 0.009647 0.000000 0.000000 0.000000
# 4 0.000000 0.000000 0.000000 -0.009024 0.000000 0.000000
# 5 0.000000 0.000000 0.000000 0.000000 0.019815 0.000000
# 6 0.000000 0.000000 0.000000 0.000000 0.000000 0.018651
#
#
# Mechanical properties :
#
#
# Convention : Reuss Voigt Hill
#
# Bulk Modulus (GPa) = 64.93397 66.12344 65.52871
# Shear Modulus (GPa) = 63.16693 15.31031 39.23862
#
# Velocity S-wave (km/s) = 5.08337 2.50264 4.00648
# Velocity P-wave (km/s) = 7.81138 5.94988 6.94329
#
# Compressibility (1/GPa) = 0.01540026
#
# Stress axis : x y z
#
# Youngs Moduli (GPa) = 97.85551 98.77774 103.65574
#
# Poissons Ratio (x) = 0.41177 0.15235
# Poissons Ratio (y) = 0.40792 0.17171
# Poissons Ratio (z) = 0.14383 0.16363
#
# Static dielectric constant tensor:
#      x y z
#    x 1.974720 0.000000 0.000000 
#    y 0.000000 0.112290 0.000000 
#    z 0.000000 0.000000 2.345700 
# 
# From -- ./inp_files/15163.got.cif
#   From: 2010.05.17/outbox.cif.g08.bks.cpg/sg20_8_cif.got.tgz:15163.got - 2010.06.03 22:52:26.
