data_PCOD9321553
_publ_section_title
;
Structure prediction by ZEFSAII (Michael W. Deem and Ramdas Pophale) SiO2 
 PCOD9321553
Probable space group: C 2 2 21
;
_chemical_formula_sum "Si O2"
_cell_formula_units_Z 64
_cell_length_a 15.845688
_cell_length_b 11.706953
_cell_length_c 18.453327
_cell_angle_alpha 90.000000
_cell_angle_beta 90.000000
_cell_angle_gamma 90.000000
_cell_volume 3423.179344
_symmetry_space_group_name_H-M "C 2 2 21"
_symmetry_group_IT_number 20
_symmetry_cell_setting 'orthorhombic'
loop_
_space_group_symop_operation_xyz
x,y,z
-x,-y,1/2+z
x,-y,-z
-x,y,1/2-z
1/2+x,1/2+y,z
1/2-x,1/2-y,1/2+z
1/2+x,1/2-y,-z
1/2-x,1/2+y,1/2-z
loop_
_atom_site_type_symbol
_atom_site_label
_atom_site_fract_x
_atom_site_fract_y
_atom_site_fract_z
Si Si1 0.318061 0.188941 0.671595
Si Si2 0.448801 0.882395 0.824512
Si Si3 0.861432 0.186627 0.906466
Si Si4 0.878428 0.052814 0.308144
Si Si5 0.434463 0.457870 0.858200
Si Si6 0.605162 0.780545 0.435950
Si Si7 0.448298 0.050751 0.574227
Si Si8 0.297889 0.063574 0.824688
O O1 0.230035 0.194050 0.629584
O O2 0.357656 0.314162 0.679754
O O3 0.380574 0.109656 0.625676
O O4 0.305125 0.136048 0.751033
O O5 0.500000 0.875813 0.750000
O O6 0.423756 0.759877 0.855487
O O7 0.506280 0.950197 0.881577
O O8 0.363211 0.957592 0.817186
O O9 0.893399 0.056791 0.906388
O O10 0.862440 0.242828 0.985581
O O11 0.894990 0.034262 0.222513
O O12 0.965193 0.024892 0.349243
O O13 0.797102 0.981304 0.332534
O O14 0.415995 0.333059 0.890366
O O15 0.520865 0.856712 0.443904
O O16 0.670662 0.858466 0.391121
O O17 0.412055 0.000000 0.500000
#
# Coordination Sequence:
#
# PCOD9321553 Si02
#       8
#     8   8   8   8   8   8   8   8
#     4  12  23  43  69  98 134 173 223 278 334 400
#     4  11  23  39  68  98 128 171 220 272 331 385
#     4  12  26  43  63 101 142 172 212 284 345 392
#     4  11  23  43  66 103 127 175 227 276 328 400
#     4  11  24  42  70  93 137 175 221 271 340 405
#     4  11  24  44  68  95 132 182 219 273 342 404
#     4  11  23  43  68  97 128 170 230 275 322 401
#     4  11  23  42  70  99 131 170 229 279 324 403
#
# _framework density 18.696071
#
# number of rings (size 3 to 8) (size 9 to 14) (size 15 to 20)
#    0.000    0.750    7.500    0.375    1.750    1.000 
#    2.250    2.500    0.000    0.000    0.000    0.000 
#    0.000    0.000    0.000    0.000    0.000    0.000 
#
# Total GULP energy -178929.558923 kJ/mol
# GULP energy per Si atom -5591.548716 kJ/mol
# Density = 1.865352 g / cm^3
# Si number density = 18.696071 Si / 1000 Ang^3
#
#
#
# Elastic Constant Matrix: (Units=GPa)
#
#
# Indices 1 2 3 4 5 6 
#
# 1 95.9551 31.6346 23.1982 0.0000 0.0000 0.0000
# 2 31.6346 69.9134 3.3197 0.0000 0.0000 0.0000
# 3 23.1982 3.3197 58.4636 0.0000 0.0000 0.0000
# 4 0.0000 0.0000 0.0000 29.1143 0.0000 0.0000
# 5 0.0000 0.0000 0.0000 0.0000 4.7490 0.0000
# 6 0.0000 0.0000 0.0000 0.0000 0.0000 27.9872
#
#
#
# Elastic Compliance Matrix: (Units=1/GPa)
#
#
# Indices 1 2 3 4 5 6 
#
# 1 0.013593 -0.005910 -0.005058 0.000000 0.000000 0.000000
# 2 -0.005910 0.016912 0.001385 0.000000 0.000000 0.000000
# 3 -0.005058 0.001385 0.019033 0.000000 0.000000 0.000000
# 4 0.000000 0.000000 0.000000 0.034347 0.000000 0.000000
# 5 0.000000 0.000000 0.000000 0.000000 0.210569 0.000000
# 6 0.000000 0.000000 0.000000 0.000000 0.000000 0.035731
#
#
# Mechanical properties :
#
#
# Convention : Reuss Voigt Hill
#
# Bulk Modulus (GPa) = 32.92616 37.84855 35.38736
# Shear Modulus (GPa) = 13.90913 23.44874 18.67893
#
# Velocity S-wave (km/s) = 2.73052 3.54532 3.16426
# Velocity P-wave (km/s) = 5.25267 6.08664 5.68496
#
# Compressibility (1/GPa) = 0.03037098
#
# Stress axis : x y z
#
# Youngs Moduli (GPa) = 73.56768 59.12960 52.54020
#
# Poissons Ratio (x) = 0.34948 0.26575
# Poissons Ratio (y) = 0.43481 -0.07276
# Poissons Ratio (z) = 0.37211 -0.08189
#
# Static dielectric constant tensor:
#      x y z
#    x 1.617700 0.000000 0.000000 
#    y 0.000000 1.625540 0.000000 
#    z 0.000000 0.000000 1.627290 
# 
# From -- ./inp_files/24982.got.cif
#   From: 2010.05.17/outbox.cif.g08.bks.cpg/sg20_13_cif.got.tgz:24982.got - 2010.06.03 22:52:26.
