data_PCOD9321424
_publ_section_title
;
Structure prediction by ZEFSAII (Michael W. Deem and Ramdas Pophale) SiO2 
 PCOD9321424
Probable space group: C 2 2 21
;
_chemical_formula_sum "Si O2"
_cell_formula_units_Z 64
_cell_length_a 15.176597
_cell_length_b 11.647667
_cell_length_c 17.934317
_cell_angle_alpha 90.000000
_cell_angle_beta 90.000000
_cell_angle_gamma 90.000000
_cell_volume 3170.284153
_symmetry_space_group_name_H-M "C 2 2 21"
_symmetry_group_IT_number 20
_symmetry_cell_setting 'orthorhombic'
loop_
_space_group_symop_operation_xyz
x,y,z
-x,-y,1/2+z
x,-y,-z
-x,y,1/2-z
1/2+x,1/2+y,z
1/2-x,1/2-y,1/2+z
1/2+x,1/2-y,-z
1/2-x,1/2+y,1/2-z
loop_
_atom_site_type_symbol
_atom_site_label
_atom_site_fract_x
_atom_site_fract_y
_atom_site_fract_z
Si Si1 0.236158 0.283624 0.224064
Si Si2 0.659781 0.373768 0.133138
Si Si3 0.615579 0.983662 0.170692
Si Si4 0.449287 0.168779 0.421685
Si Si5 0.378294 0.888562 0.824899
Si Si6 0.174566 0.579654 0.568234
Si Si7 0.421430 0.610886 0.308398
Si Si8 0.500604 0.198029 0.591814
O O1 0.280128 0.315375 0.302717
O O2 0.196916 0.398876 0.186833
O O3 0.313902 0.220270 0.179177
O O4 0.154706 0.193288 0.226760
O O5 0.582078 0.289553 0.110342
O O6 0.724896 0.383172 0.062126
O O7 0.622044 0.493945 0.162522
O O8 0.620930 0.071311 0.101939
O O9 0.600716 0.064900 0.242279
O O10 0.535096 0.898288 0.149802
O O11 0.538174 0.136628 0.376823
O O12 0.462779 0.173333 0.509834
O O13 0.327210 0.993869 0.862165
O O14 0.145274 0.500000 0.500000
O O15 0.105018 0.679864 0.583333
O O16 0.500000 0.588952 0.250000
O O17 0.465528 0.683130 0.375721
#
# Coordination Sequence:
#
# PCOD9321424 Si02
#       8
#     8   8   8   8   8   8   8   8
#     4  11  23  42  66 100 133 168 228 280 337 393
#     4  12  27  41  68 101 139 177 221 287 344 412
#     4  11  22  39  70  97 129 167 227 284 330 388
#     4  12  26  43  68 100 137 177 230 275 351 408
#     4  12  23  42  67 101 130 176 226 278 328 406
#     4  12  23  43  70  97 130 172 229 277 330 408
#     4  11  26  43  67  98 139 180 225 280 346 410
#     4  11  25  44  68  97 131 179 227 282 337 408
#
# _framework density 20.187465
#
# number of rings (size 3 to 8) (size 9 to 14) (size 15 to 20)
#    0.000    0.500    6.250    1.500    5.250    0.000 
#    0.000    0.000    0.000    0.000    0.000    0.000 
#    0.000    0.000    0.000    0.000    0.000    0.000 
#
# Total GULP energy -178758.481810 kJ/mol
# GULP energy per Si atom -5586.202557 kJ/mol
# Density = 2.014152 g / cm^3
# Si number density = 20.187465 Si / 1000 Ang^3
#
#
#
# Elastic Constant Matrix: (Units=GPa)
#
#
# Indices 1 2 3 4 5 6 
#
# 1 92.4407 45.6534 33.6999 0.0000 0.0000 0.0000
# 2 45.6534 98.5851 20.3933 0.0000 0.0000 0.0000
# 3 33.6999 20.3933 73.9260 0.0000 0.0000 0.0000
# 4 0.0000 0.0000 0.0000 20.8970 0.0000 0.0000
# 5 0.0000 0.0000 0.0000 0.0000 25.5329 0.0000
# 6 0.0000 0.0000 0.0000 0.0000 0.0000 38.7837
#
#
#
# Elastic Compliance Matrix: (Units=1/GPa)
#
#
# Indices 1 2 3 4 5 6 
#
# 1 0.015909 -0.006222 -0.005536 0.000000 0.000000 0.000000
# 2 -0.006222 0.013191 -0.000802 0.000000 0.000000 0.000000
# 3 -0.005536 -0.000802 0.016272 0.000000 0.000000 0.000000
# 4 0.000000 0.000000 0.000000 0.047854 0.000000 0.000000
# 5 0.000000 0.000000 0.000000 0.000000 0.039165 0.000000
# 6 0.000000 0.000000 0.000000 0.000000 0.000000 0.025784
#
#
# Mechanical properties :
#
#
# Convention : Reuss Voigt Hill
#
# Bulk Modulus (GPa) = 49.38013 51.60501 50.49257
# Shear Modulus (GPa) = 26.30954 28.05639 27.18297
#
# Velocity S-wave (km/s) = 3.61399 3.73204 3.67349
# Velocity P-wave (km/s) = 6.47522 6.64749 6.56192
#
# Compressibility (1/GPa) = 0.02025106
#
# Stress axis : x y z
#
# Youngs Moduli (GPa) = 62.85886 75.81023 61.45550
#
# Poissons Ratio (x) = 0.47169 0.34020
# Poissons Ratio (y) = 0.39111 0.04932
# Poissons Ratio (z) = 0.34797 0.06084
#
# Static dielectric constant tensor:
#      x y z
#    x 1.736460 0.000000 0.000000 
#    y 0.000000 1.716020 0.000000 
#    z 0.000000 0.000000 1.738330 
# 
# From -- ./inp_files/24977.got.cif
#   From: 2010.05.17/outbox.cif.g08.bks.cpg/sg20_13_cif.got.tgz:24977.got - 2010.06.03 22:52:26.
