data_PCOD9321558
_publ_section_title
;
Structure prediction by ZEFSAII (Michael W. Deem and Ramdas Pophale) SiO2 
 PCOD9321558
Probable space group: C 2 2 21
;
_chemical_formula_sum "Si O2"
_cell_formula_units_Z 40
_cell_length_a 9.223194
_cell_length_b 18.484480
_cell_length_c 11.112797
_cell_angle_alpha 90.000000
_cell_angle_beta 90.000000
_cell_angle_gamma 90.000000
_cell_volume 1894.575698
_symmetry_space_group_name_H-M "C 2 2 21"
_symmetry_group_IT_number 20
_symmetry_cell_setting 'orthorhombic'
loop_
_space_group_symop_operation_xyz
x,y,z
-x,-y,1/2+z
x,-y,-z
-x,y,1/2-z
1/2+x,1/2+y,z
1/2-x,1/2-y,1/2+z
1/2+x,1/2-y,-z
1/2-x,1/2+y,1/2-z
loop_
_atom_site_type_symbol
_atom_site_label
_atom_site_fract_x
_atom_site_fract_y
_atom_site_fract_z
Si Si1 0.738893 0.971147 0.132691
Si Si2 0.319878 0.046021 0.113734
Si Si3 0.736529 0.324653 0.469778
Si Si4 0.988759 0.922065 0.881612
Si Si5 0.530236 0.199950 0.383879
O O1 0.724708 0.884580 0.132052
O O2 0.677449 0.005897 0.255914
O O3 0.904938 0.001195 0.132467
O O4 0.685448 0.000000 0.000000
O O5 0.408680 0.119196 0.124284
O O6 0.153215 0.066567 0.080724
O O7 0.372107 0.000000 0.000000
O O8 0.618950 0.371295 0.545156
O O9 0.652916 0.252582 0.434642
O O10 0.881782 0.304242 0.541000
O O11 0.000000 0.887972 0.750000
O O12 0.500000 0.227003 0.250000
#
# Coordination Sequence:
#
# PCOD9321558 Si02
#       5
#     8   8   8   8   8
#     4   9  19  39  66  92 126 172 220 269 328 398
#     4  11  23  40  66  99 132 173 227 282 338 402
#     4  11  24  42  65  96 135 180 224 275 339 409
#     4   9  18  37  65  94 129 174 223 276 335 399
#     4  12  27  44  65  95 136 179 226 286 343 402
#
# _framework density 21.112905000000001
#
# number of rings (size 3 to 8) (size 9 to 14) (size 15 to 20)
#    0.000    1.600    0.000    6.600    0.000    9.600 
#    0.000    2.000    0.000    0.000    0.000    0.000 
#    0.000    0.000    0.000    0.000    0.000    0.000 
#
# Total GULP energy -111636.295997 kJ/mol
# GULP energy per Si atom -5581.814800 kJ/mol
# Density = 2.106485 g / cm^3
# Si number density = 21.112905 Si / 1000 Ang^3
#
#
#
# Elastic Constant Matrix: (Units=GPa)
#
#
# Indices 1 2 3 4 5 6 
#
# 1 160.4165 55.4931 57.5277 0.0000 0.0000 0.0000
# 2 55.4931 119.6492 70.2705 0.0000 0.0000 0.0000
# 3 57.5277 70.2705 125.8685 0.0000 0.0000 0.0000
# 4 0.0000 0.0000 0.0000 20.7517 0.0000 0.0000
# 5 0.0000 0.0000 0.0000 0.0000 -0.2825 0.0000
# 6 0.0000 0.0000 0.0000 0.0000 0.0000 5.6385
#
#
#
# Elastic Compliance Matrix: (Units=1/GPa)
#
#
# Indices 1 2 3 4 5 6 
#
# 1 0.007854 -0.002283 -0.002315 0.000000 0.000000 0.000000
# 2 -0.002283 0.013099 -0.006269 0.000000 0.000000 0.000000
# 3 -0.002315 -0.006269 0.012503 0.000000 0.000000 0.000000
# 4 0.000000 0.000000 0.000000 0.048189 0.000000 0.000000
# 5 0.000000 0.000000 0.000000 0.000000 -3.540045 0.000000
# 6 0.000000 0.000000 0.000000 0.000000 0.000000 0.177352
#
#
# Mechanical properties :
#
#
# Convention : Reuss Voigt Hill
#
# Bulk Modulus (GPa) = 85.31899 85.83519 85.57709
# Shear Modulus (GPa) = -1.53591 20.06442 9.26425
#
# Velocity S-wave (km/s) = -0.85385 3.08610 2.09702
# Velocity P-wave (km/s) = 6.28701 7.31042 6.81795
#
# Compressibility (1/GPa) = 0.01172072
#
# Stress axis : x y z
#
# Youngs Moduli (GPa) = 127.32863 76.34412 79.98133
#
# Poissons Ratio (x) = 0.17429 0.18515
# Poissons Ratio (y) = 0.29068 0.50143
# Poissons Ratio (z) = 0.29476 0.47863
#
# Static dielectric constant tensor:
#      x y z
#    x 1.776890 0.000000 0.000000 
#    y 0.000000 1.779780 0.000000 
#    z 0.000000 0.000000 1.847070 
# 
# From -- ./inp_files/12708.got.cif
#   From: 2010.05.17/outbox.cif.g08.bks.cpg/sg20_7_cif.got.tgz:12708.got - 2010.06.03 22:52:26.
