data_PCOD9321520
_publ_section_title
;
Structure prediction by ZEFSAII (Michael W. Deem and Ramdas Pophale) SiO2 
 PCOD9321520
Probable space group: C 2 2 21
;
_chemical_formula_sum "Si O2"
_cell_formula_units_Z 60
_cell_length_a 6.365629
_cell_length_b 23.178982
_cell_length_c 16.654800
_cell_angle_alpha 90.000000
_cell_angle_beta 90.000000
_cell_angle_gamma 90.000000
_cell_volume 2457.395754
_symmetry_space_group_name_H-M "C 2 2 21"
_symmetry_group_IT_number 20
_symmetry_cell_setting 'orthorhombic'
loop_
_space_group_symop_operation_xyz
x,y,z
-x,-y,1/2+z
x,-y,-z
-x,y,1/2-z
1/2+x,1/2+y,z
1/2-x,1/2-y,1/2+z
1/2+x,1/2-y,-z
1/2-x,1/2+y,1/2-z
loop_
_atom_site_type_symbol
_atom_site_label
_atom_site_fract_x
_atom_site_fract_y
_atom_site_fract_z
Si Si1 0.312632 0.211384 0.448645
Si Si2 0.749084 0.818350 0.229909
Si Si3 0.081051 0.759624 0.887513
Si Si4 0.871543 0.346573 0.830297
Si Si5 0.808273 0.000000 0.500000
Si Si6 0.692649 0.445577 0.305388
Si Si7 0.505180 0.031470 0.119178
Si Si8 0.662437 0.588132 0.505052
O O1 0.381955 0.255121 0.517054
O O2 0.508785 0.183644 0.404006
O O3 0.187218 0.154715 0.480813
O O4 0.170381 0.245056 0.384245
O O5 0.500000 0.799158 0.250000
O O6 0.730234 0.791416 0.141972
O O7 0.737887 0.887017 0.238657
O O8 0.000000 0.805069 0.250000
O O9 0.147306 0.816351 0.838246
O O10 0.885541 0.414431 0.843066
O O11 0.000000 0.332694 0.750000
O O12 0.661591 0.989613 0.423285
O O13 0.949922 0.055251 0.480219
O O14 0.500000 0.466303 0.250000
O O15 0.852905 0.497373 0.318528
O O16 0.664112 0.424476 0.398934
O O17 0.655220 0.056711 0.047713
#
# Coordination Sequence:
#
# PCOD9321520 Si02
#       8
#     8   8   8   8   4   8   8   8
#     4  11  25  44  72 102 138 185 246 310 366 462
#     4  11  28  48  76 114 155 200 247 319 392 456
#     4  12  24  46  73 104 140 193 252 308 377 461
#     4  11  27  47  68 104 149 188 247 312 385 452
#     4  12  20  38  80  96 134 194 236 302 368 442
#     4  11  23  46  71 107 149 188 245 315 383 463
#     4  11  24  46  70 102 142 189 247 303 374 463
#     4  11  22  45  64 105 141 180 243 298 376 441
#
# _framework density 24.416094000000001
#
# number of rings (size 3 to 8) (size 9 to 14) (size 15 to 20)
#    0.000    0.800    5.333    1.200    3.733    3.733 
#    7.200    0.000    0.000    0.000    0.000    0.000 
#    0.000    0.000    0.000    0.000    0.000    0.000 
#
# Total GULP energy -167211.025948 kJ/mol
# GULP energy per Si atom -5573.700865 kJ/mol
# Density = 2.436052 g / cm^3
# Si number density = 24.416094 Si / 1000 Ang^3
#
#
#
# Elastic Constant Matrix: (Units=GPa)
#
#
# Indices 1 2 3 4 5 6 
#
# 1 103.1425 14.4733 21.8063 0.0000 0.0000 0.0000
# 2 14.4733 88.5685 -0.4151 0.0000 0.0000 0.0000
# 3 21.8063 -0.4151 60.1466 0.0000 0.0000 0.0000
# 4 0.0000 0.0000 0.0000 26.3646 0.0000 0.0000
# 5 0.0000 0.0000 0.0000 0.0000 37.3428 0.0000
# 6 0.0000 0.0000 0.0000 0.0000 0.0000 10.1325
#
#
#
# Elastic Compliance Matrix: (Units=1/GPa)
#
#
# Indices 1 2 3 4 5 6 
#
# 1 0.010773 -0.001779 -0.003918 0.000000 0.000000 0.000000
# 2 -0.001779 0.011585 0.000725 0.000000 0.000000 0.000000
# 3 -0.003918 0.000725 0.018052 0.000000 0.000000 0.000000
# 4 0.000000 0.000000 0.000000 0.037930 0.000000 0.000000
# 5 0.000000 0.000000 0.000000 0.000000 0.026779 0.000000
# 6 0.000000 0.000000 0.000000 0.000000 0.000000 0.098693
#
#
# Mechanical properties :
#
#
# Convention : Reuss Voigt Hill
#
# Bulk Modulus (GPa) = 32.82416 35.95408 34.38912
# Shear Modulus (GPa) = 22.33035 29.16750 25.74893
#
# Velocity S-wave (km/s) = 3.02748 3.46005 3.25097
# Velocity P-wave (km/s) = 5.06889 5.54257 5.31102
#
# Compressibility (1/GPa) = 0.03046537
#
# Stress axis : x y z
#
# Youngs Moduli (GPa) = 92.82189 86.32014 55.39676
#
# Poissons Ratio (x) = 0.15355 0.21705
# Poissons Ratio (y) = 0.16512 -0.04016
# Poissons Ratio (z) = 0.36369 -0.06257
#
# Static dielectric constant tensor:
#      x y z
#    x 2.014000 0.000000 0.000000 
#    y 0.000000 1.928620 0.000000 
#    z 0.000000 0.000000 2.070590 
# 
# From -- ./inp_files/22908.got.cif
#   From: 2010.05.17/outbox.cif.g08.bks.cpg/sg20_12_cif.got.tgz:22908.got - 2010.06.03 22:52:26.
