data_PCOD9321613
_publ_section_title
;
Structure prediction by ZEFSAII (Michael W. Deem and Ramdas Pophale) SiO2 
 PCOD9321613
Probable space group: C 2 2 21
;
_chemical_formula_sum "Si O2"
_cell_formula_units_Z 44
_cell_length_a 6.768053
_cell_length_b 13.497214
_cell_length_c 25.451855
_cell_angle_alpha 90.000000
_cell_angle_beta 90.000000
_cell_angle_gamma 90.000000
_cell_volume 2325.023383
_symmetry_space_group_name_H-M "C 2 2 21"
_symmetry_group_IT_number 20
_symmetry_cell_setting 'orthorhombic'
loop_
_space_group_symop_operation_xyz
x,y,z
-x,-y,1/2+z
x,-y,-z
-x,y,1/2-z
1/2+x,1/2+y,z
1/2-x,1/2-y,1/2+z
1/2+x,1/2-y,-z
1/2-x,1/2+y,1/2-z
loop_
_atom_site_type_symbol
_atom_site_label
_atom_site_fract_x
_atom_site_fract_y
_atom_site_fract_z
Si Si1 0.262300 0.889039 0.984136
Si Si2 0.660163 0.501004 0.703408
Si Si3 0.525142 0.357177 0.613857
Si Si4 0.500000 0.138168 0.250000
Si Si5 0.584491 0.245796 0.070000
Si Si6 0.793112 0.219478 0.834770
O O1 0.452116 0.827607 0.965189
O O2 0.107855 0.888107 0.935822
O O3 0.165308 0.832538 0.033143
O O4 0.314544 0.000000 0.000000
O O5 0.500000 0.508233 0.750000
O O6 0.560888 0.447775 0.653362
O O7 0.839353 0.431249 0.721838
O O8 0.733963 0.610357 0.688454
O O9 0.732418 0.313890 0.594232
O O10 0.405909 0.271078 0.644500
O O11 0.610659 0.208101 0.291661
O O12 0.444724 0.285145 0.116415
#
# Coordination Sequence:
#
# PCOD9321613 Si02
#       6
#     8   8   8   4   8   8
#     4  11  24  43  68  96 132 174 218 266 326 390
#     4  12  25  42  68  94 127 174 215 264 336 382
#     4  11  24  44  67  97 134 168 218 275 320 389
#     4  12  24  42  64  96 126 166 220 264 318 400
#     4  11  23  44  67  96 133 172 219 267 324 389
#     4  11  25  43  67  95 131 169 215 272 321 386
#
# _framework density 18.924541000000001
#
# number of rings (size 3 to 8) (size 9 to 14) (size 15 to 20)
#    0.000    0.727    6.364    1.091    0.000    5.091 
#    0.000    0.000    0.000    0.000    0.000    0.000 
#    0.000    0.000    0.000    0.000    0.000    0.000 
#
# Total GULP energy -123078.650100 kJ/mol
# GULP energy per Si atom -5594.484095 kJ/mol
# Density = 1.888147 g / cm^3
# Si number density = 18.924541 Si / 1000 Ang^3
#
#
#
# Elastic Constant Matrix: (Units=GPa)
#
#
# Indices 1 2 3 4 5 6 
#
# 1 72.1673 32.6946 17.2325 0.0000 0.0000 0.0000
# 2 32.6946 144.3425 58.8736 0.0000 0.0000 0.0000
# 3 17.2325 58.8736 79.2704 0.0000 0.0000 0.0000
# 4 0.0000 0.0000 0.0000 9.5645 0.0000 0.0000
# 5 0.0000 0.0000 0.0000 0.0000 29.2542 0.0000
# 6 0.0000 0.0000 0.0000 0.0000 0.0000 13.5012
#
#
#
# Elastic Compliance Matrix: (Units=1/GPa)
#
#
# Indices 1 2 3 4 5 6 
#
# 1 0.015507 -0.003066 -0.001094 0.000000 0.000000 0.000000
# 2 -0.003066 0.010545 -0.007165 0.000000 0.000000 0.000000
# 3 -0.001094 -0.007165 0.018174 0.000000 0.000000 0.000000
# 4 0.000000 0.000000 0.000000 0.104553 0.000000 0.000000
# 5 0.000000 0.000000 0.000000 0.000000 0.034183 0.000000
# 6 0.000000 0.000000 0.000000 0.000000 0.000000 0.074068
#
#
# Mechanical properties :
#
#
# Convention : Reuss Voigt Hill
#
# Bulk Modulus (GPa) = 46.34782 57.04240 51.69511
# Shear Modulus (GPa) = 17.42934 22.92927 20.17931
#
# Velocity S-wave (km/s) = 3.03808 3.48460 3.26897
# Velocity P-wave (km/s) = 6.07047 6.81156 6.45167
#
# Compressibility (1/GPa) = 0.02157599
#
# Stress axis : x y z
#
# Youngs Moduli (GPa) = 64.48689 94.83187 55.02284
#
# Poissons Ratio (x) = 0.29079 0.06018
# Poissons Ratio (y) = 0.19774 0.39424
# Poissons Ratio (z) = 0.07053 0.67948
#
# Static dielectric constant tensor:
#      x y z
#    x 1.624920 0.000000 0.000000 
#    y 0.000000 1.607240 0.000000 
#    z 0.000000 0.000000 1.647360 
# 
# From -- ./inp_files/29776.got.cif
#   From: 2010.05.17/outbox.cif.g08.bks.cpg/sg20_15_cif.got.tgz:29776.got - 2010.06.03 22:52:26.
