data_PCOD9321957
_publ_section_title
;
Structure prediction by ZEFSAII (Michael W. Deem and Ramdas Pophale) SiO2 
 PCOD9321957
Probable space group: C 2 2 21
;
_chemical_formula_sum "Si O2"
_cell_formula_units_Z 48
_cell_length_a 7.866495
_cell_length_b 29.190955
_cell_length_c 8.719901
_cell_angle_alpha 90.000000
_cell_angle_beta 90.000000
_cell_angle_gamma 90.000000
_cell_volume 2002.355240
_symmetry_space_group_name_H-M "C 2 2 21"
_symmetry_group_IT_number 20
_symmetry_cell_setting 'orthorhombic'
loop_
_space_group_symop_operation_xyz
x,y,z
-x,-y,1/2+z
x,-y,-z
-x,y,1/2-z
1/2+x,1/2+y,z
1/2-x,1/2-y,1/2+z
1/2+x,1/2-y,-z
1/2-x,1/2+y,1/2-z
loop_
_atom_site_type_symbol
_atom_site_label
_atom_site_fract_x
_atom_site_fract_y
_atom_site_fract_z
Si Si1 0.000000 0.847847 0.250000
Si Si2 0.500000 0.058641 0.250000
Si Si3 0.458523 0.192038 0.434232
Si Si4 0.170017 0.500000 0.500000
Si Si5 0.000000 0.844009 0.750000
Si Si6 0.241953 0.896813 0.560618
Si Si7 0.291539 0.074732 0.749938
Si Si8 0.170788 0.790292 0.997410
O O1 0.834551 0.881220 0.265640
O O2 0.967432 0.813242 0.390444
O O3 0.666956 0.086779 0.214160
O O4 0.549082 0.029535 0.393994
O O5 0.500000 0.191907 0.250000
O O6 0.359537 0.146439 0.483344
O O7 0.635685 0.195451 0.525343
O O8 0.350353 0.236347 0.480975
O O9 0.254023 0.463856 0.378131
O O10 0.935309 0.877076 0.884470
O O11 0.866621 0.809987 0.672035
O O12 0.245336 0.934687 0.428719
O O13 0.500000 0.080737 0.750000
#
# Coordination Sequence:
#
# PCOD9321957 Si02
#       8
#     4   4   8   4   4   8   8   8
#     4  12  28  49  77 114 154 206 268 316 392 484
#     4  12  22  45  74 105 144 188 247 315 388 482
#     4  12  25  45  71 113 153 209 264 324 394 462
#     4  12  26  46  78 114 148 196 258 328 412 486
#     4  12  24  44  67 109 148 208 251 321 380 448
#     4  12  24  45  76 106 152 203 261 320 396 478
#     4  12  26  50  78 113 152 205 261 330 408 484
#     4  12  26  44  71 107 160 202 264 324 374 465
#
# _framework density 23.971769999999999
#
# number of rings (size 3 to 8) (size 9 to 14) (size 15 to 20)
#    0.000    0.000    7.500    2.000    2.333    0.000 
#    1.500    3.333    0.000    0.000    0.000    0.000 
#    0.000    0.000    0.000    0.000    0.000    0.000 
#
# Total GULP energy -133927.406544 kJ/mol
# GULP energy per Si atom -5580.308606 kJ/mol
# Density = 2.391721 g / cm^3
# Si number density = 23.971770 Si / 1000 Ang^3
#
#
#
# Elastic Constant Matrix: (Units=GPa)
#
#
# Indices 1 2 3 4 5 6 
#
# 1 82.4663 23.8805 25.0645 0.0000 0.0000 0.0000
# 2 23.8805 92.7435 39.8897 0.0000 0.0000 0.0000
# 3 25.0645 39.8897 106.3700 0.0000 0.0000 0.0000
# 4 0.0000 0.0000 0.0000 57.5210 0.0000 0.0000
# 5 0.0000 0.0000 0.0000 0.0000 37.1962 0.0000
# 6 0.0000 0.0000 0.0000 0.0000 0.0000 19.1260
#
#
#
# Elastic Compliance Matrix: (Units=1/GPa)
#
#
# Indices 1 2 3 4 5 6 
#
# 1 0.013538 -0.002520 -0.002245 0.000000 0.000000 0.000000
# 2 -0.002520 0.013325 -0.004403 0.000000 0.000000 0.000000
# 3 -0.002245 -0.004403 0.011581 0.000000 0.000000 0.000000
# 4 0.000000 0.000000 0.000000 0.017385 0.000000 0.000000
# 5 0.000000 0.000000 0.000000 0.000000 0.026884 0.000000
# 6 0.000000 0.000000 0.000000 0.000000 0.000000 0.052285
#
#
# Mechanical properties :
#
#
# Convention : Reuss Voigt Hill
#
# Bulk Modulus (GPa) = 49.73175 51.02771 50.37973
# Shear Modulus (GPa) = 31.24239 35.61831 33.43035
#
# Velocity S-wave (km/s) = 3.61404 3.85885 3.73845
# Velocity P-wave (km/s) = 6.18110 6.41771 6.30052
#
# Compressibility (1/GPa) = 0.02010788
#
# Stress axis : x y z
#
# Youngs Moduli (GPa) = 73.86433 75.04548 86.34559
#
# Poissons Ratio (x) = 0.18915 0.19384
# Poissons Ratio (y) = 0.18617 0.38020
# Poissons Ratio (z) = 0.16582 0.33044
#
# Static dielectric constant tensor:
#      x y z
#    x 1.937980 0.000000 0.000000 
#    y 0.000000 1.893630 0.000000 
#    z 0.000000 0.000000 2.087670 
# 
# From -- ./inp_files/6619.got.cif
#   From: 2010.05.17/outbox.cif.g08.bks.cpg/sg20_4_cif.got.tgz:6619.got - 2010.06.03 22:52:26.
