data_PCOD9321746
_publ_section_title
;
Structure prediction by ZEFSAII (Michael W. Deem and Ramdas Pophale) SiO2 
 PCOD9321746
Probable space group: C 2 2 21
;
_chemical_formula_sum "Si O2"
_cell_formula_units_Z 36
_cell_length_a 20.821812
_cell_length_b 12.594286
_cell_length_c 6.178467
_cell_angle_alpha 90.000000
_cell_angle_beta 90.000000
_cell_angle_gamma 90.000000
_cell_volume 1620.215579
_symmetry_space_group_name_H-M "C 2 2 21"
_symmetry_group_IT_number 20
_symmetry_cell_setting 'orthorhombic'
loop_
_space_group_symop_operation_xyz
x,y,z
-x,-y,1/2+z
x,-y,-z
-x,y,1/2-z
1/2+x,1/2+y,z
1/2-x,1/2-y,1/2+z
1/2+x,1/2-y,-z
1/2-x,1/2+y,1/2-z
loop_
_atom_site_type_symbol
_atom_site_label
_atom_site_fract_x
_atom_site_fract_y
_atom_site_fract_z
Si Si1 0.472336 0.500000 0.000000
Si Si2 0.277174 0.375005 0.947917
Si Si3 0.100498 0.199736 0.678933
Si Si4 0.155076 0.252432 0.095004
Si Si5 0.063275 0.615008 0.599813
O O1 0.500000 0.518901 0.250000
O O2 0.431800 0.395864 0.052430
O O3 0.307331 0.341246 0.718333
O O4 0.277775 0.500000 0.000000
O O5 0.324849 0.314039 0.112786
O O6 0.206860 0.325810 0.973624
O O7 0.064053 0.304166 0.600795
O O8 0.102724 0.199790 0.937073
O O9 0.119342 0.332879 0.255878
O O10 0.076249 0.500000 0.500000
O O11 0.000000 0.612060 0.750000
#
# Coordination Sequence:
#
# PCOD9321746 Si02
#       5
#     4   8   8   8   8
#     4  12  30  48  80 114 154 214 268 328 398 472
#     4  11  24  44  71 107 147 194 249 311 386 464
#     4  11  26  49  72 109 152 198 252 323 385 465
#     4  11  26  46  74 111 151 197 254 320 391 470
#     4  11  29  47  74 110 147 202 256 323 391 471
#
# _framework density 22.219265
#
# number of rings (size 3 to 8) (size 9 to 14) (size 15 to 20)
#    0.000    0.889    3.333    0.667   15.556    0.889 
#    0.000    0.000    0.000    0.000    0.000    0.000 
#    0.000    0.000    0.000    0.000    0.000    0.000 
#
# Total GULP energy -100437.348986 kJ/mol
# GULP energy per Si atom -5579.852721 kJ/mol
# Density = 2.216869 g / cm^3
# Si number density = 22.219265 Si / 1000 Ang^3
#
#
#
# Elastic Constant Matrix: (Units=GPa)
#
#
# Indices 1 2 3 4 5 6 
#
# 1 66.4656 31.5803 45.3150 0.0000 0.0000 0.0000
# 2 31.5803 173.5050 57.3211 0.0000 0.0000 0.0000
# 3 45.3150 57.3211 137.1939 0.0000 0.0000 0.0000
# 4 0.0000 0.0000 0.0000 34.0642 0.0000 0.0000
# 5 0.0000 0.0000 0.0000 0.0000 21.2323 0.0000
# 6 0.0000 0.0000 0.0000 0.0000 0.0000 26.6168
#
#
#
# Elastic Compliance Matrix: (Units=1/GPa)
#
#
# Indices 1 2 3 4 5 6 
#
# 1 0.019830 -0.001677 -0.005849 0.000000 0.000000 0.000000
# 2 -0.001677 0.006828 -0.002299 0.000000 0.000000 0.000000
# 3 -0.005849 -0.002299 0.010181 0.000000 0.000000 0.000000
# 4 0.000000 0.000000 0.000000 0.029356 0.000000 0.000000
# 5 0.000000 0.000000 0.000000 0.000000 0.047098 0.000000
# 6 0.000000 0.000000 0.000000 0.000000 0.000000 0.037570
#
#
# Mechanical properties :
#
#
# Convention : Reuss Voigt Hill
#
# Bulk Modulus (GPa) = 58.17512 71.73301 64.95407
# Shear Modulus (GPa) = 28.36967 32.57920 30.47443
#
# Velocity S-wave (km/s) = 3.57712 3.83333 3.70744
# Velocity P-wave (km/s) = 6.58029 7.20741 6.90098
#
# Compressibility (1/GPa) = 0.01718948
#
# Stress axis : x y z
#
# Youngs Moduli (GPa) = 50.42861 146.44962 98.21736
#
# Poissons Ratio (x) = 0.24559 0.57449
# Poissons Ratio (y) = 0.08457 0.22581
# Poissons Ratio (z) = 0.29497 0.33669
#
# Static dielectric constant tensor:
#      x y z
#    x 1.829580 0.000000 0.000000 
#    y 0.000000 1.739650 0.000000 
#    z 0.000000 0.000000 1.906910 
# 
# From -- ./inp_files/3543.got.cif
#   From: 2010.05.17/outbox.cif.g08.bks.cpg/sg20_2_cif.got.tgz:3543.got - 2010.06.03 22:52:26.
