data_PCOD9321468
_publ_section_title
;
Structure prediction by ZEFSAII (Michael W. Deem and Ramdas Pophale) SiO2 
 PCOD9321468
Probable space group: C 2 2 21
;
_chemical_formula_sum "Si O2"
_cell_formula_units_Z 40
_cell_length_a 13.566551
_cell_length_b 8.669703
_cell_length_c 15.980174
_cell_angle_alpha 90.000000
_cell_angle_beta 90.000000
_cell_angle_gamma 90.000000
_cell_volume 1879.555593
_symmetry_space_group_name_H-M "C 2 2 21"
_symmetry_group_IT_number 20
_symmetry_cell_setting 'orthorhombic'
loop_
_space_group_symop_operation_xyz
x,y,z
-x,-y,1/2+z
x,-y,-z
-x,y,1/2-z
1/2+x,1/2+y,z
1/2-x,1/2-y,1/2+z
1/2+x,1/2-y,-z
1/2-x,1/2+y,1/2-z
loop_
_atom_site_type_symbol
_atom_site_label
_atom_site_fract_x
_atom_site_fract_y
_atom_site_fract_z
Si Si1 0.613228 0.730294 0.475521
Si Si2 0.353823 0.453202 0.139611
Si Si3 0.750190 0.000000 0.500000
Si Si4 0.146063 0.546888 0.139616
Si Si5 0.387022 0.230132 0.524537
Si Si6 0.000000 0.750161 0.250000
O O1 0.664447 0.652266 0.556885
O O2 0.606498 0.611934 0.399120
O O3 0.500126 0.750217 0.502984
O O4 0.673291 0.885151 0.454013
O O5 0.249949 0.500072 0.180643
O O6 0.429124 0.360766 0.196279
O O7 0.827074 0.114873 0.454017
O O8 0.106322 0.388095 0.101002
O O9 0.070847 0.639533 0.196263
O O10 0.164289 0.652127 0.056796
#
# Coordination Sequence:
#
# PCOD9321468 Si02
#       6
#     8   8   4   8   8   4
#     4  11  22  41  78 108 134 179 246 291 344 418
#     4  11  23  49  69 102 143 187 240 293 342 428
#     4  12  20  38  76 110 132 174 224 310 352 384
#     4  11  23  49  69 102 143 187 240 293 342 428
#     4  11  22  41  78 108 134 179 246 291 344 418
#     4  12  28  48  70  98 156 190 226 300 364 404
#
# _framework density 21.281628000000001
#
# number of rings (size 3 to 8) (size 9 to 14) (size 15 to 20)
#    0.000    0.800    6.000    3.600    0.000    0.000 
#   10.800    0.000    0.000    0.000    0.000    0.000 
#    0.000    0.000    0.000    0.000    0.000    0.000 
#
# Total GULP energy -111586.239954 kJ/mol
# GULP energy per Si atom -5579.311998 kJ/mol
# Density = 2.123319 g / cm^3
# Si number density = 21.281628 Si / 1000 Ang^3
#
#
#
# Elastic Constant Matrix: (Units=GPa)
#
#
# Indices 1 2 3 4 5 6 
#
# 1 164.2525 79.5772 55.3522 0.0000 0.0000 0.0000
# 2 79.5772 161.3126 59.0663 0.0000 0.0000 0.0000
# 3 55.3522 59.0663 83.9057 0.0000 0.0000 0.0000
# 4 0.0000 0.0000 0.0000 2.7958 0.0000 0.0000
# 5 0.0000 0.0000 0.0000 0.0000 24.9441 0.0000
# 6 0.0000 0.0000 0.0000 0.0000 0.0000 52.0684
#
#
#
# Elastic Compliance Matrix: (Units=1/GPa)
#
#
# Indices 1 2 3 4 5 6 
#
# 1 0.008775 -0.002976 -0.003694 0.000000 0.000000 0.000000
# 2 -0.002976 0.009361 -0.004627 0.000000 0.000000 0.000000
# 3 -0.003694 -0.004627 0.017612 0.000000 0.000000 0.000000
# 4 0.000000 0.000000 0.000000 0.357682 0.000000 0.000000
# 5 0.000000 0.000000 0.000000 0.000000 0.040090 0.000000
# 6 0.000000 0.000000 0.000000 0.000000 0.000000 0.019206
#
#
# Mechanical properties :
#
#
# Convention : Reuss Voigt Hill
#
# Bulk Modulus (GPa) = 76.01623 88.60690 82.31156
# Shear Modulus (GPa) = 10.42311 30.32664 20.37488
#
# Velocity S-wave (km/s) = 2.21548 3.77903 3.09753
# Velocity P-wave (km/s) = 6.50701 7.79533 7.18013
#
# Compressibility (1/GPa) = 0.01315509
#
# Stress axis : x y z
#
# Youngs Moduli (GPa) = 113.96209 106.82061 56.78029
#
# Poissons Ratio (x) = 0.31793 0.20972
# Poissons Ratio (y) = 0.33919 0.26270
# Poissons Ratio (z) = 0.42092 0.49422
#
# Static dielectric constant tensor:
#      x y z
#    x 1.882630 0.000000 0.000000 
#    y 0.000000 1.800160 0.000000 
#    z 0.000000 0.000000 1.738660 
# 
# From -- ./inp_files/20506.got.cif
#   From: 2010.05.17/outbox.cif.g08.bks.cpg/sg20_11_cif.got.tgz:20506.got - 2010.06.03 22:52:26.
