data_PCOD9321369
_publ_section_title
;
Structure prediction by ZEFSAII (Michael W. Deem and Ramdas Pophale) SiO2 
 PCOD9321369
Probable space group: C 2 2 21
;
_chemical_formula_sum "Si O2"
_cell_formula_units_Z 48
_cell_length_a 9.553452
_cell_length_b 16.067925
_cell_length_c 14.188274
_cell_angle_alpha 90.000000
_cell_angle_beta 90.000000
_cell_angle_gamma 90.000000
_cell_volume 2177.958944
_symmetry_space_group_name_H-M "C 2 2 21"
_symmetry_group_IT_number 20
_symmetry_cell_setting 'orthorhombic'
loop_
_space_group_symop_operation_xyz
x,y,z
-x,-y,1/2+z
x,-y,-z
-x,y,1/2-z
1/2+x,1/2+y,z
1/2-x,1/2-y,1/2+z
1/2+x,1/2-y,-z
1/2-x,1/2+y,1/2-z
loop_
_atom_site_type_symbol
_atom_site_label
_atom_site_fract_x
_atom_site_fract_y
_atom_site_fract_z
Si Si1 0.500000 0.060714 0.250000
Si Si2 0.164563 0.585415 0.945912
Si Si3 0.621661 0.737896 0.326276
Si Si4 0.361315 0.932100 0.152328
Si Si5 0.049776 0.155898 0.528716
Si Si6 0.091540 0.306438 0.879790
Si Si7 0.856532 0.000000 0.500000
O O1 0.506086 0.122461 0.337660
O O2 0.370198 0.997852 0.237627
O O3 0.018030 0.570239 0.892819
O O4 0.193934 0.500000 0.000000
O O5 0.317315 0.617641 0.914173
O O6 0.130983 0.658948 0.018755
O O7 0.500000 0.719470 0.250000
O O8 0.656221 0.836255 0.320343
O O9 0.582940 0.710828 0.433940
O O10 0.771771 0.694274 0.313197
O O11 0.247152 0.968840 0.082231
O O12 0.971653 0.216422 0.601901
O O13 0.956613 0.080101 0.488600
#
# Coordination Sequence:
#
# PCOD9321369 Si02
#       7
#     4   8   8   8   8   8   4
#     4  12  26  40  66  96 138 174 222 280 336 398
#     4  11  21  42  67  95 129 174 227 274 334 400
#     4  11  25  44  66 100 140 177 224 280 348 399
#     4  12  23  41  69  95 130 178 222 277 336 403
#     4  11  25  43  72  98 134 180 228 281 334 407
#     4  11  24  43  65 101 131 180 228 275 341 407
#     4  12  24  42  68  98 126 170 238 272 332 408
#
# _framework density 22.038983999999999
#
# number of rings (size 3 to 8) (size 9 to 14) (size 15 to 20)
#    0.000    0.667    7.500    0.000    2.333    1.333 
#    0.000    0.000    1.833    0.000    0.000    0.000 
#    0.000    0.000    0.000    0.000    0.000    0.000 
#
# Total GULP energy -133690.328561 kJ/mol
# GULP energy per Si atom -5570.430357 kJ/mol
# Density = 2.198882 g / cm^3
# Si number density = 22.038984 Si / 1000 Ang^3
#
#
#
# Elastic Constant Matrix: (Units=GPa)
#
#
# Indices 1 2 3 4 5 6 
#
# 1 85.6266 34.8880 5.6209 0.0000 0.0000 0.0000
# 2 34.8880 125.6108 -1.5026 0.0000 0.0000 0.0000
# 3 5.6209 -1.5026 11.0844 0.0000 0.0000 0.0000
# 4 0.0000 0.0000 0.0000 29.9795 0.0000 0.0000
# 5 0.0000 0.0000 0.0000 0.0000 -1.0774 0.0000
# 6 0.0000 0.0000 0.0000 0.0000 0.0000 61.7831
#
#
#
# Elastic Compliance Matrix: (Units=1/GPa)
#
#
# Indices 1 2 3 4 5 6 
#
# 1 0.013766 -0.003913 -0.007511 0.000000 0.000000 0.000000
# 2 -0.003913 0.009086 0.003216 0.000000 0.000000 0.000000
# 3 -0.007511 0.003216 0.094461 0.000000 0.000000 0.000000
# 4 0.000000 0.000000 0.000000 0.033356 0.000000 0.000000
# 5 0.000000 0.000000 0.000000 0.000000 -0.928125 0.000000
# 6 0.000000 0.000000 0.000000 0.000000 0.000000 0.016186
#
#
# Mechanical properties :
#
#
# Convention : Reuss Voigt Hill
#
# Bulk Modulus (GPa) = 9.91107 33.37048 21.64078
# Shear Modulus (GPa) = -7.03018 30.35806 11.66394
#
# Velocity S-wave (km/s) = -1.78796 3.71546 2.30302
# Velocity P-wave (km/s) = 0.49438 5.79488 4.11248
#
# Compressibility (1/GPa) = 0.10089732
#
# Stress axis : x y z
#
# Youngs Moduli (GPa) = 72.64196 110.05344 10.58633
#
# Poissons Ratio (x) = 0.43068 0.07952
# Poissons Ratio (y) = 0.28427 -0.03405
# Poissons Ratio (z) = 0.54563 -0.35395
#
# Static dielectric constant tensor:
#      x y z
#    x 1.854160 0.000000 0.000000 
#    y 0.000000 1.789150 0.000000 
#    z 0.000000 0.000000 1.874000 
# 
# From -- ./inp_files/23510.got.cif
#   From: 2010.05.17/outbox.cif.g08.bks.cpg/sg20_12_cif.got.tgz:23510.got - 2010.06.03 22:52:26.
