data_PCOD9321515
_publ_section_title
;
Structure prediction by ZEFSAII (Michael W. Deem and Ramdas Pophale) SiO2 
 PCOD9321515
Probable space group: C 2 2 21
;
_chemical_formula_sum "Si O2"
_cell_formula_units_Z 60
_cell_length_a 11.945087
_cell_length_b 26.368095
_cell_length_c 8.716658
_cell_angle_alpha 90.000000
_cell_angle_beta 90.000000
_cell_angle_gamma 90.000000
_cell_volume 2745.478699
_symmetry_space_group_name_H-M "C 2 2 21"
_symmetry_group_IT_number 20
_symmetry_cell_setting 'orthorhombic'
loop_
_space_group_symop_operation_xyz
x,y,z
-x,-y,1/2+z
x,-y,-z
-x,y,1/2-z
1/2+x,1/2+y,z
1/2-x,1/2-y,1/2+z
1/2+x,1/2-y,-z
1/2-x,1/2+y,1/2-z
loop_
_atom_site_type_symbol
_atom_site_label
_atom_site_fract_x
_atom_site_fract_y
_atom_site_fract_z
Si Si1 0.972376 0.700160 0.435543
Si Si2 0.926131 0.099768 0.005453
Si Si3 0.292861 0.441006 0.291195
Si Si4 0.302598 0.846735 0.032206
Si Si5 0.618272 0.022357 0.166871
Si Si6 0.571889 0.311165 0.094169
Si Si7 0.032105 0.000000 0.000000
Si Si8 0.279860 0.865050 0.673621
O O1 0.960619 0.758412 0.485161
O O2 0.855015 0.670683 0.434862
O O3 0.000000 0.698896 0.250000
O O4 0.069928 0.672924 0.532441
O O5 0.855690 0.087306 0.849804
O O6 0.032967 0.135787 0.980111
O O7 0.844737 0.130637 0.113768
O O8 0.956538 0.044473 0.070706
O O9 0.221029 0.401114 0.390918
O O10 0.208637 0.484799 0.240116
O O11 0.390142 0.469012 0.384935
O O12 0.278689 0.848579 0.850151
O O13 0.206197 0.812125 0.109253
O O14 0.500000 0.023042 0.250000
O O15 0.666146 0.079067 0.164368
O O16 0.599072 0.000000 0.000000
O O17 0.500000 0.310785 0.250000
#
# Coordination Sequence:
#
# PCOD9321515 Si02
#       8
#     8   8   8   8   8   8   4   8
#     4   9  23  44  74  98 137 181 231 289 354 405
#     4  12  24  44  67 101 146 177 230 279 353 406
#     4  12  25  44  68 103 136 185 226 284 341 417
#     4  11  23  44  73 101 135 182 239 281 350 411
#     4  12  27  44  69 100 138 181 230 277 342 415
#     4  11  22  44  71 103 134 184 228 295 347 414
#     4  12  24  40  68 100 134 180 228 276 344 414
#     4  11  25  46  68 101 142 184 225 293 343 414
#
# _framework density 21.854113999999999
#
# number of rings (size 3 to 8) (size 9 to 14) (size 15 to 20)
#    0.000    0.800    4.000    3.200    6.533    1.600 
#    0.000    0.000    2.933    0.000    0.000    0.000 
#    0.000    0.000    0.000    0.000    0.000    0.000 
#
# Total GULP energy -167733.621347 kJ/mol
# GULP energy per Si atom -5591.120712 kJ/mol
# Density = 2.180437 g / cm^3
# Si number density = 21.854114 Si / 1000 Ang^3
#
#
#
# Elastic Constant Matrix: (Units=GPa)
#
#
# Indices 1 2 3 4 5 6 
#
# 1 59.0213 39.3181 -0.0155 0.0000 0.0000 0.0000
# 2 39.3181 127.2683 5.5740 0.0000 0.0000 0.0000
# 3 -0.0155 5.5740 32.3828 0.0000 0.0000 0.0000
# 4 0.0000 0.0000 0.0000 8.2853 0.0000 0.0000
# 5 0.0000 0.0000 0.0000 0.0000 37.9646 0.0000
# 6 0.0000 0.0000 0.0000 0.0000 0.0000 34.2033
#
#
#
# Elastic Compliance Matrix: (Units=1/GPa)
#
#
# Indices 1 2 3 4 5 6 
#
# 1 0.021376 -0.006655 0.001156 0.000000 0.000000 0.000000
# 2 -0.006655 0.009989 -0.001723 0.000000 0.000000 0.000000
# 3 0.001156 -0.001723 0.031178 0.000000 0.000000 0.000000
# 4 0.000000 0.000000 0.000000 0.120696 0.000000 0.000000
# 5 0.000000 0.000000 0.000000 0.000000 0.026340 0.000000
# 6 0.000000 0.000000 0.000000 0.000000 0.000000 0.029237
#
#
# Mechanical properties :
#
#
# Convention : Reuss Voigt Hill
#
# Bulk Modulus (GPa) = 20.79008 34.26950 27.52979
# Shear Modulus (GPa) = 18.56718 27.67702 23.12210
#
# Velocity S-wave (km/s) = 2.91795 3.56257 3.25625
# Velocity P-wave (km/s) = 4.57016 5.71294 5.17320
#
# Compressibility (1/GPa) = 0.04809986
#
# Stress axis : x y z
#
# Youngs Moduli (GPa) = 46.78047 100.11282 32.07429
#
# Poissons Ratio (x) = 0.66621 -0.03707
# Poissons Ratio (y) = 0.31131 0.05525
# Poissons Ratio (z) = -0.05406 0.17245
#
# Static dielectric constant tensor:
#      x y z
#    x 1.785730 0.000000 0.000000 
#    y 0.000000 1.769480 0.000000 
#    z 0.000000 0.000000 1.833920 
# 
# From -- ./inp_files/7562.got.cif
#   From: 2010.05.17/outbox.cif.g08.bks.cpg/sg20_4_cif.got.tgz:7562.got - 2010.06.03 22:52:26.
