data_PCOD9321453
_publ_section_title
;
Structure prediction by ZEFSAII (Michael W. Deem and Ramdas Pophale) SiO2 
 PCOD9321453
Probable space group: C 2 2 21
;
_chemical_formula_sum "Si O2"
_cell_formula_units_Z 32
_cell_length_a 10.582928
_cell_length_b 9.793180
_cell_length_c 12.769518
_cell_angle_alpha 90.000000
_cell_angle_beta 90.000000
_cell_angle_gamma 90.000000
_cell_volume 1323.439471
_symmetry_space_group_name_H-M "C 2 2 21"
_symmetry_group_IT_number 20
_symmetry_cell_setting 'orthorhombic'
loop_
_space_group_symop_operation_xyz
x,y,z
-x,-y,1/2+z
x,-y,-z
-x,y,1/2-z
1/2+x,1/2+y,z
1/2-x,1/2-y,1/2+z
1/2+x,1/2-y,-z
1/2-x,1/2+y,1/2-z
loop_
_atom_site_type_symbol
_atom_site_label
_atom_site_fract_x
_atom_site_fract_y
_atom_site_fract_z
Si Si1 0.934583 0.190335 0.409091
Si Si2 0.436312 0.393563 0.354164
Si Si3 0.933663 0.493926 0.386755
Si Si4 0.301542 0.939856 0.822495
O O1 0.944889 0.181057 0.534818
O O2 0.973378 0.336449 0.367585
O O3 0.995051 0.047845 0.368859
O O4 0.790620 0.175498 0.367161
O O5 0.500000 0.334081 0.250000
O O6 0.287905 0.427164 0.338046
O O7 0.871116 0.500000 0.500000
O O8 0.845974 0.556512 0.297461
O O9 0.069842 0.564232 0.386673
#
# Coordination Sequence:
#
# PCOD9321453 Si02
#       4
#     8   8   8   8
#     4   9  21  42  66  96 139 173 227 294 329 421
#     4   9  19  43  63  98 137 181 224 279 357 398
#     4  11  22  41  67 102 130 181 237 276 359 417
#     4   9  22  43  63  99 136 175 225 284 347 405
#
# _framework density 24.179421999999999
#
# number of rings (size 3 to 8) (size 9 to 14) (size 15 to 20)
#    1.500    1.000    0.000    1.500    3.500    2.000 
#   18.000    0.000    0.000    0.000    0.000    0.000 
#    0.000    0.000    0.000    0.000    0.000    0.000 
#
# Total GULP energy -89253.786601 kJ/mol
# GULP energy per Si atom -5578.361663 kJ/mol
# Density = 2.412439 g / cm^3
# Si number density = 24.179422 Si / 1000 Ang^3
#
#
#
# Elastic Constant Matrix: (Units=GPa)
#
#
# Indices 1 2 3 4 5 6 
#
# 1 46.4601 11.1229 22.7881 0.0000 0.0000 0.0000
# 2 11.1229 81.6895 14.8620 0.0000 0.0000 0.0000
# 3 22.7881 14.8620 197.5201 0.0000 0.0000 0.0000
# 4 0.0000 0.0000 0.0000 17.1193 0.0000 0.0000
# 5 0.0000 0.0000 0.0000 0.0000 10.0461 0.0000
# 6 0.0000 0.0000 0.0000 0.0000 0.0000 -0.3928
#
#
#
# Elastic Compliance Matrix: (Units=1/GPa)
#
#
# Indices 1 2 3 4 5 6 
#
# 1 0.023401 -0.002733 -0.002494 0.000000 0.000000 0.000000
# 2 -0.002733 0.012730 -0.000643 0.000000 0.000000 0.000000
# 3 -0.002494 -0.000643 0.005399 0.000000 0.000000 0.000000
# 4 0.000000 0.000000 0.000000 0.058414 0.000000 0.000000
# 5 0.000000 0.000000 0.000000 0.000000 0.099541 0.000000
# 6 0.000000 0.000000 0.000000 0.000000 0.000000 -2.545677
#
#
# Mechanical properties :
#
#
# Convention : Reuss Voigt Hill
#
# Bulk Modulus (GPa) = 33.56614 47.02398 40.29506
# Shear Modulus (GPa) = -2.15098 23.81430 10.83166
#
# Velocity S-wave (km/s) = -0.94420 3.14172 2.11883
# Velocity P-wave (km/s) = 3.56701 5.71408 4.76310
#
# Compressibility (1/GPa) = 0.02979192
#
# Stress axis : x y z
#
# Youngs Moduli (GPa) = 42.73237 78.55180 185.22321
#
# Poissons Ratio (x) = 0.21465 0.46199
# Poissons Ratio (y) = 0.11677 0.11903
# Poissons Ratio (z) = 0.10659 0.05048
#
# Static dielectric constant tensor:
#      x y z
#    x 1.855600 0.000000 0.000000 
#    y 0.000000 2.014480 0.000000 
#    z 0.000000 0.000000 1.936980 
# 
# From -- ./inp_files/19489.got.cif
#   From: 2010.05.17/outbox.cif.g08.bks.cpg/sg20_10_cif.got.tgz:19489.got - 2010.06.03 22:52:26.
