data_PCOD9321485
_publ_section_title
;
Structure prediction by ZEFSAII (Michael W. Deem and Ramdas Pophale) SiO2 
 PCOD9321485
Probable space group: C 2 2 21
;
_chemical_formula_sum "Si O2"
_cell_formula_units_Z 36
_cell_length_a 11.496648
_cell_length_b 12.002093
_cell_length_c 11.379380
_cell_angle_alpha 90.000000
_cell_angle_beta 90.000000
_cell_angle_gamma 90.000000
_cell_volume 1570.170532
_symmetry_space_group_name_H-M "C 2 2 21"
_symmetry_group_IT_number 20
_symmetry_cell_setting 'orthorhombic'
loop_
_space_group_symop_operation_xyz
x,y,z
-x,-y,1/2+z
x,-y,-z
-x,y,1/2-z
1/2+x,1/2+y,z
1/2-x,1/2-y,1/2+z
1/2+x,1/2-y,-z
1/2-x,1/2+y,1/2-z
loop_
_atom_site_type_symbol
_atom_site_label
_atom_site_fract_x
_atom_site_fract_y
_atom_site_fract_z
Si Si1 0.000000 0.952395 0.250000
Si Si2 0.540393 0.358975 0.913450
Si Si3 0.884492 0.628951 0.706064
Si Si4 0.831278 0.149656 0.933067
Si Si5 0.765202 0.623489 0.956764
O O1 0.915849 0.877970 0.173376
O O2 0.926012 0.041474 0.326843
O O3 0.561705 0.241796 0.850698
O O4 0.407873 0.383108 0.952640
O O5 0.626999 0.361730 0.023731
O O6 0.791654 0.594876 0.605070
O O7 0.810092 0.645259 0.825298
O O8 0.000000 0.562979 0.750000
O O9 0.813972 0.281107 0.956124
O O10 0.798458 0.500000 0.000000
#
# Coordination Sequence:
#
# PCOD9321485 Si02
#       5
#     4   8   8   8   8
#     4  12  22  42  68 104 130 170 234 288 324 390
#     4  11  22  42  71  95 129 176 231 286 330 388
#     4  11  22  43  65  95 136 175 217 279 342 396
#     4  11  23  38  67  98 127 173 228 271 332 398
#     4  11  23  42  65  93 135 181 222 276 340 401
#
# _framework density 22.927444999999999
#
# number of rings (size 3 to 8) (size 9 to 14) (size 15 to 20)
#    0.000    0.889    3.333    4.667    0.000    0.000 
#    2.000    2.222    4.889    0.000    0.000    0.000 
#    0.000    0.000    0.000    0.000    0.000    0.000 
#
# Total GULP energy -100359.857001 kJ/mol
# GULP energy per Si atom -5575.547611 kJ/mol
# Density = 2.287526 g / cm^3
# Si number density = 22.927445 Si / 1000 Ang^3
#
#
#
# Elastic Constant Matrix: (Units=GPa)
#
#
# Indices 1 2 3 4 5 6 
#
# 1 120.1767 19.3636 68.2318 0.0000 0.0000 0.0000
# 2 19.3636 64.6673 13.7104 0.0000 0.0000 0.0000
# 3 68.2318 13.7104 104.0072 0.0000 0.0000 0.0000
# 4 0.0000 0.0000 0.0000 25.9762 0.0000 0.0000
# 5 0.0000 0.0000 0.0000 0.0000 62.7225 0.0000
# 6 0.0000 0.0000 0.0000 0.0000 0.0000 23.0009
#
#
#
# Elastic Compliance Matrix: (Units=1/GPa)
#
#
# Indices 1 2 3 4 5 6 
#
# 1 0.013568 -0.002238 -0.008606 0.000000 0.000000 0.000000
# 2 -0.002238 0.016278 -0.000677 0.000000 0.000000 0.000000
# 3 -0.008606 -0.000677 0.015350 0.000000 0.000000 0.000000
# 4 0.000000 0.000000 0.000000 0.038497 0.000000 0.000000
# 5 0.000000 0.000000 0.000000 0.000000 0.015943 0.000000
# 6 0.000000 0.000000 0.000000 0.000000 0.000000 0.043477
#
#
# Mechanical properties :
#
#
# Convention : Reuss Voigt Hill
#
# Bulk Modulus (GPa) = 45.14217 54.60697 49.87457
# Shear Modulus (GPa) = 28.81206 34.84296 31.82751
#
# Velocity S-wave (km/s) = 3.54879 3.90257 3.72988
# Velocity P-wave (km/s) = 6.04349 6.64648 6.35214
#
# Compressibility (1/GPa) = 0.02215224
#
# Stress axis : x y z
#
# Youngs Moduli (GPa) = 73.70417 61.43424 65.14787
#
# Poissons Ratio (x) = 0.13749 0.56065
# Poissons Ratio (y) = 0.16496 0.04414
# Poissons Ratio (z) = 0.63428 0.04162
#
# Static dielectric constant tensor:
#      x y z
#    x 1.965570 0.000000 0.000000 
#    y 0.000000 1.832550 0.000000 
#    z 0.000000 0.000000 1.935270 
# 
# From -- ./inp_files/13684.got.cif
#   From: 2010.05.17/outbox.cif.g08.bks.cpg/sg20_7_cif.got.tgz:13684.got - 2010.06.03 22:52:26.
