data_PCOD9321863
_publ_section_title
;
Structure prediction by ZEFSAII (Michael W. Deem and Ramdas Pophale) SiO2 
 PCOD9321863
Probable space group: C 2 2 21
;
_chemical_formula_sum "Si O2"
_cell_formula_units_Z 32
_cell_length_a 8.880325
_cell_length_b 30.254729
_cell_length_c 5.036912
_cell_angle_alpha 90.000000
_cell_angle_beta 90.000000
_cell_angle_gamma 90.000000
_cell_volume 1353.276346
_symmetry_space_group_name_H-M "C 2 2 21"
_symmetry_group_IT_number 20
_symmetry_cell_setting 'orthorhombic'
loop_
_space_group_symop_operation_xyz
x,y,z
-x,-y,1/2+z
x,-y,-z
-x,y,1/2-z
1/2+x,1/2+y,z
1/2-x,1/2-y,1/2+z
1/2+x,1/2-y,-z
1/2-x,1/2+y,1/2-z
loop_
_atom_site_type_symbol
_atom_site_label
_atom_site_fract_x
_atom_site_fract_y
_atom_site_fract_z
Si Si1 0.329326 0.868487 0.346734
Si Si2 0.330055 0.231137 0.634718
Si Si3 0.103574 0.086782 0.996256
Si Si4 0.325563 0.041272 0.323031
O O1 0.500000 0.871864 0.250000
O O2 0.314083 0.819693 0.462947
O O3 0.209404 0.873879 0.109532
O O4 0.309698 0.911360 0.530439
O O5 0.500000 0.237787 0.750000
O O6 0.281965 0.260211 0.382341
O O7 0.000000 0.073987 0.750000
O O8 0.218550 0.048220 0.073406
O O9 0.000000 0.097323 0.250000
O O10 0.500000 0.035411 0.250000
O O11 0.279365 0.000000 0.500000
#
# Coordination Sequence:
#
# PCOD9321863 Si02
#       4
#     8   8   8   8
#     4  11  25  49  78 109 152 206 259 315 378 461
#     4  11  27  48  77 111 152 199 255 321 386 460
#     4  12  27  49  74 113 153 198 247 318 387 443
#     4  12  27  49  82 114 153 208 268 310 369 464
#
# _framework density 23.646315000000001
#
# number of rings (size 3 to 8) (size 9 to 14) (size 15 to 20)
#    0.000    0.500    5.000    1.500    3.500    3.000 
#    4.500    0.000    0.000    0.000    0.000    0.000 
#    0.000    0.000    0.000    0.000    0.000    0.000 
#
# Total GULP energy -89575.419628 kJ/mol
# GULP energy per Si atom -5598.463727 kJ/mol
# Density = 2.359249 g / cm^3
# Si number density = 23.646315 Si / 1000 Ang^3
#
#
#
# Elastic Constant Matrix: (Units=GPa)
#
#
# Indices 1 2 3 4 5 6 
#
# 1 138.5871 22.8499 41.0074 0.0000 0.0000 0.0000
# 2 22.8499 135.1713 33.9882 0.0000 0.0000 0.0000
# 3 41.0074 33.9882 114.7620 0.0000 0.0000 0.0000
# 4 0.0000 0.0000 0.0000 39.9090 0.0000 0.0000
# 5 0.0000 0.0000 0.0000 0.0000 36.8743 0.0000
# 6 0.0000 0.0000 0.0000 0.0000 0.0000 629.8355
#
#
#
# Elastic Compliance Matrix: (Units=1/GPa)
#
#
# Indices 1 2 3 4 5 6 
#
# 1 0.008129 -0.000696 -0.002699 0.000000 0.000000 0.000000
# 2 -0.000696 0.008053 -0.002136 0.000000 0.000000 0.000000
# 3 -0.002699 -0.002136 0.010311 0.000000 0.000000 0.000000
# 4 0.000000 0.000000 0.000000 0.025057 0.000000 0.000000
# 5 0.000000 0.000000 0.000000 0.000000 0.027119 0.000000
# 6 0.000000 0.000000 0.000000 0.000000 0.000000 0.001588
#
#
# Mechanical properties :
#
#
# Convention : Reuss Voigt Hill
#
# Bulk Modulus (GPa) = 64.80402 64.91237 64.85820
# Shear Modulus (GPa) = 51.83434 160.70211 106.26822
#
# Velocity S-wave (km/s) = 4.68703 8.25277 6.71106
# Velocity P-wave (km/s) = 7.53366 10.87759 9.35623
#
# Compressibility (1/GPa) = 0.01543114
#
# Stress axis : x y z
#
# Youngs Moduli (GPa) = 123.01812 124.18056 96.98663
#
# Poissons Ratio (x) = 0.08638 0.26173
# Poissons Ratio (y) = 0.08557 0.20720
# Poissons Ratio (z) = 0.33198 0.26530
#
# Static dielectric constant tensor:
#      x y z
#    x 1.912350 0.000000 0.000000 
#    y 0.000000 1.897530 0.000000 
#    z 0.000000 0.000000 0.175180 
# 
# From -- ./inp_files/674.got.cif
#   From: 2010.05.17/outbox.cif.g08.bks.cpg/sg20_1_cif.got.tgz:674.got - 2010.06.03 22:52:26.
