data_PCOD9321055
_publ_section_title
;
Structure prediction by ZEFSAII (Michael W. Deem and Ramdas Pophale) SiO2 
 PCOD9321055
Probable space group: C 2 2 21
;
_chemical_formula_sum "Si O2"
_cell_formula_units_Z 28
_cell_length_a 24.336029
_cell_length_b 8.538307
_cell_length_c 5.352507
_cell_angle_alpha 90.000000
_cell_angle_beta 90.000000
_cell_angle_gamma 90.000000
_cell_volume 1112.189330
_symmetry_space_group_name_H-M "C 2 2 21"
_symmetry_group_IT_number 20
_symmetry_cell_setting 'orthorhombic'
loop_
_space_group_symop_operation_xyz
x,y,z
-x,-y,1/2+z
x,-y,-z
-x,y,1/2-z
1/2+x,1/2+y,z
1/2-x,1/2-y,1/2+z
1/2+x,1/2-y,-z
1/2-x,1/2+y,1/2-z
loop_
_atom_site_type_symbol
_atom_site_label
_atom_site_fract_x
_atom_site_fract_y
_atom_site_fract_z
Si Si1 0.724791 0.897842 0.747710
Si Si2 0.839137 0.818680 0.550029
Si Si3 0.059367 0.171022 0.380922
Si Si4 0.966575 0.500000 0.000000
O O1 0.783574 0.813215 0.716967
O O2 0.715851 0.000000 0.500000
O O3 0.677036 0.774228 0.802005
O O4 0.726177 0.000000 0.000000
O O5 0.894693 0.773408 0.683135
O O6 0.845676 0.000000 0.500000
O O7 0.058362 0.326207 0.554853
O O8 0.000000 0.143223 0.250000
O O9 0.074093 0.000000 0.500000
O O10 0.000000 0.533017 0.750000
#
# Coordination Sequence:
#
# PCOD9321055 Si02
#       4
#     8   8   8   4
#     4  11  25  48  74 114 159 210 267 327 401 478
#     4  11  24  47  78 114 162 205 265 330 399 485
#     4  11  24  47  80 119 164 208 271 327 414 474
#     4  10  24  50  78 112 162 206 266 326 392 482
#
# _framework density 25.17557
#
# number of rings (size 3 to 8) (size 9 to 14) (size 15 to 20)
#    0.000    1.143    0.000    6.000    0.000    4.571 
#   25.714    0.000    0.000    0.000    0.000    0.000 
#    0.000    0.000    0.000    0.000    0.000    0.000 
#
# Total GULP energy -78261.660342 kJ/mol
# GULP energy per Si atom -5590.118596 kJ/mol
# Density = 2.511827 g / cm^3
# Si number density = 25.175570 Si / 1000 Ang^3
#
#
#
# Elastic Constant Matrix: (Units=GPa)
#
#
# Indices 1 2 3 4 5 6 
#
# 1 115.9859 3.8055 45.5606 0.0000 0.0000 0.0000
# 2 3.8055 148.3109 45.5610 0.0000 0.0000 0.0000
# 3 45.5606 45.5610 136.3927 0.0000 0.0000 0.0000
# 4 0.0000 0.0000 0.0000 45.2897 0.0000 0.0000
# 5 0.0000 0.0000 0.0000 0.0000 56.4611 0.0000
# 6 0.0000 0.0000 0.0000 0.0000 0.0000 -0.7342
#
#
#
# Elastic Compliance Matrix: (Units=1/GPa)
#
#
# Indices 1 2 3 4 5 6 
#
# 1 0.010021 0.000859 -0.003635 0.000000 0.000000 0.000000
# 2 0.000859 0.007587 -0.002822 0.000000 0.000000 0.000000
# 3 -0.003635 -0.002822 0.009488 0.000000 0.000000 0.000000
# 4 0.000000 0.000000 0.000000 0.022080 0.000000 0.000000
# 5 0.000000 0.000000 0.000000 0.000000 0.017711 0.000000
# 6 0.000000 0.000000 0.000000 0.000000 0.000000 -1.362106
#
#
# Mechanical properties :
#
#
# Convention : Reuss Voigt Hill
#
# Bulk Modulus (GPa) = 62.87933 65.61600 64.24767
# Shear Modulus (GPa) = -3.91015 40.58749 18.33867
#
# Velocity S-wave (km/s) = -1.24761 4.01955 2.70187
# Velocity P-wave (km/s) = 4.79116 6.90379 5.94212
#
# Compressibility (1/GPa) = 0.01590348
#
# Stress axis : x y z
#
# Youngs Moduli (GPa) = 99.78803 131.79878 105.39200
#
# Poissons Ratio (x) = -0.11327 0.38305
# Poissons Ratio (y) = -0.08576 0.29737
# Poissons Ratio (z) = 0.36269 0.37188
#
# Static dielectric constant tensor:
#      x y z
#    x 2.016260 0.000000 0.000000 
#    y 0.000000 2.035550 0.000000 
#    z 0.000000 0.000000 2.039850 
# 
# From -- ./inp_files/3983.got.cif
#   From: 2010.05.17/outbox.cif.g08.bks.cpg/sg20_2_cif.got.tgz:3983.got - 2010.06.03 22:52:26.
