data_PCOD9321540
_publ_section_title
;
Structure prediction by ZEFSAII (Michael W. Deem and Ramdas Pophale) SiO2 
 PCOD9321540
Probable space group: C 2 2 21
;
_chemical_formula_sum "Si O2"
_cell_formula_units_Z 36
_cell_length_a 13.138637
_cell_length_b 23.798049
_cell_length_c 5.338765
_cell_angle_alpha 90.000000
_cell_angle_beta 90.000000
_cell_angle_gamma 90.000000
_cell_volume 1669.292619
_symmetry_space_group_name_H-M "C 2 2 21"
_symmetry_group_IT_number 20
_symmetry_cell_setting 'orthorhombic'
loop_
_space_group_symop_operation_xyz
x,y,z
-x,-y,1/2+z
x,-y,-z
-x,y,1/2-z
1/2+x,1/2+y,z
1/2-x,1/2-y,1/2+z
1/2+x,1/2-y,-z
1/2-x,1/2+y,1/2-z
loop_
_atom_site_type_symbol
_atom_site_label
_atom_site_fract_x
_atom_site_fract_y
_atom_site_fract_z
Si Si1 0.000000 0.643406 0.250000
Si Si2 0.101805 0.446299 0.376316
Si Si3 0.106535 0.280759 0.111702
Si Si4 0.885452 0.852654 0.668885
Si Si5 0.265059 0.368834 0.181525
O O1 0.058870 0.601968 0.439609
O O2 0.914049 0.685850 0.355227
O O3 0.177659 0.415956 0.186858
O O4 0.000000 0.469658 0.250000
O O5 0.846097 0.500000 0.000000
O O6 0.114984 0.214218 0.110480
O O7 0.204656 0.310291 0.229249
O O8 0.000000 0.293672 0.250000
O O9 0.840880 0.879273 0.414453
O O10 0.000000 0.868230 0.750000
O O11 0.818398 0.864915 0.913942
#
# Coordination Sequence:
#
# PCOD9321540 Si02
#       5
#     4   8   8   8   8
#     4  12  20  40  64 100 154 182 226 278 360 446
#     4  12  25  41  70 104 145 190 231 299 373 450
#     4  11  23  36  64  98 141 182 221 279 357 443
#     4  11  27  42  65  94 137 187 241 293 345 413
#     4  12  23  44  65  98 135 184 241 288 351 425
#
# _framework density 21.566022
#
# number of rings (size 3 to 8) (size 9 to 14) (size 15 to 20)
#    0.000    0.444    5.556    3.333    6.222    0.000 
#    0.000    0.000    0.000    2.667    0.000    0.000 
#    0.000    0.000    0.000    0.000    0.000    0.000 
#
# Total GULP energy -100603.721086 kJ/mol
# GULP energy per Si atom -5589.095616 kJ/mol
# Density = 2.151694 g / cm^3
# Si number density = 21.566022 Si / 1000 Ang^3
#
#
#
# Elastic Constant Matrix: (Units=GPa)
#
#
# Indices 1 2 3 4 5 6 
#
# 1 99.5371 11.0764 33.2454 0.0000 0.0000 0.0000
# 2 11.0764 65.3440 22.8934 0.0000 0.0000 0.0000
# 3 33.2454 22.8934 104.0619 0.0000 0.0000 0.0000
# 4 0.0000 0.0000 0.0000 33.7756 0.0000 0.0000
# 5 0.0000 0.0000 0.0000 0.0000 53.4044 0.0000
# 6 0.0000 0.0000 0.0000 0.0000 0.0000 8.6238
#
#
#
# Elastic Compliance Matrix: (Units=1/GPa)
#
#
# Indices 1 2 3 4 5 6 
#
# 1 0.011276 -0.000704 -0.003448 0.000000 0.000000 0.000000
# 2 -0.000704 0.016626 -0.003433 0.000000 0.000000 0.000000
# 3 -0.003448 -0.003433 0.011466 0.000000 0.000000 0.000000
# 4 0.000000 0.000000 0.000000 0.029607 0.000000 0.000000
# 5 0.000000 0.000000 0.000000 0.000000 0.018725 0.000000
# 6 0.000000 0.000000 0.000000 0.000000 0.000000 0.115958
#
#
# Mechanical properties :
#
#
# Convention : Reuss Voigt Hill
#
# Bulk Modulus (GPa) = 41.32218 44.81924 43.07071
# Shear Modulus (GPa) = 22.03680 32.60928 27.32304
#
# Velocity S-wave (km/s) = 3.20007 3.89275 3.56328
# Velocity P-wave (km/s) = 5.73205 6.40563 6.07818
#
# Compressibility (1/GPa) = 0.02420008
#
# Stress axis : x y z
#
# Youngs Moduli (GPa) = 88.68120 60.14827 87.21158
#
# Poissons Ratio (x) = 0.04231 0.30069
# Poissons Ratio (y) = 0.06239 0.29938
# Poissons Ratio (z) = 0.30575 0.20648
#
# Static dielectric constant tensor:
#      x y z
#    x 1.812520 0.000000 0.000000 
#    y 0.000000 1.727110 0.000000 
#    z 0.000000 0.000000 1.917950 
# 
# From -- ./inp_files/1210.got.cif
#   From: 2010.05.17/outbox.cif.g08.bks.cpg/sg20_1_cif.got.tgz:1210.got - 2010.06.03 22:52:26.
