data_PCOD9321693
_publ_section_title
;
Structure prediction by ZEFSAII (Michael W. Deem and Ramdas Pophale) SiO2 
 PCOD9321693
Probable space group: C 2 2 21
;
_chemical_formula_sum "Si O2"
_cell_formula_units_Z 40
_cell_length_a 7.873733
_cell_length_b 7.127584
_cell_length_c 27.567118
_cell_angle_alpha 90.000000
_cell_angle_beta 90.000000
_cell_angle_gamma 90.000000
_cell_volume 1547.085776
_symmetry_space_group_name_H-M "C 2 2 21"
_symmetry_group_IT_number 20
_symmetry_cell_setting 'orthorhombic'
loop_
_space_group_symop_operation_xyz
x,y,z
-x,-y,1/2+z
x,-y,-z
-x,y,1/2-z
1/2+x,1/2+y,z
1/2-x,1/2-y,1/2+z
1/2+x,1/2-y,-z
1/2-x,1/2+y,1/2-z
loop_
_atom_site_type_symbol
_atom_site_label
_atom_site_fract_x
_atom_site_fract_y
_atom_site_fract_z
Si Si1 0.840791 0.230141 0.721448
Si Si2 0.291445 0.419093 0.552962
Si Si3 0.832889 0.668050 0.871018
Si Si4 0.340544 0.447288 0.091786
Si Si5 0.832142 0.349777 0.315313
O O1 0.778157 0.114299 0.675505
O O2 0.875751 0.437076 0.700754
O O3 0.704402 0.248744 0.764578
O O4 0.000000 0.150415 0.750000
O O5 0.261684 0.500000 0.500000
O O6 0.155888 0.504665 0.590523
O O7 0.473888 0.500392 0.570998
O O8 0.261999 0.195865 0.557452
O O9 0.759658 0.847492 0.899478
O O10 0.010973 0.723491 0.846721
O O11 0.324036 0.360478 0.146405
#
# Coordination Sequence:
#
# PCOD9321693 Si02
#       5
#     8   8   8   8   8
#     4  11  24  40  70 108 157 208 265 327 409 495
#     4  12  30  50  84 113 155 210 273 342 418 486
#     4  11  26  49  75 113 158 209 271 341 412 495
#     4  11  27  50  78 114 155 205 265 336 410 487
#     4  11  25  44  73 111 156 210 268 331 414 489
#
# _framework density 25.855063000000001
#
# number of rings (size 3 to 8) (size 9 to 14) (size 15 to 20)
#    0.000    0.800    2.000    3.000   14.000    3.200 
#    0.000    1.000    0.000    0.000    0.000    0.000 
#    0.000    0.000    0.000    0.000    0.000    0.000 
#
# Total GULP energy -111979.017332 kJ/mol
# GULP energy per Si atom -5598.950867 kJ/mol
# Density = 2.579622 g / cm^3
# Si number density = 25.855063 Si / 1000 Ang^3
#
#
#
# Elastic Constant Matrix: (Units=GPa)
#
#
# Indices 1 2 3 4 5 6 
#
# 1 119.2103 18.2196 33.0514 0.0000 0.0000 0.0000
# 2 18.2196 84.4592 29.3336 0.0000 0.0000 0.0000
# 3 33.0514 29.3336 111.5586 0.0000 0.0000 0.0000
# 4 0.0000 0.0000 0.0000 41.3910 0.0000 0.0000
# 5 0.0000 0.0000 0.0000 0.0000 26.5996 0.0000
# 6 0.0000 0.0000 0.0000 0.0000 0.0000 33.8410
#
#
#
# Elastic Compliance Matrix: (Units=1/GPa)
#
#
# Indices 1 2 3 4 5 6 
#
# 1 0.009239 -0.001147 -0.002436 0.000000 0.000000 0.000000
# 2 -0.001147 0.013172 -0.003124 0.000000 0.000000 0.000000
# 3 -0.002436 -0.003124 0.010507 0.000000 0.000000 0.000000
# 4 0.000000 0.000000 0.000000 0.024160 0.000000 0.000000
# 5 0.000000 0.000000 0.000000 0.000000 0.037595 0.000000
# 6 0.000000 0.000000 0.000000 0.000000 0.000000 0.029550
#
#
# Mechanical properties :
#
#
# Convention : Reuss Voigt Hill
#
# Bulk Modulus (GPa) = 51.26792 52.93748 52.10270
# Shear Modulus (GPa) = 34.68908 36.00789 35.34849
#
# Velocity S-wave (km/s) = 3.66686 3.73591 3.70155
# Velocity P-wave (km/s) = 6.14816 6.25528 6.20195
#
# Compressibility (1/GPa) = 0.01950537
#
# Stress axis : x y z
#
# Youngs Moduli (GPa) = 108.23502 75.91631 95.17585
#
# Poissons Ratio (x) = 0.08709 0.23181
# Poissons Ratio (y) = 0.12416 0.29730
# Poissons Ratio (z) = 0.26362 0.23714
#
# Static dielectric constant tensor:
#      x y z
#    x 2.128260 0.000000 0.000000 
#    y 0.000000 2.091780 0.000000 
#    z 0.000000 0.000000 1.964540 
# 
# From -- ./inp_files/28609.got.cif
#   From: 2010.05.17/outbox.cif.g08.bks.cpg/sg20_15_cif.got.tgz:28609.got - 2010.06.03 22:52:26.
