data_PCOD9321916
_publ_section_title
;
Structure prediction by ZEFSAII (Michael W. Deem and Ramdas Pophale) SiO2 
 PCOD9321916
Probable space group: C 2 2 21
;
_chemical_formula_sum "Si O2"
_cell_formula_units_Z 52
_cell_length_a 15.188610
_cell_length_b 18.420070
_cell_length_c 7.926558
_cell_angle_alpha 90.000000
_cell_angle_beta 90.000000
_cell_angle_gamma 90.000000
_cell_volume 2217.654821
_symmetry_space_group_name_H-M "C 2 2 21"
_symmetry_group_IT_number 20
_symmetry_cell_setting 'orthorhombic'
loop_
_space_group_symop_operation_xyz
x,y,z
-x,-y,1/2+z
x,-y,-z
-x,y,1/2-z
1/2+x,1/2+y,z
1/2-x,1/2-y,1/2+z
1/2+x,1/2-y,-z
1/2-x,1/2+y,1/2-z
loop_
_atom_site_type_symbol
_atom_site_label
_atom_site_fract_x
_atom_site_fract_y
_atom_site_fract_z
Si Si1 0.838285 0.726679 0.307454
Si Si2 0.174751 0.429026 0.687670
Si Si3 0.856468 0.876769 0.228866
Si Si4 0.137204 0.257174 0.203834
Si Si5 0.839988 0.586677 0.784065
Si Si6 0.500000 0.481154 0.250000
Si Si7 0.373600 0.397945 0.633989
O O1 0.863546 0.646058 0.255633
O O2 0.878446 0.792361 0.197390
O O3 0.857032 0.734483 0.503124
O O4 0.734317 0.742708 0.281350
O O5 0.167904 0.423242 0.485342
O O6 0.135770 0.503576 0.764037
O O7 0.280482 0.423943 0.713518
O O8 0.754951 0.897436 0.194015
O O9 0.861169 0.884988 0.433521
O O10 0.931002 0.928424 0.154954
O O11 0.107790 0.337303 0.263275
O O12 0.096475 0.176945 0.222630
O O13 0.561061 0.536656 0.152799
#
# Coordination Sequence:
#
# PCOD9321916 Si02
#       7
#     8   8   8   8   8   4   8
#     4   9  17  30  47  66  93 126 162 203 247 293
#     4   9  16  30  51  71  96 127 158 198 251 299
#     4   9  18  31  44  62  93 132 164 195 242 287
#     4   9  17  30  47  66  93 126 162 203 247 293
#     4   9  16  30  51  71  96 127 158 198 251 299
#     4  12  18  28  48  66  90 132 174 190 220 290
#     4   9  18  31  44  62  93 132 164 195 242 287
#
# _framework density 23.448194000000001
#
# number of rings (size 3 to 8) (size 9 to 14) (size 15 to 20)
#    0.000    2.769    1.538    3.231    0.000    0.615 
#    0.000   15.385    0.000    0.000    0.000    1.077 
#    0.000    0.000    0.000    0.000    0.000    0.000 
#
# Total GULP energy -144837.398872 kJ/mol
# GULP energy per Si atom -5570.669187 kJ/mol
# Density = 2.339482 g / cm^3
# Si number density = 23.448194 Si / 1000 Ang^3
#
#
#
# Elastic Constant Matrix: (Units=GPa)
#
#
# Indices 1 2 3 4 5 6 
#
# 1 25.7475 16.1438 -6.1794 0.0000 0.0000 0.0000
# 2 16.1438 239.0264 15.9007 0.0000 0.0000 0.0000
# 3 -6.1794 15.9007 7.1356 0.0000 0.0000 0.0000
# 4 0.0000 0.0000 0.0000 35.1043 0.0000 0.0000
# 5 0.0000 0.0000 0.0000 0.0000 7.2677 0.0000
# 6 0.0000 0.0000 0.0000 0.0000 0.0000 -69.0137
#
#
#
# Elastic Compliance Matrix: (Units=1/GPa)
#
#
# Indices 1 2 3 4 5 6 
#
# 1 0.062496 -0.009183 0.074584 0.000000 0.000000 0.000000
# 2 -0.009183 0.006261 -0.021904 0.000000 0.000000 0.000000
# 3 0.074584 -0.021904 0.253543 0.000000 0.000000 0.000000
# 4 0.000000 0.000000 0.000000 0.028487 0.000000 0.000000
# 5 0.000000 0.000000 0.000000 0.000000 0.137594 0.000000
# 6 0.000000 0.000000 0.000000 0.000000 0.000000 -0.014490
#
#
# Mechanical properties :
#
#
# Convention : Reuss Voigt Hill
#
# Bulk Modulus (GPa) = 2.44322 35.95998 19.20160
# Shear Modulus (GPa) = 9.55424 11.07461 10.31442
#
# Velocity S-wave (km/s) = 2.02076 2.17561 2.09961
# Velocity P-wave (km/s) = 2.54732 4.65620 3.75294
#
# Compressibility (1/GPa) = 0.40929565
#
# Stress axis : x y z
#
# Youngs Moduli (GPa) = 16.00092 159.72058 3.94411
#
# Poissons Ratio (x) = 1.46664 -0.29417
# Poissons Ratio (y) = 0.14693 0.08639
# Poissons Ratio (z) = -1.19341 3.49849
#
# Static dielectric constant tensor:
#      x y z
#    x 1.897290 0.000000 0.000000 
#    y 0.000000 1.964810 0.000000 
#    z 0.000000 0.000000 1.903950 
# 
# From -- ./inp_files/9515.got.cif
#   From: 2010.05.17/outbox.cif.g08.bks.cpg/sg20_5_cif.got.tgz:9515.got - 2010.06.03 22:52:26.
