data_PCOD9321393
_publ_section_title
;
Structure prediction by ZEFSAII (Michael W. Deem and Ramdas Pophale) SiO2 
 PCOD9321393
Probable space group: C 2 2 21
;
_chemical_formula_sum "Si O2"
_cell_formula_units_Z 48
_cell_length_a 21.187779
_cell_length_b 14.200777
_cell_length_c 7.736048
_cell_angle_alpha 90.000000
_cell_angle_beta 90.000000
_cell_angle_gamma 90.000000
_cell_volume 2327.644748
_symmetry_space_group_name_H-M "C 2 2 21"
_symmetry_group_IT_number 20
_symmetry_cell_setting 'orthorhombic'
loop_
_space_group_symop_operation_xyz
x,y,z
-x,-y,1/2+z
x,-y,-z
-x,y,1/2-z
1/2+x,1/2+y,z
1/2-x,1/2-y,1/2+z
1/2+x,1/2-y,-z
1/2-x,1/2+y,1/2-z
loop_
_atom_site_type_symbol
_atom_site_label
_atom_site_fract_x
_atom_site_fract_y
_atom_site_fract_z
Si Si1 0.147732 0.685950 0.388083
Si Si2 0.952466 0.235370 0.621334
Si Si3 0.666962 0.686476 0.068732
Si Si4 0.239312 0.165559 0.697183
Si Si5 0.250645 0.963362 0.804745
Si Si6 0.965340 0.393474 0.067770
O O1 0.097259 0.715857 0.247139
O O2 0.189217 0.779217 0.424376
O O3 0.193431 0.612102 0.290762
O O4 0.107456 0.640770 0.543810
O O5 0.906626 0.187250 0.481029
O O6 0.000000 0.179009 0.750000
O O7 0.993612 0.317489 0.536950
O O8 0.695716 0.779060 0.160576
O O9 0.686737 0.597429 0.185275
O O10 0.707624 0.677543 0.888491
O O11 0.248571 0.053843 0.682441
O O12 0.260577 0.000000 0.000000
O O13 0.000000 0.394225 0.250000
O O14 0.967620 0.500000 0.000000
#
# Coordination Sequence:
#
# PCOD9321393 Si02
#       6
#     8   8   8   8   8   8
#     4   9  18  34  51  76 113 145 183 228 280 335
#     4   9  19  34  50  72 107 149 188 228 278 337
#     4   9  18  32  51  77 110 147 185 228 284 336
#     4   9  18  32  51  78 111 147 184 227 278 337
#     4   9  17  30  52  80 107 140 181 223 274 334
#     4  11  22  34  51  77 109 148 192 234 278 335
#
# _framework density 20.621701999999999
#
# number of rings (size 3 to 8) (size 9 to 14) (size 15 to 20)
#    0.000    2.667    0.000    2.000    0.000    6.667 
#    0.000    6.667    0.000    0.000    0.000   40.833 
#    0.000    0.000    0.000    0.667    0.000    0.000 
#
# Total GULP energy -133608.737366 kJ/mol
# GULP energy per Si atom -5567.030724 kJ/mol
# Density = 2.057477 g / cm^3
# Si number density = 20.621702 Si / 1000 Ang^3
#
#
#
# Elastic Constant Matrix: (Units=GPa)
#
#
# Indices 1 2 3 4 5 6 
#
# 1 119.5619 43.7665 16.3339 0.0000 0.0000 0.0000
# 2 43.7665 74.9008 10.3930 0.0000 0.0000 0.0000
# 3 16.3339 10.3930 37.2157 0.0000 0.0000 0.0000
# 4 0.0000 0.0000 0.0000 23.0372 0.0000 0.0000
# 5 0.0000 0.0000 0.0000 0.0000 29.3396 0.0000
# 6 0.0000 0.0000 0.0000 0.0000 0.0000 12.1720
#
#
#
# Elastic Compliance Matrix: (Units=1/GPa)
#
#
# Indices 1 2 3 4 5 6 
#
# 1 0.010984 -0.005981 -0.003150 0.000000 0.000000 0.000000
# 2 -0.005981 0.017146 -0.002163 0.000000 0.000000 0.000000
# 3 -0.003150 -0.002163 0.028857 0.000000 0.000000 0.000000
# 4 0.000000 0.000000 0.000000 0.043408 0.000000 0.000000
# 5 0.000000 0.000000 0.000000 0.000000 0.034084 0.000000
# 6 0.000000 0.000000 0.000000 0.000000 0.000000 0.082156
#
#
# Mechanical properties :
#
#
# Convention : Reuss Voigt Hill
#
# Bulk Modulus (GPa) = 29.07174 41.40724 35.23949
# Shear Modulus (GPa) = 19.94502 23.65543 21.80022
#
# Velocity S-wave (km/s) = 3.11334 3.39058 3.25491
# Velocity P-wave (km/s) = 5.20116 5.95408 5.59031
#
# Compressibility (1/GPa) = 0.03439767
#
# Stress axis : x y z
#
# Youngs Moduli (GPa) = 91.04476 58.32284 34.65336
#
# Poissons Ratio (x) = 0.34882 0.10917
# Poissons Ratio (y) = 0.54453 0.07496
# Poissons Ratio (z) = 0.28683 0.12617
#
# Static dielectric constant tensor:
#      x y z
#    x 1.786100 0.000000 0.000000 
#    y 0.000000 1.806050 0.000000 
#    z 0.000000 0.000000 1.877380 
# 
# From -- ./inp_files/10056.got.cif
#   From: 2010.05.17/outbox.cif.g08.bks.cpg/sg20_6_cif.got.tgz:10056.got - 2010.06.03 22:52:26.
