data_PCOD9321042
_publ_section_title
;
Structure prediction by ZEFSAII (Michael W. Deem and Ramdas Pophale) SiO2 
 PCOD9321042
Probable space group: C 2 2 21
;
_chemical_formula_sum "Si O2"
_cell_formula_units_Z 40
_cell_length_a 10.896757
_cell_length_b 7.766502
_cell_length_c 17.521982
_cell_angle_alpha 90.000000
_cell_angle_beta 90.000000
_cell_angle_gamma 90.000000
_cell_volume 1482.879818
_symmetry_space_group_name_H-M "C 2 2 21"
_symmetry_group_IT_number 20
_symmetry_cell_setting 'orthorhombic'
loop_
_space_group_symop_operation_xyz
x,y,z
-x,-y,1/2+z
x,-y,-z
-x,y,1/2-z
1/2+x,1/2+y,z
1/2-x,1/2-y,1/2+z
1/2+x,1/2-y,-z
1/2-x,1/2+y,1/2-z
loop_
_atom_site_type_symbol
_atom_site_label
_atom_site_fract_x
_atom_site_fract_y
_atom_site_fract_z
Si Si1 0.186815 0.007515 0.088382
Si Si2 0.376119 0.761890 0.043682
Si Si3 0.667164 0.864990 0.175682
Si Si4 0.901006 0.671618 0.427494
Si Si5 0.897571 0.894541 0.801933
O O1 0.190127 0.189916 0.128224
O O2 0.325954 0.939414 0.079211
O O3 0.117145 0.842958 0.123878
O O4 0.141435 0.000000 0.000000
O O5 0.433538 0.649096 0.111599
O O6 0.372481 0.784583 0.243169
O O7 0.480944 0.206269 0.018937
O O8 0.590625 0.998969 0.122947
O O9 0.783837 0.981118 0.193198
O O10 0.762313 0.674472 0.469160
O O11 0.000000 0.976418 0.750000
#
# Coordination Sequence:
#
# PCOD9321042 Si02
#       5
#     8   8   8   8   8
#     4  10  24  48  76 119 164 219 287 353 425 527
#     4   9  22  50  77 126 174 220 286 357 436 515
#     4  11  25  54  83 119 175 228 292 359 447 521
#     4   9  23  50  81 127 172 229 287 367 432 516
#     4  11  26  50  85 121 167 230 290 358 433 534
#
# _framework density 26.974540999999999
#
# number of rings (size 3 to 8) (size 9 to 14) (size 15 to 20)
#    1.200    0.800    0.000    1.200    2.800    2.400 
#   10.800    4.000    0.000    0.000    0.000    0.000 
#    0.000    0.000    0.000    0.000    0.000    0.000 
#
# Total GULP energy -111571.438137 kJ/mol
# GULP energy per Si atom -5578.571907 kJ/mol
# Density = 2.691315 g / cm^3
# Si number density = 26.974541 Si / 1000 Ang^3
#
#
#
# Elastic Constant Matrix: (Units=GPa)
#
#
# Indices 1 2 3 4 5 6 
#
# 1 152.3091 66.9602 53.5035 0.0000 0.0000 0.0000
# 2 66.9602 214.6105 63.8936 0.0000 0.0000 0.0000
# 3 53.5035 63.8936 117.8721 0.0000 0.0000 0.0000
# 4 0.0000 0.0000 0.0000 66.5730 0.0000 0.0000
# 5 0.0000 0.0000 0.0000 0.0000 54.2232 0.0000
# 6 0.0000 0.0000 0.0000 0.0000 0.0000 40.6040
#
#
#
# Elastic Compliance Matrix: (Units=1/GPa)
#
#
# Indices 1 2 3 4 5 6 
#
# 1 0.008332 -0.001757 -0.002829 0.000000 0.000000 0.000000
# 2 -0.001757 0.005927 -0.002415 0.000000 0.000000 0.000000
# 3 -0.002829 -0.002415 0.011077 0.000000 0.000000 0.000000
# 4 0.000000 0.000000 0.000000 0.015021 0.000000 0.000000
# 5 0.000000 0.000000 0.000000 0.000000 0.018442 0.000000
# 6 0.000000 0.000000 0.000000 0.000000 0.000000 0.024628
#
#
# Mechanical properties :
#
#
# Convention : Reuss Voigt Hill
#
# Bulk Modulus (GPa) = 88.24155 94.83403 91.53779
# Shear Modulus (GPa) = 49.40274 52.30900 50.85587
#
# Velocity S-wave (km/s) = 4.28420 4.40841 4.34675
# Velocity P-wave (km/s) = 7.56679 7.81955 7.69421
#
# Compressibility (1/GPa) = 0.01133253
#
# Stress axis : x y z
#
# Youngs Moduli (GPa) = 120.01763 168.72203 90.27531
#
# Poissons Ratio (x) = 0.29649 0.25543
# Poissons Ratio (y) = 0.21091 0.21802
# Poissons Ratio (z) = 0.33959 0.40748
#
# Static dielectric constant tensor:
#      x y z
#    x 2.226980 0.000000 0.000000 
#    y 0.000000 2.216280 0.000000 
#    z 0.000000 0.000000 2.225960 
# 
# From -- ./inp_files/27081.got.cif
#   From: 2010.05.17/outbox.cif.g08.bks.cpg/sg20_14_cif.got.tgz:27081.got - 2010.06.03 22:52:26.
