data_PCOD9321045
_publ_section_title
;
Structure prediction by ZEFSAII (Michael W. Deem and Ramdas Pophale) SiO2 
 PCOD9321045
Probable space group: C 2 2 21
;
_chemical_formula_sum "Si O2"
_cell_formula_units_Z 28
_cell_length_a 5.740136
_cell_length_b 19.103381
_cell_length_c 10.571782
_cell_angle_alpha 90.000000
_cell_angle_beta 90.000000
_cell_angle_gamma 90.000000
_cell_volume 1159.259380
_symmetry_space_group_name_H-M "C 2 2 21"
_symmetry_group_IT_number 20
_symmetry_cell_setting 'orthorhombic'
loop_
_space_group_symop_operation_xyz
x,y,z
-x,-y,1/2+z
x,-y,-z
-x,y,1/2-z
1/2+x,1/2+y,z
1/2-x,1/2-y,1/2+z
1/2+x,1/2-y,-z
1/2-x,1/2+y,1/2-z
loop_
_atom_site_type_symbol
_atom_site_label
_atom_site_fract_x
_atom_site_fract_y
_atom_site_fract_z
Si Si1 0.000000 0.868849 0.250000
Si Si2 0.629683 0.146789 0.111788
Si Si3 0.254634 0.496836 0.815802
Si Si4 0.134613 0.714650 0.620558
O O1 0.116140 0.819346 0.147815
O O2 0.172093 0.922140 0.322230
O O3 0.500000 0.149411 0.250000
O O4 0.704116 0.066433 0.087817
O O5 0.840201 0.201993 0.112722
O O6 0.467874 0.177348 0.001638
O O7 0.500000 0.469801 0.750000
O O8 0.000000 0.500714 0.750000
O O9 0.000000 0.699210 0.750000
#
# Coordination Sequence:
#
# PCOD9321045 Si02
#       4
#     4   8   8   8
#     4  10  24  48  78 114 162 202 266 330 404 466
#     4  11  24  47  78 112 153 207 264 319 401 471
#     4   9  21  46  77 108 156 204 253 319 391 472
#     4  12  25  47  78 116 156 205 269 334 392 474
#
# _framework density 24.153354
#
# number of rings (size 3 to 8) (size 9 to 14) (size 15 to 20)
#    0.857    0.571    1.429    3.429    0.000    2.286 
#    0.000   18.571    0.000    0.000    0.000    0.000 
#    0.000    0.000    0.000    0.000    0.000    0.000 
#
# Total GULP energy -77994.901526 kJ/mol
# GULP energy per Si atom -5571.064395 kJ/mol
# Density = 2.409838 g / cm^3
# Si number density = 24.153354 Si / 1000 Ang^3
#
#
#
# Elastic Constant Matrix: (Units=GPa)
#
#
# Indices 1 2 3 4 5 6 
#
# 1 94.6360 9.5270 31.0375 0.0000 0.0000 0.0000
# 2 9.5270 145.2341 -8.8341 0.0000 0.0000 0.0000
# 3 31.0375 -8.8341 111.5981 0.0000 0.0000 0.0000
# 4 0.0000 0.0000 0.0000 -66.0875 0.0000 0.0000
# 5 0.0000 0.0000 0.0000 0.0000 53.6991 0.0000
# 6 0.0000 0.0000 0.0000 0.0000 0.0000 1.9226
#
#
#
# Elastic Compliance Matrix: (Units=1/GPa)
#
#
# Indices 1 2 3 4 5 6 
#
# 1 0.011763 -0.000975 -0.003349 0.000000 0.000000 0.000000
# 2 -0.000975 0.007000 0.000825 0.000000 0.000000 0.000000
# 3 -0.003349 0.000825 0.009957 0.000000 0.000000 0.000000
# 4 0.000000 0.000000 0.000000 -0.015131 0.000000 0.000000
# 5 0.000000 0.000000 0.000000 0.000000 0.018622 0.000000
# 6 0.000000 0.000000 0.000000 0.000000 0.000000 0.520125
#
#
# Mechanical properties :
#
#
# Convention : Reuss Voigt Hill
#
# Bulk Modulus (GPa) = 46.03468 46.10323 46.06895
# Shear Modulus (GPa) = 8.82496 19.22271 14.02383
#
# Velocity S-wave (km/s) = 1.91354 2.82416 2.41221
# Velocity P-wave (km/s) = 4.89723 5.45561 5.18395
#
# Compressibility (1/GPa) = 0.02172275
#
# Stress axis : x y z
#
# Youngs Moduli (GPa) = 85.01026 142.86490 100.42761
#
# Poissons Ratio (x) = 0.13934 0.33631
# Poissons Ratio (y) = 0.08291 -0.08289
# Poissons Ratio (z) = 0.28468 -0.11791
#
# Static dielectric constant tensor:
#      x y z
#    x 2.053350 0.000000 0.000000 
#    y 0.000000 1.869010 0.000000 
#    z 0.000000 0.000000 2.264920 
# 
# From -- ./inp_files/11856.got.cif
#   From: 2010.05.17/outbox.cif.g08.bks.cpg/sg20_6_cif.got.tgz:11856.got - 2010.06.03 22:52:26.
