data_PCOD9321235
_publ_section_title
;
Structure prediction by ZEFSAII (Michael W. Deem and Ramdas Pophale) SiO2 
 PCOD9321235
Probable space group: C 2 2 21
;
_chemical_formula_sum "Si O2"
_cell_formula_units_Z 40
_cell_length_a 16.097636
_cell_length_b 15.720119
_cell_length_c 6.489977
_cell_angle_alpha 90.000000
_cell_angle_beta 90.000000
_cell_angle_gamma 90.000000
_cell_volume 1642.332510
_symmetry_space_group_name_H-M "C 2 2 21"
_symmetry_group_IT_number 20
_symmetry_cell_setting 'orthorhombic'
loop_
_space_group_symop_operation_xyz
x,y,z
-x,-y,1/2+z
x,-y,-z
-x,y,1/2-z
1/2+x,1/2+y,z
1/2-x,1/2-y,1/2+z
1/2+x,1/2-y,-z
1/2-x,1/2+y,1/2-z
loop_
_atom_site_type_symbol
_atom_site_label
_atom_site_fract_x
_atom_site_fract_y
_atom_site_fract_z
Si Si1 0.932834 0.901881 0.573525
Si Si2 0.132135 0.581043 0.388080
Si Si3 0.214078 0.319579 0.237894
Si Si4 0.881190 0.261837 0.618768
Si Si5 0.788145 0.928503 0.874491
O O1 0.927893 0.828711 0.397878
O O2 0.844750 0.896255 0.691741
O O3 0.000000 0.883053 0.750000
O O4 0.941917 0.000000 0.500000
O O5 0.088037 0.500000 0.500000
O O6 0.182621 0.628478 0.567742
O O7 0.089979 0.658595 0.259326
O O8 0.201287 0.543761 0.230135
O O9 0.285893 0.254811 0.307004
O O10 0.131697 0.288774 0.118914
O O11 0.262927 0.371402 0.065282
O O12 0.838084 0.000000 0.000000
#
# Coordination Sequence:
#
# PCOD9321235 Si02
#       5
#     8   8   8   8   8
#     4  12  26  45  60  87 135 194 247 283 323 399
#     4  11  21  36  60  96 135 173 212 279 368 423
#     4  11  19  35  59  94 130 169 211 278 351 418
#     4  11  22  36  61  91 132 179 225 277 341 411
#     4  11  20  33  61  89 129 176 222 275 337 402
#
# _framework density 24.355604
#
# number of rings (size 3 to 8) (size 9 to 14) (size 15 to 20)
#    0.000    0.800    6.000    3.600    0.000    0.000 
#    0.000    0.000    0.000    0.000    0.000    0.000 
#    6.000    1.600    2.000    0.000    0.000    0.000 
#
# Total GULP energy -111516.951308 kJ/mol
# GULP energy per Si atom -5575.847565 kJ/mol
# Density = 2.430017 g / cm^3
# Si number density = 24.355604 Si / 1000 Ang^3
#
#
#
# Elastic Constant Matrix: (Units=GPa)
#
#
# Indices 1 2 3 4 5 6 
#
# 1 65.3345 34.8429 25.8671 0.0000 0.0000 0.0000
# 2 34.8429 177.5687 72.0598 0.0000 0.0000 0.0000
# 3 25.8671 72.0598 124.1922 0.0000 0.0000 0.0000
# 4 0.0000 0.0000 0.0000 58.4744 0.0000 0.0000
# 5 0.0000 0.0000 0.0000 0.0000 3.9396 0.0000
# 6 0.0000 0.0000 0.0000 0.0000 0.0000 -6.3210
#
#
#
# Elastic Compliance Matrix: (Units=1/GPa)
#
#
# Indices 1 2 3 4 5 6 
#
# 1 0.017529 -0.002561 -0.002165 0.000000 0.000000 0.000000
# 2 -0.002561 0.007740 -0.003958 0.000000 0.000000 0.000000
# 3 -0.002165 -0.003958 0.010799 0.000000 0.000000 0.000000
# 4 0.000000 0.000000 0.000000 0.017102 0.000000 0.000000
# 5 0.000000 0.000000 0.000000 0.000000 0.253833 0.000000
# 6 0.000000 0.000000 0.000000 0.000000 0.000000 -0.158202
#
#
# Mechanical properties :
#
#
# Convention : Reuss Voigt Hill
#
# Bulk Modulus (GPa) = 53.47299 70.29278 61.88289
# Shear Modulus (GPa) = 29.00199 26.84029 27.92114
#
# Velocity S-wave (km/s) = 3.45450 3.32327 3.38952
# Velocity P-wave (km/s) = 6.15745 6.60675 6.38605
#
# Compressibility (1/GPa) = 0.01870103
#
# Stress axis : x y z
#
# Youngs Moduli (GPa) = 57.04909 129.19518 92.59828
#
# Poissons Ratio (x) = 0.33086 0.20048
# Poissons Ratio (y) = 0.14610 0.36648
# Poissons Ratio (z) = 0.12351 0.51132
#
# Static dielectric constant tensor:
#      x y z
#    x 1.893150 0.000000 0.000000 
#    y 0.000000 2.159990 0.000000 
#    z 0.000000 0.000000 1.951180 
# 
# From -- ./inp_files/2491.got.cif
#   From: 2010.05.17/outbox.cif.g08.bks.cpg/sg20_2_cif.got.tgz:2491.got - 2010.06.03 22:52:26.
