data_PCOD9321694
_publ_section_title
;
Structure prediction by ZEFSAII (Michael W. Deem and Ramdas Pophale) SiO2 
 PCOD9321694
Probable space group: C 2 2 21
;
_chemical_formula_sum "Si O2"
_cell_formula_units_Z 48
_cell_length_a 4.941773
_cell_length_b 14.514954
_cell_length_c 26.769797
_cell_angle_alpha 90.000000
_cell_angle_beta 90.000000
_cell_angle_gamma 90.000000
_cell_volume 1920.187039
_symmetry_space_group_name_H-M "C 2 2 21"
_symmetry_group_IT_number 20
_symmetry_cell_setting 'orthorhombic'
loop_
_space_group_symop_operation_xyz
x,y,z
-x,-y,1/2+z
x,-y,-z
-x,y,1/2-z
1/2+x,1/2+y,z
1/2-x,1/2-y,1/2+z
1/2+x,1/2-y,-z
1/2-x,1/2+y,1/2-z
loop_
_atom_site_type_symbol
_atom_site_label
_atom_site_fract_x
_atom_site_fract_y
_atom_site_fract_z
Si Si1 0.770190 0.418551 0.136073
Si Si2 0.689910 0.140923 0.444286
Si Si3 0.060331 0.384624 0.662603
Si Si4 0.416768 0.267149 0.805345
Si Si5 0.441216 0.533778 0.949357
Si Si6 0.416745 0.178361 0.547565
O O1 0.877553 0.506680 0.166633
O O2 0.796654 0.322887 0.166120
O O3 0.484359 0.453993 0.112206
O O4 0.942762 0.393278 0.085625
O O5 0.498145 0.127858 0.396794
O O6 0.839500 0.046123 0.454617
O O7 0.548862 0.172855 0.494197
O O8 0.908393 0.219591 0.431955
O O9 0.319324 0.319602 0.673059
O O10 0.815967 0.344645 0.694313
O O11 0.500000 0.237351 0.750000
O O12 0.390850 0.642008 0.957261
O O13 0.266121 0.500000 0.000000
#
# Coordination Sequence:
#
# PCOD9321694 Si02
#       6
#     8   8   8   8   8   8
#     4  11  27  46  75 110 146 197 252 307 374 455
#     4  11  25  43  69 106 149 201 241 302 360 449
#     4  11  28  48  79 113 149 193 248 314 380 456
#     4  12  28  54  80 108 146 192 255 327 391 445
#     4  11  24  41  64 101 148 193 247 290 360 435
#     4  12  25  43  67 103 152 200 244 295 358 448
#
# _framework density 24.997568000000001
#
# number of rings (size 3 to 8) (size 9 to 14) (size 15 to 20)
#    0.000    0.667    3.333    2.500   11.667    1.333 
#    0.000    0.000    0.000    0.000    0.000    0.000 
#    0.000    0.000    0.000    0.000    0.000    0.000 
#
# Total GULP energy -133647.985611 kJ/mol
# GULP energy per Si atom -5568.666067 kJ/mol
# Density = 2.494067 g / cm^3
# Si number density = 24.997568 Si / 1000 Ang^3
#
#
#
# Elastic Constant Matrix: (Units=GPa)
#
#
# Indices 1 2 3 4 5 6 
#
# 1 76.5045 21.2205 4.1972 0.0000 0.0000 0.0000
# 2 21.2205 167.2856 37.4135 0.0000 0.0000 0.0000
# 3 4.1972 37.4135 65.2122 0.0000 0.0000 0.0000
# 4 0.0000 0.0000 0.0000 33.7082 0.0000 0.0000
# 5 0.0000 0.0000 0.0000 0.0000 16.7128 0.0000
# 6 0.0000 0.0000 0.0000 0.0000 0.0000 19.8261
#
#
#
# Elastic Compliance Matrix: (Units=1/GPa)
#
#
# Indices 1 2 3 4 5 6 
#
# 1 0.013549 -0.001748 0.000131 0.000000 0.000000 0.000000
# 2 -0.001748 0.007083 -0.003951 0.000000 0.000000 0.000000
# 3 0.000131 -0.003951 0.017593 0.000000 0.000000 0.000000
# 4 0.000000 0.000000 0.000000 0.029666 0.000000 0.000000
# 5 0.000000 0.000000 0.000000 0.000000 0.059834 0.000000
# 6 0.000000 0.000000 0.000000 0.000000 0.000000 0.050438
#
#
# Mechanical properties :
#
#
# Convention : Reuss Voigt Hill
#
# Bulk Modulus (GPa) = 36.91641 48.29609 42.60625
# Shear Modulus (GPa) = 25.21043 30.46083 27.83563
#
# Velocity S-wave (km/s) = 3.17916 3.49456 3.34059
# Velocity P-wave (km/s) = 5.31753 5.97033 5.65336
#
# Compressibility (1/GPa) = 0.02708823
#
# Stress axis : x y z
#
# Youngs Moduli (GPa) = 73.80733 141.17836 56.84055
#
# Poissons Ratio (x) = 0.24677 -0.00743
# Poissons Ratio (y) = 0.12901 0.22459
# Poissons Ratio (z) = -0.00965 0.55784
#
# Static dielectric constant tensor:
#      x y z
#    x 2.360320 0.000000 0.000000 
#    y 0.000000 1.929890 0.000000 
#    z 0.000000 0.000000 2.147980 
# 
# From -- ./inp_files/29822.got.cif
#   From: 2010.05.17/outbox.cif.g08.bks.cpg/sg20_15_cif.got.tgz:29822.got - 2010.06.03 22:52:26.
