data_PCOD9321252
_publ_section_title
;
Structure prediction by ZEFSAII (Michael W. Deem and Ramdas Pophale) SiO2 
 PCOD9321252
Probable space group: C 2 2 21
;
_chemical_formula_sum "Si O2"
_cell_formula_units_Z 48
_cell_length_a 11.445966
_cell_length_b 11.554442
_cell_length_c 19.191903
_cell_angle_alpha 90.000000
_cell_angle_beta 90.000000
_cell_angle_gamma 90.000000
_cell_volume 2538.162763
_symmetry_space_group_name_H-M "C 2 2 21"
_symmetry_group_IT_number 20
_symmetry_cell_setting 'orthorhombic'
loop_
_space_group_symop_operation_xyz
x,y,z
-x,-y,1/2+z
x,-y,-z
-x,y,1/2-z
1/2+x,1/2+y,z
1/2-x,1/2-y,1/2+z
1/2+x,1/2-y,-z
1/2-x,1/2+y,1/2-z
loop_
_atom_site_type_symbol
_atom_site_label
_atom_site_fract_x
_atom_site_fract_y
_atom_site_fract_z
Si Si1 0.482015 0.321639 0.827298
Si Si2 0.662307 0.866662 0.138885
Si Si3 0.791380 0.373188 0.200346
Si Si4 0.390771 0.527180 0.919865
Si Si5 0.462546 0.300162 0.330379
Si Si6 0.033222 0.458402 0.668020
O O1 0.500000 0.376436 0.750000
O O2 0.600152 0.260736 0.858429
O O3 0.398672 0.213258 0.811297
O O4 0.411902 0.408706 0.876595
O O5 0.717193 0.885801 0.216269
O O6 0.766954 0.905927 0.088957
O O7 0.557292 0.958369 0.128945
O O8 0.676159 0.316214 0.170199
O O9 0.834944 0.492913 0.165552
O O10 0.484108 0.610965 0.884249
O O11 0.411421 0.500000 0.000000
O O12 0.500000 0.321651 0.250000
O O13 0.510017 0.173572 0.350056
O O14 0.000000 0.469002 0.750000
#
# Coordination Sequence:
#
# PCOD9321252 Si02
#       6
#     8   8   8   8   8   8
#     4   9  20  39  66  90 113 152 206 260 302 353
#     4   9  18  38  61  87 112 148 193 250 310 348
#     4   9  17  35  64  91 112 138 199 259 301 345
#     4  12  25  39  53  85 128 165 198 238 304 371
#     4  11  20  34  57  86 116 152 194 243 298 352
#     4   8  17  32  59  91 111 134 184 249 302 350
#
# _framework density 18.911317
#
# number of rings (size 3 to 8) (size 9 to 14) (size 15 to 20)
#    0.000    2.333    1.667    3.500    0.000    1.333 
#    6.000    0.000    0.000    0.000    0.000    0.000 
#    0.000    0.000    0.000    0.000    0.000    0.000 
#
# Total GULP energy -133694.253768 kJ/mol
# GULP energy per Si atom -5570.593907 kJ/mol
# Density = 1.886827 g / cm^3
# Si number density = 18.911317 Si / 1000 Ang^3
#
#
#
# Elastic Constant Matrix: (Units=GPa)
#
#
# Indices 1 2 3 4 5 6 
#
# 1 51.5912 4.8889 9.7828 0.0000 0.0000 0.0000
# 2 4.8889 68.2682 19.2420 0.0000 0.0000 0.0000
# 3 9.7828 19.2420 63.2430 0.0000 0.0000 0.0000
# 4 0.0000 0.0000 0.0000 -17.7932 0.0000 0.0000
# 5 0.0000 0.0000 0.0000 0.0000 13.9344 0.0000
# 6 0.0000 0.0000 0.0000 0.0000 0.0000 28.3301
#
#
#
# Elastic Compliance Matrix: (Units=1/GPa)
#
#
# Indices 1 2 3 4 5 6 
#
# 1 0.019992 -0.000613 -0.002906 0.000000 0.000000 0.000000
# 2 -0.000613 0.016041 -0.004786 0.000000 0.000000 0.000000
# 3 -0.002906 -0.004786 0.017718 0.000000 0.000000 0.000000
# 4 0.000000 0.000000 0.000000 -0.056201 0.000000 0.000000
# 5 0.000000 0.000000 0.000000 0.000000 0.071765 0.000000
# 6 0.000000 0.000000 0.000000 0.000000 0.000000 0.035298
#
#
# Mechanical properties :
#
#
# Convention : Reuss Voigt Hill
#
# Bulk Modulus (GPa) = 26.92383 27.88109 27.40246
# Shear Modulus (GPa) = 37.42449 14.84016 26.13232
#
# Velocity S-wave (km/s) = 4.45336 2.80433 3.72134
# Velocity P-wave (km/s) = 6.38052 5.02601 5.74334
#
# Compressibility (1/GPa) = 0.03714182
#
# Stress axis : x y z
#
# Youngs Moduli (GPa) = 50.01936 62.34064 56.44086
#
# Poissons Ratio (x) = 0.03819 0.16402
# Poissons Ratio (y) = 0.03064 0.27011
# Poissons Ratio (z) = 0.14536 0.29835
#
# Static dielectric constant tensor:
#      x y z
#    x 1.698440 0.000000 0.000000 
#    y 0.000000 1.706630 0.000000 
#    z 0.000000 0.000000 1.640210 
# 
# From -- ./inp_files/24246.got.cif
#   From: 2010.05.17/outbox.cif.g08.bks.cpg/sg20_13_cif.got.tgz:24246.got - 2010.06.03 22:52:26.
