data_PCOD9321935
_publ_section_title
;
Structure prediction by ZEFSAII (Michael W. Deem and Ramdas Pophale) SiO2 
 PCOD9321935
Probable space group: C 2 2 21
;
_chemical_formula_sum "Si O2"
_cell_formula_units_Z 32
_cell_length_a 14.686530
_cell_length_b 10.139810
_cell_length_c 8.506670
_cell_angle_alpha 90.000000
_cell_angle_beta 90.000000
_cell_angle_gamma 90.000000
_cell_volume 1266.801589
_symmetry_space_group_name_H-M "C 2 2 21"
_symmetry_group_IT_number 20
_symmetry_cell_setting 'orthorhombic'
loop_
_space_group_symop_operation_xyz
x,y,z
-x,-y,1/2+z
x,-y,-z
-x,y,1/2-z
1/2+x,1/2+y,z
1/2-x,1/2-y,1/2+z
1/2+x,1/2-y,-z
1/2-x,1/2+y,1/2-z
loop_
_atom_site_type_symbol
_atom_site_label
_atom_site_fract_x
_atom_site_fract_y
_atom_site_fract_z
Si Si1 0.355095 0.003256 0.328273
Si Si2 0.135712 0.154969 0.478123
Si Si3 0.771497 0.149618 0.359990
Si Si4 0.435114 0.771182 0.495514
O O1 0.290924 0.021305 0.178941
O O2 0.413899 0.135500 0.354889
O O3 0.303562 0.000000 0.500000
O O4 0.415512 0.874560 0.352112
O O5 0.182279 0.172776 0.308737
O O6 0.202664 0.232988 0.595733
O O7 0.035867 0.218778 0.489361
O O8 0.119567 0.000000 0.500000
O O9 0.856309 0.160476 0.479397
#
# Coordination Sequence:
#
# PCOD9321935 Si02
#       4
#     8   8   8   8
#     4   8  20  48  68 105 147 185 249 301 364 458
#     4  12  27  51  73 113 162 190 259 319 377 463
#     4  12  21  48  76 107 152 200 248 314 378 452
#     4   9  22  48  71 107 149 195 246 309 378 445
#
# _framework density 25.260469000000001
#
# number of rings (size 3 to 8) (size 9 to 14) (size 15 to 20)
#    1.500    0.000    2.500    3.000    0.000    1.000 
#   40.500    0.000    0.000    0.000    0.000    0.000 
#    0.000    0.000    0.000    0.000    0.000    0.000 
#
# Total GULP energy -89284.577755 kJ/mol
# GULP energy per Si atom -5580.286110 kJ/mol
# Density = 2.520298 g / cm^3
# Si number density = 25.260469 Si / 1000 Ang^3
#
#
#
# Elastic Constant Matrix: (Units=GPa)
#
#
# Indices 1 2 3 4 5 6 
#
# 1 209.5478 65.9728 33.1316 0.0000 0.0000 0.0000
# 2 65.9728 103.6403 21.7051 0.0000 0.0000 0.0000
# 3 33.1316 21.7051 57.4891 0.0000 0.0000 0.0000
# 4 0.0000 0.0000 0.0000 40.9511 0.0000 0.0000
# 5 0.0000 0.0000 0.0000 0.0000 40.6321 0.0000
# 6 0.0000 0.0000 0.0000 0.0000 0.0000 10.5571
#
#
#
# Elastic Compliance Matrix: (Units=1/GPa)
#
#
# Indices 1 2 3 4 5 6 
#
# 1 0.006230 -0.003490 -0.002273 0.000000 0.000000 0.000000
# 2 -0.003490 0.012432 -0.002682 0.000000 0.000000 0.000000
# 3 -0.002273 -0.002682 0.019717 0.000000 0.000000 0.000000
# 4 0.000000 0.000000 0.000000 0.024419 0.000000 0.000000
# 5 0.000000 0.000000 0.000000 0.000000 0.024611 0.000000
# 6 0.000000 0.000000 0.000000 0.000000 0.000000 0.094723
#
#
# Mechanical properties :
#
#
# Convention : Reuss Voigt Hill
#
# Bulk Modulus (GPa) = 46.53550 68.03290 57.28420
# Shear Modulus (GPa) = 24.24987 35.08591 29.66789
#
# Velocity S-wave (km/s) = 3.10174 3.73093 3.43078
# Velocity P-wave (km/s) = 5.59374 6.74913 6.19842
#
# Compressibility (1/GPa) = 0.02148897
#
# Stress axis : x y z
#
# Youngs Moduli (GPa) = 160.50585 80.43718 50.71682
#
# Poissons Ratio (x) = 0.28072 0.11528
# Poissons Ratio (y) = 0.56015 0.13605
# Poissons Ratio (z) = 0.36482 0.21577
#
# Static dielectric constant tensor:
#      x y z
#    x 2.009620 0.000000 0.000000 
#    y 0.000000 2.096440 0.000000 
#    z 0.000000 0.000000 2.035650 
# 
# From -- ./inp_files/14659.got.cif
#   From: 2010.05.17/outbox.cif.g08.bks.cpg/sg20_8_cif.got.tgz:14659.got - 2010.06.03 22:52:26.
