data_PCOD9321203
_publ_section_title
;
Structure prediction by ZEFSAII (Michael W. Deem and Ramdas Pophale) SiO2 
 PCOD9321203
Probable space group: C 2 2 21
;
_chemical_formula_sum "Si O2"
_cell_formula_units_Z 44
_cell_length_a 12.789019
_cell_length_b 22.602688
_cell_length_c 6.443152
_cell_angle_alpha 90.000000
_cell_angle_beta 90.000000
_cell_angle_gamma 90.000000
_cell_volume 1862.497505
_symmetry_space_group_name_H-M "C 2 2 21"
_symmetry_group_IT_number 20
_symmetry_cell_setting 'orthorhombic'
loop_
_space_group_symop_operation_xyz
x,y,z
-x,-y,1/2+z
x,-y,-z
-x,y,1/2-z
1/2+x,1/2+y,z
1/2-x,1/2-y,1/2+z
1/2+x,1/2-y,-z
1/2-x,1/2+y,1/2-z
loop_
_atom_site_type_symbol
_atom_site_label
_atom_site_fract_x
_atom_site_fract_y
_atom_site_fract_z
Si Si1 0.000000 0.828871 0.750000
Si Si2 0.894203 0.936465 0.961847
Si Si3 0.900923 0.636258 0.399390
Si Si4 0.736608 0.130594 0.741739
Si Si5 0.109873 0.231890 0.875839
Si Si6 0.779855 0.554774 0.141440
O O1 0.043899 0.876277 0.581722
O O2 0.920754 0.789003 0.611950
O O3 0.831528 0.949396 0.749885
O O4 0.810902 0.917650 0.140149
O O5 0.948503 0.000000 0.000000
O O6 0.875641 0.633296 0.644964
O O7 0.848843 0.700857 0.362549
O O8 0.855555 0.573549 0.324373
O O9 0.000000 0.641423 0.250000
O O10 0.804580 0.189752 0.727944
O O11 0.720040 0.110569 0.508819
O O12 0.000000 0.228389 0.750000
O O13 0.808515 0.500000 0.000000
#
# Coordination Sequence:
#
# PCOD9321203 Si02
#       6
#     4   8   8   8   8   8
#     4  12  24  38  66 100 142 194 228 280 358 420
#     4  11  23  39  62 101 141 176 233 285 344 425
#     4  10  27  46  65 105 136 173 239 298 360 421
#     4  11  23  41  71  96 135 181 225 283 356 421
#     4  11  24  43  67 100 144 182 230 287 350 431
#     4  11  23  44  71  96 131 182 234 287 357 423
#
# _framework density 23.624193000000002
#
# number of rings (size 3 to 8) (size 9 to 14) (size 15 to 20)
#    0.000    1.091    5.455    0.000    2.545    5.818 
#    3.273    0.000    0.000    0.000    0.000    0.000 
#    0.000    0.000    0.000    0.000    0.000    0.000 
#
# Total GULP energy -122502.623720 kJ/mol
# GULP energy per Si atom -5568.301078 kJ/mol
# Density = 2.357042 g / cm^3
# Si number density = 23.624193 Si / 1000 Ang^3
#
#
#
# Elastic Constant Matrix: (Units=GPa)
#
#
# Indices 1 2 3 4 5 6 
#
# 1 37.0185 -0.0854 8.4625 0.0000 0.0000 0.0000
# 2 -0.0854 99.9574 -1.6191 0.0000 0.0000 0.0000
# 3 8.4625 -1.6191 63.1210 0.0000 0.0000 0.0000
# 4 0.0000 0.0000 0.0000 24.8126 0.0000 0.0000
# 5 0.0000 0.0000 0.0000 0.0000 22.7682 0.0000
# 6 0.0000 0.0000 0.0000 0.0000 0.0000 15.1647
#
#
#
# Elastic Compliance Matrix: (Units=1/GPa)
#
#
# Indices 1 2 3 4 5 6 
#
# 1 0.027868 -0.000037 -0.003737 0.000000 0.000000 0.000000
# 2 -0.000037 0.010008 0.000262 0.000000 0.000000 0.000000
# 3 -0.003737 0.000262 0.016350 0.000000 0.000000 0.000000
# 4 0.000000 0.000000 0.000000 0.040302 0.000000 0.000000
# 5 0.000000 0.000000 0.000000 0.000000 0.043921 0.000000
# 6 0.000000 0.000000 0.000000 0.000000 0.000000 0.065943
#
#
# Mechanical properties :
#
#
# Convention : Reuss Voigt Hill
#
# Bulk Modulus (GPa) = 21.18546 23.73476 22.46011
# Shear Modulus (GPa) = 22.01180 25.43835 23.72507
#
# Velocity S-wave (km/s) = 3.05577 3.28501 3.17246
# Velocity P-wave (km/s) = 4.63006 4.94540 4.79033
#
# Compressibility (1/GPa) = 0.04720218
#
# Stress axis : x y z
#
# Youngs Moduli (GPa) = 35.88379 99.91541 61.16086
#
# Poissons Ratio (x) = 0.00367 0.22856
# Poissons Ratio (y) = 0.00132 -0.01600
# Poissons Ratio (z) = 0.13410 -0.02614
#
# Static dielectric constant tensor:
#      x y z
#    x 1.982700 0.000000 0.000000 
#    y 0.000000 1.897370 0.000000 
#    z 0.000000 0.000000 1.986070 
# 
# From -- ./inp_files/2690.got.cif
#   From: 2010.05.17/outbox.cif.g08.bks.cpg/sg20_2_cif.got.tgz:2690.got - 2010.06.03 22:52:26.
