data_PCOD9321781
_publ_section_title
;
Structure prediction by ZEFSAII (Michael W. Deem and Ramdas Pophale) SiO2 
 PCOD9321781
Probable space group: C 2 2 21
;
_chemical_formula_sum "Si O2"
_cell_formula_units_Z 16
_cell_length_a 12.851869
_cell_length_b 9.021824
_cell_length_c 5.203852
_cell_angle_alpha 90.000000
_cell_angle_beta 90.000000
_cell_angle_gamma 90.000000
_cell_volume 603.372590
_symmetry_space_group_name_H-M "C 2 2 21"
_symmetry_group_IT_number 20
_symmetry_cell_setting 'orthorhombic'
loop_
_space_group_symop_operation_xyz
x,y,z
-x,-y,1/2+z
x,-y,-z
-x,y,1/2-z
1/2+x,1/2+y,z
1/2-x,1/2-y,1/2+z
1/2+x,1/2-y,-z
1/2-x,1/2+y,1/2-z
loop_
_atom_site_type_symbol
_atom_site_label
_atom_site_fract_x
_atom_site_fract_y
_atom_site_fract_z
Si Si1 0.315976 0.599604 0.744906
Si Si2 0.913850 0.668414 0.938028
O O1 0.344047 0.500000 0.500000
O O2 0.198574 0.656916 0.700948
O O3 0.318877 0.500000 0.000000
O O4 0.388990 0.738127 0.807752
O O5 0.000000 0.734601 0.750000
O O6 0.944208 0.500000 0.000000
#
# Coordination Sequence:
#
# PCOD9321781 Si02
#       2
#     8   8
#     4  11  25  48  76 113 163 206 252 322 396 462
#     4  11  24  46  81 119 154 204 265 324 384 462
#
# _framework density 26.517610999999999
#
# number of rings (size 3 to 8) (size 9 to 14) (size 15 to 20)
#    0.000    1.000    0.000    7.500    0.000    4.000 
#    0.000   12.500    0.000    3.000    0.000    0.000 
#    0.000    0.000    0.000    0.000    0.000    0.000 
#
# Total GULP energy -44964.737207 kJ/mol
# GULP energy per Si atom -5620.592151 kJ/mol
# Density = 2.645726 g / cm^3
# Si number density = 26.517611 Si / 1000 Ang^3
#
#
#
# Elastic Constant Matrix: (Units=GPa)
#
#
# Indices 1 2 3 4 5 6 
#
# 1 115.5970 49.7266 72.4039 0.0000 0.0000 0.0000
# 2 49.7266 137.4955 94.5975 0.0000 0.0000 0.0000
# 3 72.4039 94.5975 230.6292 0.0000 0.0000 0.0000
# 4 0.0000 0.0000 0.0000 40.0007 0.0000 0.0000
# 5 0.0000 0.0000 0.0000 0.0000 65.5556 0.0000
# 6 0.0000 0.0000 0.0000 0.0000 0.0000 7.0212
#
#
#
# Elastic Compliance Matrix: (Units=1/GPa)
#
#
# Indices 1 2 3 4 5 6 
#
# 1 0.011261 -0.002285 -0.002598 0.000000 0.000000 0.000000
# 2 -0.002285 0.010596 -0.003629 0.000000 0.000000 0.000000
# 3 -0.002598 -0.003629 0.006640 0.000000 0.000000 0.000000
# 4 0.000000 0.000000 0.000000 0.025000 0.000000 0.000000
# 5 0.000000 0.000000 0.000000 0.000000 0.015254 0.000000
# 6 0.000000 0.000000 0.000000 0.000000 0.000000 0.142426
#
#
# Mechanical properties :
#
#
# Convention : Reuss Voigt Hill
#
# Bulk Modulus (GPa) = 87.16027 101.90863 94.53445
# Shear Modulus (GPa) = 21.54935 40.31507 30.93221
#
# Velocity S-wave (km/s) = 2.85378 3.90335 3.41908
# Velocity P-wave (km/s) = 6.61808 7.67000 7.16337
#
# Compressibility (1/GPa) = 0.01147312
#
# Stress axis : x y z
#
# Youngs Moduli (GPa) = 88.80191 94.37473 150.60296
#
# Poissons Ratio (x) = 0.21567 0.39126
# Poissons Ratio (y) = 0.20294 0.54650
# Poissons Ratio (z) = 0.23070 0.34246
#
# Static dielectric constant tensor:
#      x y z
#    x 2.019900 0.000000 0.000000 
#    y 0.000000 2.087400 0.000000 
#    z 0.000000 0.000000 2.065470 
# 
# From -- ./inp_files/183.got.cif
#   From: 2010.05.17/outbox.cif.g08.bks.cpg/sg20_1_cif.got.tgz:183.got - 2010.06.03 22:52:26.
