data_PCOD9321687
_publ_section_title
;
Structure prediction by ZEFSAII (Michael W. Deem and Ramdas Pophale) SiO2 
 PCOD9321687
Probable space group: C 2 2 21
;
_chemical_formula_sum "Si O2"
_cell_formula_units_Z 60
_cell_length_a 17.550538
_cell_length_b 6.999545
_cell_length_c 25.343113
_cell_angle_alpha 90.000000
_cell_angle_beta 90.000000
_cell_angle_gamma 90.000000
_cell_volume 3113.294497
_symmetry_space_group_name_H-M "C 2 2 21"
_symmetry_group_IT_number 20
_symmetry_cell_setting 'orthorhombic'
loop_
_space_group_symop_operation_xyz
x,y,z
-x,-y,1/2+z
x,-y,-z
-x,y,1/2-z
1/2+x,1/2+y,z
1/2-x,1/2-y,1/2+z
1/2+x,1/2-y,-z
1/2-x,1/2+y,1/2-z
loop_
_atom_site_type_symbol
_atom_site_label
_atom_site_fract_x
_atom_site_fract_y
_atom_site_fract_z
Si Si1 0.787081 0.687601 0.619675
Si Si2 0.455516 0.099455 0.602165
Si Si3 0.300104 0.366256 0.812095
Si Si4 0.054442 0.500000 0.500000
Si Si5 0.345242 0.658152 0.960700
Si Si6 0.819897 0.962994 0.303034
Si Si7 0.525316 0.220559 0.190532
Si Si8 0.443851 0.545918 0.126647
O O1 0.864751 0.608755 0.594066
O O2 0.750089 0.527154 0.657905
O O3 0.721648 0.733946 0.577120
O O4 0.811023 0.870874 0.653945
O O5 0.470616 0.961647 0.652187
O O6 0.501614 0.024436 0.551472
O O7 0.487862 0.310658 0.614260
O O8 0.321363 0.441719 0.754418
O O9 0.376185 0.337061 0.845787
O O10 0.252706 0.174090 0.807096
O O11 0.109989 0.679472 0.491918
O O12 0.408070 0.551241 0.924822
O O13 0.311929 0.500000 0.000000
O O14 0.893633 0.829095 0.309280
O O15 0.500000 0.171502 0.250000
O O16 0.467886 0.375511 0.165606
#
# Coordination Sequence:
#
# PCOD9321687 Si02
#       8
#     8   8   8   4   8   8   8   8
#     4  11  26  42  65 100 138 174 221 277 340 402
#     4  12  26  45  70 102 134 182 229 279 342 408
#     4  11  24  39  66  96 140 182 219 268 328 410
#     4  12  26  46  74 100 128 178 238 282 338 412
#     4  11  25  47  69  98 132 172 224 288 341 399
#     4  12  23  40  65 100 140 180 223 270 336 401
#     4  12  25  42  69 104 142 177 229 284 336 406
#     4  11  24  43  68  98 134 180 224 274 340 401
#
# _framework density 19.272189000000001
#
# number of rings (size 3 to 8) (size 9 to 14) (size 15 to 20)
#    0.000    0.533    8.000    0.000    2.800    2.667 
#    0.000    1.333    0.000    0.000    0.000    0.000 
#    0.000    0.000    0.000    0.000    0.000    0.000 
#
# Total GULP energy -167733.442694 kJ/mol
# GULP energy per Si atom -5591.114756 kJ/mol
# Density = 1.922832 g / cm^3
# Si number density = 19.272189 Si / 1000 Ang^3
#
#
#
# Elastic Constant Matrix: (Units=GPa)
#
#
# Indices 1 2 3 4 5 6 
#
# 1 81.1004 16.2692 30.6094 0.0000 0.0000 0.0000
# 2 16.2692 42.5223 18.8193 0.0000 0.0000 0.0000
# 3 30.6094 18.8193 80.0763 0.0000 0.0000 0.0000
# 4 0.0000 0.0000 0.0000 28.6475 0.0000 0.0000
# 5 0.0000 0.0000 0.0000 0.0000 29.5760 0.0000
# 6 0.0000 0.0000 0.0000 0.0000 0.0000 21.9954
#
#
#
# Elastic Compliance Matrix: (Units=1/GPa)
#
#
# Indices 1 2 3 4 5 6 
#
# 1 0.014873 -0.003543 -0.004852 0.000000 0.000000 0.000000
# 2 -0.003543 0.027091 -0.005013 0.000000 0.000000 0.000000
# 3 -0.004852 -0.005013 0.015521 0.000000 0.000000 0.000000
# 4 0.000000 0.000000 0.000000 0.034907 0.000000 0.000000
# 5 0.000000 0.000000 0.000000 0.000000 0.033811 0.000000
# 6 0.000000 0.000000 0.000000 0.000000 0.000000 0.045464
#
#
# Mechanical properties :
#
#
# Convention : Reuss Voigt Hill
#
# Bulk Modulus (GPa) = 32.60629 37.23275 34.91952
# Shear Modulus (GPa) = 23.95721 25.24385 24.60053
#
# Velocity S-wave (km/s) = 3.52958 3.62312 3.57666
# Velocity P-wave (km/s) = 5.79363 6.07158 5.93423
#
# Compressibility (1/GPa) = 0.03066893
#
# Stress axis : x y z
#
# Youngs Moduli (GPa) = 67.23810 36.91262 64.42873
#
# Poissons Ratio (x) = 0.13077 0.31264
# Poissons Ratio (y) = 0.23820 0.32296
# Poissons Ratio (z) = 0.32627 0.18503
#
# Static dielectric constant tensor:
#      x y z
#    x 1.651580 0.000000 0.000000 
#    y 0.000000 1.645930 0.000000 
#    z 0.000000 0.000000 1.663510 
# 
# From -- ./inp_files/29925.got.cif
#   From: 2010.05.17/outbox.cif.g08.bks.cpg/sg20_15_cif.got.tgz:29925.got - 2010.06.03 22:52:26.
