data_PCOD9321942
_publ_section_title
;
Structure prediction by ZEFSAII (Michael W. Deem and Ramdas Pophale) SiO2 
 PCOD9321942
Probable space group: C 2 2 21
;
_chemical_formula_sum "Si O2"
_cell_formula_units_Z 32
_cell_length_a 5.107673
_cell_length_b 24.478086
_cell_length_c 10.599791
_cell_angle_alpha 90.000000
_cell_angle_beta 90.000000
_cell_angle_gamma 90.000000
_cell_volume 1325.250094
_symmetry_space_group_name_H-M "C 2 2 21"
_symmetry_group_IT_number 20
_symmetry_cell_setting 'orthorhombic'
loop_
_space_group_symop_operation_xyz
x,y,z
-x,-y,1/2+z
x,-y,-z
-x,y,1/2-z
1/2+x,1/2+y,z
1/2-x,1/2-y,1/2+z
1/2+x,1/2-y,-z
1/2-x,1/2+y,1/2-z
loop_
_atom_site_type_symbol
_atom_site_label
_atom_site_fract_x
_atom_site_fract_y
_atom_site_fract_z
Si Si1 0.415813 0.957766 0.385648
Si Si2 0.090396 0.231669 0.963878
Si Si3 0.500000 0.613814 0.250000
Si Si4 0.500000 0.809912 0.750000
Si Si5 0.416368 0.602122 0.532006
O O1 0.500000 0.981331 0.250000
O O2 0.629328 0.911991 0.419914
O O3 0.132012 0.930326 0.388962
O O4 0.428834 0.000000 0.500000
O O5 0.930493 0.269579 0.863249
O O6 0.048750 0.167159 0.956711
O O7 0.887779 0.252156 0.072250
O O8 0.756222 0.650483 0.273151
O O9 0.449740 0.584706 0.384268
#
# Coordination Sequence:
#
# PCOD9321942 Si02
#       5
#     8   8   4   4   8
#     4  12  30  53  78 106 140 185 244 309 373 432
#     4  12  23  42  63 102 146 192 233 286 333 423
#     4  12  24  42  72 107 144 201 238 294 348 434
#     4  12  22  40  64 101 154 195 244 280 350 414
#     4  12  26  47  75 107 146 188 247 291 373 422
#
# _framework density 24.146387000000001
#
# number of rings (size 3 to 8) (size 9 to 14) (size 15 to 20)
#    0.000    0.000    5.000    4.500    7.000    0.000 
#    0.000    0.000    0.000    0.000    0.000    0.000 
#    0.000    0.000    0.000    0.000    0.000    0.000 
#
# Total GULP energy -89361.115830 kJ/mol
# GULP energy per Si atom -5585.069739 kJ/mol
# Density = 2.409143 g / cm^3
# Si number density = 24.146387 Si / 1000 Ang^3
#
#
#
# Elastic Constant Matrix: (Units=GPa)
#
#
# Indices 1 2 3 4 5 6 
#
# 1 123.8632 9.9575 1.8772 0.0000 0.0000 0.0000
# 2 9.9575 69.2419 15.2962 0.0000 0.0000 0.0000
# 3 1.8772 15.2962 51.0873 0.0000 0.0000 0.0000
# 4 0.0000 0.0000 0.0000 40.3447 0.0000 0.0000
# 5 0.0000 0.0000 0.0000 0.0000 28.5529 0.0000
# 6 0.0000 0.0000 0.0000 0.0000 0.0000 14.8818
#
#
#
# Elastic Compliance Matrix: (Units=1/GPa)
#
#
# Indices 1 2 3 4 5 6 
#
# 1 0.008168 -0.001187 0.000055 0.000000 0.000000 0.000000
# 2 -0.001187 0.015637 -0.004638 0.000000 0.000000 0.000000
# 3 0.000055 -0.004638 0.020961 0.000000 0.000000 0.000000
# 4 0.000000 0.000000 0.000000 0.024786 0.000000 0.000000
# 5 0.000000 0.000000 0.000000 0.000000 0.035023 0.000000
# 6 0.000000 0.000000 0.000000 0.000000 0.000000 0.067196
#
#
# Mechanical properties :
#
#
# Convention : Reuss Voigt Hill
#
# Bulk Modulus (GPa) = 30.09649 33.16158 31.62904
# Shear Modulus (GPa) = 25.72180 31.22664 28.47422
#
# Velocity S-wave (km/s) = 3.26735 3.60004 3.43772
# Velocity P-wave (km/s) = 5.16965 5.57169 5.37443
#
# Compressibility (1/GPa) = 0.03322646
#
# Stress axis : x y z
#
# Youngs Moduli (GPa) = 122.42904 63.94899 47.70742
#
# Poissons Ratio (x) = 0.07590 -0.00263
# Poissons Ratio (y) = 0.14530 0.22129
# Poissons Ratio (z) = -0.00676 0.29662
#
# Static dielectric constant tensor:
#      x y z
#    x 1.605270 0.000000 0.000000 
#    y 0.000000 1.883000 0.000000 
#    z 0.000000 0.000000 3.758440 
# 
# From -- ./inp_files/11946.got.cif
#   From: 2010.05.17/outbox.cif.g08.bks.cpg/sg20_6_cif.got.tgz:11946.got - 2010.06.03 22:52:26.
