data_PCOD9321867
_publ_section_title
;
Structure prediction by ZEFSAII (Michael W. Deem and Ramdas Pophale) SiO2 
 PCOD9321867
Probable space group: C 2 2 21
;
_chemical_formula_sum "Si O2"
_cell_formula_units_Z 40
_cell_length_a 12.337795
_cell_length_b 9.354353
_cell_length_c 13.594903
_cell_angle_alpha 90.000000
_cell_angle_beta 90.000000
_cell_angle_gamma 90.000000
_cell_volume 1569.016164
_symmetry_space_group_name_H-M "C 2 2 21"
_symmetry_group_IT_number 20
_symmetry_cell_setting 'orthorhombic'
loop_
_space_group_symop_operation_xyz
x,y,z
-x,-y,1/2+z
x,-y,-z
-x,y,1/2-z
1/2+x,1/2+y,z
1/2-x,1/2-y,1/2+z
1/2+x,1/2-y,-z
1/2-x,1/2+y,1/2-z
loop_
_atom_site_type_symbol
_atom_site_label
_atom_site_fract_x
_atom_site_fract_y
_atom_site_fract_z
Si Si1 0.285685 0.969330 0.200182
Si Si2 0.197212 0.156887 0.515152
Si Si3 0.617664 0.680624 0.295691
Si Si4 0.375802 0.649755 0.538423
Si Si5 0.949819 0.301035 0.856786
O O1 0.218325 0.079456 0.266054
O O2 0.194236 0.897832 0.132419
O O3 0.376427 0.059000 0.140591
O O4 0.351962 0.837885 0.246183
O O5 0.126538 0.189546 0.415565
O O6 0.286647 0.278545 0.530346
O O7 0.123583 0.166557 0.611751
O O8 0.242920 0.000000 0.500000
O O9 0.500000 0.638662 0.250000
O O10 0.424280 0.500000 0.500000
O O11 0.453374 0.778995 0.567444
O O12 0.000000 0.288971 0.750000
#
# Coordination Sequence:
#
# PCOD9321867 Si02
#       5
#     8   8   8   8   8
#     4  11  26  50  74 111 154 192 258 319 370 469
#     4  11  27  46  71 112 148 194 261 313 376 470
#     4  11  28  47  78 109 151 202 250 316 389 454
#     4  11  25  50  75 106 153 200 246 324 383 450
#     4  12  26  47  77 106 151 200 251 312 386 450
#
# _framework density 25.493683000000001
#
# number of rings (size 3 to 8) (size 9 to 14) (size 15 to 20)
#    0.000    0.800    2.000    3.600   11.200    0.000 
#    7.200    0.000    0.000    0.000    0.000    0.000 
#    0.000    0.000    0.000    0.000    0.000    0.000 
#
# Total GULP energy -111847.858915 kJ/mol
# GULP energy per Si atom -5592.392946 kJ/mol
# Density = 2.543566 g / cm^3
# Si number density = 25.493683 Si / 1000 Ang^3
#
#
#
# Elastic Constant Matrix: (Units=GPa)
#
#
# Indices 1 2 3 4 5 6 
#
# 1 108.7998 39.3278 28.6483 0.0000 0.0000 0.0000
# 2 39.3278 114.7769 9.0214 0.0000 0.0000 0.0000
# 3 28.6483 9.0214 39.7285 0.0000 0.0000 0.0000
# 4 0.0000 0.0000 0.0000 37.2073 0.0000 0.0000
# 5 0.0000 0.0000 0.0000 0.0000 43.5633 0.0000
# 6 0.0000 0.0000 0.0000 0.0000 0.0000 35.9792
#
#
#
# Elastic Compliance Matrix: (Units=1/GPa)
#
#
# Indices 1 2 3 4 5 6 
#
# 1 0.012725 -0.003705 -0.008335 0.000000 0.000000 0.000000
# 2 -0.003705 0.009950 0.000412 0.000000 0.000000 0.000000
# 3 -0.008335 0.000412 0.031087 0.000000 0.000000 0.000000
# 4 0.000000 0.000000 0.000000 0.026876 0.000000 0.000000
# 5 0.000000 0.000000 0.000000 0.000000 0.022955 0.000000
# 6 0.000000 0.000000 0.000000 0.000000 0.000000 0.027794
#
#
# Mechanical properties :
#
#
# Convention : Reuss Voigt Hill
#
# Bulk Modulus (GPa) = 32.77902 46.36667 39.57284
# Shear Modulus (GPa) = 30.33768 35.77048 33.05408
#
# Velocity S-wave (km/s) = 3.45339 3.74988 3.60468
# Velocity P-wave (km/s) = 5.36534 6.08077 5.73422
#
# Compressibility (1/GPa) = 0.03050732
#
# Stress axis : x y z
#
# Youngs Moduli (GPa) = 78.58476 100.50582 32.16737
#
# Poissons Ratio (x) = 0.37238 0.26811
# Poissons Ratio (y) = 0.29116 -0.01327
# Poissons Ratio (z) = 0.65499 -0.04145
#
# Static dielectric constant tensor:
#      x y z
#    x 2.047720 0.000000 0.000000 
#    y 0.000000 1.975200 0.000000 
#    z 0.000000 0.000000 2.047720 
# 
# From -- ./inp_files/20479.got.cif
#   From: 2010.05.17/outbox.cif.g08.bks.cpg/sg20_11_cif.got.tgz:20479.got - 2010.06.03 22:52:26.
