data_PCOD9321769
_publ_section_title
;
Structure prediction by ZEFSAII (Michael W. Deem and Ramdas Pophale) SiO2 
 PCOD9321769
Probable space group: C 2 2 21
;
_chemical_formula_sum "Si O2"
_cell_formula_units_Z 48
_cell_length_a 14.391305
_cell_length_b 5.117218
_cell_length_c 26.565502
_cell_angle_alpha 90.000000
_cell_angle_beta 90.000000
_cell_angle_gamma 90.000000
_cell_volume 1956.375085
_symmetry_space_group_name_H-M "C 2 2 21"
_symmetry_group_IT_number 20
_symmetry_cell_setting 'orthorhombic'
loop_
_space_group_symop_operation_xyz
x,y,z
-x,-y,1/2+z
x,-y,-z
-x,y,1/2-z
1/2+x,1/2+y,z
1/2-x,1/2-y,1/2+z
1/2+x,1/2-y,-z
1/2-x,1/2+y,1/2-z
loop_
_atom_site_type_symbol
_atom_site_label
_atom_site_fract_x
_atom_site_fract_y
_atom_site_fract_z
Si Si1 0.258786 0.904889 0.943420
Si Si2 0.424071 0.132411 0.670102
Si Si3 0.804941 0.187742 0.238898
Si Si4 0.590167 0.342469 0.106135
Si Si5 0.912831 0.038347 0.943667
Si Si6 0.881521 0.358930 0.139682
O O1 0.157267 0.027327 0.935769
O O2 0.304097 0.616940 0.944696
O O3 0.302601 0.976410 0.887930
O O4 0.290168 0.000000 0.000000
O O5 0.374173 0.918758 0.634120
O O6 0.379617 0.177052 0.724186
O O7 0.421991 0.421509 0.645797
O O8 0.530186 0.028263 0.669625
O O9 0.722775 0.402898 0.241402
O O10 0.837803 0.169946 0.181505
O O11 0.490202 0.274653 0.081042
O O12 0.919955 0.787965 0.909144
O O13 0.942932 0.000000 0.000000
#
# Coordination Sequence:
#
# PCOD9321769 Si02
#       6
#     8   8   8   8   8   8
#     4  12  24  43  70 105 140 198 242 300 362 435
#     4  11  24  48  69 107 139 190 240 302 369 443
#     4  12  27  45  71 105 142 185 243 305 368 449
#     4  11  26  44  74 104 148 186 243 299 367 438
#     4  11  24  46  69 106 147 195 244 307 366 443
#     4  11  25  44  72  97 146 189 241 300 371 435
#
# _framework density 24.535174000000001
#
# number of rings (size 3 to 8) (size 9 to 14) (size 15 to 20)
#    0.000    0.667    3.333    4.000    7.000    0.000 
#    0.000    5.000    0.000    0.000    0.000    0.000 
#    0.000    0.000    0.000    0.000    0.000    0.000 
#
# Total GULP energy -133685.519446 kJ/mol
# GULP energy per Si atom -5570.229977 kJ/mol
# Density = 2.447933 g / cm^3
# Si number density = 24.535174 Si / 1000 Ang^3
#
#
#
# Elastic Constant Matrix: (Units=GPa)
#
#
# Indices 1 2 3 4 5 6 
#
# 1 68.1439 0.0157 4.8384 0.0000 0.0000 0.0000
# 2 0.0157 76.0298 17.7352 0.0000 0.0000 0.0000
# 3 4.8384 17.7352 129.0294 0.0000 0.0000 0.0000
# 4 0.0000 0.0000 0.0000 32.1628 0.0000 0.0000
# 5 0.0000 0.0000 0.0000 0.0000 15.7503 0.0000
# 6 0.0000 0.0000 0.0000 0.0000 0.0000 4.8283
#
#
#
# Elastic Compliance Matrix: (Units=1/GPa)
#
#
# Indices 1 2 3 4 5 6 
#
# 1 0.014715 0.000130 -0.000570 0.000000 0.000000 0.000000
# 2 0.000130 0.013590 -0.001873 0.000000 0.000000 0.000000
# 3 -0.000570 -0.001873 0.008029 0.000000 0.000000 0.000000
# 4 0.000000 0.000000 0.000000 0.031092 0.000000 0.000000
# 5 0.000000 0.000000 0.000000 0.000000 0.063491 0.000000
# 6 0.000000 0.000000 0.000000 0.000000 0.000000 0.207114
#
#
# Mechanical properties :
#
#
# Convention : Reuss Voigt Hill
#
# Bulk Modulus (GPa) = 31.53716 35.37574 33.45645
# Shear Modulus (GPa) = 14.15527 27.25586 20.70556
#
# Velocity S-wave (km/s) = 2.40456 3.33662 2.90817
# Velocity P-wave (km/s) = 4.53773 5.41236 4.99423
#
# Compressibility (1/GPa) = 0.03170862
#
# Stress axis : x y z
#
# Youngs Moduli (GPa) = 67.95674 73.58586 124.54933
#
# Poissons Ratio (x) = -0.00955 0.07095
# Poissons Ratio (y) = -0.00882 0.23325
# Poissons Ratio (z) = 0.03871 0.13781
#
# Static dielectric constant tensor:
#      x y z
#    x 2.230050 0.000000 0.000000 
#    y 0.000000 1.996690 0.000000 
#    z 0.000000 0.000000 1.960450 
# 
# From -- ./inp_files/29829.got.cif
#   From: 2010.05.17/outbox.cif.g08.bks.cpg/sg20_15_cif.got.tgz:29829.got - 2010.06.03 22:52:26.
