data_PCOD9321345
_publ_section_title
;
Structure prediction by ZEFSAII (Michael W. Deem and Ramdas Pophale) SiO2 
 PCOD9321345
Probable space group: C 2 2 21
;
_chemical_formula_sum "Si O2"
_cell_formula_units_Z 32
_cell_length_a 10.807205
_cell_length_b 18.266862
_cell_length_c 7.592853
_cell_angle_alpha 90.000000
_cell_angle_beta 90.000000
_cell_angle_gamma 90.000000
_cell_volume 1498.933374
_symmetry_space_group_name_H-M "C 2 2 21"
_symmetry_group_IT_number 20
_symmetry_cell_setting 'orthorhombic'
loop_
_space_group_symop_operation_xyz
x,y,z
-x,-y,1/2+z
x,-y,-z
-x,y,1/2-z
1/2+x,1/2+y,z
1/2-x,1/2-y,1/2+z
1/2+x,1/2-y,-z
1/2-x,1/2+y,1/2-z
loop_
_atom_site_type_symbol
_atom_site_label
_atom_site_fract_x
_atom_site_fract_y
_atom_site_fract_z
Si Si1 0.000927 0.414559 0.459741
Si Si2 0.717350 0.415551 0.552253
Si Si3 0.360682 0.697736 0.764532
Si Si4 0.248331 0.343388 0.601569
O O1 0.024163 0.500000 0.500000
O O2 0.111494 0.370751 0.548758
O O3 0.000000 0.402783 0.250000
O O4 0.864057 0.397812 0.529854
O O5 0.699664 0.500000 0.500000
O O6 0.647582 0.362482 0.418066
O O7 0.690792 0.396789 0.754861
O O8 0.500000 0.726123 0.750000
O O9 0.322436 0.663059 0.579064
O O10 0.267930 0.763660 0.811084
#
# Coordination Sequence:
#
# PCOD9321345 Si02
#       4
#     8   8   8   8
#     4  11  21  39  72 106 134 171 221 290 346 393
#     4  11  24  46  69 103 136 174 228 281 341 401
#     4  12  27  46  69 100 136 184 228 273 343 409
#     4  12  25  45  71  98 137 176 227 287 336 402
#
# _framework density 21.348516
#
# number of rings (size 3 to 8) (size 9 to 14) (size 15 to 20)
#    0.000    0.500    5.000    5.250    0.000    1.000 
#    4.500    0.000    0.000    0.000    0.000    0.000 
#    0.000    0.000    0.000    0.000    0.000    0.000 
#
# Total GULP energy -89584.613914 kJ/mol
# GULP energy per Si atom -5599.038370 kJ/mol
# Density = 2.129993 g / cm^3
# Si number density = 21.348516 Si / 1000 Ang^3
#
#
#
# Elastic Constant Matrix: (Units=GPa)
#
#
# Indices 1 2 3 4 5 6 
#
# 1 25.3318 -0.5791 -4.4357 0.0000 0.0000 0.0000
# 2 -0.5791 61.5906 27.6140 0.0000 0.0000 0.0000
# 3 -4.4357 27.6140 150.7137 0.0000 0.0000 0.0000
# 4 0.0000 0.0000 0.0000 39.7581 0.0000 0.0000
# 5 0.0000 0.0000 0.0000 0.0000 -3.9589 0.0000
# 6 0.0000 0.0000 0.0000 0.0000 0.0000 31.1670
#
#
#
# Elastic Compliance Matrix: (Units=1/GPa)
#
#
# Indices 1 2 3 4 5 6 
#
# 1 0.039682 -0.000164 0.001198 0.000000 0.000000 0.000000
# 2 -0.000164 0.017690 -0.003246 0.000000 0.000000 0.000000
# 3 0.001198 -0.003246 0.007265 0.000000 0.000000 0.000000
# 4 0.000000 0.000000 0.000000 0.025152 0.000000 0.000000
# 5 0.000000 0.000000 0.000000 0.000000 -0.252595 0.000000
# 6 0.000000 0.000000 0.000000 0.000000 0.000000 0.032085
#
#
# Mechanical properties :
#
#
# Convention : Reuss Voigt Hill
#
# Bulk Modulus (GPa) = 16.60770 31.42608 24.01689
# Shear Modulus (GPa) = -47.06987 27.72902 -9.67042
#
# Velocity S-wave (km/s) = -4.70066 3.60790 -2.13064
# Velocity P-wave (km/s) = 4.65461 5.66642 2.28506
#
# Compressibility (1/GPa) = 0.06021302
#
# Stress axis : x y z
#
# Youngs Moduli (GPa) = 25.20032 56.52898 137.64444
#
# Poissons Ratio (x) = 0.00927 -0.16489
# Poissons Ratio (y) = 0.00413 0.44680
# Poissons Ratio (z) = -0.03019 0.18349
#
# Static dielectric constant tensor:
#      x y z
#    x 1.742480 0.000000 0.000000 
#    y 0.000000 1.752920 0.000000 
#    z 0.000000 0.000000 1.777790 
# 
# From -- ./inp_files/6987.got.cif
#   From: 2010.05.17/outbox.cif.g08.bks.cpg/sg20_4_cif.got.tgz:6987.got - 2010.06.03 22:52:26.
