data_PCOD9321349
_publ_section_title
;
Structure prediction by ZEFSAII (Michael W. Deem and Ramdas Pophale) SiO2 
 PCOD9321349
Probable space group: C 2 2 21
;
_chemical_formula_sum "Si O2"
_cell_formula_units_Z 48
_cell_length_a 7.871014
_cell_length_b 14.289397
_cell_length_c 18.430706
_cell_angle_alpha 90.000000
_cell_angle_beta 90.000000
_cell_angle_gamma 90.000000
_cell_volume 2072.939173
_symmetry_space_group_name_H-M "C 2 2 21"
_symmetry_group_IT_number 20
_symmetry_cell_setting 'orthorhombic'
loop_
_space_group_symop_operation_xyz
x,y,z
-x,-y,1/2+z
x,-y,-z
-x,y,1/2-z
1/2+x,1/2+y,z
1/2-x,1/2-y,1/2+z
1/2+x,1/2-y,-z
1/2-x,1/2+y,1/2-z
loop_
_atom_site_type_symbol
_atom_site_label
_atom_site_fract_x
_atom_site_fract_y
_atom_site_fract_z
Si Si1 0.680461 0.622122 0.291022
Si Si2 0.308473 0.970009 0.842698
Si Si3 0.454500 0.791165 0.023560
Si Si4 0.117811 0.668972 0.681159
Si Si5 0.849327 0.433796 0.568252
Si Si6 0.385322 0.604937 0.472171
O O1 0.500000 0.609782 0.250000
O O2 0.812913 0.577715 0.235157
O O3 0.708177 0.732789 0.302495
O O4 0.707929 0.575456 0.369611
O O5 0.482905 0.969640 0.888418
O O6 0.175484 0.910778 0.889951
O O7 0.264328 0.079199 0.832333
O O8 0.491422 0.811870 0.108196
O O9 0.465764 0.679403 0.015208
O O10 0.586748 0.837337 0.967946
O O11 0.278376 0.844306 0.008280
O O12 0.000000 0.646782 0.750000
O O13 0.811348 0.500000 0.500000
O O14 0.411343 0.500000 0.500000
#
# Coordination Sequence:
#
# PCOD9321349 Si02
#       6
#     8   8   8   8   8   8
#     4  11  25  43  67 104 143 182 234 307 376 442
#     4  11  22  44  70  95 136 189 242 296 356 448
#     4  11  22  41  70 104 138 191 234 305 364 439
#     4  11  21  40  67  95 131 187 232 286 370 428
#     4  11  22  43  74 105 133 189 255 294 366 451
#     4  11  22  42  68 101 144 185 243 299 370 434
#
# _framework density 23.155528
#
# number of rings (size 3 to 8) (size 9 to 14) (size 15 to 20)
#    0.000    1.000    3.333    5.500    0.000    0.000 
#    0.000   10.833    3.667    0.000    0.000    0.000 
#    0.000    0.000    0.000    0.000    0.000    0.000 
#
# Total GULP energy -134155.025344 kJ/mol
# GULP energy per Si atom -5589.792723 kJ/mol
# Density = 2.310283 g / cm^3
# Si number density = 23.155528 Si / 1000 Ang^3
#
#
#
# Elastic Constant Matrix: (Units=GPa)
#
#
# Indices 1 2 3 4 5 6 
#
# 1 99.0299 45.6866 35.2736 0.0000 0.0000 0.0000
# 2 45.6866 187.7561 73.6770 0.0000 0.0000 0.0000
# 3 35.2736 73.6770 183.8209 0.0000 0.0000 0.0000
# 4 0.0000 0.0000 0.0000 43.9150 0.0000 0.0000
# 5 0.0000 0.0000 0.0000 0.0000 40.1905 0.0000
# 6 0.0000 0.0000 0.0000 0.0000 0.0000 32.2278
#
#
#
# Elastic Compliance Matrix: (Units=1/GPa)
#
#
# Indices 1 2 3 4 5 6 
#
# 1 0.011632 -0.002319 -0.001302 0.000000 0.000000 0.000000
# 2 -0.002319 0.006783 -0.002273 0.000000 0.000000 0.000000
# 3 -0.001302 -0.002273 0.006601 0.000000 0.000000 0.000000
# 4 0.000000 0.000000 0.000000 0.022771 0.000000 0.000000
# 5 0.000000 0.000000 0.000000 0.000000 0.024881 0.000000
# 6 0.000000 0.000000 0.000000 0.000000 0.000000 0.031029
#
#
# Mechanical properties :
#
#
# Convention : Reuss Voigt Hill
#
# Bulk Modulus (GPa) = 75.61298 86.65347 81.13323
# Shear Modulus (GPa) = 41.70270 44.33129 43.01700
#
# Velocity S-wave (km/s) = 4.24840 4.38025 4.31483
# Velocity P-wave (km/s) = 7.53595 7.94265 7.74197
#
# Compressibility (1/GPa) = 0.01322524
#
# Stress axis : x y z
#
# Youngs Moduli (GPa) = 85.97069 147.43760 151.48701
#
# Poissons Ratio (x) = 0.34195 0.19731
# Poissons Ratio (y) = 0.19939 0.34440
# Poissons Ratio (z) = 0.11197 0.33519
#
# Static dielectric constant tensor:
#      x y z
#    x 1.942160 0.000000 0.000000 
#    y 0.000000 1.857710 0.000000 
#    z 0.000000 0.000000 1.865460 
# 
# From -- ./inp_files/23425.got.cif
#   From: 2010.05.17/outbox.cif.g08.bks.cpg/sg20_12_cif.got.tgz:23425.got - 2010.06.03 22:52:26.
