data_PCOD9321140
_publ_section_title
;
Structure prediction by ZEFSAII (Michael W. Deem and Ramdas Pophale) SiO2 
 PCOD9321140
Probable space group: C 2 2 21
;
_chemical_formula_sum "Si O2"
_cell_formula_units_Z 40
_cell_length_a 15.037441
_cell_length_b 5.909584
_cell_length_c 19.375289
_cell_angle_alpha 90.000000
_cell_angle_beta 90.000000
_cell_angle_gamma 90.000000
_cell_volume 1721.785459
_symmetry_space_group_name_H-M "C 2 2 21"
_symmetry_group_IT_number 20
_symmetry_cell_setting 'orthorhombic'
loop_
_space_group_symop_operation_xyz
x,y,z
-x,-y,1/2+z
x,-y,-z
-x,y,1/2-z
1/2+x,1/2+y,z
1/2-x,1/2-y,1/2+z
1/2+x,1/2-y,-z
1/2-x,1/2+y,1/2-z
loop_
_atom_site_type_symbol
_atom_site_label
_atom_site_fract_x
_atom_site_fract_y
_atom_site_fract_z
Si Si1 0.500000 0.720665 0.250000
Si Si2 0.238694 0.828683 0.632665
Si Si3 0.564834 0.404815 0.350100
Si Si4 0.981124 0.261278 0.986124
Si Si5 0.168689 0.469299 0.726172
Si Si6 0.150416 0.500000 0.000000
O O1 0.491882 0.560870 0.315851
O O2 0.411032 0.858797 0.240802
O O3 0.141260 0.933050 0.619415
O O4 0.278171 0.939229 0.702896
O O5 0.294534 0.898447 0.564591
O O6 0.223645 0.570562 0.660528
O O7 0.517947 0.239905 0.403367
O O8 0.618350 0.257826 0.294911
O O9 0.077599 0.306490 0.020007
O O10 0.929151 0.500000 0.000000
O O11 0.955504 0.000000 0.000000
#
# Coordination Sequence:
#
# PCOD9321140 Si02
#       6
#     4   8   8   8   8   4
#     4  10  26  38  76  98 138 184 240 304 354 438
#     4  11  25  45  67 108 140 192 234 312 369 446
#     4  11  25  43  72 100 142 192 241 303 364 443
#     4  10  27  47  71 103 144 192 244 300 366 448
#     4  11  24  44  69 104 145 185 248 297 374 439
#     4  10  28  42  74 102 146 188 244 304 380 440
#
# _framework density 23.231698000000002
#
# number of rings (size 3 to 8) (size 9 to 14) (size 15 to 20)
#    0.600    0.800    2.000    0.600   15.400    1.600 
#    0.000    0.000    0.000    0.000    0.000    0.000 
#    0.000    0.000    0.000    0.000    0.000    0.000 
#
# Total GULP energy -111373.579733 kJ/mol
# GULP energy per Si atom -5568.678987 kJ/mol
# Density = 2.317882 g / cm^3
# Si number density = 23.231698 Si / 1000 Ang^3
#
#
#
# Elastic Constant Matrix: (Units=GPa)
#
#
# Indices 1 2 3 4 5 6 
#
# 1 33.8210 7.8306 20.9646 0.0000 0.0000 0.0000
# 2 7.8306 107.0183 13.8261 0.0000 0.0000 0.0000
# 3 20.9646 13.8261 62.4985 0.0000 0.0000 0.0000
# 4 0.0000 0.0000 0.0000 22.0400 0.0000 0.0000
# 5 0.0000 0.0000 0.0000 0.0000 44.6339 0.0000
# 6 0.0000 0.0000 0.0000 0.0000 0.0000 22.5613
#
#
#
# Elastic Compliance Matrix: (Units=1/GPa)
#
#
# Indices 1 2 3 4 5 6 
#
# 1 0.037466 -0.001151 -0.012313 0.000000 0.000000 0.000000
# 2 -0.001151 0.009654 -0.001750 0.000000 0.000000 0.000000
# 3 -0.012313 -0.001750 0.020518 0.000000 0.000000 0.000000
# 4 0.000000 0.000000 0.000000 0.045372 0.000000 0.000000
# 5 0.000000 0.000000 0.000000 0.000000 0.022404 0.000000
# 6 0.000000 0.000000 0.000000 0.000000 0.000000 0.044324
#
#
# Mechanical properties :
#
#
# Convention : Reuss Voigt Hill
#
# Bulk Modulus (GPa) = 26.87351 32.06446 29.46898
# Shear Modulus (GPa) = 22.46482 28.56148 25.51315
#
# Velocity S-wave (km/s) = 3.11302 3.51011 3.31751
# Velocity P-wave (km/s) = 4.95115 5.50089 5.23325
#
# Compressibility (1/GPa) = 0.03721136
#
# Stress axis : x y z
#
# Youngs Moduli (GPa) = 26.69055 103.57912 48.73800
#
# Poissons Ratio (x) = 0.11918 0.60012
# Poissons Ratio (y) = 0.03071 0.08528
# Poissons Ratio (z) = 0.32865 0.18124
#
# Static dielectric constant tensor:
#      x y z
#    x 1.832370 0.000000 0.000000 
#    y 0.000000 1.964160 0.000000 
#    z 0.000000 0.000000 1.966040 
# 
# From -- ./inp_files/22651.got.cif
#   From: 2010.05.17/outbox.cif.g08.bks.cpg/sg20_12_cif.got.tgz:22651.got - 2010.06.03 22:52:26.
