data_PCOD9321132
_publ_section_title
;
Structure prediction by ZEFSAII (Michael W. Deem and Ramdas Pophale) SiO2 
 PCOD9321132
Probable space group: C 2 2 21
;
_chemical_formula_sum "Si O2"
_cell_formula_units_Z 36
_cell_length_a 8.111038
_cell_length_b 21.297195
_cell_length_c 7.254125
_cell_angle_alpha 90.000000
_cell_angle_beta 90.000000
_cell_angle_gamma 90.000000
_cell_volume 1253.094657
_symmetry_space_group_name_H-M "C 2 2 21"
_symmetry_group_IT_number 20
_symmetry_cell_setting 'orthorhombic'
loop_
_space_group_symop_operation_xyz
x,y,z
-x,-y,1/2+z
x,-y,-z
-x,y,1/2-z
1/2+x,1/2+y,z
1/2-x,1/2-y,1/2+z
1/2+x,1/2-y,-z
1/2-x,1/2+y,1/2-z
loop_
_atom_site_type_symbol
_atom_site_label
_atom_site_fract_x
_atom_site_fract_y
_atom_site_fract_z
Si Si1 0.072338 0.000000 0.500000
Si Si2 0.112527 0.717471 0.432835
Si Si3 0.816136 0.549960 0.806493
Si Si4 0.800307 0.099225 0.348806
Si Si5 0.791374 0.344527 0.464202
O O1 0.181969 0.010869 0.684548
O O2 0.961519 0.062554 0.441958
O O3 0.272412 0.672370 0.407809
O O4 0.173943 0.785082 0.492164
O O5 0.000000 0.725388 0.250000
O O6 0.976520 0.681117 0.549610
O O7 0.825017 0.440164 0.973398
O O8 0.760973 0.617304 0.720645
O O9 0.000000 0.535640 0.750000
O O10 0.735594 0.109466 0.139144
#
# Coordination Sequence:
#
# PCOD9321132 Si02
#       5
#     4   8   8   8   8
#     4  12  32  58  92 126 176 242 302 378 442 554
#     4  10  25  51  86 133 176 231 293 362 451 526
#     4  12  29  54  83 127 181 228 297 371 452 532
#     4  11  28  55  84 129 175 229 305 359 449 528
#     4  11  27  53  86 127 181 238 285 377 439 536
#
# _framework density 28.728871999999999
#
# number of rings (size 3 to 8) (size 9 to 14) (size 15 to 20)
#    0.000    0.889    2.222    0.667   15.556    0.889 
#    4.000    0.000    0.000    0.000    0.000    0.000 
#    0.000    0.000    0.000    0.000    0.000    0.000 
#
# Total GULP energy -100466.382928 kJ/mol
# GULP energy per Si atom -5581.465718 kJ/mol
# Density = 2.866348 g / cm^3
# Si number density = 28.728872 Si / 1000 Ang^3
#
#
#
# Elastic Constant Matrix: (Units=GPa)
#
#
# Indices 1 2 3 4 5 6 
#
# 1 180.5146 57.7750 53.4939 0.0000 0.0000 0.0000
# 2 57.7750 167.9782 21.5579 0.0000 0.0000 0.0000
# 3 53.4939 21.5579 215.2472 0.0000 0.0000 0.0000
# 4 0.0000 0.0000 0.0000 23.9107 0.0000 0.0000
# 5 0.0000 0.0000 0.0000 0.0000 38.8617 0.0000
# 6 0.0000 0.0000 0.0000 0.0000 0.0000 72.9825
#
#
#
# Elastic Compliance Matrix: (Units=1/GPa)
#
#
# Indices 1 2 3 4 5 6 
#
# 1 0.006638 -0.002098 -0.001440 0.000000 0.000000 0.000000
# 2 -0.002098 0.006694 -0.000149 0.000000 0.000000 0.000000
# 3 -0.001440 -0.000149 0.005018 0.000000 0.000000 0.000000
# 4 0.000000 0.000000 0.000000 0.041822 0.000000 0.000000
# 5 0.000000 0.000000 0.000000 0.000000 0.025732 0.000000
# 6 0.000000 0.000000 0.000000 0.000000 0.000000 0.013702
#
#
# Mechanical properties :
#
#
# Convention : Reuss Voigt Hill
#
# Bulk Modulus (GPa) = 91.10127 92.15484 91.62806
# Shear Modulus (GPa) = 45.19192 55.87853 50.53523
#
# Velocity S-wave (km/s) = 3.97047 4.41503 4.19864
# Velocity P-wave (km/s) = 7.26630 7.62477 7.44769
#
# Compressibility (1/GPa) = 0.01097680
#
# Stress axis : x y z
#
# Youngs Moduli (GPa) = 150.65040 149.38820 199.26310
#
# Poissons Ratio (x) = 0.31346 0.28684
# Poissons Ratio (y) = 0.31611 0.02968
# Poissons Ratio (z) = 0.21686 0.02225
#
# Static dielectric constant tensor:
#      x y z
#    x 2.365330 0.000000 0.000000 
#    y 0.000000 2.432480 0.000000 
#    z 0.000000 0.000000 2.708880 
# 
# From -- ./inp_files/7185.got.cif
#   From: 2010.05.17/outbox.cif.g08.bks.cpg/sg20_4_cif.got.tgz:7185.got - 2010.06.03 22:52:26.
