data_PCOD9321569
_publ_section_title
;
Structure prediction by ZEFSAII (Michael W. Deem and Ramdas Pophale) SiO2 
 PCOD9321569
Probable space group: C 2 2 21
;
_chemical_formula_sum "Si O2"
_cell_formula_units_Z 40
_cell_length_a 9.788496
_cell_length_b 24.193779
_cell_length_c 7.428082
_cell_angle_alpha 90.000000
_cell_angle_beta 90.000000
_cell_angle_gamma 90.000000
_cell_volume 1759.123646
_symmetry_space_group_name_H-M "C 2 2 21"
_symmetry_group_IT_number 20
_symmetry_cell_setting 'orthorhombic'
loop_
_space_group_symop_operation_xyz
x,y,z
-x,-y,1/2+z
x,-y,-z
-x,y,1/2-z
1/2+x,1/2+y,z
1/2-x,1/2-y,1/2+z
1/2+x,1/2-y,-z
1/2-x,1/2+y,1/2-z
loop_
_atom_site_type_symbol
_atom_site_label
_atom_site_fract_x
_atom_site_fract_y
_atom_site_fract_z
Si Si1 0.000000 0.042332 0.250000
Si Si2 0.042381 0.670475 0.044140
Si Si3 0.230949 0.620811 0.592904
Si Si4 0.825448 0.876746 0.997592
Si Si5 0.281818 0.500000 0.500000
Si Si6 0.040444 0.793843 0.036297
O O1 0.077344 0.078783 0.401712
O O2 0.117724 0.005380 0.167911
O O3 0.080163 0.732292 0.978700
O O4 0.000000 0.677088 0.250000
O O5 0.169148 0.628863 0.059560
O O6 0.916386 0.649000 0.924809
O O7 0.301113 0.615078 0.788948
O O8 0.211218 0.559375 0.513470
O O9 0.338793 0.662240 0.497969
O O10 0.902240 0.819015 0.954320
O O11 0.000000 0.793313 0.250000
#
# Coordination Sequence:
#
# PCOD9321569 Si02
#       6
#     4   8   8   8   4   8
#     4  12  24  42  70  98 130 176 234 282 336 420
#     4  11  23  41  66 100 139 176 223 281 345 405
#     4  11  23  44  66  99 137 175 225 281 342 405
#     4  11  23  43  66  99 133 177 229 279 342 405
#     4  12  24  42  68  96 130 174 220 282 332 410
#     4   9  20  40  67  98 132 173 223 276 334 407
#
# _framework density 22.738593999999999
#
# number of rings (size 3 to 8) (size 9 to 14) (size 15 to 20)
#    0.000    1.200    2.000    4.200    1.400    0.000 
#    3.600    7.000    0.000    0.000    0.000    0.000 
#    0.000    0.000    0.000    0.000    0.000    0.000 
#
# Total GULP energy -111617.099574 kJ/mol
# GULP energy per Si atom -5580.854979 kJ/mol
# Density = 2.268684 g / cm^3
# Si number density = 22.738594 Si / 1000 Ang^3
#
#
#
# Elastic Constant Matrix: (Units=GPa)
#
#
# Indices 1 2 3 4 5 6 
#
# 1 125.8406 47.7011 14.3790 0.0000 0.0000 0.0000
# 2 47.7011 140.4904 16.9899 0.0000 0.0000 0.0000
# 3 14.3790 16.9899 57.1445 0.0000 0.0000 0.0000
# 4 0.0000 0.0000 0.0000 21.2668 0.0000 0.0000
# 5 0.0000 0.0000 0.0000 0.0000 30.4805 0.0000
# 6 0.0000 0.0000 0.0000 0.0000 0.0000 16.2369
#
#
#
# Elastic Compliance Matrix: (Units=1/GPa)
#
#
# Indices 1 2 3 4 5 6 
#
# 1 0.009234 -0.002961 -0.001443 0.000000 0.000000 0.000000
# 2 -0.002961 0.008333 -0.001732 0.000000 0.000000 0.000000
# 3 -0.001443 -0.001732 0.018378 0.000000 0.000000 0.000000
# 4 0.000000 0.000000 0.000000 0.047022 0.000000 0.000000
# 5 0.000000 0.000000 0.000000 0.000000 0.032808 0.000000
# 6 0.000000 0.000000 0.000000 0.000000 0.000000 0.061588
#
#
# Mechanical properties :
#
#
# Convention : Reuss Voigt Hill
#
# Bulk Modulus (GPa) = 42.24480 53.51283 47.87881
# Shear Modulus (GPa) = 25.31326 29.89053 27.60189
#
# Velocity S-wave (km/s) = 3.34013 3.62958 3.48786
# Velocity P-wave (km/s) = 5.78741 6.41484 6.10918
#
# Compressibility (1/GPa) = 0.02367155
#
# Stress axis : x y z
#
# Youngs Moduli (GPa) = 108.29875 120.00971 54.41369
#
# Poissons Ratio (x) = 0.35530 0.07853
# Poissons Ratio (y) = 0.32063 0.09427
# Poissons Ratio (z) = 0.15630 0.20791
#
# Static dielectric constant tensor:
#      x y z
#    x 1.796040 0.000000 0.000000 
#    y 0.000000 1.852690 0.000000 
#    z 0.000000 0.000000 1.959480 
# 
# From -- ./inp_files/6143.got.cif
#   From: 2010.05.17/outbox.cif.g08.bks.cpg/sg20_4_cif.got.tgz:6143.got - 2010.06.03 22:52:26.
