data_PCOD9321040
_publ_section_title
;
Structure prediction by ZEFSAII (Michael W. Deem and Ramdas Pophale) SiO2 
 PCOD9321040
Probable space group: C 2 2 21
;
_chemical_formula_sum "Si O2"
_cell_formula_units_Z 48
_cell_length_a 4.711680
_cell_length_b 20.795541
_cell_length_c 18.088737
_cell_angle_alpha 90.000000
_cell_angle_beta 90.000000
_cell_angle_gamma 90.000000
_cell_volume 1772.369446
_symmetry_space_group_name_H-M "C 2 2 21"
_symmetry_group_IT_number 20
_symmetry_cell_setting 'orthorhombic'
loop_
_space_group_symop_operation_xyz
x,y,z
-x,-y,1/2+z
x,-y,-z
-x,y,1/2-z
1/2+x,1/2+y,z
1/2-x,1/2-y,1/2+z
1/2+x,1/2-y,-z
1/2-x,1/2+y,1/2-z
loop_
_atom_site_type_symbol
_atom_site_label
_atom_site_fract_x
_atom_site_fract_y
_atom_site_fract_z
Si Si1 0.619591 0.626996 0.979371
Si Si2 0.500000 0.883044 0.250000
Si Si3 0.045862 0.824604 0.858097
Si Si4 0.500000 0.860038 0.750000
Si Si5 0.215960 0.000000 0.500000
Si Si6 0.135486 0.442469 0.851907
Si Si7 0.379445 0.184010 0.603866
Si Si8 0.500000 0.469153 0.250000
O O1 0.481049 0.557244 0.969392
O O2 0.411824 0.679702 0.941463
O O3 0.917976 0.636485 0.941362
O O4 0.645494 0.640129 0.066885
O O5 0.648006 0.842933 0.185989
O O6 0.251089 0.926063 0.215263
O O7 0.276617 0.812624 0.794120
O O8 0.977998 0.753667 0.888116
O O9 0.772966 0.869338 0.833428
O O10 0.364333 0.922949 0.804874
O O11 0.391416 0.034881 0.434976
O O12 0.335816 0.493814 0.814421
#
# Coordination Sequence:
#
# PCOD9321040 Si02
#       8
#     8   4   8   4   4   8   8   4
#     4  11  27  49  75 111 151 205 248 323 386 457
#     4  12  27  41  74 101 148 201 246 314 382 456
#     4  11  27  45  75 106 149 200 254 319 385 469
#     4  12  25  45  76 114 147 203 262 322 396 456
#     4  10  24  48  76 110 154 200 262 314 382 486
#     4  11  24  45  72 109 148 198 254 320 387 452
#     4  12  27  49  72 110 153 199 261 313 389 462
#     4  12  24  48  68 107 153 194 248 316 380 456
#
# _framework density 27.082391999999999
#
# number of rings (size 3 to 8) (size 9 to 14) (size 15 to 20)
#    0.000    0.667    1.667    4.500    9.333    1.333 
#    3.000    0.000    0.000    0.000    0.000    0.000 
#    0.000    0.000    0.000    0.000    0.000    0.000 
#
# Total GULP energy -134186.328958 kJ/mol
# GULP energy per Si atom -5591.097040 kJ/mol
# Density = 2.702075 g / cm^3
# Si number density = 27.082392 Si / 1000 Ang^3
#
#
#
# Elastic Constant Matrix: (Units=GPa)
#
#
# Indices 1 2 3 4 5 6 
#
# 1 107.6646 10.7380 22.9781 0.0000 0.0000 0.0000
# 2 10.7380 129.7667 32.2844 0.0000 0.0000 0.0000
# 3 22.9781 32.2844 179.0334 0.0000 0.0000 0.0000
# 4 0.0000 0.0000 0.0000 21.1606 0.0000 0.0000
# 5 0.0000 0.0000 0.0000 0.0000 39.4806 0.0000
# 6 0.0000 0.0000 0.0000 0.0000 0.0000 11.6354
#
#
#
# Elastic Compliance Matrix: (Units=1/GPa)
#
#
# Indices 1 2 3 4 5 6 
#
# 1 0.009582 -0.000510 -0.001138 0.000000 0.000000 0.000000
# 2 -0.000510 0.008095 -0.001394 0.000000 0.000000 0.000000
# 3 -0.001138 -0.001394 0.005983 0.000000 0.000000 0.000000
# 4 0.000000 0.000000 0.000000 0.047258 0.000000 0.000000
# 5 0.000000 0.000000 0.000000 0.000000 0.025329 0.000000
# 6 0.000000 0.000000 0.000000 0.000000 0.000000 0.085945
#
#
# Mechanical properties :
#
#
# Convention : Reuss Voigt Hill
#
# Bulk Modulus (GPa) = 56.89561 60.94064 58.91813
# Shear Modulus (GPa) = 25.75544 37.81960 31.78752
#
# Velocity S-wave (km/s) = 3.08718 3.74098 3.42970
# Velocity P-wave (km/s) = 5.81047 6.41956 6.12259
#
# Compressibility (1/GPa) = 0.01757605
#
# Stress axis : x y z
#
# Youngs Moduli (GPa) = 104.36457 123.52966 167.13956
#
# Poissons Ratio (x) = 0.06298 0.19018
# Poissons Ratio (y) = 0.05320 0.23305
# Poissons Ratio (z) = 0.11875 0.17224
#
# Static dielectric constant tensor:
#      x y z
#    x 3.677930 0.000000 0.000000 
#    y 0.000000 2.201040 0.000000 
#    z 0.000000 0.000000 11.304440 
# 
# From -- ./inp_files/26084.got.cif
#   From: 2010.05.17/outbox.cif.g08.bks.cpg/sg20_14_cif.got.tgz:26084.got - 2010.06.03 22:52:26.
