data_PCOD9321110
_publ_section_title
;
Structure prediction by ZEFSAII (Michael W. Deem and Ramdas Pophale) SiO2 
 PCOD9321110
Probable space group: C 2 2 21
;
_chemical_formula_sum "Si O2"
_cell_formula_units_Z 32
_cell_length_a 21.964424
_cell_length_b 9.398769
_cell_length_c 7.057019
_cell_angle_alpha 90.000000
_cell_angle_beta 90.000000
_cell_angle_gamma 90.000000
_cell_volume 1456.840751
_symmetry_space_group_name_H-M "C 2 2 21"
_symmetry_group_IT_number 20
_symmetry_cell_setting 'orthorhombic'
loop_
_space_group_symop_operation_xyz
x,y,z
-x,-y,1/2+z
x,-y,-z
-x,y,1/2-z
1/2+x,1/2+y,z
1/2-x,1/2-y,1/2+z
1/2+x,1/2-y,-z
1/2-x,1/2+y,1/2-z
loop_
_atom_site_type_symbol
_atom_site_label
_atom_site_fract_x
_atom_site_fract_y
_atom_site_fract_z
Si Si1 0.162096 0.832754 0.299725
Si Si2 0.609857 0.847293 0.040221
Si Si3 0.795118 0.365129 0.132127
Si Si4 0.930509 0.062334 0.295974
O O1 0.182478 0.765699 0.500631
O O2 0.224019 0.862412 0.183652
O O3 0.119164 0.970429 0.316314
O O4 0.126180 0.721438 0.163321
O O5 0.669729 0.874230 0.168682
O O6 0.575734 0.731423 0.172055
O O7 0.579758 0.000000 0.000000
O O8 0.807676 0.500000 0.000000
O O9 0.000000 0.026959 0.250000
O O10 0.917399 0.000000 0.500000
#
# Coordination Sequence:
#
# PCOD9321110 Si02
#       4
#     8   8   8   8
#     4  11  24  42  67 103 142 184 236 296 355 428
#     4  11  23  43  65  98 141 176 236 294 352 429
#     4  12  23  39  68 101 142 186 227 296 377 417
#     4  10  25  47  70 100 138 185 244 292 344 425
#
# _framework density 21.965340999999999
#
# number of rings (size 3 to 8) (size 9 to 14) (size 15 to 20)
#    0.000    1.000    5.000    2.250    3.500    0.000 
#    0.000    6.250    0.000    0.000    0.000    0.000 
#    0.000    0.000    0.000    0.000    0.000    0.000 
#
# Total GULP energy -89273.955302 kJ/mol
# GULP energy per Si atom -5579.622206 kJ/mol
# Density = 2.191535 g / cm^3
# Si number density = 21.965341 Si / 1000 Ang^3
#
#
#
# Elastic Constant Matrix: (Units=GPa)
#
#
# Indices 1 2 3 4 5 6 
#
# 1 85.6542 59.2571 26.5050 0.0000 0.0000 0.0000
# 2 59.2571 158.9746 41.2826 0.0000 0.0000 0.0000
# 3 26.5050 41.2826 120.6055 0.0000 0.0000 0.0000
# 4 0.0000 0.0000 0.0000 43.6055 0.0000 0.0000
# 5 0.0000 0.0000 0.0000 0.0000 29.9791 0.0000
# 6 0.0000 0.0000 0.0000 0.0000 0.0000 29.5826
#
#
#
# Elastic Compliance Matrix: (Units=1/GPa)
#
#
# Indices 1 2 3 4 5 6 
#
# 1 0.016015 -0.005549 -0.001620 0.000000 0.000000 0.000000
# 2 -0.005549 0.008826 -0.001802 0.000000 0.000000 0.000000
# 3 -0.001620 -0.001802 0.009264 0.000000 0.000000 0.000000
# 4 0.000000 0.000000 0.000000 0.022933 0.000000 0.000000
# 5 0.000000 0.000000 0.000000 0.000000 0.033357 0.000000
# 6 0.000000 0.000000 0.000000 0.000000 0.000000 0.033804
#
#
# Mechanical properties :
#
#
# Convention : Reuss Voigt Hill
#
# Bulk Modulus (GPa) = 61.86542 68.81375 65.33959
# Shear Modulus (GPa) = 33.89174 36.51275 35.20224
#
# Velocity S-wave (km/s) = 3.93232 4.08154 4.00763
# Velocity P-wave (km/s) = 6.98883 7.32177 7.15723
#
# Compressibility (1/GPa) = 0.01616412
#
# Stress axis : x y z
#
# Youngs Moduli (GPa) = 62.44163 113.29537 107.94096
#
# Poissons Ratio (x) = 0.62865 0.17489
# Poissons Ratio (y) = 0.34647 0.19449
# Poissons Ratio (z) = 0.10117 0.20414
#
# Static dielectric constant tensor:
#      x y z
#    x 1.742810 0.000000 0.000000 
#    y 0.000000 1.906090 0.000000 
#    z 0.000000 0.000000 1.827850 
# 
# From -- ./inp_files/5813.got.cif
#   From: 2010.05.17/outbox.cif.g08.bks.cpg/sg20_3_cif.got.tgz:5813.got - 2010.06.03 22:52:26.
