data_PCOD9321417
_publ_section_title
;
Structure prediction by ZEFSAII (Michael W. Deem and Ramdas Pophale) SiO2 
 PCOD9321417
Probable space group: C 2 2 21
;
_chemical_formula_sum "Si O2"
_cell_formula_units_Z 64
_cell_length_a 25.281308
_cell_length_b 25.052980
_cell_length_c 5.182886
_cell_angle_alpha 90.000000
_cell_angle_beta 90.000000
_cell_angle_gamma 90.000000
_cell_volume 3282.695409
_symmetry_space_group_name_H-M "C 2 2 21"
_symmetry_group_IT_number 20
_symmetry_cell_setting 'orthorhombic'
loop_
_space_group_symop_operation_xyz
x,y,z
-x,-y,1/2+z
x,-y,-z
-x,y,1/2-z
1/2+x,1/2+y,z
1/2-x,1/2-y,1/2+z
1/2+x,1/2-y,-z
1/2-x,1/2+y,1/2-z
loop_
_atom_site_type_symbol
_atom_site_label
_atom_site_fract_x
_atom_site_fract_y
_atom_site_fract_z
Si Si1 0.226214 0.626932 0.914452
Si Si2 0.412522 0.639935 0.673050
Si Si3 0.235379 0.557556 0.395731
Si Si4 0.671393 0.299433 0.476456
Si Si5 0.964228 0.245164 0.499182
Si Si6 0.155259 0.729206 0.981265
Si Si7 0.858048 0.054582 0.357689
Si Si8 0.960771 0.060885 0.032761
O O1 0.231896 0.597223 0.640536
O O2 0.281582 0.657531 0.974344
O O3 0.183118 0.673821 0.917152
O O4 0.211556 0.585310 0.142140
O O5 0.383723 0.671760 0.903291
O O6 0.444608 0.683659 0.514096
O O7 0.367395 0.608484 0.519174
O O8 0.450456 0.594398 0.777571
O O9 0.216003 0.500000 0.500000
O O10 0.296354 0.549173 0.305481
O O11 0.667464 0.269899 0.747998
O O12 0.677495 0.256083 0.244704
O O13 0.908301 0.276053 0.502524
O O14 0.000000 0.255390 0.750000
O O15 0.000000 0.254660 0.250000
O O16 0.900236 0.058757 0.133206
O O17 0.873662 0.000000 0.500000
O O18 0.000000 0.084074 0.250000
O O19 0.978096 0.000000 0.000000
#
# Coordination Sequence:
#
# PCOD9321417 Si02
#       8
#     8   8   8   8   8   8   8   8
#     4  12  22  41  65  92 126 162 196 248 308 365
#     4  11  25  38  57  78 107 156 203 258 313 361
#     4  11  25  40  65  94 127 160 200 245 303 375
#     4  11  22  39  60  91 121 155 206 254 304 366
#     4  11  26  43  61  86 119 157 199 254 304 359
#     4  11  24  41  63  91 123 158 206 252 302 366
#     4  11  23  40  56  77 110 156 210 257 309 362
#     4  12  27  40  52  73 105 149 217 280 325 358
#
# _framework density 19.496175000000001
#
# number of rings (size 3 to 8) (size 9 to 14) (size 15 to 20)
#    0.000    0.750    2.500    5.250    8.750    0.000 
#    0.000    0.000    0.000    0.000    0.000    0.000 
#    0.000   10.000    0.000    0.000    0.000    0.000 
#
# Total GULP energy -178997.182909 kJ/mol
# GULP energy per Si atom -5593.661966 kJ/mol
# Density = 1.945180 g / cm^3
# Si number density = 19.496175 Si / 1000 Ang^3
#
#
#
# Elastic Constant Matrix: (Units=GPa)
#
#
# Indices 1 2 3 4 5 6 
#
# 1 57.5106 29.8946 12.3109 0.0000 0.0000 0.0000
# 2 29.8946 64.7170 11.0398 0.0000 0.0000 0.0000
# 3 12.3109 11.0398 84.8136 0.0000 0.0000 0.0000
# 4 0.0000 0.0000 0.0000 33.2607 0.0000 0.0000
# 5 0.0000 0.0000 0.0000 0.0000 17.2868 0.0000
# 6 0.0000 0.0000 0.0000 0.0000 0.0000 60.8767
#
#
#
# Elastic Compliance Matrix: (Units=1/GPa)
#
#
# Indices 1 2 3 4 5 6 
#
# 1 0.023216 -0.010380 -0.002019 0.000000 0.000000 0.000000
# 2 -0.010380 0.020443 -0.001154 0.000000 0.000000 0.000000
# 3 -0.002019 -0.001154 0.012234 0.000000 0.000000 0.000000
# 4 0.000000 0.000000 0.000000 0.030066 0.000000 0.000000
# 5 0.000000 0.000000 0.000000 0.000000 0.057847 0.000000
# 6 0.000000 0.000000 0.000000 0.000000 0.000000 0.016427
#
#
# Mechanical properties :
#
#
# Convention : Reuss Voigt Hill
#
# Bulk Modulus (GPa) = 34.73734 34.83686 34.78710
# Shear Modulus (GPa) = 25.38923 32.53790 28.96356
#
# Velocity S-wave (km/s) = 3.61261 4.08970 3.85853
# Velocity P-wave (km/s) = 5.93780 6.34099 6.14270
#
# Compressibility (1/GPa) = 0.02878747
#
# Stress axis : x y z
#
# Youngs Moduli (GPa) = 43.07440 48.91546 81.74042
#
# Poissons Ratio (x) = 0.50772 0.16501
# Poissons Ratio (y) = 0.44709 0.09436
# Poissons Ratio (z) = 0.08696 0.05647
#
# Static dielectric constant tensor:
#      x y z
#    x 1.703650 0.000000 0.000000 
#    y 0.000000 1.692440 0.000000 
#    z 0.000000 0.000000 1.699370 
# 
# From -- ./inp_files/4391.got.cif
#   From: 2010.05.17/outbox.cif.g08.bks.cpg/sg20_3_cif.got.tgz:4391.got - 2010.06.03 22:52:26.
