data_PCOD9321430
_publ_section_title
;
Structure prediction by ZEFSAII (Michael W. Deem and Ramdas Pophale) SiO2 
 PCOD9321430
Probable space group: C 2 2 21
;
_chemical_formula_sum "Si O2"
_cell_formula_units_Z 40
_cell_length_a 16.337091
_cell_length_b 5.335601
_cell_length_c 16.518543
_cell_angle_alpha 90.000000
_cell_angle_beta 90.000000
_cell_angle_gamma 90.000000
_cell_volume 1439.891645
_symmetry_space_group_name_H-M "C 2 2 21"
_symmetry_group_IT_number 20
_symmetry_cell_setting 'orthorhombic'
loop_
_space_group_symop_operation_xyz
x,y,z
-x,-y,1/2+z
x,-y,-z
-x,y,1/2-z
1/2+x,1/2+y,z
1/2-x,1/2-y,1/2+z
1/2+x,1/2-y,-z
1/2-x,1/2+y,1/2-z
loop_
_atom_site_type_symbol
_atom_site_label
_atom_site_fract_x
_atom_site_fract_y
_atom_site_fract_z
Si Si1 0.302073 0.445245 0.120992
Si Si2 0.973200 0.186498 0.913079
Si Si3 0.514633 0.172523 0.836938
Si Si4 0.327206 0.346867 0.708555
Si Si5 0.155738 0.788780 0.067446
O O1 0.376061 0.330886 0.068094
O O2 0.332937 0.624045 0.195360
O O3 0.261282 0.227438 0.175694
O O4 0.230997 0.596740 0.075059
O O5 0.989637 0.890911 0.898122
O O6 0.060085 0.274273 0.953271
O O7 0.971435 0.407626 0.846026
O O8 0.500000 0.295619 0.750000
O O9 0.611999 0.141336 0.830266
O O10 0.351398 0.589362 0.656937
O O11 0.178339 0.000000 0.000000
#
# Coordination Sequence:
#
# PCOD9321430 Si02
#       5
#     8   8   8   8   8
#     4  12  24  44  76 113 145 203 259 322 386 470
#     4  11  26  43  72 102 147 197 248 303 384 457
#     4  11  22  40  66 108 146 186 239 312 376 446
#     4  11  24  42  74 107 153 196 257 323 388 461
#     4  11  27  51  69 106 154 205 252 327 393 472
#
# _framework density 27.779866999999999
#
# number of rings (size 3 to 8) (size 9 to 14) (size 15 to 20)
#    0.000    0.800    6.000    0.600    8.400    0.800 
#    3.600    0.000    0.000    0.000    0.000    0.000 
#    0.000    0.000    0.000    0.000    0.000    0.000 
#
# Total GULP energy -111493.440157 kJ/mol
# GULP energy per Si atom -5574.672008 kJ/mol
# Density = 2.771664 g / cm^3
# Si number density = 27.779867 Si / 1000 Ang^3
#
#
#
# Elastic Constant Matrix: (Units=GPa)
#
#
# Indices 1 2 3 4 5 6 
#
# 1 209.4408 50.3137 32.8011 0.0000 0.0000 0.0000
# 2 50.3137 100.3147 33.0275 0.0000 0.0000 0.0000
# 3 32.8011 33.0275 83.3450 0.0000 0.0000 0.0000
# 4 0.0000 0.0000 0.0000 45.9096 0.0000 0.0000
# 5 0.0000 0.0000 0.0000 0.0000 12.0995 0.0000
# 6 0.0000 0.0000 0.0000 0.0000 0.0000 37.0066
#
#
#
# Elastic Compliance Matrix: (Units=1/GPa)
#
#
# Indices 1 2 3 4 5 6 
#
# 1 0.005538 -0.002369 -0.001241 0.000000 0.000000 0.000000
# 2 -0.002369 0.012478 -0.004012 0.000000 0.000000 0.000000
# 3 -0.001241 -0.004012 0.014077 0.000000 0.000000 0.000000
# 4 0.000000 0.000000 0.000000 0.021782 0.000000 0.000000
# 5 0.000000 0.000000 0.000000 0.000000 0.082648 0.000000
# 6 0.000000 0.000000 0.000000 0.000000 0.000000 0.027022
#
#
# Mechanical properties :
#
#
# Convention : Reuss Voigt Hill
#
# Bulk Modulus (GPa) = 59.35338 69.48723 64.42030
# Shear Modulus (GPa) = 27.11418 37.46701 32.29060
#
# Velocity S-wave (km/s) = 3.12755 3.67646 3.41306
# Velocity P-wave (km/s) = 5.86976 6.56427 6.22671
#
# Compressibility (1/GPa) = 0.01684824
#
# Stress axis : x y z
#
# Youngs Moduli (GPa) = 180.56816 80.14168 71.04004
#
# Poissons Ratio (x) = 0.18987 0.08814
# Poissons Ratio (y) = 0.42780 0.28503
# Poissons Ratio (z) = 0.22403 0.32155
#
# Static dielectric constant tensor:
#      x y z
#    x 2.349710 0.000000 0.000000 
#    y 0.000000 2.182810 0.000000 
#    z 0.000000 0.000000 2.512830 
# 
# From -- ./inp_files/25083.got.cif
#   From: 2010.05.17/outbox.cif.g08.bks.cpg/sg20_13_cif.got.tgz:25083.got - 2010.06.03 22:52:26.
