data_PCOD9321104
_publ_section_title
;
Structure prediction by ZEFSAII (Michael W. Deem and Ramdas Pophale) SiO2 
 PCOD9321104
Probable space group: C 2 2 21
;
_chemical_formula_sum "Si O2"
_cell_formula_units_Z 28
_cell_length_a 5.781896
_cell_length_b 8.132084
_cell_length_c 22.032638
_cell_angle_alpha 90.000000
_cell_angle_beta 90.000000
_cell_angle_gamma 90.000000
_cell_volume 1035.949609
_symmetry_space_group_name_H-M "C 2 2 21"
_symmetry_group_IT_number 20
_symmetry_cell_setting 'orthorhombic'
loop_
_space_group_symop_operation_xyz
x,y,z
-x,-y,1/2+z
x,-y,-z
-x,y,1/2-z
1/2+x,1/2+y,z
1/2-x,1/2-y,1/2+z
1/2+x,1/2-y,-z
1/2-x,1/2+y,1/2-z
loop_
_atom_site_type_symbol
_atom_site_label
_atom_site_fract_x
_atom_site_fract_y
_atom_site_fract_z
Si Si1 0.009764 0.249533 0.083672
Si Si2 0.223019 0.000000 0.500000
Si Si3 0.257117 0.906081 0.311991
Si Si4 0.748840 0.436915 0.176589
O O1 0.113138 0.367220 0.031975
O O2 0.201881 0.265130 0.137458
O O3 0.936791 0.085412 0.050206
O O4 0.786189 0.326159 0.117111
O O5 0.254298 0.844813 0.242599
O O6 0.490562 0.014255 0.320264
O O7 0.015830 0.996515 0.322810
#
# Coordination Sequence:
#
# PCOD9321104 Si02
#       4
#     8   4   8   8
#     4  10  25  46  70 110 147 204 248 318 362 466
#     4  12  28  48  76 108 158 206 262 298 386 446
#     4   8  16  37  73 104 144 186 248 313 383 441
#     4   8  16  37  73 104 144 186 248 313 383 441
#
# _framework density 27.028341000000001
#
# number of rings (size 3 to 8) (size 9 to 14) (size 15 to 20)
#    1.714    1.143    0.000    0.000    4.000    1.143 
#    0.000    0.000   25.143    0.000    0.000    0.000 
#    0.000    0.000    0.000    0.000    0.000    0.000 
#
# Total GULP energy -78019.979550 kJ/mol
# GULP energy per Si atom -5572.855682 kJ/mol
# Density = 2.696682 g / cm^3
# Si number density = 27.028341 Si / 1000 Ang^3
#
#
#
# Elastic Constant Matrix: (Units=GPa)
#
#
# Indices 1 2 3 4 5 6 
#
# 1 253.1728 52.5337 33.4109 0.0000 0.0000 0.0000
# 2 52.5337 53.2197 30.5321 0.0000 0.0000 0.0000
# 3 33.4109 30.5321 161.3688 0.0000 0.0000 0.0000
# 4 0.0000 0.0000 0.0000 27.9295 0.0000 0.0000
# 5 0.0000 0.0000 0.0000 0.0000 51.0255 0.0000
# 6 0.0000 0.0000 0.0000 0.0000 0.0000 34.2110
#
#
#
# Elastic Compliance Matrix: (Units=1/GPa)
#
#
# Indices 1 2 3 4 5 6 
#
# 1 0.004969 -0.004840 -0.000113 0.000000 0.000000 0.000000
# 2 -0.004840 0.025793 -0.003878 0.000000 0.000000 0.000000
# 3 -0.000113 -0.003878 0.006954 0.000000 0.000000 0.000000
# 4 0.000000 0.000000 0.000000 0.035804 0.000000 0.000000
# 5 0.000000 0.000000 0.000000 0.000000 0.019598 0.000000
# 6 0.000000 0.000000 0.000000 0.000000 0.000000 0.029230
#
#
# Mechanical properties :
#
#
# Convention : Reuss Voigt Hill
#
# Bulk Modulus (GPa) = 49.86685 77.85720 63.86203
# Shear Modulus (GPa) = 34.08412 46.05218 40.06815
#
# Velocity S-wave (km/s) = 3.55498 4.13225 3.85444
# Velocity P-wave (km/s) = 5.94478 7.18579 6.59454
#
# Compressibility (1/GPa) = 0.02005340
#
# Stress axis : x y z
#
# Youngs Moduli (GPa) = 201.24182 38.77066 143.79935
#
# Poissons Ratio (x) = 0.18766 0.01625
# Poissons Ratio (y) = 0.97406 0.55765
# Poissons Ratio (z) = 0.02275 0.15035
#
# Static dielectric constant tensor:
#      x y z
#    x 2.073700 0.000000 0.000000 
#    y 0.000000 2.304210 0.000000 
#    z 0.000000 0.000000 2.107550 
# 
# From -- ./inp_files/26984.got.cif
#   From: 2010.05.17/outbox.cif.g08.bks.cpg/sg20_14_cif.got.tgz:26984.got - 2010.06.03 22:52:26.
