data_PCOD9321987
_publ_section_title
;
Structure prediction by ZEFSAII (Michael W. Deem and Ramdas Pophale) SiO2 
 PCOD9321987
Probable space group: C 2 2 21
;
_chemical_formula_sum "Si O2"
_cell_formula_units_Z 40
_cell_length_a 14.578307
_cell_length_b 16.919988
_cell_length_c 7.515226
_cell_angle_alpha 90.000000
_cell_angle_beta 90.000000
_cell_angle_gamma 90.000000
_cell_volume 1853.741564
_symmetry_space_group_name_H-M "C 2 2 21"
_symmetry_group_IT_number 20
_symmetry_cell_setting 'orthorhombic'
loop_
_space_group_symop_operation_xyz
x,y,z
-x,-y,1/2+z
x,-y,-z
-x,y,1/2-z
1/2+x,1/2+y,z
1/2-x,1/2-y,1/2+z
1/2+x,1/2-y,-z
1/2-x,1/2+y,1/2-z
loop_
_atom_site_type_symbol
_atom_site_label
_atom_site_fract_x
_atom_site_fract_y
_atom_site_fract_z
Si Si1 0.525022 0.723855 0.946853
Si Si2 0.356950 0.170858 0.917725
Si Si3 0.214595 0.709324 0.977140
Si Si4 0.500000 0.402070 0.750000
Si Si5 0.800846 0.942585 0.842209
Si Si6 0.688709 0.000000 0.500000
O O1 0.500000 0.695097 0.750000
O O2 0.448712 0.781882 0.031764
O O3 0.620565 0.769091 0.925477
O O4 0.533138 0.653158 0.087057
O O5 0.319483 0.182466 0.717191
O O6 0.276979 0.212488 0.033251
O O7 0.367888 0.078041 0.950015
O O8 0.272794 0.643947 0.084025
O O9 0.409865 0.447603 0.811672
O O10 0.750768 0.971294 0.664613
O O11 0.772002 0.000000 0.000000
#
# Coordination Sequence:
#
# PCOD9321987 Si02
#       6
#     8   8   8   4   8   4
#     4  12  24  44  75 106 141 192 246 299 357 431
#     4  12  24  45  73 106 144 193 246 303 362 433
#     4  12  23  48  74 102 146 193 249 298 362 437
#     4  12  26  46  70 110 144 186 250 294 360 436
#     4  12  27  47  71 104 149 194 237 303 366 427
#     4  12  26  46  70 106 146 192 238 308 366 424
#
# _framework density 21.577978999999999
#
# number of rings (size 3 to 8) (size 9 to 14) (size 15 to 20)
#    0.000    0.000    6.000    4.800    1.400    1.600 
#    1.800    0.000    0.000    0.000    0.000    0.000 
#    0.000    0.000    0.000    0.000    0.000    0.000 
#
# Total GULP energy -111934.748223 kJ/mol
# GULP energy per Si atom -5596.737411 kJ/mol
# Density = 2.152887 g / cm^3
# Si number density = 21.577979 Si / 1000 Ang^3
#
#
#
# Elastic Constant Matrix: (Units=GPa)
#
#
# Indices 1 2 3 4 5 6 
#
# 1 68.3455 -21.4571 -21.6126 0.0000 0.0000 0.0000
# 2 -21.4571 70.9080 6.2859 0.0000 0.0000 0.0000
# 3 -21.6126 6.2859 111.5498 0.0000 0.0000 0.0000
# 4 0.0000 0.0000 0.0000 24.8400 0.0000 0.0000
# 5 0.0000 0.0000 0.0000 0.0000 28.6187 0.0000
# 6 0.0000 0.0000 0.0000 0.0000 0.0000 -0.0073
#
#
#
# Elastic Compliance Matrix: (Units=1/GPa)
#
#
# Indices 1 2 3 4 5 6 
#
# 1 0.017137 0.004916 0.003043 0.000000 0.000000 0.000000
# 2 0.004916 0.015584 0.000074 0.000000 0.000000 0.000000
# 3 0.003043 0.000074 0.009550 0.000000 0.000000 0.000000
# 4 0.000000 0.000000 0.000000 0.040258 0.000000 0.000000
# 5 0.000000 0.000000 0.000000 0.000000 0.034942 0.000000
# 6 0.000000 0.000000 0.000000 0.000000 0.000000**********
#
#
# Mechanical properties :
#
#
# Convention : Reuss Voigt Hill
#
# Bulk Modulus (GPa) = 17.14136 19.69288 18.41712
# Shear Modulus (GPa) = -0.03655 29.86276 14.91310
#
# Velocity S-wave (km/s) = -0.13030 3.72418 2.63178
# Velocity P-wave (km/s) = 2.81754 5.25727 4.21766
#
# Compressibility (1/GPa) = 0.05833843
#
# Stress axis : x y z
#
# Youngs Moduli (GPa) = 58.35228 64.16923 104.71147
#
# Poissons Ratio (x) = -0.31546 -0.31867
# Poissons Ratio (y) = -0.28686 -0.00778
# Poissons Ratio (z) = -0.17758 -0.00477
#
# Static dielectric constant tensor:
#      x y z
#    x 1.750910 0.000000 0.000000 
#    y 0.000000 1.795110 0.000000 
#    z 0.000000 0.000000 1.836690 
# 
# From -- ./inp_files/8171.got.cif
#   From: 2010.05.17/outbox.cif.g08.bks.cpg/sg20_5_cif.got.tgz:8171.got - 2010.06.03 22:52:26.
