data_PCOD9321724
_publ_section_title
;
Structure prediction by ZEFSAII (Michael W. Deem and Ramdas Pophale) SiO2 
 PCOD9321724
Probable space group: C 2 2 21
;
_chemical_formula_sum "Si O2"
_cell_formula_units_Z 32
_cell_length_a 36.266098
_cell_length_b 4.905894
_cell_length_c 8.044303
_cell_angle_alpha 90.000000
_cell_angle_beta 90.000000
_cell_angle_gamma 90.000000
_cell_volume 1431.223346
_symmetry_space_group_name_H-M "C 2 2 21"
_symmetry_group_IT_number 20
_symmetry_cell_setting 'orthorhombic'
loop_
_space_group_symop_operation_xyz
x,y,z
-x,-y,1/2+z
x,-y,-z
-x,y,1/2-z
1/2+x,1/2+y,z
1/2-x,1/2-y,1/2+z
1/2+x,1/2-y,-z
1/2-x,1/2+y,1/2-z
loop_
_atom_site_type_symbol
_atom_site_label
_atom_site_fract_x
_atom_site_fract_y
_atom_site_fract_z
Si Si1 0.112847 0.404314 0.690842
Si Si2 0.844419 0.892062 0.684308
Si Si3 0.032540 0.749095 0.378180
Si Si4 0.770147 0.380379 0.184225
O O1 0.115851 0.500000 0.500000
O O2 0.125432 0.652007 0.807192
O O3 0.070455 0.322169 0.715964
O O4 0.139519 0.148273 0.716273
O O5 0.808033 0.760739 0.762603
O O6 0.836994 0.000000 0.500000
O O7 0.022457 0.500000 0.500000
O O8 0.000000 0.807532 0.250000
O O9 0.040261 0.000000 0.500000
O O10 0.759868 0.639242 0.298593
O O11 0.771758 0.500000 0.000000
#
# Coordination Sequence:
#
# PCOD9321724 Si02
#       4
#     8   8   8   8
#     4  11  24  45  69  99 138 183 228 280 342 407
#     4  12  26  46  71 102 138 179 228 285 340 404
#     4  11  24  43  68 100 139 182 229 283 340 407
#     4  12  27  48  72 101 137 180 226 282 343 408
#
# _framework density 22.358495000000001
#
# number of rings (size 3 to 8) (size 9 to 14) (size 15 to 20)
#    0.000    0.500    0.000    9.000    0.000    7.000 
#    0.000    1.250    0.000    0.000    0.000    0.000 
#    0.000    0.000    0.000    0.000    0.000    0.000 
#
# Total GULP energy -89728.738769 kJ/mol
# GULP energy per Si atom -5608.046173 kJ/mol
# Density = 2.230761 g / cm^3
# Si number density = 22.358495 Si / 1000 Ang^3
#
#
#
# Elastic Constant Matrix: (Units=GPa)
#
#
# Indices 1 2 3 4 5 6 
#
# 1 138.6289 56.8802 71.2463 0.0000 0.0000 0.0000
# 2 56.8802 157.1960 46.7896 0.0000 0.0000 0.0000
# 3 71.2463 46.7896 98.6328 0.0000 0.0000 0.0000
# 4 0.0000 0.0000 0.0000 61.2018 0.0000 0.0000
# 5 0.0000 0.0000 0.0000 0.0000 -63.4317 0.0000
# 6 0.0000 0.0000 0.0000 0.0000 0.0000 47.3256
#
#
#
# Elastic Compliance Matrix: (Units=1/GPa)
#
#
# Indices 1 2 3 4 5 6 
#
# 1 0.012017 -0.002055 -0.007705 0.000000 0.000000 0.000000
# 2 -0.002055 0.007759 -0.002196 0.000000 0.000000 0.000000
# 3 -0.007705 -0.002196 0.016746 0.000000 0.000000 0.000000
# 4 0.000000 0.000000 0.000000 0.016339 0.000000 0.000000
# 5 0.000000 0.000000 0.000000 0.000000 -0.015765 0.000000
# 6 0.000000 0.000000 0.000000 0.000000 0.000000 0.021130
#
#
# Mechanical properties :
#
#
# Convention : Reuss Voigt Hill
#
# Bulk Modulus (GPa) = 79.30927 82.69888 81.00408
# Shear Modulus (GPa) = 57.90903 23.65523 40.78213
#
# Velocity S-wave (km/s) = 5.09475 3.25622 4.27548
# Velocity P-wave (km/s) = 8.37599 7.15578 7.78982
#
# Compressibility (1/GPa) = 0.01260887
#
# Stress axis : x y z
#
# Youngs Moduli (GPa) = 83.21826 128.88743 59.71399
#
# Poissons Ratio (x) = 0.26481 0.46012
# Poissons Ratio (y) = 0.17098 0.13116
# Poissons Ratio (z) = 0.64123 0.28310
#
# Static dielectric constant tensor:
#      x y z
#    x 1.828360 0.000000 0.000000 
#    y 0.000000 2.028230 0.000000 
#    z 0.000000 0.000000 1.780010 
# 
# From -- ./inp_files/11253.got.cif
#   From: 2010.05.17/outbox.cif.g08.bks.cpg/sg20_6_cif.got.tgz:11253.got - 2010.06.03 22:52:26.
