data_PCOD9321705
_publ_section_title
;
Structure prediction by ZEFSAII (Michael W. Deem and Ramdas Pophale) SiO2 
 PCOD9321705
Probable space group: C 2 2 21
;
_chemical_formula_sum "Si O2"
_cell_formula_units_Z 36
_cell_length_a 17.508224
_cell_length_b 8.995941
_cell_length_c 10.748343
_cell_angle_alpha 90.000000
_cell_angle_beta 90.000000
_cell_angle_gamma 90.000000
_cell_volume 1692.895731
_symmetry_space_group_name_H-M "C 2 2 21"
_symmetry_group_IT_number 20
_symmetry_cell_setting 'orthorhombic'
loop_
_space_group_symop_operation_xyz
x,y,z
-x,-y,1/2+z
x,-y,-z
-x,y,1/2-z
1/2+x,1/2+y,z
1/2-x,1/2-y,1/2+z
1/2+x,1/2-y,-z
1/2-x,1/2+y,1/2-z
loop_
_atom_site_type_symbol
_atom_site_label
_atom_site_fract_x
_atom_site_fract_y
_atom_site_fract_z
Si Si1 0.910209 0.106128 0.761895
Si Si2 0.075599 0.000000 0.000000
Si Si3 0.222554 0.683598 0.351114
Si Si4 0.697270 0.835239 0.375900
Si Si5 0.456282 0.305496 0.876240
O O1 0.855214 0.230524 0.813742
O O2 0.000000 0.148798 0.750000
O O3 0.883378 0.045912 0.626604
O O4 0.912357 0.960923 0.848771
O O5 0.022189 0.142395 0.030773
O O6 0.281252 0.742164 0.247055
O O7 0.211458 0.507137 0.346124
O O8 0.240257 0.714945 0.497026
O O9 0.607912 0.811617 0.408372
O O10 0.500000 0.262830 0.750000
#
# Coordination Sequence:
#
# PCOD9321705 Si02
#       5
#     8   4   8   8   8
#     4   9  18  34  59  88 116 151 190 233 285 343
#     4   8  16  32  60  88 114 148 192 236 282 342
#     4  11  25  40  60  85 118 154 196 243 290 345
#     4  11  24  42  59  85 117 155 197 242 291 343
#     4   9  18  34  58  84 116 152 189 233 284 342
#
# _framework density 21.265336999999999
#
# number of rings (size 3 to 8) (size 9 to 14) (size 15 to 20)
#    0.000    2.667    0.000    4.000    0.000    8.889 
#    0.000    0.000    0.000    0.000    0.000    0.000 
#    0.000    0.000    0.000    0.000    0.000    0.000 
#
# Total GULP energy -100454.684061 kJ/mol
# GULP energy per Si atom -5580.815781 kJ/mol
# Density = 2.121694 g / cm^3
# Si number density = 21.265337 Si / 1000 Ang^3
#
#
#
# Elastic Constant Matrix: (Units=GPa)
#
#
# Indices 1 2 3 4 5 6 
#
# 1 67.3248 30.2814 -0.5923 0.0000 0.0000 0.0000
# 2 30.2814 71.0078 44.9121 0.0000 0.0000 0.0000
# 3 -0.5923 44.9121 149.5734 0.0000 0.0000 0.0000
# 4 0.0000 0.0000 0.0000 25.7708 0.0000 0.0000
# 5 0.0000 0.0000 0.0000 0.0000 9.6137 0.0000
# 6 0.0000 0.0000 0.0000 0.0000 0.0000 31.7206
#
#
#
# Elastic Compliance Matrix: (Units=1/GPa)
#
#
# Indices 1 2 3 4 5 6 
#
# 1 0.019534 -0.010344 0.003183 0.000000 0.000000 0.000000
# 2 -0.010344 0.022862 -0.006906 0.000000 0.000000 0.000000
# 3 0.003183 -0.006906 0.008772 0.000000 0.000000 0.000000
# 4 0.000000 0.000000 0.000000 0.038804 0.000000 0.000000
# 5 0.000000 0.000000 0.000000 0.000000 0.104018 0.000000
# 6 0.000000 0.000000 0.000000 0.000000 0.000000 0.031525
#
#
# Mechanical properties :
#
#
# Convention : Reuss Voigt Hill
#
# Bulk Modulus (GPa) = 43.41155 48.56760 45.98958
# Shear Modulus (GPa) = 19.13327 27.64134 23.38731
#
# Velocity S-wave (km/s) = 3.00282 3.60923 3.31990
# Velocity P-wave (km/s) = 5.69922 6.34485 6.03068
#
# Compressibility (1/GPa) = 0.02303535
#
# Stress axis : x y z
#
# Youngs Moduli (GPa) = 51.19358 43.74122 114.00148
#
# Poissons Ratio (x) = 0.45244 -0.36289
# Poissons Ratio (y) = 0.52952 0.78725
# Poissons Ratio (z) = -0.16296 0.30206
#
# Static dielectric constant tensor:
#      x y z
#    x 1.835770 0.000000 0.000000 
#    y 0.000000 1.720520 0.000000 
#    z 0.000000 0.000000 1.852040 
# 
# From -- ./inp_files/16123.got.cif
#   From: 2010.05.17/outbox.cif.g08.bks.cpg/sg20_9_cif.got.tgz:16123.got - 2010.06.03 22:52:26.
