data_PCOD9321979
_publ_section_title
;
Structure prediction by ZEFSAII (Michael W. Deem and Ramdas Pophale) SiO2 
 PCOD9321979
Probable space group: C 2 2 21
;
_chemical_formula_sum "Si O2"
_cell_formula_units_Z 36
_cell_length_a 7.041234
_cell_length_b 12.731110
_cell_length_c 15.528243
_cell_angle_alpha 90.000000
_cell_angle_beta 90.000000
_cell_angle_gamma 90.000000
_cell_volume 1391.994011
_symmetry_space_group_name_H-M "C 2 2 21"
_symmetry_group_IT_number 20
_symmetry_cell_setting 'orthorhombic'
loop_
_space_group_symop_operation_xyz
x,y,z
-x,-y,1/2+z
x,-y,-z
-x,y,1/2-z
1/2+x,1/2+y,z
1/2-x,1/2-y,1/2+z
1/2+x,1/2-y,-z
1/2-x,1/2+y,1/2-z
loop_
_atom_site_type_symbol
_atom_site_label
_atom_site_fract_x
_atom_site_fract_y
_atom_site_fract_z
Si Si1 0.706464 0.960251 0.583727
Si Si2 0.772957 0.980095 0.232685
Si Si3 0.000000 0.708824 0.750000
Si Si4 0.558280 0.656888 0.967297
Si Si5 0.769648 0.836722 0.892762
O O1 0.671715 0.964231 0.684391
O O2 0.795559 0.852876 0.549017
O O3 0.582770 0.000000 0.500000
O O4 0.871241 0.051870 0.580095
O O5 0.734062 0.052830 0.150790
O O6 0.000000 0.975222 0.250000
O O7 0.671997 0.868031 0.221873
O O8 0.913304 0.777351 0.827229
O O9 0.596261 0.757372 0.909040
O O10 0.359957 0.649078 0.013497
#
# Coordination Sequence:
#
# PCOD9321979 Si02
#       5
#     8   8   4   8   8
#     4   8  17  40  63  88 136 187 228 299 364 425
#     4  12  23  45  74 107 149 199 243 313 381 452
#     4  12  26  46  74 114 146 196 250 318 370 454
#     4   9  21  39  68  94 139 189 233 312 364 435
#     4  12  23  46  70 107 153 191 258 310 378 468
#
# _framework density 25.862179000000001
#
# number of rings (size 3 to 8) (size 9 to 14) (size 15 to 20)
#    1.333    0.000    5.556    0.000    0.000    3.556 
#    2.000    0.000    0.000    0.000    0.000    0.000 
#    0.000    0.000    0.000    0.000    0.000    0.000 
#
# Total GULP energy -100401.272362 kJ/mol
# GULP energy per Si atom -5577.848465 kJ/mol
# Density = 2.580332 g / cm^3
# Si number density = 25.862179 Si / 1000 Ang^3
#
#
#
# Elastic Constant Matrix: (Units=GPa)
#
#
# Indices 1 2 3 4 5 6 
#
# 1 112.2885 38.6532 28.8235 0.0000 0.0000 0.0000
# 2 38.6532 59.7178 7.0331 0.0000 0.0000 0.0000
# 3 28.8235 7.0331 129.4691 0.0000 0.0000 0.0000
# 4 0.0000 0.0000 0.0000 45.9663 0.0000 0.0000
# 5 0.0000 0.0000 0.0000 0.0000 24.4933 0.0000
# 6 0.0000 0.0000 0.0000 0.0000 0.0000 2.8968
#
#
#
# Elastic Compliance Matrix: (Units=1/GPa)
#
#
# Indices 1 2 3 4 5 6 
#
# 1 0.012093 -0.007559 -0.002282 0.000000 0.000000 0.000000
# 2 -0.007559 0.021578 0.000511 0.000000 0.000000 0.000000
# 3 -0.002282 0.000511 0.008204 0.000000 0.000000 0.000000
# 4 0.000000 0.000000 0.000000 0.021755 0.000000 0.000000
# 5 0.000000 0.000000 0.000000 0.000000 0.040827 0.000000
# 6 0.000000 0.000000 0.000000 0.000000 0.000000 0.345206
#
#
# Mechanical properties :
#
#
# Convention : Reuss Voigt Hill
#
# Bulk Modulus (GPa) = 43.07477 50.05500 46.56489
# Shear Modulus (GPa) = 10.50283 29.80232 20.15258
#
# Velocity S-wave (km/s) = 2.01740 3.39831 2.79450
# Velocity P-wave (km/s) = 4.70300 5.89869 5.33445
#
# Compressibility (1/GPa) = 0.02321545
#
# Stress axis : x y z
#
# Youngs Moduli (GPa) = 82.69032 46.34382 121.89059
#
# Poissons Ratio (x) = 0.35031 0.27812
# Poissons Ratio (y) = 0.62504 -0.06224
# Poissons Ratio (z) = 0.18867 -0.02367
#
# Static dielectric constant tensor:
#      x y z
#    x 2.139540 0.000000 0.000000 
#    y 0.000000 1.976720 0.000000 
#    z 0.000000 0.000000 2.131710 
# 
# From -- ./inp_files/18438.got.cif
#   From: 2010.05.17/outbox.cif.g08.bks.cpg/sg20_10_cif.got.tgz:18438.got - 2010.06.03 22:52:26.
