data_PCOD9321609
_publ_section_title
;
Structure prediction by ZEFSAII (Michael W. Deem and Ramdas Pophale) SiO2 
 PCOD9321609
Probable space group: C 2 2 21
;
_chemical_formula_sum "Si O2"
_cell_formula_units_Z 40
_cell_length_a 10.636686
_cell_length_b 16.298771
_cell_length_c 9.519358
_cell_angle_alpha 90.000000
_cell_angle_beta 90.000000
_cell_angle_gamma 90.000000
_cell_volume 1650.322636
_symmetry_space_group_name_H-M "C 2 2 21"
_symmetry_group_IT_number 20
_symmetry_cell_setting 'orthorhombic'
loop_
_space_group_symop_operation_xyz
x,y,z
-x,-y,1/2+z
x,-y,-z
-x,y,1/2-z
1/2+x,1/2+y,z
1/2-x,1/2-y,1/2+z
1/2+x,1/2-y,-z
1/2-x,1/2+y,1/2-z
loop_
_atom_site_type_symbol
_atom_site_label
_atom_site_fract_x
_atom_site_fract_y
_atom_site_fract_z
Si Si1 0.234982 0.490122 0.156905
Si Si2 0.203203 0.743388 0.033772
Si Si3 0.358754 0.319538 0.198769
Si Si4 0.253497 0.584004 0.433946
Si Si5 0.509102 0.119460 0.905331
O O1 0.306490 0.410776 0.216938
O O2 0.239846 0.563000 0.268873
O O3 0.091829 0.460836 0.132634
O O4 0.288074 0.500000 0.000000
O O5 0.327741 0.710280 0.957161
O O6 0.172514 0.832940 0.968197
O O7 0.096335 0.677222 0.000452
O O8 0.217557 0.760080 0.197391
O O9 0.500000 0.313876 0.250000
O O10 0.307728 0.500000 0.500000
O O11 0.119520 0.598543 0.514797
O O12 0.500000 0.159380 0.750000
#
# Coordination Sequence:
#
# PCOD9321609 Si02
#       5
#     8   8   8   8   8
#     4  11  26  45  69 106 147 188 254 310 355 444
#     4  11  25  45  71 105 148 188 246 298 364 452
#     4  11  25  49  72 105 152 197 245 301 375 449
#     4  12  22  45  74 101 141 194 240 310 369 423
#     4  11  23  43  73 107 146 186 245 306 378 447
#
# _framework density 24.237684999999999
#
# number of rings (size 3 to 8) (size 9 to 14) (size 15 to 20)
#    0.000    0.800    4.000    3.000    5.600    0.000 
#    7.200    0.000    0.000    0.000    0.000    0.000 
#    0.000    0.000    0.000    0.000    0.000    0.000 
#
# Total GULP energy -111899.288059 kJ/mol
# GULP energy per Si atom -5594.964403 kJ/mol
# Density = 2.418252 g / cm^3
# Si number density = 24.237685 Si / 1000 Ang^3
#
#
#
# Elastic Constant Matrix: (Units=GPa)
#
#
# Indices 1 2 3 4 5 6 
#
# 1 53.7387 -7.1959 27.1189 0.0000 0.0000 0.0000
# 2 -7.1959 80.0247 8.9017 0.0000 0.0000 0.0000
# 3 27.1189 8.9017 127.1125 0.0000 0.0000 0.0000
# 4 0.0000 0.0000 0.0000 52.8890 0.0000 0.0000
# 5 0.0000 0.0000 0.0000 0.0000 24.4448 0.0000
# 6 0.0000 0.0000 0.0000 0.0000 0.0000 25.1070
#
#
#
# Elastic Compliance Matrix: (Units=1/GPa)
#
#
# Indices 1 2 3 4 5 6 
#
# 1 0.021317 0.002442 -0.004719 0.000000 0.000000 0.000000
# 2 0.002442 0.012874 -0.001422 0.000000 0.000000 0.000000
# 3 -0.004719 -0.001422 0.008973 0.000000 0.000000 0.000000
# 4 0.000000 0.000000 0.000000 0.018908 0.000000 0.000000
# 5 0.000000 0.000000 0.000000 0.000000 0.040909 0.000000
# 6 0.000000 0.000000 0.000000 0.000000 0.000000 0.039830
#
#
# Mechanical properties :
#
#
# Convention : Reuss Voigt Hill
#
# Bulk Modulus (GPa) = 27.96031 35.39171 31.67601
# Shear Modulus (GPa) = 30.83931 35.95822 33.39877
#
# Velocity S-wave (km/s) = 3.57090 3.85589 3.71613
# Velocity P-wave (km/s) = 5.34441 5.87005 5.61338
#
# Compressibility (1/GPa) = 0.03576498
#
# Stress axis : x y z
#
# Youngs Moduli (GPa) = 46.91121 77.67626 111.44028
#
# Poissons Ratio (x) = -0.18966 0.52587
# Poissons Ratio (y) = -0.11454 0.15852
# Poissons Ratio (z) = 0.22137 0.11049
#
# Static dielectric constant tensor:
#      x y z
#    x 1.924430 0.000000 0.000000 
#    y 0.000000 1.954070 0.000000 
#    z 0.000000 0.000000 2.039420 
# 
# From -- ./inp_files/7071.got.cif
#   From: 2010.05.17/outbox.cif.g08.bks.cpg/sg20_4_cif.got.tgz:7071.got - 2010.06.03 22:52:26.
