data_PCOD9321316
_publ_section_title
;
Structure prediction by ZEFSAII (Michael W. Deem and Ramdas Pophale) SiO2 
 PCOD9321316
Probable space group: C 2 2 21
;
_chemical_formula_sum "Si O2"
_cell_formula_units_Z 48
_cell_length_a 18.958871
_cell_length_b 5.088998
_cell_length_c 20.742158
_cell_angle_alpha 90.000000
_cell_angle_beta 90.000000
_cell_angle_gamma 90.000000
_cell_volume 2001.237765
_symmetry_space_group_name_H-M "C 2 2 21"
_symmetry_group_IT_number 20
_symmetry_cell_setting 'orthorhombic'
loop_
_space_group_symop_operation_xyz
x,y,z
-x,-y,1/2+z
x,-y,-z
-x,y,1/2-z
1/2+x,1/2+y,z
1/2-x,1/2-y,1/2+z
1/2+x,1/2-y,-z
1/2-x,1/2+y,1/2-z
loop_
_atom_site_type_symbol
_atom_site_label
_atom_site_fract_x
_atom_site_fract_y
_atom_site_fract_z
Si Si1 0.879374 0.522884 0.164492
Si Si2 0.962077 0.760687 0.043553
Si Si3 0.742268 0.961149 0.567717
Si Si4 0.163158 0.965799 0.732599
Si Si5 0.382044 0.806581 0.562088
Si Si6 0.697405 0.096938 0.842660
O O1 0.926201 0.667584 0.110297
O O2 0.808997 0.455108 0.124128
O O3 0.890384 0.243546 0.199002
O O4 0.864245 0.742449 0.218662
O O5 0.042883 0.835429 0.060087
O O6 0.963645 0.500000 0.000000
O O7 0.931233 0.000000 0.000000
O O8 0.814946 0.116450 0.561074
O O9 0.704388 0.000000 0.500000
O O10 0.762099 0.669749 0.590614
O O11 0.173981 0.857956 0.804440
O O12 0.242570 0.965922 0.701599
O O13 0.380352 0.000000 0.500000
O O14 0.371081 0.954070 0.630163
#
# Coordination Sequence:
#
# PCOD9321316 Si02
#       6
#     8   8   8   8   8   8
#     4  11  24  43  67  97 137 179 232 276 335 418
#     4  11  25  46  71  98 142 189 225 282 360 423
#     4  11  21  36  64 100 132 165 221 287 340 401
#     4  11  24  41  67  98 135 183 227 278 346 401
#     4  11  23  41  69 102 138 177 227 287 353 416
#     4  11  23  41  66  99 137 177 224 288 350 405
#
# _framework density 23.985154999999999
#
# number of rings (size 3 to 8) (size 9 to 14) (size 15 to 20)
#    0.000    1.000    3.333    4.000    4.667    0.000 
#    0.000    0.833    0.000    0.000    0.000    0.000 
#    0.000    0.000    0.000    0.000    0.000    0.000 
#
# Total GULP energy -133976.575032 kJ/mol
# GULP energy per Si atom -5582.357293 kJ/mol
# Density = 2.393056 g / cm^3
# Si number density = 23.985155 Si / 1000 Ang^3
#
#
#
# Elastic Constant Matrix: (Units=GPa)
#
#
# Indices 1 2 3 4 5 6 
#
# 1 63.0373 4.6817 6.0108 0.0000 0.0000 0.0000
# 2 4.6817 105.4917 38.5920 0.0000 0.0000 0.0000
# 3 6.0108 38.5920 109.3261 0.0000 0.0000 0.0000
# 4 0.0000 0.0000 0.0000 61.9259 0.0000 0.0000
# 5 0.0000 0.0000 0.0000 0.0000 22.9519 0.0000
# 6 0.0000 0.0000 0.0000 0.0000 0.0000 21.2587
#
#
#
# Elastic Compliance Matrix: (Units=1/GPa)
#
#
# Indices 1 2 3 4 5 6 
#
# 1 0.015965 -0.000445 -0.000721 0.000000 0.000000 0.000000
# 2 -0.000445 0.010897 -0.003822 0.000000 0.000000 0.000000
# 3 -0.000721 -0.003822 0.010536 0.000000 0.000000 0.000000
# 4 0.000000 0.000000 0.000000 0.016148 0.000000 0.000000
# 5 0.000000 0.000000 0.000000 0.000000 0.043569 0.000000
# 6 0.000000 0.000000 0.000000 0.000000 0.000000 0.047039
#
#
# Mechanical properties :
#
#
# Convention : Reuss Voigt Hill
#
# Bulk Modulus (GPa) = 36.46598 41.82489 39.14543
# Shear Modulus (GPa) = 30.62362 36.46537 33.54449
#
# Velocity S-wave (km/s) = 3.57707 3.90337 3.74378
# Velocity P-wave (km/s) = 5.68306 6.14742 5.91979
#
# Compressibility (1/GPa) = 0.02742282
#
# Stress axis : x y z
#
# Youngs Moduli (GPa) = 62.63550 91.76430 94.91403
#
# Poissons Ratio (x) = 0.04082 0.06841
# Poissons Ratio (y) = 0.02786 0.36279
# Poissons Ratio (z) = 0.04514 0.35075
#
# Static dielectric constant tensor:
#      x y z
#    x 1.937260 0.000000 0.000000 
#    y 0.000000 2.138910 0.000000 
#    z 0.000000 0.000000 2.011980 
# 
# From -- ./inp_files/27981.got.cif
#   From: 2010.05.17/outbox.cif.g08.bks.cpg/sg20_14_cif.got.tgz:27981.got - 2010.06.03 22:52:26.
