data_PCOD9321666
_publ_section_title
;
Structure prediction by ZEFSAII (Michael W. Deem and Ramdas Pophale) SiO2 
 PCOD9321666
Probable space group: C 2 2 21
;
_chemical_formula_sum "Si O2"
_cell_formula_units_Z 36
_cell_length_a 7.977277
_cell_length_b 21.995505
_cell_length_c 9.420018
_cell_angle_alpha 90.000000
_cell_angle_beta 90.000000
_cell_angle_gamma 90.000000
_cell_volume 1652.876263
_symmetry_space_group_name_H-M "C 2 2 21"
_symmetry_group_IT_number 20
_symmetry_cell_setting 'orthorhombic'
loop_
_space_group_symop_operation_xyz
x,y,z
-x,-y,1/2+z
x,-y,-z
-x,y,1/2-z
1/2+x,1/2+y,z
1/2-x,1/2-y,1/2+z
1/2+x,1/2-y,-z
1/2-x,1/2+y,1/2-z
loop_
_atom_site_type_symbol
_atom_site_label
_atom_site_fract_x
_atom_site_fract_y
_atom_site_fract_z
Si Si1 0.725928 0.500000 0.000000
Si Si2 0.838675 0.734402 0.853036
Si Si3 0.033939 0.390458 0.419255
Si Si4 0.169480 0.867883 0.522762
Si Si5 0.000000 0.173528 0.750000
Si Si6 0.500000 0.546276 0.250000
O O1 0.843879 0.441768 0.023742
O O2 0.614687 0.508599 0.141324
O O3 0.886938 0.676033 0.947844
O O4 0.815905 0.797442 0.932465
O O5 0.665661 0.713978 0.778565
O O6 0.000000 0.741756 0.750000
O O7 0.000000 0.395467 0.250000
O O8 0.850840 0.392726 0.484273
O O9 0.046205 0.866777 0.386965
O O10 0.103531 0.909039 0.648678
#
# Coordination Sequence:
#
# PCOD9321666 Si02
#       6
#     4   8   8   8   4   4
#     4  12  32  52  76 114 156 208 276 324 396 484
#     4  11  23  47  72 121 156 204 255 327 396 468
#     4  11  26  49  79 110 157 211 259 327 394 468
#     4  12  26  49  80 115 154 205 265 328 406 471
#     4  12  24  41  78 108 168 205 248 324 392 484
#     4  12  32  49  82 110 152 203 272 332 396 486
#
# _framework density 21.780215999999999
#
# number of rings (size 3 to 8) (size 9 to 14) (size 15 to 20)
#    0.000    0.444    5.556    2.667    6.222    4.444 
#    0.000    0.000    0.000    0.000    0.000    0.000 
#    0.000    0.000    0.000    0.000    0.000    0.000 
#
# Total GULP energy -100800.705735 kJ/mol
# GULP energy per Si atom -5600.039207 kJ/mol
# Density = 2.173064 g / cm^3
# Si number density = 21.780216 Si / 1000 Ang^3
#
#
#
# Elastic Constant Matrix: (Units=GPa)
#
#
# Indices 1 2 3 4 5 6 
#
# 1 191.3592 64.7467 93.0682 0.0000 0.0000 0.0000
# 2 64.7467 122.3870 63.8930 0.0000 0.0000 0.0000
# 3 93.0682 63.8930 136.9991 0.0000 0.0000 0.0000
# 4 0.0000 0.0000 0.0000 48.7742 0.0000 0.0000
# 5 0.0000 0.0000 0.0000 0.0000 46.7782 0.0000
# 6 0.0000 0.0000 0.0000 0.0000 0.0000 32.4896
#
#
#
# Elastic Compliance Matrix: (Units=1/GPa)
#
#
# Indices 1 2 3 4 5 6 
#
# 1 0.008116 -0.001871 -0.004641 0.000000 0.000000 0.000000
# 2 -0.001871 0.011232 -0.003967 0.000000 0.000000 0.000000
# 3 -0.004641 -0.003967 0.012302 0.000000 0.000000 0.000000
# 4 0.000000 0.000000 0.000000 0.020503 0.000000 0.000000
# 5 0.000000 0.000000 0.000000 0.000000 0.021377 0.000000
# 6 0.000000 0.000000 0.000000 0.000000 0.000000 0.030779
#
#
# Mechanical properties :
#
#
# Convention : Reuss Voigt Hill
#
# Bulk Modulus (GPa) = 93.52882 99.35124 96.44003
# Shear Modulus (GPa) = 38.81057 40.87757 39.84407
#
# Velocity S-wave (km/s) = 4.22586 4.33693 4.28175
# Velocity P-wave (km/s) = 8.17593 8.41386 8.29575
#
# Compressibility (1/GPa) = 0.01069189
#
# Stress axis : x y z
#
# Youngs Moduli (GPa) = 123.21542 89.03421 81.28550
#
# Poissons Ratio (x) = 0.16656 0.37724
# Poissons Ratio (y) = 0.23050 0.32248
# Poissons Ratio (z) = 0.57183 0.35323
#
# Static dielectric constant tensor:
#      x y z
#    x 1.768020 0.000000 0.000000 
#    y 0.000000 1.777480 0.000000 
#    z 0.000000 0.000000 1.764070 
# 
# From -- ./inp_files/5956.got.cif
#   From: 2010.05.17/outbox.cif.g08.bks.cpg/sg20_3_cif.got.tgz:5956.got - 2010.06.03 22:52:26.
