data_PCOD9321358
_publ_section_title
;
Structure prediction by ZEFSAII (Michael W. Deem and Ramdas Pophale) SiO2 
 PCOD9321358
Probable space group: C 2 2 21
;
_chemical_formula_sum "Si O2"
_cell_formula_units_Z 40
_cell_length_a 22.659327
_cell_length_b 8.299008
_cell_length_c 9.114897
_cell_angle_alpha 90.000000
_cell_angle_beta 90.000000
_cell_angle_gamma 90.000000
_cell_volume 1714.055798
_symmetry_space_group_name_H-M "C 2 2 21"
_symmetry_group_IT_number 20
_symmetry_cell_setting 'orthorhombic'
loop_
_space_group_symop_operation_xyz
x,y,z
-x,-y,1/2+z
x,-y,-z
-x,y,1/2-z
1/2+x,1/2+y,z
1/2-x,1/2-y,1/2+z
1/2+x,1/2-y,-z
1/2-x,1/2+y,1/2-z
loop_
_atom_site_type_symbol
_atom_site_label
_atom_site_fract_x
_atom_site_fract_y
_atom_site_fract_z
Si Si1 0.128747 0.931044 0.839539
Si Si2 0.042735 0.121080 0.382596
Si Si3 0.274329 0.578835 0.839395
Si Si4 0.128451 0.341589 0.586926
Si Si5 0.363416 0.061498 0.664104
O O1 0.087668 0.994850 0.708323
O O2 0.113927 0.742859 0.834742
O O3 0.193797 0.970906 0.782744
O O4 0.121235 0.000000 0.000000
O O5 0.081988 0.248030 0.479431
O O6 0.000000 0.179150 0.250000
O O7 0.012490 0.000000 0.500000
O O8 0.315679 0.735457 0.860931
O O9 0.205943 0.587912 0.798503
O O10 0.276634 0.500000 0.000000
O O11 0.149782 0.500000 0.500000
O O12 0.104883 0.429622 0.733896
O O13 0.366259 0.000000 0.500000
#
# Coordination Sequence:
#
# PCOD9321358 Si02
#       5
#     8   8   8   8   8
#     4  12  23  43  69 101 146 191 252 311 368 463
#     4  12  26  51  78 105 135 198 265 328 391 451
#     4  11  21  41  66 104 150 202 246 286 371 470
#     4  12  22  44  74 102 157 192 240 325 371 436
#     4  11  25  38  67 110 152 199 240 294 384 461
#
# _framework density 23.336462000000001
#
# number of rings (size 3 to 8) (size 9 to 14) (size 15 to 20)
#    0.000    0.400    6.000    3.000    0.000    6.400 
#    0.000    2.000    0.000    0.000    0.000    0.000 
#    0.000    0.000    0.000    0.000    0.000    0.000 
#
# Total GULP energy -111556.190296 kJ/mol
# GULP energy per Si atom -5577.809515 kJ/mol
# Density = 2.328335 g / cm^3
# Si number density = 23.336462 Si / 1000 Ang^3
#
#
#
# Elastic Constant Matrix: (Units=GPa)
#
#
# Indices 1 2 3 4 5 6 
#
# 1 94.6082 31.8055 59.0576 0.0000 0.0000 0.0000
# 2 31.8055 113.8319 70.4870 0.0000 0.0000 0.0000
# 3 59.0576 70.4870 179.9068 0.0000 0.0000 0.0000
# 4 0.0000 0.0000 0.0000 49.0541 0.0000 0.0000
# 5 0.0000 0.0000 0.0000 0.0000 39.8897 0.0000
# 6 0.0000 0.0000 0.0000 0.0000 0.0000 -105.9987
#
#
#
# Elastic Compliance Matrix: (Units=1/GPa)
#
#
# Indices 1 2 3 4 5 6 
#
# 1 0.013450 -0.001352 -0.003885 0.000000 0.000000 0.000000
# 2 -0.001352 0.011735 -0.004154 0.000000 0.000000 0.000000
# 3 -0.003885 -0.004154 0.008461 0.000000 0.000000 0.000000
# 4 0.000000 0.000000 0.000000 0.020386 0.000000 0.000000
# 5 0.000000 0.000000 0.000000 0.000000 0.025069 0.000000
# 6 0.000000 0.000000 0.000000 0.000000 0.000000 -0.009434
#
#
# Mechanical properties :
#
#
# Convention : Reuss Voigt Hill
#
# Bulk Modulus (GPa) = 67.27943 79.00524 73.14234
# Shear Modulus (GPa) = 53.53103 11.72214 32.62659
#
# Velocity S-wave (km/s) = 4.79464 2.24366 3.74317
# Velocity P-wave (km/s) = 7.71649 6.37498 7.07759
#
# Compressibility (1/GPa) = 0.01486338
#
# Stress axis : x y z
#
# Youngs Moduli (GPa) = 74.35027 85.21667 118.18448
#
# Poissons Ratio (x) = 0.11522 0.45920
# Poissons Ratio (y) = 0.10053 0.49092
# Poissons Ratio (z) = 0.28888 0.35397
#
# Static dielectric constant tensor:
#      x y z
#    x 1.926750 0.000000 0.000000 
#    y 0.000000 2.100780 0.000000 
#    z 0.000000 0.000000 2.264980 
# 
# From -- ./inp_files/10509.got.cif
#   From: 2010.05.17/outbox.cif.g08.bks.cpg/sg20_6_cif.got.tgz:10509.got - 2010.06.03 22:52:26.
