data_PCOD9321072
_publ_section_title
;
Structure prediction by ZEFSAII (Michael W. Deem and Ramdas Pophale) SiO2 
 PCOD9321072
Probable space group: C 2 2 21
;
_chemical_formula_sum "Si O2"
_cell_formula_units_Z 64
_cell_length_a 8.776697
_cell_length_b 10.734110
_cell_length_c 31.933892
_cell_angle_alpha 90.000000
_cell_angle_beta 90.000000
_cell_angle_gamma 90.000000
_cell_volume 3008.492956
_symmetry_space_group_name_H-M "C 2 2 21"
_symmetry_group_IT_number 20
_symmetry_cell_setting 'orthorhombic'
loop_
_space_group_symop_operation_xyz
x,y,z
-x,-y,1/2+z
x,-y,-z
-x,y,1/2-z
1/2+x,1/2+y,z
1/2-x,1/2-y,1/2+z
1/2+x,1/2-y,-z
1/2-x,1/2+y,1/2-z
loop_
_atom_site_type_symbol
_atom_site_label
_atom_site_fract_x
_atom_site_fract_y
_atom_site_fract_z
Si Si1 0.663847 0.536044 0.799318
Si Si2 0.615618 0.131273 0.097764
Si Si3 0.737919 0.118935 0.381025
Si Si4 0.266982 0.645357 0.011894
Si Si5 0.168664 0.260921 0.338324
Si Si6 0.375651 0.381214 0.530306
Si Si7 0.141717 0.384318 0.139773
Si Si8 0.165586 0.993021 0.706395
O O1 0.713791 0.460922 0.840584
O O2 0.765151 0.658468 0.800737
O O3 0.689348 0.467322 0.755291
O O4 0.486494 0.574481 0.799482
O O5 0.438799 0.112047 0.107006
O O6 0.659228 0.171210 0.051594
O O7 0.697826 0.226792 0.129217
O O8 0.679950 0.992654 0.106879
O O9 0.838203 0.084175 0.421686
O O10 0.764568 0.262128 0.369746
O O11 0.445652 0.651233 0.024198
O O12 0.239199 0.500000 0.000000
O O13 0.222446 0.756457 0.980089
O O14 0.031656 0.336106 0.359526
O O15 0.118734 0.130865 0.318611
O O16 0.340788 0.500000 0.500000
O O17 0.190759 0.444196 0.184094
#
# Coordination Sequence:
#
# PCOD9321072 Si02
#       8
#     8   8   8   8   8   8   8   8
#     4  11  24  42  66  97 134 176 227 275 341 402
#     4  11  25  42  68 100 134 176 228 275 343 400
#     4  12  24  43  69  99 134 182 222 277 343 408
#     4  11  25  47  71 101 138 178 227 289 341 416
#     4  11  23  44  65  97 133 175 225 279 332 402
#     4  11  27  45  71 103 138 182 228 284 351 414
#     4  11  23  43  69  96 133 179 225 280 335 406
#     4  10  25  43  65  97 133 182 222 285 340 398
#
# _framework density 21.273108000000001
#
# number of rings (size 3 to 8) (size 9 to 14) (size 15 to 20)
#    0.000    1.000    2.500    3.000    5.250    4.500 
#    0.000    0.000    0.000    0.000    0.000    0.000 
#    0.000    0.000    0.000    0.000    0.000    0.000 
#
# Total GULP energy -178723.162260 kJ/mol
# GULP energy per Si atom -5585.098821 kJ/mol
# Density = 2.122469 g / cm^3
# Si number density = 21.273108 Si / 1000 Ang^3
#
#
#
# Elastic Constant Matrix: (Units=GPa)
#
#
# Indices 1 2 3 4 5 6 
#
# 1 70.6110 13.7969 15.6623 0.0000 0.0000 0.0000
# 2 13.7969 69.9178 5.0202 0.0000 0.0000 0.0000
# 3 15.6623 5.0202 102.8237 0.0000 0.0000 0.0000
# 4 0.0000 0.0000 0.0000 21.4306 0.0000 0.0000
# 5 0.0000 0.0000 0.0000 0.0000 30.6951 0.0000
# 6 0.0000 0.0000 0.0000 0.0000 0.0000 31.1487
#
#
#
# Elastic Compliance Matrix: (Units=1/GPa)
#
#
# Indices 1 2 3 4 5 6 
#
# 1 0.015200 -0.002843 -0.002177 0.000000 0.000000 0.000000
# 2 -0.002843 0.014885 -0.000294 0.000000 0.000000 0.000000
# 3 -0.002177 -0.000294 0.010071 0.000000 0.000000 0.000000
# 4 0.000000 0.000000 0.000000 0.046662 0.000000 0.000000
# 5 0.000000 0.000000 0.000000 0.000000 0.032579 0.000000
# 6 0.000000 0.000000 0.000000 0.000000 0.000000 0.032104
#
#
# Mechanical properties :
#
#
# Convention : Reuss Voigt Hill
#
# Bulk Modulus (GPa) = 33.86440 34.70125 34.28283
# Shear Modulus (GPa) = 29.07465 30.57975 29.82720
#
# Velocity S-wave (km/s) = 3.70095 3.79553 3.74854
# Velocity P-wave (km/s) = 5.84945 5.96286 5.90643
#
# Compressibility (1/GPa) = 0.02952953
#
# Stress axis : x y z
#
# Youngs Moduli (GPa) = 65.78766 67.18335 99.29249
#
# Poissons Ratio (x) = 0.19102 0.21611
# Poissons Ratio (y) = 0.18705 0.02916
# Poissons Ratio (z) = 0.14319 0.01973
#
# Static dielectric constant tensor:
#      x y z
#    x 1.766210 0.000000 0.000000 
#    y 0.000000 1.759610 0.000000 
#    z 0.000000 0.000000 1.769770 
# 
# From -- ./inp_files/31092.got.cif
#   From: 2010.05.17/outbox.cif.g08.bks.cpg/sg20_16_cif.got.tgz:31092.got - 2010.06.03 22:52:26.
