data_PCOD9321904
_publ_section_title
;
Structure prediction by ZEFSAII (Michael W. Deem and Ramdas Pophale) SiO2 
 PCOD9321904
Probable space group: C 2 2 21
;
_chemical_formula_sum "Si O2"
_cell_formula_units_Z 24
_cell_length_a 4.967384
_cell_length_b 25.093498
_cell_length_c 8.068425
_cell_angle_alpha 90.000000
_cell_angle_beta 90.000000
_cell_angle_gamma 90.000000
_cell_volume 1005.721434
_symmetry_space_group_name_H-M "C 2 2 21"
_symmetry_group_IT_number 20
_symmetry_cell_setting 'orthorhombic'
loop_
_space_group_symop_operation_xyz
x,y,z
-x,-y,1/2+z
x,-y,-z
-x,y,1/2-z
1/2+x,1/2+y,z
1/2-x,1/2-y,1/2+z
1/2+x,1/2-y,-z
1/2-x,1/2+y,1/2-z
loop_
_atom_site_type_symbol
_atom_site_label
_atom_site_fract_x
_atom_site_fract_y
_atom_site_fract_z
Si Si1 0.182147 0.894516 0.915521
Si Si2 0.500000 0.021428 0.250000
Si Si3 0.500000 0.555920 0.750000
Si Si4 0.834854 0.228000 0.417491
O O1 0.265489 0.832994 0.917326
O O2 0.000000 0.900944 0.750000
O O3 0.419080 0.937608 0.895635
O O4 0.038925 0.908948 0.086424
O O5 0.750670 0.983396 0.221190
O O6 0.571403 0.263295 0.447670
O O7 0.000000 0.239577 0.250000
#
# Coordination Sequence:
#
# PCOD9321904 Si02
#       4
#     8   4   4   8
#     4  11  29  49  76 111 151 195 250 310 373 439
#     4  12  28  48  75 112 149 196 252 298 370 442
#     4  12  30  46  79 108 151 202 248 304 370 454
#     4  11  27  48  78 108 148 192 247 310 373 440
#
# _framework density 23.863465999999999
#
# number of rings (size 3 to 8) (size 9 to 14) (size 15 to 20)
#    0.000    0.667    1.667    2.000   23.333    0.000 
#    0.000    0.000    0.000    0.000    0.000    0.000 
#    0.000    0.000    0.000    0.000    0.000    0.000 
#
# Total GULP energy -67232.135265 kJ/mol
# GULP energy per Si atom -5602.677939 kJ/mol
# Density = 2.380915 g / cm^3
# Si number density = 23.863466 Si / 1000 Ang^3
#
#
#
# Elastic Constant Matrix: (Units=GPa)
#
#
# Indices 1 2 3 4 5 6 
#
# 1 101.5072 9.3954 21.3439 0.0000 0.0000 0.0000
# 2 9.3954 63.2875 29.5498 0.0000 0.0000 0.0000
# 3 21.3439 29.5498 152.4031 0.0000 0.0000 0.0000
# 4 0.0000 0.0000 0.0000 40.4454 0.0000 0.0000
# 5 0.0000 0.0000 0.0000 0.0000 36.3405 0.0000
# 6 0.0000 0.0000 0.0000 0.0000 0.0000 -11.4092
#
#
#
# Elastic Compliance Matrix: (Units=1/GPa)
#
#
# Indices 1 2 3 4 5 6 
#
# 1 0.010200 -0.000932 -0.001248 0.000000 0.000000 0.000000
# 2 -0.000932 0.017459 -0.003255 0.000000 0.000000 0.000000
# 3 -0.001248 -0.003255 0.007367 0.000000 0.000000 0.000000
# 4 0.000000 0.000000 0.000000 0.024725 0.000000 0.000000
# 5 0.000000 0.000000 0.000000 0.000000 0.027518 0.000000
# 6 0.000000 0.000000 0.000000 0.000000 0.000000 -0.087649
#
#
# Mechanical properties :
#
#
# Convention : Reuss Voigt Hill
#
# Bulk Modulus (GPa) = 41.39408 48.64176 45.01792
# Shear Modulus (GPa) = 269.67137 30.20258 149.93697
#
# Velocity S-wave (km/s) = 10.64196 3.56144 7.93521
# Velocity P-wave (km/s) = 12.97635 6.11060 10.14212
#
# Compressibility (1/GPa) = 0.02415805
#
# Stress axis : x y z
#
# Youngs Moduli (GPa) = 98.03785 57.27748 135.73370
#
# Poissons Ratio (x) = 0.05336 0.16938
# Poissons Ratio (y) = 0.09133 0.44177
# Poissons Ratio (z) = 0.12234 0.18642
#
# Static dielectric constant tensor:
#      x y z
#    x 1.777820 0.000000 0.000000 
#    y 0.000000 1.833250 0.000000 
#    z 0.000000 0.000000 2.036320 
# 
# From -- ./inp_files/4988.got.cif
#   From: 2010.05.17/outbox.cif.g08.bks.cpg/sg20_3_cif.got.tgz:4988.got - 2010.06.03 22:52:26.
