data_PCOD9321829
_publ_section_title
;
Structure prediction by ZEFSAII (Michael W. Deem and Ramdas Pophale) SiO2 
 PCOD9321829
Probable space group: C 2 2 21
;
_chemical_formula_sum "Si O2"
_cell_formula_units_Z 48
_cell_length_a 8.058747
_cell_length_b 20.138770
_cell_length_c 13.223626
_cell_angle_alpha 90.000000
_cell_angle_beta 90.000000
_cell_angle_gamma 90.000000
_cell_volume 2146.105271
_symmetry_space_group_name_H-M "C 2 2 21"
_symmetry_group_IT_number 20
_symmetry_cell_setting 'orthorhombic'
loop_
_space_group_symop_operation_xyz
x,y,z
-x,-y,1/2+z
x,-y,-z
-x,y,1/2-z
1/2+x,1/2+y,z
1/2-x,1/2-y,1/2+z
1/2+x,1/2-y,-z
1/2-x,1/2+y,1/2-z
loop_
_atom_site_type_symbol
_atom_site_label
_atom_site_fract_x
_atom_site_fract_y
_atom_site_fract_z
Si Si1 0.272748 0.633573 0.754514
Si Si2 0.906355 0.435933 0.440760
Si Si3 0.500000 0.252354 0.250000
Si Si4 0.293750 0.434434 0.445510
Si Si5 0.000000 0.267245 0.250000
Si Si6 0.924099 0.812399 0.564827
Si Si7 0.818568 0.311653 0.568995
O O1 0.191877 0.587291 0.840255
O O2 0.383656 0.692008 0.804556
O O3 0.357485 0.591969 0.663814
O O4 0.130399 0.680542 0.701547
O O5 0.836893 0.500000 0.500000
O O6 0.901548 0.374631 0.517524
O O7 0.100568 0.448939 0.419922
O O8 0.605954 0.205875 0.177482
O O9 0.363980 0.500000 0.500000
O O10 0.326019 0.376342 0.526737
O O11 0.903180 0.218868 0.324665
O O12 0.867102 0.753277 0.493210
O O13 0.122100 0.823497 0.563084
#
# Coordination Sequence:
#
# PCOD9321829 Si02
#       7
#     8   8   4   8   4   8   8
#     4  12  22  47  72 103 142 198 243 296 380 430
#     4  11  25  45  70 100 145 194 243 298 363 443
#     4  12  26  42  74 112 136 190 242 304 366 432
#     4  11  25  46  72 103 143 191 240 302 364 439
#     4  12  22  40  74  98 140 188 234 304 362 426
#     4  12  24  42  71 105 139 184 240 301 358 426
#     4  12  24  43  70 107 140 180 242 295 356 435
#
# _framework density 22.366095999999999
#
# number of rings (size 3 to 8) (size 9 to 14) (size 15 to 20)
#    0.000    0.333    6.667    2.000    2.333    0.667 
#    9.000    0.000    0.000    0.000    0.000    0.000 
#    0.000    0.000    0.000    0.000    0.000    0.000 
#
# Total GULP energy -134000.589973 kJ/mol
# GULP energy per Si atom -5583.357916 kJ/mol
# Density = 2.231519 g / cm^3
# Si number density = 22.366096 Si / 1000 Ang^3
#
#
#
# Elastic Constant Matrix: (Units=GPa)
#
#
# Indices 1 2 3 4 5 6 
#
# 1 51.4390 -9.4441 11.0255 0.0000 0.0000 0.0000
# 2 -9.4441 138.1381 52.0638 0.0000 0.0000 0.0000
# 3 11.0255 52.0638 130.7338 0.0000 0.0000 0.0000
# 4 0.0000 0.0000 0.0000 41.6730 0.0000 0.0000
# 5 0.0000 0.0000 0.0000 0.0000 27.2421 0.0000
# 6 0.0000 0.0000 0.0000 0.0000 0.0000 25.1350
#
#
#
# Elastic Compliance Matrix: (Units=1/GPa)
#
#
# Indices 1 2 3 4 5 6 
#
# 1 0.020459 0.002411 -0.002686 0.000000 0.000000 0.000000
# 2 0.002411 0.008802 -0.003709 0.000000 0.000000 0.000000
# 3 -0.002686 -0.003709 0.009353 0.000000 0.000000 0.000000
# 4 0.000000 0.000000 0.000000 0.023996 0.000000 0.000000
# 5 0.000000 0.000000 0.000000 0.000000 0.036708 0.000000
# 6 0.000000 0.000000 0.000000 0.000000 0.000000 0.039785
#
#
# Mechanical properties :
#
#
# Convention : Reuss Voigt Hill
#
# Bulk Modulus (GPa) = 32.63004 47.51125 40.07064
# Shear Modulus (GPa) = 31.78958 36.58773 34.18866
#
# Velocity S-wave (km/s) = 3.77414 4.04896 3.91396
# Velocity P-wave (km/s) = 5.79767 6.56867 6.19517
#
# Compressibility (1/GPa) = 0.03064661
#
# Stress axis : x y z
#
# Youngs Moduli (GPa) = 48.87883 113.61456 106.92317
#
# Poissons Ratio (x) = -0.27391 0.28714
# Poissons Ratio (y) = -0.11784 0.39653
# Poissons Ratio (z) = 0.13126 0.42134
#
# Static dielectric constant tensor:
#      x y z
#    x 2.000370 0.000000 0.000000 
#    y 0.000000 1.781570 0.000000 
#    z 0.000000 0.000000 1.839390 
# 
# From -- ./inp_files/18968.got.cif
#   From: 2010.05.17/outbox.cif.g08.bks.cpg/sg20_10_cif.got.tgz:18968.got - 2010.06.03 22:52:26.
