data_PCOD9321382
_publ_section_title
;
Structure prediction by ZEFSAII (Michael W. Deem and Ramdas Pophale) SiO2 
 PCOD9321382
Probable space group: C 2 2 21
;
_chemical_formula_sum "Si O2"
_cell_formula_units_Z 36
_cell_length_a 11.170445
_cell_length_b 8.266178
_cell_length_c 12.937142
_cell_angle_alpha 90.000000
_cell_angle_beta 90.000000
_cell_angle_gamma 90.000000
_cell_volume 1194.575415
_symmetry_space_group_name_H-M "C 2 2 21"
_symmetry_group_IT_number 20
_symmetry_cell_setting 'orthorhombic'
loop_
_space_group_symop_operation_xyz
x,y,z
-x,-y,1/2+z
x,-y,-z
-x,y,1/2-z
1/2+x,1/2+y,z
1/2-x,1/2-y,1/2+z
1/2+x,1/2-y,-z
1/2-x,1/2+y,1/2-z
loop_
_atom_site_type_symbol
_atom_site_label
_atom_site_fract_x
_atom_site_fract_y
_atom_site_fract_z
Si Si1 0.728517 0.183742 0.674304
Si Si2 0.514623 0.223589 0.584231
Si Si3 0.021983 0.413179 0.860858
Si Si4 0.359148 0.500000 0.500000
Si Si5 0.742145 0.495079 0.619815
O O1 0.582502 0.076617 0.659417
O O2 0.773829 0.114631 0.783635
O O3 0.830149 0.342449 0.649011
O O4 0.775644 0.093420 0.575734
O O5 0.536572 0.177834 0.460715
O O6 0.433458 0.381941 0.572557
O O7 0.632872 0.334635 0.646004
O O8 0.101589 0.582094 0.900060
O O9 0.000000 0.335664 0.750000
O O10 0.707420 0.500000 0.500000
#
# Coordination Sequence:
#
# PCOD9321382 Si02
#       5
#     8   8   8   4   8
#     4  12  29  49  81 115 160 210 269 331 407 478
#     4  11  25  47  77 111 151 207 264 326 399 477
#     4  11  21  44  72 105 152 201 257 325 399 473
#     4  12  26  52  78 120 158 208 268 340 392 476
#     4  12  27  49  77 113 161 205 265 334 404 480
#
# _framework density 30.136230000000001
#
# number of rings (size 3 to 8) (size 9 to 14) (size 15 to 20)
#    0.000    0.444    6.667    1.333    7.778    0.000 
#    0.000    1.111    0.000    0.000    0.000    0.000 
#    0.000    0.000    0.000    0.000    0.000    0.000 
#
# Total GULP energy -100227.123884 kJ/mol
# GULP energy per Si atom -5568.173549 kJ/mol
# Density = 3.006764 g / cm^3
# Si number density = 30.136230 Si / 1000 Ang^3
#
#
#
# Elastic Constant Matrix: (Units=GPa)
#
#
# Indices 1 2 3 4 5 6 
#
# 1 201.3981 70.7748 43.7443 0.0000 0.0000 0.0000
# 2 70.7748 189.8936 92.2416 0.0000 0.0000 0.0000
# 3 43.7443 92.2416 253.6801 0.0000 0.0000 0.0000
# 4 0.0000 0.0000 0.0000 67.2472 0.0000 0.0000
# 5 0.0000 0.0000 0.0000 0.0000 78.4869 0.0000
# 6 0.0000 0.0000 0.0000 0.0000 0.0000 45.6548
#
#
#
# Elastic Compliance Matrix: (Units=1/GPa)
#
#
# Indices 1 2 3 4 5 6 
#
# 1 0.005727 -0.002010 -0.000257 0.000000 0.000000 0.000000
# 2 -0.002010 0.007101 -0.002235 0.000000 0.000000 0.000000
# 3 -0.000257 -0.002235 0.004799 0.000000 0.000000 0.000000
# 4 0.000000 0.000000 0.000000 0.014871 0.000000 0.000000
# 5 0.000000 0.000000 0.000000 0.000000 0.012741 0.000000
# 6 0.000000 0.000000 0.000000 0.000000 0.000000 0.021903
#
#
# Mechanical properties :
#
#
# Convention : Reuss Voigt Hill
#
# Bulk Modulus (GPa) = 115.96559 117.61036 116.78797
# Shear Modulus (GPa) = 63.27408 67.49187 65.38297
#
# Velocity S-wave (km/s) = 4.58711 4.73753 4.66293
# Velocity P-wave (km/s) = 8.16207 8.30882 8.23578
#
# Compressibility (1/GPa) = 0.00862325
#
# Stress axis : x y z
#
# Youngs Moduli (GPa) = 174.59987 140.82324 208.37231
#
# Poissons Ratio (x) = 0.28304 0.05351
# Poissons Ratio (y) = 0.35093 0.46581
# Poissons Ratio (z) = 0.04484 0.31481
#
# Static dielectric constant tensor:
#      x y z
#    x 3.986140 0.000000 0.000000 
#    y 0.000000 3.077590 0.000000 
#    z 0.000000 0.000000 2.055340 
# 
# From -- ./inp_files/24144.got.cif
#   From: 2010.05.17/outbox.cif.g08.bks.cpg/sg20_13_cif.got.tgz:24144.got - 2010.06.03 22:52:26.
