data_PCOD9321591
_publ_section_title
;
Structure prediction by ZEFSAII (Michael W. Deem and Ramdas Pophale) SiO2 
 PCOD9321591
Probable space group: C 2 2 21
;
_chemical_formula_sum "Si O2"
_cell_formula_units_Z 56
_cell_length_a 9.130112
_cell_length_b 18.316034
_cell_length_c 14.526506
_cell_angle_alpha 90.000000
_cell_angle_beta 90.000000
_cell_angle_gamma 90.000000
_cell_volume 2429.230437
_symmetry_space_group_name_H-M "C 2 2 21"
_symmetry_group_IT_number 20
_symmetry_cell_setting 'orthorhombic'
loop_
_space_group_symop_operation_xyz
x,y,z
-x,-y,1/2+z
x,-y,-z
-x,y,1/2-z
1/2+x,1/2+y,z
1/2-x,1/2-y,1/2+z
1/2+x,1/2-y,-z
1/2-x,1/2+y,1/2-z
loop_
_atom_site_type_symbol
_atom_site_label
_atom_site_fract_x
_atom_site_fract_y
_atom_site_fract_z
Si Si1 0.775719 0.914948 0.178818
Si Si2 0.523756 0.816557 0.104067
Si Si3 0.313287 0.688185 0.661948
Si Si4 0.171157 0.437563 0.764133
Si Si5 0.603618 0.348634 0.838750
Si Si6 0.324691 0.165762 0.422910
Si Si7 0.041545 0.876604 0.481903
O O1 0.620881 0.881527 0.146572
O O2 0.841507 0.850838 0.241855
O O3 0.872899 0.929274 0.088234
O O4 0.754870 0.985881 0.240324
O O5 0.357979 0.822927 0.137503
O O6 0.590827 0.737170 0.133196
O O7 0.544664 0.825623 0.994701
O O8 0.335333 0.774523 0.656920
O O9 0.416631 0.658430 0.581407
O O10 0.241750 0.380905 0.692440
O O11 0.188517 0.409429 0.869089
O O12 0.000000 0.447174 0.750000
O O13 0.500000 0.357176 0.750000
O O14 0.539166 0.395419 0.923469
O O15 0.175105 0.175625 0.482229
#
# Coordination Sequence:
#
# PCOD9321591 Si02
#       7
#     8   8   8   8   8   8   8
#     4  11  27  48  68 104 150 196 242 304 374 440
#     4  11  23  42  77 101 149 189 240 319 364 431
#     4  12  21  44  73 108 138 187 251 299 368 439
#     4  12  28  47  72 105 150 202 251 301 372 450
#     4  12  23  47  74 107 145 192 245 306 378 428
#     4  11  23  44  69 107 145 190 242 310 363 436
#     4  11  25  44  72 107 141 188 239 301 371 430
#
# _framework density 23.052568999999998
#
# number of rings (size 3 to 8) (size 9 to 14) (size 15 to 20)
#    0.000    0.571    4.286    3.429    2.000    6.857 
#    2.571    0.000    0.000    0.000    0.000    0.000 
#    0.000    0.000    0.000    0.000    0.000    0.000 
#
# Total GULP energy -156547.755589 kJ/mol
# GULP energy per Si atom -5590.991271 kJ/mol
# Density = 2.300010 g / cm^3
# Si number density = 23.052569 Si / 1000 Ang^3
#
#
#
# Elastic Constant Matrix: (Units=GPa)
#
#
# Indices 1 2 3 4 5 6 
#
# 1 78.4386 18.7108 23.7195 0.0000 0.0000 0.0000
# 2 18.7108 50.5488 13.6679 0.0000 0.0000 0.0000
# 3 23.7195 13.6679 120.8662 0.0000 0.0000 0.0000
# 4 0.0000 0.0000 0.0000 23.6730 0.0000 0.0000
# 5 0.0000 0.0000 0.0000 0.0000 40.0815 0.0000
# 6 0.0000 0.0000 0.0000 0.0000 0.0000 15.5781
#
#
#
# Elastic Compliance Matrix: (Units=1/GPa)
#
#
# Indices 1 2 3 4 5 6 
#
# 1 0.014590 -0.004772 -0.002324 0.000000 0.000000 0.000000
# 2 -0.004772 0.021968 -0.001548 0.000000 0.000000 0.000000
# 3 -0.002324 -0.001548 0.008905 0.000000 0.000000 0.000000
# 4 0.000000 0.000000 0.000000 0.042242 0.000000 0.000000
# 5 0.000000 0.000000 0.000000 0.000000 0.024949 0.000000
# 6 0.000000 0.000000 0.000000 0.000000 0.000000 0.064193
#
#
# Mechanical properties :
#
#
# Convention : Reuss Voigt Hill
#
# Bulk Modulus (GPa) = 35.49194 40.22779 37.85987
# Shear Modulus (GPa) = 24.56700 28.78352 26.67526
#
# Velocity S-wave (km/s) = 3.26804 3.53739 3.40538
# Velocity P-wave (km/s) = 5.44698 5.84573 5.64987
#
# Compressibility (1/GPa) = 0.02817541
#
# Stress axis : x y z
#
# Youngs Moduli (GPa) = 68.54092 45.52121 112.30135
#
# Poissons Ratio (x) = 0.21724 0.26094
# Poissons Ratio (y) = 0.32709 0.17380
# Poissons Ratio (z) = 0.15926 0.07045
#
# Static dielectric constant tensor:
#      x y z
#    x 1.879020 0.000000 0.000000 
#    y 0.000000 1.859830 0.000000 
#    z 0.000000 0.000000 1.864470 
# 
# From -- ./inp_files/19224.got.cif
#   From: 2010.05.17/outbox.cif.g08.bks.cpg/sg20_10_cif.got.tgz:19224.got - 2010.06.03 22:52:26.
