data_PCOD9321899
_publ_section_title
;
Structure prediction by ZEFSAII (Michael W. Deem and Ramdas Pophale) SiO2 
 PCOD9321899
Probable space group: C 2 2 21
;
_chemical_formula_sum "Si O2"
_cell_formula_units_Z 28
_cell_length_a 15.173505
_cell_length_b 7.335947
_cell_length_c 9.836316
_cell_angle_alpha 90.000000
_cell_angle_beta 90.000000
_cell_angle_gamma 90.000000
_cell_volume 1094.900287
_symmetry_space_group_name_H-M "C 2 2 21"
_symmetry_group_IT_number 20
_symmetry_cell_setting 'orthorhombic'
loop_
_space_group_symop_operation_xyz
x,y,z
-x,-y,1/2+z
x,-y,-z
-x,y,1/2-z
1/2+x,1/2+y,z
1/2-x,1/2-y,1/2+z
1/2+x,1/2-y,-z
1/2-x,1/2+y,1/2-z
loop_
_atom_site_type_symbol
_atom_site_label
_atom_site_fract_x
_atom_site_fract_y
_atom_site_fract_z
Si Si1 0.595778 0.081853 0.740401
Si Si2 0.227439 0.113001 0.877836
Si Si3 0.084200 0.998194 0.335123
Si Si4 0.698040 0.000000 0.000000
O O1 0.500000 0.991333 0.750000
O O2 0.678305 0.015912 0.650379
O O3 0.584524 0.288009 0.695313
O O4 0.635148 0.086427 0.888956
O O5 0.168085 0.096543 0.741247
O O6 0.240890 0.321696 0.927971
O O7 0.183106 0.000000 0.000000
O O8 0.000000 0.924691 0.250000
O O9 0.079915 0.000000 0.500000
#
# Coordination Sequence:
#
# PCOD9321899 Si02
#       4
#     8   8   8   4
#     4  11  28  48  80 117 160 206 273 327 400 481
#     4  12  27  51  82 116 163 214 261 338 404 482
#     4  11  26  50  84 117 160 216 266 329 408 479
#     4  12  28  50  78 122 154 208 282 322 406 482
#
# _framework density 25.573105000000002
#
# number of rings (size 3 to 8) (size 9 to 14) (size 15 to 20)
#    0.000    0.571    2.857    2.571   14.000    1.143 
#    0.000    0.000    0.000    0.000    0.000    0.000 
#    0.000    0.000    0.000    0.000    0.000    0.000 
#
# Total GULP energy -78178.836244 kJ/mol
# GULP energy per Si atom -5584.202589 kJ/mol
# Density = 2.551490 g / cm^3
# Si number density = 25.573105 Si / 1000 Ang^3
#
#
#
# Elastic Constant Matrix: (Units=GPa)
#
#
# Indices 1 2 3 4 5 6 
#
# 1 182.0118 -0.8950 76.6461 0.0000 0.0000 0.0000
# 2 -0.8950 124.9083 61.3878 0.0000 0.0000 0.0000
# 3 76.6461 61.3878 236.3738 0.0000 0.0000 0.0000
# 4 0.0000 0.0000 0.0000 44.6711 0.0000 0.0000
# 5 0.0000 0.0000 0.0000 0.0000 62.6776 0.0000
# 6 0.0000 0.0000 0.0000 0.0000 0.0000 14.6431
#
#
#
# Elastic Compliance Matrix: (Units=1/GPa)
#
#
# Indices 1 2 3 4 5 6 
#
# 1 0.006528 0.001246 -0.002440 0.000000 0.000000 0.000000
# 2 0.001246 0.009415 -0.002849 0.000000 0.000000 0.000000
# 3 -0.002440 -0.002849 0.005762 0.000000 0.000000 0.000000
# 4 0.000000 0.000000 0.000000 0.022386 0.000000 0.000000
# 5 0.000000 0.000000 0.000000 0.000000 0.015955 0.000000
# 6 0.000000 0.000000 0.000000 0.000000 0.000000 0.068292
#
#
# Mechanical properties :
#
#
# Convention : Reuss Voigt Hill
#
# Bulk Modulus (GPa) = 73.43252 90.84132 82.13692
# Shear Modulus (GPa) = 35.47025 51.47536 43.47281
#
# Velocity S-wave (km/s) = 3.72830 4.49137 4.12751
# Velocity P-wave (km/s) = 6.87828 7.90543 7.40968
#
# Compressibility (1/GPa) = 0.01361794
#
# Stress axis : x y z
#
# Youngs Moduli (GPa) = 153.18809 106.21245 173.55518
#
# Poissons Ratio (x) = -0.13235 0.42354
# Poissons Ratio (y) = -0.19089 0.49450
# Poissons Ratio (z) = 0.37383 0.30262
#
# Static dielectric constant tensor:
#      x y z
#    x 2.144930 0.000000 0.000000 
#    y 0.000000 1.940780 0.000000 
#    z 0.000000 0.000000 2.093810 
# 
# From -- ./inp_files/9015.got.cif
#   From: 2010.05.17/outbox.cif.g08.bks.cpg/sg20_5_cif.got.tgz:9015.got - 2010.06.03 22:52:26.
