data_PCOD9321359
_publ_section_title
;
Structure prediction by ZEFSAII (Michael W. Deem and Ramdas Pophale) SiO2 
 PCOD9321359
Probable space group: C 2 2 21
;
_chemical_formula_sum "Si O2"
_cell_formula_units_Z 48
_cell_length_a 9.537421
_cell_length_b 28.312365
_cell_length_c 8.756882
_cell_angle_alpha 90.000000
_cell_angle_beta 90.000000
_cell_angle_gamma 90.000000
_cell_volume 2364.594090
_symmetry_space_group_name_H-M "C 2 2 21"
_symmetry_group_IT_number 20
_symmetry_cell_setting 'orthorhombic'
loop_
_space_group_symop_operation_xyz
x,y,z
-x,-y,1/2+z
x,-y,-z
-x,y,1/2-z
1/2+x,1/2+y,z
1/2-x,1/2-y,1/2+z
1/2+x,1/2-y,-z
1/2-x,1/2+y,1/2-z
loop_
_atom_site_type_symbol
_atom_site_label
_atom_site_fract_x
_atom_site_fract_y
_atom_site_fract_z
Si Si1 0.290002 0.947315 0.431650
Si Si2 0.731472 0.048203 0.566180
Si Si3 0.026332 0.381545 0.571275
Si Si4 0.922654 0.797807 0.415113
Si Si5 0.081127 0.715054 0.590183
Si Si6 0.499336 0.403423 0.434455
O O1 0.289530 0.950531 0.247658
O O2 0.413064 0.913114 0.483541
O O3 0.151076 0.919831 0.485992
O O4 0.298928 0.000000 0.500000
O O5 0.666334 0.093054 0.483569
O O6 0.893718 0.054664 0.526301
O O7 0.671374 0.000000 0.500000
O O8 0.000000 0.385093 0.750000
O O9 0.034808 0.327840 0.518723
O O10 0.753904 0.785912 0.401444
O O11 0.947410 0.851109 0.478033
O O12 0.000000 0.795327 0.250000
O O13 0.010769 0.762117 0.521141
O O14 0.000000 0.706622 0.750000
O O15 0.500000 0.401582 0.250000
#
# Coordination Sequence:
#
# PCOD9321359 Si02
#       6
#     8   8   8   8   8   8
#     4  11  23  41  65  99 132 179 224 277 338 402
#     4  11  21  41  67  94 132 174 220 278 335 401
#     4  12  26  43  65  96 133 175 229 279 333 402
#     4  11  24  46  72 103 139 178 229 279 340 415
#     4  12  26  45  73 103 137 183 223 282 348 407
#     4   9  21  40  67  95 132 172 221 272 337 400
#
# _framework density 20.299465000000001
#
# number of rings (size 3 to 8) (size 9 to 14) (size 15 to 20)
#    0.000    1.000    1.667    5.000    7.000    0.000 
#    0.000    2.500    0.000    0.000    0.000    0.000 
#    0.000    0.000    0.000    0.000    0.000    0.000 
#
# Total GULP energy -133942.679365 kJ/mol
# GULP energy per Si atom -5580.944974 kJ/mol
# Density = 2.025326 g / cm^3
# Si number density = 20.299465 Si / 1000 Ang^3
#
#
#
# Elastic Constant Matrix: (Units=GPa)
#
#
# Indices 1 2 3 4 5 6 
#
# 1 133.1661 49.6889 18.6445 0.0000 0.0000 0.0000
# 2 49.6889 123.7246 31.3036 0.0000 0.0000 0.0000
# 3 18.6445 31.3036 80.3972 0.0000 0.0000 0.0000
# 4 0.0000 0.0000 0.0000 -15.3090 0.0000 0.0000
# 5 0.0000 0.0000 0.0000 0.0000 6.4042 0.0000
# 6 0.0000 0.0000 0.0000 0.0000 0.0000 32.1278
#
#
#
# Elastic Compliance Matrix: (Units=1/GPa)
#
#
# Indices 1 2 3 4 5 6 
#
# 1 0.008873 -0.003375 -0.000743 0.000000 0.000000 0.000000
# 2 -0.003375 0.010250 -0.003208 0.000000 0.000000 0.000000
# 3 -0.000743 -0.003208 0.013860 0.000000 0.000000 0.000000
# 4 0.000000 0.000000 0.000000 -0.065321 0.000000 0.000000
# 5 0.000000 0.000000 0.000000 0.000000 0.156147 0.000000
# 6 0.000000 0.000000 0.000000 0.000000 0.000000 0.031126
#
#
# Mechanical properties :
#
#
# Convention : Reuss Voigt Hill
#
# Bulk Modulus (GPa) = 54.55936 59.61798 57.08867
# Shear Modulus (GPa) = 28.45809 20.48800 24.47304
#
# Velocity S-wave (km/s) = 3.74828 3.18038 3.47594
# Velocity P-wave (km/s) = 6.75784 6.55129 6.65536
#
# Compressibility (1/GPa) = 0.01832866
#
# Stress axis : x y z
#
# Youngs Moduli (GPa) = 112.70172 97.56357 72.15130
#
# Poissons Ratio (x) = 0.32931 0.05364
# Poissons Ratio (y) = 0.38041 0.23147
# Poissons Ratio (z) = 0.08379 0.31299
#
# Static dielectric constant tensor:
#      x y z
#    x 1.799230 0.000000 0.000000 
#    y 0.000000 1.694470 0.000000 
#    z 0.000000 0.000000 1.710120 
# 
# From -- ./inp_files/6553.got.cif
#   From: 2010.05.17/outbox.cif.g08.bks.cpg/sg20_4_cif.got.tgz:6553.got - 2010.06.03 22:52:26.
