data_PCOD9321322
_publ_section_title
;
Structure prediction by ZEFSAII (Michael W. Deem and Ramdas Pophale) SiO2 
 PCOD9321322
Probable space group: C 2 2 21
;
_chemical_formula_sum "Si O2"
_cell_formula_units_Z 28
_cell_length_a 13.274601
_cell_length_b 19.323402
_cell_length_c 5.023098
_cell_angle_alpha 90.000000
_cell_angle_beta 90.000000
_cell_angle_gamma 90.000000
_cell_volume 1288.477136
_symmetry_space_group_name_H-M "C 2 2 21"
_symmetry_group_IT_number 20
_symmetry_cell_setting 'orthorhombic'
loop_
_space_group_symop_operation_xyz
x,y,z
-x,-y,1/2+z
x,-y,-z
-x,y,1/2-z
1/2+x,1/2+y,z
1/2-x,1/2-y,1/2+z
1/2+x,1/2-y,-z
1/2-x,1/2+y,1/2-z
loop_
_atom_site_type_symbol
_atom_site_label
_atom_site_fract_x
_atom_site_fract_y
_atom_site_fract_z
Si Si1 0.202392 0.865848 0.087632
Si Si2 0.895004 0.195053 0.120579
Si Si3 0.572686 0.500000 0.000000
Si Si4 0.433130 0.854695 0.004211
O O1 0.158046 0.846162 0.378681
O O2 0.177920 0.804513 0.876700
O O3 0.142661 0.932832 0.988001
O O4 0.320248 0.880653 0.055475
O O5 0.000000 0.167389 0.250000
O O6 0.920902 0.271017 0.013515
O O7 0.500000 0.506279 0.750000
O O8 0.500000 0.873451 0.750000
O O9 0.500000 0.876784 0.250000
#
# Coordination Sequence:
#
# PCOD9321322 Si02
#       4
#     8   8   4   8
#     4  12  23  40  61  88 122 162 198 245 301 354
#     4  11  21  37  63  92 122 154 196 249 306 359
#     4  12  26  42  62  88 118 152 198 246 294 358
#     4  11  23  39  60  90 122 156 200 247 296 359
#
# _framework density 21.731079999999999
#
# number of rings (size 3 to 8) (size 9 to 14) (size 15 to 20)
#    0.000    0.571    0.000   12.000    0.000    0.000 
#    0.000    1.429    0.000    0.000    0.000    0.000 
#    0.000    0.000    0.000    0.000    0.000    0.000 
#
# Total GULP energy -78259.269788 kJ/mol
# GULP energy per Si atom -5589.947842 kJ/mol
# Density = 2.168162 g / cm^3
# Si number density = 21.731080 Si / 1000 Ang^3
#
#
#
# Elastic Constant Matrix: (Units=GPa)
#
#
# Indices 1 2 3 4 5 6 
#
# 1 206.4204 17.2735 63.2235 0.0000 0.0000 0.0000
# 2 17.2735 34.1039 -8.4481 0.0000 0.0000 0.0000
# 3 63.2235 -8.4481 154.6662 0.0000 0.0000 0.0000
# 4 0.0000 0.0000 0.0000 14.1487 0.0000 0.0000
# 5 0.0000 0.0000 0.0000 0.0000 40.1710 0.0000
# 6 0.0000 0.0000 0.0000 0.0000 0.0000 29.2630
#
#
#
# Elastic Compliance Matrix: (Units=1/GPa)
#
#
# Indices 1 2 3 4 5 6 
#
# 1 0.005959 -0.003671 -0.002637 0.000000 0.000000 0.000000
# 2 -0.003671 0.031986 0.003248 0.000000 0.000000 0.000000
# 3 -0.002637 0.003248 0.007721 0.000000 0.000000 0.000000
# 4 0.000000 0.000000 0.000000 0.070678 0.000000 0.000000
# 5 0.000000 0.000000 0.000000 0.000000 0.024894 0.000000
# 6 0.000000 0.000000 0.000000 0.000000 0.000000 0.034173
#
#
# Mechanical properties :
#
#
# Convention : Reuss Voigt Hill
#
# Bulk Modulus (GPa) = 25.28689 59.92093 42.60391
# Shear Modulus (GPa) = 25.67885 38.25931 31.96908
#
# Velocity S-wave (km/s) = 3.44126 4.20048 3.83968
# Velocity P-wave (km/s) = 5.23940 7.15256 6.26938
#
# Compressibility (1/GPa) = 0.03954618
#
# Stress axis : x y z
#
# Youngs Moduli (GPa) = 167.80662 31.26335 129.52221
#
# Poissons Ratio (x) = 0.11478 0.34149
# Poissons Ratio (y) = 0.61609 -0.42068
# Poissons Ratio (z) = 0.44243 -0.10154
#
# Static dielectric constant tensor:
#      x y z
#    x 1.745430 0.000000 0.000000 
#    y 0.000000 1.782290 0.000000 
#    z 0.000000 0.000000 1.752740 
# 
# From -- ./inp_files/959.got.cif
#   From: 2010.05.17/outbox.cif.g08.bks.cpg/sg20_1_cif.got.tgz:959.got - 2010.06.03 22:52:26.
