data_PCOD9321422
_publ_section_title
;
Structure prediction by ZEFSAII (Michael W. Deem and Ramdas Pophale) SiO2 
 PCOD9321422
Probable space group: C 2 2 21
;
_chemical_formula_sum "Si O2"
_cell_formula_units_Z 40
_cell_length_a 17.176100
_cell_length_b 12.696781
_cell_length_c 7.833955
_cell_angle_alpha 90.000000
_cell_angle_beta 90.000000
_cell_angle_gamma 90.000000
_cell_volume 1708.438152
_symmetry_space_group_name_H-M "C 2 2 21"
_symmetry_group_IT_number 20
_symmetry_cell_setting 'orthorhombic'
loop_
_space_group_symop_operation_xyz
x,y,z
-x,-y,1/2+z
x,-y,-z
-x,y,1/2-z
1/2+x,1/2+y,z
1/2-x,1/2-y,1/2+z
1/2+x,1/2-y,-z
1/2-x,1/2+y,1/2-z
loop_
_atom_site_type_symbol
_atom_site_label
_atom_site_fract_x
_atom_site_fract_y
_atom_site_fract_z
Si Si1 0.568806 0.598763 0.123116
Si Si2 0.253439 0.866022 0.329269
Si Si3 0.850409 0.556312 0.165368
Si Si4 0.088304 0.228192 0.804258
Si Si5 0.284927 0.350138 0.778325
O O1 0.500000 0.622516 0.250000
O O2 0.641831 0.577412 0.245256
O O3 0.553630 0.500000 0.000000
O O4 0.588781 0.696784 0.001951
O O5 0.303932 0.967667 0.273617
O O6 0.162979 0.837026 0.272597
O O7 0.301989 0.771687 0.244485
O O8 0.249694 0.863462 0.534060
O O9 0.900787 0.647525 0.257259
O O10 0.773670 0.625171 0.121422
O O11 0.886047 0.500000 0.000000
O O12 0.000000 0.196861 0.750000
#
# Coordination Sequence:
#
# PCOD9321422 Si02
#       5
#     8   8   8   8   8
#     4  12  26  44  68 100 140 188 241 302 365 429
#     4  11  22  41  68 100 138 185 235 293 362 429
#     4  11  23  42  69 103 143 187 236 298 363 430
#     4  11  24  46  72 104 143 187 242 300 360 434
#     4  11  22  39  66  97 132 183 240 293 349 432
#
# _framework density 23.413198999999999
#
# number of rings (size 3 to 8) (size 9 to 14) (size 15 to 20)
#    0.000    0.800    0.000   10.200    0.000    1.600 
#    0.000    7.000    0.000    0.000    0.000    0.000 
#    0.000    0.000    0.000    0.000    0.000    0.000 
#
# Total GULP energy -111416.477461 kJ/mol
# GULP energy per Si atom -5570.823873 kJ/mol
# Density = 2.335991 g / cm^3
# Si number density = 23.413199 Si / 1000 Ang^3
#
#
#
# Elastic Constant Matrix: (Units=GPa)
#
#
# Indices 1 2 3 4 5 6 
#
# 1 88.6467 8.6400 23.8313 0.0000 0.0000 0.0000
# 2 8.6400 168.9101 74.9864 0.0000 0.0000 0.0000
# 3 23.8313 74.9864 148.7620 0.0000 0.0000 0.0000
# 4 0.0000 0.0000 0.0000 44.6918 0.0000 0.0000
# 5 0.0000 0.0000 0.0000 0.0000 36.3017 0.0000
# 6 0.0000 0.0000 0.0000 0.0000 0.0000 23.9986
#
#
#
# Elastic Compliance Matrix: (Units=1/GPa)
#
#
# Indices 1 2 3 4 5 6 
#
# 1 0.011801 0.000304 -0.002043 0.000000 0.000000 0.000000
# 2 0.000304 0.007635 -0.003897 0.000000 0.000000 0.000000
# 3 -0.002043 -0.003897 0.009014 0.000000 0.000000 0.000000
# 4 0.000000 0.000000 0.000000 0.022375 0.000000 0.000000
# 5 0.000000 0.000000 0.000000 0.000000 0.027547 0.000000
# 6 0.000000 0.000000 0.000000 0.000000 0.000000 0.041669
#
#
# Mechanical properties :
#
#
# Convention : Reuss Voigt Hill
#
# Bulk Modulus (GPa) = 58.22320 69.02604 63.62462
# Shear Modulus (GPa) = 36.48572 40.92249 38.70411
#
# Velocity S-wave (km/s) = 3.95186 4.18525 4.07023
# Velocity P-wave (km/s) = 6.76348 7.27329 7.02301
#
# Compressibility (1/GPa) = 0.01717528
#
# Stress axis : x y z
#
# Youngs Moduli (GPa) = 84.74216 130.97763 110.93938
#
# Poissons Ratio (x) = -0.03976 0.22670
# Poissons Ratio (y) = -0.02572 0.43235
# Poissons Ratio (z) = 0.17316 0.51044
#
# Static dielectric constant tensor:
#      x y z
#    x 1.975850 0.000000 0.000000 
#    y 0.000000 2.058970 0.000000 
#    z 0.000000 0.000000 1.882250 
# 
# From -- ./inp_files/9115.got.cif
#   From: 2010.05.17/outbox.cif.g08.bks.cpg/sg20_5_cif.got.tgz:9115.got - 2010.06.03 22:52:26.
