data_PCOD9321451
_publ_section_title
;
Structure prediction by ZEFSAII (Michael W. Deem and Ramdas Pophale) SiO2 
 PCOD9321451
Probable space group: C 2 2 21
;
_chemical_formula_sum "Si O2"
_cell_formula_units_Z 56
_cell_length_a 30.959407
_cell_length_b 16.912532
_cell_length_c 5.167227
_cell_angle_alpha 90.000000
_cell_angle_beta 90.000000
_cell_angle_gamma 90.000000
_cell_volume 2705.570193
_symmetry_space_group_name_H-M "C 2 2 21"
_symmetry_group_IT_number 20
_symmetry_cell_setting 'orthorhombic'
loop_
_space_group_symop_operation_xyz
x,y,z
-x,-y,1/2+z
x,-y,-z
-x,y,1/2-z
1/2+x,1/2+y,z
1/2-x,1/2-y,1/2+z
1/2+x,1/2-y,-z
1/2-x,1/2+y,1/2-z
loop_
_atom_site_type_symbol
_atom_site_label
_atom_site_fract_x
_atom_site_fract_y
_atom_site_fract_z
Si Si1 0.246778 0.803678 0.110781
Si Si2 0.060492 0.500000 0.000000
Si Si3 0.609491 0.864764 0.865426
Si Si4 0.161843 0.912574 0.101251
Si Si5 0.044222 0.754788 0.371690
Si Si6 0.877303 0.844788 0.888808
Si Si7 0.000000 0.630074 0.750000
Si Si8 0.160290 0.671323 0.629101
O O1 0.243131 0.738870 0.338179
O O2 0.204275 0.857020 0.091682
O O3 0.290471 0.850258 0.182680
O O4 0.089305 0.549999 0.195653
O O5 0.031838 0.430062 0.110178
O O6 0.575202 0.792980 0.827926
O O7 0.646444 0.851651 0.657160
O O8 0.628552 0.862815 0.152911
O O9 0.142294 0.901254 0.388296
O O10 0.126336 0.882440 0.893619
O O11 0.173091 0.000000 0.000000
O O12 0.075471 0.814957 0.521677
O O13 0.026776 0.686149 0.560693
O O14 0.000000 0.788738 0.250000
O O15 0.847723 0.765966 0.867108
#
# Coordination Sequence:
#
# PCOD9321451 Si02
#       8
#     8   4   8   8   8   8   4   8
#     4  12  22  42  72 101 132 174 224 279 327 396
#     4  12  22  40  58  86 138 188 216 268 342 396
#     4  11  24  39  59  89 133 182 219 275 316 401
#     4  12  25  45  69 105 137 175 218 277 348 411
#     4  11  24  41  65 100 125 169 234 289 329 385
#     4  11  23  41  72  96 133 171 219 280 331 395
#     4  12  24  40  62  94 132 174 236 280 336 394
#     4  11  22  41  66  93 129 169 236 266 321 371
#
# _framework density 20.698039000000001
#
# number of rings (size 3 to 8) (size 9 to 14) (size 15 to 20)
#    0.000    0.571    4.286    5.571    2.000    1.714 
#    2.571    0.000    0.000    1.714    0.000    0.000 
#    0.000    0.000    0.000    0.000    0.000    0.000 
#
# Total GULP energy -156474.068984 kJ/mol
# GULP energy per Si atom -5588.359607 kJ/mol
# Density = 2.065093 g / cm^3
# Si number density = 20.698039 Si / 1000 Ang^3
#
#
#
# Elastic Constant Matrix: (Units=GPa)
#
#
# Indices 1 2 3 4 5 6 
#
# 1 117.9061 14.3305 3.7486 0.0000 0.0000 0.0000
# 2 14.3305 65.4372 14.0858 0.0000 0.0000 0.0000
# 3 3.7486 14.0858 59.0920 0.0000 0.0000 0.0000
# 4 0.0000 0.0000 0.0000 19.2680 0.0000 0.0000
# 5 0.0000 0.0000 0.0000 0.0000 29.5046 0.0000
# 6 0.0000 0.0000 0.0000 0.0000 0.0000 21.8304
#
#
#
# Elastic Compliance Matrix: (Units=1/GPa)
#
#
# Indices 1 2 3 4 5 6 
#
# 1 0.008714 -0.001886 -0.000103 0.000000 0.000000 0.000000
# 2 -0.001886 0.016517 -0.003817 0.000000 0.000000 0.000000
# 3 -0.000103 -0.003817 0.017839 0.000000 0.000000 0.000000
# 4 0.000000 0.000000 0.000000 0.051900 0.000000 0.000000
# 5 0.000000 0.000000 0.000000 0.000000 0.033893 0.000000
# 6 0.000000 0.000000 0.000000 0.000000 0.000000 0.045808
#
#
# Mechanical properties :
#
#
# Convention : Reuss Voigt Hill
#
# Bulk Modulus (GPa) = 31.79012 34.08501 32.93756
# Shear Modulus (GPa) = 25.41052 28.13862 26.77457
#
# Velocity S-wave (km/s) = 3.50762 3.69112 3.60054
# Velocity P-wave (km/s) = 5.63888 5.88806 5.76482
#
# Compressibility (1/GPa) = 0.03145632
#
# Stress axis : x y z
#
# Youngs Moduli (GPa) = 114.75998 60.54521 56.05612
#
# Poissons Ratio (x) = 0.11419 0.00578
# Poissons Ratio (y) = 0.21645 0.21399
# Poissons Ratio (z) = 0.01184 0.23113
#
# Static dielectric constant tensor:
#      x y z
#    x 1.790240 0.000000 0.000000 
#    y 0.000000 1.723290 0.000000 
#    z 0.000000 0.000000 1.957450 
# 
# From -- ./inp_files/4714.got.cif
#   From: 2010.05.17/outbox.cif.g08.bks.cpg/sg20_3_cif.got.tgz:4714.got - 2010.06.03 22:52:26.
