data_PCOD9321037
_publ_section_title
;
Structure prediction by ZEFSAII (Michael W. Deem and Ramdas Pophale) SiO2 
 PCOD9321037
Probable space group: C 2 2 21
;
_chemical_formula_sum "Si O2"
_cell_formula_units_Z 40
_cell_length_a 28.128552
_cell_length_b 6.050239
_cell_length_c 10.440487
_cell_angle_alpha 90.000000
_cell_angle_beta 90.000000
_cell_angle_gamma 90.000000
_cell_volume 1776.808666
_symmetry_space_group_name_H-M "C 2 2 21"
_symmetry_group_IT_number 20
_symmetry_cell_setting 'orthorhombic'
loop_
_space_group_symop_operation_xyz
x,y,z
-x,-y,1/2+z
x,-y,-z
-x,y,1/2-z
1/2+x,1/2+y,z
1/2-x,1/2-y,1/2+z
1/2+x,1/2-y,-z
1/2-x,1/2+y,1/2-z
loop_
_atom_site_type_symbol
_atom_site_label
_atom_site_fract_x
_atom_site_fract_y
_atom_site_fract_z
Si Si1 0.458758 0.000000 0.500000
Si Si2 0.589224 0.500000 0.000000
Si Si3 0.337858 0.500000 0.000000
Si Si4 0.767929 0.655682 0.123951
Si Si5 0.396224 0.669441 0.238374
Si Si6 0.000000 0.661344 0.750000
Si Si7 0.679935 0.068913 0.853538
O O1 0.434771 0.250136 0.498891
O O2 0.489665 0.012249 0.627668
O O3 0.613564 0.508074 0.140140
O O4 0.301778 0.646225 0.918130
O O5 0.371404 0.386443 0.894741
O O6 0.712862 0.713465 0.141403
O O7 0.788490 0.578812 0.259625
O O8 0.772000 0.500000 0.000000
O O9 0.452684 0.695307 0.224615
O O10 0.370612 0.893627 0.287046
O O11 0.674144 0.000000 0.000000
#
# Coordination Sequence:
#
# PCOD9321037 Si02
#       7
#     4   4   4   8   8   4   8
#     4  10  24  48  75 104 151 204 258 318 384 440
#     4  10  26  47  74 112 151 198 261 319 378 452
#     4  12  26  49  75 108 146 200 249 315 384 458
#     4  12  25  50  71 112 150 189 252 311 390 459
#     4  11  27  46  74 113 146 204 253 313 384 454
#     4  10  26  48  74 110 152 198 256 310 378 446
#     4  12  26  44  78 106 150 197 247 314 387 463
#
# _framework density 22.512271999999999
#
# number of rings (size 3 to 8) (size 9 to 14) (size 15 to 20)
#    0.000    0.800    3.000    2.400    9.800    9.600 
#    0.000    0.000    0.000    0.000    0.000    0.000 
#    0.000    0.000    0.000    0.000    0.000    0.000 
#
# Total GULP energy -111524.131294 kJ/mol
# GULP energy per Si atom -5576.206565 kJ/mol
# Density = 2.246103 g / cm^3
# Si number density = 22.512272 Si / 1000 Ang^3
#
#
#
# Elastic Constant Matrix: (Units=GPa)
#
#
# Indices 1 2 3 4 5 6 
#
# 1 144.5297 35.4353 32.7793 0.0000 0.0000 0.0000
# 2 35.4353 71.1133 44.1552 0.0000 0.0000 0.0000
# 3 32.7793 44.1552 174.0249 0.0000 0.0000 0.0000
# 4 0.0000 0.0000 0.0000 47.8370 0.0000 0.0000
# 5 0.0000 0.0000 0.0000 0.0000 55.4470 0.0000
# 6 0.0000 0.0000 0.0000 0.0000 0.0000 12.4901
#
#
#
# Elastic Compliance Matrix: (Units=1/GPa)
#
#
# Indices 1 2 3 4 5 6 
#
# 1 0.007931 -0.003590 -0.000583 0.000000 0.000000 0.000000
# 2 -0.003590 0.018317 -0.003971 0.000000 0.000000 0.000000
# 3 -0.000583 -0.003971 0.006864 0.000000 0.000000 0.000000
# 4 0.000000 0.000000 0.000000 0.020904 0.000000 0.000000
# 5 0.000000 0.000000 0.000000 0.000000 0.018035 0.000000
# 6 0.000000 0.000000 0.000000 0.000000 0.000000 0.080064
#
#
# Mechanical properties :
#
#
# Convention : Reuss Voigt Hill
#
# Bulk Modulus (GPa) = 59.44215 68.26749 63.85482
# Shear Modulus (GPa) = 28.73367 41.64136 35.18751
#
# Velocity S-wave (km/s) = 3.57649 4.30550 3.95782
# Velocity P-wave (km/s) = 6.59672 7.42340 7.02223
#
# Compressibility (1/GPa) = 0.01682308
#
# Stress axis : x y z
#
# Youngs Moduli (GPa) = 126.08028 54.59455 145.69286
#
# Poissons Ratio (x) = 0.19600 0.08494
# Poissons Ratio (y) = 0.45265 0.57859
# Poissons Ratio (z) = 0.07351 0.21681
#
# Static dielectric constant tensor:
#      x y z
#    x 1.831310 0.000000 0.000000 
#    y 0.000000 1.893740 0.000000 
#    z 0.000000 0.000000 1.709900 
# 
# From -- ./inp_files/16934.got.cif
#   From: 2010.05.17/outbox.cif.g08.bks.cpg/sg20_9_cif.got.tgz:16934.got - 2010.06.03 22:52:26.
