data_PCOD9321164
_publ_section_title
;
Structure prediction by ZEFSAII (Michael W. Deem and Ramdas Pophale) SiO2 
 PCOD9321164
Probable space group: C 2 2 21
;
_chemical_formula_sum "Si O2"
_cell_formula_units_Z 40
_cell_length_a 17.338312
_cell_length_b 17.833116
_cell_length_c 5.458048
_cell_angle_alpha 90.000000
_cell_angle_beta 90.000000
_cell_angle_gamma 90.000000
_cell_volume 1687.607314
_symmetry_space_group_name_H-M "C 2 2 21"
_symmetry_group_IT_number 20
_symmetry_cell_setting 'orthorhombic'
loop_
_space_group_symop_operation_xyz
x,y,z
-x,-y,1/2+z
x,-y,-z
-x,y,1/2-z
1/2+x,1/2+y,z
1/2-x,1/2-y,1/2+z
1/2+x,1/2-y,-z
1/2-x,1/2+y,1/2-z
loop_
_atom_site_type_symbol
_atom_site_label
_atom_site_fract_x
_atom_site_fract_y
_atom_site_fract_z
Si Si1 0.425414 0.500000 0.000000
Si Si2 0.047424 0.500000 0.000000
Si Si3 0.285749 0.865919 0.026570
Si Si4 0.176899 0.000000 0.000000
Si Si5 0.149607 0.767602 0.856833
Si Si6 0.500000 0.631769 0.250000
Si Si7 0.412598 0.854122 0.674222
O O1 0.375634 0.509146 0.253003
O O2 0.478361 0.574840 0.026564
O O3 0.088371 0.580522 0.969766
O O4 0.000000 0.509478 0.250000
O O5 0.220719 0.823586 0.866406
O O6 0.360095 0.891498 0.879040
O O7 0.235225 0.936379 0.102911
O O8 0.319660 0.801885 0.199568
O O9 0.073870 0.813863 0.780290
O O10 0.125632 0.724921 0.105729
O O11 0.500000 0.837734 0.750000
#
# Coordination Sequence:
#
# PCOD9321164 Si02
#       7
#     4   4   8   4   8   4   8
#     4  12  29  57  82 132 156 228 278 349 421 498
#     4  10  26  46  74 110 148 196 264 324 382 474
#     4  12  28  48  76 121 158 219 267 336 421 490
#     4  12  31  53  90 116 178 216 280 343 423 512
#     4  12  27  49  77 116 161 211 271 348 408 502
#     4  12  28  52  88 118 168 214 288 350 418 504
#     4  11  27  48  76 109 153 213 269 332 407 486
#
# _framework density 23.702196000000001
#
# number of rings (size 3 to 8) (size 9 to 14) (size 15 to 20)
#    0.000    0.400    4.000    1.800   15.400    2.400 
#    3.600    0.000    0.000    0.000    0.000    0.000 
#    0.000    0.000    0.000    0.000    0.000    0.000 
#
# Total GULP energy -111485.218445 kJ/mol
# GULP energy per Si atom -5574.260922 kJ/mol
# Density = 2.364825 g / cm^3
# Si number density = 23.702196 Si / 1000 Ang^3
#
#
#
# Elastic Constant Matrix: (Units=GPa)
#
#
# Indices 1 2 3 4 5 6 
#
# 1 174.7181 27.2678 36.8543 0.0000 0.0000 0.0000
# 2 27.2678 74.0456 -11.2248 0.0000 0.0000 0.0000
# 3 36.8543 -11.2248 65.4631 0.0000 0.0000 0.0000
# 4 0.0000 0.0000 0.0000 40.8329 0.0000 0.0000
# 5 0.0000 0.0000 0.0000 0.0000 -10.5381 0.0000
# 6 0.0000 0.0000 0.0000 0.0000 0.0000 66.4096
#
#
#
# Elastic Compliance Matrix: (Units=1/GPa)
#
#
# Indices 1 2 3 4 5 6 
#
# 1 0.007229 -0.003367 -0.004647 0.000000 0.000000 0.000000
# 2 -0.003367 0.015433 0.004542 0.000000 0.000000 0.000000
# 3 -0.004647 0.004542 0.018671 0.000000 0.000000 0.000000
# 4 0.000000 0.000000 0.000000 0.024490 0.000000 0.000000
# 5 0.000000 0.000000 0.000000 0.000000 -0.094893 0.000000
# 6 0.000000 0.000000 0.000000 0.000000 0.000000 0.015058
#
#
# Mechanical properties :
#
#
# Convention : Reuss Voigt Hill
#
# Bulk Modulus (GPa) = 29.07885 46.66904 37.87394
# Shear Modulus (GPa) = 1137.51895 36.76285 587.14090
#
# Velocity S-wave (km/s) = 21.93087 3.94259 15.75607
# Velocity P-wave (km/s) = 25.56520 6.36065 18.62843
#
# Compressibility (1/GPa) = 0.03438925
#
# Stress axis : x y z
#
# Youngs Moduli (GPa) = 138.32819 64.79412 53.55960
#
# Poissons Ratio (x) = 0.21814 0.24890
# Poissons Ratio (y) = 0.46571 -0.24325
# Poissons Ratio (z) = 0.64283 -0.29428
#
# Static dielectric constant tensor:
#      x y z
#    x 1.743030 0.000000 0.000000 
#    y 0.000000 2.588300 0.000000 
#    z 0.000000 0.000000 1.965800 
# 
# From -- ./inp_files/2563.got.cif
#   From: 2010.05.17/outbox.cif.g08.bks.cpg/sg20_2_cif.got.tgz:2563.got - 2010.06.03 22:52:26.
