data_PCOD9321219
_publ_section_title
;
Structure prediction by ZEFSAII (Michael W. Deem and Ramdas Pophale) SiO2 
 PCOD9321219
Probable space group: C 2 2 21
;
_chemical_formula_sum "Si O2"
_cell_formula_units_Z 60
_cell_length_a 9.059479
_cell_length_b 25.582307
_cell_length_c 11.314940
_cell_angle_alpha 90.000000
_cell_angle_beta 90.000000
_cell_angle_gamma 90.000000
_cell_volume 2622.377345
_symmetry_space_group_name_H-M "C 2 2 21"
_symmetry_group_IT_number 20
_symmetry_cell_setting 'orthorhombic'
loop_
_space_group_symop_operation_xyz
x,y,z
-x,-y,1/2+z
x,-y,-z
-x,y,1/2-z
1/2+x,1/2+y,z
1/2-x,1/2-y,1/2+z
1/2+x,1/2-y,-z
1/2-x,1/2+y,1/2-z
loop_
_atom_site_type_symbol
_atom_site_label
_atom_site_fract_x
_atom_site_fract_y
_atom_site_fract_z
Si Si1 0.002229 0.389783 0.608801
Si Si2 0.760875 0.916587 0.066256
Si Si3 0.441829 0.772478 0.885227
Si Si4 0.523944 0.500000 0.500000
Si Si5 0.940398 0.824266 0.947868
Si Si6 0.823587 0.241771 0.242165
Si Si7 0.171503 0.360153 0.295852
Si Si8 0.815887 0.903113 0.539492
O O1 0.016183 0.329221 0.564060
O O2 0.160379 0.416932 0.596719
O O3 0.000000 0.384750 0.750000
O O4 0.873746 0.416862 0.530324
O O5 0.716709 0.900304 0.195484
O O6 0.859317 0.968192 0.078869
O O7 0.862398 0.868377 0.025156
O O8 0.500000 0.766799 0.750000
O O9 0.267021 0.769405 0.859963
O O10 0.482022 0.725740 0.972473
O O11 0.418462 0.454024 0.544643
O O12 0.814546 0.803435 0.856722
O O13 0.083819 0.856674 0.903381
O O14 0.776358 0.299854 0.205265
O O15 0.000000 0.242152 0.250000
O O16 0.251872 0.383294 0.412618
O O17 0.000000 0.354578 0.250000
#
# Coordination Sequence:
#
# PCOD9321219 Si02
#       8
#     8   8   8   4   8   8   8   8
#     4  11  24  43  69 100 142 180 230 285 361 435
#     4  11  24  48  69 102 138 188 236 307 352 421
#     4  11  22  36  59  97 138 185 224 267 334 419
#     4  10  28  50  72 102 132 174 246 296 378 418
#     4  11  23  37  66  99 147 186 229 285 340 418
#     4  11  23  37  61 102 142 188 226 267 342 416
#     4  11  22  43  73 104 143 182 239 294 353 430
#     4  11  24  47  71 101 137 183 239 302 358 424
#
# _framework density 22.880002999999999
#
# number of rings (size 3 to 8) (size 9 to 14) (size 15 to 20)
#    0.000    1.067    2.667    4.000    1.867    4.267 
#    4.800    1.333    0.000    0.000    0.000    0.000 
#    0.000    0.000    0.000    0.000    0.000    0.000 
#
# Total GULP energy -167099.864668 kJ/mol
# GULP energy per Si atom -5569.995489 kJ/mol
# Density = 2.282793 g / cm^3
# Si number density = 22.880003 Si / 1000 Ang^3
#
#
#
# Elastic Constant Matrix: (Units=GPa)
#
#
# Indices 1 2 3 4 5 6 
#
# 1 105.8463 47.0539 8.1253 0.0000 0.0000 0.0000
# 2 47.0539 120.9913 12.0357 0.0000 0.0000 0.0000
# 3 8.1253 12.0357 38.5454 0.0000 0.0000 0.0000
# 4 0.0000 0.0000 0.0000 -4.5135 0.0000 0.0000
# 5 0.0000 0.0000 0.0000 0.0000 23.9565 0.0000
# 6 0.0000 0.0000 0.0000 0.0000 0.0000 42.0097
#
#
#
# Elastic Compliance Matrix: (Units=1/GPa)
#
#
# Indices 1 2 3 4 5 6 
#
# 1 0.011464 -0.004353 -0.001057 0.000000 0.000000 0.000000
# 2 -0.004353 0.010183 -0.002262 0.000000 0.000000 0.000000
# 3 -0.001057 -0.002262 0.026873 0.000000 0.000000 0.000000
# 4 0.000000 0.000000 0.000000 -0.221560 0.000000 0.000000
# 5 0.000000 0.000000 0.000000 0.000000 0.041742 0.000000
# 6 0.000000 0.000000 0.000000 0.000000 0.000000 0.023804
#
#
# Mechanical properties :
#
#
# Convention : Reuss Voigt Hill
#
# Bulk Modulus (GPa) = 30.14348 44.42366 37.28357
# Shear Modulus (GPa) = -61.65965 25.50176 -18.07895
#
# Velocity S-wave (km/s) = -5.19689 3.34217 -2.81403
# Velocity P-wave (km/s) = 4.77567 5.86102 2.40255
#
# Compressibility (1/GPa) = 0.03317468
#
# Stress axis : x y z
#
# Youngs Moduli (GPa) = 87.22922 98.20240 37.21258
#
# Poissons Ratio (x) = 0.42750 0.03935
# Poissons Ratio (y) = 0.37973 0.08417
# Poissons Ratio (z) = 0.09223 0.22213
#
# Static dielectric constant tensor:
#      x y z
#    x 2.132530 0.000000 0.000000 
#    y 0.000000 1.852960 0.000000 
#    z 0.000000 0.000000 1.929010 
# 
# From -- ./inp_files/13300.got.cif
#   From: 2010.05.17/outbox.cif.g08.bks.cpg/sg20_7_cif.got.tgz:13300.got - 2010.06.03 22:52:26.
