data_PCOD9321021
_publ_section_title
;
Structure prediction by ZEFSAII (Michael W. Deem and Ramdas Pophale) SiO2 
 PCOD9321021
Probable space group: C 2 2 21
;
_chemical_formula_sum "Si O2"
_cell_formula_units_Z 36
_cell_length_a 7.259478
_cell_length_b 22.340807
_cell_length_c 9.250175
_cell_angle_alpha 90.000000
_cell_angle_beta 90.000000
_cell_angle_gamma 90.000000
_cell_volume 1500.217403
_symmetry_space_group_name_H-M "C 2 2 21"
_symmetry_group_IT_number 20
_symmetry_cell_setting 'orthorhombic'
loop_
_space_group_symop_operation_xyz
x,y,z
-x,-y,1/2+z
x,-y,-z
-x,y,1/2-z
1/2+x,1/2+y,z
1/2-x,1/2-y,1/2+z
1/2+x,1/2-y,-z
1/2-x,1/2+y,1/2-z
loop_
_atom_site_type_symbol
_atom_site_label
_atom_site_fract_x
_atom_site_fract_y
_atom_site_fract_z
Si Si1 0.444197 0.000000 0.500000
Si Si2 0.026958 0.831698 0.538403
Si Si3 0.902762 0.715418 0.395016
Si Si4 0.307720 0.581546 0.798736
Si Si5 0.172201 0.608556 0.479836
O O1 0.317820 0.962488 0.391287
O O2 0.578318 0.951922 0.574460
O O3 0.909666 0.772798 0.497583
O O4 0.802468 0.808444 0.868597
O O5 0.872379 0.878520 0.587714
O O6 0.128183 0.863035 0.400480
O O7 0.000000 0.736230 0.250000
O O8 0.028282 0.661480 0.452786
O O9 0.500000 0.551708 0.750000
O O10 0.208143 0.602551 0.652283
#
# Coordination Sequence:
#
# PCOD9321021 Si02
#       5
#     4   8   8   8   8
#     4  12  24  44  76 110 142 194 260 310 358 444
#     4  11  24  47  75 110 148 196 243 298 379 447
#     4  12  25  44  75 112 150 188 248 307 373 450
#     4  10  24  47  77 107 145 196 249 297 377 447
#     4  11  25  47  73 104 145 199 240 307 370 435
#
# _framework density 23.996523
#
# number of rings (size 3 to 8) (size 9 to 14) (size 15 to 20)
#    0.000    0.889    4.444    2.667    0.000    6.222 
#    0.000    0.000    0.000    0.000    0.000    0.000 
#    0.000    0.000    0.000    0.000    0.000    0.000 
#
# Total GULP energy -100767.443563 kJ/mol
# GULP energy per Si atom -5598.191309 kJ/mol
# Density = 2.394191 g / cm^3
# Si number density = 23.996523 Si / 1000 Ang^3
#
#
#
# Elastic Constant Matrix: (Units=GPa)
#
#
# Indices 1 2 3 4 5 6 
#
# 1 163.7719 43.6643 8.9549 0.0000 0.0000 0.0000
# 2 43.6643 110.8073 3.7251 0.0000 0.0000 0.0000
# 3 8.9549 3.7251 39.9262 0.0000 0.0000 0.0000
# 4 0.0000 0.0000 0.0000 30.2803 0.0000 0.0000
# 5 0.0000 0.0000 0.0000 0.0000 34.3321 0.0000
# 6 0.0000 0.0000 0.0000 0.0000 0.0000 46.7992
#
#
#
# Elastic Compliance Matrix: (Units=1/GPa)
#
#
# Indices 1 2 3 4 5 6 
#
# 1 0.006889 -0.002671 -0.001296 0.000000 0.000000 0.000000
# 2 -0.002671 0.010089 -0.000342 0.000000 0.000000 0.000000
# 3 -0.001296 -0.000342 0.025369 0.000000 0.000000 0.000000
# 4 0.000000 0.000000 0.000000 0.033025 0.000000 0.000000
# 5 0.000000 0.000000 0.000000 0.000000 0.029127 0.000000
# 6 0.000000 0.000000 0.000000 0.000000 0.000000 0.021368
#
#
# Mechanical properties :
#
#
# Convention : Reuss Voigt Hill
#
# Bulk Modulus (GPa) = 29.64878 47.46599 38.55738
# Shear Modulus (GPa) = 34.31059 39.49308 36.90183
#
# Velocity S-wave (km/s) = 3.78539 4.06123 3.92573
# Velocity P-wave (km/s) = 5.61140 6.46643 6.05403
#
# Compressibility (1/GPa) = 0.03372821
#
# Stress axis : x y z
#
# Youngs Moduli (GPa) = 145.15737 99.12033 39.41853
#
# Poissons Ratio (x) = 0.26476 0.05108
# Poissons Ratio (y) = 0.38773 0.01349
# Poissons Ratio (z) = 0.18811 0.03392
#
# Static dielectric constant tensor:
#      x y z
#    x 1.922310 0.000000 0.000000 
#    y 0.000000 1.888690 0.000000 
#    z 0.000000 0.000000 1.954640 
# 
# From -- ./inp_files/5929.got.cif
#   From: 2010.05.17/outbox.cif.g08.bks.cpg/sg20_3_cif.got.tgz:5929.got - 2010.06.03 22:52:26.
