data_PCOD9321388
_publ_section_title
;
Structure prediction by ZEFSAII (Michael W. Deem and Ramdas Pophale) SiO2 
 PCOD9321388
Probable space group: C 2 2 21
;
_chemical_formula_sum "Si O2"
_cell_formula_units_Z 48
_cell_length_a 16.295576
_cell_length_b 9.527122
_cell_length_c 14.460580
_cell_angle_alpha 90.000000
_cell_angle_beta 90.000000
_cell_angle_gamma 90.000000
_cell_volume 2245.004186
_symmetry_space_group_name_H-M "C 2 2 21"
_symmetry_group_IT_number 20
_symmetry_cell_setting 'orthorhombic'
loop_
_space_group_symop_operation_xyz
x,y,z
-x,-y,1/2+z
x,-y,-z
-x,y,1/2-z
1/2+x,1/2+y,z
1/2-x,1/2-y,1/2+z
1/2+x,1/2-y,-z
1/2-x,1/2+y,1/2-z
loop_
_atom_site_type_symbol
_atom_site_label
_atom_site_fract_x
_atom_site_fract_y
_atom_site_fract_z
Si Si1 0.509688 0.789219 0.647428
Si Si2 0.257176 0.704486 0.121061
Si Si3 0.840402 0.186150 0.312172
Si Si4 0.316883 0.852049 0.944033
Si Si5 0.112369 0.925965 0.096988
Si Si6 0.120832 0.516707 0.890867
O O1 0.500000 0.728148 0.750000
O O2 0.599231 0.824020 0.610720
O O3 0.465187 0.674549 0.583586
O O4 0.453296 0.927881 0.651145
O O5 0.318846 0.714894 0.206135
O O6 0.186573 0.823847 0.126729
O O7 0.207612 0.558886 0.130203
O O8 0.298492 0.733793 0.021922
O O9 0.756399 0.152157 0.369127
O O10 0.877687 0.324698 0.357890
O O11 0.895797 0.049963 0.329179
O O12 0.321673 0.000000 0.000000
O O13 0.131637 0.000000 0.000000
O O14 0.110262 0.500000 0.000000
#
# Coordination Sequence:
#
# PCOD9321388 Si02
#       6
#     8   8   8   8   8   8
#     4  11  27  46  67  96 139 182 223 281 345 404
#     4  11  22  38  71 103 128 173 228 281 326 403
#     4  12  22  41  74  99 132 173 230 278 336 406
#     4  12  23  44  70 104 134 180 234 286 330 405
#     4  11  21  47  68  92 136 180 217 272 351 399
#     4  11  22  43  67  97 133 176 219 271 348 405
#
# _framework density 21.380806
#
# number of rings (size 3 to 8) (size 9 to 14) (size 15 to 20)
#    0.000    0.667    5.000    4.500    2.333    0.000 
#    6.000    0.833    0.000    0.000    0.000    0.000 
#    0.000    0.000    0.000    0.000    0.000    0.000 
#
# Total GULP energy -134232.506662 kJ/mol
# GULP energy per Si atom -5593.021111 kJ/mol
# Density = 2.133214 g / cm^3
# Si number density = 21.380806 Si / 1000 Ang^3
#
#
#
# Elastic Constant Matrix: (Units=GPa)
#
#
# Indices 1 2 3 4 5 6 
#
# 1 79.9288 31.5424 -0.5769 0.0000 0.0000 0.0000
# 2 31.5424 99.9275 -10.1439 0.0000 0.0000 0.0000
# 3 -0.5769 -10.1439 64.2064 0.0000 0.0000 0.0000
# 4 0.0000 0.0000 0.0000 19.4727 0.0000 0.0000
# 5 0.0000 0.0000 0.0000 0.0000 1.6632 0.0000
# 6 0.0000 0.0000 0.0000 0.0000 0.0000 18.4049
#
#
#
# Elastic Compliance Matrix: (Units=1/GPa)
#
#
# Indices 1 2 3 4 5 6 
#
# 1 0.014314 -0.004579 -0.000595 0.000000 0.000000 0.000000
# 2 -0.004579 0.011635 0.001797 0.000000 0.000000 0.000000
# 3 -0.000595 0.001797 0.015853 0.000000 0.000000 0.000000
# 4 0.000000 0.000000 0.000000 0.051354 0.000000 0.000000
# 5 0.000000 0.000000 0.000000 0.000000 0.601264 0.000000
# 6 0.000000 0.000000 0.000000 0.000000 0.000000 0.054333
#
#
# Mechanical properties :
#
#
# Convention : Reuss Voigt Hill
#
# Bulk Modulus (GPa) = 28.53111 31.74510 30.13811
# Shear Modulus (GPa) = 6.51730 22.79090 14.65410
#
# Velocity S-wave (km/s) = 1.74780 3.26843 2.62083
# Velocity P-wave (km/s) = 4.17688 5.39660 4.82543
#
# Compressibility (1/GPa) = 0.03504946
#
# Stress axis : x y z
#
# Youngs Moduli (GPa) = 69.86322 85.94827 63.07821
#
# Poissons Ratio (x) = 0.39352 0.03752
# Poissons Ratio (y) = 0.31987 -0.11335
# Poissons Ratio (z) = 0.04155 -0.15445
#
# Static dielectric constant tensor:
#      x y z
#    x 1.916470 0.000000 0.000000 
#    y 0.000000 1.807030 0.000000 
#    z 0.000000 0.000000 1.534220 
# 
# From -- ./inp_files/18862.got.cif
#   From: 2010.05.17/outbox.cif.g08.bks.cpg/sg20_10_cif.got.tgz:18862.got - 2010.06.03 22:52:26.
