data_PCOD9321251
_publ_section_title
;
Structure prediction by ZEFSAII (Michael W. Deem and Ramdas Pophale) SiO2 
 PCOD9321251
Probable space group: C 2 2 21
;
_chemical_formula_sum "Si O2"
_cell_formula_units_Z 48
_cell_length_a 20.779228
_cell_length_b 9.312283
_cell_length_c 13.198541
_cell_angle_alpha 90.000000
_cell_angle_beta 90.000000
_cell_angle_gamma 90.000000
_cell_volume 2553.944762
_symmetry_space_group_name_H-M "C 2 2 21"
_symmetry_group_IT_number 20
_symmetry_cell_setting 'orthorhombic'
loop_
_space_group_symop_operation_xyz
x,y,z
-x,-y,1/2+z
x,-y,-z
-x,y,1/2-z
1/2+x,1/2+y,z
1/2-x,1/2-y,1/2+z
1/2+x,1/2-y,-z
1/2-x,1/2+y,1/2-z
loop_
_atom_site_type_symbol
_atom_site_label
_atom_site_fract_x
_atom_site_fract_y
_atom_site_fract_z
Si Si1 0.423880 0.824044 0.744671
Si Si2 0.256303 0.718754 0.093342
Si Si3 0.796777 0.180875 0.314639
Si Si4 0.334350 0.856528 0.931376
Si Si5 0.135390 0.921630 0.103203
Si Si6 0.153222 0.526502 0.892473
O O1 0.500000 0.835903 0.750000
O O2 0.391634 0.812062 0.856021
O O3 0.405150 0.695069 0.666542
O O4 0.390789 0.964859 0.695968
O O5 0.285783 0.742359 0.203479
O O6 0.201433 0.838651 0.073609
O O7 0.217843 0.569845 0.101555
O O8 0.311001 0.734109 0.009563
O O9 0.728314 0.128582 0.358805
O O10 0.826312 0.310814 0.378636
O O11 0.844486 0.047504 0.320276
O O12 0.345189 0.000000 0.000000
O O13 0.110681 0.000000 0.000000
O O14 0.119296 0.500000 0.000000
#
# Coordination Sequence:
#
# PCOD9321251 Si02
#       6
#     8   8   8   8   8   8
#     4  11  27  46  61  85 132 187 227 259 319 401
#     4  11  20  32  57  97 131 156 200 264 340 395
#     4  12  19  34  61 102 130 152 205 275 350 380
#     4  12  21  38  66  96 131 167 214 272 335 397
#     4  11  20  39  65  90 125 166 210 270 336 392
#     4  11  21  34  61  95 125 160 208 269 332 394
#
# _framework density 18.794454999999999
#
# number of rings (size 3 to 8) (size 9 to 14) (size 15 to 20)
#    0.000    0.667    8.333    3.000    0.000    0.667 
#    0.000    2.500    0.000    0.000    0.000    0.000 
#    0.000    0.000    0.000    0.000    0.000    0.000 
#
# Total GULP energy -133950.840850 kJ/mol
# GULP energy per Si atom -5581.285035 kJ/mol
# Density = 1.875168 g / cm^3
# Si number density = 18.794455 Si / 1000 Ang^3
#
#
#
# Elastic Constant Matrix: (Units=GPa)
#
#
# Indices 1 2 3 4 5 6 
#
# 1 103.6931 36.8130 51.4847 0.0000 0.0000 0.0000
# 2 36.8130 92.8612 14.5588 0.0000 0.0000 0.0000
# 3 51.4847 14.5588 129.6561 0.0000 0.0000 0.0000
# 4 0.0000 0.0000 0.0000 40.0891 0.0000 0.0000
# 5 0.0000 0.0000 0.0000 0.0000 18.4930 0.0000
# 6 0.0000 0.0000 0.0000 0.0000 0.0000 7.4921
#
#
#
# Elastic Compliance Matrix: (Units=1/GPa)
#
#
# Indices 1 2 3 4 5 6 
#
# 1 0.013756 -0.004679 -0.004937 0.000000 0.000000 0.000000
# 2 -0.004679 0.012554 0.000449 0.000000 0.000000 0.000000
# 3 -0.004937 0.000449 0.009623 0.000000 0.000000 0.000000
# 4 0.000000 0.000000 0.000000 0.024944 0.000000 0.000000
# 5 0.000000 0.000000 0.000000 0.000000 0.054074 0.000000
# 6 0.000000 0.000000 0.000000 0.000000 0.000000 0.133473
#
#
# Mechanical properties :
#
#
# Convention : Reuss Voigt Hill
#
# Bulk Modulus (GPa) = 56.82846 59.10261 57.96553
# Shear Modulus (GPa) = 18.34011 28.10513 23.22262
#
# Velocity S-wave (km/s) = 3.12721 3.87123 3.51894
# Velocity P-wave (km/s) = 6.58344 7.17614 6.88617
#
# Compressibility (1/GPa) = 0.01759682
#
# Stress axis : x y z
#
# Youngs Moduli (GPa) = 72.69334 79.65901 103.92011
#
# Poissons Ratio (x) = 0.37276 0.51306
# Poissons Ratio (y) = 0.34016 -0.04661
# Poissons Ratio (z) = 0.35889 -0.03573
#
# Static dielectric constant tensor:
#      x y z
#    x 1.606860 0.000000 0.000000 
#    y 0.000000 1.672430 0.000000 
#    z 0.000000 0.000000 1.753320 
# 
# From -- ./inp_files/21294.got.cif
#   From: 2010.05.17/outbox.cif.g08.bks.cpg/sg20_11_cif.got.tgz:21294.got - 2010.06.03 22:52:26.
