data_PCOD9321403
_publ_section_title
;
Structure prediction by ZEFSAII (Michael W. Deem and Ramdas Pophale) SiO2 
 PCOD9321403
Probable space group: C 2 2 21
;
_chemical_formula_sum "Si O2"
_cell_formula_units_Z 44
_cell_length_a 30.943869
_cell_length_b 11.271672
_cell_length_c 4.929553
_cell_angle_alpha 90.000000
_cell_angle_beta 90.000000
_cell_angle_gamma 90.000000
_cell_volume 1719.374560
_symmetry_space_group_name_H-M "C 2 2 21"
_symmetry_group_IT_number 20
_symmetry_cell_setting 'orthorhombic'
loop_
_space_group_symop_operation_xyz
x,y,z
-x,-y,1/2+z
x,-y,-z
-x,y,1/2-z
1/2+x,1/2+y,z
1/2-x,1/2-y,1/2+z
1/2+x,1/2-y,-z
1/2-x,1/2+y,1/2-z
loop_
_atom_site_type_symbol
_atom_site_label
_atom_site_fract_x
_atom_site_fract_y
_atom_site_fract_z
Si Si1 0.183594 0.179229 0.894155
Si Si2 0.850348 0.631837 0.986729
Si Si3 0.000000 0.414417 0.250000
Si Si4 0.042646 0.799943 0.401859
Si Si5 0.899253 0.812511 0.629311
Si Si6 0.766844 0.387029 0.328271
O O1 0.155034 0.271995 0.721904
O O2 0.146558 0.121666 0.078031
O O3 0.216202 0.098600 0.726791
O O4 0.219731 0.262479 0.036446
O O5 0.879520 0.693547 0.760965
O O6 0.799930 0.616091 0.917422
O O7 0.868481 0.500000 0.000000
O O8 0.971369 0.321005 0.067063
O O9 0.982726 0.500000 0.500000
O O10 0.068970 0.866818 0.641056
O O11 0.000000 0.849059 0.250000
O O12 0.073588 0.788080 0.141208
O O13 0.781460 0.500000 0.500000
#
# Coordination Sequence:
#
# PCOD9321403 Si02
#       6
#     8   8   4   8   8   8
#     4  11  22  39  59  89 130 167 216 278 316 378
#     4  11  22  39  57  88 124 166 222 265 311 371
#     4  12  22  38  54  78 112 156 208 264 316 374
#     4  12  22  43  57  80 112 163 213 265 323 393
#     4  11  24  40  59  85 119 164 210 275 326 372
#     4  11  22  37  65  91 123 176 223 265 321 386
#
# _framework density 25.590703000000001
#
# number of rings (size 3 to 8) (size 9 to 14) (size 15 to 20)
#    0.000    0.727    8.182    0.000    0.000    0.727 
#    9.818    0.000    0.000    0.000    0.000    0.000 
#    0.000    0.000    9.273    1.636    0.000    0.182 
#
# Total GULP energy -122537.375753 kJ/mol
# GULP energy per Si atom -5569.880716 kJ/mol
# Density = 2.553246 g / cm^3
# Si number density = 25.590703 Si / 1000 Ang^3
#
#
#
# Elastic Constant Matrix: (Units=GPa)
#
#
# Indices 1 2 3 4 5 6 
#
# 1 197.1015 3.2828 62.9211 0.0000 0.0000 0.0000
# 2 3.2828 43.1491 0.6520 0.0000 0.0000 0.0000
# 3 62.9211 0.6520 146.1212 0.0000 0.0000 0.0000
# 4 0.0000 0.0000 0.0000 14.2866 0.0000 0.0000
# 5 0.0000 0.0000 0.0000 0.0000 75.8684 0.0000
# 6 0.0000 0.0000 0.0000 0.0000 0.0000 -29.5494
#
#
#
# Elastic Compliance Matrix: (Units=1/GPa)
#
#
# Indices 1 2 3 4 5 6 
#
# 1 0.005889 -0.000410 -0.002534 0.000000 0.000000 0.000000
# 2 -0.000410 0.023206 0.000073 0.000000 0.000000 0.000000
# 3 -0.002534 0.000073 0.007935 0.000000 0.000000 0.000000
# 4 0.000000 0.000000 0.000000 0.069996 0.000000 0.000000
# 5 0.000000 0.000000 0.000000 0.000000 0.013181 0.000000
# 6 0.000000 0.000000 0.000000 0.000000 0.000000 -0.033842
#
#
# Mechanical properties :
#
#
# Convention : Reuss Voigt Hill
#
# Bulk Modulus (GPa) = 31.96178 57.78705 44.87441
# Shear Modulus (GPa) = 48.76364 33.42219 41.09292
#
# Velocity S-wave (km/s) = 4.36996 3.61782 4.01156
# Velocity P-wave (km/s) = 6.16270 6.33102 6.24743
#
# Compressibility (1/GPa) = 0.03128737
#
# Stress axis : x y z
#
# Youngs Moduli (GPa) = 169.79826 43.09314 126.03115
#
# Poissons Ratio (x) = 0.01766 0.31938
# Poissons Ratio (y) = 0.06958 -0.00919
# Poissons Ratio (z) = 0.43030 -0.00314
#
# Static dielectric constant tensor:
#      x y z
#    x 2.055800 0.000000 0.000000 
#    y 0.000000 1.935570 0.000000 
#    z 0.000000 0.000000 2.300150 
# 
# From -- ./inp_files/4221.got.cif
#   From: 2010.05.17/outbox.cif.g08.bks.cpg/sg20_3_cif.got.tgz:4221.got - 2010.06.03 22:52:26.
