data_PCOD9321406
_publ_section_title
;
Structure prediction by ZEFSAII (Michael W. Deem and Ramdas Pophale) SiO2 
 PCOD9321406
Probable space group: C 2 2 21
;
_chemical_formula_sum "Si O2"
_cell_formula_units_Z 48
_cell_length_a 8.478208
_cell_length_b 30.430835
_cell_length_c 8.931126
_cell_angle_alpha 90.000000
_cell_angle_beta 90.000000
_cell_angle_gamma 90.000000
_cell_volume 2304.221119
_symmetry_space_group_name_H-M "C 2 2 21"
_symmetry_group_IT_number 20
_symmetry_cell_setting 'orthorhombic'
loop_
_space_group_symop_operation_xyz
x,y,z
-x,-y,1/2+z
x,-y,-z
-x,y,1/2-z
1/2+x,1/2+y,z
1/2-x,1/2-y,1/2+z
1/2+x,1/2-y,-z
1/2-x,1/2+y,1/2-z
loop_
_atom_site_type_symbol
_atom_site_label
_atom_site_fract_x
_atom_site_fract_y
_atom_site_fract_z
Si Si1 0.907967 0.809090 0.101057
Si Si2 0.915453 0.742764 0.596478
Si Si3 0.942405 0.662059 0.079654
Si Si4 0.723845 0.106231 0.038134
Si Si5 0.031090 0.047501 0.573900
Si Si6 0.856528 0.885425 0.649843
O O1 0.764068 0.773743 0.121588
O O2 0.000000 0.824259 0.250000
O O3 0.823777 0.850348 0.017816
O O4 0.042406 0.782805 0.011625
O O5 0.000000 0.753876 0.750000
O O6 0.007279 0.701524 0.524899
O O7 0.760486 0.649875 0.080786
O O8 0.000000 0.672051 0.250000
O O9 0.043717 0.620232 0.025255
O O10 0.755007 0.094487 0.212686
O O11 0.792332 0.066192 0.946048
O O12 0.000000 0.047021 0.750000
O O13 0.923757 0.081029 0.473346
O O14 0.013591 0.000000 0.500000
O O15 0.000000 0.866829 0.750000
#
# Coordination Sequence:
#
# PCOD9321406 Si02
#       6
#     8   8   8   8   8   8
#     4  11  23  40  58  83 117 156 204 249 300 356
#     4  11  24  37  56  84 117 157 201 253 300 351
#     4   9  19  38  60  85 119 156 197 242 294 353
#     4   9  20  38  60  86 114 152 194 242 298 355
#     4  11  22  38  60  87 117 152 196 243 293 353
#     4   9  19  35  60  87 114 151 190 237 291 346
#
# _framework density 20.831334999999999
#
# number of rings (size 3 to 8) (size 9 to 14) (size 15 to 20)
#    0.000    2.000    0.000    3.500    0.000   12.667 
#    0.000    0.833    0.000    2.000    0.000    0.000 
#    0.000    0.000    0.000    0.000    0.000    0.000 
#
# Total GULP energy -133898.724409 kJ/mol
# GULP energy per Si atom -5579.113517 kJ/mol
# Density = 2.078392 g / cm^3
# Si number density = 20.831335 Si / 1000 Ang^3
#
#
#
# Elastic Constant Matrix: (Units=GPa)
#
#
# Indices 1 2 3 4 5 6 
#
# 1 108.2934 48.4388 27.7714 0.0000 0.0000 0.0000
# 2 48.4388 52.7206 38.5659 0.0000 0.0000 0.0000
# 3 27.7714 38.5659 113.6084 0.0000 0.0000 0.0000
# 4 0.0000 0.0000 0.0000 23.9545 0.0000 0.0000
# 5 0.0000 0.0000 0.0000 0.0000 24.0286 0.0000
# 6 0.0000 0.0000 0.0000 0.0000 0.0000 26.8273
#
#
#
# Elastic Compliance Matrix: (Units=1/GPa)
#
#
# Indices 1 2 3 4 5 6 
#
# 1 0.015848 -0.015601 0.001422 0.000000 0.000000 0.000000
# 2 -0.015601 0.040592 -0.009966 0.000000 0.000000 0.000000
# 3 0.001422 -0.009966 0.011838 0.000000 0.000000 0.000000
# 4 0.000000 0.000000 0.000000 0.041746 0.000000 0.000000
# 5 0.000000 0.000000 0.000000 0.000000 0.041617 0.000000
# 6 0.000000 0.000000 0.000000 0.000000 0.000000 0.037275
#
#
# Mechanical properties :
#
#
# Convention : Reuss Voigt Hill
#
# Bulk Modulus (GPa) = 50.03058 56.01938 53.02498
# Shear Modulus (GPa) = 20.50297 25.61849 23.06073
#
# Velocity S-wave (km/s) = 3.14066 3.51066 3.33080
# Velocity P-wave (km/s) = 6.10088 6.58660 6.34839
#
# Compressibility (1/GPa) = 0.01998778
#
# Stress axis : x y z
#
# Youngs Moduli (GPa) = 63.10115 24.63557 84.47643
#
# Poissons Ratio (x) = 0.38433 -0.12012
# Poissons Ratio (y) = 0.98442 0.84188
# Poissons Ratio (z) = -0.08973 0.24551
#
# Static dielectric constant tensor:
#      x y z
#    x 1.795300 0.000000 0.000000 
#    y 0.000000 1.748400 0.000000 
#    z 0.000000 0.000000 1.742360 
# 
# From -- ./inp_files/6473.got.cif
#   From: 2010.05.17/outbox.cif.g08.bks.cpg/sg20_4_cif.got.tgz:6473.got - 2010.06.03 22:52:26.
