data_PCOD9321951
_publ_section_title
;
Structure prediction by ZEFSAII (Michael W. Deem and Ramdas Pophale) SiO2 
 PCOD9321951
Probable space group: C 2 2 21
;
_chemical_formula_sum "Si O2"
_cell_formula_units_Z 32
_cell_length_a 21.073309
_cell_length_b 13.161384
_cell_length_c 4.622298
_cell_angle_alpha 90.000000
_cell_angle_beta 90.000000
_cell_angle_gamma 90.000000
_cell_volume 1282.012432
_symmetry_space_group_name_H-M "C 2 2 21"
_symmetry_group_IT_number 20
_symmetry_cell_setting 'orthorhombic'
loop_
_space_group_symop_operation_xyz
x,y,z
-x,-y,1/2+z
x,-y,-z
-x,y,1/2-z
1/2+x,1/2+y,z
1/2-x,1/2-y,1/2+z
1/2+x,1/2-y,-z
1/2-x,1/2+y,1/2-z
loop_
_atom_site_type_symbol
_atom_site_label
_atom_site_fract_x
_atom_site_fract_y
_atom_site_fract_z
Si Si1 0.744386 0.175892 0.575285
Si Si2 0.937312 0.741005 0.426148
Si Si3 0.107038 0.387819 0.402930
Si Si4 0.635101 0.575195 0.219635
O O1 0.771772 0.231012 0.858323
O O2 0.681738 0.117358 0.677042
O O3 0.795997 0.107795 0.407930
O O4 0.937871 0.646010 0.642812
O O5 0.905793 0.823387 0.644432
O O6 0.000000 0.775255 0.250000
O O7 0.897671 0.692683 0.164297
O O8 0.091085 0.500000 0.500000
O O9 0.640975 0.500000 0.500000
O O10 0.601278 0.500000 0.000000
#
# Coordination Sequence:
#
# PCOD9321951 Si02
#       4
#     8   8   8   8
#     4  12  22  43  74 112 164 205 250 325 407 480
#     4  12  27  50  75 109 159 212 270 340 390 466
#     4  12  25  46  76 114 157 213 265 323 408 487
#     4  12  25  45  77 113 155 210 264 326 405 483
#
# _framework density 24.960754999999999
#
# number of rings (size 3 to 8) (size 9 to 14) (size 15 to 20)
#    0.000    0.000    5.000    5.250    0.000    4.000 
#    0.000    3.750    0.000    0.000    0.000    1.750 
#    0.000    0.000    0.000    0.000    0.000    0.000 
#
# Total GULP energy -89153.722061 kJ/mol
# GULP energy per Si atom -5572.107629 kJ/mol
# Density = 2.490394 g / cm^3
# Si number density = 24.960755 Si / 1000 Ang^3
#
#
#
# Elastic Constant Matrix: (Units=GPa)
#
#
# Indices 1 2 3 4 5 6 
#
# 1 116.6570 23.1880 28.6419 0.0000 0.0000 0.0000
# 2 23.1880 113.9497 35.0875 0.0000 0.0000 0.0000
# 3 28.6419 35.0875 127.2914 0.0000 0.0000 0.0000
# 4 0.0000 0.0000 0.0000 45.8972 0.0000 0.0000
# 5 0.0000 0.0000 0.0000 0.0000 12.8272 0.0000
# 6 0.0000 0.0000 0.0000 0.0000 0.0000 -10.7894
#
#
#
# Elastic Compliance Matrix: (Units=1/GPa)
#
#
# Indices 1 2 3 4 5 6 
#
# 1 0.009262 -0.001358 -0.001710 0.000000 0.000000 0.000000
# 2 -0.001358 0.009789 -0.002393 0.000000 0.000000 0.000000
# 3 -0.001710 -0.002393 0.008900 0.000000 0.000000 0.000000
# 4 0.000000 0.000000 0.000000 0.021788 0.000000 0.000000
# 5 0.000000 0.000000 0.000000 0.000000 0.077960 0.000000
# 6 0.000000 0.000000 0.000000 0.000000 0.000000 -0.092683
#
#
# Mechanical properties :
#
#
# Convention : Reuss Voigt Hill
#
# Bulk Modulus (GPa) = 58.72031 59.08143 58.90087
# Shear Modulus (GPa) = 96.87503 27.65236 62.26369
#
# Velocity S-wave (km/s) = 6.23660 3.33202 4.99988
# Velocity P-wave (km/s) = 8.68541 6.20679 7.54853
#
# Compressibility (1/GPa) = 0.01702988
#
# Stress axis : x y z
#
# Youngs Moduli (GPa) = 107.96945 102.15590 112.35699
#
# Poissons Ratio (x) = 0.13876 0.19209
# Poissons Ratio (y) = 0.14666 0.26883
# Poissons Ratio (z) = 0.18459 0.24442
#
# Static dielectric constant tensor:
#      x y z
#    x 2.082080 0.000000 0.000000 
#    y 0.000000 2.336480 0.000000 
#    z 0.000000 0.000000 2.125070 
# 
# From -- ./inp_files/2975.got.cif
#   From: 2010.05.17/outbox.cif.g08.bks.cpg/sg20_2_cif.got.tgz:2975.got - 2010.06.03 22:52:26.
