data_PCOD9321381
_publ_section_title
;
Structure prediction by ZEFSAII (Michael W. Deem and Ramdas Pophale) SiO2 
 PCOD9321381
Probable space group: C 2 2 21
;
_chemical_formula_sum "Si O2"
_cell_formula_units_Z 48
_cell_length_a 16.045368
_cell_length_b 9.609180
_cell_length_c 15.825739
_cell_angle_alpha 90.000000
_cell_angle_beta 90.000000
_cell_angle_gamma 90.000000
_cell_volume 2440.057214
_symmetry_space_group_name_H-M "C 2 2 21"
_symmetry_group_IT_number 20
_symmetry_cell_setting 'orthorhombic'
loop_
_space_group_symop_operation_xyz
x,y,z
-x,-y,1/2+z
x,-y,-z
-x,y,1/2-z
1/2+x,1/2+y,z
1/2-x,1/2-y,1/2+z
1/2+x,1/2-y,-z
1/2-x,1/2+y,1/2-z
loop_
_atom_site_type_symbol
_atom_site_label
_atom_site_fract_x
_atom_site_fract_y
_atom_site_fract_z
Si Si1 0.407159 0.075666 0.649846
Si Si2 0.205944 0.458156 0.712407
Si Si3 0.475716 0.000000 0.000000
Si Si4 0.147117 0.962678 0.656017
Si Si5 0.500000 0.678111 0.250000
Si Si6 0.236255 0.206958 0.595950
Si Si7 0.825864 0.674760 0.937513
O O1 0.373989 0.981264 0.727262
O O2 0.466865 0.998018 0.583572
O O3 0.449677 0.213928 0.689720
O O4 0.323222 0.126796 0.603472
O O5 0.287160 0.489598 0.768383
O O6 0.218933 0.305094 0.675890
O O7 0.195554 0.562312 0.633743
O O8 0.412593 0.872399 0.018607
O O9 0.161626 0.094117 0.595184
O O10 0.171737 0.822384 0.607963
O O11 0.059366 0.922089 0.696156
O O12 0.237128 0.305167 0.514451
#
# Coordination Sequence:
#
# PCOD9321381 Si02
#       7
#     8   8   4   8   4   8   8
#     4  11  24  41  70  96 132 179 230 269 334 409
#     4  11  21  44  71  96 125 184 232 263 325 418
#     4  12  24  42  68 100 128 180 222 274 336 398
#     4  11  23  41  66  96 131 177 217 280 341 389
#     4  12  20  44  66  92 140 174 210 286 340 396
#     4  11  24  42  67 100 130 176 229 280 329 402
#     4  12  23  44  69  95 137 174 227 277 338 398
#
# _framework density 19.671669000000001
#
# number of rings (size 3 to 8) (size 9 to 14) (size 15 to 20)
#    0.000    0.667    6.667    1.500    4.667    0.000 
#    3.000    0.000    0.000    0.000    0.000    0.000 
#    0.000    0.000    0.000    0.000    0.000    0.000 
#
# Total GULP energy -133949.866046 kJ/mol
# GULP energy per Si atom -5581.244419 kJ/mol
# Density = 1.962690 g / cm^3
# Si number density = 19.671669 Si / 1000 Ang^3
#
#
#
# Elastic Constant Matrix: (Units=GPa)
#
#
# Indices 1 2 3 4 5 6 
#
# 1 67.9801 6.5577 30.7621 0.0000 0.0000 0.0000
# 2 6.5577 65.6848 26.6495 0.0000 0.0000 0.0000
# 3 30.7621 26.6495 89.2725 0.0000 0.0000 0.0000
# 4 0.0000 0.0000 0.0000 29.8943 0.0000 0.0000
# 5 0.0000 0.0000 0.0000 0.0000 38.9312 0.0000
# 6 0.0000 0.0000 0.0000 0.0000 0.0000 28.5592
#
#
#
# Elastic Compliance Matrix: (Units=1/GPa)
#
#
# Indices 1 2 3 4 5 6 
#
# 1 0.017464 0.000794 -0.006255 0.000000 0.000000 0.000000
# 2 0.000794 0.017358 -0.005455 0.000000 0.000000 0.000000
# 3 -0.006255 -0.005455 0.014986 0.000000 0.000000 0.000000
# 4 0.000000 0.000000 0.000000 0.033451 0.000000 0.000000
# 5 0.000000 0.000000 0.000000 0.000000 0.025686 0.000000
# 6 0.000000 0.000000 0.000000 0.000000 0.000000 0.035015
#
#
# Mechanical properties :
#
#
# Convention : Reuss Voigt Hill
#
# Bulk Modulus (GPa) = 35.74551 38.98622 37.36586
# Shear Modulus (GPa) = 28.55218 30.07483 29.31351
#
# Velocity S-wave (km/s) = 3.81391 3.91428 3.86442
# Velocity P-wave (km/s) = 6.13229 6.34746 6.24080
#
# Compressibility (1/GPa) = 0.02797554
#
# Stress axis : x y z
#
# Youngs Moduli (GPa) = 57.26049 57.60934 66.73079
#
# Poissons Ratio (x) = -0.04575 0.41740
# Poissons Ratio (y) = -0.04548 0.36405
# Poissons Ratio (z) = 0.35816 0.31428
#
# Static dielectric constant tensor:
#      x y z
#    x 1.695710 0.000000 0.000000 
#    y 0.000000 1.698880 0.000000 
#    z 0.000000 0.000000 1.757250 
# 
# From -- ./inp_files/24859.got.cif
#   From: 2010.05.17/outbox.cif.g08.bks.cpg/sg20_13_cif.got.tgz:24859.got - 2010.06.03 22:52:26.
