data_PCOD9321237
_publ_section_title
;
Structure prediction by ZEFSAII (Michael W. Deem and Ramdas Pophale) SiO2 
 PCOD9321237
Probable space group: C 2 2 21
;
_chemical_formula_sum "Si O2"
_cell_formula_units_Z 56
_cell_length_a 10.451582
_cell_length_b 21.215999
_cell_length_c 11.623471
_cell_angle_alpha 90.000000
_cell_angle_beta 90.000000
_cell_angle_gamma 90.000000
_cell_volume 2577.397215
_symmetry_space_group_name_H-M "C 2 2 21"
_symmetry_group_IT_number 20
_symmetry_cell_setting 'orthorhombic'
loop_
_space_group_symop_operation_xyz
x,y,z
-x,-y,1/2+z
x,-y,-z
-x,y,1/2-z
1/2+x,1/2+y,z
1/2-x,1/2-y,1/2+z
1/2+x,1/2-y,-z
1/2-x,1/2+y,1/2-z
loop_
_atom_site_type_symbol
_atom_site_label
_atom_site_fract_x
_atom_site_fract_y
_atom_site_fract_z
Si Si1 0.313241 0.744937 0.776675
Si Si2 0.055744 0.544874 0.096311
Si Si3 0.211355 0.390422 0.260849
Si Si4 0.504878 0.858742 0.077609
Si Si5 0.890013 0.852388 0.651154
Si Si6 0.543321 0.262428 0.043489
Si Si7 0.779516 0.472300 0.810078
O O1 0.287721 0.669817 0.780558
O O2 0.208187 0.797890 0.805253
O O3 0.351084 0.751924 0.641432
O O4 0.418344 0.749773 0.878182
O O5 0.916529 0.515794 0.126824
O O6 0.160682 0.553951 0.192501
O O7 0.112760 0.500000 0.000000
O O8 0.019749 0.611951 0.046517
O O9 0.135822 0.368178 0.374280
O O10 0.274779 0.457766 0.285280
O O11 0.100528 0.395174 0.163530
O O12 0.540968 0.786726 0.062295
O O13 0.814412 0.919387 0.640628
O O14 0.000000 0.858181 0.750000
O O15 0.940626 0.828271 0.525654
#
# Coordination Sequence:
#
# PCOD9321237 Si02
#       7
#     8   8   8   8   8   8   8
#     4  11  26  47  70 101 141 185 245 301 352 431
#     4  11  19  37  68 100 136 175 227 293 356 404
#     4  11  22  38  67  98 135 182 227 286 344 426
#     4  11  20  37  67 101 131 172 232 293 350 402
#     4  12  27  46  73 105 145 191 235 294 371 443
#     4  11  26  45  70 104 135 185 242 301 357 419
#     4  11  24  41  63 107 143 175 237 296 353 431
#
# _framework density 21.727345
#
# number of rings (size 3 to 8) (size 9 to 14) (size 15 to 20)
#    0.000    0.857    4.286    3.429    6.000    3.429 
#    2.571    0.000    0.000    0.000    0.000    0.000 
#    0.000    0.000    0.000    0.000    0.000    0.000 
#
# Total GULP energy -156035.155952 kJ/mol
# GULP energy per Si atom -5572.684141 kJ/mol
# Density = 2.167789 g / cm^3
# Si number density = 21.727345 Si / 1000 Ang^3
#
#
#
# Elastic Constant Matrix: (Units=GPa)
#
#
# Indices 1 2 3 4 5 6 
#
# 1 39.8084 28.7927 11.0513 0.0000 0.0000 0.0000
# 2 28.7927 137.3348 13.0985 0.0000 0.0000 0.0000
# 3 11.0513 13.0985 81.4989 0.0000 0.0000 0.0000
# 4 0.0000 0.0000 0.0000 34.7102 0.0000 0.0000
# 5 0.0000 0.0000 0.0000 0.0000 -9.2342 0.0000
# 6 0.0000 0.0000 0.0000 0.0000 0.0000 32.4697
#
#
#
# Elastic Compliance Matrix: (Units=1/GPa)
#
#
# Indices 1 2 3 4 5 6 
#
# 1 0.030384 -0.006070 -0.003144 0.000000 0.000000 0.000000
# 2 -0.006070 0.008608 -0.000560 0.000000 0.000000 0.000000
# 3 -0.003144 -0.000560 0.012787 0.000000 0.000000 0.000000
# 4 0.000000 0.000000 0.000000 0.028810 0.000000 0.000000
# 5 0.000000 0.000000 0.000000 0.000000 -0.108293 0.000000
# 6 0.000000 0.000000 0.000000 0.000000 0.000000 0.030798
#
#
# Mechanical properties :
#
#
# Convention : Reuss Voigt Hill
#
# Bulk Modulus (GPa) = 31.02893 40.50302 35.76597
# Shear Modulus (GPa) = 149.76658 25.30245 87.53451
#
# Velocity S-wave (km/s) = 8.31142 3.41624 6.35415
# Velocity P-wave (km/s) = 10.31592 5.85175 8.38633
#
# Compressibility (1/GPa) = 0.03222799
#
# Stress axis : x y z
#
# Youngs Moduli (GPa) = 32.91243 116.17734 78.20716
#
# Poissons Ratio (x) = 0.70521 0.24592
# Poissons Ratio (y) = 0.19978 0.04382
# Poissons Ratio (z) = 0.10349 0.06509
#
# Static dielectric constant tensor:
#      x y z
#    x 1.833340 0.000000 0.000000 
#    y 0.000000 1.881310 0.000000 
#    z 0.000000 0.000000 1.881220 
# 
# From -- ./inp_files/14311.got.cif
#   From: 2010.05.17/outbox.cif.g08.bks.cpg/sg20_8_cif.got.tgz:14311.got - 2010.06.03 22:52:26.
