data_PCOD9321632
_publ_section_title
;
Structure prediction by ZEFSAII (Michael W. Deem and Ramdas Pophale) SiO2 
 PCOD9321632
Probable space group: C 2 2 21
;
_chemical_formula_sum "Si O2"
_cell_formula_units_Z 60
_cell_length_a 7.646120
_cell_length_b 12.246222
_cell_length_c 28.988517
_cell_angle_alpha 90.000000
_cell_angle_beta 90.000000
_cell_angle_gamma 90.000000
_cell_volume 2714.371183
_symmetry_space_group_name_H-M "C 2 2 21"
_symmetry_group_IT_number 20
_symmetry_cell_setting 'orthorhombic'
loop_
_space_group_symop_operation_xyz
x,y,z
-x,-y,1/2+z
x,-y,-z
-x,y,1/2-z
1/2+x,1/2+y,z
1/2-x,1/2-y,1/2+z
1/2+x,1/2-y,-z
1/2-x,1/2+y,1/2-z
loop_
_atom_site_type_symbol
_atom_site_label
_atom_site_fract_x
_atom_site_fract_y
_atom_site_fract_z
Si Si1 0.119138 0.881357 0.956991
Si Si2 0.325476 0.893975 0.831314
Si Si3 0.501618 0.483184 0.122755
Si Si4 0.500000 0.027958 0.750000
Si Si5 0.356865 0.308714 0.444942
Si Si6 0.543642 0.840531 0.076863
Si Si7 0.797887 0.646328 0.671716
Si Si8 0.497628 0.925288 0.928981
O O1 0.303925 0.941023 0.950243
O O2 0.984313 0.933606 0.920709
O O3 0.162499 0.757711 0.940419
O O4 0.071689 0.871441 0.010041
O O5 0.398852 0.951547 0.786101
O O6 0.289868 0.765491 0.824590
O O7 0.458130 0.910053 0.874405
O O8 0.147558 0.956349 0.846465
O O9 0.573765 0.371935 0.099787
O O10 0.334855 0.444681 0.151411
O O11 0.374360 0.104003 0.719436
O O12 0.147542 0.314147 0.442454
O O13 0.415979 0.183902 0.447175
O O14 0.552629 0.840234 0.132379
O O15 0.595853 0.961655 0.061903
#
# Coordination Sequence:
#
# PCOD9321632 Si02
#       8
#     8   8   8   4   8   8   8   8
#     4  11  24  42  66 105 141 183 243 282 331 418
#     4  11  24  49  70 102 141 175 231 290 359 427
#     4  11  23  44  74  96 144 187 221 288 356 407
#     4  12  28  46  74 104 132 176 234 298 352 438
#     4  12  23  40  72 100 141 190 233 285 339 405
#     4  12  24  43  71  97 139 190 230 287 355 409
#     4  12  26  48  72 103 138 179 239 290 359 436
#     4  11  23  45  66  95 142 185 225 289 348 410
#
# _framework density 22.104565999999998
#
# number of rings (size 3 to 8) (size 9 to 14) (size 15 to 20)
#    0.000    0.533    8.000    1.200    1.867    4.267 
#    2.400    0.000    2.933    0.000    0.000    0.000 
#    0.000    0.000    0.000    0.000    0.000    0.000 
#
# Total GULP energy -167870.324121 kJ/mol
# GULP energy per Si atom -5595.677471 kJ/mol
# Density = 2.205426 g / cm^3
# Si number density = 22.104566 Si / 1000 Ang^3
#
#
#
# Elastic Constant Matrix: (Units=GPa)
#
#
# Indices 1 2 3 4 5 6 
#
# 1 49.9528 28.1472 34.6844 0.0000 0.0000 0.0000
# 2 28.1472 154.1568 34.9576 0.0000 0.0000 0.0000
# 3 34.6844 34.9576 129.3270 0.0000 0.0000 0.0000
# 4 0.0000 0.0000 0.0000 45.7673 0.0000 0.0000
# 5 0.0000 0.0000 0.0000 0.0000 26.0718 0.0000
# 6 0.0000 0.0000 0.0000 0.0000 0.0000 37.6651
#
#
#
# Elastic Compliance Matrix: (Units=1/GPa)
#
#
# Indices 1 2 3 4 5 6 
#
# 1 0.026167 -0.003394 -0.006100 0.000000 0.000000 0.000000
# 2 -0.003394 0.007351 -0.001077 0.000000 0.000000 0.000000
# 3 -0.006100 -0.001077 0.009659 0.000000 0.000000 0.000000
# 4 0.000000 0.000000 0.000000 0.021850 0.000000 0.000000
# 5 0.000000 0.000000 0.000000 0.000000 0.038356 0.000000
# 6 0.000000 0.000000 0.000000 0.000000 0.000000 0.026550
#
#
# Mechanical properties :
#
#
# Convention : Reuss Voigt Hill
#
# Bulk Modulus (GPa) = 45.38283 58.77944 52.08114
# Shear Modulus (GPa) = 31.56162 37.61066 34.58614
#
# Velocity S-wave (km/s) = 3.78277 4.12938 3.95987
# Velocity P-wave (km/s) = 6.29719 7.02745 6.67232
#
# Compressibility (1/GPa) = 0.02203476
#
# Stress axis : x y z
#
# Youngs Moduli (GPa) = 38.21561 136.03908 103.52609
#
# Poissons Ratio (x) = 0.46178 0.63154
# Poissons Ratio (y) = 0.12972 0.11145
# Poissons Ratio (z) = 0.23313 0.14646
#
# Static dielectric constant tensor:
#      x y z
#    x 1.816670 0.000000 0.000000 
#    y 0.000000 1.838210 0.000000 
#    z 0.000000 0.000000 1.797660 
# 
# From -- ./inp_files/30157.got.cif
#   From: 2010.05.17/outbox.cif.g08.bks.cpg/sg20_16_cif.got.tgz:30157.got - 2010.06.03 22:52:26.
