data_PCOD9321665
_publ_section_title
;
Structure prediction by ZEFSAII (Michael W. Deem and Ramdas Pophale) SiO2 
 PCOD9321665
Probable space group: C 2 2 21
;
_chemical_formula_sum "Si O2"
_cell_formula_units_Z 64
_cell_length_a 7.572131
_cell_length_b 31.689519
_cell_length_c 12.296686
_cell_angle_alpha 90.000000
_cell_angle_beta 90.000000
_cell_angle_gamma 90.000000
_cell_volume 2950.678209
_symmetry_space_group_name_H-M "C 2 2 21"
_symmetry_group_IT_number 20
_symmetry_cell_setting 'orthorhombic'
loop_
_space_group_symop_operation_xyz
x,y,z
-x,-y,1/2+z
x,-y,-z
-x,y,1/2-z
1/2+x,1/2+y,z
1/2-x,1/2-y,1/2+z
1/2+x,1/2-y,-z
1/2-x,1/2+y,1/2-z
loop_
_atom_site_type_symbol
_atom_site_label
_atom_site_fract_x
_atom_site_fract_y
_atom_site_fract_z
Si Si1 0.743524 0.195501 0.976039
Si Si2 0.836879 0.894632 0.105981
Si Si3 0.299885 0.041054 0.433637
Si Si4 0.314789 0.483139 0.698921
Si Si5 0.265196 0.577593 0.666131
Si Si6 0.161462 0.579873 0.440928
Si Si7 0.423430 0.169164 0.134018
Si Si8 0.927673 0.776532 0.627178
O O1 0.578777 0.180118 0.049687
O O2 0.905976 0.213716 0.048229
O O3 0.819596 0.154981 0.912999
O O4 0.661171 0.231568 0.899849
O O5 0.723883 0.907815 0.212193
O O6 0.032665 0.910268 0.136904
O O7 0.778380 0.918840 0.997023
O O8 0.271012 0.037481 0.305326
O O9 0.508328 0.045740 0.441609
O O10 0.235835 0.000000 0.500000
O O11 0.500000 0.496713 0.750000
O O12 0.234073 0.527306 0.661145
O O13 0.324826 0.447365 0.606095
O O14 0.168599 0.597377 0.563001
O O15 0.114123 0.619195 0.366275
O O16 0.500000 0.183098 0.250000
O O17 0.234752 0.190864 0.111098
O O18 0.000000 0.778837 0.750000
#
# Coordination Sequence:
#
# PCOD9321665 Si02
#       8
#     8   8   8   8   8   8   8   8
#     4  12  26  50  78 114 154 192 255 306 382 467
#     4  11  24  46  71  99 140 189 240 302 364 440
#     4  12  22  40  63  95 137 183 235 294 358 423
#     4  12  23  41  68  96 137 190 247 297 356 431
#     4  11  23  47  64 100 142 189 246 301 360 438
#     4  12  27  40  68 101 140 191 240 299 368 425
#     4  12  25  49  75 110 157 190 252 313 369 454
#     4  12  27  49  83 114 151 204 241 312 394 459
#
# _framework density 21.68993
#
# number of rings (size 3 to 8) (size 9 to 14) (size 15 to 20)
#    0.000    0.250    6.250    3.750    0.000    2.000 
#    6.750    0.000    0.000    0.000    0.000    0.000 
#    0.000    0.000    0.000    0.000    0.000    0.000 
#
# Total GULP energy -178796.373287 kJ/mol
# GULP energy per Si atom -5587.386665 kJ/mol
# Density = 2.164056 g / cm^3
# Si number density = 21.689930 Si / 1000 Ang^3
#
#
#
# Elastic Constant Matrix: (Units=GPa)
#
#
# Indices 1 2 3 4 5 6 
#
# 1 69.7416 30.8034 23.6698 0.0000 0.0000 0.0000
# 2 30.8034 126.1491 30.3289 0.0000 0.0000 0.0000
# 3 23.6698 30.3289 83.3261 0.0000 0.0000 0.0000
# 4 0.0000 0.0000 0.0000 30.1500 0.0000 0.0000
# 5 0.0000 0.0000 0.0000 0.0000 35.5930 0.0000
# 6 0.0000 0.0000 0.0000 0.0000 0.0000 33.4754
#
#
#
# Elastic Compliance Matrix: (Units=1/GPa)
#
#
# Indices 1 2 3 4 5 6 
#
# 1 0.017024 -0.003281 -0.003641 0.000000 0.000000 0.000000
# 2 -0.003281 0.009320 -0.002460 0.000000 0.000000 0.000000
# 3 -0.003641 -0.002460 0.013931 0.000000 0.000000 0.000000
# 4 0.000000 0.000000 0.000000 0.033168 0.000000 0.000000
# 5 0.000000 0.000000 0.000000 0.000000 0.028095 0.000000
# 6 0.000000 0.000000 0.000000 0.000000 0.000000 0.029873
#
#
# Mechanical properties :
#
#
# Convention : Reuss Voigt Hill
#
# Bulk Modulus (GPa) = 46.49305 49.86900 48.18103
# Shear Modulus (GPa) = 31.77715 32.80465 32.29090
#
# Velocity S-wave (km/s) = 3.83177 3.89323 3.86262
# Velocity P-wave (km/s) = 6.40769 6.57657 6.49268
#
# Compressibility (1/GPa) = 0.02150859
#
# Stress axis : x y z
#
# Youngs Moduli (GPa) = 58.74102 107.29775 71.78302
#
# Poissons Ratio (x) = 0.35209 0.26140
# Poissons Ratio (y) = 0.19276 0.17659
# Poissons Ratio (z) = 0.21390 0.26396
#
# Static dielectric constant tensor:
#      x y z
#    x 1.845340 0.000000 0.000000 
#    y 0.000000 1.726220 0.000000 
#    z 0.000000 0.000000 1.768770 
# 
# From -- ./inp_files/13371.got.cif
#   From: 2010.05.17/outbox.cif.g08.bks.cpg/sg20_7_cif.got.tgz:13371.got - 2010.06.03 22:52:26.
