data_PCOD9321147
_publ_section_title
;
Structure prediction by ZEFSAII (Michael W. Deem and Ramdas Pophale) SiO2 
 PCOD9321147
Probable space group: C 2 2 21
;
_chemical_formula_sum "Si O2"
_cell_formula_units_Z 40
_cell_length_a 12.185150
_cell_length_b 15.838027
_cell_length_c 8.664938
_cell_angle_alpha 90.000000
_cell_angle_beta 90.000000
_cell_angle_gamma 90.000000
_cell_volume 1672.235421
_symmetry_space_group_name_H-M "C 2 2 21"
_symmetry_group_IT_number 20
_symmetry_cell_setting 'orthorhombic'
loop_
_space_group_symop_operation_xyz
x,y,z
-x,-y,1/2+z
x,-y,-z
-x,y,1/2-z
1/2+x,1/2+y,z
1/2-x,1/2-y,1/2+z
1/2+x,1/2-y,-z
1/2-x,1/2+y,1/2-z
loop_
_atom_site_type_symbol
_atom_site_label
_atom_site_fract_x
_atom_site_fract_y
_atom_site_fract_z
Si Si1 0.367983 0.410077 0.068799
Si Si2 0.237586 0.884681 0.108752
Si Si3 0.000000 0.377638 0.750000
Si Si4 0.441458 0.323951 0.586388
Si Si5 0.573142 0.000000 0.500000
Si Si6 0.688894 0.199455 0.090622
O O1 0.332876 0.414369 0.245565
O O2 0.400649 0.500000 0.000000
O O3 0.467798 0.346522 0.040929
O O4 0.266281 0.373548 0.969964
O O5 0.257297 0.784057 0.130317
O O6 0.162023 0.885274 0.953139
O O7 0.345202 0.939854 0.095873
O O8 0.997336 0.438581 0.895953
O O9 0.888500 0.325012 0.733354
O O10 0.500000 0.332695 0.750000
O O11 0.392771 0.232456 0.544397
#
# Coordination Sequence:
#
# PCOD9321147 Si02
#       6
#     8   8   4   8   4   8
#     4  12  26  44  76 108 151 190 250 309 374 429
#     4  10  27  47  75 105 148 195 247 300 367 442
#     4  12  28  52  72 112 150 198 246 318 374 440
#     4  10  26  43  76 107 148 197 248 299 366 440
#     4  12  30  48  80 106 156 188 256 302 384 438
#     4  10  27  44  78 101 150 196 251 299 368 442
#
# _framework density 23.920076000000002
#
# number of rings (size 3 to 8) (size 9 to 14) (size 15 to 20)
#    1.200    0.000    0.000    3.000   19.600    0.000 
#    0.000    0.000    0.000    0.000    0.000    0.000 
#    0.000    0.000    0.000    0.000    0.000    0.000 
#
# Total GULP energy -111883.658257 kJ/mol
# GULP energy per Si atom -5594.182913 kJ/mol
# Density = 2.386563 g / cm^3
# Si number density = 23.920076 Si / 1000 Ang^3
#
#
#
# Elastic Constant Matrix: (Units=GPa)
#
#
# Indices 1 2 3 4 5 6 
#
# 1 60.5818 13.7681 -16.1699 0.0000 0.0000 0.0000
# 2 13.7681 66.7259 5.2468 0.0000 0.0000 0.0000
# 3 -16.1699 5.2468 56.3621 0.0000 0.0000 0.0000
# 4 0.0000 0.0000 0.0000 32.5549 0.0000 0.0000
# 5 0.0000 0.0000 0.0000 0.0000 39.0115 0.0000
# 6 0.0000 0.0000 0.0000 0.0000 0.0000 30.9989
#
#
#
# Elastic Compliance Matrix: (Units=1/GPa)
#
#
# Indices 1 2 3 4 5 6 
#
# 1 0.019076 -0.004399 0.005882 0.000000 0.000000 0.000000
# 2 -0.004399 0.016111 -0.002762 0.000000 0.000000 0.000000
# 3 0.005882 -0.002762 0.019687 0.000000 0.000000 0.000000
# 4 0.000000 0.000000 0.000000 0.030717 0.000000 0.000000
# 5 0.000000 0.000000 0.000000 0.000000 0.025633 0.000000
# 6 0.000000 0.000000 0.000000 0.000000 0.000000 0.032259
#
#
# Mechanical properties :
#
#
# Convention : Reuss Voigt Hill
#
# Bulk Modulus (GPa) = 19.11366 21.03998 20.07682
# Shear Modulus (GPa) = 30.58462 32.56803 31.57633
#
# Velocity S-wave (km/s) = 3.57965 3.69390 3.63723
# Velocity P-wave (km/s) = 5.00931 5.19695 5.10399
#
# Compressibility (1/GPa) = 0.05231860
#
# Stress axis : x y z
#
# Youngs Moduli (GPa) = 52.42096 62.06754 50.79461
#
# Poissons Ratio (x) = 0.27302 -0.29879
# Poissons Ratio (y) = 0.23059 0.14028
# Poissons Ratio (z) = -0.30836 0.17142
#
# Static dielectric constant tensor:
#      x y z
#    x 1.868330 0.000000 0.000000 
#    y 0.000000 1.888400 0.000000 
#    z 0.000000 0.000000 1.911560 
# 
# From -- ./inp_files/7098.got.cif
#   From: 2010.05.17/outbox.cif.g08.bks.cpg/sg20_4_cif.got.tgz:7098.got - 2010.06.03 22:52:26.
