data_PCOD9321921
_publ_section_title
;
Structure prediction by ZEFSAII (Michael W. Deem and Ramdas Pophale) SiO2 
 PCOD9321921
Probable space group: C 2 2 21
;
_chemical_formula_sum "Si O2"
_cell_formula_units_Z 48
_cell_length_a 22.007013
_cell_length_b 7.272496
_cell_length_c 14.242699
_cell_angle_alpha 90.000000
_cell_angle_beta 90.000000
_cell_angle_gamma 90.000000
_cell_volume 2279.485779
_symmetry_space_group_name_H-M "C 2 2 21"
_symmetry_group_IT_number 20
_symmetry_cell_setting 'orthorhombic'
loop_
_space_group_symop_operation_xyz
x,y,z
-x,-y,1/2+z
x,-y,-z
-x,y,1/2-z
1/2+x,1/2+y,z
1/2-x,1/2-y,1/2+z
1/2+x,1/2-y,-z
1/2-x,1/2+y,1/2-z
loop_
_atom_site_type_symbol
_atom_site_label
_atom_site_fract_x
_atom_site_fract_y
_atom_site_fract_z
Si Si1 0.845942 0.138502 0.083518
Si Si2 0.371809 0.418162 0.400576
Si Si3 0.738740 0.877829 0.155824
Si Si4 0.930523 0.806604 0.743362
Si Si5 0.105727 0.504643 0.106750
Si Si6 0.267650 0.956067 0.125432
O O1 0.899985 0.183011 0.155017
O O2 0.815609 0.338378 0.065414
O O3 0.790491 0.024302 0.130869
O O4 0.865010 0.000000 0.000000
O O5 0.394060 0.500000 0.500000
O O6 0.390310 0.559911 0.321027
O O7 0.394927 0.219255 0.371096
O O8 0.299411 0.398812 0.406881
O O9 0.675197 0.925877 0.105004
O O10 0.724388 0.891784 0.266392
O O11 0.764494 0.676996 0.130626
O O12 0.927274 0.614105 0.686557
O O13 0.000000 0.866310 0.750000
O O14 0.081427 0.500000 0.000000
#
# Coordination Sequence:
#
# PCOD9321921 Si02
#       6
#     8   8   8   8   8   8
#     4  12  27  43  67 104 150 190 233 294 364 447
#     4  12  23  40  73 110 139 182 237 298 370 438
#     4  12  20  38  68 107 148 180 219 294 374 444
#     4  12  28  49  70  98 144 198 251 304 354 424
#     4  12  22  42  73 108 137 177 239 307 365 432
#     4  12  21  37  67 106 148 180 222 289 376 439
#
# _framework density 21.057379999999998
#
# number of rings (size 3 to 8) (size 9 to 14) (size 15 to 20)
#    0.000    0.000   10.000    0.500    2.333    1.333 
#    0.000    0.000    0.000    0.000    0.000    0.000 
#    0.000    0.000    0.000    0.000    0.000    0.000 
#
# Total GULP energy -134147.594544 kJ/mol
# GULP energy per Si atom -5589.483106 kJ/mol
# Density = 2.100945 g / cm^3
# Si number density = 21.057380 Si / 1000 Ang^3
#
#
#
# Elastic Constant Matrix: (Units=GPa)
#
#
# Indices 1 2 3 4 5 6 
#
# 1 58.8972 -10.6024 13.2270 0.0000 0.0000 0.0000
# 2 -10.6024 147.5784 27.1160 0.0000 0.0000 0.0000
# 3 13.2270 27.1160 117.8508 0.0000 0.0000 0.0000
# 4 0.0000 0.0000 0.0000 31.5733 0.0000 0.0000
# 5 0.0000 0.0000 0.0000 0.0000 -0.8957 0.0000
# 6 0.0000 0.0000 0.0000 0.0000 0.0000 14.8586
#
#
#
# Elastic Compliance Matrix: (Units=1/GPa)
#
#
# Indices 1 2 3 4 5 6 
#
# 1 0.017827 0.001721 -0.002397 0.000000 0.000000 0.000000
# 2 0.001721 0.007241 -0.001859 0.000000 0.000000 0.000000
# 3 -0.002397 -0.001859 0.009182 0.000000 0.000000 0.000000
# 4 0.000000 0.000000 0.000000 0.031672 0.000000 0.000000
# 5 0.000000 0.000000 0.000000 0.000000 -1.116476 0.000000
# 6 0.000000 0.000000 0.000000 0.000000 0.000000 0.067301
#
#
# Mechanical properties :
#
#
# Convention : Reuss Voigt Hill
#
# Bulk Modulus (GPa) = 34.26972 42.64529 38.45750
# Shear Modulus (GPa) = -5.16286 28.74630 11.79172
#
# Velocity S-wave (km/s) = -1.56752 3.69879 2.36896
# Velocity P-wave (km/s) = 3.61021 6.20784 5.07794
#
# Compressibility (1/GPa) = 0.02918028
#
# Stress axis : x y z
#
# Youngs Moduli (GPa) = 56.09525 138.09598 108.90737
#
# Poissons Ratio (x) = -0.23768 0.26103
# Poissons Ratio (y) = -0.09655 0.20249
# Poissons Ratio (z) = 0.13445 0.25676
#
# Static dielectric constant tensor:
#      x y z
#    x 1.702050 0.000000 0.000000 
#    y 0.000000 1.829240 0.000000 
#    z 0.000000 0.000000 1.856090 
# 
# From -- ./inp_files/21644.got.cif
#   From: 2010.05.17/outbox.cif.g08.bks.cpg/sg20_11_cif.got.tgz:21644.got - 2010.06.03 22:52:26.
