data_PCOD9321332
_publ_section_title
;
Structure prediction by ZEFSAII (Michael W. Deem and Ramdas Pophale) SiO2 
 PCOD9321332
Probable space group: C 2 2 21
;
_chemical_formula_sum "Si O2"
_cell_formula_units_Z 60
_cell_length_a 24.192880
_cell_length_b 5.493645
_cell_length_c 19.955326
_cell_angle_alpha 90.000000
_cell_angle_beta 90.000000
_cell_angle_gamma 90.000000
_cell_volume 2652.204393
_symmetry_space_group_name_H-M "C 2 2 21"
_symmetry_group_IT_number 20
_symmetry_cell_setting 'orthorhombic'
loop_
_space_group_symop_operation_xyz
x,y,z
-x,-y,1/2+z
x,-y,-z
-x,y,1/2-z
1/2+x,1/2+y,z
1/2-x,1/2-y,1/2+z
1/2+x,1/2-y,-z
1/2-x,1/2+y,1/2-z
loop_
_atom_site_type_symbol
_atom_site_label
_atom_site_fract_x
_atom_site_fract_y
_atom_site_fract_z
Si Si1 0.938384 0.254141 0.726444
Si Si2 0.921112 0.241662 0.353752
Si Si3 0.375861 0.500000 0.000000
Si Si4 0.114957 0.651378 0.357491
Si Si5 0.799964 0.949786 0.087590
Si Si6 0.029785 0.340297 0.435298
Si Si7 0.288256 0.188374 0.802113
Si Si8 0.204760 0.826761 0.852240
O O1 0.920025 0.501337 0.687668
O O2 0.903949 0.199793 0.793483
O O3 0.000000 0.304390 0.750000
O O4 0.935608 0.003250 0.686612
O O5 0.857979 0.192979 0.376014
O O6 0.971097 0.257399 0.406472
O O7 0.318526 0.343436 0.963058
O O8 0.423973 0.350936 0.957141
O O9 0.140482 0.803020 0.420372
O O10 0.062157 0.503270 0.380978
O O11 0.165498 0.493853 0.329841
O O12 0.744859 0.795536 0.092445
O O13 0.801814 0.059218 0.162282
O O14 0.017761 0.500000 0.500000
O O15 0.290731 0.201234 0.721991
O O16 0.230281 0.090883 0.832852
#
# Coordination Sequence:
#
# PCOD9321332 Si02
#       8
#     8   8   4   8   8   8   8   8
#     4  12  26  43  71 111 150 193 237 311 378 459
#     4  12  29  46  73 108 155 197 251 302 389 462
#     4  12  26  46  76 100 136 192 264 320 360 438
#     4  11  23  41  70 107 143 184 242 307 379 439
#     4  11  24  41  70 102 140 186 242 308 361 442
#     4  12  27  49  73 103 146 203 258 317 372 451
#     4  11  21  38  69 105 144 182 234 299 382 444
#     4  11  24  41  66 107 146 191 231 303 383 466
#
# _framework density 22.622689000000001
#
# number of rings (size 3 to 8) (size 9 to 14) (size 15 to 20)
#    0.000    0.533    6.667    1.200    7.467    0.000 
#    1.200    0.000    0.000    0.000    0.000    0.000 
#    0.000    0.000    0.000    0.000    0.000    0.000 
#
# Total GULP energy -167070.452598 kJ/mol
# GULP energy per Si atom -5569.015087 kJ/mol
# Density = 2.257120 g / cm^3
# Si number density = 22.622689 Si / 1000 Ang^3
#
#
#
# Elastic Constant Matrix: (Units=GPa)
#
#
# Indices 1 2 3 4 5 6 
#
# 1 183.4298 24.2127 49.8884 0.0000 0.0000 0.0000
# 2 24.2127 55.6809 19.0781 0.0000 0.0000 0.0000
# 3 49.8884 19.0781 79.0577 0.0000 0.0000 0.0000
# 4 0.0000 0.0000 0.0000 27.7205 0.0000 0.0000
# 5 0.0000 0.0000 0.0000 0.0000 46.3176 0.0000
# 6 0.0000 0.0000 0.0000 0.0000 0.0000 30.4036
#
#
#
# Elastic Compliance Matrix: (Units=1/GPa)
#
#
# Indices 1 2 3 4 5 6 
#
# 1 0.006709 -0.001599 -0.003848 0.000000 0.000000 0.000000
# 2 -0.001599 0.019959 -0.003807 0.000000 0.000000 0.000000
# 3 -0.003848 -0.003807 0.015996 0.000000 0.000000 0.000000
# 4 0.000000 0.000000 0.000000 0.036074 0.000000 0.000000
# 5 0.000000 0.000000 0.000000 0.000000 0.021590 0.000000
# 6 0.000000 0.000000 0.000000 0.000000 0.000000 0.032891
#
#
# Mechanical properties :
#
#
# Convention : Reuss Voigt Hill
#
# Bulk Modulus (GPa) = 41.39815 56.05852 48.72833
# Shear Modulus (GPa) = 31.29285 35.88762 33.59024
#
# Velocity S-wave (km/s) = 3.72324 3.98723 3.85749
# Velocity P-wave (km/s) = 6.06815 6.78461 6.43636
#
# Compressibility (1/GPa) = 0.02415567
#
# Stress axis : x y z
#
# Youngs Moduli (GPa) = 149.04688 50.10170 62.51568
#
# Poissons Ratio (x) = 0.08012 0.24056
# Poissons Ratio (y) = 0.23834 0.23803
# Poissons Ratio (z) = 0.57352 0.19076
#
# Static dielectric constant tensor:
#      x y z
#    x 1.864710 0.000000 0.000000 
#    y 0.000000 1.952030 0.000000 
#    z 0.000000 0.000000 1.721420 
# 
# From -- ./inp_files/28043.got.cif
#   From: 2010.05.17/outbox.cif.g08.bks.cpg/sg20_15_cif.got.tgz:28043.got - 2010.06.03 22:52:26.
