data_PCOD9321840
_publ_section_title
;
Structure prediction by ZEFSAII (Michael W. Deem and Ramdas Pophale) SiO2 
 PCOD9321840
Probable space group: C 2 2 21
;
_chemical_formula_sum "Si O2"
_cell_formula_units_Z 40
_cell_length_a 22.307960
_cell_length_b 7.909259
_cell_length_c 8.891185
_cell_angle_alpha 90.000000
_cell_angle_beta 90.000000
_cell_angle_gamma 90.000000
_cell_volume 1568.755644
_symmetry_space_group_name_H-M "C 2 2 21"
_symmetry_group_IT_number 20
_symmetry_cell_setting 'orthorhombic'
loop_
_space_group_symop_operation_xyz
x,y,z
-x,-y,1/2+z
x,-y,-z
-x,y,1/2-z
1/2+x,1/2+y,z
1/2-x,1/2-y,1/2+z
1/2+x,1/2-y,-z
1/2-x,1/2+y,1/2-z
loop_
_atom_site_type_symbol
_atom_site_label
_atom_site_fract_x
_atom_site_fract_y
_atom_site_fract_z
Si Si1 0.142512 0.576663 0.347072
Si Si2 0.939803 0.087018 0.839935
Si Si3 0.569929 0.777560 0.220698
Si Si4 0.253513 0.627065 0.130137
Si Si5 0.669719 0.672074 0.075400
O O1 0.168897 0.500000 0.500000
O O2 0.108797 0.760329 0.354265
O O3 0.092918 0.435311 0.314337
O O4 0.195166 0.568024 0.224342
O O5 0.000000 0.143452 0.750000
O O6 0.915159 0.918910 0.758549
O O7 0.956988 0.000000 0.000000
O O8 0.500000 0.781775 0.250000
O O9 0.610511 0.791257 0.070590
O O10 0.301472 0.671922 0.257002
O O11 0.276653 0.500000 0.000000
O O12 0.224324 0.771447 0.030126
O O13 0.650863 0.500000 0.000000
#
# Coordination Sequence:
#
# PCOD9321840 Si02
#       5
#     8   8   8   8   8
#     4  12  25  49  77 113 156 213 264 333 405 476
#     4  11  25  46  72 109 153 208 266 328 398 476
#     4  11  26  49  79 115 159 210 271 328 403 485
#     4  12  27  49  79 115 158 201 270 336 407 484
#     4  12  27  50  79 116 159 213 269 340 408 485
#
# _framework density 25.497917000000001
#
# number of rings (size 3 to 8) (size 9 to 14) (size 15 to 20)
#    0.000    0.400    4.000    3.600    2.800    7.200 
#    3.600    0.000    0.000    0.000    0.000    0.000 
#    0.000    0.000    0.000    0.000    0.000    0.000 
#
# Total GULP energy -111649.999400 kJ/mol
# GULP energy per Si atom -5582.499970 kJ/mol
# Density = 2.543988 g / cm^3
# Si number density = 25.497917 Si / 1000 Ang^3
#
#
#
# Elastic Constant Matrix: (Units=GPa)
#
#
# Indices 1 2 3 4 5 6 
#
# 1 189.0288 53.4641 62.7327 0.0000 0.0000 0.0000
# 2 53.4641 123.6242 31.5579 0.0000 0.0000 0.0000
# 3 62.7327 31.5579 135.5799 0.0000 0.0000 0.0000
# 4 0.0000 0.0000 0.0000 40.8576 0.0000 0.0000
# 5 0.0000 0.0000 0.0000 0.0000 36.2142 0.0000
# 6 0.0000 0.0000 0.0000 0.0000 0.0000 34.3844
#
#
#
# Elastic Compliance Matrix: (Units=1/GPa)
#
#
# Indices 1 2 3 4 5 6 
#
# 1 0.006802 -0.002273 -0.002618 0.000000 0.000000 0.000000
# 2 -0.002273 0.009360 -0.001127 0.000000 0.000000 0.000000
# 3 -0.002618 -0.001127 0.008849 0.000000 0.000000 0.000000
# 4 0.000000 0.000000 0.000000 0.024475 0.000000 0.000000
# 5 0.000000 0.000000 0.000000 0.000000 0.027613 0.000000
# 6 0.000000 0.000000 0.000000 0.000000 0.000000 0.029083
#
#
# Mechanical properties :
#
#
# Convention : Reuss Voigt Hill
#
# Bulk Modulus (GPa) = 77.07251 82.63801 79.85526
# Shear Modulus (GPa) = 40.80154 42.32313 41.56234
#
# Velocity S-wave (km/s) = 4.00458 4.07857 4.04174
# Velocity P-wave (km/s) = 7.18852 7.39322 7.29159
#
# Compressibility (1/GPa) = 0.01297480
#
# Stress axis : x y z
#
# Youngs Moduli (GPa) = 147.01407 106.83961 113.00200
#
# Poissons Ratio (x) = 0.24289 0.29586
# Poissons Ratio (y) = 0.33422 0.12732
# Poissons Ratio (z) = 0.38491 0.12038
#
# Static dielectric constant tensor:
#      x y z
#    x 2.003150 0.000000 0.000000 
#    y 0.000000 1.875960 0.000000 
#    z 0.000000 0.000000 2.161890 
# 
# From -- ./inp_files/10490.got.cif
#   From: 2010.05.17/outbox.cif.g08.bks.cpg/sg20_6_cif.got.tgz:10490.got - 2010.06.03 22:52:26.
