data_PCOD9321902
_publ_section_title
;
Structure prediction by ZEFSAII (Michael W. Deem and Ramdas Pophale) SiO2 
 PCOD9321902
Probable space group: C 2 2 21
;
_chemical_formula_sum "Si O2"
_cell_formula_units_Z 32
_cell_length_a 13.513318
_cell_length_b 5.141608
_cell_length_c 18.149160
_cell_angle_alpha 90.000000
_cell_angle_beta 90.000000
_cell_angle_gamma 90.000000
_cell_volume 1261.006975
_symmetry_space_group_name_H-M "C 2 2 21"
_symmetry_group_IT_number 20
_symmetry_cell_setting 'orthorhombic'
loop_
_space_group_symop_operation_xyz
x,y,z
-x,-y,1/2+z
x,-y,-z
-x,y,1/2-z
1/2+x,1/2+y,z
1/2-x,1/2-y,1/2+z
1/2+x,1/2-y,-z
1/2-x,1/2+y,1/2-z
loop_
_atom_site_type_symbol
_atom_site_label
_atom_site_fract_x
_atom_site_fract_y
_atom_site_fract_z
Si Si1 0.160009 0.930163 0.583309
Si Si2 0.764067 0.254490 0.300897
Si Si3 0.623235 0.247444 0.050830
Si Si4 0.525567 0.436385 0.834207
O O1 0.189822 0.179534 0.632887
O O2 0.263250 0.776280 0.578266
O O3 0.132087 0.000000 0.500000
O O4 0.068026 0.807093 0.625872
O O5 0.874141 0.229660 0.333375
O O6 0.758379 0.494469 0.244244
O O7 0.552644 0.306563 0.119354
O O8 0.615865 0.500000 0.000000
O O9 0.601226 0.000000 0.000000
O O10 0.500000 0.494988 0.750000
#
# Coordination Sequence:
#
# PCOD9321902 Si02
#       4
#     8   8   8   8
#     4  11  26  52  83 117 160 211 265 332 404 471
#     4  12  27  55  79 118 168 213 266 333 402 480
#     4  11  26  56  80 114 165 212 264 338 402 478
#     4  12  26  50  84 121 158 214 272 326 401 480
#
# _framework density 25.376543000000002
#
# number of rings (size 3 to 8) (size 9 to 14) (size 15 to 20)
#    0.000    0.500    2.500    5.250    0.000    0.000 
#   13.500   15.000    0.000    0.000    0.000    0.000 
#    0.000    0.000    0.000    0.000    0.000    0.000 
#
# Total GULP energy -89802.592434 kJ/mol
# GULP energy per Si atom -5612.662027 kJ/mol
# Density = 2.531878 g / cm^3
# Si number density = 25.376543 Si / 1000 Ang^3
#
#
#
# Elastic Constant Matrix: (Units=GPa)
#
#
# Indices 1 2 3 4 5 6 
#
# 1 145.8019 18.6762 61.6384 0.0000 0.0000 0.0000
# 2 18.6762 129.1611 40.6101 0.0000 0.0000 0.0000
# 3 61.6384 40.6101 200.7495 0.0000 0.0000 0.0000
# 4 0.0000 0.0000 0.0000 39.8382 0.0000 0.0000
# 5 0.0000 0.0000 0.0000 0.0000 58.6190 0.0000
# 6 0.0000 0.0000 0.0000 0.0000 0.0000 26.3903
#
#
#
# Elastic Compliance Matrix: (Units=1/GPa)
#
#
# Indices 1 2 3 4 5 6 
#
# 1 0.007902 -0.000406 -0.002344 0.000000 0.000000 0.000000
# 2 -0.000406 0.008289 -0.001552 0.000000 0.000000 0.000000
# 3 -0.002344 -0.001552 0.006015 0.000000 0.000000 0.000000
# 4 0.000000 0.000000 0.000000 0.025102 0.000000 0.000000
# 5 0.000000 0.000000 0.000000 0.000000 0.017059 0.000000
# 6 0.000000 0.000000 0.000000 0.000000 0.000000 0.037893
#
#
# Mechanical properties :
#
#
# Convention : Reuss Voigt Hill
#
# Bulk Modulus (GPa) = 73.51951 79.72908 76.62429
# Shear Modulus (GPa) = 43.32876 48.62202 45.97539
#
# Velocity S-wave (km/s) = 4.13659 4.38199 4.26106
# Velocity P-wave (km/s) = 7.20066 7.55573 7.38033
#
# Compressibility (1/GPa) = 0.01360183
#
# Stress axis : x y z
#
# Youngs Moduli (GPa) = 126.55778 120.64237 166.24908
#
# Poissons Ratio (x) = 0.04892 0.38970
# Poissons Ratio (y) = 0.05132 0.25807
# Poissons Ratio (z) = 0.29666 0.18727
#
# Static dielectric constant tensor:
#      x y z
#    x 1.979660 0.000000 0.000000 
#    y 0.000000 1.982920 0.000000 
#    z 0.000000 0.000000 2.005080 
# 
# From -- ./inp_files/24607.got.cif
#   From: 2010.05.17/outbox.cif.g08.bks.cpg/sg20_13_cif.got.tgz:24607.got - 2010.06.03 22:52:26.
