data_PCOD9321684
_publ_section_title
;
Structure prediction by ZEFSAII (Michael W. Deem and Ramdas Pophale) SiO2 
 PCOD9321684
Probable space group: C 2 2 21
;
_chemical_formula_sum "Si O2"
_cell_formula_units_Z 48
_cell_length_a 24.381165
_cell_length_b 7.573186
_cell_length_c 10.624456
_cell_angle_alpha 90.000000
_cell_angle_beta 90.000000
_cell_angle_gamma 90.000000
_cell_volume 1961.732464
_symmetry_space_group_name_H-M "C 2 2 21"
_symmetry_group_IT_number 20
_symmetry_cell_setting 'orthorhombic'
loop_
_space_group_symop_operation_xyz
x,y,z
-x,-y,1/2+z
x,-y,-z
-x,y,1/2-z
1/2+x,1/2+y,z
1/2-x,1/2-y,1/2+z
1/2+x,1/2-y,-z
1/2-x,1/2+y,1/2-z
loop_
_atom_site_type_symbol
_atom_site_label
_atom_site_fract_x
_atom_site_fract_y
_atom_site_fract_z
Si Si1 0.850225 0.777728 0.223519
Si Si2 0.611673 0.388015 0.884789
Si Si3 0.704488 0.187002 0.046071
Si Si4 0.819227 0.702043 0.970399
Si Si5 0.064526 0.816723 0.638626
Si Si6 0.035786 0.766737 0.373150
O O1 0.828071 0.648214 0.326786
O O2 0.812041 0.799865 0.104437
O O3 0.905063 0.697065 0.166342
O O4 0.862242 0.957794 0.298224
O O5 0.570313 0.284349 0.790200
O O6 0.583903 0.500000 0.000000
O O7 0.661436 0.280209 0.949890
O O8 0.758384 0.295360 0.086857
O O9 0.722825 0.000000 0.000000
O O10 0.831820 0.500000 0.000000
O O11 0.871680 0.789041 0.903613
O O12 0.030370 0.724506 0.523169
O O13 0.044223 0.019970 0.632343
O O14 0.000000 0.719075 0.250000
#
# Coordination Sequence:
#
# PCOD9321684 Si02
#       6
#     8   8   8   8   8   8
#     4   9  21  40  60  87 127 169 220 280 337 407
#     4   9  19  40  60  87 133 175 218 275 334 402
#     4  11  25  35  60  94 134 185 221 275 341 415
#     4  11  24  38  64  92 134 184 229 276 343 418
#     4   9  20  37  63  94 131 166 222 279 339 416
#     4   9  18  39  68  97 124 166 226 292 348 402
#
# _framework density 24.468167000000001
#
# number of rings (size 3 to 8) (size 9 to 14) (size 15 to 20)
#    0.000    2.333    0.000    2.500   11.667    0.000 
#   24.000    0.000    0.000    8.000    0.000    0.000 
#    0.000    0.000    0.000    0.000    0.000    0.000 
#
# Total GULP energy -133629.031691 kJ/mol
# GULP energy per Si atom -5567.876320 kJ/mol
# Density = 2.441248 g / cm^3
# Si number density = 24.468167 Si / 1000 Ang^3
#
#
#
# Elastic Constant Matrix: (Units=GPa)
#
#
# Indices 1 2 3 4 5 6 
#
# 1 71.0692 23.6065 53.3950 0.0000 0.0000 0.0000
# 2 23.6065 35.0407 22.1418 0.0000 0.0000 0.0000
# 3 53.3950 22.1418 186.4029 0.0000 0.0000 0.0000
# 4 0.0000 0.0000 0.0000 14.2854 0.0000 0.0000
# 5 0.0000 0.0000 0.0000 0.0000 31.4122 0.0000
# 6 0.0000 0.0000 0.0000 0.0000 0.0000 19.4299
#
#
#
# Elastic Compliance Matrix: (Units=1/GPa)
#
#
# Indices 1 2 3 4 5 6 
#
# 1 0.021469 -0.011436 -0.004791 0.000000 0.000000 0.000000
# 2 -0.011436 0.036946 -0.001113 0.000000 0.000000 0.000000
# 3 -0.004791 -0.001113 0.006869 0.000000 0.000000 0.000000
# 4 0.000000 0.000000 0.000000 0.070002 0.000000 0.000000
# 5 0.000000 0.000000 0.000000 0.000000 0.031835 0.000000
# 6 0.000000 0.000000 0.000000 0.000000 0.000000 0.051467
#
#
# Mechanical properties :
#
#
# Convention : Reuss Voigt Hill
#
# Bulk Modulus (GPa) = 32.67545 54.53328 43.60436
# Shear Modulus (GPa) = 18.97754 25.91680 22.44717
#
# Velocity S-wave (km/s) = 2.78798 3.25807 3.03215
# Velocity P-wave (km/s) = 4.87310 6.04063 5.48800
#
# Compressibility (1/GPa) = 0.03060402
#
# Stress axis : x y z
#
# Youngs Moduli (GPa) = 46.57829 27.06679 145.57309
#
# Poissons Ratio (x) = 0.30953 0.69750
# Poissons Ratio (y) = 0.53267 0.16199
# Poissons Ratio (z) = 0.22318 0.03012
#
# Static dielectric constant tensor:
#      x y z
#    x 1.989730 0.000000 0.000000 
#    y 0.000000 1.967410 0.000000 
#    z 0.000000 0.000000 2.207470 
# 
# From -- ./inp_files/16961.got.cif
#   From: 2010.05.17/outbox.cif.g08.bks.cpg/sg20_9_cif.got.tgz:16961.got - 2010.06.03 22:52:26.
