data_PCOD9321148
_publ_section_title
;
Structure prediction by ZEFSAII (Michael W. Deem and Ramdas Pophale) SiO2 
 PCOD9321148
Probable space group: C 2 2 21
;
_chemical_formula_sum "Si O2"
_cell_formula_units_Z 60
_cell_length_a 13.268082
_cell_length_b 13.047738
_cell_length_c 16.852561
_cell_angle_alpha 90.000000
_cell_angle_beta 90.000000
_cell_angle_gamma 90.000000
_cell_volume 2917.489369
_symmetry_space_group_name_H-M "C 2 2 21"
_symmetry_group_IT_number 20
_symmetry_cell_setting 'orthorhombic'
loop_
_space_group_symop_operation_xyz
x,y,z
-x,-y,1/2+z
x,-y,-z
-x,y,1/2-z
1/2+x,1/2+y,z
1/2-x,1/2-y,1/2+z
1/2+x,1/2-y,-z
1/2-x,1/2+y,1/2-z
loop_
_atom_site_type_symbol
_atom_site_label
_atom_site_fract_x
_atom_site_fract_y
_atom_site_fract_z
Si Si1 0.107102 0.953954 0.291042
Si Si2 0.110057 0.516858 0.591882
Si Si3 0.791629 0.905022 0.671496
Si Si4 0.159050 0.258705 0.752218
Si Si5 0.500000 0.940735 0.750000
Si Si6 0.644076 0.588081 0.444778
Si Si7 0.077350 0.884865 0.969876
Si Si8 0.261380 0.706883 0.583744
O O1 0.120256 0.832134 0.304432
O O2 0.000000 0.965776 0.250000
O O3 0.190681 0.002372 0.232364
O O4 0.111928 0.023613 0.368097
O O5 0.072690 0.500000 0.500000
O O6 0.199917 0.435505 0.612460
O O7 0.033113 0.501742 0.668183
O O8 0.170180 0.625033 0.589784
O O9 0.762069 0.803615 0.718453
O O10 0.891010 0.884613 0.621368
O O11 0.090791 0.359594 0.763761
O O12 0.175084 0.205022 0.835705
O O13 0.689935 0.500000 0.500000
O O14 0.540718 0.634282 0.481577
O O15 0.716989 0.680398 0.426219
O O16 0.158016 0.816846 0.015644
O O17 0.095059 0.000000 0.000000
#
# Coordination Sequence:
#
# PCOD9321148 Si02
#       8
#     8   8   8   8   4   8   8   8
#     4  12  22  41  67  95 131 169 223 286 339 408
#     4  11  22  43  73  96 135 180 236 284 339 428
#     4  11  20  40  65  96 124 171 228 279 340 411
#     4  11  24  39  68  95 135 178 224 279 350 415
#     4  10  26  44  66 104 136 184 236 286 348 424
#     4  11  28  42  63 101 139 172 227 292 347 416
#     4  11  21  42  68  94 127 174 227 279 342 423
#     4  12  23  44  66 100 133 180 227 282 354 417
#
# _framework density 20.565629000000001
#
# number of rings (size 3 to 8) (size 9 to 14) (size 15 to 20)
#    0.000    0.800    7.333    0.000    3.733    1.067 
#    3.600    2.000    0.000    0.000    0.000    0.000 
#    0.000    0.000    0.000    0.000    0.000    0.000 
#
# Total GULP energy -167330.885723 kJ/mol
# GULP energy per Si atom -5577.696191 kJ/mol
# Density = 2.051882 g / cm^3
# Si number density = 20.565629 Si / 1000 Ang^3
#
#
#
# Elastic Constant Matrix: (Units=GPa)
#
#
# Indices 1 2 3 4 5 6 
#
# 1 42.0308 15.7809 14.6844 0.0000 0.0000 0.0000
# 2 15.7809 73.6491 22.2284 0.0000 0.0000 0.0000
# 3 14.6844 22.2284 79.4143 0.0000 0.0000 0.0000
# 4 0.0000 0.0000 0.0000 29.8522 0.0000 0.0000
# 5 0.0000 0.0000 0.0000 0.0000 56.1089 0.0000
# 6 0.0000 0.0000 0.0000 0.0000 0.0000 19.3441
#
#
#
# Elastic Compliance Matrix: (Units=1/GPa)
#
#
# Indices 1 2 3 4 5 6 
#
# 1 0.026813 -0.004641 -0.003659 0.000000 0.000000 0.000000
# 2 -0.004641 0.015634 -0.003518 0.000000 0.000000 0.000000
# 3 -0.003659 -0.003518 0.014253 0.000000 0.000000 0.000000
# 4 0.000000 0.000000 0.000000 0.033498 0.000000 0.000000
# 5 0.000000 0.000000 0.000000 0.000000 0.017822 0.000000
# 6 0.000000 0.000000 0.000000 0.000000 0.000000 0.051695
#
#
# Mechanical properties :
#
#
# Convention : Reuss Voigt Hill
#
# Bulk Modulus (GPa) = 30.24354 33.38684 31.81519
# Shear Modulus (GPa) = 25.72366 30.55441 28.13903
#
# Velocity S-wave (km/s) = 3.54051 3.85866 3.70301
# Velocity P-wave (km/s) = 5.60816 6.01015 5.81263
#
# Compressibility (1/GPa) = 0.03306492
#
# Stress axis : x y z
#
# Youngs Moduli (GPa) = 37.29553 63.96287 70.15849
#
# Poissons Ratio (x) = 0.29685 0.25670
# Poissons Ratio (y) = 0.17308 0.24681
# Poissons Ratio (z) = 0.13646 0.22502
#
# Static dielectric constant tensor:
#      x y z
#    x 1.758130 0.000000 0.000000 
#    y 0.000000 1.688480 0.000000 
#    z 0.000000 0.000000 1.855380 
# 
# From -- ./inp_files/24951.got.cif
#   From: 2010.05.17/outbox.cif.g08.bks.cpg/sg20_13_cif.got.tgz:24951.got - 2010.06.03 22:52:26.
