data_PCOD9321232
_publ_section_title
;
Structure prediction by ZEFSAII (Michael W. Deem and Ramdas Pophale) SiO2 
 PCOD9321232
Probable space group: C 2 2 21
;
_chemical_formula_sum "Si O2"
_cell_formula_units_Z 60
_cell_length_a 14.642115
_cell_length_b 17.457724
_cell_length_c 11.881986
_cell_angle_alpha 90.000000
_cell_angle_beta 90.000000
_cell_angle_gamma 90.000000
_cell_volume 3037.249526
_symmetry_space_group_name_H-M "C 2 2 21"
_symmetry_group_IT_number 20
_symmetry_cell_setting 'orthorhombic'
loop_
_space_group_symop_operation_xyz
x,y,z
-x,-y,1/2+z
x,-y,-z
-x,y,1/2-z
1/2+x,1/2+y,z
1/2-x,1/2-y,1/2+z
1/2+x,1/2-y,-z
1/2-x,1/2+y,1/2-z
loop_
_atom_site_type_symbol
_atom_site_label
_atom_site_fract_x
_atom_site_fract_y
_atom_site_fract_z
Si Si1 0.691741 0.843429 0.087099
Si Si2 0.269885 0.440960 0.255655
Si Si3 0.976054 0.438695 0.419606
Si Si4 0.806961 0.833138 0.634418
Si Si5 0.438090 0.523446 0.367557
Si Si6 0.695607 0.894137 0.829153
Si Si7 0.000000 0.563294 0.250000
Si Si8 0.664771 0.910702 0.470115
O O1 0.776314 0.879263 0.155986
O O2 0.600018 0.885855 0.131427
O O3 0.676405 0.754076 0.102791
O O4 0.699884 0.868534 0.957698
O O5 0.357975 0.465099 0.328131
O O6 0.230002 0.519459 0.200638
O O7 0.202182 0.402581 0.345131
O O8 0.925830 0.500000 0.500000
O O9 0.028057 0.500311 0.342901
O O10 0.057373 0.391764 0.476483
O O11 0.891124 0.892424 0.623136
O O12 0.763421 0.840886 0.758070
O O13 0.726436 0.863646 0.554209
O O14 0.467563 0.500000 0.500000
O O15 0.500000 0.524621 0.250000
O O16 0.589741 0.891662 0.787864
O O17 0.678722 0.000000 0.500000
#
# Coordination Sequence:
#
# PCOD9321232 Si02
#       8
#     8   8   8   8   8   8   4   8
#     4  12  25  38  63 101 147 167 218 279 344 412
#     4  11  20  41  70  92 126 176 221 270 336 400
#     4  11  19  34  62 102 126 161 211 271 324 392
#     4  11  25  43  64  93 137 188 212 272 350 417
#     4  11  24  47  76  97 125 178 252 295 327 394
#     4  11  22  39  64  99 130 174 224 273 336 403
#     4  12  18  36  66  98 128 160 214 278 334 394
#     4  11  18  39  71  94 124 173 230 255 323 413
#
# _framework density 19.754715999999998
#
# number of rings (size 3 to 8) (size 9 to 14) (size 15 to 20)
#    0.000    0.800    8.000    1.200    1.867    2.133 
#    3.600    1.333    2.933    0.000    0.000    0.000 
#    0.000    0.000    0.000    0.000    0.000    0.000 
#
# Total GULP energy -167055.209889 kJ/mol
# GULP energy per Si atom -5568.506996 kJ/mol
# Density = 1.970975 g / cm^3
# Si number density = 19.754716 Si / 1000 Ang^3
#
#
#
# Elastic Constant Matrix: (Units=GPa)
#
#
# Indices 1 2 3 4 5 6 
#
# 1 54.6567 16.7859 25.8923 0.0000 0.0000 0.0000
# 2 16.7859 75.0462 28.8041 0.0000 0.0000 0.0000
# 3 25.8923 28.8041 134.0727 0.0000 0.0000 0.0000
# 4 0.0000 0.0000 0.0000 15.5240 0.0000 0.0000
# 5 0.0000 0.0000 0.0000 0.0000 32.0820 0.0000
# 6 0.0000 0.0000 0.0000 0.0000 0.0000 4.0102
#
#
#
# Elastic Compliance Matrix: (Units=1/GPa)
#
#
# Indices 1 2 3 4 5 6 
#
# 1 0.020909 -0.003408 -0.003306 0.000000 0.000000 0.000000
# 2 -0.003408 0.015078 -0.002581 0.000000 0.000000 0.000000
# 3 -0.003306 -0.002581 0.008652 0.000000 0.000000 0.000000
# 4 0.000000 0.000000 0.000000 0.064416 0.000000 0.000000
# 5 0.000000 0.000000 0.000000 0.000000 0.031170 0.000000
# 6 0.000000 0.000000 0.000000 0.000000 0.000000 0.249365
#
#
# Mechanical properties :
#
#
# Convention : Reuss Voigt Hill
#
# Bulk Modulus (GPa) = 38.38984 45.19337 41.79161
# Shear Modulus (GPa) = 11.99435 23.14279 17.56857
#
# Velocity S-wave (km/s) = 2.46674 3.42644 2.98541
# Velocity P-wave (km/s) = 5.25248 6.21135 5.75193
#
# Compressibility (1/GPa) = 0.02604856
#
# Stress axis : x y z
#
# Youngs Moduli (GPa) = 47.82703 66.32131 115.58548
#
# Poissons Ratio (x) = 0.22602 0.38210
# Poissons Ratio (y) = 0.16299 0.29835
# Poissons Ratio (z) = 0.15810 0.17119
#
# Static dielectric constant tensor:
#      x y z
#    x 1.730900 0.000000 0.000000 
#    y 0.000000 1.673280 0.000000 
#    z 0.000000 0.000000 1.959460 
# 
# From -- ./inp_files/15295.got.cif
#   From: 2010.05.17/outbox.cif.g08.bks.cpg/sg20_8_cif.got.tgz:15295.got - 2010.06.03 22:52:26.
