data_PCOD9321122
_publ_section_title
;
Structure prediction by ZEFSAII (Michael W. Deem and Ramdas Pophale) SiO2 
 PCOD9321122
Probable space group: C 2 2 21
;
_chemical_formula_sum "Si O2"
_cell_formula_units_Z 24
_cell_length_a 8.730770
_cell_length_b 11.038954
_cell_length_c 8.923152
_cell_angle_alpha 90.000000
_cell_angle_beta 90.000000
_cell_angle_gamma 90.000000
_cell_volume 860.000616
_symmetry_space_group_name_H-M "C 2 2 21"
_symmetry_group_IT_number 20
_symmetry_cell_setting 'orthorhombic'
loop_
_space_group_symop_operation_xyz
x,y,z
-x,-y,1/2+z
x,-y,-z
-x,y,1/2-z
1/2+x,1/2+y,z
1/2-x,1/2-y,1/2+z
1/2+x,1/2-y,-z
1/2-x,1/2+y,1/2-z
loop_
_atom_site_type_symbol
_atom_site_label
_atom_site_fract_x
_atom_site_fract_y
_atom_site_fract_z
Si Si1 0.282690 0.629167 0.633882
Si Si2 0.178695 0.620000 0.240543
Si Si3 0.937010 0.189912 0.077919
O O1 0.260076 0.491900 0.677827
O O2 0.301011 0.732525 0.764034
O O3 0.124325 0.673130 0.555664
O O4 0.433644 0.648525 0.534578
O O5 0.274822 0.619699 0.083758
O O6 0.000000 0.595730 0.250000
O O7 0.000000 0.181302 0.250000
#
# Coordination Sequence:
#
# PCOD9321122 Si02
#       3
#     8   8   8
#     4  10  25  53  86 124 171 234 290 364 438 528
#     4  10  25  51  92 118 173 233 296 358 443 522
#     4  10  25  48  87 125 170 231 285 364 444 519
#
# _framework density 27.906959000000001
#
# number of rings (size 3 to 8) (size 9 to 14) (size 15 to 20)
#    2.000    0.000    0.000    1.000    4.667    2.667 
#    0.000   15.000    7.333    0.000    0.000    0.000 
#    0.000    0.000    0.000    0.000    0.000    0.000 
#
# Total GULP energy -66925.934324 kJ/mol
# GULP energy per Si atom -5577.161194 kJ/mol
# Density = 2.784344 g / cm^3
# Si number density = 27.906959 Si / 1000 Ang^3
#
#
#
# Elastic Constant Matrix: (Units=GPa)
#
#
# Indices 1 2 3 4 5 6 
#
# 1 236.6006 117.5051 70.3229 0.0000 0.0000 0.0000
# 2 117.5051 232.6212 91.2353 0.0000 0.0000 0.0000
# 3 70.3229 91.2353 106.5700 0.0000 0.0000 0.0000
# 4 0.0000 0.0000 0.0000 52.6640 0.0000 0.0000
# 5 0.0000 0.0000 0.0000 0.0000 35.3780 0.0000
# 6 0.0000 0.0000 0.0000 0.0000 0.0000 45.4525
#
#
#
# Elastic Compliance Matrix: (Units=1/GPa)
#
#
# Indices 1 2 3 4 5 6 
#
# 1 0.005919 -0.002195 -0.002027 0.000000 0.000000 0.000000
# 2 -0.002195 0.007286 -0.004789 0.000000 0.000000 0.000000
# 3 -0.002027 -0.004789 0.014821 0.000000 0.000000 0.000000
# 4 0.000000 0.000000 0.000000 0.018988 0.000000 0.000000
# 5 0.000000 0.000000 0.000000 0.000000 0.028266 0.000000
# 6 0.000000 0.000000 0.000000 0.000000 0.000000 0.022001
#
#
# Mechanical properties :
#
#
# Convention : Reuss Voigt Hill
#
# Bulk Modulus (GPa) = 99.95754 125.99092 112.97423
# Shear Modulus (GPa) = 42.14522 46.48082 44.31302
#
# Velocity S-wave (km/s) = 3.89035 4.08556 3.98915
# Velocity P-wave (km/s) = 7.48837 8.21587 7.86054
#
# Compressibility (1/GPa) = 0.01000425
#
# Stress axis : x y z
#
# Youngs Moduli (GPa) = 168.94629 137.25076 67.47282
#
# Poissons Ratio (x) = 0.30127 0.13674
# Poissons Ratio (y) = 0.37085 0.32313
# Poissons Ratio (z) = 0.34239 0.65730
#
# Static dielectric constant tensor:
#      x y z
#    x 2.228700 0.000000 0.000000 
#    y 0.000000 2.140860 0.000000 
#    z 0.000000 0.000000 2.533270 
# 
# From -- ./inp_files/12299.got.cif
#   From: 2010.05.17/outbox.cif.g08.bks.cpg/sg20_7_cif.got.tgz:12299.got - 2010.06.03 22:52:26.
