data_PCOD9321615
_publ_section_title
;
Structure prediction by ZEFSAII (Michael W. Deem and Ramdas Pophale) SiO2 
 PCOD9321615
Probable space group: C 2 2 21
;
_chemical_formula_sum "Si O2"
_cell_formula_units_Z 36
_cell_length_a 25.772596
_cell_length_b 4.945136
_cell_length_c 12.683834
_cell_angle_alpha 90.000000
_cell_angle_beta 90.000000
_cell_angle_gamma 90.000000
_cell_volume 1616.541862
_symmetry_space_group_name_H-M "C 2 2 21"
_symmetry_group_IT_number 20
_symmetry_cell_setting 'orthorhombic'
loop_
_space_group_symop_operation_xyz
x,y,z
-x,-y,1/2+z
x,-y,-z
-x,y,1/2-z
1/2+x,1/2+y,z
1/2-x,1/2-y,1/2+z
1/2+x,1/2-y,-z
1/2-x,1/2+y,1/2-z
loop_
_atom_site_type_symbol
_atom_site_label
_atom_site_fract_x
_atom_site_fract_y
_atom_site_fract_z
Si Si1 0.123255 0.985110 0.695514
Si Si2 0.737026 0.716019 0.680239
Si Si3 0.948333 0.000000 0.000000
Si Si4 0.478856 0.000000 0.500000
Si Si5 0.609028 0.970418 0.836234
Si Si6 0.805695 0.500000 0.500000
O O1 0.178485 0.112953 0.663111
O O2 0.088515 0.914637 0.595838
O O3 0.095697 0.221712 0.761725
O O4 0.129193 0.724235 0.769385
O O5 0.759506 0.511743 0.769394
O O6 0.769407 0.687050 0.572439
O O7 0.985170 0.751039 0.028220
O O8 0.440213 0.936794 0.403649
O O9 0.654518 0.868789 0.915768
#
# Coordination Sequence:
#
# PCOD9321615 Si02
#       6
#     8   8   4   4   8   4
#     4  12  24  46  66 104 133 185 218 285 330 407
#     4  12  24  42  67 102 136 177 222 266 333 396
#     4  12  27  44  71  94 147 166 229 282 352 392
#     4  11  26  46  67 108 121 188 220 287 346 398
#     4  11  25  43  73  95 138 171 241 272 331 401
#     4  11  23  44  68  96 138 178 215 285 308 410
#
# _framework density 22.269760999999999
#
# number of rings (size 3 to 8) (size 9 to 14) (size 15 to 20)
#    0.000    0.444    4.444    3.333    0.000   10.667 
#    0.000    4.444    0.000    0.000    0.000    0.000 
#    0.000    0.000    0.000    0.000    0.000    0.000 
#
# Total GULP energy -100762.632260 kJ/mol
# GULP energy per Si atom -5597.924014 kJ/mol
# Density = 2.221907 g / cm^3
# Si number density = 22.269761 Si / 1000 Ang^3
#
#
#
# Elastic Constant Matrix: (Units=GPa)
#
#
# Indices 1 2 3 4 5 6 
#
# 1 116.9293 -5.7924 32.0991 0.0000 0.0000 0.0000
# 2 -5.7924 64.1958 -2.7991 0.0000 0.0000 0.0000
# 3 32.0991 -2.7991 88.0522 0.0000 0.0000 0.0000
# 4 0.0000 0.0000 0.0000 22.0136 0.0000 0.0000
# 5 0.0000 0.0000 0.0000 0.0000 28.6131 0.0000
# 6 0.0000 0.0000 0.0000 0.0000 0.0000 61.2052
#
#
#
# Elastic Compliance Matrix: (Units=1/GPa)
#
#
# Indices 1 2 3 4 5 6 
#
# 1 0.009535 0.000710 -0.003454 0.000000 0.000000 0.000000
# 2 0.000710 0.015652 0.000239 0.000000 0.000000 0.000000
# 3 -0.003454 0.000239 0.012623 0.000000 0.000000 0.000000
# 4 0.000000 0.000000 0.000000 0.045426 0.000000 0.000000
# 5 0.000000 0.000000 0.000000 0.000000 0.034949 0.000000
# 6 0.000000 0.000000 0.000000 0.000000 0.000000 0.016338
#
#
# Mechanical properties :
#
#
# Convention : Reuss Voigt Hill
#
# Bulk Modulus (GPa) = 30.48706 35.13249 32.80978
# Shear Modulus (GPa) = 33.22965 38.74436 35.98700
#
# Velocity S-wave (km/s) = 3.86702 4.17559 4.02426
# Velocity P-wave (km/s) = 5.80155 6.24960 6.02974
#
# Compressibility (1/GPa) = 0.03280080
#
# Stress axis : x y z
#
# Youngs Moduli (GPa) = 104.87245 63.89044 79.21753
#
# Poissons Ratio (x) = -0.04535 0.27358
# Poissons Ratio (y) = -0.07444 -0.01892
# Poissons Ratio (z) = 0.36218 -0.01526
#
# Static dielectric constant tensor:
#      x y z
#    x 1.805750 0.000000 0.000000 
#    y 0.000000 1.752060 0.000000 
#    z 0.000000 0.000000 1.761280 
# 
# From -- ./inp_files/12086.got.cif
#   From: 2010.05.17/outbox.cif.g08.bks.cpg/sg20_7_cif.got.tgz:12086.got - 2010.06.03 22:52:26.
