data_PCOD9321186
_publ_section_title
;
Structure prediction by ZEFSAII (Michael W. Deem and Ramdas Pophale) SiO2 
 PCOD9321186
Probable space group: C 2 2 21
;
_chemical_formula_sum "Si O2"
_cell_formula_units_Z 36
_cell_length_a 22.423242
_cell_length_b 5.375053
_cell_length_c 12.315943
_cell_angle_alpha 90.000000
_cell_angle_beta 90.000000
_cell_angle_gamma 90.000000
_cell_volume 1484.392752
_symmetry_space_group_name_H-M "C 2 2 21"
_symmetry_group_IT_number 20
_symmetry_cell_setting 'orthorhombic'
loop_
_space_group_symop_operation_xyz
x,y,z
-x,-y,1/2+z
x,-y,-z
-x,y,1/2-z
1/2+x,1/2+y,z
1/2-x,1/2-y,1/2+z
1/2+x,1/2-y,-z
1/2-x,1/2+y,1/2-z
loop_
_atom_site_type_symbol
_atom_site_label
_atom_site_fract_x
_atom_site_fract_y
_atom_site_fract_z
Si Si1 0.444976 0.763483 0.558641
Si Si2 0.840821 0.328139 0.704449
Si Si3 0.000000 0.958511 0.750000
Si Si4 0.778449 0.636615 0.884875
Si Si5 0.393783 0.538089 0.123041
O O1 0.426303 0.500000 0.500000
O O2 0.389032 0.901111 0.615404
O O3 0.484541 0.641878 0.651900
O O4 0.475688 0.000000 0.500000
O O5 0.800830 0.514334 0.772905
O O6 0.791017 0.179775 0.636784
O O7 0.878618 0.192874 0.799046
O O8 0.942655 0.816497 0.801302
O O9 0.827805 0.851277 0.893114
O O10 0.784444 0.500000 0.000000
O O11 0.416834 0.500000 0.000000
#
# Coordination Sequence:
#
# PCOD9321186 Si02
#       5
#     8   8   4   8   8
#     4  11  27  50  74 110 149 195 250 310 370 440
#     4  11  25  42  71 107 144 192 240 302 373 450
#     4  10  26  50  74 104 140 202 244 310 366 442
#     4  12  24  42  73 108 144 191 241 306 380 448
#     4  11  23  46  68 101 144 183 247 301 370 439
#
# _framework density 24.25234
#
# number of rings (size 3 to 8) (size 9 to 14) (size 15 to 20)
#    0.000    0.889    4.444    1.333    6.222    3.556 
#   12.000    0.000    0.000    0.000    0.000    0.000 
#    0.000    0.000    0.000    0.000    0.000    0.000 
#
# Total GULP energy -100236.367828 kJ/mol
# GULP energy per Si atom -5568.687102 kJ/mol
# Density = 2.419714 g / cm^3
# Si number density = 24.252340 Si / 1000 Ang^3
#
#
#
# Elastic Constant Matrix: (Units=GPa)
#
#
# Indices 1 2 3 4 5 6 
#
# 1 80.0320 -13.4783 25.6769 0.0000 0.0000 0.0000
# 2 -13.4783 40.5065 28.4361 0.0000 0.0000 0.0000
# 3 25.6769 28.4361 135.5707 0.0000 0.0000 0.0000
# 4 0.0000 0.0000 0.0000 4.3456 0.0000 0.0000
# 5 0.0000 0.0000 0.0000 0.0000 79.7253 0.0000
# 6 0.0000 0.0000 0.0000 0.0000 0.0000 104.7097
#
#
#
# Elastic Compliance Matrix: (Units=1/GPa)
#
#
# Indices 1 2 3 4 5 6 
#
# 1 0.015416 0.008419 -0.004686 0.000000 0.000000 0.000000
# 2 0.008419 0.033548 -0.008631 0.000000 0.000000 0.000000
# 3 -0.004686 -0.008631 0.010074 0.000000 0.000000 0.000000
# 4 0.000000 0.000000 0.000000 0.230116 0.000000 0.000000
# 5 0.000000 0.000000 0.000000 0.000000 0.012543 0.000000
# 6 0.000000 0.000000 0.000000 0.000000 0.000000 0.009550
#
#
# Mechanical properties :
#
#
# Convention : Reuss Voigt Hill
#
# Bulk Modulus (GPa) = 20.30763 37.48651 28.89707
# Shear Modulus (GPa) = 14.81668 52.12110 33.46889
#
# Velocity S-wave (km/s) = 2.47440 4.64089 3.71890
# Velocity P-wave (km/s) = 4.06881 6.64887 5.51193
#
# Compressibility (1/GPa) = 0.04924258
#
# Stress axis : x y z
#
# Youngs Moduli (GPa) = 64.86680 29.80791 99.26415
#
# Poissons Ratio (x) = -0.25096 0.46512
# Poissons Ratio (y) = -0.54612 0.85678
# Poissons Ratio (z) = 0.30395 0.25728
#
# Static dielectric constant tensor:
#      x y z
#    x 2.155420 0.000000 0.000000 
#    y 0.000000 -4.622260 0.000000 
#    z 0.000000 0.000000 1.653920 
# 
# From -- ./inp_files/12046.got.cif
#   From: 2010.05.17/outbox.cif.g08.bks.cpg/sg20_7_cif.got.tgz:12046.got - 2010.06.03 22:52:26.
