data_PCOD9321499
_publ_section_title
;
Structure prediction by ZEFSAII (Michael W. Deem and Ramdas Pophale) SiO2 
 PCOD9321499
Probable space group: C 2 2 21
;
_chemical_formula_sum "Si O2"
_cell_formula_units_Z 40
_cell_length_a 10.156755
_cell_length_b 11.699310
_cell_length_c 13.916099
_cell_angle_alpha 90.000000
_cell_angle_beta 90.000000
_cell_angle_gamma 90.000000
_cell_volume 1653.608648
_symmetry_space_group_name_H-M "C 2 2 21"
_symmetry_group_IT_number 20
_symmetry_cell_setting 'orthorhombic'
loop_
_space_group_symop_operation_xyz
x,y,z
-x,-y,1/2+z
x,-y,-z
-x,y,1/2-z
1/2+x,1/2+y,z
1/2-x,1/2-y,1/2+z
1/2+x,1/2-y,-z
1/2-x,1/2+y,1/2-z
loop_
_atom_site_type_symbol
_atom_site_label
_atom_site_fract_x
_atom_site_fract_y
_atom_site_fract_z
Si Si1 0.576396 0.500000 0.000000
Si Si2 0.601396 0.501464 0.667744
Si Si3 0.310125 0.129280 0.900058
Si Si4 0.966941 0.500000 0.500000
Si Si5 0.656006 0.287096 0.766919
Si Si6 0.244626 0.685542 0.957778
O O1 0.484499 0.554538 0.081767
O O2 0.674281 0.421457 0.061107
O O3 0.500000 0.542146 0.750000
O O4 0.694722 0.408435 0.719713
O O5 0.673968 0.598190 0.607918
O O6 0.293719 0.179485 0.794395
O O7 0.430350 0.040673 0.916640
O O8 0.328957 0.239171 0.969085
O O9 0.868938 0.390786 0.509318
O O10 0.500000 0.284137 0.750000
O O11 0.689269 0.271947 0.877354
#
# Coordination Sequence:
#
# PCOD9321499 Si02
#       6
#     4   8   8   4   8   8
#     4  11  23  42  70  96 135 183 234 286 352 443
#     4  11  24  43  67 101 133 186 239 283 359 440
#     4  11  24  43  71 102 143 184 233 300 361 423
#     4  11  25  44  68 110 133 187 248 290 364 431
#     4  11  22  43  68  96 139 182 229 298 357 419
#     4  12  25  45  72 102 147 187 237 302 361 434
#
# _framework density 24.189518
#
# number of rings (size 3 to 8) (size 9 to 14) (size 15 to 20)
#    0.000    0.800    2.000    6.600    2.800    1.600 
#    3.600    0.000    0.000    0.000    0.000    0.000 
#    0.000    0.000    0.000    0.000    0.000    0.000 
#
# Total GULP energy -111786.555334 kJ/mol
# GULP energy per Si atom -5589.327767 kJ/mol
# Density = 2.413446 g / cm^3
# Si number density = 24.189518 Si / 1000 Ang^3
#
#
#
# Elastic Constant Matrix: (Units=GPa)
#
#
# Indices 1 2 3 4 5 6 
#
# 1 57.7970 26.4020 30.2943 0.0000 0.0000 0.0000
# 2 26.4020 90.7842 29.1057 0.0000 0.0000 0.0000
# 3 30.2943 29.1057 117.9849 0.0000 0.0000 0.0000
# 4 0.0000 0.0000 0.0000 48.8955 0.0000 0.0000
# 5 0.0000 0.0000 0.0000 0.0000 25.5775 0.0000
# 6 0.0000 0.0000 0.0000 0.0000 0.0000 50.8713
#
#
#
# Elastic Compliance Matrix: (Units=1/GPa)
#
#
# Indices 1 2 3 4 5 6 
#
# 1 0.021866 -0.004951 -0.004393 0.000000 0.000000 0.000000
# 2 -0.004951 0.013082 -0.001956 0.000000 0.000000 0.000000
# 3 -0.004393 -0.001956 0.010086 0.000000 0.000000 0.000000
# 4 0.000000 0.000000 0.000000 0.020452 0.000000 0.000000
# 5 0.000000 0.000000 0.000000 0.000000 0.039097 0.000000
# 6 0.000000 0.000000 0.000000 0.000000 0.000000 0.019657
#
#
# Mechanical properties :
#
#
# Convention : Reuss Voigt Hill
#
# Bulk Modulus (GPa) = 44.57406 48.68556 46.62981
# Shear Modulus (GPa) = 32.40055 37.11981 34.76018
#
# Velocity S-wave (km/s) = 3.66381 3.92157 3.79488
# Velocity P-wave (km/s) = 6.03035 6.37773 6.20647
#
# Compressibility (1/GPa) = 0.02243457
#
# Stress axis : x y z
#
# Youngs Moduli (GPa) = 45.73285 76.44081 99.14540
#
# Poissons Ratio (x) = 0.37843 0.43556
# Poissons Ratio (y) = 0.22641 0.19393
# Poissons Ratio (z) = 0.20091 0.14952
#
# Static dielectric constant tensor:
#      x y z
#    x 1.968660 0.000000 0.000000 
#    y 0.000000 2.050940 0.000000 
#    z 0.000000 0.000000 1.910110 
# 
# From -- ./inp_files/19720.got.cif
#   From: 2010.05.17/outbox.cif.g08.bks.cpg/sg20_10_cif.got.tgz:19720.got - 2010.06.03 22:52:26.
