data_PCOD9321198
_publ_section_title
;
Structure prediction by ZEFSAII (Michael W. Deem and Ramdas Pophale) SiO2 
 PCOD9321198
Probable space group: C 2 2 21
;
_chemical_formula_sum "Si O2"
_cell_formula_units_Z 40
_cell_length_a 12.764513
_cell_length_b 5.979414
_cell_length_c 22.327826
_cell_angle_alpha 90.000000
_cell_angle_beta 90.000000
_cell_angle_gamma 90.000000
_cell_volume 1704.155863
_symmetry_space_group_name_H-M "C 2 2 21"
_symmetry_group_IT_number 20
_symmetry_cell_setting 'orthorhombic'
loop_
_space_group_symop_operation_xyz
x,y,z
-x,-y,1/2+z
x,-y,-z
-x,y,1/2-z
1/2+x,1/2+y,z
1/2-x,1/2-y,1/2+z
1/2+x,1/2-y,-z
1/2-x,1/2+y,1/2-z
loop_
_atom_site_type_symbol
_atom_site_label
_atom_site_fract_x
_atom_site_fract_y
_atom_site_fract_z
Si Si1 0.299387 0.036655 0.392222
Si Si2 0.500000 0.873508 0.750000
Si Si3 0.428004 0.264729 0.671351
Si Si4 0.864960 0.985930 0.791817
Si Si5 0.065250 0.756965 0.024916
Si Si6 0.637995 0.500000 0.500000
O O1 0.237133 0.054866 0.330190
O O2 0.382854 0.226639 0.409773
O O3 0.211907 0.046206 0.443712
O O4 0.359312 0.797278 0.385727
O O5 0.401276 0.730261 0.771875
O O6 0.468467 0.026535 0.694850
O O7 0.364913 0.357533 0.728500
O O8 0.534293 0.406172 0.668379
O O9 0.084542 0.500000 0.000000
O O10 0.941357 0.800411 0.018040
O O11 0.106794 0.000000 0.000000
#
# Coordination Sequence:
#
# PCOD9321198 Si02
#       6
#     8   4   8   8   8   4
#     4  12  24  45  75 105 137 206 245 310 381 452
#     4   8  18  42  64  96 148 176 230 304 366 442
#     4   9  22  43  64 104 141 182 242 304 369 454
#     4   9  22  43  65 103 144 185 236 303 373 440
#     4  10  26  54  72 108 152 189 257 312 366 448
#     4  10  28  48  70 106 148 200 252 316 370 448
#
# _framework density 23.47203
#
# number of rings (size 3 to 8) (size 9 to 14) (size 15 to 20)
#    0.600    2.000    1.000    0.000    8.400    0.800 
#   10.800    0.000    0.000    0.000    0.000    0.000 
#    0.000    0.000    0.000    0.000    0.000    0.000 
#
# Total GULP energy -111411.423990 kJ/mol
# GULP energy per Si atom -5570.571199 kJ/mol
# Density = 2.341861 g / cm^3
# Si number density = 23.472030 Si / 1000 Ang^3
#
#
#
# Elastic Constant Matrix: (Units=GPa)
#
#
# Indices 1 2 3 4 5 6 
#
# 1 92.2073 23.0012 23.6557 0.0000 0.0000 0.0000
# 2 23.0012 100.0955 25.7945 0.0000 0.0000 0.0000
# 3 23.6557 25.7945 52.8176 0.0000 0.0000 0.0000
# 4 0.0000 0.0000 0.0000 34.7907 0.0000 0.0000
# 5 0.0000 0.0000 0.0000 0.0000 52.4073 0.0000
# 6 0.0000 0.0000 0.0000 0.0000 0.0000 -4.5699
#
#
#
# Elastic Compliance Matrix: (Units=1/GPa)
#
#
# Indices 1 2 3 4 5 6 
#
# 1 0.012482 -0.001633 -0.004793 0.000000 0.000000 0.000000
# 2 -0.001633 0.011642 -0.004954 0.000000 0.000000 0.000000
# 3 -0.004793 -0.004954 0.023499 0.000000 0.000000 0.000000
# 4 0.000000 0.000000 0.000000 0.028743 0.000000 0.000000
# 5 0.000000 0.000000 0.000000 0.000000 0.019081 0.000000
# 6 0.000000 0.000000 0.000000 0.000000 0.000000 -0.218821
#
#
# Mechanical properties :
#
#
# Convention : Reuss Voigt Hill
#
# Bulk Modulus (GPa) = 40.22031 43.33591 41.77811
# Shear Modulus (GPa) = -54.15692 28.03687 -13.06002
#
# Velocity S-wave (km/s) = -4.80864 3.45987 -2.36139
# Velocity P-wave (km/s) = 3.69569 5.87059 3.22535
#
# Compressibility (1/GPa) = 0.02486306
#
# Stress axis : x y z
#
# Youngs Moduli (GPa) = 80.11457 85.89226 42.55452
#
# Poissons Ratio (x) = 0.14028 0.20396
# Poissons Ratio (y) = 0.13084 0.21083
# Poissons Ratio (z) = 0.38398 0.42554
#
# Static dielectric constant tensor:
#      x y z
#    x 1.933600 0.000000 0.000000 
#    y 0.000000 1.934400 0.000000 
#    z 0.000000 0.000000 1.999780 
# 
# From -- ./inp_files/29242.got.cif
#   From: 2010.05.17/outbox.cif.g08.bks.cpg/sg20_15_cif.got.tgz:29242.got - 2010.06.03 22:52:26.
