data_PCOD9321857
_publ_section_title
;
Structure prediction by ZEFSAII (Michael W. Deem and Ramdas Pophale) SiO2 
 PCOD9321857
Probable space group: C 2 2 21
;
_chemical_formula_sum "Si O2"
_cell_formula_units_Z 28
_cell_length_a 25.394880
_cell_length_b 5.256547
_cell_length_c 7.587133
_cell_angle_alpha 90.000000
_cell_angle_beta 90.000000
_cell_angle_gamma 90.000000
_cell_volume 1012.801682
_symmetry_space_group_name_H-M "C 2 2 21"
_symmetry_group_IT_number 20
_symmetry_cell_setting 'orthorhombic'
loop_
_space_group_symop_operation_xyz
x,y,z
-x,-y,1/2+z
x,-y,-z
-x,y,1/2-z
1/2+x,1/2+y,z
1/2-x,1/2-y,1/2+z
1/2+x,1/2-y,-z
1/2-x,1/2+y,1/2-z
loop_
_atom_site_type_symbol
_atom_site_label
_atom_site_fract_x
_atom_site_fract_y
_atom_site_fract_z
Si Si1 0.139253 0.500000 0.000000
Si Si2 0.319714 0.265690 0.175621
Si Si3 0.000000 0.653143 0.250000
Si Si4 0.230550 0.000000 0.000000
Si Si5 0.569314 0.500000 0.000000
Si Si6 0.087117 0.500000 0.500000
O O1 0.171747 0.455173 0.822042
O O2 0.106331 0.243872 0.038847
O O3 0.302638 0.473139 0.320350
O O4 0.373477 0.228315 0.060862
O O5 0.272250 0.222477 0.042109
O O6 0.044743 0.480107 0.341581
O O7 0.969181 0.850615 0.370907
#
# Coordination Sequence:
#
# PCOD9321857 Si02
#       6
#     4   8   4   4   4   4
#     4  12  25  50  79 125 164 228 272 357 426 516
#     4  11  25  48  84 120 169 221 286 357 436 518
#     4  12  28  50  84 126 170 232 290 354 436 520
#     4  11  25  50  81 126 164 231 284 370 434 532
#     4  12  29  48  85 115 176 220 288 351 424 524
#     4  11  27  50  83 120 172 223 286 352 428 514
#
# _framework density 27.646084999999999
#
# number of rings (size 3 to 8) (size 9 to 14) (size 15 to 20)
#    0.000    0.571    2.857    3.429    4.000    1.143 
#    0.000    2.857    0.000    0.000    0.000    0.000 
#    0.000    0.000    0.000    0.000    0.000    0.000 
#
# Total GULP energy -78069.928240 kJ/mol
# GULP energy per Si atom -5576.423446 kJ/mol
# Density = 2.758316 g / cm^3
# Si number density = 27.646085 Si / 1000 Ang^3
#
#
#
# Elastic Constant Matrix: (Units=GPa)
#
#
# Indices 1 2 3 4 5 6 
#
# 1 206.4210 73.7259 73.2759 0.0000 0.0000 0.0000
# 2 73.7259 123.0651 52.7795 0.0000 0.0000 0.0000
# 3 73.2759 52.7795 151.3264 0.0000 0.0000 0.0000
# 4 0.0000 0.0000 0.0000 60.5676 0.0000 0.0000
# 5 0.0000 0.0000 0.0000 0.0000 112.9548 0.0000
# 6 0.0000 0.0000 0.0000 0.0000 0.0000 28.1254
#
#
#
# Elastic Compliance Matrix: (Units=1/GPa)
#
#
# Indices 1 2 3 4 5 6 
#
# 1 0.006722 -0.003094 -0.002176 0.000000 0.000000 0.000000
# 2 -0.003094 0.010979 -0.002331 0.000000 0.000000 0.000000
# 3 -0.002176 -0.002331 0.008475 0.000000 0.000000 0.000000
# 4 0.000000 0.000000 0.000000 0.016510 0.000000 0.000000
# 5 0.000000 0.000000 0.000000 0.000000 0.008853 0.000000
# 6 0.000000 0.000000 0.000000 0.000000 0.000000 0.035555
#
#
# Mechanical properties :
#
#
# Convention : Reuss Voigt Hill
#
# Bulk Modulus (GPa) = 91.12307 97.81948 94.47127
# Shear Modulus (GPa) = 47.19034 59.06497 53.12765
#
# Velocity S-wave (km/s) = 4.13600 4.62721 4.38848
# Velocity P-wave (km/s) = 7.47267 8.00048 7.74107
#
# Compressibility (1/GPa) = 0.01097417
#
# Stress axis : x y z
#
# Youngs Moduli (GPa) = 148.76913 91.08324 117.99565
#
# Poissons Ratio (x) = 0.28179 0.25674
# Poissons Ratio (y) = 0.46026 0.27507
# Poissons Ratio (z) = 0.32370 0.21233
#
# Static dielectric constant tensor:
#      x y z
#    x 2.223710 0.000000 0.000000 
#    y 0.000000 2.130460 0.000000 
#    z 0.000000 0.000000 1.772020 
# 
# From -- ./inp_files/10923.got.cif
#   From: 2010.05.17/outbox.cif.g08.bks.cpg/sg20_6_cif.got.tgz:10923.got - 2010.06.03 22:52:26.
