data_PCOD9321887
_publ_section_title
;
Structure prediction by ZEFSAII (Michael W. Deem and Ramdas Pophale) SiO2 
 PCOD9321887
Probable space group: C 2 2 21
;
_chemical_formula_sum "Si O2"
_cell_formula_units_Z 36
_cell_length_a 9.462917
_cell_length_b 20.064343
_cell_length_c 9.133245
_cell_angle_alpha 90.000000
_cell_angle_beta 90.000000
_cell_angle_gamma 90.000000
_cell_volume 1734.103769
_symmetry_space_group_name_H-M "C 2 2 21"
_symmetry_group_IT_number 20
_symmetry_cell_setting 'orthorhombic'
loop_
_space_group_symop_operation_xyz
x,y,z
-x,-y,1/2+z
x,-y,-z
-x,y,1/2-z
1/2+x,1/2+y,z
1/2-x,1/2-y,1/2+z
1/2+x,1/2-y,-z
1/2-x,1/2+y,1/2-z
loop_
_atom_site_type_symbol
_atom_site_label
_atom_site_fract_x
_atom_site_fract_y
_atom_site_fract_z
Si Si1 0.966126 0.067744 0.915103
Si Si2 0.239044 0.315964 0.040659
Si Si3 0.716599 0.921172 0.483064
Si Si4 0.000000 0.365130 0.250000
Si Si5 0.342374 0.188229 0.209102
O O1 0.847364 0.124561 0.918930
O O2 0.000000 0.047039 0.750000
O O3 0.116813 0.096023 0.971050
O O4 0.925901 0.000000 0.000000
O O5 0.089506 0.328209 0.122894
O O6 0.286428 0.244820 0.101355
O O7 0.234536 0.314980 0.865036
O O8 0.621341 0.902904 0.342588
O O9 0.660422 0.881428 0.623474
O O10 0.709400 0.000000 0.500000
O O11 0.500000 0.207502 0.250000
#
# Coordination Sequence:
#
# PCOD9321887 Si02
#       5
#     8   8   8   4   8
#     4  11  26  48  75 106 145 192 240 291 356 430
#     4  12  28  46  77 102 149 187 246 291 361 427
#     4  11  27  46  73 107 146 187 246 294 357 431
#     4  12  24  46  72 106 142 194 232 304 364 412
#     4  12  28  48  72 108 144 194 238 299 360 421
#
# _framework density 20.760002
#
# number of rings (size 3 to 8) (size 9 to 14) (size 15 to 20)
#    0.000    0.444    4.444    2.000   10.889    0.889 
#    0.000    0.000    0.000    0.000    0.000    0.000 
#    0.000    0.000    0.000    0.000    0.000    0.000 
#
# Total GULP energy -100601.185117 kJ/mol
# GULP energy per Si atom -5588.954729 kJ/mol
# Density = 2.071275 g / cm^3
# Si number density = 20.760002 Si / 1000 Ang^3
#
#
#
# Elastic Constant Matrix: (Units=GPa)
#
#
# Indices 1 2 3 4 5 6 
#
# 1 73.5355 33.6394 2.1507 0.0000 0.0000 0.0000
# 2 33.6394 104.1887 53.4607 0.0000 0.0000 0.0000
# 3 2.1507 53.4607 151.5898 0.0000 0.0000 0.0000
# 4 0.0000 0.0000 0.0000 26.5479 0.0000 0.0000
# 5 0.0000 0.0000 0.0000 0.0000 36.9004 0.0000
# 6 0.0000 0.0000 0.0000 0.0000 0.0000 18.6060
#
#
#
# Elastic Compliance Matrix: (Units=1/GPa)
#
#
# Indices 1 2 3 4 5 6 
#
# 1 0.016438 -0.006334 0.002000 0.000000 0.000000 0.000000
# 2 -0.006334 0.014159 -0.004904 0.000000 0.000000 0.000000
# 3 0.002000 -0.004904 0.008298 0.000000 0.000000 0.000000
# 4 0.000000 0.000000 0.000000 0.037668 0.000000 0.000000
# 5 0.000000 0.000000 0.000000 0.000000 0.027100 0.000000
# 6 0.000000 0.000000 0.000000 0.000000 0.000000 0.053746
#
#
# Mechanical properties :
#
#
# Convention : Reuss Voigt Hill
#
# Bulk Modulus (GPa) = 48.96949 56.42396 52.69672
# Shear Modulus (GPa) = 27.36891 32.41507 29.89199
#
# Velocity S-wave (km/s) = 3.63485 3.95577 3.79870
# Velocity P-wave (km/s) = 6.42306 6.93558 6.68424
#
# Compressibility (1/GPa) = 0.02042088
#
# Stress axis : x y z
#
# Youngs Moduli (GPa) = 60.83542 70.62625 120.51543
#
# Poissons Ratio (x) = 0.44733 -0.24109
# Poissons Ratio (y) = 0.38532 0.59096
# Poissons Ratio (z) = -0.12170 0.34632
#
# Static dielectric constant tensor:
#      x y z
#    x 1.813490 0.000000 0.000000 
#    y 0.000000 1.692700 0.000000 
#    z 0.000000 0.000000 1.770790 
# 
# From -- ./inp_files/5883.got.cif
#   From: 2010.05.17/outbox.cif.g08.bks.cpg/sg20_3_cif.got.tgz:5883.got - 2010.06.03 22:52:26.
