data_PCOD9321197
_publ_section_title
;
Structure prediction by ZEFSAII (Michael W. Deem and Ramdas Pophale) SiO2 
 PCOD9321197
Probable space group: C 2 2 21
;
_chemical_formula_sum "Si O2"
_cell_formula_units_Z 28
_cell_length_a 16.686470
_cell_length_b 7.563263
_cell_length_c 8.577781
_cell_angle_alpha 90.000000
_cell_angle_beta 90.000000
_cell_angle_gamma 90.000000
_cell_volume 1082.551656
_symmetry_space_group_name_H-M "C 2 2 21"
_symmetry_group_IT_number 20
_symmetry_cell_setting 'orthorhombic'
loop_
_space_group_symop_operation_xyz
x,y,z
-x,-y,1/2+z
x,-y,-z
-x,y,1/2-z
1/2+x,1/2+y,z
1/2-x,1/2-y,1/2+z
1/2+x,1/2-y,-z
1/2-x,1/2+y,1/2-z
loop_
_atom_site_type_symbol
_atom_site_label
_atom_site_fract_x
_atom_site_fract_y
_atom_site_fract_z
Si Si1 0.049668 0.793451 0.946468
Si Si2 0.829589 0.675278 0.299090
Si Si3 0.650157 0.437732 0.668082
Si Si4 0.586090 0.000000 0.500000
O O1 0.091764 0.825853 0.779247
O O2 0.112614 0.684405 0.052483
O O3 0.972191 0.667154 0.966473
O O4 0.040358 0.000000 0.000000
O O5 0.738151 0.644160 0.345863
O O6 0.861398 0.556251 0.152902
O O7 0.834839 0.876772 0.248574
O O8 0.620947 0.500000 0.500000
#
# Coordination Sequence:
#
# PCOD9321197 Si02
#       4
#     8   8   8   4
#     4  10  26  53  78 118 171 217 280 341 422 502
#     4  11  27  48  80 124 161 221 279 341 423 500
#     4  11  26  48  86 117 160 220 281 345 411 501
#     4  12  28  50  88 124 168 224 272 350 432 506
#
# _framework density 25.864816000000001
#
# number of rings (size 3 to 8) (size 9 to 14) (size 15 to 20)
#    0.000    1.143    0.000    2.571   16.000    3.429 
#    0.000    5.714    0.000    0.000    0.000    0.000 
#    0.000    0.000    0.000    0.000    0.000    0.000 
#
# Total GULP energy -78334.676027 kJ/mol
# GULP energy per Si atom -5595.334002 kJ/mol
# Density = 2.580595 g / cm^3
# Si number density = 25.864816 Si / 1000 Ang^3
#
#
#
# Elastic Constant Matrix: (Units=GPa)
#
#
# Indices 1 2 3 4 5 6 
#
# 1 153.0531 30.1252 70.0787 0.0000 0.0000 0.0000
# 2 30.1252 153.9478 39.0164 0.0000 0.0000 0.0000
# 3 70.0787 39.0164 173.4291 0.0000 0.0000 0.0000
# 4 0.0000 0.0000 0.0000 63.0734 0.0000 0.0000
# 5 0.0000 0.0000 0.0000 0.0000 132.2270 0.0000
# 6 0.0000 0.0000 0.0000 0.0000 0.0000 106.5494
#
#
#
# Elastic Compliance Matrix: (Units=1/GPa)
#
#
# Indices 1 2 3 4 5 6 
#
# 1 0.008109 -0.000802 -0.003096 0.000000 0.000000 0.000000
# 2 -0.000802 0.006968 -0.001243 0.000000 0.000000 0.000000
# 3 -0.003096 -0.001243 0.007297 0.000000 0.000000 0.000000
# 4 0.000000 0.000000 0.000000 0.015855 0.000000 0.000000
# 5 0.000000 0.000000 0.000000 0.000000 0.007563 0.000000
# 6 0.000000 0.000000 0.000000 0.000000 0.000000 0.009385
#
#
# Mechanical properties :
#
#
# Convention : Reuss Voigt Hill
#
# Bulk Modulus (GPa) = 82.71118 84.31895 83.51506
# Shear Modulus (GPa) = 71.95231 83.11726 77.53478
#
# Velocity S-wave (km/s) = 5.28006 5.67495 5.48106
# Velocity P-wave (km/s) = 8.31984 8.69544 8.50971
#
# Compressibility (1/GPa) = 0.01209026
#
# Stress axis : x y z
#
# Youngs Moduli (GPa) = 123.31555 143.51721 137.04394
#
# Poissons Ratio (x) = 0.11512 0.42433
# Poissons Ratio (y) = 0.09892 0.17040
# Poissons Ratio (z) = 0.38182 0.17845
#
# Static dielectric constant tensor:
#      x y z
#    x 2.080660 0.000000 0.000000 
#    y 0.000000 1.883460 0.000000 
#    z 0.000000 0.000000 2.098660 
# 
# From -- ./inp_files/9036.got.cif
#   From: 2010.05.17/outbox.cif.g08.bks.cpg/sg20_5_cif.got.tgz:9036.got - 2010.06.03 22:52:26.
