data_PCOD9321398
_publ_section_title
;
Structure prediction by ZEFSAII (Michael W. Deem and Ramdas Pophale) SiO2 
 PCOD9321398
Probable space group: C 2 2 21
;
_chemical_formula_sum "Si O2"
_cell_formula_units_Z 32
_cell_length_a 5.031641
_cell_length_b 36.843287
_cell_length_c 7.176933
_cell_angle_alpha 90.000000
_cell_angle_beta 90.000000
_cell_angle_gamma 90.000000
_cell_volume 1330.475582
_symmetry_space_group_name_H-M "C 2 2 21"
_symmetry_group_IT_number 20
_symmetry_cell_setting 'orthorhombic'
loop_
_space_group_symop_operation_xyz
x,y,z
-x,-y,1/2+z
x,-y,-z
-x,y,1/2-z
1/2+x,1/2+y,z
1/2-x,1/2-y,1/2+z
1/2+x,1/2-y,-z
1/2-x,1/2+y,1/2-z
loop_
_atom_site_type_symbol
_atom_site_label
_atom_site_fract_x
_atom_site_fract_y
_atom_site_fract_z
Si Si1 0.513223 0.147880 0.522592
Si Si2 0.878475 0.271782 0.044930
Si Si3 0.514970 0.393454 0.476404
Si Si4 0.751948 0.534662 0.619464
O O1 0.500000 0.147396 0.750000
O O2 0.607768 0.187700 0.464194
O O3 0.219291 0.137418 0.461092
O O4 0.722052 0.117165 0.461098
O O5 0.000000 0.274508 0.250000
O O6 0.583786 0.255994 0.049467
O O7 0.500000 0.392655 0.250000
O O8 0.643935 0.432629 0.510229
O O9 0.834732 0.500000 0.500000
O O10 0.500000 0.524881 0.750000
O O11 0.000000 0.546490 0.750000
#
# Coordination Sequence:
#
# PCOD9321398 Si02
#       4
#     8   8   8   8
#     4   9  17  30  52  79 104 137 187 236 268 312
#     4  11  22  37  58  85 115 149 187 234 288 342
#     4   9  16  30  52  79 105 137 187 235 267 310
#     4  11  22  37  59  87 117 151 187 233 285 338
#
# _framework density 24.051549000000001
#
# number of rings (size 3 to 8) (size 9 to 14) (size 15 to 20)
#    0.000    2.000    0.000    6.750    0.000    4.000 
#    0.000    0.000    0.000   15.000    0.000    0.000 
#    0.000    0.000    0.000    0.000    0.000    0.000 
#
# Total GULP energy -89451.971608 kJ/mol
# GULP energy per Si atom -5590.748225 kJ/mol
# Density = 2.399681 g / cm^3
# Si number density = 24.051549 Si / 1000 Ang^3
#
#
#
# Elastic Constant Matrix: (Units=GPa)
#
#
# Indices 1 2 3 4 5 6 
#
# 1 115.8951 24.3994 -3.0474 0.0000 0.0000 0.0000
# 2 24.3994 144.7247 1.0252 0.0000 0.0000 0.0000
# 3 -3.0474 1.0252 61.6900 0.0000 0.0000 0.0000
# 4 0.0000 0.0000 0.0000 25.2272 0.0000 0.0000
# 5 0.0000 0.0000 0.0000 0.0000 13.0281 0.0000
# 6 0.0000 0.0000 0.0000 0.0000 0.0000 38.8977
#
#
#
# Elastic Compliance Matrix: (Units=1/GPa)
#
#
# Indices 1 2 3 4 5 6 
#
# 1 0.008959 -0.001514 0.000468 0.000000 0.000000 0.000000
# 2 -0.001514 0.007166 -0.000194 0.000000 0.000000 0.000000
# 3 0.000468 -0.000194 0.016236 0.000000 0.000000 0.000000
# 4 0.000000 0.000000 0.000000 0.039640 0.000000 0.000000
# 5 0.000000 0.000000 0.000000 0.000000 0.076757 0.000000
# 6 0.000000 0.000000 0.000000 0.000000 0.000000 0.025708
#
#
# Mechanical properties :
#
#
# Convention : Reuss Voigt Hill
#
# Bulk Modulus (GPa) = 33.46464 40.78490 37.12477
# Shear Modulus (GPa) = 26.75112 35.42612 31.08862
#
# Velocity S-wave (km/s) = 3.33865 3.84203 3.59915
# Velocity P-wave (km/s) = 5.36712 6.05605 5.72196
#
# Compressibility (1/GPa) = 0.02988229
#
# Stress axis : x y z
#
# Youngs Moduli (GPa) = 111.61349 139.54284 61.58996
#
# Poissons Ratio (x) = 0.21124 -0.02881
# Poissons Ratio (y) = 0.16896 0.01194
# Poissons Ratio (z) = -0.05221 0.02705
#
# Static dielectric constant tensor:
#      x y z
#    x 1.816670 0.000000 0.000000 
#    y 0.000000 1.928500 0.000000 
#    z 0.000000 0.000000 1.995740 
# 
# From -- ./inp_files/5230.got.cif
#   From: 2010.05.17/outbox.cif.g08.bks.cpg/sg20_3_cif.got.tgz:5230.got - 2010.06.03 22:52:26.
