data_PCOD9321810
_publ_section_title
;
Structure prediction by ZEFSAII (Michael W. Deem and Ramdas Pophale) SiO2 
 PCOD9321810
Probable space group: C 2 2 21
;
_chemical_formula_sum "Si O2"
_cell_formula_units_Z 32
_cell_length_a 5.222267
_cell_length_b 29.683168
_cell_length_c 8.332992
_cell_angle_alpha 90.000000
_cell_angle_beta 90.000000
_cell_angle_gamma 90.000000
_cell_volume 1291.725661
_symmetry_space_group_name_H-M "C 2 2 21"
_symmetry_group_IT_number 20
_symmetry_cell_setting 'orthorhombic'
loop_
_space_group_symop_operation_xyz
x,y,z
-x,-y,1/2+z
x,-y,-z
-x,y,1/2-z
1/2+x,1/2+y,z
1/2-x,1/2-y,1/2+z
1/2+x,1/2-y,-z
1/2-x,1/2+y,1/2-z
loop_
_atom_site_type_symbol
_atom_site_label
_atom_site_fract_x
_atom_site_fract_y
_atom_site_fract_z
Si Si1 0.580073 0.677041 0.570246
Si Si2 0.649371 0.912671 0.074297
Si Si3 0.253727 0.224059 0.144637
Si Si4 0.000000 0.537989 0.250000
Si Si5 0.500000 0.524106 0.750000
O O1 0.500000 0.666997 0.750000
O O2 0.760882 0.636863 0.521529
O O3 0.708078 0.726535 0.568792
O O4 0.316772 0.684440 0.475844
O O5 0.500000 0.911370 0.250000
O O6 0.904483 0.942478 0.109418
O O7 0.520392 0.934706 0.917658
O O8 0.500000 0.214827 0.250000
O O9 0.000000 0.227373 0.250000
O O10 0.748643 0.506917 0.227557
#
# Coordination Sequence:
#
# PCOD9321810 Si02
#       5
#     8   8   8   4   4
#     4  11  24  50  82 120 167 217 279 339 419 486
#     4  12  29  53  89 127 170 219 282 353 415 510
#     4  11  25  48  78 116 165 221 272 338 411 496
#     4  12  32  54  88 125 174 215 282 342 438 506
#     4  12  28  54  88 127 164 223 272 348 428 506
#
# _framework density 24.773061999999999
#
# number of rings (size 3 to 8) (size 9 to 14) (size 15 to 20)
#    0.000    0.500    2.500    4.500    7.000    2.000 
#   15.750    0.000    5.500    0.000    0.000    0.000 
#    0.000    0.000    0.000    0.000    0.000    0.000 
#
# Total GULP energy -89589.049325 kJ/mol
# GULP energy per Si atom -5599.315583 kJ/mol
# Density = 2.471668 g / cm^3
# Si number density = 24.773062 Si / 1000 Ang^3
#
#
#
# Elastic Constant Matrix: (Units=GPa)
#
#
# Indices 1 2 3 4 5 6 
#
# 1 197.5323 90.8783 78.5500 0.0000 0.0000 0.0000
# 2 90.8783 148.9747 67.7028 0.0000 0.0000 0.0000
# 3 78.5500 67.7028 134.7427 0.0000 0.0000 0.0000
# 4 0.0000 0.0000 0.0000 12.2803 0.0000 0.0000
# 5 0.0000 0.0000 0.0000 0.0000 37.8548 0.0000
# 6 0.0000 0.0000 0.0000 0.0000 0.0000 33.2942
#
#
#
# Elastic Compliance Matrix: (Units=1/GPa)
#
#
# Indices 1 2 3 4 5 6 
#
# 1 0.007767 -0.003474 -0.002783 0.000000 0.000000 0.000000
# 2 -0.003474 0.010252 -0.003126 0.000000 0.000000 0.000000
# 3 -0.002783 -0.003126 0.010615 0.000000 0.000000 0.000000
# 4 0.000000 0.000000 0.000000 0.081431 0.000000 0.000000
# 5 0.000000 0.000000 0.000000 0.000000 0.026417 0.000000
# 6 0.000000 0.000000 0.000000 0.000000 0.000000 0.030035
#
#
# Mechanical properties :
#
#
# Convention : Reuss Voigt Hill
#
# Bulk Modulus (GPa) = 101.32881 106.16798 103.74840
# Shear Modulus (GPa) = 26.51512 32.96044 29.73778
#
# Velocity S-wave (km/s) = 3.27513 3.65155 3.46845
# Velocity P-wave (km/s) = 7.43596 7.79280 7.61647
#
# Compressibility (1/GPa) = 0.00986886
#
# Stress axis : x y z
#
# Youngs Moduli (GPa) = 128.74935 97.53891 94.20970
#
# Poissons Ratio (x) = 0.33880 0.26215
# Poissons Ratio (y) = 0.44721 0.29454
# Poissons Ratio (z) = 0.35826 0.30495
#
# Static dielectric constant tensor:
#      x y z
#    x 1.969120 0.000000 0.000000 
#    y 0.000000 1.997700 0.000000 
#    z 0.000000 0.000000 1.994760 
# 
# From -- ./inp_files/5281.got.cif
#   From: 2010.05.17/outbox.cif.g08.bks.cpg/sg20_3_cif.got.tgz:5281.got - 2010.06.03 22:52:26.
