data_PCOD9321576
_publ_section_title
;
Structure prediction by ZEFSAII (Michael W. Deem and Ramdas Pophale) SiO2 
 PCOD9321576
Probable space group: C 2 2 21
;
_chemical_formula_sum "Si O2"
_cell_formula_units_Z 48
_cell_length_a 13.828250
_cell_length_b 5.073102
_cell_length_c 26.490632
_cell_angle_alpha 90.000000
_cell_angle_beta 90.000000
_cell_angle_gamma 90.000000
_cell_volume 1858.374067
_symmetry_space_group_name_H-M "C 2 2 21"
_symmetry_group_IT_number 20
_symmetry_cell_setting 'orthorhombic'
loop_
_space_group_symop_operation_xyz
x,y,z
-x,-y,1/2+z
x,-y,-z
-x,y,1/2-z
1/2+x,1/2+y,z
1/2-x,1/2-y,1/2+z
1/2+x,1/2-y,-z
1/2-x,1/2+y,1/2-z
loop_
_atom_site_type_symbol
_atom_site_label
_atom_site_fract_x
_atom_site_fract_y
_atom_site_fract_z
Si Si1 0.197579 0.904071 0.943451
Si Si2 0.471474 0.167256 0.667075
Si Si3 0.784095 0.476762 0.278451
Si Si4 0.530310 0.314114 0.104880
Si Si5 0.851349 0.030989 0.944029
Si Si6 0.820283 0.345337 0.141171
O O1 0.093224 0.034298 0.937091
O O2 0.238954 0.609012 0.945405
O O3 0.240534 0.976526 0.886740
O O4 0.233346 0.000000 0.000000
O O5 0.394381 0.104947 0.710285
O O6 0.434872 0.970915 0.622591
O O7 0.471188 0.474956 0.651229
O O8 0.583781 0.082797 0.673003
O O9 0.730491 0.204531 0.263736
O O10 0.734229 0.621272 0.326230
O O11 0.422807 0.269154 0.083610
O O12 0.863986 0.781187 0.909602
O O13 0.885954 0.000000 0.000000
#
# Coordination Sequence:
#
# PCOD9321576 Si02
#       6
#     8   8   8   8   8   8
#     4  12  23  40  69 106 144 200 241 289 354 438
#     4  11  24  47  74 105 138 189 233 301 373 435
#     4  12  28  49  78 107 144 186 249 319 376 445
#     4  11  24  41  71 104 149 189 238 289 356 429
#     4  11  23  42  66 106 148 195 242 299 352 442
#     4  11  25  45  73 101 147 190 238 299 373 435
#
# _framework density 25.829031000000001
#
# number of rings (size 3 to 8) (size 9 to 14) (size 15 to 20)
#    0.000    0.667    5.000    2.500    2.333    0.667 
#    0.000    3.333    0.000    0.000    0.000    0.000 
#    0.000    0.000    0.000    0.000    0.000    0.000 
#
# Total GULP energy -133801.174196 kJ/mol
# GULP energy per Si atom -5575.048925 kJ/mol
# Density = 2.577024 g / cm^3
# Si number density = 25.829031 Si / 1000 Ang^3
#
#
#
# Elastic Constant Matrix: (Units=GPa)
#
#
# Indices 1 2 3 4 5 6 
#
# 1 116.0429 24.1818 22.9131 0.0000 0.0000 0.0000
# 2 24.1818 94.5812 15.7279 0.0000 0.0000 0.0000
# 3 22.9131 15.7279 92.8381 0.0000 0.0000 0.0000
# 4 0.0000 0.0000 0.0000 34.3461 0.0000 0.0000
# 5 0.0000 0.0000 0.0000 0.0000 21.6966 0.0000
# 6 0.0000 0.0000 0.0000 0.0000 0.0000 33.8221
#
#
#
# Elastic Compliance Matrix: (Units=1/GPa)
#
#
# Indices 1 2 3 4 5 6 
#
# 1 0.009442 -0.002085 -0.001977 0.000000 0.000000 0.000000
# 2 -0.002085 0.011340 -0.001406 0.000000 0.000000 0.000000
# 3 -0.001977 -0.001406 0.011498 0.000000 0.000000 0.000000
# 4 0.000000 0.000000 0.000000 0.029115 0.000000 0.000000
# 5 0.000000 0.000000 0.000000 0.000000 0.046090 0.000000
# 6 0.000000 0.000000 0.000000 0.000000 0.000000 0.029567
#
#
# Mechanical properties :
#
#
# Convention : Reuss Voigt Hill
#
# Bulk Modulus (GPa) = 46.85571 47.67865 47.26718
# Shear Modulus (GPa) = 32.23638 34.01558 33.12598
#
# Velocity S-wave (km/s) = 3.53663 3.63292 3.58510
# Velocity P-wave (km/s) = 5.90399 6.00807 5.95626
#
# Compressibility (1/GPa) = 0.02134211
#
# Stress axis : x y z
#
# Youngs Moduli (GPa) = 105.90443 88.18362 86.97395
#
# Poissons Ratio (x) = 0.18390 0.17196
# Poissons Ratio (y) = 0.22085 0.12232
# Poissons Ratio (z) = 0.20939 0.12402
#
# Static dielectric constant tensor:
#      x y z
#    x 2.225840 0.000000 0.000000 
#    y 0.000000 2.076630 0.000000 
#    z 0.000000 0.000000 2.122540 
# 
# From -- ./inp_files/30410.got.cif
#   From: 2010.05.17/outbox.cif.g08.bks.cpg/sg20_16_cif.got.tgz:30410.got - 2010.06.03 22:52:26.
