data_PCOD9321206
_publ_section_title
;
Structure prediction by ZEFSAII (Michael W. Deem and Ramdas Pophale) SiO2 
 PCOD9321206
Probable space group: C 2 2 21
;
_chemical_formula_sum "Si O2"
_cell_formula_units_Z 36
_cell_length_a 8.988738
_cell_length_b 9.917234
_cell_length_c 19.159902
_cell_angle_alpha 90.000000
_cell_angle_beta 90.000000
_cell_angle_gamma 90.000000
_cell_volume 1707.979155
_symmetry_space_group_name_H-M "C 2 2 21"
_symmetry_group_IT_number 20
_symmetry_cell_setting 'orthorhombic'
loop_
_space_group_symop_operation_xyz
x,y,z
-x,-y,1/2+z
x,-y,-z
-x,y,1/2-z
1/2+x,1/2+y,z
1/2-x,1/2-y,1/2+z
1/2+x,1/2-y,-z
1/2-x,1/2+y,1/2-z
loop_
_atom_site_type_symbol
_atom_site_label
_atom_site_fract_x
_atom_site_fract_y
_atom_site_fract_z
Si Si1 0.535732 0.353697 0.518631
Si Si2 0.511771 0.093783 0.070455
Si Si3 0.000000 0.824991 0.750000
Si Si4 0.756247 0.237606 0.138333
Si Si5 0.310070 0.535928 0.371428
O O1 0.604112 0.500000 0.500000
O O2 0.505554 0.245596 0.459260
O O3 0.642533 0.273975 0.570149
O O4 0.389389 0.397921 0.561251
O O5 0.647169 0.108955 0.126310
O O6 0.364415 0.056642 0.113778
O O7 0.530299 0.000000 0.000000
O O8 0.872827 0.756889 0.797875
O O9 0.895891 0.902361 0.694384
O O10 0.669198 0.377013 0.137461
#
# Coordination Sequence:
#
# PCOD9321206 Si02
#       5
#     8   8   4   8   8
#     4  11  21  42  69 102 142 168 212 276 349 404
#     4  12  23  40  73 106 135 173 218 281 350 400
#     4  10  28  46  64  92 134 192 234 268 330 398
#     4  11  24  44  67  98 135 181 223 281 330 405
#     4  11  24  45  66  98 138 177 227 281 325 405
#
# _framework density 21.077541
#
# number of rings (size 3 to 8) (size 9 to 14) (size 15 to 20)
#    0.000    0.889    4.444    2.667    0.000    4.444 
#    0.000    0.000    0.000    0.000    0.000    0.000 
#    0.000    0.000    0.000    0.000    0.000    0.000 
#
# Total GULP energy -100250.930521 kJ/mol
# GULP energy per Si atom -5569.496140 kJ/mol
# Density = 2.102957 g / cm^3
# Si number density = 21.077541 Si / 1000 Ang^3
#
#
#
# Elastic Constant Matrix: (Units=GPa)
#
#
# Indices 1 2 3 4 5 6 
#
# 1 91.7777 -5.1348 23.2069 0.0000 0.0000 0.0000
# 2 -5.1348 95.5354 35.3268 0.0000 0.0000 0.0000
# 3 23.2069 35.3268 80.1527 0.0000 0.0000 0.0000
# 4 0.0000 0.0000 0.0000 -0.8123 0.0000 0.0000
# 5 0.0000 0.0000 0.0000 0.0000 13.9427 0.0000
# 6 0.0000 0.0000 0.0000 0.0000 0.0000 29.8393
#
#
#
# Elastic Compliance Matrix: (Units=1/GPa)
#
#
# Indices 1 2 3 4 5 6 
#
# 1 0.012179 0.002340 -0.004558 0.000000 0.000000 0.000000
# 2 0.002340 0.012955 -0.006387 0.000000 0.000000 0.000000
# 3 -0.004558 -0.006387 0.016611 0.000000 0.000000 0.000000
# 4 0.000000 0.000000 0.000000 -1.231087 0.000000 0.000000
# 5 0.000000 0.000000 0.000000 0.000000 0.071722 0.000000
# 6 0.000000 0.000000 0.000000 0.000000 0.000000 0.033513
#
#
# Mechanical properties :
#
#
# Convention : Reuss Voigt Hill
#
# Bulk Modulus (GPa) = 40.75789 41.58487 41.17138
# Shear Modulus (GPa) = -4.72269 22.86507 9.07119
#
# Velocity S-wave (km/s) = -1.49850 3.29721 2.07679
# Velocity P-wave (km/s) = 4.04785 5.85387 5.03254
#
# Compressibility (1/GPa) = 0.02453513
#
# Stress axis : x y z
#
# Youngs Moduli (GPa) = 82.10695 77.19050 60.20135
#
# Poissons Ratio (x) = -0.18062 0.27437
# Poissons Ratio (y) = -0.19212 0.38452
# Poissons Ratio (z) = 0.37421 0.49304
#
# Static dielectric constant tensor:
#      x y z
#    x 1.836280 0.000000 0.000000 
#    y 0.000000 1.787200 0.000000 
#    z 0.000000 0.000000 1.795780 
# 
# From -- ./inp_files/26389.got.cif
#   From: 2010.05.17/outbox.cif.g08.bks.cpg/sg20_14_cif.got.tgz:26389.got - 2010.06.03 22:52:26.
