data_PCOD9321512
_publ_section_title
;
Structure prediction by ZEFSAII (Michael W. Deem and Ramdas Pophale) SiO2 
 PCOD9321512
Probable space group: C 2 2 21
;
_chemical_formula_sum "Si O2"
_cell_formula_units_Z 56
_cell_length_a 14.495522
_cell_length_b 11.630664
_cell_length_c 15.056231
_cell_angle_alpha 90.000000
_cell_angle_beta 90.000000
_cell_angle_gamma 90.000000
_cell_volume 2538.368316
_symmetry_space_group_name_H-M "C 2 2 21"
_symmetry_group_IT_number 20
_symmetry_cell_setting 'orthorhombic'
loop_
_space_group_symop_operation_xyz
x,y,z
-x,-y,1/2+z
x,-y,-z
-x,y,1/2-z
1/2+x,1/2+y,z
1/2-x,1/2-y,1/2+z
1/2+x,1/2-y,-z
1/2-x,1/2+y,1/2-z
loop_
_atom_site_type_symbol
_atom_site_label
_atom_site_fract_x
_atom_site_fract_y
_atom_site_fract_z
Si Si1 0.127846 0.456587 0.124060
Si Si2 0.666946 0.189084 0.521187
Si Si3 0.030788 0.343300 0.953576
Si Si4 0.327146 0.428649 0.074681
Si Si5 0.891201 0.016379 0.253645
Si Si6 0.369432 0.398963 0.438454
Si Si7 0.891052 0.273810 0.226368
O O1 0.067358 0.572352 0.124054
O O2 0.229439 0.490019 0.092361
O O3 0.141810 0.378824 0.211223
O O4 0.080347 0.381926 0.045746
O O5 0.578146 0.138975 0.469283
O O6 0.686784 0.305400 0.467229
O O7 0.766195 0.129446 0.527288
O O8 0.631062 0.207852 0.622495
O O9 0.064853 0.213082 0.938644
O O10 0.373147 0.436751 0.169073
O O11 0.380085 0.500000 0.000000
O O12 0.860776 0.950711 0.340759
O O13 0.000000 0.034141 0.250000
O O14 0.851575 0.146788 0.249359
O O15 0.407922 0.500000 0.500000
O O16 0.000000 0.273574 0.250000
#
# Coordination Sequence:
#
# PCOD9321512 Si02
#       7
#     8   8   8   8   8   8   8
#     4  11  22  44  69  95 141 187 241 290 357 440
#     4  12  25  43  73 108 142 187 247 302 370 428
#     4  11  24  44  72  99 139 188 237 292 369 428
#     4  12  22  44  72  98 140 190 239 299 360 444
#     4  11  26  44  70 108 145 190 242 301 374 438
#     4  12  27  47  72 108 149 187 245 308 366 437
#     4  11  23  40  69 103 138 188 242 296 359 437
#
# _framework density 22.061416000000001
#
# number of rings (size 3 to 8) (size 9 to 14) (size 15 to 20)
#    0.000    0.571    5.714    2.571    4.000    1.143 
#    0.000    2.143    0.000    0.000    0.000    0.000 
#    0.000    0.000    0.000    0.000    0.000    0.000 
#
# Total GULP energy -156411.044209 kJ/mol
# GULP energy per Si atom -5586.108722 kJ/mol
# Density = 2.201120 g / cm^3
# Si number density = 22.061416 Si / 1000 Ang^3
#
#
#
# Elastic Constant Matrix: (Units=GPa)
#
#
# Indices 1 2 3 4 5 6 
#
# 1 96.7767 19.3497 6.4225 0.0000 0.0000 0.0000
# 2 19.3497 145.2481 66.2156 0.0000 0.0000 0.0000
# 3 6.4225 66.2156 127.0061 0.0000 0.0000 0.0000
# 4 0.0000 0.0000 0.0000 31.2246 0.0000 0.0000
# 5 0.0000 0.0000 0.0000 0.0000 51.3066 0.0000
# 6 0.0000 0.0000 0.0000 0.0000 0.0000 19.8524
#
#
#
# Elastic Compliance Matrix: (Units=1/GPa)
#
#
# Indices 1 2 3 4 5 6 
#
# 1 0.010623 -0.001535 0.000263 0.000000 0.000000 0.000000
# 2 -0.001535 0.009253 -0.004747 0.000000 0.000000 0.000000
# 3 0.000263 -0.004747 0.010335 0.000000 0.000000 0.000000
# 4 0.000000 0.000000 0.000000 0.032026 0.000000 0.000000
# 5 0.000000 0.000000 0.000000 0.000000 0.019491 0.000000
# 6 0.000000 0.000000 0.000000 0.000000 0.000000 0.050372
#
#
# Mechanical properties :
#
#
# Convention : Reuss Voigt Hill
#
# Bulk Modulus (GPa) = 55.02466 61.44518 58.23492
# Shear Modulus (GPa) = 33.29029 38.94626 36.11827
#
# Velocity S-wave (km/s) = 3.88878 4.20617 4.05058
# Velocity P-wave (km/s) = 6.72006 7.17646 6.95200
#
# Compressibility (1/GPa) = 0.01817367
#
# Stress axis : x y z
#
# Youngs Moduli (GPa) = 94.13951 108.07155 96.75875
#
# Poissons Ratio (x) = 0.16590 -0.02546
# Poissons Ratio (y) = 0.14451 0.45927
# Poissons Ratio (z) = -0.02477 0.51297
#
# Static dielectric constant tensor:
#      x y z
#    x 1.852490 0.000000 0.000000 
#    y 0.000000 1.832520 0.000000 
#    z 0.000000 0.000000 1.811090 
# 
# From -- ./inp_files/20761.got.cif
#   From: 2010.05.17/outbox.cif.g08.bks.cpg/sg20_11_cif.got.tgz:20761.got - 2010.06.03 22:52:26.
