data_PCOD9321426
_publ_section_title
;
Structure prediction by ZEFSAII (Michael W. Deem and Ramdas Pophale) SiO2 
 PCOD9321426
Probable space group: C 2 2 21
;
_chemical_formula_sum "Si O2"
_cell_formula_units_Z 48
_cell_length_a 13.388093
_cell_length_b 9.539290
_cell_length_c 17.959034
_cell_angle_alpha 90.000000
_cell_angle_beta 90.000000
_cell_angle_gamma 90.000000
_cell_volume 2293.600343
_symmetry_space_group_name_H-M "C 2 2 21"
_symmetry_group_IT_number 20
_symmetry_cell_setting 'orthorhombic'
loop_
_space_group_symop_operation_xyz
x,y,z
-x,-y,1/2+z
x,-y,-z
-x,y,1/2-z
1/2+x,1/2+y,z
1/2-x,1/2-y,1/2+z
1/2+x,1/2-y,-z
1/2-x,1/2+y,1/2-z
loop_
_atom_site_type_symbol
_atom_site_label
_atom_site_fract_x
_atom_site_fract_y
_atom_site_fract_z
Si Si1 0.182709 0.879292 0.556995
Si Si2 0.764375 0.479608 0.304522
Si Si3 0.207825 0.153369 0.025126
Si Si4 0.019292 0.557127 0.122838
Si Si5 0.820738 0.331789 0.826661
Si Si6 0.508897 0.789543 0.034711
O O1 0.191286 0.938049 0.639331
O O2 0.251625 0.744799 0.543096
O O3 0.072788 0.831223 0.534156
O O4 0.218214 0.000000 0.500000
O O5 0.875247 0.512682 0.339740
O O6 0.768748 0.550794 0.224046
O O7 0.723448 0.320225 0.303561
O O8 0.293386 0.149050 0.086811
O O9 0.114045 0.229816 0.061478
O O10 0.179200 0.000000 0.000000
O O11 0.974135 0.411874 0.090380
O O12 0.939855 0.638669 0.174323
O O13 0.030408 0.648799 0.047458
#
# Coordination Sequence:
#
# PCOD9321426 Si02
#       6
#     8   8   8   8   8   8
#     4  12  22  44  70  99 140 186 237 302 356 424
#     4  12  27  47  72 102 146 193 237 296 364 430
#     4  12  24  42  70 106 142 183 243 300 357 426
#     4  11  22  45  73 102 139 186 237 296 366 421
#     4  12  27  46  71 106 145 194 241 292 366 432
#     4  11  22  39  74 109 136 178 243 302 357 426
#
# _framework density 20.927796000000001
#
# number of rings (size 3 to 8) (size 9 to 14) (size 15 to 20)
#    0.000    0.333    6.667    2.000    4.667    0.000 
#    0.000    2.500    0.000    0.000    0.000    0.000 
#    0.000    0.000    0.000    0.000    0.000    0.000 
#
# Total GULP energy -134043.696653 kJ/mol
# GULP energy per Si atom -5585.154027 kJ/mol
# Density = 2.088016 g / cm^3
# Si number density = 20.927796 Si / 1000 Ang^3
#
#
#
# Elastic Constant Matrix: (Units=GPa)
#
#
# Indices 1 2 3 4 5 6 
#
# 1 102.9843 43.1419 -1.1145 0.0000 0.0000 0.0000
# 2 43.1419 111.1272 20.5620 0.0000 0.0000 0.0000
# 3 -1.1145 20.5620 39.4353 0.0000 0.0000 0.0000
# 4 0.0000 0.0000 0.0000 32.1026 0.0000 0.0000
# 5 0.0000 0.0000 0.0000 0.0000 25.8796 0.0000
# 6 0.0000 0.0000 0.0000 0.0000 0.0000 35.0080
#
#
#
# Elastic Compliance Matrix: (Units=1/GPa)
#
#
# Indices 1 2 3 4 5 6 
#
# 1 0.011917 -0.005189 0.003043 0.000000 0.000000 0.000000
# 2 -0.005189 0.012219 -0.006518 0.000000 0.000000 0.000000
# 3 0.003043 -0.006518 0.028843 0.000000 0.000000 0.000000
# 4 0.000000 0.000000 0.000000 0.031150 0.000000 0.000000
# 5 0.000000 0.000000 0.000000 0.000000 0.038641 0.000000
# 6 0.000000 0.000000 0.000000 0.000000 0.000000 0.028565
#
#
# Mechanical properties :
#
#
# Convention : Reuss Voigt Hill
#
# Bulk Modulus (GPa) = 28.05098 42.08065 35.06581
# Shear Modulus (GPa) = 27.69357 31.32852 29.51104
#
# Velocity S-wave (km/s) = 3.64165 3.87328 3.75925
# Velocity P-wave (km/s) = 5.57808 6.33674 5.96947
#
# Compressibility (1/GPa) = 0.03564938
#
# Stress axis : x y z
#
# Youngs Moduli (GPa) = 83.91304 81.83716 34.67102
#
# Poissons Ratio (x) = 0.42469 -0.10549
# Poissons Ratio (y) = 0.43546 0.22599
# Poissons Ratio (z) = -0.25532 0.53341
#
# Static dielectric constant tensor:
#      x y z
#    x 1.802400 0.000000 0.000000 
#    y 0.000000 1.746130 0.000000 
#    z 0.000000 0.000000 1.729490 
# 
# From -- ./inp_files/23443.got.cif
#   From: 2010.05.17/outbox.cif.g08.bks.cpg/sg20_12_cif.got.tgz:23443.got - 2010.06.03 22:52:26.
