data_PCOD9321604
_publ_section_title
;
Structure prediction by ZEFSAII (Michael W. Deem and Ramdas Pophale) SiO2 
 PCOD9321604
Probable space group: C 2 2 21
;
_chemical_formula_sum "Si O2"
_cell_formula_units_Z 24
_cell_length_a 9.714859
_cell_length_b 17.080695
_cell_length_c 7.324882
_cell_angle_alpha 90.000000
_cell_angle_beta 90.000000
_cell_angle_gamma 90.000000
_cell_volume 1215.465601
_symmetry_space_group_name_H-M "C 2 2 21"
_symmetry_group_IT_number 20
_symmetry_cell_setting 'orthorhombic'
loop_
_space_group_symop_operation_xyz
x,y,z
-x,-y,1/2+z
x,-y,-z
-x,y,1/2-z
1/2+x,1/2+y,z
1/2-x,1/2-y,1/2+z
1/2+x,1/2-y,-z
1/2-x,1/2+y,1/2-z
loop_
_atom_site_type_symbol
_atom_site_label
_atom_site_fract_x
_atom_site_fract_y
_atom_site_fract_z
Si Si1 0.841394 0.334499 0.593548
Si Si2 0.122311 0.589744 0.474059
Si Si3 0.343701 0.657541 0.746288
O O1 0.987440 0.356129 0.500637
O O2 0.721581 0.342640 0.447166
O O3 0.845275 0.246560 0.670597
O O4 0.829288 0.391583 0.767708
O O5 0.081035 0.500000 0.500000
O O6 0.242984 0.610230 0.613459
O O7 0.500000 0.628377 0.750000
#
# Coordination Sequence:
#
# PCOD9321604 Si02
#       3
#     8   8   8
#     4  11  23  43  71  98 130 182 229 274 329 414
#     4  11  26  45  67 101 135 180 235 276 338 406
#     4  12  23  43  68 100 137 174 226 282 341 401
#
# _framework density 19.745519000000002
#
# number of rings (size 3 to 8) (size 9 to 14) (size 15 to 20)
#    0.000    0.667    6.667    1.000    9.333    1.333 
#    6.000    0.000    0.000    0.000    0.000    0.000 
#    0.000    0.000    0.000    0.000    0.000    0.000 
#
# Total GULP energy -67115.254836 kJ/mol
# GULP energy per Si atom -5592.937903 kJ/mol
# Density = 1.970058 g / cm^3
# Si number density = 19.745519 Si / 1000 Ang^3
#
#
#
# Elastic Constant Matrix: (Units=GPa)
#
#
# Indices 1 2 3 4 5 6 
#
# 1 103.7943 3.6472 38.5902 0.0000 0.0000 0.0000
# 2 3.6472 57.2352 -8.1055 0.0000 0.0000 0.0000
# 3 38.5902 -8.1055 58.5519 0.0000 0.0000 0.0000
# 4 0.0000 0.0000 0.0000 23.5631 0.0000 0.0000
# 5 0.0000 0.0000 0.0000 0.0000 38.6173 0.0000
# 6 0.0000 0.0000 0.0000 0.0000 0.0000 16.8808
#
#
#
# Elastic Compliance Matrix: (Units=1/GPa)
#
#
# Indices 1 2 3 4 5 6 
#
# 1 0.013000 -0.002083 -0.008857 0.000000 0.000000 0.000000
# 2 -0.002083 0.018155 0.003886 0.000000 0.000000 0.000000
# 3 -0.008857 0.003886 0.023454 0.000000 0.000000 0.000000
# 4 0.000000 0.000000 0.000000 0.042439 0.000000 0.000000
# 5 0.000000 0.000000 0.000000 0.000000 0.025895 0.000000
# 6 0.000000 0.000000 0.000000 0.000000 0.000000 0.059239
#
#
# Mechanical properties :
#
#
# Convention : Reuss Voigt Hill
#
# Bulk Modulus (GPa) = 24.68993 31.98281 28.33637
# Shear Modulus (GPa) = 23.83335 28.17556 26.00446
#
# Velocity S-wave (km/s) = 3.47800 3.78158 3.63296
# Velocity P-wave (km/s) = 5.35349 5.94136 5.65507
#
# Compressibility (1/GPa) = 0.04050234
#
# Stress axis : x y z
#
# Youngs Moduli (GPa) = 76.92034 55.08195 42.63670
#
# Poissons Ratio (x) = 0.11472 0.37762
# Poissons Ratio (y) = 0.16020 -0.16568
# Poissons Ratio (z) = 0.68125 -0.21404
#
# Static dielectric constant tensor:
#      x y z
#    x 1.685620 0.000000 0.000000 
#    y 0.000000 1.671700 0.000000 
#    z 0.000000 0.000000 1.697810 
# 
# From -- ./inp_files/1523.got.cif
#   From: 2010.05.17/outbox.cif.g08.bks.cpg/sg20_1_cif.got.tgz:1523.got - 2010.06.03 22:52:26.
