data_PCOD9321953
_publ_section_title
;
Structure prediction by ZEFSAII (Michael W. Deem and Ramdas Pophale) SiO2 
 PCOD9321953
Probable space group: C 2 2 21
;
_chemical_formula_sum "Si O2"
_cell_formula_units_Z 36
_cell_length_a 13.382454
_cell_length_b 26.387605
_cell_length_c 4.792267
_cell_angle_alpha 90.000000
_cell_angle_beta 90.000000
_cell_angle_gamma 90.000000
_cell_volume 1692.297607
_symmetry_space_group_name_H-M "C 2 2 21"
_symmetry_group_IT_number 20
_symmetry_cell_setting 'orthorhombic'
loop_
_space_group_symop_operation_xyz
x,y,z
-x,-y,1/2+z
x,-y,-z
-x,y,1/2-z
1/2+x,1/2+y,z
1/2-x,1/2-y,1/2+z
1/2+x,1/2-y,-z
1/2-x,1/2+y,1/2-z
loop_
_atom_site_type_symbol
_atom_site_label
_atom_site_fract_x
_atom_site_fract_y
_atom_site_fract_z
Si Si1 0.703896 0.613845 0.666111
Si Si2 0.500000 0.260562 0.750000
Si Si3 0.759364 0.550856 0.166465
Si Si4 0.793582 0.278898 0.469509
Si Si5 0.933467 0.500000 0.500000
Si Si6 0.000000 0.836149 0.250000
O O1 0.691501 0.573932 0.412957
O O2 0.757834 0.663613 0.548334
O O3 0.597759 0.630065 0.795421
O O4 0.768195 0.590861 0.918005
O O5 0.594154 0.228816 0.858866
O O6 0.526920 0.299226 0.503236
O O7 0.861050 0.537846 0.331731
O O8 0.726458 0.500000 0.000000
O O9 0.776961 0.256026 0.774335
O O10 0.000000 0.523007 0.750000
#
# Coordination Sequence:
#
# PCOD9321953 Si02
#       6
#     8   4   8   8   4   4
#     4  12  24  43  72 103 139 189 241 291 356 427
#     4  12  22  44  66  99 148 187 234 288 362 424
#     4  12  24  47  70  99 144 178 232 299 351 413
#     4  12  23  43  67 101 141 183 233 296 346 422
#     4  12  22  46  76  96 128 186 236 282 364 430
#     4  12  24  42  74  99 134 197 242 272 362 440
#
# _framework density 21.272855
#
# number of rings (size 3 to 8) (size 9 to 14) (size 15 to 20)
#    0.000    0.000    7.778    2.667    0.000    0.000 
#    6.000    2.222    2.444    0.000    0.000    0.000 
#    0.000    0.000    0.000    0.000    0.000    0.000 
#
# Total GULP energy -100592.977621 kJ/mol
# GULP energy per Si atom -5588.498757 kJ/mol
# Density = 2.122444 g / cm^3
# Si number density = 21.272855 Si / 1000 Ang^3
#
#
#
# Elastic Constant Matrix: (Units=GPa)
#
#
# Indices 1 2 3 4 5 6 
#
# 1 92.4479 32.8283 -2.8337 0.0000 0.0000 0.0000
# 2 32.8283 91.9985 29.4964 0.0000 0.0000 0.0000
# 3 -2.8337 29.4964 99.0200 0.0000 0.0000 0.0000
# 4 0.0000 0.0000 0.0000 63.9184 0.0000 0.0000
# 5 0.0000 0.0000 0.0000 0.0000 37.1351 0.0000
# 6 0.0000 0.0000 0.0000 0.0000 0.0000 59.1797
#
#
#
# Elastic Compliance Matrix: (Units=1/GPa)
#
#
# Indices 1 2 3 4 5 6 
#
# 1 0.012700 -0.005139 0.001894 0.000000 0.000000 0.000000
# 2 -0.005139 0.014097 -0.004346 0.000000 0.000000 0.000000
# 3 0.001894 -0.004346 0.011448 0.000000 0.000000 0.000000
# 4 0.000000 0.000000 0.000000 0.015645 0.000000 0.000000
# 5 0.000000 0.000000 0.000000 0.000000 0.026929 0.000000
# 6 0.000000 0.000000 0.000000 0.000000 0.000000 0.016898
#
#
# Mechanical properties :
#
#
# Convention : Reuss Voigt Hill
#
# Bulk Modulus (GPa) = 43.36044 44.71649 44.03846
# Shear Modulus (GPa) = 41.46419 46.97834 44.22126
#
# Velocity S-wave (km/s) = 4.41972 4.70443 4.56429
# Velocity P-wave (km/s) = 6.81707 7.11161 6.96590
#
# Compressibility (1/GPa) = 0.02306250
#
# Stress axis : x y z
#
# Youngs Moduli (GPa) = 78.74101 70.93666 87.35233
#
# Poissons Ratio (x) = 0.36455 -0.16547
# Poissons Ratio (y) = 0.40466 0.37966
# Poissons Ratio (z) = -0.14916 0.30832
#
# Static dielectric constant tensor:
#      x y z
#    x 1.790440 0.000000 0.000000 
#    y 0.000000 1.762540 0.000000 
#    z 0.000000 0.000000 1.663380 
# 
# From -- ./inp_files/1856.got.cif
#   From: 2010.05.17/outbox.cif.g08.bks.cpg/sg20_1_cif.got.tgz:1856.got - 2010.06.03 22:52:26.
