data_PCOD9321933
_publ_section_title
;
Structure prediction by ZEFSAII (Michael W. Deem and Ramdas Pophale) SiO2 
 PCOD9321933
Probable space group: C 2 2 21
;
_chemical_formula_sum "Si O2"
_cell_formula_units_Z 56
_cell_length_a 13.812577
_cell_length_b 5.441751
_cell_length_c 32.121547
_cell_angle_alpha 90.000000
_cell_angle_beta 90.000000
_cell_angle_gamma 90.000000
_cell_volume 2414.403383
_symmetry_space_group_name_H-M "C 2 2 21"
_symmetry_group_IT_number 20
_symmetry_cell_setting 'orthorhombic'
loop_
_space_group_symop_operation_xyz
x,y,z
-x,-y,1/2+z
x,-y,-z
-x,y,1/2-z
1/2+x,1/2+y,z
1/2-x,1/2-y,1/2+z
1/2+x,1/2-y,-z
1/2-x,1/2+y,1/2-z
loop_
_atom_site_type_symbol
_atom_site_label
_atom_site_fract_x
_atom_site_fract_y
_atom_site_fract_z
Si Si1 0.805816 0.942028 0.253021
Si Si2 0.404201 0.412081 0.339563
Si Si3 0.611905 0.418471 0.668152
Si Si4 0.271282 0.248283 0.975181
Si Si5 0.606425 0.939778 0.404250
Si Si6 0.775397 0.696583 0.621326
Si Si7 0.899663 0.373623 0.575359
O O1 0.763551 0.678701 0.236179
O O2 0.861390 0.855290 0.294488
O O3 0.870649 0.073254 0.217412
O O4 0.519710 0.409899 0.338607
O O5 0.355168 0.673460 0.349984
O O6 0.379717 0.253114 0.380013
O O7 0.583812 0.180913 0.640735
O O8 0.712859 0.505638 0.648327
O O9 0.344328 0.254707 0.935609
O O10 0.158844 0.231336 0.959938
O O11 0.284246 0.500000 0.000000
O O12 0.295358 0.000000 0.000000
O O13 0.692082 0.126112 0.395049
O O14 0.512195 0.060516 0.425486
O O15 0.835633 0.616842 0.580991
#
# Coordination Sequence:
#
# PCOD9321933 Si02
#       7
#     8   8   8   8   8   8   8
#     4  12  27  46  71 110 162 204 253 326 377 436
#     4  12  25  44  75 111 151 202 261 312 379 451
#     4  12  25  44  75 111 151 202 261 312 379 451
#     4  12  29  52  79 114 158 198 248 327 396 457
#     4  12  26  47  80 111 148 204 256 309 383 470
#     4  12  21  46  71 108 148 192 256 309 366 453
#     4  12  26  47  80 111 148 204 256 309 383 470
#
# _framework density 23.194134999999999
#
# number of rings (size 3 to 8) (size 9 to 14) (size 15 to 20)
#    0.000    0.000    7.143    3.000    0.000    0.571 
#    0.000    5.714    0.000    0.000    0.000    0.000 
#    0.000    0.000    0.000    0.000    0.000    0.000 
#
# Total GULP energy -156298.535814 kJ/mol
# GULP energy per Si atom -5582.090565 kJ/mol
# Density = 2.314134 g / cm^3
# Si number density = 23.194135 Si / 1000 Ang^3
#
#
#
# Elastic Constant Matrix: (Units=GPa)
#
#
# Indices 1 2 3 4 5 6 
#
# 1 101.0092 9.5510 11.6221 0.0000 0.0000 0.0000
# 2 9.5510 60.0378 24.1412 0.0000 0.0000 0.0000
# 3 11.6221 24.1412 80.5887 0.0000 0.0000 0.0000
# 4 0.0000 0.0000 0.0000 32.8491 0.0000 0.0000
# 5 0.0000 0.0000 0.0000 0.0000 25.9385 0.0000
# 6 0.0000 0.0000 0.0000 0.0000 0.0000 33.1705
#
#
#
# Elastic Compliance Matrix: (Units=1/GPa)
#
#
# Indices 1 2 3 4 5 6 
#
# 1 0.010138 -0.001165 -0.001113 0.000000 0.000000 0.000000
# 2 -0.001165 0.019071 -0.005545 0.000000 0.000000 0.000000
# 3 -0.001113 -0.005545 0.014230 0.000000 0.000000 0.000000
# 4 0.000000 0.000000 0.000000 0.030442 0.000000 0.000000
# 5 0.000000 0.000000 0.000000 0.000000 0.038553 0.000000
# 6 0.000000 0.000000 0.000000 0.000000 0.000000 0.030147
#
#
# Mechanical properties :
#
#
# Convention : Reuss Voigt Hill
#
# Bulk Modulus (GPa) = 35.97994 36.91827 36.44911
# Shear Modulus (GPa) = 29.85202 31.47972 30.66587
#
# Velocity S-wave (km/s) = 3.59144 3.68805 3.64007
# Velocity P-wave (km/s) = 5.72225 5.83843 5.78063
#
# Compressibility (1/GPa) = 0.02779326
#
# Stress axis : x y z
#
# Youngs Moduli (GPa) = 98.63553 52.43522 70.27284
#
# Poissons Ratio (x) = 0.06110 0.07822
# Poissons Ratio (y) = 0.11494 0.38966
# Poissons Ratio (z) = 0.10978 0.29075
#
# Static dielectric constant tensor:
#      x y z
#    x 1.831170 0.000000 0.000000 
#    y 0.000000 2.046270 0.000000 
#    z 0.000000 0.000000 1.981930 
# 
# From -- ./inp_files/31294.got.cif
#   From: 2010.05.17/outbox.cif.g08.bks.cpg/sg20_16_cif.got.tgz:31294.got - 2010.06.03 22:52:26.
