data_PCOD9321333
_publ_section_title
;
Structure prediction by ZEFSAII (Michael W. Deem and Ramdas Pophale) SiO2 
 PCOD9321333
Probable space group: C 2 2 21
;
_chemical_formula_sum "Si O2"
_cell_formula_units_Z 60
_cell_length_a 8.774883
_cell_length_b 17.723689
_cell_length_c 19.162541
_cell_angle_alpha 90.000000
_cell_angle_beta 90.000000
_cell_angle_gamma 90.000000
_cell_volume 2980.221561
_symmetry_space_group_name_H-M "C 2 2 21"
_symmetry_group_IT_number 20
_symmetry_cell_setting 'orthorhombic'
loop_
_space_group_symop_operation_xyz
x,y,z
-x,-y,1/2+z
x,-y,-z
-x,y,1/2-z
1/2+x,1/2+y,z
1/2-x,1/2-y,1/2+z
1/2+x,1/2-y,-z
1/2-x,1/2+y,1/2-z
loop_
_atom_site_type_symbol
_atom_site_label
_atom_site_fract_x
_atom_site_fract_y
_atom_site_fract_z
Si Si1 0.000000 0.515505 0.750000
Si Si2 0.649654 0.582419 0.008756
Si Si3 0.649231 0.200436 0.554376
Si Si4 0.326245 0.285853 0.730917
Si Si5 0.410294 0.685573 0.939767
Si Si6 0.888431 0.711690 0.362380
Si Si7 0.371015 0.858778 0.353724
Si Si8 0.348808 0.096512 0.143864
O O1 0.077755 0.567274 0.810753
O O2 0.117305 0.463387 0.705570
O O3 0.763468 0.621073 0.952948
O O4 0.509163 0.640418 0.997516
O O5 0.581892 0.500000 0.000000
O O6 0.759885 0.569926 0.075406
O O7 0.619181 0.234012 0.477722
O O8 0.755884 0.267100 0.583603
O O9 0.507692 0.182290 0.603692
O O10 0.500000 0.305767 0.750000
O O11 0.201502 0.294573 0.790764
O O12 0.326107 0.200135 0.706118
O O13 0.265585 0.339054 0.670555
O O14 0.505011 0.714358 0.872088
O O15 0.267056 0.639620 0.909817
O O16 0.989125 0.636926 0.371396
#
# Coordination Sequence:
#
# PCOD9321333 Si02
#       8
#     4   8   8   8   8   8   8   8
#     4  12  26  44  70 106 148 188 224 286 378 414
#     4  11  25  45  65  96 140 180 221 287 352 407
#     4  11  21  42  71 103 131 180 233 287 350 403
#     4  12  22  41  69  99 131 180 236 285 333 413
#     4  11  24  42  71 102 134 178 234 290 340 414
#     4  11  21  38  69  99 129 173 235 283 326 414
#     4  12  23  43  69 106 142 175 232 295 354 426
#     4  12  24  46  67  97 142 187 233 276 347 431
#
# _framework density 20.132731
#
# number of rings (size 3 to 8) (size 9 to 14) (size 15 to 20)
#    0.000    0.533    6.000    3.200    0.000    1.067 
#    4.800    0.667    0.000    0.000    0.000    0.000 
#    0.000    0.000    0.000    0.000    0.000    0.000 
#
# Total GULP energy -167041.915195 kJ/mol
# GULP energy per Si atom -5568.063840 kJ/mol
# Density = 2.008691 g / cm^3
# Si number density = 20.132731 Si / 1000 Ang^3
#
#
#
# Elastic Constant Matrix: (Units=GPa)
#
#
# Indices 1 2 3 4 5 6 
#
# 1 97.8184 15.2405 25.9013 0.0000 0.0000 0.0000
# 2 15.2405 65.6201 -1.2826 0.0000 0.0000 0.0000
# 3 25.9013 -1.2826 47.7006 0.0000 0.0000 0.0000
# 4 0.0000 0.0000 0.0000 11.6887 0.0000 0.0000
# 5 0.0000 0.0000 0.0000 0.0000 38.0954 0.0000
# 6 0.0000 0.0000 0.0000 0.0000 0.0000 22.8058
#
#
#
# Elastic Compliance Matrix: (Units=1/GPa)
#
#
# Indices 1 2 3 4 5 6 
#
# 1 0.012519 -0.003042 -0.006879 0.000000 0.000000 0.000000
# 2 -0.003042 0.015986 0.002082 0.000000 0.000000 0.000000
# 3 -0.006879 0.002082 0.024755 0.000000 0.000000 0.000000
# 4 0.000000 0.000000 0.000000 0.085553 0.000000 0.000000
# 5 0.000000 0.000000 0.000000 0.000000 0.026250 0.000000
# 6 0.000000 0.000000 0.000000 0.000000 0.000000 0.043849
#
#
# Mechanical properties :
#
#
# Convention : Reuss Voigt Hill
#
# Bulk Modulus (GPa) = 26.60905 32.31748 29.46327
# Shear Modulus (GPa) = 21.08654 25.93663 23.51158
#
# Velocity S-wave (km/s) = 3.23983 3.59316 3.42106
# Velocity P-wave (km/s) = 5.21928 5.77074 5.50192
#
# Compressibility (1/GPa) = 0.03758119
#
# Stress axis : x y z
#
# Youngs Moduli (GPa) = 79.88150 62.55308 40.39508
#
# Poissons Ratio (x) = 0.19028 0.27789
# Poissons Ratio (y) = 0.24299 -0.08409
# Poissons Ratio (z) = 0.54953 -0.13021
#
# Static dielectric constant tensor:
#      x y z
#    x 1.765520 0.000000 0.000000 
#    y 0.000000 1.706280 0.000000 
#    z 0.000000 0.000000 -0.281490 
# 
# From -- ./inp_files/23764.got.cif
#   From: 2010.05.17/outbox.cif.g08.bks.cpg/sg20_12_cif.got.tgz:23764.got - 2010.06.03 22:52:26.
