data_PCOD9321568
_publ_section_title
;
Structure prediction by ZEFSAII (Michael W. Deem and Ramdas Pophale) SiO2 
 PCOD9321568
Probable space group: C 2 2 21
;
_chemical_formula_sum "Si O2"
_cell_formula_units_Z 40
_cell_length_a 10.552593
_cell_length_b 18.997993
_cell_length_c 8.314112
_cell_angle_alpha 90.000000
_cell_angle_beta 90.000000
_cell_angle_gamma 90.000000
_cell_volume 1666.797277
_symmetry_space_group_name_H-M "C 2 2 21"
_symmetry_group_IT_number 20
_symmetry_cell_setting 'orthorhombic'
loop_
_space_group_symop_operation_xyz
x,y,z
-x,-y,1/2+z
x,-y,-z
-x,y,1/2-z
1/2+x,1/2+y,z
1/2-x,1/2-y,1/2+z
1/2+x,1/2-y,-z
1/2-x,1/2+y,1/2-z
loop_
_atom_site_type_symbol
_atom_site_label
_atom_site_fract_x
_atom_site_fract_y
_atom_site_fract_z
Si Si1 0.291231 0.421466 0.425806
Si Si2 0.959747 0.153486 0.063831
Si Si3 0.220114 0.575750 0.948843
Si Si4 0.286175 0.783249 0.932600
Si Si5 0.606795 0.198939 0.114305
O O1 0.279539 0.500000 0.500000
O O2 0.430743 0.389307 0.464389
O O3 0.260510 0.421475 0.236600
O O4 0.197640 0.361933 0.501117
O O5 0.000000 0.161013 0.250000
O O6 0.842426 0.098257 0.052335
O O7 0.892417 0.224268 0.982475
O O8 0.176062 0.500000 0.000000
O O9 0.114749 0.630923 0.005067
O O10 0.279680 0.787497 0.741686
O O11 0.146837 0.758858 0.989738
O O12 0.500000 0.194795 0.250000
#
# Coordination Sequence:
#
# PCOD9321568 Si02
#       5
#     8   8   8   8   8
#     4  12  24  43  71 104 142 187 236 296 363 429
#     4  11  23  41  70 107 144 186 236 296 360 427
#     4  11  24  44  67 101 144 187 236 297 359 427
#     4  11  23  41  65  99 138 181 231 293 355 423
#     4  11  24  43  68  99 141 187 239 296 358 432
#
# _framework density 23.99812
#
# number of rings (size 3 to 8) (size 9 to 14) (size 15 to 20)
#    0.000    0.800    0.000    9.600    0.000    1.600 
#    0.000    3.000    0.000    1.200    0.000    0.000 
#    0.000    0.000    0.000    0.000    0.000    0.000 
#
# Total GULP energy -111540.879730 kJ/mol
# GULP energy per Si atom -5577.043986 kJ/mol
# Density = 2.394350 g / cm^3
# Si number density = 23.998120 Si / 1000 Ang^3
#
#
#
# Elastic Constant Matrix: (Units=GPa)
#
#
# Indices 1 2 3 4 5 6 
#
# 1 83.2329 3.2390 11.6777 0.0000 0.0000 0.0000
# 2 3.2390 182.1692 25.9752 0.0000 0.0000 0.0000
# 3 11.6777 25.9752 136.4039 0.0000 0.0000 0.0000
# 4 0.0000 0.0000 0.0000 43.3448 0.0000 0.0000
# 5 0.0000 0.0000 0.0000 0.0000 22.1041 0.0000
# 6 0.0000 0.0000 0.0000 0.0000 0.0000 9.8971
#
#
#
# Elastic Compliance Matrix: (Units=1/GPa)
#
#
# Indices 1 2 3 4 5 6 
#
# 1 0.012161 -0.000070 -0.001028 0.000000 0.000000 0.000000
# 2 -0.000070 0.005643 -0.001069 0.000000 0.000000 0.000000
# 3 -0.001028 -0.001069 0.007623 0.000000 0.000000 0.000000
# 4 0.000000 0.000000 0.000000 0.023071 0.000000 0.000000
# 5 0.000000 0.000000 0.000000 0.000000 0.045240 0.000000
# 6 0.000000 0.000000 0.000000 0.000000 0.000000 0.101040
#
#
# Mechanical properties :
#
#
# Convention : Reuss Voigt Hill
#
# Bulk Modulus (GPa) = 47.40520 53.73219 50.56870
# Shear Modulus (GPa) = 24.25510 39.13015 31.69263
#
# Velocity S-wave (km/s) = 3.18261 4.04239 3.63799
# Velocity P-wave (km/s) = 5.77079 6.65031 6.22610
#
# Compressibility (1/GPa) = 0.02109473
#
# Stress axis : x y z
#
# Youngs Moduli (GPa) = 82.22731 177.21028 131.18778
#
# Poissons Ratio (x) = 0.01235 0.13485
# Poissons Ratio (y) = 0.00573 0.14019
# Poissons Ratio (z) = 0.08452 0.18937
#
# Static dielectric constant tensor:
#      x y z
#    x 2.465830 0.000000 0.000000 
#    y 0.000000 1.946960 0.000000 
#    z 0.000000 0.000000 1.852460 
# 
# From -- ./inp_files/7058.got.cif
#   From: 2010.05.17/outbox.cif.g08.bks.cpg/sg20_4_cif.got.tgz:7058.got - 2010.06.03 22:52:26.
