data_PCOD9321794
_publ_section_title
;
Structure prediction by ZEFSAII (Michael W. Deem and Ramdas Pophale) SiO2 
 PCOD9321794
Probable space group: C 2 2 21
;
_chemical_formula_sum "Si O2"
_cell_formula_units_Z 24
_cell_length_a 22.312601
_cell_length_b 5.465669
_cell_length_c 7.859149
_cell_angle_alpha 90.000000
_cell_angle_beta 90.000000
_cell_angle_gamma 90.000000
_cell_volume 958.449090
_symmetry_space_group_name_H-M "C 2 2 21"
_symmetry_group_IT_number 20
_symmetry_cell_setting 'orthorhombic'
loop_
_space_group_symop_operation_xyz
x,y,z
-x,-y,1/2+z
x,-y,-z
-x,y,1/2-z
1/2+x,1/2+y,z
1/2-x,1/2-y,1/2+z
1/2+x,1/2-y,-z
1/2-x,1/2+y,1/2-z
loop_
_atom_site_type_symbol
_atom_site_label
_atom_site_fract_x
_atom_site_fract_y
_atom_site_fract_z
Si Si1 0.249427 0.738480 0.354822
Si Si2 0.140915 0.000000 0.500000
Si Si3 0.855559 0.500000 0.500000
Si Si4 0.567212 0.131672 0.684230
O O1 0.247928 0.479012 0.265288
O O2 0.186905 0.785465 0.449628
O O3 0.309085 0.778142 0.466992
O O4 0.099932 0.890347 0.648129
O O5 0.896376 0.509994 0.331852
O O6 0.500000 0.165947 0.750000
O O7 0.566159 0.000000 0.500000
#
# Coordination Sequence:
#
# PCOD9321794 Si02
#       4
#     8   4   4   8
#     4  11  24  47  79 119 159 205 263 340 408 488
#     4  11  26  44  74 112 162 193 278 326 410 479
#     4  11  24  48  80 110 156 209 270 332 416 473
#     4  12  26  51  77 112 153 217 270 341 398 499
#
# _framework density 25.040452999999999
#
# number of rings (size 3 to 8) (size 9 to 14) (size 15 to 20)
#    0.000    0.667    5.000    2.000    0.000    5.333 
#   12.000    0.000    0.000    0.000    0.000    0.000 
#    0.000    0.000    0.000    0.000    0.000    0.000 
#
# Total GULP energy -67215.595574 kJ/mol
# GULP energy per Si atom -5601.299631 kJ/mol
# Density = 2.498346 g / cm^3
# Si number density = 25.040453 Si / 1000 Ang^3
#
#
#
# Elastic Constant Matrix: (Units=GPa)
#
#
# Indices 1 2 3 4 5 6 
#
# 1 237.2838 54.1765 109.6440 0.0000 0.0000 0.0000
# 2 54.1765 144.8887 76.5977 0.0000 0.0000 0.0000
# 3 109.6440 76.5977 184.4577 0.0000 0.0000 0.0000
# 4 0.0000 0.0000 0.0000 66.9426 0.0000 0.0000
# 5 0.0000 0.0000 0.0000 0.0000 67.1203 0.0000
# 6 0.0000 0.0000 0.0000 0.0000 0.0000 25.5157
#
#
#
# Elastic Compliance Matrix: (Units=1/GPa)
#
#
# Indices 1 2 3 4 5 6 
#
# 1 0.005833 -0.000446 -0.003282 0.000000 0.000000 0.000000
# 2 -0.000446 0.008877 -0.003421 0.000000 0.000000 0.000000
# 3 -0.003282 -0.003421 0.008793 0.000000 0.000000 0.000000
# 4 0.000000 0.000000 0.000000 0.014938 0.000000 0.000000
# 5 0.000000 0.000000 0.000000 0.000000 0.014899 0.000000
# 6 0.000000 0.000000 0.000000 0.000000 0.000000 0.039192
#
#
# Mechanical properties :
#
#
# Convention : Reuss Voigt Hill
#
# Bulk Modulus (GPa) = 108.64129 116.38516 112.51322
# Shear Modulus (GPa) = 45.49697 53.66320 49.58009
#
# Velocity S-wave (km/s) = 4.26718 4.63434 4.45455
# Velocity P-wave (km/s) = 8.23158 8.67271 8.45502
#
# Compressibility (1/GPa) = 0.00920460
#
# Stress axis : x y z
#
# Youngs Moduli (GPa) = 171.44905 112.64656 113.72981
#
# Poissons Ratio (x) = 0.05023 0.37324
# Poissons Ratio (y) = 0.07646 0.38910
# Poissons Ratio (z) = 0.56266 0.38540
#
# Static dielectric constant tensor:
#      x y z
#    x 1.917940 0.000000 0.000000 
#    y 0.000000 1.998640 0.000000 
#    z 0.000000 0.000000 2.179560 
# 
# From -- ./inp_files/10434.got.cif
#   From: 2010.05.17/outbox.cif.g08.bks.cpg/sg20_6_cif.got.tgz:10434.got - 2010.06.03 22:52:26.
