data_PCOD9321246
_publ_section_title
;
Structure prediction by ZEFSAII (Michael W. Deem and Ramdas Pophale) SiO2 
 PCOD9321246
Probable space group: C 2 2 21
;
_chemical_formula_sum "Si O2"
_cell_formula_units_Z 40
_cell_length_a 28.035256
_cell_length_b 11.632453
_cell_length_c 5.406145
_cell_angle_alpha 90.000000
_cell_angle_beta 90.000000
_cell_angle_gamma 90.000000
_cell_volume 1763.045508
_symmetry_space_group_name_H-M "C 2 2 21"
_symmetry_group_IT_number 20
_symmetry_cell_setting 'orthorhombic'
loop_
_space_group_symop_operation_xyz
x,y,z
-x,-y,1/2+z
x,-y,-z
-x,y,1/2-z
1/2+x,1/2+y,z
1/2-x,1/2-y,1/2+z
1/2+x,1/2-y,-z
1/2-x,1/2+y,1/2-z
loop_
_atom_site_type_symbol
_atom_site_label
_atom_site_fract_x
_atom_site_fract_y
_atom_site_fract_z
Si Si1 0.732925 0.000000 0.500000
Si Si2 0.156142 0.347729 0.689406
Si Si3 0.189064 0.093989 0.697512
Si Si4 0.600244 0.191803 0.797807
Si Si5 0.088144 0.036012 0.244067
Si Si6 0.500000 0.073124 0.750000
O O1 0.697429 0.057795 0.304879
O O2 0.770181 0.094156 0.596805
O O3 0.180044 0.224395 0.628998
O O4 0.123188 0.364675 0.447280
O O5 0.127784 0.338694 0.947665
O O6 0.206665 0.000000 0.500000
O O7 0.137002 0.040913 0.762965
O O8 0.600475 0.329801 0.762583
O O9 0.546239 0.148909 0.810556
O O10 0.064527 0.000000 0.500000
O O11 0.060333 0.000000 0.000000
O O12 0.509298 0.000000 0.500000
#
# Coordination Sequence:
#
# PCOD9321246 Si02
#       6
#     4   8   8   8   8   4
#     4  12  30  40  68 110 144 204 258 306 344 442
#     4  12  28  44  76 100 154 190 251 305 365 431
#     4  11  23  44  66 101 152 201 241 299 367 413
#     4  12  25  50  72 109 136 192 240 302 374 443
#     4  11  19  41  71 102 139 192 226 285 364 431
#     4  12  30  52  82 104 146 188 240 306 378 454
#
# _framework density 22.688013000000002
#
# number of rings (size 3 to 8) (size 9 to 14) (size 15 to 20)
#    0.000    0.400    7.000    1.200    9.800    0.000 
#    0.000    1.000    0.000    0.000    0.000    0.000 
#    0.000    0.000    0.000    0.000    0.000    0.000 
#
# Total GULP energy -111754.480322 kJ/mol
# GULP energy per Si atom -5587.724016 kJ/mol
# Density = 2.263637 g / cm^3
# Si number density = 22.688013 Si / 1000 Ang^3
#
#
#
# Elastic Constant Matrix: (Units=GPa)
#
#
# Indices 1 2 3 4 5 6 
#
# 1 99.6175 39.2864 29.2473 0.0000 0.0000 0.0000
# 2 39.2864 90.5745 12.0340 0.0000 0.0000 0.0000
# 3 29.2473 12.0340 166.7177 0.0000 0.0000 0.0000
# 4 0.0000 0.0000 0.0000 23.0173 0.0000 0.0000
# 5 0.0000 0.0000 0.0000 0.0000 11.2250 0.0000
# 6 0.0000 0.0000 0.0000 0.0000 0.0000 13.4827
#
#
#
# Elastic Compliance Matrix: (Units=1/GPa)
#
#
# Indices 1 2 3 4 5 6 
#
# 1 0.012645 -0.005240 -0.001840 0.000000 0.000000 0.000000
# 2 -0.005240 0.013319 -0.000042 0.000000 0.000000 0.000000
# 3 -0.001840 -0.000042 0.006324 0.000000 0.000000 0.000000
# 4 0.000000 0.000000 0.000000 0.043446 0.000000 0.000000
# 5 0.000000 0.000000 0.000000 0.000000 0.089087 0.000000
# 6 0.000000 0.000000 0.000000 0.000000 0.000000 0.074169
#
#
# Mechanical properties :
#
#
# Convention : Reuss Voigt Hill
#
# Bulk Modulus (GPa) = 55.42194 57.56057 56.49126
# Shear Modulus (GPa) = 19.28644 27.96781 23.62712
#
# Velocity S-wave (km/s) = 2.91876 3.51481 3.23056
# Velocity P-wave (km/s) = 5.98663 6.47282 6.23447
#
# Compressibility (1/GPa) = 0.01804339
#
# Stress axis : x y z
#
# Youngs Moduli (GPa) = 79.08068 75.07946 158.12746
#
# Poissons Ratio (x) = 0.39345 0.29097
# Poissons Ratio (y) = 0.41441 0.00665
# Poissons Ratio (z) = 0.14552 0.00316
#
# Static dielectric constant tensor:
#      x y z
#    x 1.783980 0.000000 0.000000 
#    y 0.000000 1.841090 0.000000 
#    z 0.000000 0.000000 1.972330 
# 
# From -- ./inp_files/4103.got.cif
#   From: 2010.05.17/outbox.cif.g08.bks.cpg/sg20_3_cif.got.tgz:4103.got - 2010.06.03 22:52:26.
