data_PCOD9321940
_publ_section_title
;
Structure prediction by ZEFSAII (Michael W. Deem and Ramdas Pophale) SiO2 
 PCOD9321940
Probable space group: C 2 2 21
;
_chemical_formula_sum "Si O2"
_cell_formula_units_Z 48
_cell_length_a 6.717019
_cell_length_b 13.868631
_cell_length_c 22.037472
_cell_angle_alpha 90.000000
_cell_angle_beta 90.000000
_cell_angle_gamma 90.000000
_cell_volume 2052.919611
_symmetry_space_group_name_H-M "C 2 2 21"
_symmetry_group_IT_number 20
_symmetry_cell_setting 'orthorhombic'
loop_
_space_group_symop_operation_xyz
x,y,z
-x,-y,1/2+z
x,-y,-z
-x,y,1/2-z
1/2+x,1/2+y,z
1/2-x,1/2-y,1/2+z
1/2+x,1/2-y,-z
1/2-x,1/2+y,1/2-z
loop_
_atom_site_type_symbol
_atom_site_label
_atom_site_fract_x
_atom_site_fract_y
_atom_site_fract_z
Si Si1 0.884746 0.812087 0.065700
Si Si2 0.553756 0.937675 0.109100
Si Si3 0.311987 0.000000 0.000000
Si Si4 0.052405 0.150344 0.065181
Si Si5 0.710011 0.318427 0.163317
Si Si6 0.000000 0.969752 0.250000
Si Si7 0.240296 0.392553 0.828743
O O1 0.092430 0.799653 0.100329
O O2 0.777570 0.904621 0.095207
O O3 0.723778 0.728677 0.077109
O O4 0.926588 0.820643 0.994460
O O5 0.427929 0.862674 0.149557
O O6 0.567715 0.044185 0.138602
O O7 0.450362 0.936774 0.043190
O O8 0.171080 0.944243 0.954218
O O9 0.908718 0.130397 0.120882
O O10 0.596454 0.400148 0.200323
O O11 0.696560 0.214537 0.195661
O O12 0.168036 0.037874 0.278447
#
# Coordination Sequence:
#
# PCOD9321940 Si02
#       7
#     8   8   4   8   8   4   8
#     4  12  23  46  73 113 159 199 245 313 384 470
#     4  12  24  47  74 109 156 199 251 312 377 464
#     4  12  22  38  70 112 158 200 244 294 376 464
#     4  12  23  42  75 115 157 199 248 303 387 467
#     4  12  27  52  76 109 151 201 254 321 384 449
#     4  12  30  52  76 108 146 196 270 322 368 452
#     4  12  27  49  78 111 148 202 258 311 390 448
#
# _framework density 23.381333999999999
#
# number of rings (size 3 to 8) (size 9 to 14) (size 15 to 20)
#    0.000    0.000    5.000    6.000    0.000    4.667 
#    0.000    0.000    0.000    0.000    0.000    0.000 
#    0.000    0.000    0.000    0.000    0.000    0.000 
#
# Total GULP energy -134389.818049 kJ/mol
# GULP energy per Si atom -5599.575752 kJ/mol
# Density = 2.332812 g / cm^3
# Si number density = 23.381334 Si / 1000 Ang^3
#
#
#
# Elastic Constant Matrix: (Units=GPa)
#
#
# Indices 1 2 3 4 5 6 
#
# 1 80.4551 28.3683 10.1227 0.0000 0.0000 0.0000
# 2 28.3683 126.9305 12.8576 0.0000 0.0000 0.0000
# 3 10.1227 12.8576 52.5056 0.0000 0.0000 0.0000
# 4 0.0000 0.0000 0.0000 30.4066 0.0000 0.0000
# 5 0.0000 0.0000 0.0000 0.0000 17.5585 0.0000
# 6 0.0000 0.0000 0.0000 0.0000 0.0000 49.5320
#
#
#
# Elastic Compliance Matrix: (Units=1/GPa)
#
#
# Indices 1 2 3 4 5 6 
#
# 1 0.013682 -0.002862 -0.001937 0.000000 0.000000 0.000000
# 2 -0.002862 0.008677 -0.001573 0.000000 0.000000 0.000000
# 3 -0.001937 -0.001573 0.019804 0.000000 0.000000 0.000000
# 4 0.000000 0.000000 0.000000 0.032888 0.000000 0.000000
# 5 0.000000 0.000000 0.000000 0.000000 0.056952 0.000000
# 6 0.000000 0.000000 0.000000 0.000000 0.000000 0.020189
#
#
# Mechanical properties :
#
#
# Convention : Reuss Voigt Hill
#
# Bulk Modulus (GPa) = 33.99069 40.28759 37.13914
# Shear Modulus (GPa) = 28.61349 33.40227 31.00788
#
# Velocity S-wave (km/s) = 3.50204 3.78377 3.64563
# Velocity P-wave (km/s) = 5.56071 6.02970 5.79995
#
# Compressibility (1/GPa) = 0.02941982
#
# Stress axis : x y z
#
# Youngs Moduli (GPa) = 73.08869 115.24392 50.49417
#
# Poissons Ratio (x) = 0.32979 0.09781
# Poissons Ratio (y) = 0.20915 0.07944
# Poissons Ratio (z) = 0.14157 0.18130
#
# Static dielectric constant tensor:
#      x y z
#    x 1.888450 0.000000 0.000000 
#    y 0.000000 1.979410 0.000000 
#    z 0.000000 0.000000 1.853080 
# 
# From -- ./inp_files/29859.got.cif
#   From: 2010.05.17/outbox.cif.g08.bks.cpg/sg20_15_cif.got.tgz:29859.got - 2010.06.03 22:52:26.
