data_PCOD9321703
_publ_section_title
;
Structure prediction by ZEFSAII (Michael W. Deem and Ramdas Pophale) SiO2 
 PCOD9321703
Probable space group: C 2 2 21
;
_chemical_formula_sum "Si O2"
_cell_formula_units_Z 48
_cell_length_a 16.980280
_cell_length_b 9.666664
_cell_length_c 11.684566
_cell_angle_alpha 90.000000
_cell_angle_beta 90.000000
_cell_angle_gamma 90.000000
_cell_volume 1917.935760
_symmetry_space_group_name_H-M "C 2 2 21"
_symmetry_group_IT_number 20
_symmetry_cell_setting 'orthorhombic'
loop_
_space_group_symop_operation_xyz
x,y,z
-x,-y,1/2+z
x,-y,-z
-x,y,1/2-z
1/2+x,1/2+y,z
1/2-x,1/2-y,1/2+z
1/2+x,1/2-y,-z
1/2-x,1/2+y,1/2-z
loop_
_atom_site_type_symbol
_atom_site_label
_atom_site_fract_x
_atom_site_fract_y
_atom_site_fract_z
Si Si1 0.167293 0.927063 0.103826
Si Si2 0.287748 0.102969 0.402265
Si Si3 0.893217 0.029008 0.156261
Si Si4 0.335123 0.958407 0.846070
Si Si5 0.966373 0.676557 0.872892
Si Si6 0.535744 0.250646 0.380003
O O1 0.190478 0.765854 0.087626
O O2 0.246931 0.017435 0.114549
O O3 0.122127 0.957342 0.220529
O O4 0.122608 0.000000 0.000000
O O5 0.193648 0.074622 0.388376
O O6 0.315143 0.000000 0.500000
O O7 0.329063 0.045957 0.289586
O O8 0.940545 0.169666 0.158663
O O9 0.944409 0.909689 0.097531
O O10 0.389781 0.081490 0.887948
O O11 0.377680 0.817855 0.878666
O O12 0.004278 0.312732 0.997169
O O13 0.000000 0.621119 0.750000
O O14 0.500000 0.227858 0.250000
#
# Coordination Sequence:
#
# PCOD9321703 Si02
#       6
#     8   8   8   8   8   8
#     4  11  24  41  71 105 140 180 225 286 352 420
#     4  11  24  41  71 105 140 180 225 286 352 420
#     4  11  25  44  67 100 141 178 230 283 354 418
#     4  11  25  44  67 100 141 178 230 283 354 418
#     4  12  26  45  72 100 134 185 241 290 343 414
#     4  12  26  47  70  96 138 189 235 290 349 408
#
# _framework density 25.026909
#
# number of rings (size 3 to 8) (size 9 to 14) (size 15 to 20)
#    0.000    0.667    3.333    4.000    4.667    2.667 
#    0.000    0.000    0.000    0.000    0.000    0.000 
#    0.000    0.000    0.000    0.000    0.000    0.000 
#
# Total GULP energy -134077.438241 kJ/mol
# GULP energy per Si atom -5586.559927 kJ/mol
# Density = 2.496995 g / cm^3
# Si number density = 25.026909 Si / 1000 Ang^3
#
#
#
# Elastic Constant Matrix: (Units=GPa)
#
#
# Indices 1 2 3 4 5 6 
#
# 1 69.0396 12.7352 25.8792 0.0000 0.0000 0.0000
# 2 12.7352 117.5830 35.0411 0.0000 0.0000 0.0000
# 3 25.8792 35.0411 205.6645 0.0000 0.0000 0.0000
# 4 0.0000 0.0000 0.0000 40.2572 0.0000 0.0000
# 5 0.0000 0.0000 0.0000 0.0000 -2.5588 0.0000
# 6 0.0000 0.0000 0.0000 0.0000 0.0000 48.7356
#
#
#
# Elastic Compliance Matrix: (Units=1/GPa)
#
#
# Indices 1 2 3 4 5 6 
#
# 1 0.015346 -0.001145 -0.001736 0.000000 0.000000 0.000000
# 2 -0.001145 0.009045 -0.001397 0.000000 0.000000 0.000000
# 3 -0.001736 -0.001397 0.005319 0.000000 0.000000 0.000000
# 4 0.000000 0.000000 0.000000 0.024840 0.000000 0.000000
# 5 0.000000 0.000000 0.000000 0.000000 -0.390808 0.000000
# 6 0.000000 0.000000 0.000000 0.000000 0.000000 0.020519
#
#
# Mechanical properties :
#
#
# Convention : Reuss Voigt Hill
#
# Bulk Modulus (GPa) = 47.27146 59.95533 53.61339
# Shear Modulus (GPa) = -16.65937 38.52891 10.93477
#
# Velocity S-wave (km/s) = -2.58283 3.92790 2.09253
# Velocity P-wave (km/s) = 3.16773 6.67679 5.22562
#
# Compressibility (1/GPa) = 0.02115441
#
# Stress axis : x y z
#
# Youngs Moduli (GPa) = 65.16211 110.55891 188.01381
#
# Poissons Ratio (x) = 0.12657 0.32639
# Poissons Ratio (y) = 0.07460 0.26266
# Poissons Ratio (z) = 0.11312 0.15445
#
# Static dielectric constant tensor:
#      x y z
#    x 1.991350 0.000000 0.000000 
#    y 0.000000 1.942460 0.000000 
#    z 0.000000 0.000000 2.295870 
# 
# From -- ./inp_files/21657.got.cif
#   From: 2010.05.17/outbox.cif.g08.bks.cpg/sg20_11_cif.got.tgz:21657.got - 2010.06.03 22:52:26.
