data_PCOD9321330
_publ_section_title
;
Structure prediction by ZEFSAII (Michael W. Deem and Ramdas Pophale) SiO2 
 PCOD9321330
Probable space group: C 2 2 21
;
_chemical_formula_sum "Si O2"
_cell_formula_units_Z 48
_cell_length_a 11.437110
_cell_length_b 17.162365
_cell_length_c 11.531350
_cell_angle_alpha 90.000000
_cell_angle_beta 90.000000
_cell_angle_gamma 90.000000
_cell_volume 2263.463972
_symmetry_space_group_name_H-M "C 2 2 21"
_symmetry_group_IT_number 20
_symmetry_cell_setting 'orthorhombic'
loop_
_space_group_symop_operation_xyz
x,y,z
-x,-y,1/2+z
x,-y,-z
-x,y,1/2-z
1/2+x,1/2+y,z
1/2-x,1/2-y,1/2+z
1/2+x,1/2-y,-z
1/2-x,1/2+y,1/2-z
loop_
_atom_site_type_symbol
_atom_site_label
_atom_site_fract_x
_atom_site_fract_y
_atom_site_fract_z
Si Si1 0.324201 0.461782 0.300042
Si Si2 0.724570 0.360569 0.835801
Si Si3 0.057845 0.921260 0.434517
Si Si4 0.014478 0.766895 0.934756
Si Si5 0.683517 0.849341 0.401921
Si Si6 0.114613 0.736149 0.175393
O O1 0.324324 0.555120 0.301317
O O2 0.424800 0.435450 0.390800
O O3 0.361023 0.423837 0.178440
O O4 0.197918 0.433228 0.343728
O O5 0.614260 0.302780 0.853266
O O6 0.817151 0.331763 0.741197
O O7 0.788218 0.358468 0.961427
O O8 0.055068 0.841984 0.509816
O O9 0.091143 0.000000 0.500000
O O10 0.928246 0.703602 0.882612
O O11 0.072752 0.723171 0.044551
O O12 0.789820 0.803109 0.341140
O O13 0.000000 0.758340 0.250000
#
# Coordination Sequence:
#
# PCOD9321330 Si02
#       6
#     8   8   8   8   8   8
#     4  11  22  39  66 100 131 182 226 283 344 401
#     4  11  23  40  68  93 135 175 231 276 346 407
#     4  11  21  38  66  98 136 171 229 290 334 390
#     4  11  23  41  66 101 131 173 226 286 341 404
#     4  11  23  38  69  95 135 168 224 282 343 398
#     4  11  22  40  64  93 123 179 214 273 341 404
#
# _framework density 21.206434000000002
#
# number of rings (size 3 to 8) (size 9 to 14) (size 15 to 20)
#    0.000    1.000    6.667    1.500    2.333    0.667 
#    0.000    0.000    3.667    2.000    0.000    0.000 
#    0.000    0.000    0.000    0.000    0.000    0.000 
#
# Total GULP energy -134085.240402 kJ/mol
# GULP energy per Si atom -5586.885017 kJ/mol
# Density = 2.115817 g / cm^3
# Si number density = 21.206434 Si / 1000 Ang^3
#
#
#
# Elastic Constant Matrix: (Units=GPa)
#
#
# Indices 1 2 3 4 5 6 
#
# 1 94.6869 45.9041 36.2214 0.0000 0.0000 0.0000
# 2 45.9041 69.3363 43.7207 0.0000 0.0000 0.0000
# 3 36.2214 43.7207 56.3297 0.0000 0.0000 0.0000
# 4 0.0000 0.0000 0.0000 23.7728 0.0000 0.0000
# 5 0.0000 0.0000 0.0000 0.0000 16.0239 0.0000
# 6 0.0000 0.0000 0.0000 0.0000 0.0000 36.9454
#
#
#
# Elastic Compliance Matrix: (Units=1/GPa)
#
#
# Indices 1 2 3 4 5 6 
#
# 1 0.016011 -0.008046 -0.004051 0.000000 0.000000 0.000000
# 2 -0.008046 0.032290 -0.019888 0.000000 0.000000 0.000000
# 3 -0.004051 -0.019888 0.035794 0.000000 0.000000 0.000000
# 4 0.000000 0.000000 0.000000 0.042065 0.000000 0.000000
# 5 0.000000 0.000000 0.000000 0.000000 0.062407 0.000000
# 6 0.000000 0.000000 0.000000 0.000000 0.000000 0.027067
#
#
# Mechanical properties :
#
#
# Convention : Reuss Voigt Hill
#
# Bulk Modulus (GPa) = 49.68941 52.44949 51.06945
# Shear Modulus (GPa) = 17.46341 21.64888 19.55614
#
# Velocity S-wave (km/s) = 2.87277 3.19856 3.04004
# Velocity P-wave (km/s) = 5.87247 6.19900 6.03794
#
# Compressibility (1/GPa) = 0.02012501
#
# Stress axis : x y z
#
# Youngs Moduli (GPa) = 62.45535 30.96909 27.93779
#
# Poissons Ratio (x) = 0.24918 0.11317
# Poissons Ratio (y) = 0.50253 0.55564
# Poissons Ratio (z) = 0.25299 0.61593
#
# Static dielectric constant tensor:
#      x y z
#    x 1.780860 0.000000 0.000000 
#    y 0.000000 1.821400 0.000000 
#    z 0.000000 0.000000 1.808280 
# 
# From -- ./inp_files/14155.got.cif
#   From: 2010.05.17/outbox.cif.g08.bks.cpg/sg20_8_cif.got.tgz:14155.got - 2010.06.03 22:52:26.
