data_PCOD9321167
_publ_section_title
;
Structure prediction by ZEFSAII (Michael W. Deem and Ramdas Pophale) SiO2 
 PCOD9321167
Probable space group: C 2 2 21
;
_chemical_formula_sum "Si O2"
_cell_formula_units_Z 60
_cell_length_a 24.427185
_cell_length_b 5.829165
_cell_length_c 19.991547
_cell_angle_alpha 90.000000
_cell_angle_beta 90.000000
_cell_angle_gamma 90.000000
_cell_volume 2846.598214
_symmetry_space_group_name_H-M "C 2 2 21"
_symmetry_group_IT_number 20
_symmetry_cell_setting 'orthorhombic'
loop_
_space_group_symop_operation_xyz
x,y,z
-x,-y,1/2+z
x,-y,-z
-x,y,1/2-z
1/2+x,1/2+y,z
1/2-x,1/2-y,1/2+z
1/2+x,1/2-y,-z
1/2-x,1/2+y,1/2-z
loop_
_atom_site_type_symbol
_atom_site_label
_atom_site_fract_x
_atom_site_fract_y
_atom_site_fract_z
Si Si1 0.225437 0.320722 0.155925
Si Si2 0.241017 0.179134 0.439222
Si Si3 0.500000 0.100757 0.250000
Si Si4 0.820356 0.576782 0.220216
Si Si5 0.578447 0.808150 0.324106
Si Si6 0.117587 0.254508 0.465550
Si Si7 0.897992 0.079975 0.714600
Si Si8 0.153749 0.990212 0.926130
O O1 0.260561 0.531355 0.128426
O O2 0.194264 0.398019 0.221975
O O3 0.267742 0.123627 0.175536
O O4 0.182791 0.243659 0.099266
O O5 0.182259 0.293057 0.449979
O O6 0.294187 0.338505 0.433751
O O7 0.247376 0.000000 0.500000
O O8 0.550826 0.250111 0.224483
O O9 0.522798 0.940316 0.308730
O O10 0.871599 0.487735 0.178976
O O11 0.842390 0.805223 0.256687
O O12 0.583113 0.711809 0.397956
O O13 0.588145 0.633023 0.262844
O O14 0.099990 0.500000 0.500000
O O15 0.115523 0.000000 0.500000
O O16 0.885921 0.043488 0.636180
O O17 0.127820 0.000000 0.000000
#
# Coordination Sequence:
#
# PCOD9321167 Si02
#       8
#     8   8   4   8   8   8   8   8
#     4  12  23  37  56  98 141 185 230 276 328 404
#     4  11  23  38  59  93 144 199 231 264 329 411
#     4  10  26  46  82  94 128 162 244 306 380 432
#     4  11  24  35  62  96 136 179 236 283 330 409
#     4  11  24  46  72  99 131 179 232 305 362 430
#     4  11  27  44  69 105 150 195 240 286 352 430
#     4  11  23  45  70  99 127 178 233 297 363 425
#     4  12  23  39  63  96 144 186 229 275 345 422
#
# _framework density 21.077788999999999
#
# number of rings (size 3 to 8) (size 9 to 14) (size 15 to 20)
#    0.000    0.800    4.000    3.200   11.200    0.000 
#    0.000    0.000    5.867    0.000    0.000    0.000 
#    0.000    0.000    0.000    0.000    0.000    0.000 
#
# Total GULP energy -167516.264008 kJ/mol
# GULP energy per Si atom -5583.875467 kJ/mol
# Density = 2.102982 g / cm^3
# Si number density = 21.077789 Si / 1000 Ang^3
#
#
#
# Elastic Constant Matrix: (Units=GPa)
#
#
# Indices 1 2 3 4 5 6 
#
# 1 68.0029 20.8039 34.8185 0.0000 0.0000 0.0000
# 2 20.8039 69.9927 33.3661 0.0000 0.0000 0.0000
# 3 34.8185 33.3661 128.5119 0.0000 0.0000 0.0000
# 4 0.0000 0.0000 0.0000 37.8966 0.0000 0.0000
# 5 0.0000 0.0000 0.0000 0.0000 -0.7321 0.0000
# 6 0.0000 0.0000 0.0000 0.0000 0.0000 21.0244
#
#
#
# Elastic Compliance Matrix: (Units=1/GPa)
#
#
# Indices 1 2 3 4 5 6 
#
# 1 0.017758 -0.003406 -0.003927 0.000000 0.000000 0.000000
# 2 -0.003406 0.016959 -0.003480 0.000000 0.000000 0.000000
# 3 -0.003927 -0.003480 0.009749 0.000000 0.000000 0.000000
# 4 0.000000 0.000000 0.000000 0.026388 0.000000 0.000000
# 5 0.000000 0.000000 0.000000 0.000000 -1.366008 0.000000
# 6 0.000000 0.000000 0.000000 0.000000 0.000000 0.047564
#
#
# Mechanical properties :
#
#
# Convention : Reuss Voigt Hill
#
# Bulk Modulus (GPa) = 43.78489 49.38715 46.58602
# Shear Modulus (GPa) = -4.10391 23.47238 9.68424
#
# Velocity S-wave (km/s) = -1.39687 3.34070 2.14581
# Velocity P-wave (km/s) = 4.26807 6.19371 5.31876
#
# Compressibility (1/GPa) = 0.02283893
#
# Stress axis : x y z
#
# Youngs Moduli (GPa) = 56.31289 58.96694 102.57575
#
# Poissons Ratio (x) = 0.20085 0.40280
# Poissons Ratio (y) = 0.19181 0.35698
# Poissons Ratio (z) = 0.22113 0.20522
#
# Static dielectric constant tensor:
#      x y z
#    x 1.712780 0.000000 0.000000 
#    y 0.000000 1.844980 0.000000 
#    z 0.000000 0.000000 1.814420 
# 
# From -- ./inp_files/25692.got.cif
#   From: 2010.05.17/outbox.cif.g08.bks.cpg/sg20_13_cif.got.tgz:25692.got - 2010.06.03 22:52:26.
