data_PCOD9321494
_publ_section_title
;
Structure prediction by ZEFSAII (Michael W. Deem and Ramdas Pophale) SiO2 
 PCOD9321494
Probable space group: C 2 2 21
;
_chemical_formula_sum "Si O2"
_cell_formula_units_Z 60
_cell_length_a 7.566211
_cell_length_b 12.005187
_cell_length_c 28.703597
_cell_angle_alpha 90.000000
_cell_angle_beta 90.000000
_cell_angle_gamma 90.000000
_cell_volume 2607.256156
_symmetry_space_group_name_H-M "C 2 2 21"
_symmetry_group_IT_number 20
_symmetry_cell_setting 'orthorhombic'
loop_
_space_group_symop_operation_xyz
x,y,z
-x,-y,1/2+z
x,-y,-z
-x,y,1/2-z
1/2+x,1/2+y,z
1/2-x,1/2-y,1/2+z
1/2+x,1/2-y,-z
1/2-x,1/2+y,1/2-z
loop_
_atom_site_type_symbol
_atom_site_label
_atom_site_fract_x
_atom_site_fract_y
_atom_site_fract_z
Si Si1 0.595385 0.139831 0.683293
Si Si2 0.558787 0.500641 0.662201
Si Si3 0.778525 0.818034 0.226225
Si Si4 0.161790 0.800428 0.600414
Si Si5 0.482197 0.343301 0.425592
Si Si6 0.698688 0.500000 0.000000
Si Si7 0.266985 0.320374 0.569249
Si Si8 0.310020 0.105209 0.174040
O O1 0.416981 0.187394 0.704541
O O2 0.752833 0.171401 0.718734
O O3 0.620213 0.195820 0.633830
O O4 0.580388 0.007053 0.680385
O O5 0.644755 0.570715 0.703335
O O6 0.674725 0.409652 0.633605
O O7 0.494984 0.590635 0.623409
O O8 0.391749 0.434261 0.682320
O O9 0.866688 0.705919 0.207049
O O10 0.342120 0.759621 0.576360
O O11 0.981561 0.817505 0.570534
O O12 0.414361 0.429707 0.463410
O O13 0.674410 0.297122 0.438723
O O14 0.797607 0.590576 0.031425
O O15 0.199564 0.355156 0.620593
#
# Coordination Sequence:
#
# PCOD9321494 Si02
#       8
#     8   8   8   8   8   4   8   8
#     4  11  23  40  65  97 137 180 233 283 336 405
#     4  11  22  43  67  95 131 179 231 276 341 418
#     4  11  25  39  63 101 134 181 234 282 338 407
#     4  11  23  47  72  99 140 190 227 282 354 412
#     4  12  25  47  72 102 136 182 226 285 355 411
#     4  12  26  48  70 108 138 170 242 290 334 440
#     4  11  25  48  70 100 141 174 231 289 347 422
#     4  11  22  45  64  89 139 178 218 289 339 397
#
# _framework density 23.012696999999999
#
# number of rings (size 3 to 8) (size 9 to 14) (size 15 to 20)
#    0.000    0.800    8.000    0.000    5.600    0.533 
#    2.400    1.333    0.000    0.000    0.000    0.000 
#    0.000    0.000    0.000    0.000    0.000    0.000 
#
# Total GULP energy -167780.497524 kJ/mol
# GULP energy per Si atom -5592.683251 kJ/mol
# Density = 2.296032 g / cm^3
# Si number density = 23.012697 Si / 1000 Ang^3
#
#
#
# Elastic Constant Matrix: (Units=GPa)
#
#
# Indices 1 2 3 4 5 6 
#
# 1 62.1657 24.7269 14.3233 0.0000 0.0000 0.0000
# 2 24.7269 113.1680 -10.0268 0.0000 0.0000 0.0000
# 3 14.3233 -10.0268 32.3794 0.0000 0.0000 0.0000
# 4 0.0000 0.0000 0.0000 24.2479 0.0000 0.0000
# 5 0.0000 0.0000 0.0000 0.0000 10.2042 0.0000
# 6 0.0000 0.0000 0.0000 0.0000 0.0000 55.1086
#
#
#
# Elastic Compliance Matrix: (Units=1/GPa)
#
#
# Indices 1 2 3 4 5 6 
#
# 1 0.020789 -0.005508 -0.010902 0.000000 0.000000 0.000000
# 2 -0.005508 0.010545 0.005702 0.000000 0.000000 0.000000
# 3 -0.010902 0.005702 0.037472 0.000000 0.000000 0.000000
# 4 0.000000 0.000000 0.000000 0.041241 0.000000 0.000000
# 5 0.000000 0.000000 0.000000 0.000000 0.097999 0.000000
# 6 0.000000 0.000000 0.000000 0.000000 0.000000 0.018146
#
#
# Mechanical properties :
#
#
# Convention : Reuss Voigt Hill
#
# Bulk Modulus (GPa) = 21.10145 29.52888 25.31516
# Shear Modulus (GPa) = 18.98226 29.82480 24.40353
#
# Velocity S-wave (km/s) = 2.87515 3.60393 3.25997
# Velocity P-wave (km/s) = 4.49571 5.49337 5.01939
#
# Compressibility (1/GPa) = 0.04739012
#
# Stress axis : x y z
#
# Youngs Moduli (GPa) = 48.10282 94.83032 26.68659
#
# Poissons Ratio (x) = 0.52234 0.29093
# Poissons Ratio (y) = 0.26496 -0.15217
# Poissons Ratio (z) = 0.52441 -0.54073
#
# Static dielectric constant tensor:
#      x y z
#    x 1.900650 0.000000 0.000000 
#    y 0.000000 1.855480 0.000000 
#    z 0.000000 0.000000 1.846480 
# 
# From -- ./inp_files/30163.got.cif
#   From: 2010.05.17/outbox.cif.g08.bks.cpg/sg20_16_cif.got.tgz:30163.got - 2010.06.03 22:52:26.
