data_PCOD9321595
_publ_section_title
;
Structure prediction by ZEFSAII (Michael W. Deem and Ramdas Pophale) SiO2 
 PCOD9321595
Probable space group: C 2 2 21
;
_chemical_formula_sum "Si O2"
_cell_formula_units_Z 48
_cell_length_a 8.659293
_cell_length_b 26.445129
_cell_length_c 9.973133
_cell_angle_alpha 90.000000
_cell_angle_beta 90.000000
_cell_angle_gamma 90.000000
_cell_volume 2283.808766
_symmetry_space_group_name_H-M "C 2 2 21"
_symmetry_group_IT_number 20
_symmetry_cell_setting 'orthorhombic'
loop_
_space_group_symop_operation_xyz
x,y,z
-x,-y,1/2+z
x,-y,-z
-x,y,1/2-z
1/2+x,1/2+y,z
1/2-x,1/2-y,1/2+z
1/2+x,1/2-y,-z
1/2-x,1/2+y,1/2-z
loop_
_atom_site_type_symbol
_atom_site_label
_atom_site_fract_x
_atom_site_fract_y
_atom_site_fract_z
Si Si1 0.164074 0.617980 0.486833
Si Si2 0.804724 0.592619 0.467983
Si Si3 0.179770 0.075320 0.762233
Si Si4 0.841677 0.200567 0.080715
Si Si5 0.321179 0.459075 0.718348
Si Si6 0.202828 0.220875 0.116241
O O1 0.227580 0.611039 0.636971
O O2 0.257594 0.578564 0.393789
O O3 0.195205 0.674006 0.433815
O O4 0.984333 0.605730 0.475679
O O5 0.748200 0.576139 0.613694
O O6 0.707783 0.642191 0.424344
O O7 0.773344 0.551273 0.354237
O O8 0.000000 0.089693 0.750000
O O9 0.189372 0.018030 0.818189
O O10 0.788228 0.223631 0.223105
O O11 0.025912 0.207940 0.077767
O O12 0.760565 0.229386 0.958725
O O13 0.500000 0.447990 0.750000
#
# Coordination Sequence:
#
# PCOD9321595 Si02
#       6
#     8   8   8   8   8   8
#     4  12  25  42  67  98 134 172 217 271 326 385
#     4  12  25  42  67  98 134 172 217 271 326 385
#     4  11  25  43  66  95 132 177 221 269 323 387
#     4  11  25  45  70  97 131 172 216 265 324 390
#     4  11  23  43  68  95 130 175 223 267 325 389
#     4  11  25  45  70  97 131 172 216 265 324 390
#
# _framework density 21.017522
#
# number of rings (size 3 to 8) (size 9 to 14) (size 15 to 20)
#    0.000    0.667    1.667    6.000    2.333    8.667 
#    0.000    0.000    0.000    0.000    0.000    0.000 
#    0.000    0.000    0.000    0.000    0.000    0.000 
#
# Total GULP energy -134428.236190 kJ/mol
# GULP energy per Si atom -5601.176508 kJ/mol
# Density = 2.096968 g / cm^3
# Si number density = 21.017522 Si / 1000 Ang^3
#
#
#
# Elastic Constant Matrix: (Units=GPa)
#
#
# Indices 1 2 3 4 5 6 
#
# 1 64.8099 9.9586 -9.1346 0.0000 0.0000 0.0000
# 2 9.9586 18.4923 -0.7063 0.0000 0.0000 0.0000
# 3 -9.1346 -0.7063 68.2904 0.0000 0.0000 0.0000
# 4 0.0000 0.0000 0.0000 54.4845 0.0000 0.0000
# 5 0.0000 0.0000 0.0000 0.0000 26.2276 0.0000
# 6 0.0000 0.0000 0.0000 0.0000 0.0000 19.4094
#
#
#
# Elastic Compliance Matrix: (Units=1/GPa)
#
#
# Indices 1 2 3 4 5 6 
#
# 1 0.017145 -0.009149 0.002199 0.000000 0.000000 0.000000
# 2 -0.009149 0.058980 -0.000614 0.000000 0.000000 0.000000
# 3 0.002199 -0.000614 0.014931 0.000000 0.000000 0.000000
# 4 0.000000 0.000000 0.000000 0.018354 0.000000 0.000000
# 5 0.000000 0.000000 0.000000 0.000000 0.038128 0.000000
# 6 0.000000 0.000000 0.000000 0.000000 0.000000 0.051521
#
#
# Mechanical properties :
#
#
# Convention : Reuss Voigt Hill
#
# Bulk Modulus (GPa) = 13.17037 16.86979 15.02008
# Shear Modulus (GPa) = 20.87702 30.12264 25.49983
#
# Velocity S-wave (km/s) = 3.15511 3.78989 3.48697
# Velocity P-wave (km/s) = 4.42187 5.21488 4.83466
#
# Compressibility (1/GPa) = 0.07592802
#
# Stress axis : x y z
#
# Youngs Moduli (GPa) = 58.32437 16.95487 66.97426
#
# Poissons Ratio (x) = 0.15512 -0.14726
# Poissons Ratio (y) = 0.53363 0.04111
# Poissons Ratio (z) = -0.12824 0.01041
#
# Static dielectric constant tensor:
#      x y z
#    x 1.714160 0.000000 0.000000 
#    y 0.000000 1.719090 0.000000 
#    z 0.000000 0.000000 1.727650 
# 
# From -- ./inp_files/6460.got.cif
#   From: 2010.05.17/outbox.cif.g08.bks.cpg/sg20_4_cif.got.tgz:6460.got - 2010.06.03 22:52:26.
