data_PCOD9321644
_publ_section_title
;
Structure prediction by ZEFSAII (Michael W. Deem and Ramdas Pophale) SiO2 
 PCOD9321644
Probable space group: C 2 2 21
;
_chemical_formula_sum "Si O2"
_cell_formula_units_Z 52
_cell_length_a 20.373353
_cell_length_b 18.516215
_cell_length_c 5.572771
_cell_angle_alpha 90.000000
_cell_angle_beta 90.000000
_cell_angle_gamma 90.000000
_cell_volume 2102.257556
_symmetry_space_group_name_H-M "C 2 2 21"
_symmetry_group_IT_number 20
_symmetry_cell_setting 'orthorhombic'
loop_
_space_group_symop_operation_xyz
x,y,z
-x,-y,1/2+z
x,-y,-z
-x,y,1/2-z
1/2+x,1/2+y,z
1/2-x,1/2-y,1/2+z
1/2+x,1/2-y,-z
1/2-x,1/2+y,1/2-z
loop_
_atom_site_type_symbol
_atom_site_label
_atom_site_fract_x
_atom_site_fract_y
_atom_site_fract_z
Si Si1 0.714095 0.794975 0.564099
Si Si2 0.848200 0.285538 0.387920
Si Si3 0.129480 0.395287 0.838679
Si Si4 0.500000 0.454051 0.750000
Si Si5 0.000000 0.457174 0.750000
Si Si6 0.695424 0.576866 0.858245
Si Si7 0.722412 0.000000 0.000000
Si Si8 0.565723 0.345527 0.083522
O O1 0.767659 0.734459 0.612629
O O2 0.653801 0.770520 0.401219
O O3 0.671536 0.822769 0.791989
O O4 0.758779 0.864871 0.495763
O O5 0.876232 0.369877 0.386754
O O6 0.901615 0.229089 0.495727
O O7 0.062920 0.407617 0.710107
O O8 0.174277 0.464151 0.808413
O O9 0.515022 0.500000 0.500000
O O10 0.446665 0.397889 0.646743
O O11 0.987299 0.500000 0.500000
O O12 0.733144 0.559906 0.614622
O O13 0.625819 0.611452 0.794145
O O14 0.689407 0.500000 0.000000
O O15 0.500000 0.339654 0.250000
#
# Coordination Sequence:
#
# PCOD9321644 Si02
#       8
#     8   8   8   4   4   8   4   8
#     4  11  23  45  72 104 149 189 259 323 391 461
#     4  11  25  47  73 113 146 210 256 328 392 481
#     4  12  26  47  78 107 157 202 256 334 398 476
#     4  12  26  54  80 108 154 214 266 328 390 464
#     4  12  32  52  76 118 160 210 264 328 404 486
#     4  11  24  41  71 112 141 192 255 319 406 454
#     4  12  24  44  78 112 146 198 260 338 400 476
#     4  11  28  50  74 110 161 211 265 321 393 487
#
# _framework density 24.735313000000001
#
# number of rings (size 3 to 8) (size 9 to 14) (size 15 to 20)
#    0.000    0.615    6.154    0.462    5.385    3.692 
#    0.000    0.000    0.000    0.000    0.000    0.000 
#    0.000    0.000    0.000    0.000    0.000    0.000 
#
# Total GULP energy -144736.875566 kJ/mol
# GULP energy per Si atom -5566.802906 kJ/mol
# Density = 2.467901 g / cm^3
# Si number density = 24.735313 Si / 1000 Ang^3
#
#
#
# Elastic Constant Matrix: (Units=GPa)
#
#
# Indices 1 2 3 4 5 6 
#
# 1 146.1344 50.5041 32.4643 0.0000 0.0000 0.0000
# 2 50.5041 118.3722 21.4131 0.0000 0.0000 0.0000
# 3 32.4643 21.4131 66.0205 0.0000 0.0000 0.0000
# 4 0.0000 0.0000 0.0000 14.0481 0.0000 0.0000
# 5 0.0000 0.0000 0.0000 0.0000 20.3916 0.0000
# 6 0.0000 0.0000 0.0000 0.0000 0.0000 47.9262
#
#
#
# Elastic Compliance Matrix: (Units=1/GPa)
#
#
# Indices 1 2 3 4 5 6 
#
# 1 0.008633 -0.003097 -0.003241 0.000000 0.000000 0.000000
# 2 -0.003097 0.010086 -0.001748 0.000000 0.000000 0.000000
# 3 -0.003241 -0.001748 0.017307 0.000000 0.000000 0.000000
# 4 0.000000 0.000000 0.000000 0.071184 0.000000 0.000000
# 5 0.000000 0.000000 0.000000 0.000000 0.049040 0.000000
# 6 0.000000 0.000000 0.000000 0.000000 0.000000 0.020865
#
#
# Mechanical properties :
#
#
# Convention : Reuss Voigt Hill
#
# Bulk Modulus (GPa) = 50.36743 59.92111 55.14427
# Shear Modulus (GPa) = 25.01174 31.54954 28.28064
#
# Velocity S-wave (km/s) = 3.18335 3.57527 3.38499
# Velocity P-wave (km/s) = 5.82395 6.42813 6.13349
#
# Compressibility (1/GPa) = 0.01985410
#
# Stress axis : x y z
#
# Youngs Moduli (GPa) = 115.82971 99.15113 57.77883
#
# Poissons Ratio (x) = 0.30709 0.18725
# Poissons Ratio (y) = 0.35875 0.10101
# Poissons Ratio (z) = 0.37537 0.17333
#
# Static dielectric constant tensor:
#      x y z
#    x 2.020380 0.000000 0.000000 
#    y 0.000000 2.105690 0.000000 
#    z 0.000000 0.000000 2.567750 
# 
# From -- ./inp_files/3256.got.cif
#   From: 2010.05.17/outbox.cif.g08.bks.cpg/sg20_2_cif.got.tgz:3256.got - 2010.06.03 22:52:26.
