data_PCOD9321441
_publ_section_title
;
Structure prediction by ZEFSAII (Michael W. Deem and Ramdas Pophale) SiO2 
 PCOD9321441
Probable space group: C 2 2 21
;
_chemical_formula_sum "Si O2"
_cell_formula_units_Z 40
_cell_length_a 9.967880
_cell_length_b 20.500094
_cell_length_c 8.818080
_cell_angle_alpha 90.000000
_cell_angle_beta 90.000000
_cell_angle_gamma 90.000000
_cell_volume 1801.908309
_symmetry_space_group_name_H-M "C 2 2 21"
_symmetry_group_IT_number 20
_symmetry_cell_setting 'orthorhombic'
loop_
_space_group_symop_operation_xyz
x,y,z
-x,-y,1/2+z
x,-y,-z
-x,y,1/2-z
1/2+x,1/2+y,z
1/2-x,1/2-y,1/2+z
1/2+x,1/2-y,-z
1/2-x,1/2+y,1/2-z
loop_
_atom_site_type_symbol
_atom_site_label
_atom_site_fract_x
_atom_site_fract_y
_atom_site_fract_z
Si Si1 0.822372 0.002875 0.657710
Si Si2 0.371543 0.705772 0.031698
Si Si3 0.608236 0.052066 0.120177
Si Si4 0.000000 0.894439 0.750000
Si Si5 0.572794 0.801437 0.917722
Si Si6 0.500000 0.623653 0.750000
O O1 0.886780 0.072964 0.690244
O O2 0.743007 0.000000 0.500000
O O3 0.741642 0.976119 0.801372
O O4 0.933617 0.945908 0.635003
O O5 0.468828 0.768213 0.031436
O O6 0.425292 0.667694 0.878740
O O7 0.399592 0.654171 0.165346
O O8 0.219244 0.730618 0.055573
O O9 0.500000 0.056347 0.250000
O O10 0.611482 0.123747 0.050340
O O11 0.565922 0.000000 0.000000
O O12 0.500000 0.798461 0.750000
#
# Coordination Sequence:
#
# PCOD9321441 Si02
#       6
#     8   8   8   4   8   4
#     4  11  22  40  70 107 140 189 253 311 372 446
#     4  12  25  47  71 107 151 197 257 314 380 470
#     4  11  24  46  69 101 146 192 246 315 389 457
#     4  11  24  40  70 104 145 196 240 316 385 436
#     4  11  27  48  75 106 153 203 257 322 388 464
#     4  11  24  42  74 108 143 194 252 316 373 460
#
# _framework density 22.198687
#
# number of rings (size 3 to 8) (size 9 to 14) (size 15 to 20)
#    0.000    0.800    5.000    1.800    2.800    0.000 
#    5.400    0.000    0.000    0.000    0.000    0.000 
#    0.000    0.000    0.000    0.000    0.000    0.000 
#
# Total GULP energy -111505.674663 kJ/mol
# GULP energy per Si atom -5575.283733 kJ/mol
# Density = 2.214816 g / cm^3
# Si number density = 22.198687 Si / 1000 Ang^3
#
#
#
# Elastic Constant Matrix: (Units=GPa)
#
#
# Indices 1 2 3 4 5 6 
#
# 1 135.4430 26.4505 9.2587 0.0000 0.0000 0.0000
# 2 26.4505 89.5185 26.1036 0.0000 0.0000 0.0000
# 3 9.2587 26.1036 46.2138 0.0000 0.0000 0.0000
# 4 0.0000 0.0000 0.0000 23.9082 0.0000 0.0000
# 5 0.0000 0.0000 0.0000 0.0000 28.9436 0.0000
# 6 0.0000 0.0000 0.0000 0.0000 0.0000 24.5704
#
#
#
# Elastic Compliance Matrix: (Units=1/GPa)
#
#
# Indices 1 2 3 4 5 6 
#
# 1 0.007839 -0.002225 -0.000314 0.000000 0.000000 0.000000
# 2 -0.002225 0.014005 -0.007465 0.000000 0.000000 0.000000
# 3 -0.000314 -0.007465 0.025918 0.000000 0.000000 0.000000
# 4 0.000000 0.000000 0.000000 0.041827 0.000000 0.000000
# 5 0.000000 0.000000 0.000000 0.000000 0.034550 0.000000
# 6 0.000000 0.000000 0.000000 0.000000 0.000000 0.040699
#
#
# Mechanical properties :
#
#
# Convention : Reuss Voigt Hill
#
# Bulk Modulus (GPa) = 36.02959 43.86675 39.94817
# Shear Modulus (GPa) = 25.76032 29.44192 27.60112
#
# Velocity S-wave (km/s) = 3.41022 3.64578 3.52997
# Velocity P-wave (km/s) = 5.63666 6.12586 5.88634
#
# Compressibility (1/GPa) = 0.02775496
#
# Stress axis : x y z
#
# Youngs Moduli (GPa) = 127.56566 71.40306 38.58329
#
# Poissons Ratio (x) = 0.15885 0.01211
# Poissons Ratio (y) = 0.28380 0.28802
# Poissons Ratio (z) = 0.04004 0.53302
#
# Static dielectric constant tensor:
#      x y z
#    x 1.889910 0.000000 0.000000 
#    y 0.000000 1.872680 0.000000 
#    z 0.000000 0.000000 1.878130 
# 
# From -- ./inp_files/7094.got.cif
#   From: 2010.05.17/outbox.cif.g08.bks.cpg/sg20_4_cif.got.tgz:7094.got - 2010.06.03 22:52:26.
