data_PCOD9321053
_publ_section_title
;
Structure prediction by ZEFSAII (Michael W. Deem and Ramdas Pophale) SiO2 
 PCOD9321053
Probable space group: C 2 2 21
;
_chemical_formula_sum "Si O2"
_cell_formula_units_Z 44
_cell_length_a 10.465137
_cell_length_b 16.255001
_cell_length_c 11.823993
_cell_angle_alpha 90.000000
_cell_angle_beta 90.000000
_cell_angle_gamma 90.000000
_cell_volume 2011.389055
_symmetry_space_group_name_H-M "C 2 2 21"
_symmetry_group_IT_number 20
_symmetry_cell_setting 'orthorhombic'
loop_
_space_group_symop_operation_xyz
x,y,z
-x,-y,1/2+z
x,-y,-z
-x,y,1/2-z
1/2+x,1/2+y,z
1/2-x,1/2-y,1/2+z
1/2+x,1/2-y,-z
1/2-x,1/2+y,1/2-z
loop_
_atom_site_type_symbol
_atom_site_label
_atom_site_fract_x
_atom_site_fract_y
_atom_site_fract_z
Si Si1 0.859527 0.619189 0.804653
Si Si2 0.500000 0.497336 0.750000
Si Si3 0.771302 0.558777 0.182631
Si Si4 0.356076 0.918554 0.562464
Si Si5 0.593282 0.193618 0.467482
Si Si6 0.351367 0.627614 0.891281
O O1 0.819002 0.531078 0.857924
O O2 0.756529 0.635398 0.706526
O O3 0.000000 0.613387 0.750000
O O4 0.861117 0.687100 0.902850
O O5 0.380366 0.446065 0.703608
O O6 0.447833 0.558631 0.847161
O O7 0.837442 0.567610 0.305493
O O8 0.816361 0.633318 0.105419
O O9 0.453046 0.845576 0.538804
O O10 0.221424 0.900920 0.503551
O O11 0.407179 0.000000 0.500000
O O12 0.590535 0.284031 0.416444
#
# Coordination Sequence:
#
# PCOD9321053 Si02
#       6
#     8   4   8   8   8   8
#     4  11  21  47  71 100 143 181 239 287 350 422
#     4  10  24  50  66 100 154 184 232 282 358 436
#     4  11  24  44  74 107 133 189 242 283 347 437
#     4  12  22  48  75  99 139 190 237 289 353 428
#     4  12  26  42  75 106 140 182 240 302 351 420
#     4  11  27  45  70 105 145 187 225 299 363 420
#
# _framework density 21.875429
#
# number of rings (size 3 to 8) (size 9 to 14) (size 15 to 20)
#    0.000    0.727    5.455    3.273    5.091    1.455 
#   18.000    0.000    0.000    0.000    0.000    0.000 
#    0.000    0.000    0.000    0.000    0.000    0.000 
#
# Total GULP energy -123219.813814 kJ/mol
# GULP energy per Si atom -5600.900628 kJ/mol
# Density = 2.182564 g / cm^3
# Si number density = 21.875429 Si / 1000 Ang^3
#
#
#
# Elastic Constant Matrix: (Units=GPa)
#
#
# Indices 1 2 3 4 5 6 
#
# 1 48.7483 -1.4992 5.6867 0.0000 0.0000 0.0000
# 2 -1.4992 53.4965 -3.1039 0.0000 0.0000 0.0000
# 3 5.6867 -3.1039 71.2191 0.0000 0.0000 0.0000
# 4 0.0000 0.0000 0.0000 19.0942 0.0000 0.0000
# 5 0.0000 0.0000 0.0000 0.0000 28.6044 0.0000
# 6 0.0000 0.0000 0.0000 0.0000 0.0000 -78.3042
#
#
#
# Elastic Compliance Matrix: (Units=1/GPa)
#
#
# Indices 1 2 3 4 5 6 
#
# 1 0.020719 0.000486 -0.001633 0.000000 0.000000 0.000000
# 2 0.000486 0.018752 0.000778 0.000000 0.000000 0.000000
# 3 -0.001633 0.000778 0.014206 0.000000 0.000000 0.000000
# 4 0.000000 0.000000 0.000000 0.052372 0.000000 0.000000
# 5 0.000000 0.000000 0.000000 0.000000 0.034960 0.000000
# 6 0.000000 0.000000 0.000000 0.000000 0.000000 -0.012771
#
#
# Mechanical properties :
#
#
# Convention : Reuss Voigt Hill
#
# Bulk Modulus (GPa) = 18.88989 19.51457 19.20223
# Shear Modulus (GPa) = 34.10159 5.37091 19.73625
#
# Velocity S-wave (km/s) = 3.95257 1.56862 3.00694
# Velocity P-wave (km/s) = 5.42995 3.49584 4.56647
#
# Compressibility (1/GPa) = 0.05293836
#
# Stress axis : x y z
#
# Youngs Moduli (GPa) = 48.26485 53.32876 70.39527
#
# Poissons Ratio (x) = -0.02591 0.11497
# Poissons Ratio (y) = -0.02345 -0.05480
# Poissons Ratio (z) = 0.07883 -0.04151
#
# Static dielectric constant tensor:
#      x y z
#    x 1.790170 0.000000 0.000000 
#    y 0.000000 1.794770 0.000000 
#    z 0.000000 0.000000 1.820520 
# 
# From -- ./inp_files/14056.got.cif
#   From: 2010.05.17/outbox.cif.g08.bks.cpg/sg20_8_cif.got.tgz:14056.got - 2010.06.03 22:52:26.
