data_PCOD9321519
_publ_section_title
;
Structure prediction by ZEFSAII (Michael W. Deem and Ramdas Pophale) SiO2 
 PCOD9321519
Probable space group: C 2 2 21
;
_chemical_formula_sum "Si O2"
_cell_formula_units_Z 56
_cell_length_a 12.086608
_cell_length_b 13.805316
_cell_length_c 14.563375
_cell_angle_alpha 90.000000
_cell_angle_beta 90.000000
_cell_angle_gamma 90.000000
_cell_volume 2430.036638
_symmetry_space_group_name_H-M "C 2 2 21"
_symmetry_group_IT_number 20
_symmetry_cell_setting 'orthorhombic'
loop_
_space_group_symop_operation_xyz
x,y,z
-x,-y,1/2+z
x,-y,-z
-x,y,1/2-z
1/2+x,1/2+y,z
1/2-x,1/2-y,1/2+z
1/2+x,1/2-y,-z
1/2-x,1/2+y,1/2-z
loop_
_atom_site_type_symbol
_atom_site_label
_atom_site_fract_x
_atom_site_fract_y
_atom_site_fract_z
Si Si1 0.879158 0.756694 0.234673
Si Si2 0.282094 0.000000 0.500000
Si Si3 0.844678 0.152258 0.266429
Si Si4 0.396642 0.500000 0.500000
Si Si5 0.093085 0.153691 0.536625
Si Si6 0.494905 0.761049 0.120152
Si Si7 0.692745 0.450359 0.190992
Si Si8 0.592425 0.964299 0.185519
O O1 0.783948 0.677095 0.236610
O O2 0.880267 0.813827 0.138735
O O3 0.858238 0.843774 0.306465
O O4 0.000000 0.717059 0.250000
O O5 0.200296 0.092816 0.504452
O O6 0.354349 0.990928 0.593165
O O7 0.898283 0.193070 0.360166
O O8 0.904923 0.214980 0.189004
O O9 0.866568 0.038374 0.253273
O O10 0.486199 0.585356 0.520779
O O11 0.316523 0.506717 0.588678
O O12 0.060723 0.248100 0.477876
O O13 0.533468 0.866965 0.147346
O O14 0.808611 0.440035 0.243625
O O15 0.500000 0.012621 0.250000
#
# Coordination Sequence:
#
# PCOD9321519 Si02
#       8
#     8   4   8   4   8   8   8   8
#     4  12  25  47  71 106 148 184 241 313 375 424
#     4  11  24  45  76 104 138 191 250 297 368 444
#     4  11  24  44  69 104 137 193 238 297 364 444
#     4  11  24  39  72 112 136 181 248 307 362 428
#     4  11  23  43  72 108 135 184 247 312 360 431
#     4  11  22  44  72  98 140 187 245 291 371 436
#     4  12  24  46  74 104 147 194 245 302 368 442
#     4  12  25  49  72 101 150 201 237 298 375 449
#
# _framework density 23.044920000000001
#
# number of rings (size 3 to 8) (size 9 to 14) (size 15 to 20)
#    0.000    0.571    7.143    0.857    4.000    1.143 
#   15.429    0.000    0.000    0.000    0.000    0.000 
#    0.000    0.000    0.000    0.000    0.000    0.000 
#
# Total GULP energy -156384.504277 kJ/mol
# GULP energy per Si atom -5585.160867 kJ/mol
# Density = 2.299247 g / cm^3
# Si number density = 23.044920 Si / 1000 Ang^3
#
#
#
# Elastic Constant Matrix: (Units=GPa)
#
#
# Indices 1 2 3 4 5 6 
#
# 1 149.4631 18.1394 39.0174 0.0000 0.0000 0.0000
# 2 18.1394 86.3709 0.0030 0.0000 0.0000 0.0000
# 3 39.0174 0.0030 104.9320 0.0000 0.0000 0.0000
# 4 0.0000 0.0000 0.0000 6.8610 0.0000 0.0000
# 5 0.0000 0.0000 0.0000 0.0000 35.3311 0.0000
# 6 0.0000 0.0000 0.0000 0.0000 0.0000 -10.8056
#
#
#
# Elastic Compliance Matrix: (Units=1/GPa)
#
#
# Indices 1 2 3 4 5 6 
#
# 1 0.007625 -0.001601 -0.002835 0.000000 0.000000 0.000000
# 2 -0.001601 0.011914 0.000595 0.000000 0.000000 0.000000
# 3 -0.002835 0.000595 0.010584 0.000000 0.000000 0.000000
# 4 0.000000 0.000000 0.000000 0.145752 0.000000 0.000000
# 5 0.000000 0.000000 0.000000 0.000000 0.028304 0.000000
# 6 0.000000 0.000000 0.000000 0.000000 0.000000 -0.092545
#
#
# Mechanical properties :
#
#
# Convention : Reuss Voigt Hill
#
# Bulk Modulus (GPa) = 44.56201 50.56507 47.56354
# Shear Modulus (GPa) = 39.43299 25.18438 32.30869
#
# Velocity S-wave (km/s) = 4.14108 3.30940 3.74837
# Velocity P-wave (km/s) = 6.49951 6.04917 6.27838
#
# Compressibility (1/GPa) = 0.02244064
#
# Stress axis : x y z
#
# Youngs Moduli (GPa) = 131.14597 83.93308 94.48043
#
# Poissons Ratio (x) = 0.13440 0.26787
# Poissons Ratio (y) = 0.21000 -0.05622
# Poissons Ratio (z) = 0.37183 -0.04995
#
# Static dielectric constant tensor:
#      x y z
#    x 1.868240 0.000000 0.000000 
#    y 0.000000 1.886050 0.000000 
#    z 0.000000 0.000000 1.922270 
# 
# From -- ./inp_files/20111.got.cif
#   From: 2010.05.17/outbox.cif.g08.bks.cpg/sg20_11_cif.got.tgz:20111.got - 2010.06.03 22:52:26.
