data_PCOD9321479
_publ_section_title
;
Structure prediction by ZEFSAII (Michael W. Deem and Ramdas Pophale) SiO2 
 PCOD9321479
Probable space group: C 2 2 21
;
_chemical_formula_sum "Si O2"
_cell_formula_units_Z 60
_cell_length_a 16.770893
_cell_length_b 28.956037
_cell_length_c 6.102833
_cell_angle_alpha 90.000000
_cell_angle_beta 90.000000
_cell_angle_gamma 90.000000
_cell_volume 2963.649207
_symmetry_space_group_name_H-M "C 2 2 21"
_symmetry_group_IT_number 20
_symmetry_cell_setting 'orthorhombic'
loop_
_space_group_symop_operation_xyz
x,y,z
-x,-y,1/2+z
x,-y,-z
-x,y,1/2-z
1/2+x,1/2+y,z
1/2-x,1/2-y,1/2+z
1/2+x,1/2-y,-z
1/2-x,1/2+y,1/2-z
loop_
_atom_site_type_symbol
_atom_site_label
_atom_site_fract_x
_atom_site_fract_y
_atom_site_fract_z
Si Si1 0.089400 0.958466 0.833407
Si Si2 0.353694 0.287416 0.292393
Si Si3 0.764874 0.051819 0.997205
Si Si4 0.328169 0.386785 0.397412
Si Si5 0.821453 0.287357 0.394109
Si Si6 0.188207 0.367151 0.739090
Si Si7 0.442554 0.158679 0.919572
Si Si8 0.000000 0.271844 0.750000
O O1 0.153649 0.954487 0.638653
O O2 0.000000 0.964491 0.750000
O O3 0.102615 0.912105 0.970616
O O4 0.109080 0.000000 0.000000
O O5 0.362995 0.342009 0.280630
O O6 0.267381 0.278547 0.191516
O O7 0.353839 0.262419 0.529953
O O8 0.426353 0.260327 0.187104
O O9 0.788544 0.076196 0.768112
O O10 0.706704 0.088155 0.114554
O O11 0.730516 0.000000 0.000000
O O12 0.260784 0.367536 0.563989
O O13 0.814783 0.322115 0.604079
O O14 0.874508 0.312793 0.211411
O O15 0.106587 0.368939 0.601650
O O16 0.500000 0.132505 0.750000
O O17 0.502360 0.193727 0.043921
#
# Coordination Sequence:
#
# PCOD9321479 Si02
#       8
#     8   8   8   8   8   8   8   4
#     4  11  24  40  64  91 131 186 238 285 350 407
#     4  12  23  41  62  92 136 182 229 272 337 396
#     4  11  22  42  68  97 138 171 236 296 349 419
#     4  11  24  42  62  97 133 180 231 286 341 409
#     4  12  23  43  67  92 139 183 224 281 339 414
#     4  11  22  42  68  98 132 176 228 279 348 411
#     4  12  22  44  67  95 141 175 236 280 342 408
#     4  12  26  40  60  96 136 184 234 286 326 404
#
# _framework density 20.245311000000001
#
# number of rings (size 3 to 8) (size 9 to 14) (size 15 to 20)
#    0.000    0.533    6.667    2.000    0.000    1.067 
#    2.400    0.000    0.000    0.000    0.000    0.000 
#  120.000    0.000    0.000    0.000    0.000    0.000 
#
# Total GULP energy -167465.902699 kJ/mol
# GULP energy per Si atom -5582.196757 kJ/mol
# Density = 2.019923 g / cm^3
# Si number density = 20.245311 Si / 1000 Ang^3
#
#
#
# Elastic Constant Matrix: (Units=GPa)
#
#
# Indices 1 2 3 4 5 6 
#
# 1 74.2250 15.3757 21.7491 0.0000 0.0000 0.0000
# 2 15.3757 97.3305 24.3341 0.0000 0.0000 0.0000
# 3 21.7491 24.3341 75.0723 0.0000 0.0000 0.0000
# 4 0.0000 0.0000 0.0000 32.1454 0.0000 0.0000
# 5 0.0000 0.0000 0.0000 0.0000 37.5069 0.0000
# 6 0.0000 0.0000 0.0000 0.0000 0.0000 23.0225
#
#
#
# Elastic Compliance Matrix: (Units=1/GPa)
#
#
# Indices 1 2 3 4 5 6 
#
# 1 0.014892 -0.001386 -0.003865 0.000000 0.000000 0.000000
# 2 -0.001386 0.011309 -0.003264 0.000000 0.000000 0.000000
# 3 -0.003865 -0.003264 0.015498 0.000000 0.000000 0.000000
# 4 0.000000 0.000000 0.000000 0.031109 0.000000 0.000000
# 5 0.000000 0.000000 0.000000 0.000000 0.026662 0.000000
# 6 0.000000 0.000000 0.000000 0.000000 0.000000 0.043436
#
#
# Mechanical properties :
#
#
# Convention : Reuss Voigt Hill
#
# Bulk Modulus (GPa) = 40.53704 41.06062 40.79883
# Shear Modulus (GPa) = 29.73353 30.87953 30.30653
#
# Velocity S-wave (km/s) = 3.83647 3.90971 3.87326
# Velocity P-wave (km/s) = 6.30009 6.38018 6.34026
#
# Compressibility (1/GPa) = 0.02466880
#
# Stress axis : x y z
#
# Youngs Moduli (GPa) = 67.14906 88.42224 64.52312
#
# Poissons Ratio (x) = 0.12258 0.24939
# Poissons Ratio (y) = 0.09309 0.21062
# Poissons Ratio (z) = 0.25954 0.28863
#
# Static dielectric constant tensor:
#      x y z
#    x 1.731410 0.000000 0.000000 
#    y 0.000000 1.705740 0.000000 
#    z 0.000000 0.000000 1.774240 
# 
# From -- ./inp_files/2900.got.cif
#   From: 2010.05.17/outbox.cif.g08.bks.cpg/sg20_2_cif.got.tgz:2900.got - 2010.06.03 22:52:26.
