data_PCOD9321457
_publ_section_title
;
Structure prediction by ZEFSAII (Michael W. Deem and Ramdas Pophale) SiO2 
 PCOD9321457
Probable space group: C 2 2 21
;
_chemical_formula_sum "Si O2"
_cell_formula_units_Z 48
_cell_length_a 13.300693
_cell_length_b 10.388844
_cell_length_c 13.876666
_cell_angle_alpha 90.000000
_cell_angle_beta 90.000000
_cell_angle_gamma 90.000000
_cell_volume 1917.461398
_symmetry_space_group_name_H-M "C 2 2 21"
_symmetry_group_IT_number 20
_symmetry_cell_setting 'orthorhombic'
loop_
_space_group_symop_operation_xyz
x,y,z
-x,-y,1/2+z
x,-y,-z
-x,y,1/2-z
1/2+x,1/2+y,z
1/2-x,1/2-y,1/2+z
1/2+x,1/2-y,-z
1/2-x,1/2+y,1/2-z
loop_
_atom_site_type_symbol
_atom_site_label
_atom_site_fract_x
_atom_site_fract_y
_atom_site_fract_z
Si Si1 0.957498 0.709745 0.845748
Si Si2 0.458602 0.734801 0.939618
Si Si3 0.628779 0.594344 0.876600
Si Si4 0.723561 0.117571 0.770049
Si Si5 0.271127 0.676712 0.431188
Si Si6 0.100247 0.468831 0.891681
O O1 0.847095 0.661528 0.817465
O O2 0.198759 0.710501 0.858984
O O3 0.020647 0.578936 0.861696
O O4 0.966332 0.783998 0.944998
O O5 0.509571 0.607369 0.893837
O O6 0.348891 0.800422 0.931329
O O7 0.534639 0.841292 0.896935
O O8 0.664850 0.631785 0.769862
O O9 0.683196 0.456305 0.891156
O O10 0.681683 0.679284 0.961992
O O11 0.500000 0.277641 0.750000
O O12 0.688886 0.979745 0.812999
O O13 0.137285 0.500000 0.000000
#
# Coordination Sequence:
#
# PCOD9321457 Si02
#       6
#     8   8   8   8   8   8
#     4   9  17  35  67 102 130 185 248 292 367 447
#     4  11  22  42  75 104 144 188 245 316 364 451
#     4  11  25  44  72 108 146 194 251 303 382 450
#     4  11  22  41  68 106 146 195 247 304 382 457
#     4  11  25  46  74 102 153 197 240 319 380 446
#     4   9  19  35  69 104 130 180 241 301 361 441
#
# _framework density 25.033097000000001
#
# number of rings (size 3 to 8) (size 9 to 14) (size 15 to 20)
#    0.000    1.667    1.667    4.000    7.000    0.667 
#    0.000    0.000   36.667    0.000    0.000    0.000 
#    0.000    0.000    0.000    0.000    0.000    0.000 
#
# Total GULP energy -133981.688844 kJ/mol
# GULP energy per Si atom -5582.570368 kJ/mol
# Density = 2.497612 g / cm^3
# Si number density = 25.033097 Si / 1000 Ang^3
#
#
#
# Elastic Constant Matrix: (Units=GPa)
#
#
# Indices 1 2 3 4 5 6 
#
# 1 113.7775 46.5316 38.3086 0.0000 0.0000 0.0000
# 2 46.5316 73.4972 19.0261 0.0000 0.0000 0.0000
# 3 38.3086 19.0261 94.0004 0.0000 0.0000 0.0000
# 4 0.0000 0.0000 0.0000 26.9404 0.0000 0.0000
# 5 0.0000 0.0000 0.0000 0.0000 43.6100 0.0000
# 6 0.0000 0.0000 0.0000 0.0000 0.0000 24.6250
#
#
#
# Elastic Compliance Matrix: (Units=1/GPa)
#
#
# Indices 1 2 3 4 5 6 
#
# 1 0.013059 -0.007271 -0.003850 0.000000 0.000000 0.000000
# 2 -0.007271 0.018407 -0.000762 0.000000 0.000000 0.000000
# 3 -0.003850 -0.000762 0.012362 0.000000 0.000000 0.000000
# 4 0.000000 0.000000 0.000000 0.037119 0.000000 0.000000
# 5 0.000000 0.000000 0.000000 0.000000 0.022930 0.000000
# 6 0.000000 0.000000 0.000000 0.000000 0.000000 0.040609
#
#
# Mechanical properties :
#
#
# Convention : Reuss Voigt Hill
#
# Bulk Modulus (GPa) = 49.85066 54.33416 52.09241
# Shear Modulus (GPa) = 28.58116 30.86235 29.72176
#
# Velocity S-wave (km/s) = 3.38262 3.51502 3.44946
# Velocity P-wave (km/s) = 5.93408 6.18271 6.05967
#
# Compressibility (1/GPa) = 0.02005992
#
# Stress axis : x y z
#
# Youngs Moduli (GPa) = 76.57465 54.32804 80.89486
#
# Poissons Ratio (x) = 0.39502 0.31148
# Poissons Ratio (y) = 0.55678 0.06167
# Poissons Ratio (z) = 0.29484 0.04142
#
# Static dielectric constant tensor:
#      x y z
#    x 2.110880 0.000000 0.000000 
#    y 0.000000 2.033850 0.000000 
#    z 0.000000 0.000000 2.037100 
# 
# From -- ./inp_files/24247.got.cif
#   From: 2010.05.17/outbox.cif.g08.bks.cpg/sg20_13_cif.got.tgz:24247.got - 2010.06.03 22:52:26.
