data_PCOD9321438
_publ_section_title
;
Structure prediction by ZEFSAII (Michael W. Deem and Ramdas Pophale) SiO2 
 PCOD9321438
Probable space group: C 2 2 21
;
_chemical_formula_sum "Si O2"
_cell_formula_units_Z 48
_cell_length_a 10.723743
_cell_length_b 7.860251
_cell_length_c 24.989998
_cell_angle_alpha 90.000000
_cell_angle_beta 90.000000
_cell_angle_gamma 90.000000
_cell_volume 2106.439709
_symmetry_space_group_name_H-M "C 2 2 21"
_symmetry_group_IT_number 20
_symmetry_cell_setting 'orthorhombic'
loop_
_space_group_symop_operation_xyz
x,y,z
-x,-y,1/2+z
x,-y,-z
-x,y,1/2-z
1/2+x,1/2+y,z
1/2-x,1/2-y,1/2+z
1/2+x,1/2-y,-z
1/2-x,1/2+y,1/2-z
loop_
_atom_site_type_symbol
_atom_site_label
_atom_site_fract_x
_atom_site_fract_y
_atom_site_fract_z
Si Si1 0.321499 0.341116 0.966241
Si Si2 0.717308 0.101186 0.621261
Si Si3 0.555375 0.114519 0.455839
Si Si4 0.514720 0.466331 0.096753
Si Si5 0.885764 0.100426 0.791012
Si Si6 0.640138 0.998489 0.267610
O O1 0.261056 0.273940 0.911922
O O2 0.457800 0.397872 0.944156
O O3 0.275287 0.500000 0.000000
O O4 0.330767 0.188353 0.008203
O O5 0.845297 0.997921 0.614937
O O6 0.682175 0.117530 0.682569
O O7 0.606144 0.001423 0.591719
O O8 0.494156 0.283804 0.432754
O O9 0.485981 0.000000 0.500000
O O10 0.430486 0.450363 0.149884
O O11 0.752577 0.020661 0.774676
O O12 0.868408 0.305244 0.786901
O O13 0.000000 0.056749 0.750000
O O14 0.500000 0.950868 0.250000
#
# Coordination Sequence:
#
# PCOD9321438 Si02
#       6
#     8   8   8   8   8   8
#     4   9  22  39  62  97 129 164 218 263 321 397
#     4  11  22  42  68  93 133 175 212 272 334 391
#     4   9  20  41  61  91 132 165 213 264 322 388
#     4  11  22  40  68  94 127 171 217 266 333 394
#     4  11  24  44  66  96 132 169 221 275 328 397
#     4  11  26  43  67  98 133 174 223 277 334 397
#
# _framework density 22.787265999999999
#
# number of rings (size 3 to 8) (size 9 to 14) (size 15 to 20)
#    0.000    1.667    3.333    0.000    2.333    8.667 
#    0.000    3.333    0.000    0.000    0.000    0.000 
#    0.000    0.000    0.000    0.000    0.000    0.000 
#
# Total GULP energy -133966.061803 kJ/mol
# GULP energy per Si atom -5581.919242 kJ/mol
# Density = 2.273540 g / cm^3
# Si number density = 22.787266 Si / 1000 Ang^3
#
#
#
# Elastic Constant Matrix: (Units=GPa)
#
#
# Indices 1 2 3 4 5 6 
#
# 1 126.6514 3.4087 31.3669 0.0000 0.0000 0.0000
# 2 3.4087 62.8750 19.4384 0.0000 0.0000 0.0000
# 3 31.3669 19.4384 109.2312 0.0000 0.0000 0.0000
# 4 0.0000 0.0000 0.0000 34.5312 0.0000 0.0000
# 5 0.0000 0.0000 0.0000 0.0000 -38.1550 0.0000
# 6 0.0000 0.0000 0.0000 0.0000 0.0000 4.3554
#
#
#
# Elastic Compliance Matrix: (Units=1/GPa)
#
#
# Indices 1 2 3 4 5 6 
#
# 1 0.008506 0.000311 -0.002498 0.000000 0.000000 0.000000
# 2 0.000311 0.016842 -0.003086 0.000000 0.000000 0.000000
# 3 -0.002498 -0.003086 0.010421 0.000000 0.000000 0.000000
# 4 0.000000 0.000000 0.000000 0.028959 0.000000 0.000000
# 5 0.000000 0.000000 0.000000 0.000000 -0.026209 0.000000
# 6 0.000000 0.000000 0.000000 0.000000 0.000000 0.229599
#
#
# Mechanical properties :
#
#
# Convention : Reuss Voigt Hill
#
# Bulk Modulus (GPa) = 39.64672 45.24283 42.44477
# Shear Modulus (GPa) = 17.41716 16.44924 16.93320
#
# Velocity S-wave (km/s) = 2.76766 2.68966 2.72894
# Velocity P-wave (km/s) = 5.25830 5.43537 5.34757
#
# Compressibility (1/GPa) = 0.02522277
#
# Stress axis : x y z
#
# Youngs Moduli (GPa) = 117.56459 59.37566 95.95588
#
# Poissons Ratio (x) = -0.01847 0.23969
# Poissons Ratio (y) = -0.03658 0.29616
# Poissons Ratio (z) = 0.29367 0.18326
#
# Static dielectric constant tensor:
#      x y z
#    x 1.840990 0.000000 0.000000 
#    y 0.000000 1.898140 0.000000 
#    z 0.000000 0.000000 1.806840 
# 
# From -- ./inp_files/29096.got.cif
#   From: 2010.05.17/outbox.cif.g08.bks.cpg/sg20_15_cif.got.tgz:29096.got - 2010.06.03 22:52:26.
