data_PCOD9321185
_publ_section_title
;
Structure prediction by ZEFSAII (Michael W. Deem and Ramdas Pophale) SiO2 
 PCOD9321185
Probable space group: C 2 2 21
;
_chemical_formula_sum "Si O2"
_cell_formula_units_Z 52
_cell_length_a 14.449512
_cell_length_b 8.695727
_cell_length_c 17.947095
_cell_angle_alpha 90.000000
_cell_angle_beta 90.000000
_cell_angle_gamma 90.000000
_cell_volume 2255.034748
_symmetry_space_group_name_H-M "C 2 2 21"
_symmetry_group_IT_number 20
_symmetry_cell_setting 'orthorhombic'
loop_
_space_group_symop_operation_xyz
x,y,z
-x,-y,1/2+z
x,-y,-z
-x,y,1/2-z
1/2+x,1/2+y,z
1/2-x,1/2-y,1/2+z
1/2+x,1/2-y,-z
1/2-x,1/2+y,1/2-z
loop_
_atom_site_type_symbol
_atom_site_label
_atom_site_fract_x
_atom_site_fract_y
_atom_site_fract_z
Si Si1 0.810196 0.786709 0.371330
Si Si2 0.111667 0.500000 0.500000
Si Si3 0.028001 0.585059 0.126974
Si Si4 0.870968 0.219581 0.800091
Si Si5 0.263305 0.629474 0.411851
Si Si6 0.922394 0.264491 0.338768
Si Si7 0.120770 0.863863 0.675200
O O1 0.886361 0.676755 0.409394
O O2 0.848801 0.793041 0.286714
O O3 0.707712 0.717438 0.363114
O O4 0.803045 0.957267 0.404087
O O5 0.185697 0.633091 0.476520
O O6 0.042066 0.497818 0.569421
O O7 0.068337 0.445820 0.175730
O O8 0.965914 0.702974 0.173684
O O9 0.794450 0.326655 0.838378
O O10 0.867805 0.046268 0.830475
O O11 0.351337 0.739123 0.406387
O O12 0.886722 0.185479 0.262518
O O13 0.021619 0.189667 0.355933
#
# Coordination Sequence:
#
# PCOD9321185 Si02
#       7
#     8   4   8   8   8   8   8
#     4  12  22  38  65 103 132 175 216 282 350 408
#     4  10  26  50  66  96 128 192 246 278 328 402
#     4  11  26  41  70  94 143 180 231 277 336 404
#     4  11  21  39  62 101 139 172 215 278 344 413
#     4  11  23  43  70  95 138 180 230 280 331 407
#     4  11  23  39  62 101 133 178 213 277 340 408
#     4  11  23  36  62 102 147 163 214 264 356 424
#
# _framework density 23.059512000000002
#
# number of rings (size 3 to 8) (size 9 to 14) (size 15 to 20)
#    0.000    0.923    3.077    4.154    8.615    1.231 
#    0.000    0.000    0.000   10.154    0.000    0.000 
#    0.000    0.000    0.000    0.000    0.000    0.000 
#
# Total GULP energy -145251.260966 kJ/mol
# GULP energy per Si atom -5586.586960 kJ/mol
# Density = 2.300703 g / cm^3
# Si number density = 23.059512 Si / 1000 Ang^3
#
#
#
# Elastic Constant Matrix: (Units=GPa)
#
#
# Indices 1 2 3 4 5 6 
#
# 1 165.8510 24.4172 16.8566 0.0000 0.0000 0.0000
# 2 24.4172 94.1771 2.4498 0.0000 0.0000 0.0000
# 3 16.8566 2.4498 64.3021 0.0000 0.0000 0.0000
# 4 0.0000 0.0000 0.0000 18.2998 0.0000 0.0000
# 5 0.0000 0.0000 0.0000 0.0000 39.6082 0.0000
# 6 0.0000 0.0000 0.0000 0.0000 0.0000 33.1451
#
#
#
# Elastic Compliance Matrix: (Units=1/GPa)
#
#
# Indices 1 2 3 4 5 6 
#
# 1 0.006434 -0.001626 -0.001625 0.000000 0.000000 0.000000
# 2 -0.001626 0.011040 0.000006 0.000000 0.000000 0.000000
# 3 -0.001625 0.000006 0.015977 0.000000 0.000000 0.000000
# 4 0.000000 0.000000 0.000000 0.054645 0.000000 0.000000
# 5 0.000000 0.000000 0.000000 0.000000 0.025247 0.000000
# 6 0.000000 0.000000 0.000000 0.000000 0.000000 0.030170
#
#
# Mechanical properties :
#
#
# Convention : Reuss Voigt Hill
#
# Bulk Modulus (GPa) = 37.09054 45.75304 41.42179
# Shear Modulus (GPa) = 31.44836 36.91776 34.18306
#
# Velocity S-wave (km/s) = 3.69696 4.00556 3.85435
# Velocity P-wave (km/s) = 5.86029 6.42472 6.14899
#
# Compressibility (1/GPa) = 0.02696106
#
# Stress axis : x y z
#
# Youngs Moduli (GPa) = 155.42421 90.58230 62.58888
#
# Poissons Ratio (x) = 0.14728 0.10169
# Poissons Ratio (y) = 0.25270 -0.00035
# Poissons Ratio (z) = 0.25252 -0.00051
#
# Static dielectric constant tensor:
#      x y z
#    x 1.902910 0.000000 0.000000 
#    y 0.000000 1.820900 0.000000 
#    z 0.000000 0.000000 1.929020 
# 
# From -- ./inp_files/27504.got.cif
#   From: 2010.05.17/outbox.cif.g08.bks.cpg/sg20_14_cif.got.tgz:27504.got - 2010.06.03 22:52:26.
