data_PCOD9321425
_publ_section_title
;
Structure prediction by ZEFSAII (Michael W. Deem and Ramdas Pophale) SiO2 
 PCOD9321425
Probable space group: C 2 2 21
;
_chemical_formula_sum "Si O2"
_cell_formula_units_Z 44
_cell_length_a 11.600135
_cell_length_b 12.326187
_cell_length_c 14.092319
_cell_angle_alpha 90.000000
_cell_angle_beta 90.000000
_cell_angle_gamma 90.000000
_cell_volume 2014.996338
_symmetry_space_group_name_H-M "C 2 2 21"
_symmetry_group_IT_number 20
_symmetry_cell_setting 'orthorhombic'
loop_
_space_group_symop_operation_xyz
x,y,z
-x,-y,1/2+z
x,-y,-z
-x,y,1/2-z
1/2+x,1/2+y,z
1/2-x,1/2-y,1/2+z
1/2+x,1/2-y,-z
1/2-x,1/2+y,1/2-z
loop_
_atom_site_type_symbol
_atom_site_label
_atom_site_fract_x
_atom_site_fract_y
_atom_site_fract_z
Si Si1 0.875072 0.127598 0.793960
Si Si2 0.983070 0.341021 0.143847
Si Si3 0.072423 0.000000 0.000000
Si Si4 0.278761 0.192744 0.534694
Si Si5 0.252112 0.609761 0.604515
Si Si6 0.385369 0.393382 0.891674
O O1 0.820971 0.189269 0.884647
O O2 0.784105 0.147020 0.709797
O O3 0.000000 0.158768 0.750000
O O4 0.884214 0.000446 0.826530
O O5 0.100676 0.335118 0.084651
O O6 0.000000 0.382139 0.250000
O O7 0.882446 0.412220 0.096550
O O8 0.922310 0.221268 0.153011
O O9 0.983567 0.092645 0.028053
O O10 0.156906 0.985183 0.087754
O O11 0.283770 0.306157 0.478713
O O12 0.234202 0.115370 0.449149
#
# Coordination Sequence:
#
# PCOD9321425 Si02
#       6
#     8   8   4   8   8   8
#     4  12  22  41  70  99 125 169 238 278 319 391
#     4  11  23  42  62  96 134 175 214 272 340 396
#     4  12  20  42  60  96 128 172 224 274 318 380
#     4  11  23  42  65  98 137 171 218 273 349 391
#     4  11  25  39  64  97 137 173 216 281 329 398
#     4  11  22  39  71  95 124 176 224 280 317 388
#
# _framework density 21.836269000000001
#
# number of rings (size 3 to 8) (size 9 to 14) (size 15 to 20)
#    0.000    0.727    7.273    0.545    2.545    0.000 
#    3.273    0.000    0.000    1.091    0.000    0.000 
#    0.000    0.000    0.000    0.000    0.000    0.000 
#
# Total GULP energy -122640.676635 kJ/mol
# GULP energy per Si atom -5574.576211 kJ/mol
# Density = 2.178657 g / cm^3
# Si number density = 21.836269 Si / 1000 Ang^3
#
#
#
# Elastic Constant Matrix: (Units=GPa)
#
#
# Indices 1 2 3 4 5 6 
#
# 1 188.2556 16.7690 57.8602 0.0000 0.0000 0.0000
# 2 16.7690 31.9927 10.0769 0.0000 0.0000 0.0000
# 3 57.8602 10.0769 110.1332 0.0000 0.0000 0.0000
# 4 0.0000 0.0000 0.0000 38.4948 0.0000 0.0000
# 5 0.0000 0.0000 0.0000 0.0000 54.7981 0.0000
# 6 0.0000 0.0000 0.0000 0.0000 0.0000 22.2781
#
#
#
# Elastic Compliance Matrix: (Units=1/GPa)
#
#
# Indices 1 2 3 4 5 6 
#
# 1 0.006510 -0.002404 -0.003200 0.000000 0.000000 0.000000
# 2 -0.002404 0.033073 -0.001763 0.000000 0.000000 0.000000
# 3 -0.003200 -0.001763 0.010922 0.000000 0.000000 0.000000
# 4 0.000000 0.000000 0.000000 0.025978 0.000000 0.000000
# 5 0.000000 0.000000 0.000000 0.000000 0.018249 0.000000
# 6 0.000000 0.000000 0.000000 0.000000 0.000000 0.044887
#
#
# Mechanical properties :
#
#
# Convention : Reuss Voigt Hill
#
# Bulk Modulus (GPa) = 27.95611 55.53263 41.74437
# Shear Modulus (GPa) = 30.07057 39.49256 34.78156
#
# Velocity S-wave (km/s) = 3.71495 4.25735 3.99536
# Velocity P-wave (km/s) = 5.58851 7.04651 6.35943
#
# Compressibility (1/GPa) = 0.03577036
#
# Stress axis : x y z
#
# Youngs Moduli (GPa) = 153.61995 30.23657 91.55529
#
# Poissons Ratio (x) = 0.07269 0.29297
# Poissons Ratio (y) = 0.36932 0.16141
# Poissons Ratio (z) = 0.49157 0.05331
#
# Static dielectric constant tensor:
#      x y z
#    x 1.822340 0.000000 0.000000 
#    y 0.000000 1.901830 0.000000 
#    z 0.000000 0.000000 1.866220 
# 
# From -- ./inp_files/19875.got.cif
#   From: 2010.05.17/outbox.cif.g08.bks.cpg/sg20_10_cif.got.tgz:19875.got - 2010.06.03 22:52:26.
