data_PCOD9321245
_publ_section_title
;
Structure prediction by ZEFSAII (Michael W. Deem and Ramdas Pophale) SiO2 
 PCOD9321245
Probable space group: C 2 2 21
;
_chemical_formula_sum "Si O2"
_cell_formula_units_Z 40
_cell_length_a 12.964151
_cell_length_b 9.480270
_cell_length_c 12.482159
_cell_angle_alpha 90.000000
_cell_angle_beta 90.000000
_cell_angle_gamma 90.000000
_cell_volume 1534.102923
_symmetry_space_group_name_H-M "C 2 2 21"
_symmetry_group_IT_number 20
_symmetry_cell_setting 'orthorhombic'
loop_
_space_group_symop_operation_xyz
x,y,z
-x,-y,1/2+z
x,-y,-z
-x,y,1/2-z
1/2+x,1/2+y,z
1/2-x,1/2-y,1/2+z
1/2+x,1/2-y,-z
1/2-x,1/2+y,1/2-z
loop_
_atom_site_type_symbol
_atom_site_label
_atom_site_fract_x
_atom_site_fract_y
_atom_site_fract_z
Si Si1 0.805698 0.845435 0.475578
Si Si2 0.087230 0.605421 0.633880
Si Si3 0.584728 0.491499 0.375373
Si Si4 0.122934 0.166347 0.193393
Si Si5 0.501017 0.194308 0.091433
O O1 0.799083 0.795081 0.598339
O O2 0.701139 0.880493 0.416501
O O3 0.853341 0.000000 0.500000
O O4 0.879466 0.741870 0.409505
O O5 0.160424 0.942125 0.713546
O O6 0.098583 0.689702 0.744063
O O7 0.042968 0.448280 0.641471
O O8 0.021623 0.674210 0.536095
O O9 0.616780 0.500000 0.500000
O O10 0.480840 0.585897 0.351842
O O11 0.557578 0.328830 0.360586
#
# Coordination Sequence:
#
# PCOD9321245 Si02
#       5
#     8   8   8   8   8
#     4  12  23  50  83 110 165 214 266 343 410 499
#     4  11  26  46  78 117 168 201 275 354 394 494
#     4  11  19  40  81 111 145 216 273 322 420 501
#     4  11  22  43  76 113 159 221 265 331 425 490
#     4  11  21  46  78 112 159 207 261 350 409 475
#
# _framework density 26.073869999999999
#
# number of rings (size 3 to 8) (size 9 to 14) (size 15 to 20)
#    0.000    0.800    8.000    1.200    0.000    0.000 
#    3.600   18.000    0.000    0.000    0.000    0.000 
#    0.000    0.000    0.000    0.000    0.000    0.000 
#
# Total GULP energy -111691.973497 kJ/mol
# GULP energy per Si atom -5584.598675 kJ/mol
# Density = 2.601452 g / cm^3
# Si number density = 26.073870 Si / 1000 Ang^3
#
#
#
# Elastic Constant Matrix: (Units=GPa)
#
#
# Indices 1 2 3 4 5 6 
#
# 1 110.7181 45.4350 34.4143 0.0000 0.0000 0.0000
# 2 45.4350 220.6809 42.7972 0.0000 0.0000 0.0000
# 3 34.4143 42.7972 131.2475 0.0000 0.0000 0.0000
# 4 0.0000 0.0000 0.0000 53.4524 0.0000 0.0000
# 5 0.0000 0.0000 0.0000 0.0000 14.0520 0.0000
# 6 0.0000 0.0000 0.0000 0.0000 0.0000 -41.3116
#
#
#
# Elastic Compliance Matrix: (Units=1/GPa)
#
#
# Indices 1 2 3 4 5 6 
#
# 1 0.010413 -0.001723 -0.002168 0.000000 0.000000 0.000000
# 2 -0.001723 0.005123 -0.001218 0.000000 0.000000 0.000000
# 3 -0.002168 -0.001218 0.008585 0.000000 0.000000 0.000000
# 4 0.000000 0.000000 0.000000 0.018708 0.000000 0.000000
# 5 0.000000 0.000000 0.000000 0.000000 0.071164 0.000000
# 6 0.000000 0.000000 0.000000 0.000000 0.000000 -0.024206
#
#
# Mechanical properties :
#
#
# Convention : Reuss Voigt Hill
#
# Bulk Modulus (GPa) = 71.94153 78.65997 75.30075
# Shear Modulus (GPa) = 47.78227 27.90523 37.84375
#
# Velocity S-wave (km/s) = 4.28550 3.27500 3.81386
# Velocity P-wave (km/s) = 7.22071 6.67341 6.95245
#
# Compressibility (1/GPa) = 0.01390018
#
# Stress axis : x y z
#
# Youngs Moduli (GPa) = 96.03205 195.21518 116.48073
#
# Poissons Ratio (x) = 0.33643 0.25259
# Poissons Ratio (y) = 0.16550 0.14193
# Poissons Ratio (z) = 0.20824 0.23787
#
# Static dielectric constant tensor:
#      x y z
#    x 2.172110 0.000000 0.000000 
#    y 0.000000 2.220100 0.000000 
#    z 0.000000 0.000000 3.241080 
# 
# From -- ./inp_files/21144.got.cif
#   From: 2010.05.17/outbox.cif.g08.bks.cpg/sg20_11_cif.got.tgz:21144.got - 2010.06.03 22:52:26.
