data_PCOD9321415
_publ_section_title
;
Structure prediction by ZEFSAII (Michael W. Deem and Ramdas Pophale) SiO2 
 PCOD9321415
Probable space group: C 2 2 21
;
_chemical_formula_sum "Si O2"
_cell_formula_units_Z 56
_cell_length_a 15.796728
_cell_length_b 14.151124
_cell_length_c 11.362410
_cell_angle_alpha 90.000000
_cell_angle_beta 90.000000
_cell_angle_gamma 90.000000
_cell_volume 2539.969683
_symmetry_space_group_name_H-M "C 2 2 21"
_symmetry_group_IT_number 20
_symmetry_cell_setting 'orthorhombic'
loop_
_space_group_symop_operation_xyz
x,y,z
-x,-y,1/2+z
x,-y,-z
-x,y,1/2-z
1/2+x,1/2+y,z
1/2-x,1/2-y,1/2+z
1/2+x,1/2-y,-z
1/2-x,1/2+y,1/2-z
loop_
_atom_site_type_symbol
_atom_site_label
_atom_site_fract_x
_atom_site_fract_y
_atom_site_fract_z
Si Si1 0.200846 0.057251 0.755072
Si Si2 0.911766 0.767737 0.767592
Si Si3 0.245294 0.500000 0.500000
Si Si4 0.757717 0.635869 0.357224
Si Si5 0.037767 0.500000 0.000000
Si Si6 0.597569 0.848560 0.493060
Si Si7 0.662428 0.865467 0.111840
Si Si8 0.098486 0.239831 0.719022
O O1 0.200961 0.010133 0.882509
O O2 0.279722 0.125695 0.726779
O O3 0.124141 0.130395 0.741062
O O4 0.231095 0.972554 0.669567
O O5 0.830124 0.816100 0.821793
O O6 0.888734 0.729013 0.638710
O O7 0.000000 0.822526 0.750000
O O8 0.927773 0.683155 0.861974
O O9 0.183150 0.409666 0.499527
O O10 0.784285 0.643144 0.493077
O O11 0.835855 0.687128 0.285907
O O12 0.098657 0.453017 0.096177
O O13 0.976271 0.582960 0.042331
O O14 0.607462 0.761750 0.580791
O O15 0.000000 0.255579 0.750000
#
# Coordination Sequence:
#
# PCOD9321415 Si02
#       8
#     8   8   4   8   4   8   8   8
#     4  12  25  45  72 101 142 192 247 307 374 453
#     4  12  26  44  72 107 149 194 253 312 382 466
#     4  11  22  42  72 103 138 196 242 305 374 447
#     4  12  26  46  75 102 149 202 249 315 381 458
#     4  11  22  38  72 109 146 178 246 315 392 443
#     4  11  23  42  69 109 147 185 240 320 385 446
#     4  12  23  44  70 107 141 188 243 312 384 447
#     4  12  27  46  74 108 151 198 254 313 384 455
#
# _framework density 22.047508000000001
#
# number of rings (size 3 to 8) (size 9 to 14) (size 15 to 20)
#    0.000    0.286    7.143    1.714    0.000    1.714 
#    2.571    0.000    3.143    0.000    0.000    0.000 
#    0.000    0.000    0.000    0.000    0.000    0.000 
#
# Total GULP energy -156177.339876 kJ/mol
# GULP energy per Si atom -5577.762138 kJ/mol
# Density = 2.199733 g / cm^3
# Si number density = 22.047508 Si / 1000 Ang^3
#
#
#
# Elastic Constant Matrix: (Units=GPa)
#
#
# Indices 1 2 3 4 5 6 
#
# 1 127.2429 39.5831 22.7640 0.0000 0.0000 0.0000
# 2 39.5831 71.4754 16.6146 0.0000 0.0000 0.0000
# 3 22.7640 16.6146 107.9637 0.0000 0.0000 0.0000
# 4 0.0000 0.0000 0.0000 30.0304 0.0000 0.0000
# 5 0.0000 0.0000 0.0000 0.0000 17.4419 0.0000
# 6 0.0000 0.0000 0.0000 0.0000 0.0000 17.7293
#
#
#
# Elastic Compliance Matrix: (Units=1/GPa)
#
#
# Indices 1 2 3 4 5 6 
#
# 1 0.009657 -0.005055 -0.001258 0.000000 0.000000 0.000000
# 2 -0.005055 0.017156 -0.001574 0.000000 0.000000 0.000000
# 3 -0.001258 -0.001574 0.009770 0.000000 0.000000 0.000000
# 4 0.000000 0.000000 0.000000 0.033300 0.000000 0.000000
# 5 0.000000 0.000000 0.000000 0.000000 0.057333 0.000000
# 6 0.000000 0.000000 0.000000 0.000000 0.000000 0.056404
#
#
# Mechanical properties :
#
#
# Convention : Reuss Voigt Hill
#
# Bulk Modulus (GPa) = 48.05980 51.62281 49.84131
# Shear Modulus (GPa) = 24.23288 28.22167 26.22727
#
# Velocity S-wave (km/s) = 3.31890 3.58164 3.45277
# Velocity P-wave (km/s) = 6.04420 6.36941 6.20894
#
# Compressibility (1/GPa) = 0.02080741
#
# Stress axis : x y z
#
# Youngs Moduli (GPa) = 103.55474 58.28707 102.35499
#
# Poissons Ratio (x) = 0.29467 0.12878
# Poissons Ratio (y) = 0.52351 0.16114
# Poissons Ratio (z) = 0.13028 0.09176
#
# Static dielectric constant tensor:
#      x y z
#    x 1.884520 0.000000 0.000000 
#    y 0.000000 1.942050 0.000000 
#    z 0.000000 0.000000 1.799350 
# 
# From -- ./inp_files/15190.got.cif
#   From: 2010.05.17/outbox.cif.g08.bks.cpg/sg20_8_cif.got.tgz:15190.got - 2010.06.03 22:52:26.
