data_PCOD9321593
_publ_section_title
;
Structure prediction by ZEFSAII (Michael W. Deem and Ramdas Pophale) SiO2 
 PCOD9321593
Probable space group: C 2 2 21
;
_chemical_formula_sum "Si O2"
_cell_formula_units_Z 40
_cell_length_a 22.556931
_cell_length_b 11.914366
_cell_length_c 6.856889
_cell_angle_alpha 90.000000
_cell_angle_beta 90.000000
_cell_angle_gamma 90.000000
_cell_volume 1842.799422
_symmetry_space_group_name_H-M "C 2 2 21"
_symmetry_group_IT_number 20
_symmetry_cell_setting 'orthorhombic'
loop_
_space_group_symop_operation_xyz
x,y,z
-x,-y,1/2+z
x,-y,-z
-x,y,1/2-z
1/2+x,1/2+y,z
1/2-x,1/2-y,1/2+z
1/2+x,1/2-y,-z
1/2-x,1/2+y,1/2-z
loop_
_atom_site_type_symbol
_atom_site_label
_atom_site_fract_x
_atom_site_fract_y
_atom_site_fract_z
Si Si1 0.069313 0.337980 0.807479
Si Si2 0.571053 0.083013 0.749265
Si Si3 0.164808 0.742992 0.681197
Si Si4 0.730106 0.606958 0.635325
Si Si5 0.370938 0.615859 0.556552
O O1 0.090160 0.455272 0.706360
O O2 0.096202 0.212527 0.816865
O O3 0.000000 0.328391 0.750000
O O4 0.082099 0.377546 0.029694
O O5 0.500000 0.084647 0.750000
O O6 0.604443 0.178271 0.625446
O O7 0.198701 0.800688 0.503106
O O8 0.209302 0.653484 0.776920
O O9 0.149237 0.830392 0.851781
O O10 0.740502 0.500000 0.500000
O O11 0.685585 0.582940 0.812528
O O12 0.404105 0.500000 0.500000
#
# Coordination Sequence:
#
# PCOD9321593 Si02
#       5
#     8   8   8   8   8
#     4   9  20  39  64  92 127 165 213 273 327 386
#     4   9  20  39  64  94 128 161 212 272 334 388
#     4  11  24  41  65  97 129 172 216 275 325 393
#     4  12  25  41  66  94 133 175 219 264 333 397
#     4  11  23  43  61  92 134 170 219 272 320 395
#
# _framework density 21.706105000000001
#
# number of rings (size 3 to 8) (size 9 to 14) (size 15 to 20)
#    0.000    1.600    4.000    0.000    8.400    0.000 
#    0.000    7.000    0.000    0.000    0.000    0.000 
#    0.000    0.000    0.000    0.000    0.000    0.000 
#
# Total GULP energy -111540.892092 kJ/mol
# GULP energy per Si atom -5577.044605 kJ/mol
# Density = 2.165670 g / cm^3
# Si number density = 21.706105 Si / 1000 Ang^3
#
#
#
# Elastic Constant Matrix: (Units=GPa)
#
#
# Indices 1 2 3 4 5 6 
#
# 1 51.9482 46.8365 6.0258 0.0000 0.0000 0.0000
# 2 46.8365 162.1432 22.2546 0.0000 0.0000 0.0000
# 3 6.0258 22.2546 59.9152 0.0000 0.0000 0.0000
# 4 0.0000 0.0000 0.0000 47.5841 0.0000 0.0000
# 5 0.0000 0.0000 0.0000 0.0000 24.7334 0.0000
# 6 0.0000 0.0000 0.0000 0.0000 0.0000 37.4292
#
#
#
# Elastic Compliance Matrix: (Units=1/GPa)
#
#
# Indices 1 2 3 4 5 6 
#
# 1 0.026031 -0.007544 0.000184 0.000000 0.000000 0.000000
# 2 -0.007544 0.008685 -0.002467 0.000000 0.000000 0.000000
# 3 0.000184 -0.002467 0.017588 0.000000 0.000000 0.000000
# 4 0.000000 0.000000 0.000000 0.021015 0.000000 0.000000
# 5 0.000000 0.000000 0.000000 0.000000 0.040431 0.000000
# 6 0.000000 0.000000 0.000000 0.000000 0.000000 0.026717
#
#
# Mechanical properties :
#
#
# Convention : Reuss Voigt Hill
#
# Bulk Modulus (GPa) = 30.62852 47.13780 38.88316
# Shear Modulus (GPa) = 29.23877 35.20865 32.22371
#
# Velocity S-wave (km/s) = 3.67417 4.03185 3.85716
# Velocity P-wave (km/s) = 5.66927 6.59075 6.14730
#
# Compressibility (1/GPa) = 0.03264931
#
# Stress axis : x y z
#
# Youngs Moduli (GPa) = 38.41622 115.13676 56.85644
#
# Poissons Ratio (x) = 0.86865 -0.01048
# Poissons Ratio (y) = 0.28983 0.14028
# Poissons Ratio (z) = -0.00708 0.28407
#
# Static dielectric constant tensor:
#      x y z
#    x 1.810750 0.000000 0.000000 
#    y 0.000000 1.821230 0.000000 
#    z 0.000000 0.000000 1.798060 
# 
# From -- ./inp_files/9120.got.cif
#   From: 2010.05.17/outbox.cif.g08.bks.cpg/sg20_5_cif.got.tgz:9120.got - 2010.06.03 22:52:26.
