data_PCOD9321653
_publ_section_title
;
Structure prediction by ZEFSAII (Michael W. Deem and Ramdas Pophale) SiO2 
 PCOD9321653
Probable space group: C 2 2 21
;
_chemical_formula_sum "Si O2"
_cell_formula_units_Z 40
_cell_length_a 24.589966
_cell_length_b 6.830862
_cell_length_c 10.620469
_cell_angle_alpha 90.000000
_cell_angle_beta 90.000000
_cell_angle_gamma 90.000000
_cell_volume 1783.927233
_symmetry_space_group_name_H-M "C 2 2 21"
_symmetry_group_IT_number 20
_symmetry_cell_setting 'orthorhombic'
loop_
_space_group_symop_operation_xyz
x,y,z
-x,-y,1/2+z
x,-y,-z
-x,y,1/2-z
1/2+x,1/2+y,z
1/2-x,1/2-y,1/2+z
1/2+x,1/2-y,-z
1/2-x,1/2+y,1/2-z
loop_
_atom_site_type_symbol
_atom_site_label
_atom_site_fract_x
_atom_site_fract_y
_atom_site_fract_z
Si Si1 0.120103 0.160319 0.796196
Si Si2 0.419057 0.008732 0.868025
Si Si3 0.712994 0.053959 0.133572
Si Si4 0.000000 0.789379 0.750000
Si Si5 0.673317 0.280902 0.683672
Si Si6 0.042967 0.000000 0.000000
O O1 0.091108 0.297697 0.692697
O O2 0.177567 0.265502 0.818302
O O3 0.134989 0.945729 0.745453
O O4 0.083512 0.144389 0.921970
O O5 0.450031 0.142117 0.768301
O O6 0.364565 0.135711 0.896124
O O7 0.450224 0.000000 0.000000
O O8 0.702008 0.865359 0.218183
O O9 0.775812 0.111966 0.120757
O O10 0.689250 0.000000 0.000000
O O11 0.008845 0.909503 0.881294
#
# Coordination Sequence:
#
# PCOD9321653 Si02
#       6
#     8   8   8   4   8   4
#     4  11  25  48  73 104 151 191 245 309 373 450
#     4  11  29  47  73 107 149 192 249 311 373 444
#     4  11  24  39  73 101 145 193 243 295 366 449
#     4  12  30  50  82 112 142 198 256 310 388 444
#     4  11  23  46  66 112 140 196 241 299 373 441
#     4  12  28  52  82 110 146 196 252 316 386 448
#
# _framework density 22.422439000000001
#
# number of rings (size 3 to 8) (size 9 to 14) (size 15 to 20)
#    0.000    0.800    4.000    1.200   11.200    0.000 
#    1.800    0.000    0.000    0.000    0.000    0.000 
#    0.000    0.000    0.000    0.000    0.000    0.000 
#
# Total GULP energy -111642.233593 kJ/mol
# GULP energy per Si atom -5582.111680 kJ/mol
# Density = 2.237140 g / cm^3
# Si number density = 22.422439 Si / 1000 Ang^3
#
#
#
# Elastic Constant Matrix: (Units=GPa)
#
#
# Indices 1 2 3 4 5 6 
#
# 1 56.8641 39.6773 8.6777 0.0000 0.0000 0.0000
# 2 39.6773 136.1184 47.2347 0.0000 0.0000 0.0000
# 3 8.6777 47.2347 100.6927 0.0000 0.0000 0.0000
# 4 0.0000 0.0000 0.0000 25.1440 0.0000 0.0000
# 5 0.0000 0.0000 0.0000 0.0000 23.4892 0.0000
# 6 0.0000 0.0000 0.0000 0.0000 0.0000 107.4045
#
#
#
# Elastic Compliance Matrix: (Units=1/GPa)
#
#
# Indices 1 2 3 4 5 6 
#
# 1 0.022227 -0.006945 0.001342 0.000000 0.000000 0.000000
# 2 -0.006945 0.010945 -0.004536 0.000000 0.000000 0.000000
# 3 0.001342 -0.004536 0.011943 0.000000 0.000000 0.000000
# 4 0.000000 0.000000 0.000000 0.039771 0.000000 0.000000
# 5 0.000000 0.000000 0.000000 0.000000 0.042573 0.000000
# 6 0.000000 0.000000 0.000000 0.000000 0.000000 0.009311
#
#
# Mechanical properties :
#
#
# Convention : Reuss Voigt Hill
#
# Bulk Modulus (GPa) = 40.26021 53.87272 47.06646
# Shear Modulus (GPa) = 30.24356 44.41325 37.32840
#
# Velocity S-wave (km/s) = 3.67660 4.45539 4.08460
# Velocity P-wave (km/s) = 6.00145 7.10955 6.57887
#
# Compressibility (1/GPa) = 0.02483842
#
# Stress axis : x y z
#
# Youngs Moduli (GPa) = 44.99113 91.36784 83.72960
#
# Poissons Ratio (x) = 0.63451 -0.11238
# Poissons Ratio (y) = 0.31245 0.37977
# Poissons Ratio (z) = -0.06039 0.41441
#
# Static dielectric constant tensor:
#      x y z
#    x 1.866380 0.000000 0.000000 
#    y 0.000000 1.804120 0.000000 
#    z 0.000000 0.000000 1.817040 
# 
# From -- ./inp_files/16889.got.cif
#   From: 2010.05.17/outbox.cif.g08.bks.cpg/sg20_9_cif.got.tgz:16889.got - 2010.06.03 22:52:26.
