data_PCOD9321587
_publ_section_title
;
Structure prediction by ZEFSAII (Michael W. Deem and Ramdas Pophale) SiO2 
 PCOD9321587
Probable space group: C 2 2 21
;
_chemical_formula_sum "Si O2"
_cell_formula_units_Z 52
_cell_length_a 8.246067
_cell_length_b 12.070911
_cell_length_c 22.597268
_cell_angle_alpha 90.000000
_cell_angle_beta 90.000000
_cell_angle_gamma 90.000000
_cell_volume 2249.276487
_symmetry_space_group_name_H-M "C 2 2 21"
_symmetry_group_IT_number 20
_symmetry_cell_setting 'orthorhombic'
loop_
_space_group_symop_operation_xyz
x,y,z
-x,-y,1/2+z
x,-y,-z
-x,y,1/2-z
1/2+x,1/2+y,z
1/2-x,1/2-y,1/2+z
1/2+x,1/2-y,-z
1/2-x,1/2+y,1/2-z
loop_
_atom_site_type_symbol
_atom_site_label
_atom_site_fract_x
_atom_site_fract_y
_atom_site_fract_z
Si Si1 0.203331 0.199997 0.441709
Si Si2 0.565900 0.500000 0.500000
Si Si3 0.592718 0.953555 0.197952
Si Si4 0.784157 0.938412 0.418939
Si Si5 0.870525 0.771542 0.634167
Si Si6 0.455836 0.887977 0.894207
Si Si7 0.854520 0.009429 0.288627
O O1 0.256909 0.324911 0.453292
O O2 0.035057 0.214893 0.404727
O O3 0.366518 0.152233 0.411418
O O4 0.166381 0.112296 0.493016
O O5 0.447737 0.490941 0.443962
O O6 0.500000 0.889095 0.250000
O O7 0.639673 0.856625 0.153424
O O8 0.487053 0.048476 0.167474
O O9 0.727689 0.015543 0.235259
O O10 0.628523 0.014281 0.431268
O O11 0.809040 0.935308 0.347069
O O12 0.691382 0.800560 0.608361
O O13 0.887760 0.868336 0.684267
O O14 0.000000 0.959178 0.250000
#
# Coordination Sequence:
#
# PCOD9321587 Si02
#       7
#     8   4   8   8   8   8   8
#     4  12  26  49  79 103 141 197 245 306 376 426
#     4  12  28  50  78 106 146 194 258 310 370 436
#     4  12  22  42  70 108 150 196 236 292 374 441
#     4  11  26  51  72 110 150 188 250 311 369 445
#     4  11  23  46  70 105 152 192 240 302 356 443
#     4  11  25  45  73 107 148 187 247 303 359 448
#     4  11  23  42  70 108 150 192 242 302 366 452
#
# _framework density 23.118545999999998
#
# number of rings (size 3 to 8) (size 9 to 14) (size 15 to 20)
#    0.000    0.615    7.692    1.385    2.154    4.308 
#    0.000    0.000    0.000    0.000    0.000    0.000 
#    0.000    0.000    0.000    0.000    0.000    0.000 
#
# Total GULP energy -144872.228206 kJ/mol
# GULP energy per Si atom -5572.008777 kJ/mol
# Density = 2.306593 g / cm^3
# Si number density = 23.118546 Si / 1000 Ang^3
#
#
#
# Elastic Constant Matrix: (Units=GPa)
#
#
# Indices 1 2 3 4 5 6 
#
# 1 104.0699 5.5803 39.4605 0.0000 0.0000 0.0000
# 2 5.5803 71.1502 0.1697 0.0000 0.0000 0.0000
# 3 39.4605 0.1697 61.2802 0.0000 0.0000 0.0000
# 4 0.0000 0.0000 0.0000 28.6048 0.0000 0.0000
# 5 0.0000 0.0000 0.0000 0.0000 22.2704 0.0000
# 6 0.0000 0.0000 0.0000 0.0000 0.0000 -11.3677
#
#
#
# Elastic Compliance Matrix: (Units=1/GPa)
#
#
# Indices 1 2 3 4 5 6 
#
# 1 0.012781 -0.000983 -0.008228 0.000000 0.000000 0.000000
# 2 -0.000983 0.014130 0.000594 0.000000 0.000000 0.000000
# 3 -0.008228 0.000594 0.021615 0.000000 0.000000 0.000000
# 4 0.000000 0.000000 0.000000 0.034959 0.000000 0.000000
# 5 0.000000 0.000000 0.000000 0.000000 0.044903 0.000000
# 6 0.000000 0.000000 0.000000 0.000000 0.000000 -0.087968
#
#
# Mechanical properties :
#
#
# Convention : Reuss Voigt Hill
#
# Bulk Modulus (GPa) = 31.95578 36.32459 34.14018
# Shear Modulus (GPa) = 73.43807 20.65416 47.04611
#
# Velocity S-wave (km/s) = 5.64224 2.99223 4.51599
# Velocity P-wave (km/s) = 7.50327 5.26159 6.48010
#
# Compressibility (1/GPa) = 0.03129325
#
# Stress axis : x y z
#
# Youngs Moduli (GPa) = 78.23932 70.76924 46.26447
#
# Poissons Ratio (x) = 0.06955 0.38065
# Poissons Ratio (y) = 0.07689 -0.02747
# Poissons Ratio (z) = 0.64372 -0.04202
#
# Static dielectric constant tensor:
#      x y z
#    x 2.001380 0.000000 0.000000 
#    y 0.000000 1.843240 0.000000 
#    z 0.000000 0.000000 2.072630 
# 
# From -- ./inp_files/30117.got.cif
#   From: 2010.05.17/outbox.cif.g08.bks.cpg/sg20_16_cif.got.tgz:30117.got - 2010.06.03 22:52:26.
