data_PCOD9321589
_publ_section_title
;
Structure prediction by ZEFSAII (Michael W. Deem and Ramdas Pophale) SiO2 
 PCOD9321589
Probable space group: C 2 2 21
;
_chemical_formula_sum "Si O2"
_cell_formula_units_Z 40
_cell_length_a 16.568480
_cell_length_b 9.222855
_cell_length_c 10.822695
_cell_angle_alpha 90.000000
_cell_angle_beta 90.000000
_cell_angle_gamma 90.000000
_cell_volume 1653.801830
_symmetry_space_group_name_H-M "C 2 2 21"
_symmetry_group_IT_number 20
_symmetry_cell_setting 'orthorhombic'
loop_
_space_group_symop_operation_xyz
x,y,z
-x,-y,1/2+z
x,-y,-z
-x,y,1/2-z
1/2+x,1/2+y,z
1/2-x,1/2-y,1/2+z
1/2+x,1/2-y,-z
1/2-x,1/2+y,1/2-z
loop_
_atom_site_type_symbol
_atom_site_label
_atom_site_fract_x
_atom_site_fract_y
_atom_site_fract_z
Si Si1 0.931071 0.666890 0.039816
Si Si2 0.657526 0.079458 0.221336
Si Si3 0.698103 0.589905 0.122444
Si Si4 0.564465 0.202218 0.857831
Si Si5 0.277897 0.669172 0.025383
O O1 0.865560 0.758851 0.962020
O O2 0.019000 0.713950 0.990524
O O3 0.922686 0.500000 0.000000
O O4 0.903952 0.660361 0.184070
O O5 0.733081 0.011657 0.298587
O O6 0.708524 0.180800 0.129153
O O7 0.613478 0.949097 0.150352
O O8 0.615152 0.652995 0.172702
O O9 0.683367 0.500000 0.000000
O O10 0.742482 0.739685 0.087028
O O11 0.500000 0.184903 0.750000
O O12 0.288170 0.500000 0.000000
#
# Coordination Sequence:
#
# PCOD9321589 Si02
#       5
#     8   8   8   8   8
#     4  11  25  43  68 107 147 191 247 309 369 448
#     4  11  24  43  75 101 141 196 245 300 363 446
#     4  11  27  45  71 106 145 186 249 307 356 448
#     4  12  25  45  74 106 149 194 241 307 388 431
#     4  11  23  42  74 107 143 192 251 295 368 448
#
# _framework density 24.186695
#
# number of rings (size 3 to 8) (size 9 to 14) (size 15 to 20)
#    0.000    0.800    4.000    3.600    5.600    0.800 
#    0.000    2.000    0.000    0.000    0.000    0.000 
#    0.000    0.000    0.000    0.000    0.000    0.000 
#
# Total GULP energy -111724.050845 kJ/mol
# GULP energy per Si atom -5586.202542 kJ/mol
# Density = 2.413164 g / cm^3
# Si number density = 24.186695 Si / 1000 Ang^3
#
#
#
# Elastic Constant Matrix: (Units=GPa)
#
#
# Indices 1 2 3 4 5 6 
#
# 1 126.9043 29.8419 48.5061 0.0000 0.0000 0.0000
# 2 29.8419 69.8147 2.5610 0.0000 0.0000 0.0000
# 3 48.5061 2.5610 78.4160 0.0000 0.0000 0.0000
# 4 0.0000 0.0000 0.0000 34.0552 0.0000 0.0000
# 5 0.0000 0.0000 0.0000 0.0000 37.1563 0.0000
# 6 0.0000 0.0000 0.0000 0.0000 0.0000 44.5817
#
#
#
# Elastic Compliance Matrix: (Units=1/GPa)
#
#
# Indices 1 2 3 4 5 6 
#
# 1 0.011703 -0.004742 -0.007084 0.000000 0.000000 0.000000
# 2 -0.004742 0.016263 0.002402 0.000000 0.000000 0.000000
# 3 -0.007084 0.002402 0.017056 0.000000 0.000000 0.000000
# 4 0.000000 0.000000 0.000000 0.029364 0.000000 0.000000
# 5 0.000000 0.000000 0.000000 0.000000 0.026913 0.000000
# 6 0.000000 0.000000 0.000000 0.000000 0.000000 0.022431
#
#
# Mechanical properties :
#
#
# Convention : Reuss Voigt Hill
#
# Bulk Modulus (GPa) = 38.20704 48.55035 43.37869
# Shear Modulus (GPa) = 33.04627 36.10702 34.57665
#
# Velocity S-wave (km/s) = 3.70036 3.86793 3.78507
# Velocity P-wave (km/s) = 5.83848 6.32966 6.08903
#
# Compressibility (1/GPa) = 0.02617318
#
# Stress axis : x y z
#
# Youngs Moduli (GPa) = 85.44848 61.49062 58.62973
#
# Poissons Ratio (x) = 0.29162 0.41535
# Poissons Ratio (y) = 0.40524 -0.14085
# Poissons Ratio (z) = 0.60534 -0.14773
#
# Static dielectric constant tensor:
#      x y z
#    x 2.050900 0.000000 0.000000 
#    y 0.000000 1.875370 0.000000 
#    z 0.000000 0.000000 2.094880 
# 
# From -- ./inp_files/15546.got.cif
#   From: 2010.05.17/outbox.cif.g08.bks.cpg/sg20_8_cif.got.tgz:15546.got - 2010.06.03 22:52:26.
