data_PCOD9321063
_publ_section_title
;
Structure prediction by ZEFSAII (Michael W. Deem and Ramdas Pophale) SiO2 
 PCOD9321063
Probable space group: C 2 2 21
;
_chemical_formula_sum "Si O2"
_cell_formula_units_Z 20
_cell_length_a 4.705024
_cell_length_b 16.421342
_cell_length_c 8.848484
_cell_angle_alpha 90.000000
_cell_angle_beta 90.000000
_cell_angle_gamma 90.000000
_cell_volume 683.658722
_symmetry_space_group_name_H-M "C 2 2 21"
_symmetry_group_IT_number 20
_symmetry_cell_setting 'orthorhombic'
loop_
_space_group_symop_operation_xyz
x,y,z
-x,-y,1/2+z
x,-y,-z
-x,y,1/2-z
1/2+x,1/2+y,z
1/2-x,1/2-y,1/2+z
1/2+x,1/2-y,-z
1/2-x,1/2+y,1/2-z
loop_
_atom_site_type_symbol
_atom_site_label
_atom_site_fract_x
_atom_site_fract_y
_atom_site_fract_z
Si Si1 0.000000 0.788323 0.250000
Si Si2 0.249536 0.142146 0.145526
Si Si3 0.869248 0.000000 0.000000
Si Si4 0.000000 0.405500 0.250000
O O1 0.907882 0.728272 0.112629
O O2 0.749804 0.846538 0.307888
O O3 0.500000 0.103704 0.250000
O O4 0.918964 0.068371 0.432735
O O5 0.000000 0.176572 0.250000
O O6 0.664315 0.046125 0.881514
#
# Coordination Sequence:
#
# PCOD9321063 Si02
#       4
#     4   8   4   4
#     4  10  24  61  89 132 182 262 320 382 479 562
#     4  10  25  55  92 127 184 248 314 393 452 575
#     4  12  32  60  98 144 198 244 328 390 500 562
#     4  12  30  59  95 142 194 258 310 406 477 594
#
# _framework density 29.254360999999999
#
# number of rings (size 3 to 8) (size 9 to 14) (size 15 to 20)
#    1.200    0.000    2.000    0.000    5.600    6.400 
#    7.200    2.000    8.800    0.000    0.000    0.000 
#    0.000    0.000    0.000    0.000    0.000    0.000 
#
# Total GULP energy -55862.382100 kJ/mol
# GULP energy per Si atom -5586.238210 kJ/mol
# Density = 2.918778 g / cm^3
# Si number density = 29.254361 Si / 1000 Ang^3
#
#
#
# Elastic Constant Matrix: (Units=GPa)
#
#
# Indices 1 2 3 4 5 6 
#
# 1 295.3647 150.7698 103.2148 0.0000 0.0000 0.0000
# 2 150.7698 272.4373 122.6768 0.0000 0.0000 0.0000
# 3 103.2148 122.6768 125.0931 0.0000 0.0000 0.0000
# 4 0.0000 0.0000 0.0000 49.2750 0.0000 0.0000
# 5 0.0000 0.0000 0.0000 0.0000 84.8883 0.0000
# 6 0.0000 0.0000 0.0000 0.0000 0.0000 82.9118
#
#
#
# Elastic Compliance Matrix: (Units=1/GPa)
#
#
# Indices 1 2 3 4 5 6 
#
# 1 0.005153 -0.001678 -0.002606 0.000000 0.000000 0.000000
# 2 -0.001678 0.007120 -0.005598 0.000000 0.000000 0.000000
# 3 -0.002606 -0.005598 0.015634 0.000000 0.000000 0.000000
# 4 0.000000 0.000000 0.000000 0.020294 0.000000 0.000000
# 5 0.000000 0.000000 0.000000 0.000000 0.011780 0.000000
# 6 0.000000 0.000000 0.000000 0.000000 0.000000 0.012061
#
#
# Mechanical properties :
#
#
# Convention : Reuss Voigt Hill
#
# Bulk Modulus (GPa) = 122.80508 160.69086 141.74797
# Shear Modulus (GPa) = 52.89895 64.49728 58.69811
#
# Velocity S-wave (km/s) = 4.25696 4.70052 4.48423
# Velocity P-wave (km/s) = 8.13829 9.19282 8.68158
#
# Compressibility (1/GPa) = 0.00814299
#
# Stress axis : x y z
#
# Youngs Moduli (GPa) = 194.06380 140.45054 63.96465
#
# Poissons Ratio (x) = 0.23572 0.16668
# Poissons Ratio (y) = 0.32570 0.35805
# Poissons Ratio (z) = 0.50570 0.78619
#
# Static dielectric constant tensor:
#      x y z
#    x 2.544120 0.000000 0.000000 
#    y 0.000000 2.265440 0.000000 
#    z 0.000000 0.000000 8.744990 
# 
# From -- ./inp_files/4933.got.cif
#   From: 2010.05.17/outbox.cif.g08.bks.cpg/sg20_3_cif.got.tgz:4933.got - 2010.06.03 22:52:26.
