data_PCOD9321708
_publ_section_title
;
Structure prediction by ZEFSAII (Michael W. Deem and Ramdas Pophale) SiO2 
 PCOD9321708
Probable space group: C 2 2 21
;
_chemical_formula_sum "Si O2"
_cell_formula_units_Z 48
_cell_length_a 10.078492
_cell_length_b 9.241452
_cell_length_c 26.549273
_cell_angle_alpha 90.000000
_cell_angle_beta 90.000000
_cell_angle_gamma 90.000000
_cell_volume 2472.796634
_symmetry_space_group_name_H-M "C 2 2 21"
_symmetry_group_IT_number 20
_symmetry_cell_setting 'orthorhombic'
loop_
_space_group_symop_operation_xyz
x,y,z
-x,-y,1/2+z
x,-y,-z
-x,y,1/2-z
1/2+x,1/2+y,z
1/2-x,1/2-y,1/2+z
1/2+x,1/2-y,-z
1/2-x,1/2+y,1/2-z
loop_
_atom_site_type_symbol
_atom_site_label
_atom_site_fract_x
_atom_site_fract_y
_atom_site_fract_z
Si Si1 0.052522 0.212533 0.862142
Si Si2 0.580399 0.142032 0.534398
Si Si3 0.233492 0.794551 0.311383
Si Si4 0.879803 0.841091 0.476044
Si Si5 0.524761 0.946158 0.142512
Si Si6 0.267297 0.046655 0.794032
O O1 0.058568 0.163672 0.920154
O O2 0.070316 0.386490 0.859572
O O3 0.909234 0.185092 0.837252
O O4 0.165023 0.128577 0.830926
O O5 0.727122 0.209372 0.529701
O O6 0.466606 0.243812 0.512855
O O7 0.549445 0.094597 0.591081
O O8 0.579781 0.000000 0.500000
O O9 0.349776 0.844844 0.348391
O O10 0.251434 0.626144 0.297222
O O11 0.244850 0.891641 0.261476
O O12 0.877913 0.000000 0.500000
O O13 0.417241 0.927012 0.186862
#
# Coordination Sequence:
#
# PCOD9321708 Si02
#       6
#     8   8   8   8   8   8
#     4  11  24  44  65  97 132 169 214 271 320 386
#     4  11  24  44  66  93 132 170 210 266 320 385
#     4  11  26  41  71  94 131 170 221 266 333 385
#     4  11  26  42  67  97 133 168 218 268 321 385
#     4  11  24  42  68  94 129 172 214 262 329 383
#     4  11  24  46  63  97 131 170 215 275 319 387
#
# _framework density 19.411218999999999
#
# number of rings (size 3 to 8) (size 9 to 14) (size 15 to 20)
#    0.000    1.000    3.333    2.000    4.667    8.667 
#    0.000    0.000    0.000    0.000    0.000    0.000 
#    0.000    0.000    0.000    0.000    0.000    0.000 
#
# Total GULP energy -134221.891977 kJ/mol
# GULP energy per Si atom -5592.578832 kJ/mol
# Density = 1.936704 g / cm^3
# Si number density = 19.411219 Si / 1000 Ang^3
#
#
#
# Elastic Constant Matrix: (Units=GPa)
#
#
# Indices 1 2 3 4 5 6 
#
# 1 92.1949 57.2697 16.7487 0.0000 0.0000 0.0000
# 2 57.2697 62.9804 12.2305 0.0000 0.0000 0.0000
# 3 16.7487 12.2305 57.0248 0.0000 0.0000 0.0000
# 4 0.0000 0.0000 0.0000 35.1401 0.0000 0.0000
# 5 0.0000 0.0000 0.0000 0.0000 34.5400 0.0000
# 6 0.0000 0.0000 0.0000 0.0000 0.0000 42.1712
#
#
#
# Elastic Compliance Matrix: (Units=1/GPa)
#
#
# Indices 1 2 3 4 5 6 
#
# 1 0.025292 -0.022493 -0.002604 0.000000 0.000000 0.000000
# 2 -0.022493 0.036571 -0.001237 0.000000 0.000000 0.000000
# 3 -0.002604 -0.001237 0.018567 0.000000 0.000000 0.000000
# 4 0.000000 0.000000 0.000000 0.028458 0.000000 0.000000
# 5 0.000000 0.000000 0.000000 0.000000 0.028952 0.000000
# 6 0.000000 0.000000 0.000000 0.000000 0.000000 0.023713
#
#
# Mechanical properties :
#
#
# Convention : Reuss Voigt Hill
#
# Bulk Modulus (GPa) = 36.02177 42.74422 39.38300
# Shear Modulus (GPa) = 22.37392 30.76701 26.57046
#
# Velocity S-wave (km/s) = 3.39872 3.98554 3.70377
# Velocity P-wave (km/s) = 5.83088 6.57629 6.21477
#
# Compressibility (1/GPa) = 0.02776099
#
# Stress axis : x y z
#
# Youngs Moduli (GPa) = 39.53861 27.34370 53.86035
#
# Poissons Ratio (x) = 0.61503 0.14027
# Poissons Ratio (y) = 0.88933 0.06665
# Poissons Ratio (z) = 0.10297 0.03384
#
# Static dielectric constant tensor:
#      x y z
#    x 1.666510 0.000000 0.000000 
#    y 0.000000 1.643680 0.000000 
#    z 0.000000 0.000000 1.654610 
# 
# From -- ./inp_files/30942.got.cif
#   From: 2010.05.17/outbox.cif.g08.bks.cpg/sg20_16_cif.got.tgz:30942.got - 2010.06.03 22:52:26.
