data_PCOD9321927
_publ_section_title
;
Structure prediction by ZEFSAII (Michael W. Deem and Ramdas Pophale) SiO2 
 PCOD9321927
Probable space group: C 2 2 21
;
_chemical_formula_sum "Si O2"
_cell_formula_units_Z 24
_cell_length_a 14.201757
_cell_length_b 4.764564
_cell_length_c 13.876034
_cell_angle_alpha 90.000000
_cell_angle_beta 90.000000
_cell_angle_gamma 90.000000
_cell_volume 938.924340
_symmetry_space_group_name_H-M "C 2 2 21"
_symmetry_group_IT_number 20
_symmetry_cell_setting 'orthorhombic'
loop_
_space_group_symop_operation_xyz
x,y,z
-x,-y,1/2+z
x,-y,-z
-x,y,1/2-z
1/2+x,1/2+y,z
1/2-x,1/2-y,1/2+z
1/2+x,1/2-y,-z
1/2-x,1/2+y,1/2-z
loop_
_atom_site_type_symbol
_atom_site_label
_atom_site_fract_x
_atom_site_fract_y
_atom_site_fract_z
Si Si1 0.333364 0.000000 0.500000
Si Si2 0.312490 0.878227 0.107729
Si Si3 0.046876 0.000000 0.000000
Si Si4 0.577809 0.355140 0.330523
O O1 0.274617 0.172582 0.419036
O O2 0.390058 0.257208 0.548537
O O3 0.386861 0.671426 0.157059
O O4 0.329975 0.156929 0.171221
O O5 0.330519 0.000000 0.000000
O O6 0.982930 0.824526 0.072122
O O7 0.500000 0.309953 0.250000
#
# Coordination Sequence:
#
# PCOD9321927 Si02
#       4
#     4   8   4   8
#     4  12  23  40  75  96 134 186 216 284 349 400
#     4  12  20  45  70  93 132 188 219 267 357 403
#     4  12  23  42  69 106 130 172 238 288 329 402
#     4  12  25  43  73 101 135 180 235 283 331 405
#
# _framework density 25.561167000000001
#
# number of rings (size 3 to 8) (size 9 to 14) (size 15 to 20)
#    0.000    0.000    8.333    3.000    0.000    0.000 
#    0.000    6.667    7.333    0.000    0.000    0.000 
#    0.000    0.000    0.000    0.000    0.000    0.000 
#
# Total GULP energy -66852.708810 kJ/mol
# GULP energy per Si atom -5571.059067 kJ/mol
# Density = 2.550299 g / cm^3
# Si number density = 25.561167 Si / 1000 Ang^3
#
#
#
# Elastic Constant Matrix: (Units=GPa)
#
#
# Indices 1 2 3 4 5 6 
#
# 1 63.3555 34.2679 -2.1739 0.0000 0.0000 0.0000
# 2 34.2679 172.2829 -7.9417 0.0000 0.0000 0.0000
# 3 -2.1739 -7.9417 40.7491 0.0000 0.0000 0.0000
# 4 0.0000 0.0000 0.0000 19.3678 0.0000 0.0000
# 5 0.0000 0.0000 0.0000 0.0000 38.3856 0.0000
# 6 0.0000 0.0000 0.0000 0.0000 0.0000 63.4449
#
#
#
# Elastic Compliance Matrix: (Units=1/GPa)
#
#
# Indices 1 2 3 4 5 6 
#
# 1 0.017689 -0.003507 0.000260 0.000000 0.000000 0.000000
# 2 -0.003507 0.006552 0.001090 0.000000 0.000000 0.000000
# 3 0.000260 0.001090 0.024767 0.000000 0.000000 0.000000
# 4 0.000000 0.000000 0.000000 0.051632 0.000000 0.000000
# 5 0.000000 0.000000 0.000000 0.000000 0.026051 0.000000
# 6 0.000000 0.000000 0.000000 0.000000 0.000000 0.015762
#
#
# Mechanical properties :
#
#
# Convention : Reuss Voigt Hill
#
# Bulk Modulus (GPa) = 22.37351 36.07689 29.22520
# Shear Modulus (GPa) = 30.92819 41.05533 35.99176
#
# Velocity S-wave (km/s) = 3.48223 4.01204 3.75649
# Velocity P-wave (km/s) = 4.99398 5.96712 5.50211
#
# Compressibility (1/GPa) = 0.04469571
#
# Stress axis : x y z
#
# Youngs Moduli (GPa) = 56.53074 152.62254 40.37673
#
# Poissons Ratio (x) = 0.53517 -0.01051
# Poissons Ratio (y) = 0.19823 -0.04401
# Poissons Ratio (z) = -0.01472 -0.16634
#
# Static dielectric constant tensor:
#      x y z
#    x 2.173450 0.000000 0.000000 
#    y 0.000000 1.902570 0.000000 
#    z 0.000000 0.000000 2.004690 
# 
# From -- ./inp_files/20380.got.cif
#   From: 2010.05.17/outbox.cif.g08.bks.cpg/sg20_11_cif.got.tgz:20380.got - 2010.06.03 22:52:26.
