data_PCOD9321883
_publ_section_title
;
Structure prediction by ZEFSAII (Michael W. Deem and Ramdas Pophale) SiO2 
 PCOD9321883
Probable space group: C 2 2 21
;
_chemical_formula_sum "Si O2"
_cell_formula_units_Z 48
_cell_length_a 24.828194
_cell_length_b 5.916209
_cell_length_c 13.840764
_cell_angle_alpha 90.000000
_cell_angle_beta 90.000000
_cell_angle_gamma 90.000000
_cell_volume 2033.053005
_symmetry_space_group_name_H-M "C 2 2 21"
_symmetry_group_IT_number 20
_symmetry_cell_setting 'orthorhombic'
loop_
_space_group_symop_operation_xyz
x,y,z
-x,-y,1/2+z
x,-y,-z
-x,y,1/2-z
1/2+x,1/2+y,z
1/2-x,1/2-y,1/2+z
1/2+x,1/2-y,-z
1/2-x,1/2+y,1/2-z
loop_
_atom_site_type_symbol
_atom_site_label
_atom_site_fract_x
_atom_site_fract_y
_atom_site_fract_z
Si Si1 0.793544 0.222639 0.651225
Si Si2 0.000000 0.734803 0.750000
Si Si3 0.583905 0.032027 0.383032
Si Si4 0.009356 0.901367 0.396268
Si Si5 0.702519 0.127967 0.367395
Si Si6 0.096384 0.745363 0.050331
Si Si7 0.270011 0.500000 0.000000
O O1 0.789422 0.251745 0.765060
O O2 0.855636 0.216324 0.624543
O O3 0.767107 0.423278 0.588881
O O4 0.757193 0.011881 0.618425
O O5 0.952737 0.608266 0.807719
O O6 0.981164 0.907577 0.667272
O O7 0.563851 0.287250 0.359178
O O8 0.646693 0.990959 0.362451
O O9 0.573925 0.000000 0.500000
O O10 0.963445 0.712219 0.407225
O O11 0.022798 0.000000 0.500000
O O12 0.695444 0.298075 0.456349
O O13 0.107976 0.500000 0.000000
O O14 0.093893 0.000000 0.000000
#
# Coordination Sequence:
#
# PCOD9321883 Si02
#       7
#     8   4   8   8   8   8   4
#     4  12  26  49  75 114 154 204 277 330 419 487
#     4  12  28  48  78 110 156 218 270 340 410 506
#     4  12  27  51  78 115 166 207 277 337 424 497
#     4  11  26  48  76 111 156 208 269 338 412 495
#     4  12  29  47  79 114 155 218 264 345 412 506
#     4  11  26  47  81 113 157 212 265 342 414 480
#     4  12  24  52  76 104 158 200 268 334 414 488
#
# _framework density 23.609812000000002
#
# number of rings (size 3 to 8) (size 9 to 14) (size 15 to 20)
#    0.000    0.333    4.167    3.500    8.167    2.667 
#    0.000    0.000    0.000    0.000    0.000    0.000 
#    0.000    0.000    0.000    0.000    0.000    0.000 
#
# Total GULP energy -133972.876409 kJ/mol
# GULP energy per Si atom -5582.203184 kJ/mol
# Density = 2.355607 g / cm^3
# Si number density = 23.609812 Si / 1000 Ang^3
#
#
#
# Elastic Constant Matrix: (Units=GPa)
#
#
# Indices 1 2 3 4 5 6 
#
# 1 73.1199 12.1091 7.5288 0.0000 0.0000 0.0000
# 2 12.1091 77.7208 35.5749 0.0000 0.0000 0.0000
# 3 7.5288 35.5749 125.3272 0.0000 0.0000 0.0000
# 4 0.0000 0.0000 0.0000 44.2573 0.0000 0.0000
# 5 0.0000 0.0000 0.0000 0.0000 68.5167 0.0000
# 6 0.0000 0.0000 0.0000 0.0000 0.0000 33.5464
#
#
#
# Elastic Compliance Matrix: (Units=1/GPa)
#
#
# Indices 1 2 3 4 5 6 
#
# 1 0.014046 -0.002071 -0.000256 0.000000 0.000000 0.000000
# 2 -0.002071 0.015093 -0.004160 0.000000 0.000000 0.000000
# 3 -0.000256 -0.004160 0.009175 0.000000 0.000000 0.000000
# 4 0.000000 0.000000 0.000000 0.022595 0.000000 0.000000
# 5 0.000000 0.000000 0.000000 0.000000 0.014595 0.000000
# 6 0.000000 0.000000 0.000000 0.000000 0.000000 0.029809
#
#
# Mechanical properties :
#
#
# Convention : Reuss Voigt Hill
#
# Bulk Modulus (GPa) = 39.46293 42.95483 41.20888
# Shear Modulus (GPa) = 39.45255 43.99441 41.72348
#
# Velocity S-wave (km/s) = 4.09225 4.32139 4.20838
# Velocity P-wave (km/s) = 6.25137 6.56752 6.41139
#
# Compressibility (1/GPa) = 0.02534024
#
# Stress axis : x y z
#
# Youngs Moduli (GPa) = 71.19715 66.25420 108.98817
#
# Poissons Ratio (x) = 0.13723 0.02788
# Poissons Ratio (y) = 0.14747 0.45338
# Poissons Ratio (z) = 0.01821 0.27561
#
# Static dielectric constant tensor:
#      x y z
#    x 1.838600 0.000000 0.000000 
#    y 0.000000 1.950150 0.000000 
#    z 0.000000 0.000000 1.893090 
# 
# From -- ./inp_files/22171.got.cif
#   From: 2010.05.17/outbox.cif.g08.bks.cpg/sg20_12_cif.got.tgz:22171.got - 2010.06.03 22:52:26.
