data_PCOD9321712
_publ_section_title
;
Structure prediction by ZEFSAII (Michael W. Deem and Ramdas Pophale) SiO2 
 PCOD9321712
Probable space group: C 2 2 21
;
_chemical_formula_sum "Si O2"
_cell_formula_units_Z 32
_cell_length_a 10.433866
_cell_length_b 10.009686
_cell_length_c 14.998631
_cell_angle_alpha 90.000000
_cell_angle_beta 90.000000
_cell_angle_gamma 90.000000
_cell_volume 1566.452858
_symmetry_space_group_name_H-M "C 2 2 21"
_symmetry_group_IT_number 20
_symmetry_cell_setting 'orthorhombic'
loop_
_space_group_symop_operation_xyz
x,y,z
-x,-y,1/2+z
x,-y,-z
-x,y,1/2-z
1/2+x,1/2+y,z
1/2-x,1/2-y,1/2+z
1/2+x,1/2-y,-z
1/2-x,1/2+y,1/2-z
loop_
_atom_site_type_symbol
_atom_site_label
_atom_site_fract_x
_atom_site_fract_y
_atom_site_fract_z
Si Si1 0.456996 0.927993 0.903327
Si Si2 0.752591 0.374499 0.590422
Si Si3 0.188351 0.154617 0.604859
Si Si4 0.858525 0.655340 0.780778
O O1 0.500000 0.198526 0.750000
O O2 0.412980 0.773876 0.901793
O O3 0.379176 0.012807 0.829821
O O4 0.440210 0.000000 0.000000
O O5 0.652455 0.497474 0.600734
O O6 0.768233 0.333771 0.487099
O O7 0.892037 0.427158 0.619382
O O8 0.701384 0.252717 0.646277
O O9 0.267360 0.165776 0.695441
#
# Coordination Sequence:
#
# PCOD9321712 Si02
#       4
#     8   8   8   8
#     4  12  23  47  72  97 142 187 224 286 347 404
#     4  11  24  47  68  99 142 178 227 291 341 407
#     4  11  24  42  69 102 135 179 233 277 347 410
#     4  12  24  45  72 101 138 183 229 286 341 414
#
# _framework density 20.428321
#
# number of rings (size 3 to 8) (size 9 to 14) (size 15 to 20)
#    0.000    0.500    7.500    1.500    0.000    0.000 
#    9.000    0.000    0.000    0.000    0.000    0.000 
#    0.000    0.000    0.000    0.000    0.000    0.000 
#
# Total GULP energy -89276.789667 kJ/mol
# GULP energy per Si atom -5579.799354 kJ/mol
# Density = 2.038182 g / cm^3
# Si number density = 20.428321 Si / 1000 Ang^3
#
#
#
# Elastic Constant Matrix: (Units=GPa)
#
#
# Indices 1 2 3 4 5 6 
#
# 1 25.0704 34.2848 2.9756 0.0000 0.0000 0.0000
# 2 34.2848 129.5110 35.3166 0.0000 0.0000 0.0000
# 3 2.9756 35.3166 106.9365 0.0000 0.0000 0.0000
# 4 0.0000 0.0000 0.0000 39.8393 0.0000 0.0000
# 5 0.0000 0.0000 0.0000 0.0000 29.9174 0.0000
# 6 0.0000 0.0000 0.0000 0.0000 0.0000 38.9310
#
#
#
# Elastic Compliance Matrix: (Units=1/GPa)
#
#
# Indices 1 2 3 4 5 6 
#
# 1 0.064198 -0.018141 0.004205 0.000000 0.000000 0.000000
# 2 -0.018141 0.013612 -0.003991 0.000000 0.000000 0.000000
# 3 0.004205 -0.003991 0.010552 0.000000 0.000000 0.000000
# 4 0.000000 0.000000 0.000000 0.025101 0.000000 0.000000
# 5 0.000000 0.000000 0.000000 0.000000 0.033425 0.000000
# 6 0.000000 0.000000 0.000000 0.000000 0.000000 0.025686
#
#
# Mechanical properties :
#
#
# Convention : Reuss Voigt Hill
#
# Bulk Modulus (GPa) = 19.04481 45.18577 32.11529
# Shear Modulus (GPa) = 22.13063 34.33361 28.23212
#
# Velocity S-wave (km/s) = 3.29497 4.10407 3.72157
# Velocity P-wave (km/s) = 4.88045 6.68019 5.84995
#
# Compressibility (1/GPa) = 0.05250773
#
# Stress axis : x y z
#
# Youngs Moduli (GPa) = 15.57692 73.46443 94.76620
#
# Poissons Ratio (x) = 1.33274 -0.39849
# Poissons Ratio (y) = 0.28259 0.37818
# Poissons Ratio (z) = -0.06550 0.29317
#
# Static dielectric constant tensor:
#      x y z
#    x 1.688490 0.000000 0.000000 
#    y 0.000000 1.760220 0.000000 
#    z 0.000000 0.000000 1.783000 
# 
# From -- ./inp_files/15499.got.cif
#   From: 2010.05.17/outbox.cif.g08.bks.cpg/sg20_8_cif.got.tgz:15499.got - 2010.06.03 22:52:26.
