data_PCOD9321163
_publ_section_title
;
Structure prediction by ZEFSAII (Michael W. Deem and Ramdas Pophale) SiO2 
 PCOD9321163
Probable space group: C 2 2 21
;
_chemical_formula_sum "Si O2"
_cell_formula_units_Z 20
_cell_length_a 7.301278
_cell_length_b 9.839567
_cell_length_c 11.635623
_cell_angle_alpha 90.000000
_cell_angle_beta 90.000000
_cell_angle_gamma 90.000000
_cell_volume 835.919610
_symmetry_space_group_name_H-M "C 2 2 21"
_symmetry_group_IT_number 20
_symmetry_cell_setting 'orthorhombic'
loop_
_space_group_symop_operation_xyz
x,y,z
-x,-y,1/2+z
x,-y,-z
-x,y,1/2-z
1/2+x,1/2+y,z
1/2-x,1/2-y,1/2+z
1/2+x,1/2-y,-z
1/2-x,1/2+y,1/2-z
loop_
_atom_site_type_symbol
_atom_site_label
_atom_site_fract_x
_atom_site_fract_y
_atom_site_fract_z
Si Si1 0.689972 0.959468 0.379666
Si Si2 0.834824 0.500000 0.500000
Si Si3 0.706456 0.676673 0.295737
O O1 0.482189 0.921191 0.418806
O O2 0.772378 0.830225 0.316169
O O3 0.783166 0.000000 0.500000
O O4 0.686470 0.090243 0.299437
O O5 0.724664 0.598805 0.417271
O O6 0.500000 0.676098 0.250000
#
# Coordination Sequence:
#
# PCOD9321163 Si02
#       3
#     8   4   8
#     4  10  28  46  73 104 149 190 233 298 358 419
#     4  10  26  46  74 100 154 186 232 300 358 412
#     4  12  26  45  75 109 138 195 240 293 352 429
#
# _framework density 23.925744999999999
#
# number of rings (size 3 to 8) (size 9 to 14) (size 15 to 20)
#    1.200    0.000    0.000    3.600   14.000    3.200 
#    0.000    0.000    0.000    0.000    0.000    0.000 
#    0.000    0.000    0.000    0.000    0.000    0.000 
#
# Total GULP energy -55890.426973 kJ/mol
# GULP energy per Si atom -5589.042697 kJ/mol
# Density = 2.387129 g / cm^3
# Si number density = 23.925745 Si / 1000 Ang^3
#
#
#
# Elastic Constant Matrix: (Units=GPa)
#
#
# Indices 1 2 3 4 5 6 
#
# 1 49.8902 11.7537 39.0306 0.0000 0.0000 0.0000
# 2 11.7537 159.6863 104.4414 0.0000 0.0000 0.0000
# 3 39.0306 104.4414 157.3296 0.0000 0.0000 0.0000
# 4 0.0000 0.0000 0.0000 54.0185 0.0000 0.0000
# 5 0.0000 0.0000 0.0000 0.0000 50.5424 0.0000
# 6 0.0000 0.0000 0.0000 0.0000 0.0000 7.2726
#
#
#
# Elastic Compliance Matrix: (Units=1/GPa)
#
#
# Indices 1 2 3 4 5 6 
#
# 1 0.026323 0.004124 -0.009268 0.000000 0.000000 0.000000
# 2 0.004124 0.011714 -0.008799 0.000000 0.000000 0.000000
# 3 -0.009268 -0.008799 0.014497 0.000000 0.000000 0.000000
# 4 0.000000 0.000000 0.000000 0.018512 0.000000 0.000000
# 5 0.000000 0.000000 0.000000 0.000000 0.019785 0.000000
# 6 0.000000 0.000000 0.000000 0.000000 0.000000 0.137502
#
#
# Mechanical properties :
#
#
# Convention : Reuss Voigt Hill
#
# Bulk Modulus (GPa) = 40.57248 75.26197 57.91722
# Shear Modulus (GPa) = 18.90828 36.47872 27.69350
#
# Velocity S-wave (km/s) = 2.81426 3.90893 3.40586
# Velocity P-wave (km/s) = 5.24924 7.20401 6.30287
#
# Compressibility (1/GPa) = 0.02464725
#
# Stress axis : x y z
#
# Youngs Moduli (GPa) = 37.98950 85.36985 68.98193
#
# Poissons Ratio (x) = -0.35208 0.63933
# Poissons Ratio (y) = -0.15668 0.60698
# Poissons Ratio (z) = 0.35209 0.75118
#
# Static dielectric constant tensor:
#      x y z
#    x 1.955650 0.000000 0.000000 
#    y 0.000000 1.877470 0.000000 
#    z 0.000000 0.000000 1.925290 
# 
# From -- ./inp_files/5413.got.cif
#   From: 2010.05.17/outbox.cif.g08.bks.cpg/sg20_3_cif.got.tgz:5413.got - 2010.06.03 22:52:26.
