data_PCOD9321309
_publ_section_title
;
Structure prediction by ZEFSAII (Michael W. Deem and Ramdas Pophale) SiO2 
 PCOD9321309
Probable space group: C 2 2 21
;
_chemical_formula_sum "Si O2"
_cell_formula_units_Z 56
_cell_length_a 8.081010
_cell_length_b 13.566495
_cell_length_c 20.475166
_cell_angle_alpha 90.000000
_cell_angle_beta 90.000000
_cell_angle_gamma 90.000000
_cell_volume 2244.712550
_symmetry_space_group_name_H-M "C 2 2 21"
_symmetry_group_IT_number 20
_symmetry_cell_setting 'orthorhombic'
loop_
_space_group_symop_operation_xyz
x,y,z
-x,-y,1/2+z
x,-y,-z
-x,y,1/2-z
1/2+x,1/2+y,z
1/2-x,1/2-y,1/2+z
1/2+x,1/2-y,-z
1/2-x,1/2+y,1/2-z
loop_
_atom_site_type_symbol
_atom_site_label
_atom_site_fract_x
_atom_site_fract_y
_atom_site_fract_z
Si Si1 0.882719 0.714937 0.572753
Si Si2 0.563534 0.625097 0.354905
Si Si3 0.357699 0.549812 0.655183
Si Si4 0.915691 0.414066 0.885134
Si Si5 0.232930 0.510985 0.926998
Si Si6 0.232681 0.362376 0.476211
Si Si7 0.393074 0.230389 0.311521
O O1 0.917257 0.798786 0.627513
O O2 0.754249 0.626993 0.587469
O O3 0.065746 0.669275 0.561708
O O4 0.827810 0.768633 0.506287
O O5 0.507383 0.521511 0.324584
O O6 0.629583 0.574721 0.422080
O O7 0.713877 0.679634 0.319888
O O8 0.204908 0.474710 0.661818
O O9 0.345492 0.582844 0.577773
O O10 0.360702 0.653403 0.690678
O O11 0.084825 0.474921 0.882039
O O12 0.983706 0.305268 0.869341
O O13 0.831990 0.413131 0.956838
O O14 0.169952 0.500000 0.000000
O O15 0.500000 0.197529 0.250000
#
# Coordination Sequence:
#
# PCOD9321309 Si02
#       7
#     8   8   8   8   8   8   8
#     4  12  23  37  60  95 150 179 224 267 333 420
#     4  11  26  40  64 101 130 178 233 278 341 413
#     4  12  24  43  70 103 139 179 228 282 358 416
#     4  11  22  42  66  96 138 180 220 280 351 413
#     4  11  21  36  57  90 139 182 215 261 330 407
#     4  12  23  38  63 104 148 184 213 277 350 432
#     4  11  27  51  70  94 134 184 244 297 340 403
#
# _framework density 24.947514999999999
#
# number of rings (size 3 to 8) (size 9 to 14) (size 15 to 20)
#    0.000    0.571    5.714    2.143    6.000    1.143 
#    0.000    0.000    0.000    0.000    0.000    0.000 
#    0.000    0.000    0.000    0.000    0.000    0.000 
#
# Total GULP energy -156238.862193 kJ/mol
# GULP energy per Si atom -5579.959364 kJ/mol
# Density = 2.489073 g / cm^3
# Si number density = 24.947515 Si / 1000 Ang^3
#
#
#
# Elastic Constant Matrix: (Units=GPa)
#
#
# Indices 1 2 3 4 5 6 
#
# 1 32.2042 28.6219 -16.3367 0.0000 0.0000 0.0000
# 2 28.6219 164.0952 -3.2785 0.0000 0.0000 0.0000
# 3 -16.3367 -3.2785 23.8457 0.0000 0.0000 0.0000
# 4 0.0000 0.0000 0.0000 2.8730 0.0000 0.0000
# 5 0.0000 0.0000 0.0000 0.0000 11.9514 0.0000
# 6 0.0000 0.0000 0.0000 0.0000 0.0000 43.9283
#
#
#
# Elastic Compliance Matrix: (Units=1/GPa)
#
#
# Indices 1 2 3 4 5 6 
#
# 1 0.059663 -0.009616 0.039553 0.000000 0.000000 0.000000
# 2 -0.009616 0.007661 -0.005535 0.000000 0.000000 0.000000
# 3 0.039553 -0.005535 0.068273 0.000000 0.000000 0.000000
# 4 0.000000 0.000000 0.000000 0.348065 0.000000 0.000000
# 5 0.000000 0.000000 0.000000 0.000000 0.083672 0.000000
# 6 0.000000 0.000000 0.000000 0.000000 0.000000 0.022764
#
#
# Mechanical properties :
#
#
# Convention : Reuss Voigt Hill
#
# Bulk Modulus (GPa) = 5.42295 26.46208 15.94251
# Shear Modulus (GPa) = 8.29515 25.82644 17.06079
#
# Velocity S-wave (km/s) = 1.82545 3.22099 2.61792
# Velocity P-wave (km/s) = 2.57322 4.94603 3.94238
#
# Compressibility (1/GPa) = 0.18440164
#
# Stress axis : x y z
#
# Youngs Moduli (GPa) = 16.76068 130.53528 14.64698
#
# Poissons Ratio (x) = 1.25528 -0.57934
# Poissons Ratio (y) = 0.16118 0.08107
# Poissons Ratio (z) = -0.66294 0.72251
#
# Static dielectric constant tensor:
#      x y z
#    x 2.031030 0.000000 0.000000 
#    y 0.000000 2.087460 0.000000 
#    z 0.000000 0.000000 2.044610 
# 
# From -- ./inp_files/26754.got.cif
#   From: 2010.05.17/outbox.cif.g08.bks.cpg/sg20_14_cif.got.tgz:26754.got - 2010.06.03 22:52:26.
