data_PCOD9321635
_publ_section_title
;
Structure prediction by ZEFSAII (Michael W. Deem and Ramdas Pophale) SiO2 
 PCOD9321635
Probable space group: C 2 2 21
;
_chemical_formula_sum "Si O2"
_cell_formula_units_Z 36
_cell_length_a 8.989646
_cell_length_b 19.469857
_cell_length_c 9.045855
_cell_angle_alpha 90.000000
_cell_angle_beta 90.000000
_cell_angle_gamma 90.000000
_cell_volume 1583.269968
_symmetry_space_group_name_H-M "C 2 2 21"
_symmetry_group_IT_number 20
_symmetry_cell_setting 'orthorhombic'
loop_
_space_group_symop_operation_xyz
x,y,z
-x,-y,1/2+z
x,-y,-z
-x,y,1/2-z
1/2+x,1/2+y,z
1/2-x,1/2-y,1/2+z
1/2+x,1/2-y,-z
1/2-x,1/2+y,1/2-z
loop_
_atom_site_type_symbol
_atom_site_label
_atom_site_fract_x
_atom_site_fract_y
_atom_site_fract_z
Si Si1 0.391567 0.000000 0.500000
Si Si2 0.650486 0.586859 0.660874
Si Si3 0.651554 0.643392 0.334118
Si Si4 0.661196 0.199666 0.668634
Si Si5 0.400286 0.120714 0.127907
O O1 0.284128 0.032842 0.626104
O O2 0.499878 0.058665 0.435083
O O3 0.500000 0.564981 0.750000
O O4 0.620097 0.611413 0.493373
O O5 0.723085 0.651192 0.746231
O O6 0.500000 0.649718 0.250000
O O7 0.710010 0.721488 0.346587
O O8 0.757437 0.601110 0.224187
O O9 0.500000 0.195731 0.750000
O O10 0.643185 0.168460 0.506389
O O11 0.500000 0.158322 0.250000
#
# Coordination Sequence:
#
# PCOD9321635 Si02
#       5
#     4   8   8   8   8
#     4  12  28  50  78 114 152 208 274 300 384 472
#     4  12  27  48  72 110 153 195 258 322 384 449
#     4  11  25  46  72 114 154 194 250 317 391 453
#     4  11  23  44  76 111 151 195 249 313 389 464
#     4  12  25  46  78 104 151 200 256 314 367 460
#
# _framework density 22.737753000000001
#
# number of rings (size 3 to 8) (size 9 to 14) (size 15 to 20)
#    0.000    0.444    4.444    2.667    3.111    8.000 
#    4.000    0.000    0.000    0.000    0.000    0.000 
#    0.000    0.000    0.000    0.000    0.000    0.000 
#
# Total GULP energy -100615.999240 kJ/mol
# GULP energy per Si atom -5589.777736 kJ/mol
# Density = 2.268600 g / cm^3
# Si number density = 22.737753 Si / 1000 Ang^3
#
#
#
# Elastic Constant Matrix: (Units=GPa)
#
#
# Indices 1 2 3 4 5 6 
#
# 1 122.1409 59.9003 56.0978 0.0000 0.0000 0.0000
# 2 59.9003 120.3512 56.5571 0.0000 0.0000 0.0000
# 3 56.0978 56.5571 177.2719 0.0000 0.0000 0.0000
# 4 0.0000 0.0000 0.0000 9.4429 0.0000 0.0000
# 5 0.0000 0.0000 0.0000 0.0000 53.9209 0.0000
# 6 0.0000 0.0000 0.0000 0.0000 0.0000 58.2646
#
#
#
# Elastic Compliance Matrix: (Units=1/GPa)
#
#
# Indices 1 2 3 4 5 6 
#
# 1 0.011475 -0.004711 -0.002128 0.000000 0.000000 0.000000
# 2 -0.004711 0.011709 -0.002245 0.000000 0.000000 0.000000
# 3 -0.002128 -0.002245 0.007031 0.000000 0.000000 0.000000
# 4 0.000000 0.000000 0.000000 0.105900 0.000000 0.000000
# 5 0.000000 0.000000 0.000000 0.000000 0.018546 0.000000
# 6 0.000000 0.000000 0.000000 0.000000 0.000000 0.017163
#
#
# Mechanical properties :
#
#
# Convention : Reuss Voigt Hill
#
# Bulk Modulus (GPa) = 83.01329 84.98604 83.99966
# Shear Modulus (GPa) = 25.77222 40.80626 33.28924
#
# Velocity S-wave (km/s) = 3.37033 4.24092 3.83044
# Velocity P-wave (km/s) = 7.19262 7.83826 7.52237
#
# Compressibility (1/GPa) = 0.01204626
#
# Stress axis : x y z
#
# Youngs Moduli (GPa) = 87.14428 85.40649 142.23342
#
# Poissons Ratio (x) = 0.40237 0.30271
# Poissons Ratio (y) = 0.41056 0.31927
# Poissons Ratio (z) = 0.18547 0.19171
#
# Static dielectric constant tensor:
#      x y z
#    x 1.890550 0.000000 0.000000 
#    y 0.000000 1.871940 0.000000 
#    z 0.000000 0.000000 1.742740 
# 
# From -- ./inp_files/5915.got.cif
#   From: 2010.05.17/outbox.cif.g08.bks.cpg/sg20_3_cif.got.tgz:5915.got - 2010.06.03 22:52:26.
