data_PCOD9321270
_publ_section_title
;
Structure prediction by ZEFSAII (Michael W. Deem and Ramdas Pophale) SiO2 
 PCOD9321270
Probable space group: C 2 2 21
;
_chemical_formula_sum "Si O2"
_cell_formula_units_Z 48
_cell_length_a 16.274319
_cell_length_b 8.693124
_cell_length_c 17.099702
_cell_angle_alpha 90.000000
_cell_angle_beta 90.000000
_cell_angle_gamma 90.000000
_cell_volume 2419.174750
_symmetry_space_group_name_H-M "C 2 2 21"
_symmetry_group_IT_number 20
_symmetry_cell_setting 'orthorhombic'
loop_
_space_group_symop_operation_xyz
x,y,z
-x,-y,1/2+z
x,-y,-z
-x,y,1/2-z
1/2+x,1/2+y,z
1/2-x,1/2-y,1/2+z
1/2+x,1/2-y,-z
1/2-x,1/2+y,1/2-z
loop_
_atom_site_type_symbol
_atom_site_label
_atom_site_fract_x
_atom_site_fract_y
_atom_site_fract_z
Si Si1 0.856601 0.084098 0.922245
Si Si2 0.749912 0.667894 0.336812
Si Si3 0.275051 0.644474 0.444547
Si Si4 0.469312 0.822553 0.840272
Si Si5 0.813039 0.497395 0.192290
Si Si6 0.883276 0.331010 0.535795
O O1 0.789398 0.212807 0.948972
O O2 0.920649 0.170698 0.867166
O O3 0.812465 0.955767 0.870763
O O4 0.889893 0.000000 0.000000
O O5 0.806915 0.581437 0.274772
O O6 0.705158 0.817602 0.303580
O O7 0.809047 0.715625 0.407113
O O8 0.253861 0.500000 0.500000
O O9 0.259048 0.576552 0.358737
O O10 0.365640 0.709583 0.465758
O O11 0.500000 0.814344 0.750000
O O12 0.538109 0.837217 0.907722
O O13 0.401371 0.959274 0.843990
O O14 0.871807 0.500000 0.500000
#
# Coordination Sequence:
#
# PCOD9321270 Si02
#       6
#     8   8   8   8   8   8
#     4  11  22  42  68  97 131 173 222 276 326 397
#     4  12  22  43  73  98 126 177 226 278 321 404
#     4  11  20  38  66  98 126 167 226 267 315 397
#     4  11  26  44  64  96 144 177 216 278 355 403
#     4  11  24  40  71  97 132 173 225 275 334 403
#     4  12  24  43  67  96 138 173 223 280 337 398
#
# _framework density 19.841477000000001
#
# number of rings (size 3 to 8) (size 9 to 14) (size 15 to 20)
#    0.000    0.667    6.667    2.000    0.000    4.667 
#    0.000    0.833    0.000    0.000    0.000    0.000 
#    0.000    0.000    0.000    0.000    0.000    0.000 
#
# Total GULP energy -133861.342006 kJ/mol
# GULP energy per Si atom -5577.555917 kJ/mol
# Density = 1.979632 g / cm^3
# Si number density = 19.841477 Si / 1000 Ang^3
#
#
#
# Elastic Constant Matrix: (Units=GPa)
#
#
# Indices 1 2 3 4 5 6 
#
# 1 79.0210 41.8771 21.1379 0.0000 0.0000 0.0000
# 2 41.8771 126.9678 19.9918 0.0000 0.0000 0.0000
# 3 21.1379 19.9918 57.0539 0.0000 0.0000 0.0000
# 4 0.0000 0.0000 0.0000 32.2873 0.0000 0.0000
# 5 0.0000 0.0000 0.0000 0.0000 40.6275 0.0000
# 6 0.0000 0.0000 0.0000 0.0000 0.0000 12.6843
#
#
#
# Elastic Compliance Matrix: (Units=1/GPa)
#
#
# Indices 1 2 3 4 5 6 
#
# 1 0.016317 -0.004689 -0.004402 0.000000 0.000000 0.000000
# 2 -0.004689 0.009683 -0.001656 0.000000 0.000000 0.000000
# 3 -0.004402 -0.001656 0.019739 0.000000 0.000000 0.000000
# 4 0.000000 0.000000 0.000000 0.030972 0.000000 0.000000
# 5 0.000000 0.000000 0.000000 0.000000 0.024614 0.000000
# 6 0.000000 0.000000 0.000000 0.000000 0.000000 0.078838
#
#
# Mechanical properties :
#
#
# Convention : Reuss Voigt Hill
#
# Bulk Modulus (GPa) = 41.24566 47.67292 44.45929
# Shear Modulus (GPa) = 23.83926 29.12221 26.48073
#
# Velocity S-wave (km/s) = 3.47001 3.83527 3.65720
# Velocity P-wave (km/s) = 6.07349 6.60995 6.34739
#
# Compressibility (1/GPa) = 0.02424498
#
# Stress axis : x y z
#
# Youngs Moduli (GPa) = 61.28487 103.27191 50.66221
#
# Poissons Ratio (x) = 0.48420 0.22304
# Poissons Ratio (y) = 0.28734 0.08389
# Poissons Ratio (z) = 0.26980 0.17101
#
# Static dielectric constant tensor:
#      x y z
#    x 1.722140 0.000000 0.000000 
#    y 0.000000 1.691410 0.000000 
#    z 0.000000 0.000000 1.764980 
# 
# From -- ./inp_files/21285.got.cif
#   From: 2010.05.17/outbox.cif.g08.bks.cpg/sg20_11_cif.got.tgz:21285.got - 2010.06.03 22:52:26.
