data_PCOD9321895
_publ_section_title
;
Structure prediction by ZEFSAII (Michael W. Deem and Ramdas Pophale) SiO2 
 PCOD9321895
Probable space group: C 2 2 21
;
_chemical_formula_sum "Si O2"
_cell_formula_units_Z 20
_cell_length_a 9.216355
_cell_length_b 11.009838
_cell_length_c 7.497740
_cell_angle_alpha 90.000000
_cell_angle_beta 90.000000
_cell_angle_gamma 90.000000
_cell_volume 760.799993
_symmetry_space_group_name_H-M "C 2 2 21"
_symmetry_group_IT_number 20
_symmetry_cell_setting 'orthorhombic'
loop_
_space_group_symop_operation_xyz
x,y,z
-x,-y,1/2+z
x,-y,-z
-x,y,1/2-z
1/2+x,1/2+y,z
1/2-x,1/2-y,1/2+z
1/2+x,1/2-y,-z
1/2-x,1/2+y,1/2-z
loop_
_atom_site_type_symbol
_atom_site_label
_atom_site_fract_x
_atom_site_fract_y
_atom_site_fract_z
Si Si1 0.675453 0.500000 0.000000
Si Si2 0.982631 0.237864 0.998750
Si Si3 0.711967 0.151078 0.201057
O O1 0.574124 0.384175 0.025324
O O2 0.763945 0.529540 0.181311
O O3 0.869417 0.263710 0.841217
O O4 0.102020 0.345326 0.967744
O O5 0.867733 0.209955 0.155889
#
# Coordination Sequence:
#
# PCOD9321895 Si02
#       3
#     4   8   8
#     4  12  26  50  84 114 166 228 262 348 434 478
#     4  11  26  49  83 120 169 212 281 345 408 508
#     4  11  26  49  82 121 163 216 280 338 415 498
#
# _framework density 26.288118999999998
#
# number of rings (size 3 to 8) (size 9 to 14) (size 15 to 20)
#    0.000    0.800    4.000    1.200   11.200    0.000 
#    0.000   16.000    0.000    0.000    0.000    0.000 
#    0.000    0.000    0.000    0.000    0.000    0.000 
#
# Total GULP energy -55783.729861 kJ/mol
# GULP energy per Si atom -5578.372986 kJ/mol
# Density = 2.622829 g / cm^3
# Si number density = 26.288119 Si / 1000 Ang^3
#
#
#
# Elastic Constant Matrix: (Units=GPa)
#
#
# Indices 1 2 3 4 5 6 
#
# 1 218.7961 55.1041 72.0020 0.0000 0.0000 0.0000
# 2 55.1041 115.0596 49.0447 0.0000 0.0000 0.0000
# 3 72.0020 49.0447 92.2586 0.0000 0.0000 0.0000
# 4 0.0000 0.0000 0.0000 63.0569 0.0000 0.0000
# 5 0.0000 0.0000 0.0000 0.0000 93.2363 0.0000
# 6 0.0000 0.0000 0.0000 0.0000 0.0000 35.5598
#
#
#
# Elastic Compliance Matrix: (Units=1/GPa)
#
#
# Indices 1 2 3 4 5 6 
#
# 1 0.006273 -0.001186 -0.004265 0.000000 0.000000 0.000000
# 2 -0.001186 0.011462 -0.005167 0.000000 0.000000 0.000000
# 3 -0.004265 -0.005167 0.016915 0.000000 0.000000 0.000000
# 4 0.000000 0.000000 0.000000 0.015859 0.000000 0.000000
# 5 0.000000 0.000000 0.000000 0.000000 0.010725 0.000000
# 6 0.000000 0.000000 0.000000 0.000000 0.000000 0.028122
#
#
# Mechanical properties :
#
#
# Convention : Reuss Voigt Hill
#
# Bulk Modulus (GPa) = 74.55886 86.49064 80.52475
# Shear Modulus (GPa) = 43.45464 55.03482 49.24473
#
# Velocity S-wave (km/s) = 4.07014 4.58047 4.33282
# Velocity P-wave (km/s) = 7.10717 7.80684 7.46520
#
# Compressibility (1/GPa) = 0.01341222
#
# Stress axis : x y z
#
# Youngs Moduli (GPa) = 159.42091 87.24593 59.12076
#
# Poissons Ratio (x) = 0.10349 0.25214
# Poissons Ratio (y) = 0.18910 0.30550
# Poissons Ratio (z) = 0.67991 0.45083
#
# Static dielectric constant tensor:
#      x y z
#    x 2.097060 0.000000 0.000000 
#    y 0.000000 2.208420 0.000000 
#    z 0.000000 0.000000 2.421720 
# 
# From -- ./inp_files/5366.got.cif
#   From: 2010.05.17/outbox.cif.g08.bks.cpg/sg20_3_cif.got.tgz:5366.got - 2010.06.03 22:52:26.
