data_PCOD9321859
_publ_section_title
;
Structure prediction by ZEFSAII (Michael W. Deem and Ramdas Pophale) SiO2 
 PCOD9321859
Probable space group: C 2 2 21
;
_chemical_formula_sum "Si O2"
_cell_formula_units_Z 60
_cell_length_a 10.513108
_cell_length_b 9.083143
_cell_length_c 25.048937
_cell_angle_alpha 90.000000
_cell_angle_beta 90.000000
_cell_angle_gamma 90.000000
_cell_volume 2391.974679
_symmetry_space_group_name_H-M "C 2 2 21"
_symmetry_group_IT_number 20
_symmetry_cell_setting 'orthorhombic'
loop_
_space_group_symop_operation_xyz
x,y,z
-x,-y,1/2+z
x,-y,-z
-x,y,1/2-z
1/2+x,1/2+y,z
1/2-x,1/2-y,1/2+z
1/2+x,1/2-y,-z
1/2-x,1/2+y,1/2-z
loop_
_atom_site_type_symbol
_atom_site_label
_atom_site_fract_x
_atom_site_fract_y
_atom_site_fract_z
Si Si1 0.781846 0.185660 0.693232
Si Si2 0.128742 0.576117 0.442916
Si Si3 0.072135 0.000000 0.000000
Si Si4 0.876829 0.053645 0.094814
Si Si5 0.353013 0.603924 0.262261
Si Si6 0.544786 0.850776 0.357152
Si Si7 0.268133 0.783803 0.366999
Si Si8 0.862456 0.741475 0.426524
O O1 0.749545 0.343495 0.718236
O O2 0.638050 0.114912 0.691481
O O3 0.844559 0.200958 0.634693
O O4 0.856417 0.070507 0.728776
O O5 0.128033 0.500000 0.500000
O O6 0.112386 0.439602 0.403629
O O7 0.242304 0.676693 0.417997
O O8 0.000843 0.672726 0.436359
O O9 0.978424 0.042323 0.048030
O O10 0.148346 0.867705 0.028494
O O11 0.934427 0.177654 0.133027
O O12 0.748099 0.119792 0.069009
O O13 0.843285 0.904779 0.126547
O O14 0.500000 0.649952 0.250000
O O15 0.293434 0.680743 0.315611
O O16 0.397255 0.879115 0.363689
#
# Coordination Sequence:
#
# PCOD9321859 Si02
#       8
#     8   8   4   8   8   8   8   8
#     4  11  28  52  82 120 160 213 278 339 424 485
#     4  12  26  51  77 117 162 217 268 333 419 493
#     4  12  26  48  74 114 160 214 264 326 422 486
#     4  11  27  46  75 112 156 210 264 330 405 483
#     4  12  28  51  85 120 160 220 274 348 426 494
#     4  11  25  49  73 113 160 203 265 337 398 489
#     4  12  26  50  81 112 161 204 277 344 403 493
#     4  11  27  51  79 118 164 208 279 341 404 506
#
# _framework density 25.083876
#
# number of rings (size 3 to 8) (size 9 to 14) (size 15 to 20)
#    0.000    0.533    5.333    0.800    6.533    2.133 
#   15.600    0.000    0.000    0.000    0.000    0.000 
#    0.000    0.000    0.000    0.000    0.000    0.000 
#
# Total GULP energy -167616.712658 kJ/mol
# GULP energy per Si atom -5587.223755 kJ/mol
# Density = 2.502678 g / cm^3
# Si number density = 25.083876 Si / 1000 Ang^3
#
#
#
# Elastic Constant Matrix: (Units=GPa)
#
#
# Indices 1 2 3 4 5 6 
#
# 1 135.1538 26.1981 39.7677 0.0000 0.0000 0.0000
# 2 26.1981 104.8886 42.0672 0.0000 0.0000 0.0000
# 3 39.7677 42.0672 100.8416 0.0000 0.0000 0.0000
# 4 0.0000 0.0000 0.0000 40.1843 0.0000 0.0000
# 5 0.0000 0.0000 0.0000 0.0000 40.0416 0.0000
# 6 0.0000 0.0000 0.0000 0.0000 0.0000 23.4027
#
#
#
# Elastic Compliance Matrix: (Units=1/GPa)
#
#
# Indices 1 2 3 4 5 6 
#
# 1 0.008445 -0.000929 -0.002943 0.000000 0.000000 0.000000
# 2 -0.000929 0.011552 -0.004453 0.000000 0.000000 0.000000
# 3 -0.002943 -0.004453 0.012934 0.000000 0.000000 0.000000
# 4 0.000000 0.000000 0.000000 0.024885 0.000000 0.000000
# 5 0.000000 0.000000 0.000000 0.000000 0.024974 0.000000
# 6 0.000000 0.000000 0.000000 0.000000 0.000000 0.042730
#
#
# Mechanical properties :
#
#
# Convention : Reuss Voigt Hill
#
# Bulk Modulus (GPa) = 61.41600 61.88336 61.64968
# Shear Modulus (GPa) = 33.87606 36.24913 35.06259
#
# Velocity S-wave (km/s) = 3.67892 3.80559 3.74279
# Velocity P-wave (km/s) = 6.52559 6.63583 6.58094
#
# Compressibility (1/GPa) = 0.01628240
#
# Stress axis : x y z
#
# Youngs Moduli (GPa) = 118.41401 86.56706 77.31273
#
# Poissons Ratio (x) = 0.08043 0.22751
# Poissons Ratio (y) = 0.11001 0.34424
# Poissons Ratio (z) = 0.34847 0.38544
#
# Static dielectric constant tensor:
#      x y z
#    x 2.059700 0.000000 0.000000 
#    y 0.000000 2.021280 0.000000 
#    z 0.000000 0.000000 2.037020 
# 
# From -- ./inp_files/30315.got.cif
#   From: 2010.05.17/outbox.cif.g08.bks.cpg/sg20_16_cif.got.tgz:30315.got - 2010.06.03 22:52:26.
