data_PCOD9321967
_publ_section_title
;
Structure prediction by ZEFSAII (Michael W. Deem and Ramdas Pophale) SiO2 
 PCOD9321967
Probable space group: C 2 2 21
;
_chemical_formula_sum "Si O2"
_cell_formula_units_Z 40
_cell_length_a 14.366611
_cell_length_b 15.709386
_cell_length_c 7.795164
_cell_angle_alpha 90.000000
_cell_angle_beta 90.000000
_cell_angle_gamma 90.000000
_cell_volume 1759.295534
_symmetry_space_group_name_H-M "C 2 2 21"
_symmetry_group_IT_number 20
_symmetry_cell_setting 'orthorhombic'
loop_
_space_group_symop_operation_xyz
x,y,z
-x,-y,1/2+z
x,-y,-z
-x,y,1/2-z
1/2+x,1/2+y,z
1/2-x,1/2-y,1/2+z
1/2+x,1/2-y,-z
1/2-x,1/2+y,1/2-z
loop_
_atom_site_type_symbol
_atom_site_label
_atom_site_fract_x
_atom_site_fract_y
_atom_site_fract_z
Si Si1 0.180624 0.483716 0.317900
Si Si2 0.640328 0.226147 0.069572
Si Si3 0.656665 0.681449 0.570550
Si Si4 0.598476 0.198153 0.712546
Si Si5 0.186621 0.000000 0.500000
Si Si6 0.500000 0.095903 0.250000
O O1 0.227495 0.500000 0.500000
O O2 0.165490 0.382737 0.298156
O O3 0.082559 0.535473 0.322293
O O4 0.244648 0.512633 0.161945
O O5 0.651122 0.288171 0.232209
O O6 0.562767 0.156249 0.125778
O O7 0.742362 0.189354 0.023031
O O8 0.615300 0.258167 0.878098
O O9 0.598822 0.748813 0.460183
O O10 0.628695 0.584277 0.542915
O O11 0.500000 0.156771 0.750000
#
# Coordination Sequence:
#
# PCOD9321967 Si02
#       6
#     8   8   8   8   4   4
#     4  12  23  38  66 104 144 173 211 283 361 415
#     4  12  23  43  65 100 142 179 223 280 349 425
#     4  12  25  42  68  94 137 192 229 280 342 414
#     4  12  25  43  71 101 137 183 227 285 354 416
#     4  12  26  44  64  98 140 182 236 282 328 418
#     4  12  24  38  70 106 140 172 222 284 358 430
#
# _framework density 22.736373
#
# number of rings (size 3 to 8) (size 9 to 14) (size 15 to 20)
#    0.000    0.000    7.000    3.600    1.400    1.600 
#    0.000    0.000    6.600    0.000    0.000    0.000 
#    0.000    0.000    0.000    0.000    0.000    0.000 
#
# Total GULP energy -111637.525493 kJ/mol
# GULP energy per Si atom -5581.876275 kJ/mol
# Density = 2.268462 g / cm^3
# Si number density = 22.736373 Si / 1000 Ang^3
#
#
#
# Elastic Constant Matrix: (Units=GPa)
#
#
# Indices 1 2 3 4 5 6 
#
# 1 37.6924 11.0236 5.0039 0.0000 0.0000 0.0000
# 2 11.0236 125.0238 57.5969 0.0000 0.0000 0.0000
# 3 5.0039 57.5969 193.4186 0.0000 0.0000 0.0000
# 4 0.0000 0.0000 0.0000 12.7021 0.0000 0.0000
# 5 0.0000 0.0000 0.0000 0.0000 11.8818 0.0000
# 6 0.0000 0.0000 0.0000 0.0000 0.0000 39.7226
#
#
#
# Elastic Compliance Matrix: (Units=1/GPa)
#
#
# Indices 1 2 3 4 5 6 
#
# 1 0.027233 -0.002407 0.000012 0.000000 0.000000 0.000000
# 2 -0.002407 0.009483 -0.002762 0.000000 0.000000 0.000000
# 3 0.000012 -0.002762 0.005992 0.000000 0.000000 0.000000
# 4 0.000000 0.000000 0.000000 0.078727 0.000000 0.000000
# 5 0.000000 0.000000 0.000000 0.000000 0.084162 0.000000
# 6 0.000000 0.000000 0.000000 0.000000 0.000000 0.025175
#
#
# Mechanical properties :
#
#
# Convention : Reuss Voigt Hill
#
# Bulk Modulus (GPa) = 30.86848 55.93151 43.40000
# Shear Modulus (GPa) = 19.85051 31.69534 25.77292
#
# Velocity S-wave (km/s) = 2.95799 3.73773 3.37048
# Velocity P-wave (km/s) = 5.02717 6.57882 5.85463
#
# Compressibility (1/GPa) = 0.03239550
#
# Stress axis : x y z
#
# Youngs Moduli (GPa) = 36.72038 105.45279 166.88427
#
# Poissons Ratio (x) = 0.25380 -0.00203
# Poissons Ratio (y) = 0.08838 0.46087
# Poissons Ratio (z) = -0.00045 0.29122
#
# Static dielectric constant tensor:
#      x y z
#    x 1.905050 0.000000 0.000000 
#    y 0.000000 1.848760 0.000000 
#    z 0.000000 0.000000 1.868760 
# 
# From -- ./inp_files/8150.got.cif
#   From: 2010.05.17/outbox.cif.g08.bks.cpg/sg20_5_cif.got.tgz:8150.got - 2010.06.03 22:52:26.
