data_PCOD9321041
_publ_section_title
;
Structure prediction by ZEFSAII (Michael W. Deem and Ramdas Pophale) SiO2 
 PCOD9321041
Probable space group: C 2 2 21
;
_chemical_formula_sum "Si O2"
_cell_formula_units_Z 28
_cell_length_a 25.818922
_cell_length_b 5.375592
_cell_length_c 7.838788
_cell_angle_alpha 90.000000
_cell_angle_beta 90.000000
_cell_angle_gamma 90.000000
_cell_volume 1087.960990
_symmetry_space_group_name_H-M "C 2 2 21"
_symmetry_group_IT_number 20
_symmetry_cell_setting 'orthorhombic'
loop_
_space_group_symop_operation_xyz
x,y,z
-x,-y,1/2+z
x,-y,-z
-x,y,1/2-z
1/2+x,1/2+y,z
1/2-x,1/2-y,1/2+z
1/2+x,1/2-y,-z
1/2-x,1/2+y,1/2-z
loop_
_atom_site_type_symbol
_atom_site_label
_atom_site_fract_x
_atom_site_fract_y
_atom_site_fract_z
Si Si1 0.580520 0.500000 0.000000
Si Si2 0.082712 0.000000 0.500000
Si Si3 0.744268 0.500000 0.000000
Si Si4 0.319352 0.295395 0.198555
Si Si5 0.356432 0.000000 0.500000
Si Si6 0.000000 0.070552 0.250000
O O1 0.612077 0.252347 0.962031
O O2 0.540451 0.414017 0.143465
O O3 0.124405 0.129282 0.627283
O O4 0.042318 0.174893 0.389613
O O5 0.708984 0.523899 0.832363
O O6 0.782894 0.274433 0.958749
O O7 0.326113 0.060329 0.326350
#
# Coordination Sequence:
#
# PCOD9321041 Si02
#       6
#     4   4   4   8   4   4
#     4  11  25  48  74 115 156 213 264 331 389 494
#     4  11  24  46  80 114 164 213 267 338 403 480
#     4  12  27  47  73 118 154 210 270 331 400 490
#     4  12  26  46  79 112 164 209 269 333 409 474
#     4  12  26  47  79 111 162 212 259 328 408 478
#     4  10  24  48  76 118 160 206 278 326 408 482
#
# _framework density 25.736219999999999
#
# number of rings (size 3 to 8) (size 9 to 14) (size 15 to 20)
#    0.000    0.571    2.857    4.286    4.000    1.143 
#    0.000    0.000    0.000    0.000    0.000    0.000 
#    0.000    0.000    0.000    0.000    0.000    0.000 
#
# Total GULP energy -77976.338552 kJ/mol
# GULP energy per Si atom -5569.738468 kJ/mol
# Density = 2.567764 g / cm^3
# Si number density = 25.736220 Si / 1000 Ang^3
#
#
#
# Elastic Constant Matrix: (Units=GPa)
#
#
# Indices 1 2 3 4 5 6 
#
# 1 202.0031 62.0170 81.3057 0.0000 0.0000 0.0000
# 2 62.0170 95.4687 16.3808 0.0000 0.0000 0.0000
# 3 81.3057 16.3808 135.4468 0.0000 0.0000 0.0000
# 4 0.0000 0.0000 0.0000 38.9906 0.0000 0.0000
# 5 0.0000 0.0000 0.0000 0.0000 82.7690 0.0000
# 6 0.0000 0.0000 0.0000 0.0000 0.0000 628.5084
#
#
#
# Elastic Compliance Matrix: (Units=1/GPa)
#
#
# Indices 1 2 3 4 5 6 
#
# 1 0.008060 -0.004499 -0.004294 0.000000 0.000000 0.000000
# 2 -0.004499 0.013208 0.001103 0.000000 0.000000 0.000000
# 3 -0.004294 0.001103 0.009827 0.000000 0.000000 0.000000
# 4 0.000000 0.000000 0.000000 0.025647 0.000000 0.000000
# 5 0.000000 0.000000 0.000000 0.000000 0.012082 0.000000
# 6 0.000000 0.000000 0.000000 0.000000 0.000000 0.001591
#
#
# Mechanical properties :
#
#
# Convention : Reuss Voigt Hill
#
# Bulk Modulus (GPa) = 63.63165 83.59174 73.61169
# Shear Modulus (GPa) = 54.92475 168.26793 111.59634
#
# Velocity S-wave (km/s) = 4.62469 8.09467 6.59210
# Velocity P-wave (km/s) = 7.30036 10.95060 9.30620
#
# Compressibility (1/GPa) = 0.01571545
#
# Stress axis : x y z
#
# Youngs Moduli (GPa) = 124.06830 75.71198 101.75803
#
# Poissons Ratio (x) = 0.34063 0.43697
# Poissons Ratio (y) = 0.55819 -0.11227
# Poissons Ratio (z) = 0.53277 -0.08354
#
# Static dielectric constant tensor:
#      x y z
#    x 2.018540 0.000000 0.000000 
#    y 0.000000 2.022630 0.000000 
#    z 0.000000 0.000000 2.252180 
# 
# From -- ./inp_files/5095.got.cif
#   From: 2010.05.17/outbox.cif.g08.bks.cpg/sg20_3_cif.got.tgz:5095.got - 2010.06.03 22:52:26.
