data_PCOD9321757
_publ_section_title
;
Structure prediction by ZEFSAII (Michael W. Deem and Ramdas Pophale) SiO2 
 PCOD9321757
Probable space group: C 2 2 21
;
_chemical_formula_sum "Si O2"
_cell_formula_units_Z 44
_cell_length_a 21.512758
_cell_length_b 11.203164
_cell_length_c 8.799423
_cell_angle_alpha 90.000000
_cell_angle_beta 90.000000
_cell_angle_gamma 90.000000
_cell_volume 2120.757349
_symmetry_space_group_name_H-M "C 2 2 21"
_symmetry_group_IT_number 20
_symmetry_cell_setting 'orthorhombic'
loop_
_space_group_symop_operation_xyz
x,y,z
-x,-y,1/2+z
x,-y,-z
-x,y,1/2-z
1/2+x,1/2+y,z
1/2-x,1/2-y,1/2+z
1/2+x,1/2-y,-z
1/2-x,1/2+y,1/2-z
loop_
_atom_site_type_symbol
_atom_site_label
_atom_site_fract_x
_atom_site_fract_y
_atom_site_fract_z
Si Si1 0.836818 0.079410 0.346709
Si Si2 0.080242 0.671942 0.428326
Si Si3 0.300563 0.962276 0.824288
Si Si4 0.618300 0.158471 0.788006
Si Si5 0.027856 0.500000 0.000000
Si Si6 0.062012 0.058463 0.660193
O O1 0.766104 0.092306 0.285546
O O2 0.866843 0.211473 0.357140
O O3 0.836969 0.000000 0.500000
O O4 0.878190 0.001229 0.234449
O O5 0.138500 0.620303 0.333365
O O6 0.096090 0.673840 0.611001
O O7 0.020001 0.588699 0.415560
O O8 0.068344 0.801591 0.364458
O O9 0.319851 0.076707 0.725221
O O10 0.294382 0.000000 0.000000
O O11 0.569588 0.082658 0.888904
O O12 0.000000 0.030281 0.750000
O O13 0.053513 0.000000 0.500000
#
# Coordination Sequence:
#
# PCOD9321757 Si02
#       6
#     8   8   8   8   4   8
#     4  11  26  49  72 104 148 186 237 299 354 436
#     4  11  24  45  72 101 144 179 238 297 358 424
#     4   9  22  46  70 100 135 188 233 293 357 411
#     4  11  24  46  70 106 141 185 239 296 355 426
#     4  12  26  42  72 102 138 188 238 302 354 412
#     4  12  28  45  72 105 142 191 234 288 366 433
#
# _framework density 20.747305000000001
#
# number of rings (size 3 to 8) (size 9 to 14) (size 15 to 20)
#    0.000    1.091    4.545    1.091   10.182    0.000 
#    8.182    0.000    0.000    0.000    0.000    0.000 
#    0.000    0.000    0.000    0.000    0.000    0.000 
#
# Total GULP energy -122903.285020 kJ/mol
# GULP energy per Si atom -5586.512955 kJ/mol
# Density = 2.070008 g / cm^3
# Si number density = 20.747305 Si / 1000 Ang^3
#
#
#
# Elastic Constant Matrix: (Units=GPa)
#
#
# Indices 1 2 3 4 5 6 
#
# 1 159.7395 79.9760 57.5522 0.0000 0.0000 0.0000
# 2 79.9760 152.1826 42.4217 0.0000 0.0000 0.0000
# 3 57.5522 42.4217 79.1102 0.0000 0.0000 0.0000
# 4 0.0000 0.0000 0.0000 8.5025 0.0000 0.0000
# 5 0.0000 0.0000 0.0000 0.0000 8.9875 0.0000
# 6 0.0000 0.0000 0.0000 0.0000 0.0000 33.8897
#
#
#
# Elastic Compliance Matrix: (Units=1/GPa)
#
#
# Indices 1 2 3 4 5 6 
#
# 1 0.010077 -0.003824 -0.005281 0.000000 0.000000 0.000000
# 2 -0.003824 0.009177 -0.002139 0.000000 0.000000 0.000000
# 3 -0.005281 -0.002139 0.017629 0.000000 0.000000 0.000000
# 4 0.000000 0.000000 0.000000 0.117612 0.000000 0.000000
# 5 0.000000 0.000000 0.000000 0.000000 0.111266 0.000000
# 6 0.000000 0.000000 0.000000 0.000000 0.000000 0.029507
#
#
# Mechanical properties :
#
#
# Convention : Reuss Voigt Hill
#
# Bulk Modulus (GPa) = 69.46297 83.43691 76.44994
# Shear Modulus (GPa) = 15.50126 24.34812 19.92469
#
# Velocity S-wave (km/s) = 2.73636 3.42944 3.10231
# Velocity P-wave (km/s) = 6.59824 7.48228 7.05412
#
# Compressibility (1/GPa) = 0.01439616
#
# Stress axis : x y z
#
# Youngs Moduli (GPa) = 99.23399 108.96955 56.72378
#
# Poissons Ratio (x) = 0.41668 0.29954
# Poissons Ratio (y) = 0.37945 0.12134
# Poissons Ratio (z) = 0.52402 0.23310
#
# Static dielectric constant tensor:
#      x y z
#    x 2.162430 0.000000 0.000000 
#    y 0.000000 1.714590 0.000000 
#    z 0.000000 0.000000 1.749170 
# 
# From -- ./inp_files/10585.got.cif
#   From: 2010.05.17/outbox.cif.g08.bks.cpg/sg20_6_cif.got.tgz:10585.got - 2010.06.03 22:52:26.
