data_PCOD9321352
_publ_section_title
;
Structure prediction by ZEFSAII (Michael W. Deem and Ramdas Pophale) SiO2 
 PCOD9321352
Probable space group: C 2 2 21
;
_chemical_formula_sum "Si O2"
_cell_formula_units_Z 40
_cell_length_a 19.188814
_cell_length_b 8.621007
_cell_length_c 11.458340
_cell_angle_alpha 90.000000
_cell_angle_beta 90.000000
_cell_angle_gamma 90.000000
_cell_volume 1895.517663
_symmetry_space_group_name_H-M "C 2 2 21"
_symmetry_group_IT_number 20
_symmetry_cell_setting 'orthorhombic'
loop_
_space_group_symop_operation_xyz
x,y,z
-x,-y,1/2+z
x,-y,-z
-x,y,1/2-z
1/2+x,1/2+y,z
1/2-x,1/2-y,1/2+z
1/2+x,1/2-y,-z
1/2-x,1/2+y,1/2-z
loop_
_atom_site_type_symbol
_atom_site_label
_atom_site_fract_x
_atom_site_fract_y
_atom_site_fract_z
Si Si1 0.699501 0.047214 0.135897
Si Si2 0.828967 0.747967 0.785816
Si Si3 0.573362 0.554451 0.118423
Si Si4 0.924174 0.174795 0.018181
Si Si5 0.927015 0.728381 0.247106
O O1 0.767457 0.148301 0.162050
O O2 0.632815 0.142814 0.182076
O O3 0.702377 0.897084 0.218577
O O4 0.693705 0.000000 0.000000
O O5 0.877383 0.837930 0.693467
O O6 0.881270 0.720138 0.892996
O O7 0.501411 0.638620 0.074535
O O8 0.561973 0.396542 0.191227
O O9 0.609996 0.500000 0.000000
O O10 0.916963 0.245577 0.890110
O O11 0.894649 0.000000 0.000000
O O12 0.000000 0.637900 0.250000
#
# Coordination Sequence:
#
# PCOD9321352 Si02
#       5
#     8   8   8   8   8
#     4  12  31  50  71 103 144 193 244 307 365 435
#     4  12  26  47  71 100 146 185 240 297 363 430
#     4  11  21  40  76 109 142 186 232 289 357 434
#     4  11  22  41  77 109 141 185 238 289 353 440
#     4  12  23  46  72 108 145 185 239 296 356 430
#
# _framework density 21.102414
#
# number of rings (size 3 to 8) (size 9 to 14) (size 15 to 20)
#    0.000    0.400    6.000    3.600    2.800    2.400 
#    0.000    0.000    0.000    0.000    0.000    0.000 
#    0.000    0.000    0.000    0.000    0.000    0.000 
#
# Total GULP energy -111719.881991 kJ/mol
# GULP energy per Si atom -5585.994100 kJ/mol
# Density = 2.105438 g / cm^3
# Si number density = 21.102414 Si / 1000 Ang^3
#
#
#
# Elastic Constant Matrix: (Units=GPa)
#
#
# Indices 1 2 3 4 5 6 
#
# 1 98.7740 40.5734 54.7601 0.0000 0.0000 0.0000
# 2 40.5734 63.6573 49.8424 0.0000 0.0000 0.0000
# 3 54.7601 49.8424 201.8671 0.0000 0.0000 0.0000
# 4 0.0000 0.0000 0.0000 24.2570 0.0000 0.0000
# 5 0.0000 0.0000 0.0000 0.0000 31.4940 0.0000
# 6 0.0000 0.0000 0.0000 0.0000 0.0000 16.0748
#
#
#
# Elastic Compliance Matrix: (Units=1/GPa)
#
#
# Indices 1 2 3 4 5 6 
#
# 1 0.014354 -0.007562 -0.002027 0.000000 0.000000 0.000000
# 2 -0.007562 0.023458 -0.003741 0.000000 0.000000 0.000000
# 3 -0.002027 -0.003741 0.006427 0.000000 0.000000 0.000000
# 4 0.000000 0.000000 0.000000 0.041225 0.000000 0.000000
# 5 0.000000 0.000000 0.000000 0.000000 0.031752 0.000000
# 6 0.000000 0.000000 0.000000 0.000000 0.000000 0.062209
#
#
# Mechanical properties :
#
#
# Convention : Reuss Voigt Hill
#
# Bulk Modulus (GPa) = 56.88164 72.73890 64.81027
# Shear Modulus (GPa) = 23.59118 28.97333 26.28226
#
# Velocity S-wave (km/s) = 3.34718 3.70940 3.53294
# Velocity P-wave (km/s) = 6.47702 7.27259 6.88630
#
# Compressibility (1/GPa) = 0.01758036
#
# Stress axis : x y z
#
# Youngs Moduli (GPa) = 69.66744 42.62998 155.59139
#
# Poissons Ratio (x) = 0.32237 0.31533
# Poissons Ratio (y) = 0.52682 0.58200
# Poissons Ratio (z) = 0.14119 0.15946
#
# Static dielectric constant tensor:
#      x y z
#    x 1.854850 0.000000 0.000000 
#    y 0.000000 1.771900 0.000000 
#    z 0.000000 0.000000 1.807690 
# 
# From -- ./inp_files/12681.got.cif
#   From: 2010.05.17/outbox.cif.g08.bks.cpg/sg20_7_cif.got.tgz:12681.got - 2010.06.03 22:52:26.
