data_PCOD9321971
_publ_section_title
;
Structure prediction by ZEFSAII (Michael W. Deem and Ramdas Pophale) SiO2 
 PCOD9321971
Probable space group: C 2 2 21
;
_chemical_formula_sum "Si O2"
_cell_formula_units_Z 40
_cell_length_a 24.676291
_cell_length_b 10.995842
_cell_length_c 6.984540
_cell_angle_alpha 90.000000
_cell_angle_beta 90.000000
_cell_angle_gamma 90.000000
_cell_volume 1895.161315
_symmetry_space_group_name_H-M "C 2 2 21"
_symmetry_group_IT_number 20
_symmetry_cell_setting 'orthorhombic'
loop_
_space_group_symop_operation_xyz
x,y,z
-x,-y,1/2+z
x,-y,-z
-x,y,1/2-z
1/2+x,1/2+y,z
1/2-x,1/2-y,1/2+z
1/2+x,1/2-y,-z
1/2-x,1/2+y,1/2-z
loop_
_atom_site_type_symbol
_atom_site_label
_atom_site_fract_x
_atom_site_fract_y
_atom_site_fract_z
Si Si1 0.448755 0.119732 0.123587
Si Si2 0.950503 0.870756 0.896903
Si Si3 0.667663 0.704734 0.284314
Si Si4 0.636723 0.869752 0.934742
Si Si5 0.778386 0.373946 0.890923
O O1 0.500000 0.080588 0.250000
O O2 0.405573 0.171059 0.276095
O O3 0.459466 0.239542 0.998807
O O4 0.431024 0.000000 0.000000
O O5 0.886643 0.868222 0.836835
O O6 0.000000 0.872249 0.750000
O O7 0.956787 0.000000 0.000000
O O8 0.715516 0.639746 0.165230
O O9 0.695895 0.770465 0.468711
O O10 0.645232 0.799972 0.129878
O O11 0.691635 0.876376 0.812932
O O12 0.616683 0.000000 0.000000
O O13 0.787507 0.500000 0.000000
#
# Coordination Sequence:
#
# PCOD9321971 Si02
#       5
#     8   8   8   8   8
#     4  12  24  44  73 108 147 190 251 306 372 445
#     4  12  28  50  75 108 155 201 255 313 376 448
#     4  12  26  45  73 107 146 198 251 306 378 454
#     4  12  23  41  72 101 147 185 241 315 376 433
#     4  12  25  44  70 107 147 190 248 315 377 445
#
# _framework density 21.106383000000001
#
# number of rings (size 3 to 8) (size 9 to 14) (size 15 to 20)
#    0.000    0.000    6.000    4.800    0.000    4.800 
#    0.000    0.000    0.000    0.000    0.000    0.000 
#    0.000    0.000    0.000    0.000    0.000    0.000 
#
# Total GULP energy -111573.450730 kJ/mol
# GULP energy per Si atom -5578.672536 kJ/mol
# Density = 2.105834 g / cm^3
# Si number density = 21.106383 Si / 1000 Ang^3
#
#
#
# Elastic Constant Matrix: (Units=GPa)
#
#
# Indices 1 2 3 4 5 6 
#
# 1 120.6492 15.0151 31.8881 0.0000 0.0000 0.0000
# 2 15.0151 96.0814 45.4051 0.0000 0.0000 0.0000
# 3 31.8881 45.4051 94.4227 0.0000 0.0000 0.0000
# 4 0.0000 0.0000 0.0000 48.8890 0.0000 0.0000
# 5 0.0000 0.0000 0.0000 0.0000 62.8556 0.0000
# 6 0.0000 0.0000 0.0000 0.0000 0.0000 10.6406
#
#
#
# Elastic Compliance Matrix: (Units=1/GPa)
#
#
# Indices 1 2 3 4 5 6 
#
# 1 0.009101 0.000039 -0.003092 0.000000 0.000000 0.000000
# 2 0.000039 0.013469 -0.006490 0.000000 0.000000 0.000000
# 3 -0.003092 -0.006490 0.014756 0.000000 0.000000 0.000000
# 4 0.000000 0.000000 0.000000 0.020455 0.000000 0.000000
# 5 0.000000 0.000000 0.000000 0.000000 0.015909 0.000000
# 6 0.000000 0.000000 0.000000 0.000000 0.000000 0.093980
#
#
# Mechanical properties :
#
#
# Convention : Reuss Voigt Hill
#
# Bulk Modulus (GPa) = 54.82712 55.08553 54.95632
# Shear Modulus (GPa) = 25.92885 39.06669 32.49777
#
# Velocity S-wave (km/s) = 3.50878 4.30692 3.92817
# Velocity P-wave (km/s) = 6.51524 7.13361 6.83143
#
# Compressibility (1/GPa) = 0.01823915
#
# Stress axis : x y z
#
# Youngs Moduli (GPa) = 109.87864 74.24656 67.77001
#
# Poissons Ratio (x) = -0.00290 0.20957
# Poissons Ratio (y) = -0.00430 0.43982
# Poissons Ratio (z) = 0.33978 0.48185
#
# Static dielectric constant tensor:
#      x y z
#    x 1.878650 0.000000 0.000000 
#    y 0.000000 1.356980 0.000000 
#    z 0.000000 0.000000 2.012930 
# 
# From -- ./inp_files/4067.got.cif
#   From: 2010.05.17/outbox.cif.g08.bks.cpg/sg20_3_cif.got.tgz:4067.got - 2010.06.03 22:52:26.
