data_PCOD9321732
_publ_section_title
;
Structure prediction by ZEFSAII (Michael W. Deem and Ramdas Pophale) SiO2 
 PCOD9321732
Probable space group: C 2 2 21
;
_chemical_formula_sum "Si O2"
_cell_formula_units_Z 36
_cell_length_a 14.592214
_cell_length_b 19.977538
_cell_length_c 5.511962
_cell_angle_alpha 90.000000
_cell_angle_beta 90.000000
_cell_angle_gamma 90.000000
_cell_volume 1606.827924
_symmetry_space_group_name_H-M "C 2 2 21"
_symmetry_group_IT_number 20
_symmetry_cell_setting 'orthorhombic'
loop_
_space_group_symop_operation_xyz
x,y,z
-x,-y,1/2+z
x,-y,-z
-x,y,1/2-z
1/2+x,1/2+y,z
1/2-x,1/2-y,1/2+z
1/2+x,1/2-y,-z
1/2-x,1/2+y,1/2-z
loop_
_atom_site_type_symbol
_atom_site_label
_atom_site_fract_x
_atom_site_fract_y
_atom_site_fract_z
Si Si1 0.894614 0.328667 0.257774
Si Si2 0.804081 0.619870 0.245734
Si Si3 0.395717 0.560486 0.685924
Si Si4 0.245750 0.500000 0.000000
Si Si5 0.399254 0.330005 0.662228
O O1 0.851602 0.350251 0.514401
O O2 0.895499 0.247816 0.275149
O O3 0.000000 0.351527 0.250000
O O4 0.845116 0.354977 0.011871
O O5 0.809828 0.540251 0.297182
O O6 0.697458 0.640971 0.250358
O O7 0.372987 0.500000 0.500000
O O8 0.500000 0.544756 0.750000
O O9 0.315728 0.551377 0.876566
O O10 0.396781 0.638067 0.606026
O O11 0.500000 0.355447 0.750000
#
# Coordination Sequence:
#
# PCOD9321732 Si02
#       5
#     8   8   8   4   8
#     4  11  27  49  75 103 141 191 255 317 371 425
#     4  12  25  47  73 107 144 193 242 309 370 444
#     4  12  22  40  64 106 156 204 238 293 368 466
#     4  12  26  40  70 104 150 192 252 304 374 446
#     4  11  24  43  71 109 147 192 239 295 371 463
#
# _framework density 22.404389999999999
#
# number of rings (size 3 to 8) (size 9 to 14) (size 15 to 20)
#    0.000    0.444    3.333    5.333    0.000    5.333 
#    0.000    2.222    0.000    0.000    0.000    0.000 
#    0.000    0.000    0.000    0.000    0.000    0.000 
#
# Total GULP energy -100323.262807 kJ/mol
# GULP energy per Si atom -5573.514600 kJ/mol
# Density = 2.235340 g / cm^3
# Si number density = 22.404390 Si / 1000 Ang^3
#
#
#
# Elastic Constant Matrix: (Units=GPa)
#
#
# Indices 1 2 3 4 5 6 
#
# 1 117.4233 28.8425 54.4769 0.0000 0.0000 0.0000
# 2 28.8425 86.1022 53.6144 0.0000 0.0000 0.0000
# 3 54.4769 53.6144 143.5402 0.0000 0.0000 0.0000
# 4 0.0000 0.0000 0.0000 39.7333 0.0000 0.0000
# 5 0.0000 0.0000 0.0000 0.0000 44.6813 0.0000
# 6 0.0000 0.0000 0.0000 0.0000 0.0000 9.9825
#
#
#
# Elastic Compliance Matrix: (Units=1/GPa)
#
#
# Indices 1 2 3 4 5 6 
#
# 1 0.010454 -0.001344 -0.003466 0.000000 0.000000 0.000000
# 2 -0.001344 0.015307 -0.005207 0.000000 0.000000 0.000000
# 3 -0.003466 -0.005207 0.010227 0.000000 0.000000 0.000000
# 4 0.000000 0.000000 0.000000 0.025168 0.000000 0.000000
# 5 0.000000 0.000000 0.000000 0.000000 0.022381 0.000000
# 6 0.000000 0.000000 0.000000 0.000000 0.000000 0.100176
#
#
# Mechanical properties :
#
#
# Convention : Reuss Voigt Hill
#
# Bulk Modulus (GPa) = 62.67924 68.99259 65.83591
# Shear Modulus (GPa) = 23.91617 32.88822 28.40219
#
# Velocity S-wave (km/s) = 3.27077 3.83552 3.56435
# Velocity P-wave (km/s) = 6.50392 7.10465 6.81091
#
# Compressibility (1/GPa) = 0.01595425
#
# Stress axis : x y z
#
# Youngs Moduli (GPa) = 95.65602 65.33060 97.78090
#
# Poissons Ratio (x) = 0.08780 0.33887
# Poissons Ratio (y) = 0.12856 0.50917
# Poissons Ratio (z) = 0.33151 0.34019
#
# Static dielectric constant tensor:
#      x y z
#    x 1.896000 0.000000 0.000000 
#    y 0.000000 1.887020 0.000000 
#    z 0.000000 0.000000 1.919640 
# 
# From -- ./inp_files/1757.got.cif
#   From: 2010.05.17/outbox.cif.g08.bks.cpg/sg20_1_cif.got.tgz:1757.got - 2010.06.03 22:52:26.
