data_PCOD9321491
_publ_section_title
;
Structure prediction by ZEFSAII (Michael W. Deem and Ramdas Pophale) SiO2 
 PCOD9321491
Probable space group: C 2 2 21
;
_chemical_formula_sum "Si O2"
_cell_formula_units_Z 28
_cell_length_a 16.445877
_cell_length_b 12.928643
_cell_length_c 5.020988
_cell_angle_alpha 90.000000
_cell_angle_beta 90.000000
_cell_angle_gamma 90.000000
_cell_volume 1067.576892
_symmetry_space_group_name_H-M "C 2 2 21"
_symmetry_group_IT_number 20
_symmetry_cell_setting 'orthorhombic'
loop_
_space_group_symop_operation_xyz
x,y,z
-x,-y,1/2+z
x,-y,-z
-x,y,1/2-z
1/2+x,1/2+y,z
1/2-x,1/2-y,1/2+z
1/2+x,1/2-y,-z
1/2-x,1/2+y,1/2-z
loop_
_atom_site_type_symbol
_atom_site_label
_atom_site_fract_x
_atom_site_fract_y
_atom_site_fract_z
Si Si1 0.825004 0.165669 0.924525
Si Si2 0.570830 0.635812 0.071520
Si Si3 0.500000 0.163483 0.750000
Si Si4 0.673258 0.891679 0.389437
O O1 0.734831 0.133033 0.849119
O O2 0.887699 0.114220 0.711417
O O3 0.855417 0.140592 0.219322
O O4 0.825983 0.290926 0.920075
O O5 0.500000 0.580266 0.250000
O O6 0.531385 0.750443 0.037949
O O7 0.420916 0.098757 0.810758
O O8 0.701469 0.000000 0.500000
#
# Coordination Sequence:
#
# PCOD9321491 Si02
#       4
#     8   8   4   8
#     4  11  22  43  65 100 141 185 235 286 358 425
#     4   9  20  40  68  96 133 184 231 286 352 423
#     4   8  20  36  58 100 140 170 222 286 360 428
#     4  11  24  42  71 109 148 190 237 298 366 440
#
# _framework density 26.227616999999999
#
# number of rings (size 3 to 8) (size 9 to 14) (size 15 to 20)
#    0.857    1.143    0.000    4.286    0.000    2.286 
#    0.000   21.429    0.000    3.429    0.000    0.000 
#    0.000    0.000    0.000    0.000    0.000    0.000 
#
# Total GULP energy -78205.480744 kJ/mol
# GULP energy per Si atom -5586.105767 kJ/mol
# Density = 2.616792 g / cm^3
# Si number density = 26.227617 Si / 1000 Ang^3
#
#
#
# Elastic Constant Matrix: (Units=GPa)
#
#
# Indices 1 2 3 4 5 6 
#
# 1 147.2397 30.3442 19.7764 0.0000 0.0000 0.0000
# 2 30.3442 112.6768 26.9484 0.0000 0.0000 0.0000
# 3 19.7764 26.9484 119.5553 0.0000 0.0000 0.0000
# 4 0.0000 0.0000 0.0000 11.4556 0.0000 0.0000
# 5 0.0000 0.0000 0.0000 0.0000 51.4427 0.0000
# 6 0.0000 0.0000 0.0000 0.0000 0.0000 20.5303
#
#
#
# Elastic Compliance Matrix: (Units=1/GPa)
#
#
# Indices 1 2 3 4 5 6 
#
# 1 0.007263 -0.001764 -0.000804 0.000000 0.000000 0.000000
# 2 -0.001764 0.009809 -0.001919 0.000000 0.000000 0.000000
# 3 -0.000804 -0.001919 0.008930 0.000000 0.000000 0.000000
# 4 0.000000 0.000000 0.000000 0.087294 0.000000 0.000000
# 5 0.000000 0.000000 0.000000 0.000000 0.019439 0.000000
# 6 0.000000 0.000000 0.000000 0.000000 0.000000 0.048709
#
#
# Mechanical properties :
#
#
# Convention : Reuss Voigt Hill
#
# Bulk Modulus (GPa) = 58.72586 59.28996 59.00791
# Shear Modulus (GPa) = 25.49807 36.84589 31.17198
#
# Velocity S-wave (km/s) = 3.12137 3.75220 3.45123
# Velocity P-wave (km/s) = 5.95231 6.43638 6.19908
#
# Compressibility (1/GPa) = 0.01702827
#
# Stress axis : x y z
#
# Youngs Moduli (GPa) = 137.68232 101.94789 111.98320
#
# Poissons Ratio (x) = 0.17981 0.09002
# Poissons Ratio (y) = 0.24283 0.21492
# Poissons Ratio (z) = 0.11068 0.19566
#
# Static dielectric constant tensor:
#      x y z
#    x 2.052200 0.000000 0.000000 
#    y 0.000000 2.049930 0.000000 
#    z 0.000000 0.000000 2.057750 
# 
# From -- ./inp_files/7793.got.cif
#   From: 2010.05.17/outbox.cif.g08.bks.cpg/sg20_4_cif.got.tgz:7793.got - 2010.06.03 22:52:26.
