data_PCOD9321848
_publ_section_title
;
Structure prediction by ZEFSAII (Michael W. Deem and Ramdas Pophale) SiO2 
 PCOD9321848
Probable space group: C 2 2 21
;
_chemical_formula_sum "Si O2"
_cell_formula_units_Z 32
_cell_length_a 11.358118
_cell_length_b 7.964599
_cell_length_c 13.155983
_cell_angle_alpha 90.000000
_cell_angle_beta 90.000000
_cell_angle_gamma 90.000000
_cell_volume 1190.127786
_symmetry_space_group_name_H-M "C 2 2 21"
_symmetry_group_IT_number 20
_symmetry_cell_setting 'orthorhombic'
loop_
_space_group_symop_operation_xyz
x,y,z
-x,-y,1/2+z
x,-y,-z
-x,y,1/2-z
1/2+x,1/2+y,z
1/2-x,1/2-y,1/2+z
1/2+x,1/2-y,-z
1/2-x,1/2+y,1/2-z
loop_
_atom_site_type_symbol
_atom_site_label
_atom_site_fract_x
_atom_site_fract_y
_atom_site_fract_z
Si Si1 0.612339 0.224087 0.937936
Si Si2 0.130288 0.329046 0.557189
Si Si3 0.844223 0.579493 0.293337
Si Si4 0.379305 0.445422 0.307049
O O1 0.754776 0.211010 0.959401
O O2 0.607852 0.407005 0.887159
O O3 0.594975 0.068347 0.858113
O O4 0.495464 0.221689 0.009018
O O5 0.162590 0.500000 0.500000
O O6 0.115744 0.374967 0.677302
O O7 0.714637 0.511046 0.273464
O O8 0.839170 0.762668 0.344213
O O9 0.500000 0.425469 0.250000
#
# Coordination Sequence:
#
# PCOD9321848 Si02
#       4
#     8   8   8   8
#     4  11  28  57  90 126 184 234 298 375 450 530
#     4  11  28  53  88 135 177 230 305 370 445 538
#     4  11  25  54  87 125 175 242 289 364 453 538
#     4  11  25  46  89 124 164 234 296 351 447 530
#
# _framework density 26.887865999999999
#
# number of rings (size 3 to 8) (size 9 to 14) (size 15 to 20)
#    0.000    1.000    5.000    0.000    7.000    4.000 
#    4.500    7.500    5.500    0.000    0.000    0.000 
#    0.000    0.000    0.000    0.000    0.000    0.000 
#
# Total GULP energy -89523.309329 kJ/mol
# GULP energy per Si atom -5595.206833 kJ/mol
# Density = 2.682667 g / cm^3
# Si number density = 26.887866 Si / 1000 Ang^3
#
#
#
# Elastic Constant Matrix: (Units=GPa)
#
#
# Indices 1 2 3 4 5 6 
#
# 1 254.1885 82.3355 100.5938 0.0000 0.0000 0.0000
# 2 82.3355 212.2060 73.6963 0.0000 0.0000 0.0000
# 3 100.5938 73.6963 138.0248 0.0000 0.0000 0.0000
# 4 0.0000 0.0000 0.0000 40.3819 0.0000 0.0000
# 5 0.0000 0.0000 0.0000 0.0000 29.0089 0.0000
# 6 0.0000 0.0000 0.0000 0.0000 0.0000 62.9166
#
#
#
# Elastic Compliance Matrix: (Units=1/GPa)
#
#
# Indices 1 2 3 4 5 6 
#
# 1 0.005677 -0.000940 -0.003636 0.000000 0.000000 0.000000
# 2 -0.000940 0.005941 -0.002487 0.000000 0.000000 0.000000
# 3 -0.003636 -0.002487 0.011223 0.000000 0.000000 0.000000
# 4 0.000000 0.000000 0.000000 0.024764 0.000000 0.000000
# 5 0.000000 0.000000 0.000000 0.000000 0.034472 0.000000
# 6 0.000000 0.000000 0.000000 0.000000 0.000000 0.015894
#
#
# Mechanical properties :
#
#
# Convention : Reuss Voigt Hill
#
# Bulk Modulus (GPa) = 114.73944 124.18562 119.46253
# Shear Modulus (GPa) = 43.47768 49.64772 46.56270
#
# Velocity S-wave (km/s) = 4.02556 4.30172 4.16593
# Velocity P-wave (km/s) = 8.02326 8.42377 8.22595
#
# Compressibility (1/GPa) = 0.00871540
#
# Stress axis : x y z
#
# Youngs Moduli (GPa) = 176.13449 168.32676 89.10534
#
# Poissons Ratio (x) = 0.15826 0.32397
# Poissons Ratio (y) = 0.16560 0.22159
# Poissons Ratio (z) = 0.64039 0.41860
#
# Static dielectric constant tensor:
#      x y z
#    x 2.116950 0.000000 0.000000 
#    y 0.000000 2.074080 0.000000 
#    z 0.000000 0.000000 2.313690 
# 
# From -- ./inp_files/19519.got.cif
#   From: 2010.05.17/outbox.cif.g08.bks.cpg/sg20_10_cif.got.tgz:19519.got - 2010.06.03 22:52:26.
