data_PCOD9321006
_publ_section_title
;
Structure prediction by ZEFSAII (Michael W. Deem and Ramdas Pophale) SiO2 
 PCOD9321006
Probable space group: C 2 2 21
;
_chemical_formula_sum "Si O2"
_cell_formula_units_Z 56
_cell_length_a 19.946245
_cell_length_b 11.803275
_cell_length_c 11.637627
_cell_angle_alpha 90.000000
_cell_angle_beta 90.000000
_cell_angle_gamma 90.000000
_cell_volume 2739.858336
_symmetry_space_group_name_H-M "C 2 2 21"
_symmetry_group_IT_number 20
_symmetry_cell_setting 'orthorhombic'
loop_
_space_group_symop_operation_xyz
x,y,z
-x,-y,1/2+z
x,-y,-z
-x,y,1/2-z
1/2+x,1/2+y,z
1/2-x,1/2-y,1/2+z
1/2+x,1/2-y,-z
1/2-x,1/2+y,1/2-z
loop_
_atom_site_type_symbol
_atom_site_label
_atom_site_fract_x
_atom_site_fract_y
_atom_site_fract_z
Si Si1 0.896858 0.137508 0.497715
Si Si2 0.366380 0.886178 0.850446
Si Si3 0.349133 0.457729 0.117549
Si Si4 0.527638 0.705220 0.627589
Si Si5 0.850489 0.352442 0.117929
Si Si6 0.793613 0.206770 0.696733
Si Si7 0.921458 0.834969 0.760166
O O1 0.838645 0.174701 0.585812
O O2 0.889682 0.176941 0.366688
O O3 0.965883 0.192331 0.542968
O O4 0.902158 0.000000 0.500000
O O5 0.440231 0.828694 0.849543
O O6 0.322383 0.819518 0.756709
O O7 0.361207 0.020294 0.836400
O O8 0.343002 0.860673 0.980701
O O9 0.410500 0.372606 0.088172
O O10 0.303997 0.390525 0.207310
O O11 0.382947 0.562691 0.180286
O O12 0.316122 0.500000 0.000000
O O13 0.500000 0.661885 0.750000
O O14 0.783521 0.293059 0.163941
O O15 0.911068 0.275310 0.161646
O O16 0.000000 0.861611 0.750000
#
# Coordination Sequence:
#
# PCOD9321006 Si02
#       7
#     8   8   8   8   8   8   8
#     4  12  22  38  69 104 135 169 213 287 344 390
#     4  10  24  47  67  91 130 185 221 267 334 404
#     4  11  21  38  65 101 132 170 217 278 340 398
#     4  11  19  40  66  98 132 170 220 269 333 403
#     4  11  27  44  69  92 132 183 228 270 330 415
#     4  11  25  42  67  99 129 179 222 276 343 398
#     4  12  24  40  64 101 134 166 223 281 337 396
#
# _framework density 20.439012999999999
#
# number of rings (size 3 to 8) (size 9 to 14) (size 15 to 20)
#    0.000    0.857    4.286    5.143    6.000    0.571 
#    0.000    0.714    0.000    0.000    0.000    0.000 
#    0.000    0.000    0.000    0.000    0.000    0.000 
#
# Total GULP energy -156559.287813 kJ/mol
# GULP energy per Si atom -5591.403136 kJ/mol
# Density = 2.039249 g / cm^3
# Si number density = 20.439013 Si / 1000 Ang^3
#
#
#
# Elastic Constant Matrix: (Units=GPa)
#
#
# Indices 1 2 3 4 5 6 
#
# 1 41.1763 10.0150 2.6410 0.0000 0.0000 0.0000
# 2 10.0150 95.6260 6.9179 0.0000 0.0000 0.0000
# 3 2.6410 6.9179 87.9689 0.0000 0.0000 0.0000
# 4 0.0000 0.0000 0.0000 30.0821 0.0000 0.0000
# 5 0.0000 0.0000 0.0000 0.0000 21.0671 0.0000
# 6 0.0000 0.0000 0.0000 0.0000 0.0000 10.1455
#
#
#
# Elastic Compliance Matrix: (Units=1/GPa)
#
#
# Indices 1 2 3 4 5 6 
#
# 1 0.024947 -0.002573 -0.000547 0.000000 0.000000 0.000000
# 2 -0.002573 0.010783 -0.000771 0.000000 0.000000 0.000000
# 3 -0.000547 -0.000771 0.011445 0.000000 0.000000 0.000000
# 4 0.000000 0.000000 0.000000 0.033242 0.000000 0.000000
# 5 0.000000 0.000000 0.000000 0.000000 0.047467 0.000000
# 6 0.000000 0.000000 0.000000 0.000000 0.000000 0.098566
#
#
# Mechanical properties :
#
#
# Convention : Reuss Voigt Hill
#
# Bulk Modulus (GPa) = 25.38511 29.32432 27.35472
# Shear Modulus (GPa) = 20.21328 25.93875 23.07602
#
# Velocity S-wave (km/s) = 3.14818 3.56628 3.36373
# Velocity P-wave (km/s) = 5.06573 5.59787 5.33844
#
# Compressibility (1/GPa) = 0.03939317
#
# Stress axis : x y z
#
# Youngs Moduli (GPa) = 40.08538 92.74160 87.37694
#
# Poissons Ratio (x) = 0.23864 0.04776
# Poissons Ratio (y) = 0.10315 0.06734
# Poissons Ratio (z) = 0.02191 0.07148
#
# Static dielectric constant tensor:
#      x y z
#    x 1.702470 0.000000 0.000000 
#    y 0.000000 1.725120 0.000000 
#    z 0.000000 0.000000 1.852430 
# 
# From -- ./inp_files/16314.got.cif
#   From: 2010.05.17/outbox.cif.g08.bks.cpg/sg20_9_cif.got.tgz:16314.got - 2010.06.03 22:52:26.
