data_PCOD9321440
_publ_section_title
;
Structure prediction by ZEFSAII (Michael W. Deem and Ramdas Pophale) SiO2 
 PCOD9321440
Probable space group: C 2 2 21
;
_chemical_formula_sum "Si O2"
_cell_formula_units_Z 52
_cell_length_a 8.158724
_cell_length_b 17.250783
_cell_length_c 16.858742
_cell_angle_alpha 90.000000
_cell_angle_beta 90.000000
_cell_angle_gamma 90.000000
_cell_volume 2372.773145
_symmetry_space_group_name_H-M "C 2 2 21"
_symmetry_group_IT_number 20
_symmetry_cell_setting 'orthorhombic'
loop_
_space_group_symop_operation_xyz
x,y,z
-x,-y,1/2+z
x,-y,-z
-x,y,1/2-z
1/2+x,1/2+y,z
1/2-x,1/2-y,1/2+z
1/2+x,1/2-y,-z
1/2-x,1/2+y,1/2-z
loop_
_atom_site_type_symbol
_atom_site_label
_atom_site_fract_x
_atom_site_fract_y
_atom_site_fract_z
Si Si1 0.279230 0.338010 0.613579
Si Si2 0.772268 0.170595 0.936573
Si Si3 0.467871 0.940620 0.073477
Si Si4 0.457513 0.917162 0.660333
Si Si5 0.230604 0.215290 0.386465
Si Si6 0.500000 0.313450 0.750000
Si Si7 0.615055 0.366940 0.064585
O O1 0.249635 0.245612 0.618701
O O2 0.380602 0.361250 0.691698
O O3 0.365772 0.358373 0.530794
O O4 0.107353 0.380612 0.611484
O O5 0.596770 0.128479 0.941753
O O6 0.925052 0.113605 0.917326
O O7 0.821597 0.208285 0.021857
O O8 0.278791 0.915338 0.087243
O O9 0.540321 0.991788 0.145078
O O10 0.475129 0.000000 0.000000
O O11 0.500000 0.898662 0.750000
O O12 0.299671 0.869252 0.634695
O O13 0.361384 0.284048 0.392031
O O14 0.103210 0.233285 0.316360
#
# Coordination Sequence:
#
# PCOD9321440 Si02
#       7
#     8   8   8   8   8   4   8
#     4  11  22  40  69 102 130 171 235 287 336 401
#     4  11  23  43  70 100 133 180 233 281 333 413
#     4  12  25  43  66 103 144 180 222 280 350 402
#     4  12  24  46  65  93 142 182 220 283 350 410
#     4  11  22  40  69 102 130 171 235 287 336 401
#     4  12  22  36  66 110 132 162 220 302 346 390
#     4  11  23  43  70 100 133 180 233 281 333 413
#
# _framework density 21.915285999999998
#
# number of rings (size 3 to 8) (size 9 to 14) (size 15 to 20)
#    0.000    0.615    7.692    0.923    4.308    0.615 
#    8.308    0.000    0.000    0.000    0.000    0.000 
#    0.000    0.000    0.000    0.000    0.000    0.000 
#
# Total GULP energy -144985.521121 kJ/mol
# GULP energy per Si atom -5576.366197 kJ/mol
# Density = 2.186541 g / cm^3
# Si number density = 21.915286 Si / 1000 Ang^3
#
#
#
# Elastic Constant Matrix: (Units=GPa)
#
#
# Indices 1 2 3 4 5 6 
#
# 1 101.8517 13.7109 22.4772 0.0000 0.0000 0.0000
# 2 13.7109 53.3714 8.9994 0.0000 0.0000 0.0000
# 3 22.4772 8.9994 50.2350 0.0000 0.0000 0.0000
# 4 0.0000 0.0000 0.0000 16.4075 0.0000 0.0000
# 5 0.0000 0.0000 0.0000 0.0000 28.5350 0.0000
# 6 0.0000 0.0000 0.0000 0.0000 0.0000 26.9492
#
#
#
# Elastic Compliance Matrix: (Units=1/GPa)
#
#
# Indices 1 2 3 4 5 6 
#
# 1 0.011113 -0.002079 -0.004600 0.000000 0.000000 0.000000
# 2 -0.002079 0.019709 -0.002600 0.000000 0.000000 0.000000
# 3 -0.004600 -0.002600 0.022431 0.000000 0.000000 0.000000
# 4 0.000000 0.000000 0.000000 0.060948 0.000000 0.000000
# 5 0.000000 0.000000 0.000000 0.000000 0.035045 0.000000
# 6 0.000000 0.000000 0.000000 0.000000 0.000000 0.037107
#
#
# Mechanical properties :
#
#
# Convention : Reuss Voigt Hill
#
# Bulk Modulus (GPa) = 28.82388 32.87037 30.84713
# Shear Modulus (GPa) = 23.09720 25.06305 24.08012
#
# Velocity S-wave (km/s) = 3.24995 3.38543 3.31838
# Velocity P-wave (km/s) = 5.22148 5.50572 5.36548
#
# Compressibility (1/GPa) = 0.03469345
#
# Stress axis : x y z
#
# Youngs Moduli (GPa) = 89.98255 50.73754 44.58206
#
# Poissons Ratio (x) = 0.10550 0.20508
# Poissons Ratio (y) = 0.18710 0.11593
# Poissons Ratio (z) = 0.41392 0.13194
#
# Static dielectric constant tensor:
#      x y z
#    x 1.911420 0.000000 0.000000 
#    y 0.000000 1.805470 0.000000 
#    z 0.000000 0.000000 1.836390 
# 
# From -- ./inp_files/23707.got.cif
#   From: 2010.05.17/outbox.cif.g08.bks.cpg/sg20_12_cif.got.tgz:23707.got - 2010.06.03 22:52:26.
