data_PCOD9321392
_publ_section_title
;
Structure prediction by ZEFSAII (Michael W. Deem and Ramdas Pophale) SiO2 
 PCOD9321392
Probable space group: C 2 2 21
;
_chemical_formula_sum "Si O2"
_cell_formula_units_Z 64
_cell_length_a 18.747898
_cell_length_b 8.822377
_cell_length_c 21.662515
_cell_angle_alpha 90.000000
_cell_angle_beta 90.000000
_cell_angle_gamma 90.000000
_cell_volume 3583.002166
_symmetry_space_group_name_H-M "C 2 2 21"
_symmetry_group_IT_number 20
_symmetry_cell_setting 'orthorhombic'
loop_
_space_group_symop_operation_xyz
x,y,z
-x,-y,1/2+z
x,-y,-z
-x,y,1/2-z
1/2+x,1/2+y,z
1/2-x,1/2-y,1/2+z
1/2+x,1/2-y,-z
1/2-x,1/2+y,1/2-z
loop_
_atom_site_type_symbol
_atom_site_label
_atom_site_fract_x
_atom_site_fract_y
_atom_site_fract_z
Si Si1 0.335246 0.182649 0.878419
Si Si2 0.584634 0.181351 1.000000
Si Si3 0.829654 0.818451 0.751626
Si Si4 0.420516 0.815292 1.000000
Si Si5 0.670346 0.681550 0.748374
Si Si6 0.664754 0.182649 0.378419
Si Si7 0.667192 0.681921 0.884722
Si Si8 0.832807 0.818079 0.615278
O O1 0.362612 0.252978 0.814206
O O2 0.251504 0.222436 0.887241
O O3 0.338521 0.000000 0.873383
O O4 0.379492 0.232668 0.938071
O O5 0.502449 0.233403 1.000000
O O6 0.624580 0.240652 0.060669
O O7 0.624580 0.240651 0.939331
O O8 0.585400 0.000000 0.000000
O O9 0.750000 0.750001 0.750000
O O10 0.860733 0.779104 0.684196
O O11 0.825592 0.000000 0.755300
O O12 0.379492 0.767332 0.938070
O O13 0.418968 0.000000 0.000000
O O14 0.637388 0.747023 0.685795
O O15 0.639266 0.720896 0.815804
O O16 0.748495 0.222436 0.387241
O O17 0.663045 0.500000 0.891912
#
# Coordination Sequence:
#
# PCOD9321392 Si02
#       8
#     8   8   8   8   8   8   8   8
#     4   9  17  33  56  75  96 129 166 204 244 290
#     4  11  22  33  49  73 100 131 168 208 242 285
#     4   9  17  30  50  77 103 126 159 202 247 293
#     4   9  19  35  51  71 100 133 168 204 248 293
#     4   9  17  30  50  77 103 126 159 202 247 293
#     4   9  17  33  56  75  96 129 166 204 244 290
#     4   9  18  33  53  74  98 130 161 196 248 298
#     4   9  18  33  53  74  98 130 161 196 248 298
#
# _framework density 17.862114999999999
#
# number of rings (size 3 to 8) (size 9 to 14) (size 15 to 20)
#    0.000    2.750    0.000    3.375    0.000    7.000 
#    0.000    4.375    0.000    7.500    0.000    0.000 
#    0.000    0.000    0.000    0.000    0.000    0.000 
#
# Total GULP energy -178330.619123 kJ/mol
# GULP energy per Si atom -5572.831848 kJ/mol
# Density = 1.782146 g / cm^3
# Si number density = 17.862115 Si / 1000 Ang^3
#
#
#
# Elastic Constant Matrix: (Units=GPa)
#
#
# Indices 1 2 3 4 5 6 
#
# 1 74.1099 27.1986 84.1744 0.0000 0.0000 0.0000
# 2 27.1986 25.6056 55.0158 0.0000 0.0000 0.0000
# 3 84.1744 55.0158 231.2337 0.0000 0.0000 0.0000
# 4 0.0000 0.0000 0.0000 38.1733 0.0000 0.0000
# 5 0.0000 0.0000 0.0000 0.0000 -5.6289 0.0000
# 6 0.0000 0.0000 0.0000 0.0000 0.0000 16.7369
#
#
#
# Elastic Compliance Matrix: (Units=1/GPa)
#
#
# Indices 1 2 3 4 5 6 
#
# 1 0.025407 -0.014558 -0.005785 0.000000 0.000000 0.000000
# 2 -0.014558 0.088239 -0.015695 0.000000 0.000000 0.000000
# 3 -0.005785 -0.015695 0.010165 0.000000 0.000000 0.000000
# 4 0.000000 0.000000 0.000000 0.026196 0.000000 0.000000
# 5 0.000000 0.000000 0.000000 0.000000 -0.177653 0.000000
# 6 0.000000 0.000000 0.000000 0.000000 0.000000 0.059748
#
#
# Mechanical properties :
#
#
# Convention : Reuss Voigt Hill
#
# Bulk Modulus (GPa) = 19.32913 73.74742 46.53828
# Shear Modulus (GPa) = 41.17859 20.82694 31.00277
#
# Velocity S-wave (km/s) = 4.80662 3.41836 4.17066
# Velocity P-wave (km/s) = 6.45365 7.54698 7.02163
#
# Compressibility (1/GPa) = 0.05173540
#
# Stress axis : x y z
#
# Youngs Moduli (GPa) = 39.35928 11.33285 98.38007
#
# Poissons Ratio (x) = 0.16498 0.56914
# Poissons Ratio (y) = 0.57299 1.54405
# Poissons Ratio (z) = 0.22770 0.17787
#
# Static dielectric constant tensor:
#      x y z
#    x 1.585150 0.000000 0.000000 
#    y 0.000000 1.602290 0.000000 
#    z 0.000000 0.000000 1.641270 
# 
# From -- ./inp_files/27951.got.cif
#   From: 2010.05.17/outbox.cif.g08.bks.cpg/sg20_14_cif.got.tgz:27951.got - 2010.06.03 22:52:26.
