data_PCOD9321884
_publ_section_title
;
Structure prediction by ZEFSAII (Michael W. Deem and Ramdas Pophale) SiO2 
 PCOD9321884
Probable space group: C 2 2 21
;
_chemical_formula_sum "Si O2"
_cell_formula_units_Z 40
_cell_length_a 7.944883
_cell_length_b 26.537272
_cell_length_c 8.438503
_cell_angle_alpha 90.000000
_cell_angle_beta 90.000000
_cell_angle_gamma 90.000000
_cell_volume 1779.136178
_symmetry_space_group_name_H-M "C 2 2 21"
_symmetry_group_IT_number 20
_symmetry_cell_setting 'orthorhombic'
loop_
_space_group_symop_operation_xyz
x,y,z
-x,-y,1/2+z
x,-y,-z
-x,y,1/2-z
1/2+x,1/2+y,z
1/2-x,1/2-y,1/2+z
1/2+x,1/2-y,-z
1/2-x,1/2+y,1/2-z
loop_
_atom_site_type_symbol
_atom_site_label
_atom_site_fract_x
_atom_site_fract_y
_atom_site_fract_z
Si Si1 0.389147 0.400087 0.589660
Si Si2 0.500000 0.640927 0.750000
Si Si3 0.000000 0.260587 0.250000
Si Si4 0.000000 0.563111 0.750000
Si Si5 0.713139 0.000000 0.500000
Si Si6 0.694383 0.817683 0.746778
Si Si7 0.825094 0.656143 0.593761
O O1 0.500000 0.394143 0.750000
O O2 0.465823 0.389497 0.413914
O O3 0.321147 0.456698 0.584159
O O4 0.241769 0.358131 0.611377
O O5 0.666085 0.671757 0.702141
O O6 0.163423 0.225320 0.250857
O O7 0.033102 0.300707 0.110469
O O8 0.100790 0.528880 0.628406
O O9 0.119273 0.602003 0.843373
O O10 0.500000 0.800999 0.750000
O O11 0.718970 0.846737 0.912056
#
# Coordination Sequence:
#
# PCOD9321884 Si02
#       7
#     8   4   4   4   4   8   8
#     4  12  27  51  75 115 157 203 269 324 395 467
#     4  12  24  50  79 107 159 211 256 340 384 460
#     4  11  28  46  71 124 154 211 264 313 410 466
#     4  11  26  48  70 115 153 204 264 321 392 472
#     4  12  28  44  82 112 154 208 262 328 398 472
#     4  12  27  49  79 110 163 210 261 333 392 477
#     4  11  26  48  77 109 161 205 262 326 395 474
#
# _framework density 22.48282
#
# number of rings (size 3 to 8) (size 9 to 14) (size 15 to 20)
#    0.000    0.400    5.000    1.200   12.600    0.000 
#    0.000    0.000    0.000    0.000    0.000    0.000 
#    0.000    0.000    0.000    0.000    0.000    0.000 
#
# Total GULP energy -111727.983544 kJ/mol
# GULP energy per Si atom -5586.399177 kJ/mol
# Density = 2.243165 g / cm^3
# Si number density = 22.482820 Si / 1000 Ang^3
#
#
#
# Elastic Constant Matrix: (Units=GPa)
#
#
# Indices 1 2 3 4 5 6 
#
# 1 138.7140 77.9027 44.8777 0.0000 0.0000 0.0000
# 2 77.9027 146.2939 50.9765 0.0000 0.0000 0.0000
# 3 44.8777 50.9765 148.4503 0.0000 0.0000 0.0000
# 4 0.0000 0.0000 0.0000 -14.3526 0.0000 0.0000
# 5 0.0000 0.0000 0.0000 0.0000 35.6620 0.0000
# 6 0.0000 0.0000 0.0000 0.0000 0.0000 18.7995
#
#
#
# Elastic Compliance Matrix: (Units=1/GPa)
#
#
# Indices 1 2 3 4 5 6 
#
# 1 0.010546 -0.005117 -0.001431 0.000000 0.000000 0.000000
# 2 -0.005117 0.010248 -0.001972 0.000000 0.000000 0.000000
# 3 -0.001431 -0.001972 0.007846 0.000000 0.000000 0.000000
# 4 0.000000 0.000000 0.000000 -0.069674 0.000000 0.000000
# 5 0.000000 0.000000 0.000000 0.000000 0.028041 0.000000
# 6 0.000000 0.000000 0.000000 0.000000 0.000000 0.053193
#
#
# Mechanical properties :
#
#
# Convention : Reuss Voigt Hill
#
# Bulk Modulus (GPa) = 86.21153 86.77468 86.49311
# Shear Modulus (GPa) = 81.82509 25.33520 53.58015
#
# Velocity S-wave (km/s) = 6.03933 3.36053 4.88706
# Velocity P-wave (km/s) = 9.33060 7.33057 8.39039
#
# Compressibility (1/GPa) = 0.01159938
#
# Stress axis : x y z
#
# Youngs Moduli (GPa) = 94.82419 97.58367 127.45349
#
# Poissons Ratio (x) = 0.49935 0.18237
# Poissons Ratio (y) = 0.48523 0.25134
# Poissons Ratio (z) = 0.13569 0.19243
#
# Static dielectric constant tensor:
#      x y z
#    x 1.936480 0.000000 0.000000 
#    y 0.000000 1.769720 0.000000 
#    z 0.000000 0.000000 1.828410 
# 
# From -- ./inp_files/6321.got.cif
#   From: 2010.05.17/outbox.cif.g08.bks.cpg/sg20_4_cif.got.tgz:6321.got - 2010.06.03 22:52:26.
