data_PCOD9321973
_publ_section_title
;
Structure prediction by ZEFSAII (Michael W. Deem and Ramdas Pophale) SiO2 
 PCOD9321973
Probable space group: C 2 2 21
;
_chemical_formula_sum "Si O2"
_cell_formula_units_Z 60
_cell_length_a 4.915924
_cell_length_b 22.975477
_cell_length_c 22.509512
_cell_angle_alpha 90.000000
_cell_angle_beta 90.000000
_cell_angle_gamma 90.000000
_cell_volume 2542.352562
_symmetry_space_group_name_H-M "C 2 2 21"
_symmetry_group_IT_number 20
_symmetry_cell_setting 'orthorhombic'
loop_
_space_group_symop_operation_xyz
x,y,z
-x,-y,1/2+z
x,-y,-z
-x,y,1/2-z
1/2+x,1/2+y,z
1/2-x,1/2-y,1/2+z
1/2+x,1/2-y,-z
1/2-x,1/2+y,1/2-z
loop_
_atom_site_type_symbol
_atom_site_label
_atom_site_fract_x
_atom_site_fract_y
_atom_site_fract_z
Si Si1 0.648414 0.861493 0.811399
Si Si2 0.500000 0.923617 0.250000
Si Si3 0.973730 0.514042 0.145474
Si Si4 0.245336 0.137946 0.911097
Si Si5 0.460940 0.283829 0.515193
Si Si6 0.997962 0.010794 0.570291
Si Si7 0.338728 0.298423 0.650481
Si Si8 0.247934 0.167167 0.665787
O O1 0.500000 0.846901 0.750000
O O2 0.601877 0.929122 0.824124
O O3 0.463128 0.823977 0.856021
O O4 0.956720 0.841160 0.815528
O O5 0.709802 0.879073 0.218605
O O6 0.404829 0.966712 0.196895
O O7 0.708678 0.530894 0.106750
O O8 0.208542 0.491208 0.101135
O O9 0.148299 0.072179 0.918425
O O10 0.548393 0.145970 0.886773
O O11 0.054153 0.166007 0.860293
O O12 0.174973 0.168467 0.972958
O O13 0.765584 0.271521 0.494970
O O14 0.455715 0.295108 0.584400
O O15 0.015946 0.000000 0.500000
O O16 0.324790 0.234028 0.678828
#
# Coordination Sequence:
#
# PCOD9321973 Si02
#       8
#     8   4   8   8   8   8   8   8
#     4  12  28  48  71  99 141 190 236 295 346 427
#     4  12  26  50  74 106 142 192 238 304 366 426
#     4  12  27  51  74 105 142 193 248 290 365 426
#     4  12  23  45  68 105 142 182 231 291 356 421
#     4  12  23  43  70 101 144 188 227 287 349 430
#     4  12  27  48  72 108 145 184 242 309 355 423
#     4  12  26  48  70 108 142 188 239 286 362 424
#     4  12  26  45  71 105 143 183 235 289 354 429
#
# _framework density 23.600186999999998
#
# number of rings (size 3 to 8) (size 9 to 14) (size 15 to 20)
#    0.000    0.000    6.000    3.200    5.600    2.133 
#    0.000    0.000    0.000    0.000    0.000    0.000 
#    0.000    0.000    0.000    0.000    0.000    0.000 
#
# Total GULP energy -167985.635331 kJ/mol
# GULP energy per Si atom -5599.521178 kJ/mol
# Density = 2.354647 g / cm^3
# Si number density = 23.600187 Si / 1000 Ang^3
#
#
#
# Elastic Constant Matrix: (Units=GPa)
#
#
# Indices 1 2 3 4 5 6 
#
# 1 93.5191 1.6768 23.8506 0.0000 0.0000 0.0000
# 2 1.6768 102.6619 17.5322 0.0000 0.0000 0.0000
# 3 23.8506 17.5322 133.0972 0.0000 0.0000 0.0000
# 4 0.0000 0.0000 0.0000 -575.8152 0.0000 0.0000
# 5 0.0000 0.0000 0.0000 0.0000 13.4035 0.0000
# 6 0.0000 0.0000 0.0000 0.0000 0.0000 44.3462
#
#
#
# Elastic Compliance Matrix: (Units=1/GPa)
#
#
# Indices 1 2 3 4 5 6 
#
# 1 0.011208 0.000164 -0.002030 0.000000 0.000000 0.000000
# 2 0.000164 0.009967 -0.001342 0.000000 0.000000 0.000000
# 3 -0.002030 -0.001342 0.008054 0.000000 0.000000 0.000000
# 4 0.000000 0.000000 0.000000 -0.001737 0.000000 0.000000
# 5 0.000000 0.000000 0.000000 0.000000 0.074608 0.000000
# 6 0.000000 0.000000 0.000000 0.000000 0.000000 0.022550
#
#
# Mechanical properties :
#
#
# Convention : Reuss Voigt Hill
#
# Bulk Modulus (GPa) = 43.83709 46.15525 44.99617
# Shear Modulus (GPa) = 36.05662 -84.53187 -24.23763
#
# Velocity S-wave (km/s) = 3.91296 -5.99133 -3.20818
# Velocity P-wave (km/s) = 6.24742 5.31618 2.32039
#
# Compressibility (1/GPa) = 0.02281173
#
# Stress axis : x y z
#
# Youngs Moduli (GPa) = 89.22379 100.32839 124.16384
#
# Poissons Ratio (x) = -0.01641 0.25205
# Poissons Ratio (y) = -0.01460 0.16666
# Poissons Ratio (z) = 0.18112 0.13467
#
# Static dielectric constant tensor:
#      x y z
#    x 5.099020 0.000000 0.000000 
#    y 0.000000 1.939110 0.000000 
#    z 0.000000 0.000000 1.821630 
# 
# From -- ./inp_files/26241.got.cif
#   From: 2010.05.17/outbox.cif.g08.bks.cpg/sg20_14_cif.got.tgz:26241.got - 2010.06.03 22:52:26.
