data_PCOD9321139
_publ_section_title
;
Structure prediction by ZEFSAII (Michael W. Deem and Ramdas Pophale) SiO2 
 PCOD9321139
Probable space group: C 2 2 21
;
_chemical_formula_sum "Si O2"
_cell_formula_units_Z 24
_cell_length_a 7.140220
_cell_length_b 7.530970
_cell_length_c 20.303326
_cell_angle_alpha 90.000000
_cell_angle_beta 90.000000
_cell_angle_gamma 90.000000
_cell_volume 1091.766335
_symmetry_space_group_name_H-M "C 2 2 21"
_symmetry_group_IT_number 20
_symmetry_cell_setting 'orthorhombic'
loop_
_space_group_symop_operation_xyz
x,y,z
-x,-y,1/2+z
x,-y,-z
-x,y,1/2-z
1/2+x,1/2+y,z
1/2-x,1/2-y,1/2+z
1/2+x,1/2-y,-z
1/2-x,1/2+y,1/2-z
loop_
_atom_site_type_symbol
_atom_site_label
_atom_site_fract_x
_atom_site_fract_y
_atom_site_fract_z
Si Si1 0.094164 0.000000 0.500000
Si Si2 0.000000 0.041000 0.750000
Si Si3 0.365886 0.805732 0.192469
Si Si4 0.958918 0.635249 0.553983
O O1 0.979147 0.835135 0.527449
O O2 0.241215 0.923513 0.445488
O O3 0.845061 0.150270 0.711357
O O4 0.901612 0.904671 0.800782
O O5 0.500000 0.882861 0.250000
O O6 0.434198 0.875657 0.122617
O O7 0.042557 0.500000 0.500000
#
# Coordination Sequence:
#
# PCOD9321139 Si02
#       4
#     4   4   8   8
#     4  10  26  40  70  96 134 174 224 280 336 410
#     4  10  26  38  72  90 140 170 232 272 344 402
#     4  10  26  44  67 102 134 184 222 287 335 410
#     4  10  26  43  70  99 137 178 230 279 343 402
#
# _framework density 21.982726
#
# number of rings (size 3 to 8) (size 9 to 14) (size 15 to 20)
#    2.000    0.000    0.000    0.000   14.000    0.000 
#    0.000    0.000    0.000    0.000    0.000    0.000 
#    0.000    0.000    0.000    0.000    0.000    0.000 
#
# Total GULP energy -66960.305488 kJ/mol
# GULP energy per Si atom -5580.025457 kJ/mol
# Density = 2.193269 g / cm^3
# Si number density = 21.982726 Si / 1000 Ang^3
#
#
#
# Elastic Constant Matrix: (Units=GPa)
#
#
# Indices 1 2 3 4 5 6 
#
# 1 74.0993 61.7995 10.5930 0.0000 0.0000 0.0000
# 2 61.7995 124.1570 48.0989 0.0000 0.0000 0.0000
# 3 10.5930 48.0989 129.7779 0.0000 0.0000 0.0000
# 4 0.0000 0.0000 0.0000 17.3212 0.0000 0.0000
# 5 0.0000 0.0000 0.0000 0.0000 -2.0953 0.0000
# 6 0.0000 0.0000 0.0000 0.0000 0.0000 27.7024
#
#
#
# Elastic Compliance Matrix: (Units=1/GPa)
#
#
# Indices 1 2 3 4 5 6 
#
# 1 0.023961 -0.013041 0.002878 0.000000 0.000000 0.000000
# 2 -0.013041 0.016503 -0.005052 0.000000 0.000000 0.000000
# 3 0.002878 -0.005052 0.009343 0.000000 0.000000 0.000000
# 4 0.000000 0.000000 0.000000 0.057733 0.000000 0.000000
# 5 0.000000 0.000000 0.000000 0.000000 -0.477254 0.000000
# 6 0.000000 0.000000 0.000000 0.000000 0.000000 0.036098
#
#
# Mechanical properties :
#
#
# Convention : Reuss Voigt Hill
#
# Bulk Modulus (GPa) = 51.61203 63.22412 57.41808
# Shear Modulus (GPa) = -16.85048 22.42185 2.78569
#
# Velocity S-wave (km/s) = -2.77164 3.19717 1.12693
# Velocity P-wave (km/s) = 3.64511 6.51556 5.27917
#
# Compressibility (1/GPa) = 0.01937533
#
# Stress axis : x y z
#
# Youngs Moduli (GPa) = 41.73530 60.59603 107.03293
#
# Poissons Ratio (x) = 0.79025 -0.30800
# Poissons Ratio (y) = 0.54428 0.54071
# Poissons Ratio (z) = -0.12010 0.30612
#
# Static dielectric constant tensor:
#      x y z
#    x 1.955100 0.000000 0.000000 
#    y 0.000000 1.798060 0.000000 
#    z 0.000000 0.000000 1.791370 
# 
# From -- ./inp_files/23035.got.cif
#   From: 2010.05.17/outbox.cif.g08.bks.cpg/sg20_12_cif.got.tgz:23035.got - 2010.06.03 22:52:26.
