data_PCOD9321851
_publ_section_title
;
Structure prediction by ZEFSAII (Michael W. Deem and Ramdas Pophale) SiO2 
 PCOD9321851
Probable space group: C 2 2 21
;
_chemical_formula_sum "Si O2"
_cell_formula_units_Z 40
_cell_length_a 21.103722
_cell_length_b 10.281785
_cell_length_c 7.755882
_cell_angle_alpha 90.000000
_cell_angle_beta 90.000000
_cell_angle_gamma 90.000000
_cell_volume 1682.901775
_symmetry_space_group_name_H-M "C 2 2 21"
_symmetry_group_IT_number 20
_symmetry_cell_setting 'orthorhombic'
loop_
_space_group_symop_operation_xyz
x,y,z
-x,-y,1/2+z
x,-y,-z
-x,y,1/2-z
1/2+x,1/2+y,z
1/2-x,1/2-y,1/2+z
1/2+x,1/2-y,-z
1/2-x,1/2+y,1/2-z
loop_
_atom_site_type_symbol
_atom_site_label
_atom_site_fract_x
_atom_site_fract_y
_atom_site_fract_z
Si Si1 0.996766 0.764810 0.040475
Si Si2 0.861521 0.803568 0.577894
Si Si3 0.579700 0.000000 0.500000
Si Si4 0.410614 0.500000 0.000000
Si Si5 0.682144 0.563259 0.762442
Si Si6 0.674245 0.959920 0.195814
O O1 0.963077 0.629096 0.994609
O O2 0.000000 0.783632 0.250000
O O3 0.960313 0.885513 0.951981
O O4 0.068406 0.764071 0.974385
O O5 0.820675 0.823845 0.403480
O O6 0.831558 0.695843 0.698358
O O7 0.859577 0.942808 0.667803
O O8 0.625261 0.013732 0.333973
O O9 0.358901 0.593713 0.903716
O O10 0.752538 0.511646 0.735052
O O11 0.659023 0.000000 0.000000
#
# Coordination Sequence:
#
# PCOD9321851 Si02
#       6
#     8   8   4   4   8   8
#     4  12  27  48  77 112 159 199 262 320 388 474
#     4  11  26  47  74 109 149 199 252 319 386 458
#     4  12  30  50  78 116 156 212 254 316 402 468
#     4  12  24  44  76 108 144 202 256 316 382 458
#     4  11  25  47  76 108 146 201 258 315 390 457
#     4  12  28  49  78 110 158 201 257 321 389 471
#
# _framework density 23.768470000000001
#
# number of rings (size 3 to 8) (size 9 to 14) (size 15 to 20)
#    0.000    0.400    3.000    4.800    7.000    3.200 
#    0.000    0.000    0.000    0.000    0.000    0.000 
#    0.000    0.000    0.000    0.000    0.000    0.000 
#
# Total GULP energy -111829.236204 kJ/mol
# GULP energy per Si atom -5591.461810 kJ/mol
# Density = 2.371437 g / cm^3
# Si number density = 23.768470 Si / 1000 Ang^3
#
#
#
# Elastic Constant Matrix: (Units=GPa)
#
#
# Indices 1 2 3 4 5 6 
#
# 1 148.2631 42.9932 50.1153 0.0000 0.0000 0.0000
# 2 42.9932 104.5632 -3.4794 0.0000 0.0000 0.0000
# 3 50.1153 -3.4794 64.9914 0.0000 0.0000 0.0000
# 4 0.0000 0.0000 0.0000 27.1409 0.0000 0.0000
# 5 0.0000 0.0000 0.0000 0.0000 13.4910 0.0000
# 6 0.0000 0.0000 0.0000 0.0000 0.0000 26.0459
#
#
#
# Elastic Compliance Matrix: (Units=1/GPa)
#
#
# Indices 1 2 3 4 5 6 
#
# 1 0.011157 -0.004882 -0.008865 0.000000 0.000000 0.000000
# 2 -0.004882 0.011717 0.004392 0.000000 0.000000 0.000000
# 3 -0.008865 0.004392 0.022457 0.000000 0.000000 0.000000
# 4 0.000000 0.000000 0.000000 0.036845 0.000000 0.000000
# 5 0.000000 0.000000 0.000000 0.000000 0.074123 0.000000
# 6 0.000000 0.000000 0.000000 0.000000 0.000000 0.038394
#
#
# Mechanical properties :
#
#
# Convention : Reuss Voigt Hill
#
# Bulk Modulus (GPa) = 37.56313 55.23065 46.39689
# Shear Modulus (GPa) = 22.49448 28.54814 25.52131
#
# Velocity S-wave (km/s) = 3.07970 3.46944 3.28036
# Velocity P-wave (km/s) = 5.33705 6.27190 5.82327
#
# Compressibility (1/GPa) = 0.02662185
#
# Stress axis : x y z
#
# Youngs Moduli (GPa) = 89.63058 85.34446 44.52898
#
# Poissons Ratio (x) = 0.41668 0.39473
# Poissons Ratio (y) = 0.43761 -0.19558
# Poissons Ratio (z) = 0.79453 -0.37484
#
# Static dielectric constant tensor:
#      x y z
#    x 1.816920 0.000000 0.000000 
#    y 0.000000 1.899360 0.000000 
#    z 0.000000 0.000000 1.388620 
# 
# From -- ./inp_files/9167.got.cif
#   From: 2010.05.17/outbox.cif.g08.bks.cpg/sg20_5_cif.got.tgz:9167.got - 2010.06.03 22:52:26.
