data_PCOD9321658
_publ_section_title
;
Structure prediction by ZEFSAII (Michael W. Deem and Ramdas Pophale) SiO2 
 PCOD9321658
Probable space group: C 2 2 21
;
_chemical_formula_sum "Si O2"
_cell_formula_units_Z 64
_cell_length_a 15.620054
_cell_length_b 11.523467
_cell_length_c 15.711850
_cell_angle_alpha 90.000000
_cell_angle_beta 90.000000
_cell_angle_gamma 90.000000
_cell_volume 2828.088642
_symmetry_space_group_name_H-M "C 2 2 21"
_symmetry_group_IT_number 20
_symmetry_cell_setting 'orthorhombic'
loop_
_space_group_symop_operation_xyz
x,y,z
-x,-y,1/2+z
x,-y,-z
-x,y,1/2-z
1/2+x,1/2+y,z
1/2-x,1/2-y,1/2+z
1/2+x,1/2-y,-z
1/2-x,1/2+y,1/2-z
loop_
_atom_site_type_symbol
_atom_site_label
_atom_site_fract_x
_atom_site_fract_y
_atom_site_fract_z
Si Si1 0.817783 0.038190 0.096419
Si Si2 0.608033 0.190079 0.874818
Si Si3 0.306077 0.947680 0.902741
Si Si4 0.649857 0.600052 0.846526
Si Si5 0.217871 0.204980 0.684259
Si Si6 0.506981 0.406464 0.846301
Si Si7 0.499629 0.979111 0.897815
Si Si8 0.847223 0.679754 0.435822
O O1 0.800440 0.921966 0.147995
O O2 0.738524 0.126018 0.104612
O O3 0.911114 0.082933 0.121057
O O4 0.822691 0.000000 0.000000
O O5 0.679780 0.211091 0.804046
O O6 0.558918 0.308138 0.895158
O O7 0.543157 0.088499 0.853529
O O8 0.651276 0.148877 0.963785
O O9 0.297954 0.809356 0.882971
O O10 0.402121 0.969176 0.869377
O O11 0.230401 0.012342 0.851376
O O12 0.300887 0.000000 0.000000
O O13 0.663685 0.694371 0.770811
O O14 0.563356 0.524486 0.843847
O O15 0.652460 0.682112 0.928342
O O16 0.500000 0.364083 0.750000
O O17 0.566828 0.873021 0.893308
O O18 0.493679 0.000000 0.000000
#
# Coordination Sequence:
#
# PCOD9321658 Si02
#       8
#     8   8   8   8   8   8   8   8
#     4  12  26  45  75 102 140 195 249 292 369 441
#     4  11  23  46  73 101 143 185 246 308 354 436
#     4  11  26  47  74 106 141 187 245 305 372 445
#     4  12  29  44  68 102 150 188 237 298 375 438
#     4  12  25  47  71  97 147 191 233 306 369 439
#     4  12  29  47  67 107 153 191 244 301 373 448
#     4   9  21  42  71 104 132 170 235 297 354 418
#     4  11  24  45  74 105 140 190 247 305 360 436
#
# _framework density 22.630125
#
# number of rings (size 3 to 8) (size 9 to 14) (size 15 to 20)
#    0.000    0.750    5.000    1.125    8.750    1.000 
#    0.000    1.250    0.000    0.000    0.000    0.000 
#    0.000    0.000    0.000    0.000    0.000    0.000 
#
# Total GULP energy -178720.300112 kJ/mol
# GULP energy per Si atom -5585.009379 kJ/mol
# Density = 2.257862 g / cm^3
# Si number density = 22.630125 Si / 1000 Ang^3
#
#
#
# Elastic Constant Matrix: (Units=GPa)
#
#
# Indices 1 2 3 4 5 6 
#
# 1 139.9380 35.2785 11.4141 0.0000 0.0000 0.0000
# 2 35.2785 84.5621 -0.5564 0.0000 0.0000 0.0000
# 3 11.4141 -0.5564 37.0405 0.0000 0.0000 0.0000
# 4 0.0000 0.0000 0.0000 17.9925 0.0000 0.0000
# 5 0.0000 0.0000 0.0000 0.0000 183.1666 0.0000
# 6 0.0000 0.0000 0.0000 0.0000 0.0000 33.3769
#
#
#
# Elastic Compliance Matrix: (Units=1/GPa)
#
#
# Indices 1 2 3 4 5 6 
#
# 1 0.008227 -0.003449 -0.002587 0.000000 0.000000 0.000000
# 2 -0.003449 0.013273 0.001262 0.000000 0.000000 0.000000
# 3 -0.002587 0.001262 0.027814 0.000000 0.000000 0.000000
# 4 0.000000 0.000000 0.000000 0.055579 0.000000 0.000000
# 5 0.000000 0.000000 0.000000 0.000000 0.005460 0.000000
# 6 0.000000 0.000000 0.000000 0.000000 0.000000 0.029961
#
#
# Mechanical properties :
#
#
# Convention : Reuss Voigt Hill
#
# Bulk Modulus (GPa) = 25.14737 39.31256 32.22997
# Shear Modulus (GPa) = 30.65331 61.26750 45.96040
#
# Velocity S-wave (km/s) = 3.68439 5.20886 4.51148
# Velocity P-wave (km/s) = 5.40705 7.32023 6.43513
#
# Compressibility (1/GPa) = 0.03976559
#
# Stress axis : x y z
#
# Youngs Moduli (GPa) = 121.55798 75.34184 35.95368
#
# Poissons Ratio (x) = 0.25986 0.09301
# Poissons Ratio (y) = 0.41926 -0.04538
# Poissons Ratio (z) = 0.31445 -0.09510
#
# Static dielectric constant tensor:
#      x y z
#    x 1.884950 0.000000 0.000000 
#    y 0.000000 -1.894390 0.000000 
#    z 0.000000 0.000000 1.942280 
# 
# From -- ./inp_files/24997.got.cif
#   From: 2010.05.17/outbox.cif.g08.bks.cpg/sg20_13_cif.got.tgz:24997.got - 2010.06.03 22:52:26.
