data_PCOD9321726
_publ_section_title
;
Structure prediction by ZEFSAII (Michael W. Deem and Ramdas Pophale) SiO2 
 PCOD9321726
Probable space group: C 2 2 21
;
_chemical_formula_sum "Si O2"
_cell_formula_units_Z 52
_cell_length_a 5.194705
_cell_length_b 15.480073
_cell_length_c 23.004135
_cell_angle_alpha 90.000000
_cell_angle_beta 90.000000
_cell_angle_gamma 90.000000
_cell_volume 1849.864004
_symmetry_space_group_name_H-M "C 2 2 21"
_symmetry_group_IT_number 20
_symmetry_cell_setting 'orthorhombic'
loop_
_space_group_symop_operation_xyz
x,y,z
-x,-y,1/2+z
x,-y,-z
-x,y,1/2-z
1/2+x,1/2+y,z
1/2-x,1/2-y,1/2+z
1/2+x,1/2-y,-z
1/2-x,1/2+y,1/2-z
loop_
_atom_site_type_symbol
_atom_site_label
_atom_site_fract_x
_atom_site_fract_y
_atom_site_fract_z
Si Si1 0.749529 0.689119 0.716527
Si Si2 0.255509 0.481589 0.783145
Si Si3 0.603095 0.854137 0.380757
Si Si4 0.988263 0.282669 0.906038
Si Si5 0.759127 0.350531 0.487000
Si Si6 0.577361 0.956598 0.618806
Si Si7 0.351675 0.500000 0.500000
O O1 0.500000 0.724213 0.750000
O O2 0.734565 0.585040 0.723296
O O3 0.854897 0.689838 0.650059
O O4 0.000000 0.721854 0.750000
O O5 0.500000 0.444487 0.750000
O O6 0.207965 0.462953 0.851473
O O7 0.000000 0.450471 0.750000
O O8 0.840871 0.790197 0.375166
O O9 0.505510 0.869496 0.446337
O O10 0.677665 0.949635 0.356971
O O11 0.837150 0.238604 0.958913
O O12 0.853293 0.356864 0.868081
O O13 0.194473 0.338041 0.945042
O O14 0.547203 0.424819 0.478424
O O15 0.677829 0.964443 0.552633
#
# Coordination Sequence:
#
# PCOD9321726 Si02
#       7
#     8   8   8   8   8   8   4
#     4   9  20  38  67  99 132 178 241 306 369 441
#     4   9  20  41  69  99 138 188 249 308 374 453
#     4  11  24  43  68  96 136 189 240 295 372 451
#     4  12  24  43  64  99 141 183 237 296 368 441
#     4  12  24  42  66  96 145 186 236 299 369 454
#     4  11  24  43  70 104 140 190 248 305 380 460
#     4  12  24  42  72 108 150 194 252 310 388 474
#
# _framework density 28.110173
#
# number of rings (size 3 to 8) (size 9 to 14) (size 15 to 20)
#    0.000    1.231    3.077    2.769    2.154    4.923 
#    0.000    0.769    0.000    0.000    0.000    0.000 
#    0.000    0.000    0.000    0.000    0.000    0.000 
#
# Total GULP energy -145240.438269 kJ/mol
# GULP energy per Si atom -5586.170703 kJ/mol
# Density = 2.804619 g / cm^3
# Si number density = 28.110173 Si / 1000 Ang^3
#
#
#
# Elastic Constant Matrix: (Units=GPa)
#
#
# Indices 1 2 3 4 5 6 
#
# 1 96.7725 10.4936 -1.0037 0.0000 0.0000 0.0000
# 2 10.4936 179.1245 -18.3001 0.0000 0.0000 0.0000
# 3 -1.0037 -18.3001 110.3949 0.0000 0.0000 0.0000
# 4 0.0000 0.0000 0.0000 19.4814 0.0000 0.0000
# 5 0.0000 0.0000 0.0000 0.0000 44.0511 0.0000
# 6 0.0000 0.0000 0.0000 0.0000 0.0000 29.0691
#
#
#
# Elastic Compliance Matrix: (Units=1/GPa)
#
#
# Indices 1 2 3 4 5 6 
#
# 1 0.010400 -0.000610 -0.000007 0.000000 0.000000 0.000000
# 2 -0.000610 0.005715 0.000942 0.000000 0.000000 0.000000
# 3 -0.000007 0.000942 0.009214 0.000000 0.000000 0.000000
# 4 0.000000 0.000000 0.000000 0.051331 0.000000 0.000000
# 5 0.000000 0.000000 0.000000 0.000000 0.022701 0.000000
# 6 0.000000 0.000000 0.000000 0.000000 0.000000 0.034401
#
#
# Mechanical properties :
#
#
# Convention : Reuss Voigt Hill
#
# Bulk Modulus (GPa) = 38.49215 40.96348 39.72782
# Shear Modulus (GPa) = 35.26830 44.86049 40.06439
#
# Velocity S-wave (km/s) = 3.54594 3.99918 3.77936
# Velocity P-wave (km/s) = 5.52159 5.99406 5.76267
#
# Compressibility (1/GPa) = 0.02597932
#
# Stress axis : x y z
#
# Youngs Moduli (GPa) = 96.15775 174.98871 108.52521
#
# Poissons Ratio (x) = 0.10673 0.00071
# Poissons Ratio (y) = 0.05865 -0.10221
# Poissons Ratio (z) = 0.00063 -0.16480
#
# Static dielectric constant tensor:
#      x y z
#    x 2.234490 0.000000 0.000000 
#    y 0.000000 2.268930 0.000000 
#    z 0.000000 0.000000 2.379050 
# 
# From -- ./inp_files/29889.got.cif
#   From: 2010.05.17/outbox.cif.g08.bks.cpg/sg20_15_cif.got.tgz:29889.got - 2010.06.03 22:52:26.
