data_PCOD9321719
_publ_section_title
;
Structure prediction by ZEFSAII (Michael W. Deem and Ramdas Pophale) SiO2 
 PCOD9321719
Probable space group: C 2 2 21
;
_chemical_formula_sum "Si O2"
_cell_formula_units_Z 32
_cell_length_a 9.045068
_cell_length_b 21.022089
_cell_length_c 6.759051
_cell_angle_alpha 90.000000
_cell_angle_beta 90.000000
_cell_angle_gamma 90.000000
_cell_volume 1285.208029
_symmetry_space_group_name_H-M "C 2 2 21"
_symmetry_group_IT_number 20
_symmetry_cell_setting 'orthorhombic'
loop_
_space_group_symop_operation_xyz
x,y,z
-x,-y,1/2+z
x,-y,-z
-x,y,1/2-z
1/2+x,1/2+y,z
1/2-x,1/2-y,1/2+z
1/2+x,1/2-y,-z
1/2-x,1/2+y,1/2-z
loop_
_atom_site_type_symbol
_atom_site_label
_atom_site_fract_x
_atom_site_fract_y
_atom_site_fract_z
Si Si1 0.727208 0.940813 0.846373
Si Si2 0.932732 0.410741 0.034115
Si Si3 0.293758 0.299803 0.397666
Si Si4 0.610067 0.323001 0.544525
O O1 0.672105 0.950972 0.620352
O O2 0.861829 0.892543 0.866646
O O3 0.587746 0.901539 0.927337
O O4 0.745755 0.000000 0.000000
O O5 0.840405 0.346408 0.049137
O O6 0.000000 0.432839 0.250000
O O7 0.437727 0.302632 0.539508
O O8 0.224861 0.230071 0.378927
O O9 0.347531 0.325500 0.187079
#
# Coordination Sequence:
#
# PCOD9321719 Si02
#       4
#     8   8   8   8
#     4  11  26  45  73 108 150 199 258 314 387 470
#     4  11  24  44  74 108 143 197 252 324 384 457
#     4  11  24  42  73 106 154 195 257 329 393 460
#     4  11  24  44  68 110 149 202 260 318 392 467
#
# _framework density 24.898692
#
# number of rings (size 3 to 8) (size 9 to 14) (size 15 to 20)
#    0.000    1.000    2.500    3.000    3.500    7.000 
#    0.000    6.250    0.000    0.000    0.000    0.000 
#    0.000    0.000    0.000    0.000    0.000    0.000 
#
# Total GULP energy -89285.405062 kJ/mol
# GULP energy per Si atom -5580.337816 kJ/mol
# Density = 2.484202 g / cm^3
# Si number density = 24.898692 Si / 1000 Ang^3
#
#
#
# Elastic Constant Matrix: (Units=GPa)
#
#
# Indices 1 2 3 4 5 6 
#
# 1 159.6735 98.3434 49.6120 0.0000 0.0000 0.0000
# 2 98.3434 157.0219 61.9151 0.0000 0.0000 0.0000
# 3 49.6120 61.9151 132.1568 0.0000 0.0000 0.0000
# 4 0.0000 0.0000 0.0000 37.6264 0.0000 0.0000
# 5 0.0000 0.0000 0.0000 0.0000 -20.7373 0.0000
# 6 0.0000 0.0000 0.0000 0.0000 0.0000 4.6516
#
#
#
# Elastic Compliance Matrix: (Units=1/GPa)
#
#
# Indices 1 2 3 4 5 6 
#
# 1 0.010310 -0.006049 -0.001037 0.000000 0.000000 0.000000
# 2 -0.006049 0.011360 -0.003051 0.000000 0.000000 0.000000
# 3 -0.001037 -0.003051 0.009386 0.000000 0.000000 0.000000
# 4 0.000000 0.000000 0.000000 0.026577 0.000000 0.000000
# 5 0.000000 0.000000 0.000000 0.000000 -0.048222 0.000000
# 6 0.000000 0.000000 0.000000 0.000000 0.000000 0.214980
#
#
# Mechanical properties :
#
#
# Convention : Reuss Voigt Hill
#
# Bulk Modulus (GPa) = 92.74517 96.51035 94.62776
# Shear Modulus (GPa) = 20.14035 20.24025 20.19030
#
# Velocity S-wave (km/s) = 2.84719 2.85424 2.85072
# Velocity P-wave (km/s) = 6.93819 7.05036 6.99450
#
# Compressibility (1/GPa) = 0.01078223
#
# Stress axis : x y z
#
# Youngs Moduli (GPa) = 96.99116 88.02831 106.54635
#
# Poissons Ratio (x) = 0.53244 0.11046
# Poissons Ratio (y) = 0.58665 0.32513
# Poissons Ratio (z) = 0.10056 0.26862
#
# Static dielectric constant tensor:
#      x y z
#    x 1.887220 0.000000 0.000000 
#    y 0.000000 1.921310 0.000000 
#    z 0.000000 0.000000 2.178050 
# 
# From -- ./inp_files/1715.got.cif
#   From: 2010.05.17/outbox.cif.g08.bks.cpg/sg20_1_cif.got.tgz:1715.got - 2010.06.03 22:52:26.
