data_PCOD9321429
_publ_section_title
;
Structure prediction by ZEFSAII (Michael W. Deem and Ramdas Pophale) SiO2 
 PCOD9321429
Probable space group: C 2 2 21
;
_chemical_formula_sum "Si O2"
_cell_formula_units_Z 48
_cell_length_a 13.837002
_cell_length_b 16.032664
_cell_length_c 9.761983
_cell_angle_alpha 90.000000
_cell_angle_beta 90.000000
_cell_angle_gamma 90.000000
_cell_volume 2165.637394
_symmetry_space_group_name_H-M "C 2 2 21"
_symmetry_group_IT_number 20
_symmetry_cell_setting 'orthorhombic'
loop_
_space_group_symop_operation_xyz
x,y,z
-x,-y,1/2+z
x,-y,-z
-x,y,1/2-z
1/2+x,1/2+y,z
1/2-x,1/2-y,1/2+z
1/2+x,1/2-y,-z
1/2-x,1/2+y,1/2-z
loop_
_atom_site_type_symbol
_atom_site_label
_atom_site_fract_x
_atom_site_fract_y
_atom_site_fract_z
Si Si1 0.854151 0.295001 0.090570
Si Si2 0.291187 0.973162 0.150915
Si Si3 0.081268 0.551925 0.140986
Si Si4 0.756193 0.240378 0.833565
Si Si5 0.934606 0.728550 0.494106
Si Si6 0.897193 0.884887 0.298954
O O1 0.843000 0.383440 0.165193
O O2 0.783185 0.236388 0.181901
O O3 0.809030 0.303023 0.937896
O O4 0.964346 0.269049 0.075117
O O5 0.177172 0.954229 0.151023
O O6 0.321528 0.032181 0.274981
O O7 0.322029 0.000000 0.000000
O O8 0.063888 0.648535 0.105437
O O9 0.000000 0.524896 0.250000
O O10 0.077313 0.500000 0.000000
O O11 0.835118 0.166961 0.814178
O O12 0.657512 0.216908 0.909714
O O13 0.920182 0.814108 0.411530
O O14 0.000000 0.917520 0.250000
#
# Coordination Sequence:
#
# PCOD9321429 Si02
#       6
#     8   8   8   8   8   8
#     4  11  23  40  67 100 138 171 228 282 347 409
#     4  11  25  44  66  95 139 180 224 282 347 415
#     4  12  25  41  67 100 138 180 221 283 356 420
#     4  11  22  40  66 102 134 171 219 289 339 400
#     4  12  23  40  70 100 133 178 230 281 348 406
#     4  11  23  42  68  94 132 173 225 284 334 404
#
# _framework density 22.164375
#
# number of rings (size 3 to 8) (size 9 to 14) (size 15 to 20)
#    0.000    0.667    5.000    5.500    2.333    0.000 
#    0.000    2.500    3.667    0.000    0.000    0.000 
#    0.000    0.000    0.000    0.000    0.000    0.000 
#
# Total GULP energy -134091.282743 kJ/mol
# GULP energy per Si atom -5587.136781 kJ/mol
# Density = 2.211393 g / cm^3
# Si number density = 22.164375 Si / 1000 Ang^3
#
#
#
# Elastic Constant Matrix: (Units=GPa)
#
#
# Indices 1 2 3 4 5 6 
#
# 1 149.8712 4.4163 30.7351 0.0000 0.0000 0.0000
# 2 4.4163 24.4933 20.8617 0.0000 0.0000 0.0000
# 3 30.7351 20.8617 108.9605 0.0000 0.0000 0.0000
# 4 0.0000 0.0000 0.0000 31.1281 0.0000 0.0000
# 5 0.0000 0.0000 0.0000 0.0000 47.8827 0.0000
# 6 0.0000 0.0000 0.0000 0.0000 0.0000 18.9555
#
#
#
# Elastic Compliance Matrix: (Units=1/GPa)
#
#
# Indices 1 2 3 4 5 6 
#
# 1 0.007087 0.000508 -0.002096 0.000000 0.000000 0.000000
# 2 0.000508 0.048819 -0.009490 0.000000 0.000000 0.000000
# 3 -0.002096 -0.009490 0.011586 0.000000 0.000000 0.000000
# 4 0.000000 0.000000 0.000000 0.032125 0.000000 0.000000
# 5 0.000000 0.000000 0.000000 0.000000 0.020884 0.000000
# 6 0.000000 0.000000 0.000000 0.000000 0.000000 0.052755
#
#
# Mechanical properties :
#
#
# Convention : Reuss Voigt Hill
#
# Bulk Modulus (GPa) = 22.05818 43.92790 32.99304
# Shear Modulus (GPa) = 23.74998 34.74739 29.24868
#
# Velocity S-wave (km/s) = 3.27699 3.96373 3.63661
# Velocity P-wave (km/s) = 4.92868 6.38830 5.70536
#
# Compressibility (1/GPa) = 0.04533466
#
# Stress axis : x y z
#
# Youngs Moduli (GPa) = 141.09641 20.48380 86.31130
#
# Poissons Ratio (x) = -0.01040 0.18094
# Poissons Ratio (y) = -0.07163 0.81911
# Poissons Ratio (z) = 0.29579 0.19439
#
# Static dielectric constant tensor:
#      x y z
#    x 1.834340 0.000000 0.000000 
#    y 0.000000 1.833400 0.000000 
#    z 0.000000 0.000000 1.875930 
# 
# From -- ./inp_files/8414.got.cif
#   From: 2010.05.17/outbox.cif.g08.bks.cpg/sg20_5_cif.got.tgz:8414.got - 2010.06.03 22:52:26.
