data_PCOD9321853
_publ_section_title
;
Structure prediction by ZEFSAII (Michael W. Deem and Ramdas Pophale) SiO2 
 PCOD9321853
Probable space group: C 2 2 21
;
_chemical_formula_sum "Si O2"
_cell_formula_units_Z 28
_cell_length_a 12.321435
_cell_length_b 7.366871
_cell_length_c 13.566534
_cell_angle_alpha 90.000000
_cell_angle_beta 90.000000
_cell_angle_gamma 90.000000
_cell_volume 1231.440019
_symmetry_space_group_name_H-M "C 2 2 21"
_symmetry_group_IT_number 20
_symmetry_cell_setting 'orthorhombic'
loop_
_space_group_symop_operation_xyz
x,y,z
-x,-y,1/2+z
x,-y,-z
-x,y,1/2-z
1/2+x,1/2+y,z
1/2-x,1/2-y,1/2+z
1/2+x,1/2-y,-z
1/2-x,1/2+y,1/2-z
loop_
_atom_site_type_symbol
_atom_site_label
_atom_site_fract_x
_atom_site_fract_y
_atom_site_fract_z
Si Si1 0.066562 0.493707 0.116404
Si Si2 0.675998 0.921898 0.610660
Si Si3 0.000000 0.836186 0.750000
Si Si4 0.218596 0.960379 0.297787
O O1 0.047091 0.295337 0.164815
O O2 0.178200 0.570533 0.159068
O O3 0.951493 0.586577 0.138450
O O4 0.076818 0.500000 0.000000
O O5 0.716435 0.719725 0.635244
O O6 0.685473 0.000000 0.500000
O O7 0.740172 0.053799 0.684951
O O8 0.899636 0.950163 0.793315
#
# Coordination Sequence:
#
# PCOD9321853 Si02
#       4
#     8   8   4   8
#     4  11  25  48  73 107 149 190 251 307 369 439
#     4  11  25  49  76 110 148 195 248 307 374 438
#     4  12  26  48  74 114 146 196 250 298 376 442
#     4  12  25  49  77 105 155 189 246 310 368 443
#
# _framework density 22.73761
#
# number of rings (size 3 to 8) (size 9 to 14) (size 15 to 20)
#    0.000    0.571    5.714    0.000    4.000    6.857 
#    5.143    1.429    0.000    0.000    0.000    0.000 
#    0.000    0.000    0.000    0.000    0.000    0.000 
#
# Total GULP energy -78161.314866 kJ/mol
# GULP energy per Si atom -5582.951062 kJ/mol
# Density = 2.268586 g / cm^3
# Si number density = 22.737610 Si / 1000 Ang^3
#
#
#
# Elastic Constant Matrix: (Units=GPa)
#
#
# Indices 1 2 3 4 5 6 
#
# 1 202.6475 48.4901 53.4839 0.0000 0.0000 0.0000
# 2 48.4901 84.1240 58.3198 0.0000 0.0000 0.0000
# 3 53.4839 58.3198 125.8768 0.0000 0.0000 0.0000
# 4 0.0000 0.0000 0.0000 28.9157 0.0000 0.0000
# 5 0.0000 0.0000 0.0000 0.0000 24.6773 0.0000
# 6 0.0000 0.0000 0.0000 0.0000 0.0000 38.5061
#
#
#
# Elastic Compliance Matrix: (Units=1/GPa)
#
#
# Indices 1 2 3 4 5 6 
#
# 1 0.005880 -0.002441 -0.001367 0.000000 0.000000 0.000000
# 2 -0.002441 0.018526 -0.007546 0.000000 0.000000 0.000000
# 3 -0.001367 -0.007546 0.012021 0.000000 0.000000 0.000000
# 4 0.000000 0.000000 0.000000 0.034583 0.000000 0.000000
# 5 0.000000 0.000000 0.000000 0.000000 0.040523 0.000000
# 6 0.000000 0.000000 0.000000 0.000000 0.000000 0.025970
#
#
# Mechanical properties :
#
#
# Convention : Reuss Voigt Hill
#
# Bulk Modulus (GPa) = 72.89701 81.47067 77.18384
# Shear Modulus (GPa) = 30.34277 35.24345 32.79311
#
# Velocity S-wave (km/s) = 3.65701 3.94128 3.80180
# Velocity P-wave (km/s) = 7.06833 7.52464 7.30005
#
# Compressibility (1/GPa) = 0.01371798
#
# Stress axis : x y z
#
# Youngs Moduli (GPa) = 170.07764 53.97931 83.18658
#
# Poissons Ratio (x) = 0.13178 0.11373
# Poissons Ratio (y) = 0.41522 0.62771
# Poissons Ratio (z) = 0.23252 0.40732
#
# Static dielectric constant tensor:
#      x y z
#    x 1.872760 0.000000 0.000000 
#    y 0.000000 1.880420 0.000000 
#    z 0.000000 0.000000 1.871920 
# 
# From -- ./inp_files/19462.got.cif
#   From: 2010.05.17/outbox.cif.g08.bks.cpg/sg20_10_cif.got.tgz:19462.got - 2010.06.03 22:52:26.
