data_PCOD9321484
_publ_section_title
;
Structure prediction by ZEFSAII (Michael W. Deem and Ramdas Pophale) SiO2 
 PCOD9321484
Probable space group: C 2 2 21
;
_chemical_formula_sum "Si O2"
_cell_formula_units_Z 36
_cell_length_a 23.719238
_cell_length_b 4.689994
_cell_length_c 12.535338
_cell_angle_alpha 90.000000
_cell_angle_beta 90.000000
_cell_angle_gamma 90.000000
_cell_volume 1394.469657
_symmetry_space_group_name_H-M "C 2 2 21"
_symmetry_group_IT_number 20
_symmetry_cell_setting 'orthorhombic'
loop_
_space_group_symop_operation_xyz
x,y,z
-x,-y,1/2+z
x,-y,-z
-x,y,1/2-z
1/2+x,1/2+y,z
1/2-x,1/2-y,1/2+z
1/2+x,1/2-y,-z
1/2-x,1/2+y,1/2-z
loop_
_atom_site_type_symbol
_atom_site_label
_atom_site_fract_x
_atom_site_fract_y
_atom_site_fract_z
Si Si1 0.219010 0.281765 0.298281
Si Si2 0.029845 0.000000 0.500000
Si Si3 0.414143 0.688729 0.208371
Si Si4 0.938982 0.299495 0.646264
Si Si5 0.228967 0.500000 0.000000
Si Si6 0.847335 0.000000 0.500000
O O1 0.237217 0.603346 0.275104
O O2 0.152701 0.235734 0.285327
O O3 0.234779 0.171737 0.415389
O O4 0.065157 0.811499 0.585688
O O5 0.989249 0.791918 0.431175
O O6 0.560808 0.884330 0.194725
O O7 0.433389 0.378740 0.245910
O O8 0.884704 0.185922 0.580809
O O9 0.190005 0.748653 0.948923
#
# Coordination Sequence:
#
# PCOD9321484 Si02
#       6
#     8   4   8   8   4   4
#     4  12  25  44  72 107 147 193 240 296 365 438
#     4  11  29  50  78 112 148 196 253 313 378 440
#     4  12  26  49  75 109 150 194 247 309 372 444
#     4  11  26  47  75 106 145 195 247 307 373 444
#     4  12  23  40  69 106 147 192 243 302 360 436
#     4  11  22  42  71 106 147 196 248 297 360 440
#
# _framework density 25.816268000000001
#
# number of rings (size 3 to 8) (size 9 to 14) (size 15 to 20)
#    0.000    0.444    0.000    9.333    0.000    8.889 
#    0.000    6.667    0.000    0.000    0.000    0.000 
#    0.000    0.000    0.000    0.000    0.000    0.000 
#
# Total GULP energy -100788.169384 kJ/mol
# GULP energy per Si atom -5599.342744 kJ/mol
# Density = 2.575751 g / cm^3
# Si number density = 25.816268 Si / 1000 Ang^3
#
#
#
# Elastic Constant Matrix: (Units=GPa)
#
#
# Indices 1 2 3 4 5 6 
#
# 1 151.5416 2.7125 61.1188 0.0000 0.0000 0.0000
# 2 2.7125 55.5767 -14.2427 0.0000 0.0000 0.0000
# 3 61.1188 -14.2427 141.7683 0.0000 0.0000 0.0000
# 4 0.0000 0.0000 0.0000 47.8561 0.0000 0.0000
# 5 0.0000 0.0000 0.0000 0.0000 45.9783 0.0000
# 6 0.0000 0.0000 0.0000 0.0000 0.0000 16.0545
#
#
#
# Elastic Compliance Matrix: (Units=1/GPa)
#
#
# Indices 1 2 3 4 5 6 
#
# 1 0.008081 -0.001321 -0.003617 0.000000 0.000000 0.000000
# 2 -0.001321 0.018685 0.002447 0.000000 0.000000 0.000000
# 3 -0.003617 0.002447 0.008859 0.000000 0.000000 0.000000
# 4 0.000000 0.000000 0.000000 0.020896 0.000000 0.000000
# 5 0.000000 0.000000 0.000000 0.000000 0.021749 0.000000
# 6 0.000000 0.000000 0.000000 0.000000 0.000000 0.062288
#
#
# Mechanical properties :
#
#
# Convention : Reuss Voigt Hill
#
# Bulk Modulus (GPa) = 32.63461 49.78484 41.20973
# Shear Modulus (GPa) = 32.10184 41.93097 37.01641
#
# Velocity S-wave (km/s) = 3.53012 4.03452 3.79072
# Velocity P-wave (km/s) = 5.41149 6.40541 5.92931
#
# Compressibility (1/GPa) = 0.03064231
#
# Stress axis : x y z
#
# Youngs Moduli (GPa) = 123.74478 53.51980 112.88230
#
# Poissons Ratio (x) = 0.07071 0.40826
# Poissons Ratio (y) = 0.16350 -0.27620
# Poissons Ratio (z) = 0.44754 -0.13095
#
# Static dielectric constant tensor:
#      x y z
#    x 2.030170 0.000000 0.000000 
#    y 0.000000 1.951670 0.000000 
#    z 0.000000 0.000000 2.176350 
# 
# From -- ./inp_files/21911.got.cif
#   From: 2010.05.17/outbox.cif.g08.bks.cpg/sg20_11_cif.got.tgz:21911.got - 2010.06.03 22:52:26.
