data_PCOD9321168
_publ_section_title
;
Structure prediction by ZEFSAII (Michael W. Deem and Ramdas Pophale) SiO2 
 PCOD9321168
Probable space group: C 2 2 21
;
_chemical_formula_sum "Si O2"
_cell_formula_units_Z 60
_cell_length_a 8.583598
_cell_length_b 11.553553
_cell_length_c 25.536936
_cell_angle_alpha 90.000000
_cell_angle_beta 90.000000
_cell_angle_gamma 90.000000
_cell_volume 2532.524870
_symmetry_space_group_name_H-M "C 2 2 21"
_symmetry_group_IT_number 20
_symmetry_cell_setting 'orthorhombic'
loop_
_space_group_symop_operation_xyz
x,y,z
-x,-y,1/2+z
x,-y,-z
-x,y,1/2-z
1/2+x,1/2+y,z
1/2-x,1/2-y,1/2+z
1/2+x,1/2-y,-z
1/2-x,1/2+y,1/2-z
loop_
_atom_site_type_symbol
_atom_site_label
_atom_site_fract_x
_atom_site_fract_y
_atom_site_fract_z
Si Si1 0.502057 0.711867 0.097478
Si Si2 0.650435 0.093881 0.542092
Si Si3 0.500000 0.133441 0.750000
Si Si4 0.898429 0.524887 0.152549
Si Si5 0.803492 0.857336 0.138751
Si Si6 0.507925 0.541145 0.948256
Si Si7 0.211311 0.619888 0.161377
Si Si8 0.783945 0.703804 0.222620
O O1 0.440589 0.786106 0.047654
O O2 0.648186 0.785846 0.120583
O O3 0.544477 0.580435 0.081571
O O4 0.349518 0.696047 0.135794
O O5 0.834832 0.103460 0.532448
O O6 0.589922 0.000000 0.500000
O O7 0.643882 0.043082 0.600991
O O8 0.363693 0.218474 0.733888
O O9 0.544787 0.057146 0.699861
O O10 0.765996 0.597979 0.182205
O O11 0.041375 0.608732 0.135178
O O12 0.883994 0.793331 0.187897
O O13 0.912706 0.875312 0.089099
O O14 0.767886 0.987210 0.157686
O O15 0.416429 0.500000 0.000000
O O16 0.173338 0.654646 0.221077
#
# Coordination Sequence:
#
# PCOD9321168 Si02
#       8
#     8   8   4   8   8   8   8   8
#     4  11  24  46  73  98 143 195 229 297 373 421
#     4  11  25  47  71 105 141 186 246 303 360 437
#     4  12  24  48  66 102 150 184 238 306 356 446
#     4  12  23  45  69 102 142 184 246 299 354 448
#     4  11  23  46  69 101 142 189 233 295 361 436
#     4  10  26  47  69 109 143 179 249 304 357 446
#     4  11  23  42  68 104 137 184 241 285 356 440
#     4  12  22  36  71  94 134 187 222 290 369 409
#
# _framework density 23.691770000000002
#
# number of rings (size 3 to 8) (size 9 to 14) (size 15 to 20)
#    0.000    0.800    4.000    2.400    1.867    4.800 
#    4.800    0.000    5.867    0.000    0.000    0.000 
#    0.000    0.000    0.000    0.000    0.000    0.000 
#
# Total GULP energy -167466.415050 kJ/mol
# GULP energy per Si atom -5582.213835 kJ/mol
# Density = 2.363785 g / cm^3
# Si number density = 23.691770 Si / 1000 Ang^3
#
#
#
# Elastic Constant Matrix: (Units=GPa)
#
#
# Indices 1 2 3 4 5 6 
#
# 1 56.3240 36.0449 10.3119 0.0000 0.0000 0.0000
# 2 36.0449 101.1329 10.5536 0.0000 0.0000 0.0000
# 3 10.3119 10.5536 94.4536 0.0000 0.0000 0.0000
# 4 0.0000 0.0000 0.0000 20.3398 0.0000 0.0000
# 5 0.0000 0.0000 0.0000 0.0000 34.0612 0.0000
# 6 0.0000 0.0000 0.0000 0.0000 0.0000 68.7112
#
#
#
# Elastic Compliance Matrix: (Units=1/GPa)
#
#
# Indices 1 2 3 4 5 6 
#
# 1 0.023246 -0.008115 -0.001631 0.000000 0.000000 0.000000
# 2 -0.008115 0.012838 -0.000548 0.000000 0.000000 0.000000
# 3 -0.001631 -0.000548 0.010827 0.000000 0.000000 0.000000
# 4 0.000000 0.000000 0.000000 0.049165 0.000000 0.000000
# 5 0.000000 0.000000 0.000000 0.000000 0.029359 0.000000
# 6 0.000000 0.000000 0.000000 0.000000 0.000000 0.014554
#
#
# Mechanical properties :
#
#
# Convention : Reuss Voigt Hill
#
# Bulk Modulus (GPa) = 37.99234 40.63684 39.31459
# Shear Modulus (GPa) = 29.52454 37.62245 33.57350
#
# Velocity S-wave (km/s) = 3.53398 3.98929 3.76852
# Velocity P-wave (km/s) = 5.72039 6.19748 5.96371
#
# Compressibility (1/GPa) = 0.02632110
#
# Stress axis : x y z
#
# Youngs Moduli (GPa) = 43.01752 77.89672 92.36537
#
# Poissons Ratio (x) = 0.63214 0.15067
# Poissons Ratio (y) = 0.34909 0.05066
# Poissons Ratio (z) = 0.07017 0.04272
#
# Static dielectric constant tensor:
#      x y z
#    x 2.005060 0.000000 0.000000 
#    y 0.000000 1.937380 0.000000 
#    z 0.000000 0.000000 1.857440 
# 
# From -- ./inp_files/30165.got.cif
#   From: 2010.05.17/outbox.cif.g08.bks.cpg/sg20_16_cif.got.tgz:30165.got - 2010.06.03 22:52:26.
