data_PCOD9321625
_publ_section_title
;
Structure prediction by ZEFSAII (Michael W. Deem and Ramdas Pophale) SiO2 
 PCOD9321625
Probable space group: C 2 2 21
;
_chemical_formula_sum "Si O2"
_cell_formula_units_Z 52
_cell_length_a 19.916736
_cell_length_b 8.726677
_cell_length_c 14.517278
_cell_angle_alpha 90.000000
_cell_angle_beta 90.000000
_cell_angle_gamma 90.000000
_cell_volume 2523.203405
_symmetry_space_group_name_H-M "C 2 2 21"
_symmetry_group_IT_number 20
_symmetry_cell_setting 'orthorhombic'
loop_
_space_group_symop_operation_xyz
x,y,z
-x,-y,1/2+z
x,-y,-z
-x,y,1/2-z
1/2+x,1/2+y,z
1/2-x,1/2-y,1/2+z
1/2+x,1/2-y,-z
1/2-x,1/2+y,1/2-z
loop_
_atom_site_type_symbol
_atom_site_label
_atom_site_fract_x
_atom_site_fract_y
_atom_site_fract_z
Si Si1 0.701823 0.479997 0.176473
Si Si2 0.797626 0.653277 0.667833
Si Si3 0.576237 0.670714 0.729174
Si Si4 0.269048 0.000000 0.000000
Si Si5 0.940655 0.506289 0.688163
Si Si6 0.016768 0.500000 0.500000
Si Si7 0.216665 0.000000 0.500000
Si Si8 0.624273 0.755522 0.528648
O O1 0.756543 0.414395 0.246572
O O2 0.704921 0.663395 0.169807
O O3 0.630235 0.424246 0.213136
O O4 0.722115 0.420207 0.075207
O O5 0.874753 0.605134 0.675378
O O6 0.762321 0.576064 0.578664
O O7 0.500000 0.619622 0.750000
O O8 0.597180 0.675749 0.621615
O O9 0.579002 0.847623 0.762137
O O10 0.319612 0.116035 0.051022
O O11 0.000000 0.577965 0.750000
O O12 0.972555 0.469922 0.589310
O O13 0.064160 0.351877 0.483933
O O14 0.165033 0.866592 0.532209
#
# Coordination Sequence:
#
# PCOD9321625 Si02
#       8
#     8   8   8   4   8   4   4   8
#     4  12  26  44  72 103 143 185 240 298 358 419
#     4  12  27  44  70 106 137 187 238 295 358 429
#     4  11  23  49  72 101 143 187 237 300 355 420
#     4  11  24  40  70 104 137 182 238 288 353 428
#     4  11  24  43  70 101 144 190 236 294 352 426
#     4  11  23  44  72 100 144 190 236 288 364 430
#     4  12  25  46  70 106 143 178 242 304 357 416
#     4  11  23  45  70 103 138 189 235 291 363 422
#
# _framework density 20.608723000000001
#
# number of rings (size 3 to 8) (size 9 to 14) (size 15 to 20)
#    0.000    0.615    6.154    2.308    6.462    1.846 
#    2.769    0.000    0.000    0.000    0.000    0.000 
#    0.000    0.000    0.000    0.000    0.000    0.000 
#
# Total GULP energy -145289.783277 kJ/mol
# GULP energy per Si atom -5588.068588 kJ/mol
# Density = 2.056182 g / cm^3
# Si number density = 20.608723 Si / 1000 Ang^3
#
#
#
# Elastic Constant Matrix: (Units=GPa)
#
#
# Indices 1 2 3 4 5 6 
#
# 1 147.3113 59.4400 32.0718 0.0000 0.0000 0.0000
# 2 59.4400 51.4755 13.5677 0.0000 0.0000 0.0000
# 3 32.0718 13.5677 81.3142 0.0000 0.0000 0.0000
# 4 0.0000 0.0000 0.0000 25.8220 0.0000 0.0000
# 5 0.0000 0.0000 0.0000 0.0000 38.5185 0.0000
# 6 0.0000 0.0000 0.0000 0.0000 0.0000 26.4545
#
#
#
# Elastic Compliance Matrix: (Units=1/GPa)
#
#
# Indices 1 2 3 4 5 6 
#
# 1 0.013296 -0.014613 -0.002806 0.000000 0.000000 0.000000
# 2 -0.014613 0.036382 -0.000307 0.000000 0.000000 0.000000
# 3 -0.002806 -0.000307 0.013456 0.000000 0.000000 0.000000
# 4 0.000000 0.000000 0.000000 0.038727 0.000000 0.000000
# 5 0.000000 0.000000 0.000000 0.000000 0.025962 0.000000
# 6 0.000000 0.000000 0.000000 0.000000 0.000000 0.037801
#
#
# Mechanical properties :
#
#
# Convention : Reuss Voigt Hill
#
# Bulk Modulus (GPa) = 36.12488 54.47335 45.29911
# Shear Modulus (GPa) = 23.77543 29.82710 26.80126
#
# Velocity S-wave (km/s) = 3.40024 3.80847 3.61013
# Velocity P-wave (km/s) = 5.74304 6.76970 6.27739
#
# Compressibility (1/GPa) = 0.02768175
#
# Stress axis : x y z
#
# Youngs Moduli (GPa) = 75.21256 27.48617 74.31736
#
# Poissons Ratio (x) = 0.40166 0.20852
# Poissons Ratio (y) = 1.09910 0.02280
# Poissons Ratio (z) = 0.21103 0.00843
#
# Static dielectric constant tensor:
#      x y z
#    x 1.728590 0.000000 0.000000 
#    y 0.000000 1.747790 0.000000 
#    z 0.000000 0.000000 1.754270 
# 
# From -- ./inp_files/21744.got.cif
#   From: 2010.05.17/outbox.cif.g08.bks.cpg/sg20_11_cif.got.tgz:21744.got - 2010.06.03 22:52:26.
