data_PCOD9321865
_publ_section_title
;
Structure prediction by ZEFSAII (Michael W. Deem and Ramdas Pophale) SiO2 
 PCOD9321865
Probable space group: C 2 2 21
;
_chemical_formula_sum "Si O2"
_cell_formula_units_Z 56
_cell_length_a 14.184658
_cell_length_b 12.991985
_cell_length_c 11.789321
_cell_angle_alpha 90.000000
_cell_angle_beta 90.000000
_cell_angle_gamma 90.000000
_cell_volume 2172.616995
_symmetry_space_group_name_H-M "C 2 2 21"
_symmetry_group_IT_number 20
_symmetry_cell_setting 'orthorhombic'
loop_
_space_group_symop_operation_xyz
x,y,z
-x,-y,1/2+z
x,-y,-z
-x,y,1/2-z
1/2+x,1/2+y,z
1/2-x,1/2-y,1/2+z
1/2+x,1/2-y,-z
1/2-x,1/2+y,1/2-z
loop_
_atom_site_type_symbol
_atom_site_label
_atom_site_fract_x
_atom_site_fract_y
_atom_site_fract_z
Si Si1 0.924254 0.694300 0.069706
Si Si2 0.616544 0.500000 0.000000
Si Si3 0.770058 0.357123 0.090600
Si Si4 0.982757 0.838046 0.865101
Si Si5 0.695502 0.928611 0.173277
Si Si6 0.597917 0.465705 0.371082
Si Si7 0.853207 0.649206 0.428186
Si Si8 0.500000 0.304459 0.250000
O O1 0.915882 0.734222 0.199998
O O2 0.033350 0.659963 0.081737
O O3 0.835995 0.631902 0.022186
O O4 0.932527 0.774528 0.964151
O O5 0.686377 0.560983 0.917378
O O6 0.560502 0.410435 0.928872
O O7 0.829755 0.386152 0.203028
O O8 0.715437 0.246776 0.094551
O O9 0.000000 0.774124 0.750000
O O10 0.913962 0.925136 0.812730
O O11 0.807571 0.912459 0.165346
O O12 0.676361 0.048638 0.143916
O O13 0.655953 0.870153 0.063878
O O14 0.609343 0.500000 0.500000
O O15 0.508991 0.391051 0.348805
#
# Coordination Sequence:
#
# PCOD9321865 Si02
#       8
#     8   4   8   8   8   8   8   4
#     4  12  27  46  74 110 152 220 262 325 412 494
#     4  12  26  48  70 120 160 202 266 352 414 484
#     4  12  28  48  80 117 160 204 282 339 420 501
#     4  12  24  42  73 108 150 195 261 336 402 474
#     4  11  26  47  75 109 158 210 259 344 406 504
#     4  12  20  39  72 108 145 202 266 325 416 471
#     4  11  25  50  73 110 157 208 271 324 422 496
#     4  12  24  42  70 108 158 198 260 330 400 484
#
# _framework density 25.775365000000001
#
# number of rings (size 3 to 8) (size 9 to 14) (size 15 to 20)
#    0.000    0.286    5.714    3.429    2.000    3.429 
#    0.000    0.000    0.000    0.000    0.000    0.000 
#    0.000    0.000    0.000    0.000    0.000    0.000 
#
# Total GULP energy -155985.469691 kJ/mol
# GULP energy per Si atom -5570.909632 kJ/mol
# Density = 2.571670 g / cm^3
# Si number density = 25.775365 Si / 1000 Ang^3
#
#
#
# Elastic Constant Matrix: (Units=GPa)
#
#
# Indices 1 2 3 4 5 6 
#
# 1 133.9493 22.0484 16.7507 0.0000 0.0000 0.0000
# 2 22.0484 57.8850 9.3986 0.0000 0.0000 0.0000
# 3 16.7507 9.3986 129.0133 0.0000 0.0000 0.0000
# 4 0.0000 0.0000 0.0000 40.3919 0.0000 0.0000
# 5 0.0000 0.0000 0.0000 0.0000 31.3636 0.0000
# 6 0.0000 0.0000 0.0000 0.0000 0.0000 36.3921
#
#
#
# Elastic Compliance Matrix: (Units=1/GPa)
#
#
# Indices 1 2 3 4 5 6 
#
# 1 0.008052 -0.002932 -0.000832 0.000000 0.000000 0.000000
# 2 -0.002932 0.018550 -0.000971 0.000000 0.000000 0.000000
# 3 -0.000832 -0.000971 0.007930 0.000000 0.000000 0.000000
# 4 0.000000 0.000000 0.000000 0.024757 0.000000 0.000000
# 5 0.000000 0.000000 0.000000 0.000000 0.031884 0.000000
# 6 0.000000 0.000000 0.000000 0.000000 0.000000 0.027478
#
#
# Mechanical properties :
#
#
# Convention : Reuss Voigt Hill
#
# Bulk Modulus (GPa) = 39.89954 46.36033 43.12993
# Shear Modulus (GPa) = 36.63660 39.80616 38.22138
#
# Velocity S-wave (km/s) = 3.77421 3.93408 3.85498
# Velocity P-wave (km/s) = 5.87420 6.21783 6.04845
#
# Compressibility (1/GPa) = 0.02506295
#
# Stress axis : x y z
#
# Youngs Moduli (GPa) = 124.19036 53.90823 126.10563
#
# Poissons Ratio (x) = 0.15806 0.10490
# Poissons Ratio (y) = 0.36413 0.12241
# Poissons Ratio (z) = 0.10331 0.05233
#
# Static dielectric constant tensor:
#      x y z
#    x 2.163160 0.000000 0.000000 
#    y 0.000000 2.165120 0.000000 
#    z 0.000000 0.000000 2.249690 
# 
# From -- ./inp_files/15164.got.cif
#   From: 2010.05.17/outbox.cif.g08.bks.cpg/sg20_8_cif.got.tgz:15164.got - 2010.06.03 22:52:26.
