data_PCOD9321618
_publ_section_title
;
Structure prediction by ZEFSAII (Michael W. Deem and Ramdas Pophale) SiO2 
 PCOD9321618
Probable space group: C 2 2 21
;
_chemical_formula_sum "Si O2"
_cell_formula_units_Z 32
_cell_length_a 16.004410
_cell_length_b 9.276260
_cell_length_c 10.147821
_cell_angle_alpha 90.000000
_cell_angle_beta 90.000000
_cell_angle_gamma 90.000000
_cell_volume 1506.556347
_symmetry_space_group_name_H-M "C 2 2 21"
_symmetry_group_IT_number 20
_symmetry_cell_setting 'orthorhombic'
loop_
_space_group_symop_operation_xyz
x,y,z
-x,-y,1/2+z
x,-y,-z
-x,y,1/2-z
1/2+x,1/2+y,z
1/2-x,1/2-y,1/2+z
1/2+x,1/2-y,-z
1/2-x,1/2+y,1/2-z
loop_
_atom_site_type_symbol
_atom_site_label
_atom_site_fract_x
_atom_site_fract_y
_atom_site_fract_z
Si Si1 0.514061 0.164014 0.537505
Si Si2 0.639723 0.205590 0.763755
Si Si3 0.272824 0.497184 0.345334
Si Si4 0.950986 0.096640 0.630430
O O1 0.589003 0.224378 0.627142
O O2 0.429617 0.176742 0.624675
O O3 0.497289 0.257155 0.407675
O O4 0.530505 0.000000 0.500000
O O5 0.693049 0.346786 0.801257
O O6 0.699770 0.069046 0.741949
O O7 0.248681 0.500000 0.500000
O O8 0.353774 0.392365 0.335821
O O9 0.000000 0.024519 0.750000
O O10 0.955106 0.000000 0.500000
#
# Coordination Sequence:
#
# PCOD9321618 Si02
#       4
#     8   8   8   8
#     4  11  25  45  70 102 142 185 234 286 354 425
#     4  11  25  45  71 100 145 183 235 296 351 418
#     4  11  24  43  69 103 142 177 236 293 354 418
#     4  11  23  44  70 100 140 183 231 286 350 423
#
# _framework density 21.240494000000002
#
# number of rings (size 3 to 8) (size 9 to 14) (size 15 to 20)
#    0.000    1.000    5.000    2.250    7.000    2.000 
#    0.000    3.750    0.000    0.000    0.000    0.000 
#    0.000    0.000    0.000    0.000    0.000    0.000 
#
# Total GULP energy -89483.019823 kJ/mol
# GULP energy per Si atom -5592.688739 kJ/mol
# Density = 2.119215 g / cm^3
# Si number density = 21.240494 Si / 1000 Ang^3
#
#
#
# Elastic Constant Matrix: (Units=GPa)
#
#
# Indices 1 2 3 4 5 6 
#
# 1 86.5894 27.5385 42.3180 0.0000 0.0000 0.0000
# 2 27.5385 104.3327 18.1218 0.0000 0.0000 0.0000
# 3 42.3180 18.1218 78.1109 0.0000 0.0000 0.0000
# 4 0.0000 0.0000 0.0000 24.0589 0.0000 0.0000
# 5 0.0000 0.0000 0.0000 0.0000 9.9899 0.0000
# 6 0.0000 0.0000 0.0000 0.0000 0.0000 15.9589
#
#
#
# Elastic Compliance Matrix: (Units=1/GPa)
#
#
# Indices 1 2 3 4 5 6 
#
# 1 0.016522 -0.002924 -0.008273 0.000000 0.000000 0.000000
# 2 -0.002924 0.010505 -0.000853 0.000000 0.000000 0.000000
# 3 -0.008273 -0.000853 0.017482 0.000000 0.000000 0.000000
# 4 0.000000 0.000000 0.000000 0.041565 0.000000 0.000000
# 5 0.000000 0.000000 0.000000 0.000000 0.100101 0.000000
# 6 0.000000 0.000000 0.000000 0.000000 0.000000 0.062661
#
#
# Mechanical properties :
#
#
# Convention : Reuss Voigt Hill
#
# Bulk Modulus (GPa) = 48.99721 49.44328 49.22024
# Shear Modulus (GPa) = 17.87392 22.07187 19.97289
#
# Velocity S-wave (km/s) = 2.90401 3.22707 3.06979
# Velocity P-wave (km/s) = 5.86194 6.10030 5.98231
#
# Compressibility (1/GPa) = 0.02040932
#
# Stress axis : x y z
#
# Youngs Moduli (GPa) = 60.52676 95.19589 57.20181
#
# Poissons Ratio (x) = 0.27835 0.47320
# Poissons Ratio (y) = 0.17698 0.04879
# Poissons Ratio (z) = 0.50071 0.08120
#
# Static dielectric constant tensor:
#      x y z
#    x 1.761550 0.000000 0.000000 
#    y 0.000000 1.781010 0.000000 
#    z 0.000000 0.000000 1.756080 
# 
# From -- ./inp_files/12462.got.cif
#   From: 2010.05.17/outbox.cif.g08.bks.cpg/sg20_7_cif.got.tgz:12462.got - 2010.06.03 22:52:26.
