data_PCOD9321241
_publ_section_title
;
Structure prediction by ZEFSAII (Michael W. Deem and Ramdas Pophale) SiO2 
 PCOD9321241
Probable space group: C 2 2 21
;
_chemical_formula_sum "Si O2"
_cell_formula_units_Z 64
_cell_length_a 16.698700
_cell_length_b 11.904094
_cell_length_c 16.537759
_cell_angle_alpha 90.000000
_cell_angle_beta 90.000000
_cell_angle_gamma 90.000000
_cell_volume 3287.423602
_symmetry_space_group_name_H-M "C 2 2 21"
_symmetry_group_IT_number 20
_symmetry_cell_setting 'orthorhombic'
loop_
_space_group_symop_operation_xyz
x,y,z
-x,-y,1/2+z
x,-y,-z
-x,y,1/2-z
1/2+x,1/2+y,z
1/2-x,1/2-y,1/2+z
1/2+x,1/2-y,-z
1/2-x,1/2+y,1/2-z
loop_
_atom_site_type_symbol
_atom_site_label
_atom_site_fract_x
_atom_site_fract_y
_atom_site_fract_z
Si Si1 0.250501 0.907316 0.321438
Si Si2 0.575880 0.709559 0.288776
Si Si3 0.202881 0.262251 0.958255
Si Si4 0.690291 0.691896 0.131818
Si Si5 0.651504 0.574808 0.429642
Si Si6 0.611517 0.964501 0.909402
Si Si7 0.231061 0.454442 0.363864
Si Si8 0.954487 0.530912 0.831108
O O1 0.239105 0.780328 0.349976
O O2 0.247142 0.914532 0.226065
O O3 0.190626 0.989265 0.366048
O O4 0.337658 0.956006 0.348989
O O5 0.500000 0.649366 0.250000
O O6 0.638598 0.705965 0.214159
O O7 0.600288 0.653604 0.372384
O O8 0.552370 0.835906 0.313688
O O9 0.277402 0.349001 0.967114
O O10 0.141413 0.335094 0.902831
O O11 0.242341 0.149032 0.921191
O O12 0.160457 0.234145 0.043843
O O13 0.718384 0.565794 0.119741
O O14 0.612998 0.500000 0.500000
O O15 0.518595 0.991428 0.897185
O O16 0.634505 0.000000 0.000000
O O17 0.137215 0.491759 0.358454
O O18 0.000000 0.483809 0.750000
#
# Coordination Sequence:
#
# PCOD9321241 Si02
#       8
#     8   8   8   8   8   8   8   8
#     4  11  19  38  64  93 120 174 224 272 327 412
#     4  11  23  40  68  93 129 178 230 274 344 429
#     4  11  23  40  63 103 133 171 227 284 344 412
#     4  12  22  41  66  95 135 176 225 281 338 423
#     4  11  20  40  68  95 126 172 232 284 329 404
#     4  11  22  40  67  94 131 172 224 282 345 413
#     4  12  24  38  67 101 139 176 230 288 349 405
#     4  11  22  39  66 100 131 171 227 283 350 405
#
# _framework density 19.468132000000001
#
# number of rings (size 3 to 8) (size 9 to 14) (size 15 to 20)
#    0.000    0.750    7.500    1.875    1.750    1.000 
#    0.000    1.250    2.750    0.000    0.000    0.000 
#    0.000    0.000    0.000    0.000    0.000    0.000 
#
# Total GULP energy -178210.042203 kJ/mol
# GULP energy per Si atom -5569.063819 kJ/mol
# Density = 1.942382 g / cm^3
# Si number density = 19.468132 Si / 1000 Ang^3
#
#
#
# Elastic Constant Matrix: (Units=GPa)
#
#
# Indices 1 2 3 4 5 6 
#
# 1 57.3638 20.1083 18.1220 0.0000 0.0000 0.0000
# 2 20.1083 100.1061 23.2122 0.0000 0.0000 0.0000
# 3 18.1220 23.2122 100.6952 0.0000 0.0000 0.0000
# 4 0.0000 0.0000 0.0000 23.8672 0.0000 0.0000
# 5 0.0000 0.0000 0.0000 0.0000 19.7548 0.0000
# 6 0.0000 0.0000 0.0000 0.0000 0.0000 17.8503
#
#
#
# Elastic Compliance Matrix: (Units=1/GPa)
#
#
# Indices 1 2 3 4 5 6 
#
# 1 0.019446 -0.003269 -0.002746 0.000000 0.000000 0.000000
# 2 -0.003269 0.011103 -0.001971 0.000000 0.000000 0.000000
# 3 -0.002746 -0.001971 0.010880 0.000000 0.000000 0.000000
# 4 0.000000 0.000000 0.000000 0.041899 0.000000 0.000000
# 5 0.000000 0.000000 0.000000 0.000000 0.050621 0.000000
# 6 0.000000 0.000000 0.000000 0.000000 0.000000 0.056021
#
#
# Mechanical properties :
#
#
# Convention : Reuss Voigt Hill
#
# Bulk Modulus (GPa) = 39.28380 42.33889 40.81135
# Shear Modulus (GPa) = 23.31786 25.40929 24.36358
#
# Velocity S-wave (km/s) = 3.46460 3.61664 3.54143
# Velocity P-wave (km/s) = 6.01888 6.26379 6.14256
#
# Compressibility (1/GPa) = 0.02545578
#
# Stress axis : x y z
#
# Youngs Moduli (GPa) = 51.42401 90.06429 91.91565
#
# Poissons Ratio (x) = 0.29446 0.25240
# Poissons Ratio (y) = 0.16813 0.18118
# Poissons Ratio (z) = 0.14121 0.17753
#
# Static dielectric constant tensor:
#      x y z
#    x 1.751700 0.000000 0.000000 
#    y 0.000000 1.696300 0.000000 
#    z 0.000000 0.000000 1.745210 
# 
# From -- ./inp_files/21491.got.cif
#   From: 2010.05.17/outbox.cif.g08.bks.cpg/sg20_11_cif.got.tgz:21491.got - 2010.06.03 22:52:26.
