data_PCOD9321652
_publ_section_title
;
Structure prediction by ZEFSAII (Michael W. Deem and Ramdas Pophale) SiO2 
 PCOD9321652
Probable space group: C 2 2 21
;
_chemical_formula_sum "Si O2"
_cell_formula_units_Z 32
_cell_length_a 14.014958
_cell_length_b 5.523760
_cell_length_c 16.944423
_cell_angle_alpha 90.000000
_cell_angle_beta 90.000000
_cell_angle_gamma 90.000000
_cell_volume 1311.756987
_symmetry_space_group_name_H-M "C 2 2 21"
_symmetry_group_IT_number 20
_symmetry_cell_setting 'orthorhombic'
loop_
_space_group_symop_operation_xyz
x,y,z
-x,-y,1/2+z
x,-y,-z
-x,y,1/2-z
1/2+x,1/2+y,z
1/2-x,1/2-y,1/2+z
1/2+x,1/2-y,-z
1/2-x,1/2+y,1/2-z
loop_
_atom_site_type_symbol
_atom_site_label
_atom_site_fract_x
_atom_site_fract_y
_atom_site_fract_z
Si Si1 0.000000 0.847210 0.750000
Si Si2 0.637380 0.010223 0.195231
Si Si3 0.319553 0.500000 0.000000
Si Si4 0.631096 0.248838 0.041174
Si Si5 0.349591 0.324594 0.161760
O O1 0.946264 0.680503 0.686815
O O2 0.918196 0.999172 0.790844
O O3 0.614554 0.228332 0.134946
O O4 0.641706 0.080299 0.287514
O O5 0.738666 0.899476 0.170771
O O6 0.245803 0.705782 0.031494
O O7 0.374184 0.367196 0.070512
O O8 0.604585 0.500000 0.000000
O O9 0.592401 0.000000 0.000000
#
# Coordination Sequence:
#
# PCOD9321652 Si02
#       5
#     4   8   4   8   8
#     4  12  26  44  70 112 136 192 254 300 368 456
#     4  11  24  42  73 102 143 194 245 308 371 441
#     4   8  22  40  70 110 140 198 240 310 370 434
#     4   9  21  39  69 109 140 188 248 296 370 442
#     4  11  23  45  76 102 148 193 248 306 376 440
#
# _framework density 24.394762
#
# number of rings (size 3 to 8) (size 9 to 14) (size 15 to 20)
#    0.750    1.000    2.500    0.750    7.000    0.000 
#    0.000    5.000    0.000    0.000    0.000    0.000 
#    0.000    0.000    0.000    0.000    0.000    0.000 
#
# Total GULP energy -89349.647918 kJ/mol
# GULP energy per Si atom -5584.352995 kJ/mol
# Density = 2.433924 g / cm^3
# Si number density = 24.394762 Si / 1000 Ang^3
#
#
#
# Elastic Constant Matrix: (Units=GPa)
#
#
# Indices 1 2 3 4 5 6 
#
# 1 78.4272 11.8816 -7.8209 0.0000 0.0000 0.0000
# 2 11.8816 61.7189 -0.6049 0.0000 0.0000 0.0000
# 3 -7.8209 -0.6049 116.9348 0.0000 0.0000 0.0000
# 4 0.0000 0.0000 0.0000 32.5669 0.0000 0.0000
# 5 0.0000 0.0000 0.0000 0.0000 2.1031 0.0000
# 6 0.0000 0.0000 0.0000 0.0000 0.0000 3649.7318
#
#
#
# Elastic Compliance Matrix: (Units=1/GPa)
#
#
# Indices 1 2 3 4 5 6 
#
# 1 0.013222 -0.002537 0.000871 0.000000 0.000000 0.000000
# 2 -0.002537 0.016690 -0.000083 0.000000 0.000000 0.000000
# 3 0.000871 -0.000083 0.008610 0.000000 0.000000 0.000000
# 4 0.000000 0.000000 0.000000 0.030706 0.000000 0.000000
# 5 0.000000 0.000000 0.000000 0.000000 0.475479 0.000000
# 6 0.000000 0.000000 0.000000 0.000000 0.000000 0.000274
#
#
# Mechanical properties :
#
#
# Convention : Reuss Voigt Hill
#
# Bulk Modulus (GPa) = 28.55218 29.33250 28.94234
# Shear Modulus (GPa) = 8.92613 753.78871 381.35742
#
# Velocity S-wave (km/s) = 1.91494 17.59736 12.51667
# Velocity P-wave (km/s) = 4.07663 20.61406 14.85864
#
# Compressibility (1/GPa) = 0.03502360
#
# Stress axis : x y z
#
# Youngs Moduli (GPa) = 75.63219 59.91596 116.14929
#
# Poissons Ratio (x) = 0.15200 -0.10119
# Poissons Ratio (y) = 0.19187 0.00968
# Poissons Ratio (z) = -0.06589 0.00499
#
# Static dielectric constant tensor:
#      x y z
#    x 1.906610 0.000000 0.000000 
#    y 0.000000 1.977280 0.000000 
#    z 0.000000 0.000000 -31.907380 
# 
# From -- ./inp_files/24639.got.cif
#   From: 2010.05.17/outbox.cif.g08.bks.cpg/sg20_13_cif.got.tgz:24639.got - 2010.06.03 22:52:26.
