data_PCOD9321366
_publ_section_title
;
Structure prediction by ZEFSAII (Michael W. Deem and Ramdas Pophale) SiO2 
 PCOD9321366
Probable space group: C 2 2 21
;
_chemical_formula_sum "Si O2"
_cell_formula_units_Z 40
_cell_length_a 10.674497
_cell_length_b 20.495656
_cell_length_c 8.733653
_cell_angle_alpha 90.000000
_cell_angle_beta 90.000000
_cell_angle_gamma 90.000000
_cell_volume 1910.755752
_symmetry_space_group_name_H-M "C 2 2 21"
_symmetry_group_IT_number 20
_symmetry_cell_setting 'orthorhombic'
loop_
_space_group_symop_operation_xyz
x,y,z
-x,-y,1/2+z
x,-y,-z
-x,y,1/2-z
1/2+x,1/2+y,z
1/2-x,1/2-y,1/2+z
1/2+x,1/2-y,-z
1/2-x,1/2+y,1/2-z
loop_
_atom_site_type_symbol
_atom_site_label
_atom_site_fract_x
_atom_site_fract_y
_atom_site_fract_z
Si Si1 0.362903 0.454286 0.237986
Si Si2 0.974443 0.604228 0.078931
Si Si3 0.783527 0.500000 0.000000
Si Si4 0.676350 0.000000 0.000000
Si Si5 0.868270 0.804688 0.168826
Si Si6 0.383929 0.777508 0.135814
O O1 0.500000 0.483654 0.250000
O O2 0.303270 0.451630 0.404945
O O3 0.268368 0.497102 0.142194
O O4 0.370960 0.383167 0.164375
O O5 0.000000 0.630533 0.250000
O O6 0.092350 0.565150 0.008270
O O7 0.873977 0.546142 0.097553
O O8 0.924018 0.657193 0.958741
O O9 0.744559 0.785454 0.267031
O O10 0.000000 0.785137 0.250000
O O11 0.863928 0.775012 0.999062
O O12 0.500000 0.762234 0.250000
#
# Coordination Sequence:
#
# PCOD9321366 Si02
#       6
#     8   8   4   4   8   8
#     4  11  23  42  65  95 143 187 229 285 355 439
#     4  11  23  39  71 103 139 173 232 305 360 414
#     4  11  21  42  64 102 135 181 228 290 362 413
#     4  11  23  40  66 106 133 179 236 302 360 419
#     4  11  25  45  69 102 144 193 241 294 355 431
#     4  12  25  46  73 101 140 191 246 299 360 425
#
# _framework density 20.934123
#
# number of rings (size 3 to 8) (size 9 to 14) (size 15 to 20)
#    0.000    0.800    4.000    3.600    0.000    1.600 
#    0.000    1.000    0.000    0.000    0.000    0.000 
#    0.000    0.000    0.000    0.000    0.000    0.000 
#
# Total GULP energy -111697.552651 kJ/mol
# GULP energy per Si atom -5584.877633 kJ/mol
# Density = 2.088648 g / cm^3
# Si number density = 20.934123 Si / 1000 Ang^3
#
#
#
# Elastic Constant Matrix: (Units=GPa)
#
#
# Indices 1 2 3 4 5 6 
#
# 1 172.4315 26.3673 70.0535 0.0000 0.0000 0.0000
# 2 26.3673 81.6877 33.3786 0.0000 0.0000 0.0000
# 3 70.0535 33.3786 119.5452 0.0000 0.0000 0.0000
# 4 0.0000 0.0000 0.0000 21.4229 0.0000 0.0000
# 5 0.0000 0.0000 0.0000 0.0000 35.6071 0.0000
# 6 0.0000 0.0000 0.0000 0.0000 0.0000 16.8293
#
#
#
# Elastic Compliance Matrix: (Units=1/GPa)
#
#
# Indices 1 2 3 4 5 6 
#
# 1 0.007649 -0.000719 -0.004281 0.000000 0.000000 0.000000
# 2 -0.000719 0.013886 -0.003456 0.000000 0.000000 0.000000
# 3 -0.004281 -0.003456 0.011839 0.000000 0.000000 0.000000
# 4 0.000000 0.000000 0.000000 0.046679 0.000000 0.000000
# 5 0.000000 0.000000 0.000000 0.000000 0.028084 0.000000
# 6 0.000000 0.000000 0.000000 0.000000 0.000000 0.059420
#
#
# Mechanical properties :
#
#
# Convention : Reuss Voigt Hill
#
# Bulk Modulus (GPa) = 60.75031 70.36259 65.55645
# Shear Modulus (GPa) = 26.32179 31.02951 28.67565
#
# Velocity S-wave (km/s) = 3.54978 3.85417 3.70510
# Velocity P-wave (km/s) = 6.77377 7.31373 7.04892
#
# Compressibility (1/GPa) = 0.01646082
#
# Stress axis : x y z
#
# Youngs Moduli (GPa) = 130.73971 72.01517 84.46870
#
# Poissons Ratio (x) = 0.05181 0.36164
# Poissons Ratio (y) = 0.09407 0.29188
# Poissons Ratio (z) = 0.55974 0.24885
#
# Static dielectric constant tensor:
#      x y z
#    x 1.767480 0.000000 0.000000 
#    y 0.000000 1.735710 0.000000 
#    z 0.000000 0.000000 1.803050 
# 
# From -- ./inp_files/6300.got.cif
#   From: 2010.05.17/outbox.cif.g08.bks.cpg/sg20_4_cif.got.tgz:6300.got - 2010.06.03 22:52:26.
