data_PCOD9321118
_publ_section_title
;
Structure prediction by ZEFSAII (Michael W. Deem and Ramdas Pophale) SiO2 
 PCOD9321118
Probable space group: C 2 2 21
;
_chemical_formula_sum "Si O2"
_cell_formula_units_Z 32
_cell_length_a 7.505028
_cell_length_b 10.749116
_cell_length_c 17.622922
_cell_angle_alpha 90.000000
_cell_angle_beta 90.000000
_cell_angle_gamma 90.000000
_cell_volume 1421.683705
_symmetry_space_group_name_H-M "C 2 2 21"
_symmetry_group_IT_number 20
_symmetry_cell_setting 'orthorhombic'
loop_
_space_group_symop_operation_xyz
x,y,z
-x,-y,1/2+z
x,-y,-z
-x,y,1/2-z
1/2+x,1/2+y,z
1/2-x,1/2-y,1/2+z
1/2+x,1/2-y,-z
1/2-x,1/2+y,1/2-z
loop_
_atom_site_type_symbol
_atom_site_label
_atom_site_fract_x
_atom_site_fract_y
_atom_site_fract_z
Si Si1 0.300978 0.874646 0.281446
Si Si2 0.524473 0.880418 0.550876
Si Si3 0.897387 0.784515 0.582067
Si Si4 0.262863 0.638344 0.181039
O O1 0.500000 0.892967 0.250000
O O2 0.315416 0.828952 0.368299
O O3 0.228889 0.757090 0.234417
O O4 0.210650 0.008410 0.275415
O O5 0.733261 0.876815 0.570175
O O6 0.473140 0.763519 0.497745
O O7 0.404164 0.878108 0.625313
O O8 0.485538 0.000000 0.500000
O O9 0.061083 0.835338 0.631431
#
# Coordination Sequence:
#
# PCOD9321118 Si02
#       4
#     8   8   8   8
#     4  10  25  48  72 108 147 191 246 300 369 437
#     4  12  25  44  74 105 147 192 248 304 363 436
#     4  11  25  46  71 109 140 194 246 298 368 437
#     4  11  25  50  75 107 152 192 244 308 364 436
#
# _framework density 22.508520999999998
#
# number of rings (size 3 to 8) (size 9 to 14) (size 15 to 20)
#    0.000    1.000    5.000    0.000    3.500    3.000 
#   13.500    0.000    0.000    0.000    0.000    0.000 
#    0.000    0.000    0.000    0.000    0.000    0.000 
#
# Total GULP energy -89569.232881 kJ/mol
# GULP energy per Si atom -5598.077055 kJ/mol
# Density = 2.245729 g / cm^3
# Si number density = 22.508521 Si / 1000 Ang^3
#
#
#
# Elastic Constant Matrix: (Units=GPa)
#
#
# Indices 1 2 3 4 5 6 
#
# 1 80.0781 17.3406 13.2536 0.0000 0.0000 0.0000
# 2 17.3406 139.8827 35.7154 0.0000 0.0000 0.0000
# 3 13.2536 35.7154 78.2169 0.0000 0.0000 0.0000
# 4 0.0000 0.0000 0.0000 26.6836 0.0000 0.0000
# 5 0.0000 0.0000 0.0000 0.0000 31.6767 0.0000
# 6 0.0000 0.0000 0.0000 0.0000 0.0000 25.6891
#
#
#
# Elastic Compliance Matrix: (Units=1/GPa)
#
#
# Indices 1 2 3 4 5 6 
#
# 1 0.013021 -0.001189 -0.001663 0.000000 0.000000 0.000000
# 2 -0.001189 0.008201 -0.003543 0.000000 0.000000 0.000000
# 3 -0.001663 -0.003543 0.014685 0.000000 0.000000 0.000000
# 4 0.000000 0.000000 0.000000 0.037476 0.000000 0.000000
# 5 0.000000 0.000000 0.000000 0.000000 0.031569 0.000000
# 6 0.000000 0.000000 0.000000 0.000000 0.000000 0.038927
#
#
# Mechanical properties :
#
#
# Convention : Reuss Voigt Hill
#
# Bulk Modulus (GPa) = 43.26258 47.86631 45.56445
# Shear Modulus (GPa) = 30.41826 32.26775 31.34300
#
# Velocity S-wave (km/s) = 3.68014 3.79037 3.73566
# Velocity P-wave (km/s) = 6.10903 6.36144 6.23651
#
# Compressibility (1/GPa) = 0.02311466
#
# Stress axis : x y z
#
# Youngs Moduli (GPa) = 76.80104 121.93709 68.09825
#
# Poissons Ratio (x) = 0.14504 0.11326
# Poissons Ratio (y) = 0.09135 0.24128
# Poissons Ratio (z) = 0.12773 0.43204
#
# Static dielectric constant tensor:
#      x y z
#    x 1.807780 0.000000 0.000000 
#    y 0.000000 1.870970 0.000000 
#    z 0.000000 0.000000 1.824050 
# 
# From -- ./inp_files/18173.got.cif
#   From: 2010.05.17/outbox.cif.g08.bks.cpg/sg20_10_cif.got.tgz:18173.got - 2010.06.03 22:52:26.
