data_PCOD9321507
_publ_section_title
;
Structure prediction by ZEFSAII (Michael W. Deem and Ramdas Pophale) SiO2 
 PCOD9321507
Probable space group: C 2 2 21
;
_chemical_formula_sum "Si O2"
_cell_formula_units_Z 56
_cell_length_a 6.592639
_cell_length_b 15.742745
_cell_length_c 26.590051
_cell_angle_alpha 90.000000
_cell_angle_beta 90.000000
_cell_angle_gamma 90.000000
_cell_volume 2759.681273
_symmetry_space_group_name_H-M "C 2 2 21"
_symmetry_group_IT_number 20
_symmetry_cell_setting 'orthorhombic'
loop_
_space_group_symop_operation_xyz
x,y,z
-x,-y,1/2+z
x,-y,-z
-x,y,1/2-z
1/2+x,1/2+y,z
1/2-x,1/2-y,1/2+z
1/2+x,1/2-y,-z
1/2-x,1/2+y,1/2-z
loop_
_atom_site_type_symbol
_atom_site_label
_atom_site_fract_x
_atom_site_fract_y
_atom_site_fract_z
Si Si1 0.502533 0.858733 0.967512
Si Si2 0.379880 0.509184 0.800970
Si Si3 0.549553 0.395445 0.405376
Si Si4 0.694227 0.729240 0.099737
Si Si5 0.627753 0.338089 0.794841
Si Si6 0.789619 0.291537 0.058708
Si Si7 0.500000 0.941848 0.750000
Si Si8 0.307704 0.500000 0.000000
O O1 0.339369 0.844297 0.922915
O O2 0.632041 0.771739 0.967595
O O3 0.376706 0.857002 0.018571
O O4 0.659226 0.935485 0.969777
O O5 0.500000 0.540325 0.750000
O O6 0.407417 0.559429 0.852562
O O7 0.479975 0.416210 0.810347
O O8 0.143957 0.497270 0.786338
O O9 0.710995 0.320073 0.413808
O O10 0.334432 0.347011 0.401649
O O11 0.565853 0.452843 0.455869
O O12 0.679041 0.720829 0.159123
O O13 0.466817 0.731938 0.079278
O O14 0.500000 0.295267 0.750000
O O15 0.835721 0.382158 0.777226
#
# Coordination Sequence:
#
# PCOD9321507 Si02
#       8
#     8   8   8   8   8   8   4   4
#     4  11  23  41  65  90 129 171 217 263 322 388
#     4   9  21  42  63  95 126 171 216 268 326 387
#     4  11  26  41  62  97 135 167 219 271 332 393
#     4  11  24  42  65  92 127 179 212 266 333 386
#     4   9  21  39  64  95 120 163 218 264 319 390
#     4  11  22  44  62  88 132 172 212 264 316 397
#     4   8  18  40  68  90 128 158 216 270 320 384
#     4  12  26  42  62 106 130 166 226 278 332 398
#
# _framework density 20.292197000000002
#
# number of rings (size 3 to 8) (size 9 to 14) (size 15 to 20)
#    0.000    2.000    2.857    0.857    4.000    7.429 
#    5.143    0.000    0.000    0.000    0.000    0.000 
#    0.000    0.000    0.000    0.000    0.000    0.000 
#
# Total GULP energy -156123.900222 kJ/mol
# GULP energy per Si atom -5575.853579 kJ/mol
# Density = 2.024601 g / cm^3
# Si number density = 20.292197 Si / 1000 Ang^3
#
#
#
# Elastic Constant Matrix: (Units=GPa)
#
#
# Indices 1 2 3 4 5 6 
#
# 1 91.9602 9.0717 15.4067 0.0000 0.0000 0.0000
# 2 9.0717 41.2408 17.2337 0.0000 0.0000 0.0000
# 3 15.4067 17.2337 92.0647 0.0000 0.0000 0.0000
# 4 0.0000 0.0000 0.0000 41.3588 0.0000 0.0000
# 5 0.0000 0.0000 0.0000 0.0000 18.9465 0.0000
# 6 0.0000 0.0000 0.0000 0.0000 0.0000 10.4818
#
#
#
# Elastic Compliance Matrix: (Units=1/GPa)
#
#
# Indices 1 2 3 4 5 6 
#
# 1 0.011315 -0.001842 -0.001549 0.000000 0.000000 0.000000
# 2 -0.001842 0.026605 -0.004672 0.000000 0.000000 0.000000
# 3 -0.001549 -0.004672 0.011996 0.000000 0.000000 0.000000
# 4 0.000000 0.000000 0.000000 0.024179 0.000000 0.000000
# 5 0.000000 0.000000 0.000000 0.000000 0.052780 0.000000
# 6 0.000000 0.000000 0.000000 0.000000 0.000000 0.095404
#
#
# Mechanical properties :
#
#
# Convention : Reuss Voigt Hill
#
# Bulk Modulus (GPa) = 29.59364 34.29889 31.94626
# Shear Modulus (GPa) = 20.02659 26.39433 23.21046
#
# Velocity S-wave (km/s) = 3.14492 3.61045 3.38570
# Velocity P-wave (km/s) = 5.27284 5.85830 5.57326
#
# Compressibility (1/GPa) = 0.03379104
#
# Stress axis : x y z
#
# Youngs Moduli (GPa) = 88.37476 37.58642 83.36327
#
# Poissons Ratio (x) = 0.06923 0.12912
# Poissons Ratio (y) = 0.16277 0.38948
# Poissons Ratio (z) = 0.13688 0.17561
#
# Static dielectric constant tensor:
#      x y z
#    x 1.741300 0.000000 0.000000 
#    y 0.000000 1.719900 0.000000 
#    z 0.000000 0.000000 1.741080 
# 
# From -- ./inp_files/30789.got.cif
#   From: 2010.05.17/outbox.cif.g08.bks.cpg/sg20_16_cif.got.tgz:30789.got - 2010.06.03 22:52:26.
