data_PCOD9321404
_publ_section_title
;
Structure prediction by ZEFSAII (Michael W. Deem and Ramdas Pophale) SiO2 
 PCOD9321404
Probable space group: C 2 2 21
;
_chemical_formula_sum "Si O2"
_cell_formula_units_Z 32
_cell_length_a 20.837495
_cell_length_b 14.306616
_cell_length_c 5.289693
_cell_angle_alpha 90.000000
_cell_angle_beta 90.000000
_cell_angle_gamma 90.000000
_cell_volume 1576.931747
_symmetry_space_group_name_H-M "C 2 2 21"
_symmetry_group_IT_number 20
_symmetry_cell_setting 'orthorhombic'
loop_
_space_group_symop_operation_xyz
x,y,z
-x,-y,1/2+z
x,-y,-z
-x,y,1/2-z
1/2+x,1/2+y,z
1/2-x,1/2-y,1/2+z
1/2+x,1/2-y,-z
1/2-x,1/2+y,1/2-z
loop_
_atom_site_type_symbol
_atom_site_label
_atom_site_fract_x
_atom_site_fract_y
_atom_site_fract_z
Si Si1 0.617342 0.411853 0.664101
Si Si2 0.748825 0.400432 0.947280
Si Si3 0.540101 0.710263 0.009664
Si Si4 0.837665 0.765014 0.232006
O O1 0.597346 0.500000 0.500000
O O2 0.688372 0.427963 0.771825
O O3 0.567465 0.388576 0.885829
O O4 0.626185 0.318429 0.495174
O O5 0.798367 0.326653 0.835143
O O6 0.780757 0.500000 0.000000
O O7 0.713332 0.342005 0.168448
O O8 0.500000 0.748859 0.250000
O O9 0.500000 0.704592 0.750000
O O10 0.607561 0.758838 0.936968
#
# Coordination Sequence:
#
# PCOD9321404 Si02
#       4
#     8   8   8   8
#     4  11  22  40  63  97 140 174 217 273 340 402
#     4  11  22  37  66 102 138 174 215 274 343 405
#     4  11  24  45  64  94 131 186 228 272 327 393
#     4  11  22  39  64  98 137 176 217 276 332 401
#
# _framework density 20.292570999999999
#
# number of rings (size 3 to 8) (size 9 to 14) (size 15 to 20)
#    0.000    1.000    7.500    0.000    0.000    0.000 
#    4.500    0.000    0.000    0.000    6.500    0.000 
#    0.000    0.000    0.000    0.000    0.000    0.000 
#
# Total GULP energy -89257.118395 kJ/mol
# GULP energy per Si atom -5578.569900 kJ/mol
# Density = 2.024638 g / cm^3
# Si number density = 20.292571 Si / 1000 Ang^3
#
#
#
# Elastic Constant Matrix: (Units=GPa)
#
#
# Indices 1 2 3 4 5 6 
#
# 1 85.7418 44.4896 43.8422 0.0000 0.0000 0.0000
# 2 44.4896 118.1753 37.4659 0.0000 0.0000 0.0000
# 3 43.8422 37.4659 108.4822 0.0000 0.0000 0.0000
# 4 0.0000 0.0000 0.0000 30.4513 0.0000 0.0000
# 5 0.0000 0.0000 0.0000 0.0000 33.8383 0.0000
# 6 0.0000 0.0000 0.0000 0.0000 0.0000 -1.0443
#
#
#
# Elastic Compliance Matrix: (Units=1/GPa)
#
#
# Indices 1 2 3 4 5 6 
#
# 1 0.016712 -0.004660 -0.005144 0.000000 0.000000 0.000000
# 2 -0.004660 0.010802 -0.001847 0.000000 0.000000 0.000000
# 3 -0.005144 -0.001847 0.011935 0.000000 0.000000 0.000000
# 4 0.000000 0.000000 0.000000 0.032839 0.000000 0.000000
# 5 0.000000 0.000000 0.000000 0.000000 0.029552 0.000000
# 6 0.000000 0.000000 0.000000 0.000000 0.000000 -0.957600
#
#
# Mechanical properties :
#
#
# Convention : Reuss Voigt Hill
#
# Bulk Modulus (GPa) = 61.93907 62.66608 62.30257
# Shear Modulus (GPa) = -6.04541 25.08917 9.52188
#
# Velocity S-wave (km/s) = -1.72789 3.52002 2.16852
# Velocity P-wave (km/s) = 5.15834 6.88978 6.08595
#
# Compressibility (1/GPa) = 0.01614490
#
# Stress axis : x y z
#
# Youngs Moduli (GPa) = 59.83876 92.57400 83.78665
#
# Poissons Ratio (x) = 0.43144 0.43102
# Poissons Ratio (y) = 0.27888 0.15477
# Poissons Ratio (z) = 0.30783 0.17100
#
# Static dielectric constant tensor:
#      x y z
#    x 1.773100 0.000000 0.000000 
#    y 0.000000 1.698110 0.000000 
#    z 0.000000 0.000000 1.858200 
# 
# From -- ./inp_files/1006.got.cif
#   From: 2010.05.17/outbox.cif.g08.bks.cpg/sg20_1_cif.got.tgz:1006.got - 2010.06.03 22:52:26.
