data_PCOD9321730
_publ_section_title
;
Structure prediction by ZEFSAII (Michael W. Deem and Ramdas Pophale) SiO2 
 PCOD9321730
Probable space group: C 2 2 21
;
_chemical_formula_sum "Si O2"
_cell_formula_units_Z 40
_cell_length_a 10.157297
_cell_length_b 9.409831
_cell_length_c 19.109789
_cell_angle_alpha 90.000000
_cell_angle_beta 90.000000
_cell_angle_gamma 90.000000
_cell_volume 1826.483978
_symmetry_space_group_name_H-M "C 2 2 21"
_symmetry_group_IT_number 20
_symmetry_cell_setting 'orthorhombic'
loop_
_space_group_symop_operation_xyz
x,y,z
-x,-y,1/2+z
x,-y,-z
-x,y,1/2-z
1/2+x,1/2+y,z
1/2-x,1/2-y,1/2+z
1/2+x,1/2-y,-z
1/2-x,1/2+y,1/2-z
loop_
_atom_site_type_symbol
_atom_site_label
_atom_site_fract_x
_atom_site_fract_y
_atom_site_fract_z
Si Si1 0.507252 0.705550 0.850648
Si Si2 0.433929 0.142011 0.953937
Si Si3 0.347699 0.671059 0.504406
Si Si4 0.366503 0.519535 0.763478
Si Si5 0.900495 0.492461 0.194243
O O1 0.578357 0.704035 0.923655
O O2 0.387330 0.592266 0.838952
O O3 0.608448 0.648141 0.792081
O O4 0.461337 0.861458 0.833279
O O5 0.306274 0.211724 0.991999
O O6 0.385251 0.099045 0.876240
O O7 0.560629 0.244675 0.949895
O O8 0.465818 0.000000 0.000000
O O9 0.348648 0.500000 0.500000
O O10 0.500000 0.428676 0.750000
O O11 0.228741 0.464555 0.738503
O O12 0.000000 0.424846 0.250000
#
# Coordination Sequence:
#
# PCOD9321730 Si02
#       5
#     8   8   8   8   8
#     4   9  19  42  64  88 136 167 209 278 329 377
#     4  11  24  43  70  96 134 175 226 279 333 407
#     4  11  24  45  67  96 134 179 224 274 340 399
#     4   8  19  40  61  92 128 168 206 268 323 388
#     4  12  21  40  71  98 130 177 224 274 341 397
#
# _framework density 21.900001
#
# number of rings (size 3 to 8) (size 9 to 14) (size 15 to 20)
#    1.200    0.400    6.000    0.000    0.000    2.400 
#    7.200    1.000    0.000    0.000    0.000    0.000 
#    0.000    0.000    0.000    0.000    0.000    0.000 
#
# Total GULP energy -111349.756830 kJ/mol
# GULP energy per Si atom -5567.487841 kJ/mol
# Density = 2.185016 g / cm^3
# Si number density = 21.900001 Si / 1000 Ang^3
#
#
#
# Elastic Constant Matrix: (Units=GPa)
#
#
# Indices 1 2 3 4 5 6 
#
# 1 119.5927 27.2851 5.0245 0.0000 0.0000 0.0000
# 2 27.2851 42.0437 -9.0163 0.0000 0.0000 0.0000
# 3 5.0245 -9.0163 34.6657 0.0000 0.0000 0.0000
# 4 0.0000 0.0000 0.0000 15.4187 0.0000 0.0000
# 5 0.0000 0.0000 0.0000 0.0000 29.0017 0.0000
# 6 0.0000 0.0000 0.0000 0.0000 0.0000 21.7840
#
#
#
# Elastic Compliance Matrix: (Units=1/GPa)
#
#
# Indices 1 2 3 4 5 6 
#
# 1 0.010176 -0.007329 -0.003381 0.000000 0.000000 0.000000
# 2 -0.007329 0.030468 0.008987 0.000000 0.000000 0.000000
# 3 -0.003381 0.008987 0.031674 0.000000 0.000000 0.000000
# 4 0.000000 0.000000 0.000000 0.064856 0.000000 0.000000
# 5 0.000000 0.000000 0.000000 0.000000 0.034481 0.000000
# 6 0.000000 0.000000 0.000000 0.000000 0.000000 0.045905
#
#
# Mechanical properties :
#
#
# Convention : Reuss Voigt Hill
#
# Bulk Modulus (GPa) = 14.51967 26.98763 20.75365
# Shear Modulus (GPa) = 20.49479 24.77481 22.63480
#
# Velocity S-wave (km/s) = 3.06246 3.36708 3.21838
# Velocity P-wave (km/s) = 4.37599 5.24082 4.82781
#
# Compressibility (1/GPa) = 0.06887211
#
# Stress axis : x y z
#
# Youngs Moduli (GPa) = 98.27192 32.82112 31.57123
#
# Poissons Ratio (x) = 0.24054 0.10674
# Poissons Ratio (y) = 0.72022 -0.28372
# Poissons Ratio (z) = 0.33226 -0.29496
#
# Static dielectric constant tensor:
#      x y z
#    x 1.875540 0.000000 0.000000 
#    y 0.000000 1.819230 0.000000 
#    z 0.000000 0.000000 1.812150 
# 
# From -- ./inp_files/26474.got.cif
#   From: 2010.05.17/outbox.cif.g08.bks.cpg/sg20_14_cif.got.tgz:26474.got - 2010.06.03 22:52:26.
