data_PCOD9321697
_publ_section_title
;
Structure prediction by ZEFSAII (Michael W. Deem and Ramdas Pophale) SiO2 
 PCOD9321697
Probable space group: C 2 2 21
;
_chemical_formula_sum "Si O2"
_cell_formula_units_Z 48
_cell_length_a 11.564446
_cell_length_b 9.108282
_cell_length_c 20.890867
_cell_angle_alpha 90.000000
_cell_angle_beta 90.000000
_cell_angle_gamma 90.000000
_cell_volume 2200.481719
_symmetry_space_group_name_H-M "C 2 2 21"
_symmetry_group_IT_number 20
_symmetry_cell_setting 'orthorhombic'
loop_
_space_group_symop_operation_xyz
x,y,z
-x,-y,1/2+z
x,-y,-z
-x,y,1/2-z
1/2+x,1/2+y,z
1/2-x,1/2-y,1/2+z
1/2+x,1/2-y,-z
1/2-x,1/2+y,1/2-z
loop_
_atom_site_type_symbol
_atom_site_label
_atom_site_fract_x
_atom_site_fract_y
_atom_site_fract_z
Si Si1 0.617840 0.812662 0.667701
Si Si2 0.446443 0.714586 0.447662
Si Si3 0.728360 0.500000 0.000000
Si Si4 0.602154 0.500000 0.500000
Si Si5 0.142046 0.692706 0.180156
Si Si6 0.149656 0.360849 0.386779
Si Si7 0.277679 0.074547 0.600029
O O1 0.486158 0.754958 0.660046
O O2 0.643782 0.815944 0.743341
O O3 0.711254 0.707587 0.634554
O O4 0.621591 0.977646 0.640200
O O5 0.352334 0.583063 0.447901
O O6 0.526299 0.648050 0.503579
O O7 0.535334 0.758319 0.391149
O O8 0.368017 0.858208 0.451028
O O9 0.805488 0.612057 0.959517
O O10 0.681328 0.486837 0.561457
O O11 0.245947 0.791406 0.153312
O O12 0.161475 0.532103 0.149826
#
# Coordination Sequence:
#
# PCOD9321697 Si02
#       7
#     8   8   4   4   8   8   8
#     4  11  26  45  67  94 129 174 225 273 321 383
#     4  11  24  41  65  98 134 169 208 265 329 391
#     4  11  26  41  64 104 137 170 211 266 330 401
#     4  11  26  41  64 104 137 170 211 266 330 401
#     4  11  26  45  67  94 129 174 225 273 321 383
#     4  12  24  44  69  97 132 174 217 269 330 387
#     4  12  24  44  69  97 132 174 217 269 330 387
#
# _framework density 21.813406000000001
#
# number of rings (size 3 to 8) (size 9 to 14) (size 15 to 20)
#    0.000    0.667    5.000    2.000    4.667    0.667 
#    0.000    0.000    0.000    0.000    0.000    0.000 
#    0.000    0.000    0.000    0.000    0.000    0.000 
#
# Total GULP energy -133920.206398 kJ/mol
# GULP energy per Si atom -5580.008600 kJ/mol
# Density = 2.176376 g / cm^3
# Si number density = 21.813406 Si / 1000 Ang^3
#
#
#
# Elastic Constant Matrix: (Units=GPa)
#
#
# Indices 1 2 3 4 5 6 
#
# 1 92.4212 30.6916 30.2029 0.0000 0.0000 0.0000
# 2 30.6916 69.1767 23.1176 0.0000 0.0000 0.0000
# 3 30.2029 23.1176 74.6399 0.0000 0.0000 0.0000
# 4 0.0000 0.0000 0.0000 32.5521 0.0000 0.0000
# 5 0.0000 0.0000 0.0000 0.0000 27.4497 0.0000
# 6 0.0000 0.0000 0.0000 0.0000 0.0000 27.9811
#
#
#
# Elastic Compliance Matrix: (Units=1/GPa)
#
#
# Indices 1 2 3 4 5 6 
#
# 1 0.013725 -0.004722 -0.004091 0.000000 0.000000 0.000000
# 2 -0.004722 0.017749 -0.003587 0.000000 0.000000 0.000000
# 3 -0.004091 -0.003587 0.016164 0.000000 0.000000 0.000000
# 4 0.000000 0.000000 0.000000 0.030720 0.000000 0.000000
# 5 0.000000 0.000000 0.000000 0.000000 0.036430 0.000000
# 6 0.000000 0.000000 0.000000 0.000000 0.000000 0.035738
#
#
# Mechanical properties :
#
#
# Convention : Reuss Voigt Hill
#
# Bulk Modulus (GPa) = 43.78570 44.91800 44.35185
# Shear Modulus (GPa) = 27.33132 27.74496 27.53814
#
# Velocity S-wave (km/s) = 3.54356 3.57027 3.55694
# Velocity P-wave (km/s) = 6.07115 6.13453 6.10292
#
# Compressibility (1/GPa) = 0.02283851
#
# Stress axis : x y z
#
# Youngs Moduli (GPa) = 72.85848 56.33994 61.86579
#
# Poissons Ratio (x) = 0.26605 0.25311
# Poissons Ratio (y) = 0.34405 0.22188
# Poissons Ratio (z) = 0.29809 0.20206
#
# Static dielectric constant tensor:
#      x y z
#    x 1.823780 0.000000 0.000000 
#    y 0.000000 1.775800 0.000000 
#    z 0.000000 0.000000 1.754300 
# 
# From -- ./inp_files/28752.got.cif
#   From: 2010.05.17/outbox.cif.g08.bks.cpg/sg20_15_cif.got.tgz:28752.got - 2010.06.03 22:52:26.
