data_PCOD9321657
_publ_section_title
;
Structure prediction by ZEFSAII (Michael W. Deem and Ramdas Pophale) SiO2 
 PCOD9321657
Probable space group: C 2 2 21
;
_chemical_formula_sum "Si O2"
_cell_formula_units_Z 36
_cell_length_a 16.100290
_cell_length_b 6.784452
_cell_length_c 14.304478
_cell_angle_alpha 90.000000
_cell_angle_beta 90.000000
_cell_angle_gamma 90.000000
_cell_volume 1562.501658
_symmetry_space_group_name_H-M "C 2 2 21"
_symmetry_group_IT_number 20
_symmetry_cell_setting 'orthorhombic'
loop_
_space_group_symop_operation_xyz
x,y,z
-x,-y,1/2+z
x,-y,-z
-x,y,1/2-z
1/2+x,1/2+y,z
1/2-x,1/2-y,1/2+z
1/2+x,1/2-y,-z
1/2-x,1/2+y,1/2-z
loop_
_atom_site_type_symbol
_atom_site_label
_atom_site_fract_x
_atom_site_fract_y
_atom_site_fract_z
Si Si1 0.182745 0.241131 0.145961
Si Si2 0.320589 0.061231 0.902139
Si Si3 0.833781 0.972664 0.828488
Si Si4 0.458111 0.196086 0.150743
Si Si5 0.077592 0.500000 0.000000
O O1 0.237171 0.063937 0.103544
O O2 0.137776 0.132136 0.232214
O O3 0.252348 0.392154 0.187544
O O4 0.130764 0.356601 0.068171
O O5 0.389718 0.976338 0.832068
O O6 0.308565 0.291919 0.894126
O O7 0.359793 0.000000 0.000000
O O8 0.904065 0.110287 0.872059
O O9 0.500000 0.231945 0.250000
O O10 0.522775 0.131066 0.071651
#
# Coordination Sequence:
#
# PCOD9321657 Si02
#       5
#     8   8   8   8   4
#     4  11  24  44  80 111 149 195 269 313 377 462
#     4  11  23  46  71 107 146 192 242 314 373 453
#     4  11  24  46  76 109 151 203 246 321 391 449
#     4  11  27  48  71 110 159 198 251 318 397 459
#     4  12  26  50  80 120 152 204 270 320 386 478
#
# _framework density 23.039975999999999
#
# number of rings (size 3 to 8) (size 9 to 14) (size 15 to 20)
#    0.000    0.889    3.333    2.667    3.111    7.111 
#    4.000    2.222    0.000    0.000    0.000    0.000 
#    0.000    0.000    0.000    0.000    0.000    0.000 
#
# Total GULP energy -100630.609053 kJ/mol
# GULP energy per Si atom -5590.589392 kJ/mol
# Density = 2.298754 g / cm^3
# Si number density = 23.039976 Si / 1000 Ang^3
#
#
#
# Elastic Constant Matrix: (Units=GPa)
#
#
# Indices 1 2 3 4 5 6 
#
# 1 101.5094 65.8164 50.7682 0.0000 0.0000 0.0000
# 2 65.8164 170.5276 51.8357 0.0000 0.0000 0.0000
# 3 50.7682 51.8357 103.9440 0.0000 0.0000 0.0000
# 4 0.0000 0.0000 0.0000 27.8553 0.0000 0.0000
# 5 0.0000 0.0000 0.0000 0.0000 38.2714 0.0000
# 6 0.0000 0.0000 0.0000 0.0000 0.0000 28.9501
#
#
#
# Elastic Compliance Matrix: (Units=1/GPa)
#
#
# Indices 1 2 3 4 5 6 
#
# 1 0.015296 -0.004282 -0.005336 0.000000 0.000000 0.000000
# 2 -0.004282 0.008110 -0.001953 0.000000 0.000000 0.000000
# 3 -0.005336 -0.001953 0.013201 0.000000 0.000000 0.000000
# 4 0.000000 0.000000 0.000000 0.035900 0.000000 0.000000
# 5 0.000000 0.000000 0.000000 0.000000 0.026129 0.000000
# 6 0.000000 0.000000 0.000000 0.000000 0.000000 0.034542
#
#
# Mechanical properties :
#
#
# Convention : Reuss Voigt Hill
#
# Bulk Modulus (GPa) = 74.26202 79.20239 76.73220
# Shear Modulus (GPa) = 31.09296 32.85276 31.97286
#
# Velocity S-wave (km/s) = 3.67757 3.78021 3.72924
# Velocity P-wave (km/s) = 7.09468 7.31464 7.20550
#
# Compressibility (1/GPa) = 0.01346583
#
# Stress axis : x y z
#
# Youngs Moduli (GPa) = 65.37671 123.29739 75.75379
#
# Poissons Ratio (x) = 0.52792 0.40419
# Poissons Ratio (y) = 0.27992 0.14797
# Poissons Ratio (z) = 0.34882 0.24084
#
# Static dielectric constant tensor:
#      x y z
#    x 1.872630 0.000000 0.000000 
#    y 0.000000 1.854420 0.000000 
#    z 0.000000 0.000000 2.002720 
# 
# From -- ./inp_files/21598.got.cif
#   From: 2010.05.17/outbox.cif.g08.bks.cpg/sg20_11_cif.got.tgz:21598.got - 2010.06.03 22:52:26.
