data_PCOD9321278
_publ_section_title
;
Structure prediction by ZEFSAII (Michael W. Deem and Ramdas Pophale) SiO2 
 PCOD9321278
Probable space group: C 2 2 21
;
_chemical_formula_sum "Si O2"
_cell_formula_units_Z 56
_cell_length_a 9.285656
_cell_length_b 22.216541
_cell_length_c 12.705147
_cell_angle_alpha 90.000000
_cell_angle_beta 90.000000
_cell_angle_gamma 90.000000
_cell_volume 2621.010298
_symmetry_space_group_name_H-M "C 2 2 21"
_symmetry_group_IT_number 20
_symmetry_cell_setting 'orthorhombic'
loop_
_space_group_symop_operation_xyz
x,y,z
-x,-y,1/2+z
x,-y,-z
-x,y,1/2-z
1/2+x,1/2+y,z
1/2-x,1/2-y,1/2+z
1/2+x,1/2-y,-z
1/2-x,1/2+y,1/2-z
loop_
_atom_site_type_symbol
_atom_site_label
_atom_site_fract_x
_atom_site_fract_y
_atom_site_fract_z
Si Si1 0.718730 0.419285 0.197065
Si Si2 0.503620 0.000000 0.000000
Si Si3 0.700234 0.103925 0.927308
Si Si4 0.915020 0.332564 0.066248
Si Si5 0.290698 0.344358 0.626851
Si Si6 0.006179 0.072242 0.985496
Si Si7 0.649107 0.045710 0.307729
Si Si8 0.000000 0.755856 0.750000
O O1 0.743272 0.387586 0.308613
O O2 0.842495 0.390667 0.123029
O O3 0.573100 0.413331 0.130005
O O4 0.745223 0.490429 0.214374
O O5 0.609650 0.957829 0.066146
O O6 0.399265 0.039803 0.071167
O O7 0.581753 0.152816 0.960227
O O8 0.842946 0.094990 0.995147
O O9 0.922354 0.283426 0.159070
O O10 0.818838 0.319317 0.962974
O O11 0.397166 0.391057 0.567310
O O12 0.208336 0.387927 0.708422
O O13 0.382583 0.295456 0.688168
O O14 0.013249 0.000000 0.000000
O O15 0.500000 0.036197 0.250000
#
# Coordination Sequence:
#
# PCOD9321278 Si02
#       8
#     8   4   8   8   8   8   8   4
#     4  11  20  39  67 102 139 186 227 287 361 427
#     4  12  20  32  62 106 142 168 224 282 354 422
#     4  12  21  36  67 104 137 186 235 289 350 431
#     4  11  23  47  77  98 131 189 256 299 343 437
#     4  11  27  47  71 101 142 190 233 304 375 433
#     4  11  23  38  64 104 152 182 220 295 375 444
#     4  12  21  38  68 104 137 176 229 294 361 438
#     4  12  28  52  74  98 146 194 246 306 370 428
#
# _framework density 21.365805999999999
#
# number of rings (size 3 to 8) (size 9 to 14) (size 15 to 20)
#    0.000    0.571    7.857    1.286    0.000    3.429 
#    2.571    0.000    0.000    0.000    0.000    0.000 
#    0.000    0.000    0.000    0.000    0.000    0.000 
#
# Total GULP energy -156399.777639 kJ/mol
# GULP energy per Si atom -5585.706344 kJ/mol
# Density = 2.131718 g / cm^3
# Si number density = 21.365806 Si / 1000 Ang^3
#
#
#
# Elastic Constant Matrix: (Units=GPa)
#
#
# Indices 1 2 3 4 5 6 
#
# 1 132.3668 40.1308 28.8023 0.0000 0.0000 0.0000
# 2 40.1308 79.1450 30.4649 0.0000 0.0000 0.0000
# 3 28.8023 30.4649 53.1974 0.0000 0.0000 0.0000
# 4 0.0000 0.0000 0.0000 27.8910 0.0000 0.0000
# 5 0.0000 0.0000 0.0000 0.0000 28.1242 0.0000
# 6 0.0000 0.0000 0.0000 0.0000 0.0000 5.7708
#
#
#
# Elastic Compliance Matrix: (Units=1/GPa)
#
#
# Indices 1 2 3 4 5 6 
#
# 1 0.009284 -0.003556 -0.002990 0.000000 0.000000 0.000000
# 2 -0.003556 0.017570 -0.008137 0.000000 0.000000 0.000000
# 3 -0.002990 -0.008137 0.025076 0.000000 0.000000 0.000000
# 4 0.000000 0.000000 0.000000 0.035854 0.000000 0.000000
# 5 0.000000 0.000000 0.000000 0.000000 0.035557 0.000000
# 6 0.000000 0.000000 0.000000 0.000000 0.000000 0.173286
#
#
# Mechanical properties :
#
#
# Convention : Reuss Voigt Hill
#
# Bulk Modulus (GPa) = 44.31688 51.50055 47.90872
# Shear Modulus (GPa) = 14.99188 23.37794 19.18491
#
# Velocity S-wave (km/s) = 2.65179 3.31142 2.99979
# Velocity P-wave (km/s) = 5.49208 6.22713 5.87112
#
# Compressibility (1/GPa) = 0.02256476
#
# Stress axis : x y z
#
# Youngs Moduli (GPa) = 107.71761 56.91413 39.87850
#
# Poissons Ratio (x) = 0.20241 0.11922
# Poissons Ratio (y) = 0.38310 0.32447
# Poissons Ratio (z) = 0.32203 0.46308
#
# Static dielectric constant tensor:
#      x y z
#    x 1.805430 0.000000 0.000000 
#    y 0.000000 1.779840 0.000000 
#    z 0.000000 0.000000 2.147020 
# 
# From -- ./inp_files/19265.got.cif
#   From: 2010.05.17/outbox.cif.g08.bks.cpg/sg20_10_cif.got.tgz:19265.got - 2010.06.03 22:52:26.
