data_PCOD9321610
_publ_section_title
;
Structure prediction by ZEFSAII (Michael W. Deem and Ramdas Pophale) SiO2 
 PCOD9321610
Probable space group: C 2 2 21
;
_chemical_formula_sum "Si O2"
_cell_formula_units_Z 60
_cell_length_a 18.360624
_cell_length_b 16.935498
_cell_length_c 7.748213
_cell_angle_alpha 90.000000
_cell_angle_beta 90.000000
_cell_angle_gamma 90.000000
_cell_volume 2409.278249
_symmetry_space_group_name_H-M "C 2 2 21"
_symmetry_group_IT_number 20
_symmetry_cell_setting 'orthorhombic'
loop_
_space_group_symop_operation_xyz
x,y,z
-x,-y,1/2+z
x,-y,-z
-x,y,1/2-z
1/2+x,1/2+y,z
1/2-x,1/2-y,1/2+z
1/2+x,1/2-y,-z
1/2-x,1/2+y,1/2-z
loop_
_atom_site_type_symbol
_atom_site_label
_atom_site_fract_x
_atom_site_fract_y
_atom_site_fract_z
Si Si1 0.144774 0.125511 0.468812
Si Si2 0.652449 0.841494 0.126457
Si Si3 0.226085 0.074093 0.786016
Si Si4 0.377368 0.673399 0.514307
Si Si5 0.110926 0.309780 0.497490
Si Si6 0.706186 0.909755 0.775356
Si Si7 0.500000 0.257861 0.250000
Si Si8 0.982090 0.067555 0.412767
O O1 0.171850 0.069578 0.625945
O O2 0.142306 0.220558 0.490096
O O3 0.211067 0.115680 0.329323
O O4 0.059939 0.098917 0.467308
O O5 0.727309 0.850762 0.227689
O O6 0.600948 0.842074 0.299362
O O7 0.650925 0.757160 0.037535
O O8 0.659885 0.899672 0.957451
O O9 0.181773 0.107544 0.945411
O O10 0.279668 0.999735 0.787827
O O11 0.435090 0.688960 0.670068
O O12 0.430826 0.639870 0.369401
O O13 0.163430 0.361925 0.624390
O O14 0.034537 0.296372 0.599453
O O15 0.000000 0.015137 0.250000
O O16 0.935377 0.000000 0.500000
#
# Coordination Sequence:
#
# PCOD9321610 Si02
#       8
#     8   8   8   8   8   8   4   8
#     4  11  23  43  74 104 150 205 252 312 395 471
#     4  11  26  46  77 112 154 206 271 331 404 487
#     4  11  25  47  80 111 155 205 253 342 413 475
#     4  12  25  48  73 117 151 205 269 318 403 499
#     4  12  26  45  79 111 154 208 271 338 397 493
#     4  11  26  48  74 115 155 198 272 339 409 475
#     4  12  24  46  80 112 154 206 264 330 398 492
#     4  12  28  44  65 103 156 206 252 316 392 490
#
# _framework density 24.903724
#
# number of rings (size 3 to 8) (size 9 to 14) (size 15 to 20)
#    0.000    0.533    4.000    3.200   12.133    1.600 
#    0.000    1.333    0.000    3.200    0.000    0.000 
#    0.000    0.000    0.000    0.000    0.000    0.000 
#
# Total GULP energy -167036.118461 kJ/mol
# GULP energy per Si atom -5567.870615 kJ/mol
# Density = 2.484704 g / cm^3
# Si number density = 24.903724 Si / 1000 Ang^3
#
#
#
# Elastic Constant Matrix: (Units=GPa)
#
#
# Indices 1 2 3 4 5 6 
#
# 1 53.4203 61.0655 19.2861 0.0000 0.0000 0.0000
# 2 61.0655 122.9987 47.7068 0.0000 0.0000 0.0000
# 3 19.2861 47.7068 140.7192 0.0000 0.0000 0.0000
# 4 0.0000 0.0000 0.0000 37.5939 0.0000 0.0000
# 5 0.0000 0.0000 0.0000 0.0000 31.3403 0.0000
# 6 0.0000 0.0000 0.0000 0.0000 0.0000 43.5139
#
#
#
# Elastic Compliance Matrix: (Units=1/GPa)
#
#
# Indices 1 2 3 4 5 6 
#
# 1 0.043583 -0.022246 0.001569 0.000000 0.000000 0.000000
# 2 -0.022246 0.020716 -0.003974 0.000000 0.000000 0.000000
# 3 0.001569 -0.003974 0.008239 0.000000 0.000000 0.000000
# 4 0.000000 0.000000 0.000000 0.026600 0.000000 0.000000
# 5 0.000000 0.000000 0.000000 0.000000 0.031908 0.000000
# 6 0.000000 0.000000 0.000000 0.000000 0.000000 0.022981
#
#
# Mechanical properties :
#
#
# Convention : Reuss Voigt Hill
#
# Bulk Modulus (GPa) = 43.03954 63.69499 53.36727
# Shear Modulus (GPa) = 23.68814 35.09492 29.39153
#
# Velocity S-wave (km/s) = 3.08748 3.75804 3.43914
# Velocity P-wave (km/s) = 5.47996 6.66802 6.10297
#
# Compressibility (1/GPa) = 0.02323445
#
# Stress axis : x y z
#
# Youngs Moduli (GPa) = 22.94462 48.27104 121.37777
#
# Poissons Ratio (x) = 1.07385 -0.19041
# Poissons Ratio (y) = 0.51043 0.48240
# Poissons Ratio (z) = -0.03599 0.19185
#
# Static dielectric constant tensor:
#      x y z
#    x 1.943570 0.000000 0.000000 
#    y 0.000000 1.957540 0.000000 
#    z 0.000000 0.000000 2.724740 
# 
# From -- ./inp_files/9609.got.cif
#   From: 2010.05.17/outbox.cif.g08.bks.cpg/sg20_5_cif.got.tgz:9609.got - 2010.06.03 22:52:26.
