data_PCOD9321966
_publ_section_title
;
Structure prediction by ZEFSAII (Michael W. Deem and Ramdas Pophale) SiO2 
 PCOD9321966
Probable space group: C 2 2 21
;
_chemical_formula_sum "Si O2"
_cell_formula_units_Z 40
_cell_length_a 9.332359
_cell_length_b 18.203508
_cell_length_c 8.404254
_cell_angle_alpha 90.000000
_cell_angle_beta 90.000000
_cell_angle_gamma 90.000000
_cell_volume 1427.728719
_symmetry_space_group_name_H-M "C 2 2 21"
_symmetry_group_IT_number 20
_symmetry_cell_setting 'orthorhombic'
loop_
_space_group_symop_operation_xyz
x,y,z
-x,-y,1/2+z
x,-y,-z
-x,y,1/2-z
1/2+x,1/2+y,z
1/2-x,1/2-y,1/2+z
1/2+x,1/2-y,-z
1/2-x,1/2+y,1/2-z
loop_
_atom_site_type_symbol
_atom_site_label
_atom_site_fract_x
_atom_site_fract_y
_atom_site_fract_z
Si Si1 0.000000 0.927548 0.250000
Si Si2 0.819153 0.387481 0.786475
Si Si3 0.500000 0.667748 0.250000
Si Si4 0.778786 0.643005 0.655230
Si Si5 0.399111 0.000000 0.500000
Si Si6 0.346138 0.765256 0.025571
Si Si7 0.709721 0.500000 0.000000
O O1 0.887480 0.881351 0.150990
O O2 0.896760 0.972323 0.365064
O O3 0.647389 0.376281 0.760978
O O4 0.881804 0.435069 0.642934
O O5 0.871866 0.311069 0.864025
O O6 0.820213 0.440381 0.938872
O O7 0.477197 0.719644 0.098418
O O8 0.867178 0.568389 0.628820
O O9 0.775754 0.704777 0.516892
O O10 0.806141 0.681935 0.825369
#
# Coordination Sequence:
#
# PCOD9321966 Si02
#       7
#     4   8   4   8   4   8   4
#     4  12  23  36  64 104 145 178 218 306 391 454
#     4  12  24  42  69 110 151 194 247 315 389 473
#     4  12  25  42  74  98 159 202 250 310 379 482
#     4  12  24  41  66 102 147 184 238 302 387 461
#     4  12  23  42  74 105 148 184 235 324 398 431
#     4  12  25  46  66 107 152 203 250 301 383 469
#     4  12  23  36  64 107 148 176 231 308 400 441
#
# _framework density 28.016528000000001
#
# number of rings (size 3 to 8) (size 9 to 14) (size 15 to 20)
#    0.000    0.000    8.000    2.400    0.000    0.000 
#    0.000    0.000    0.000    3.600    0.000    5.600 
#    0.000    0.000    0.000    0.000    0.000    0.000 
#
# Total GULP energy -111504.475457 kJ/mol
# GULP energy per Si atom -5575.223773 kJ/mol
# Density = 2.795276 g / cm^3
# Si number density = 28.016528 Si / 1000 Ang^3
#
#
#
# Elastic Constant Matrix: (Units=GPa)
#
#
# Indices 1 2 3 4 5 6 
#
# 1 105.4052 29.0724 29.9348 0.0000 0.0000 0.0000
# 2 29.0724 169.9048 80.6806 0.0000 0.0000 0.0000
# 3 29.9348 80.6806 161.0422 0.0000 0.0000 0.0000
# 4 0.0000 0.0000 0.0000 91.5328 0.0000 0.0000
# 5 0.0000 0.0000 0.0000 0.0000 40.9611 0.0000
# 6 0.0000 0.0000 0.0000 0.0000 0.0000 -15.4929
#
#
#
# Elastic Compliance Matrix: (Units=1/GPa)
#
#
# Indices 1 2 3 4 5 6 
#
# 1 0.010172 -0.001106 -0.001337 0.000000 0.000000 0.000000
# 2 -0.001106 0.007843 -0.003724 0.000000 0.000000 0.000000
# 3 -0.001337 -0.003724 0.008324 0.000000 0.000000 0.000000
# 4 0.000000 0.000000 0.000000 0.010925 0.000000 0.000000
# 5 0.000000 0.000000 0.000000 0.000000 0.024413 0.000000
# 6 0.000000 0.000000 0.000000 0.000000 0.000000 -0.064546
#
#
# Mechanical properties :
#
#
# Convention : Reuss Voigt Hill
#
# Bulk Modulus (GPa) = 71.39824 79.52529 75.46177
# Shear Modulus (GPa) = 353.78944 43.17783 198.48363
#
# Velocity S-wave (km/s) = 11.24958 3.93001 8.42609
# Velocity P-wave (km/s) = 13.93833 7.00286 11.02989
#
# Compressibility (1/GPa) = 0.01400595
#
# Stress axis : x y z
#
# Youngs Moduli (GPa) = 98.31087 127.50030 120.14002
#
# Poissons Ratio (x) = 0.14098 0.16060
# Poissons Ratio (y) = 0.10870 0.44738
# Poissons Ratio (z) = 0.13142 0.47478
#
# Static dielectric constant tensor:
#      x y z
#    x 2.242290 0.000000 0.000000 
#    y 0.000000 2.333790 0.000000 
#    z 0.000000 0.000000 2.612400 
# 
# From -- ./inp_files/7142.got.cif
#   From: 2010.05.17/outbox.cif.g08.bks.cpg/sg20_4_cif.got.tgz:7142.got - 2010.06.03 22:52:26.
