data_PCOD9321734
_publ_section_title
;
Structure prediction by ZEFSAII (Michael W. Deem and Ramdas Pophale) SiO2 
 PCOD9321734
Probable space group: C 2 2 21
;
_chemical_formula_sum "Si O2"
_cell_formula_units_Z 48
_cell_length_a 7.971932
_cell_length_b 16.536218
_cell_length_c 18.999711
_cell_angle_alpha 90.000000
_cell_angle_beta 90.000000
_cell_angle_gamma 90.000000
_cell_volume 2504.648406
_symmetry_space_group_name_H-M "C 2 2 21"
_symmetry_group_IT_number 20
_symmetry_cell_setting 'orthorhombic'
loop_
_space_group_symop_operation_xyz
x,y,z
-x,-y,1/2+z
x,-y,-z
-x,y,1/2-z
1/2+x,1/2+y,z
1/2-x,1/2-y,1/2+z
1/2+x,1/2-y,-z
1/2-x,1/2+y,1/2-z
loop_
_atom_site_type_symbol
_atom_site_label
_atom_site_fract_x
_atom_site_fract_y
_atom_site_fract_z
Si Si1 0.147869 0.878564 0.195012
Si Si2 0.569614 0.924857 0.544411
Si Si3 0.386607 0.352787 0.468786
Si Si4 0.320125 0.297305 0.785962
Si Si5 0.661535 0.048052 0.293870
Si Si6 0.768035 0.822118 0.949317
O O1 0.094896 0.876334 0.113004
O O2 0.252509 0.795406 0.209470
O O3 0.000000 0.870920 0.250000
O O4 0.224515 0.967752 0.207695
O O5 0.750230 0.905944 0.509687
O O6 0.608421 0.937572 0.625991
O O7 0.410300 0.865821 0.539776
O O8 0.505882 0.000000 0.500000
O O9 0.285392 0.268428 0.468642
O O10 0.568903 0.348490 0.505618
O O11 0.500000 0.293020 0.750000
O O12 0.225699 0.367192 0.740440
O O13 0.318594 0.326862 0.867008
O O14 0.500000 0.024421 0.250000
#
# Coordination Sequence:
#
# PCOD9321734 Si02
#       6
#     8   8   8   8   8   8
#     4  11  26  44  68 103 137 181 234 287 354 414
#     4  12  25  46  70 102 141 182 230 288 352 420
#     4  11  24  44  71 101 139 183 231 286 343 422
#     4  11  24  44  69 100 136 182 230 287 351 416
#     4  12  24  45  70  99 141 180 228 289 345 414
#     4  11  24  43  72 101 134 184 233 283 349 418
#
# _framework density 19.164365
#
# number of rings (size 3 to 8) (size 9 to 14) (size 15 to 20)
#    0.000    0.667    5.000    2.500    2.333    3.333 
#    3.000    0.000    0.000    0.000    0.000    0.000 
#    0.000    0.000    0.000    0.000    0.000    0.000 
#
# Total GULP energy -133756.382878 kJ/mol
# GULP energy per Si atom -5573.182620 kJ/mol
# Density = 1.912075 g / cm^3
# Si number density = 19.164365 Si / 1000 Ang^3
#
#
#
# Elastic Constant Matrix: (Units=GPa)
#
#
# Indices 1 2 3 4 5 6 
#
# 1 106.2893 8.2891 53.3522 0.0000 0.0000 0.0000
# 2 8.2891 74.9197 32.3875 0.0000 0.0000 0.0000
# 3 53.3522 32.3875 131.4730 0.0000 0.0000 0.0000
# 4 0.0000 0.0000 0.0000 23.2228 0.0000 0.0000
# 5 0.0000 0.0000 0.0000 0.0000 40.6237 0.0000
# 6 0.0000 0.0000 0.0000 0.0000 0.0000 41.6240
#
#
#
# Elastic Compliance Matrix: (Units=1/GPa)
#
#
# Indices 1 2 3 4 5 6 
#
# 1 0.011864 0.000860 -0.005026 0.000000 0.000000 0.000000
# 2 0.000860 0.015001 -0.004044 0.000000 0.000000 0.000000
# 3 -0.005026 -0.004044 0.010642 0.000000 0.000000 0.000000
# 4 0.000000 0.000000 0.000000 0.043061 0.000000 0.000000
# 5 0.000000 0.000000 0.000000 0.000000 0.024616 0.000000
# 6 0.000000 0.000000 0.000000 0.000000 0.000000 0.024025
#
#
# Mechanical properties :
#
#
# Convention : Reuss Voigt Hill
#
# Bulk Modulus (GPa) = 47.42488 55.63773 51.53130
# Shear Modulus (GPa) = 32.75268 35.67098 34.21183
#
# Velocity S-wave (km/s) = 4.13854 4.31898 4.22972
# Velocity P-wave (km/s) = 6.90194 7.34618 7.12752
#
# Compressibility (1/GPa) = 0.02108598
#
# Stress axis : x y z
#
# Youngs Moduli (GPa) = 84.28683 66.66289 93.96546
#
# Poissons Ratio (x) = -0.05735 0.47231
# Poissons Ratio (y) = -0.07251 0.38004
# Poissons Ratio (z) = 0.42367 0.26962
#
# Static dielectric constant tensor:
#      x y z
#    x 1.628960 0.000000 0.000000 
#    y 0.000000 1.816760 0.000000 
#    z 0.000000 0.000000 1.633630 
# 
# From -- ./inp_files/23467.got.cif
#   From: 2010.05.17/outbox.cif.g08.bks.cpg/sg20_12_cif.got.tgz:23467.got - 2010.06.03 22:52:26.
