data_PCOD9321293
_publ_section_title
;
Structure prediction by ZEFSAII (Michael W. Deem and Ramdas Pophale) SiO2 
 PCOD9321293
Probable space group: C 2 2 21
;
_chemical_formula_sum "Si O2"
_cell_formula_units_Z 56
_cell_length_a 8.561710
_cell_length_b 22.629602
_cell_length_c 14.833416
_cell_angle_alpha 90.000000
_cell_angle_beta 90.000000
_cell_angle_gamma 90.000000
_cell_volume 2873.946014
_symmetry_space_group_name_H-M "C 2 2 21"
_symmetry_group_IT_number 20
_symmetry_cell_setting 'orthorhombic'
loop_
_space_group_symop_operation_xyz
x,y,z
-x,-y,1/2+z
x,-y,-z
-x,y,1/2-z
1/2+x,1/2+y,z
1/2-x,1/2-y,1/2+z
1/2+x,1/2-y,-z
1/2-x,1/2+y,1/2-z
loop_
_atom_site_type_symbol
_atom_site_label
_atom_site_fract_x
_atom_site_fract_y
_atom_site_fract_z
Si Si1 0.165134 0.619043 0.024585
Si Si2 0.032050 0.403888 0.356312
Si Si3 0.358404 0.195167 0.315745
Si Si4 0.354905 0.613743 0.300467
Si Si5 0.261610 0.794915 0.093159
Si Si6 0.019134 0.184203 0.456162
Si Si7 0.058690 0.540391 0.353581
O O1 0.100398 0.675071 0.082664
O O2 0.350253 0.633257 0.024852
O O3 0.076307 0.567332 0.081440
O O4 0.111924 0.611535 0.922182
O O5 0.159336 0.356508 0.385921
O O6 0.080163 0.471499 0.374593
O O7 0.000000 0.398131 0.250000
O O8 0.500000 0.188998 0.250000
O O9 0.232662 0.149273 0.278519
O O10 0.297258 0.261350 0.317494
O O11 0.500000 0.581451 0.250000
O O12 0.426474 0.662140 0.367976
O O13 0.224251 0.575101 0.352361
O O14 0.384771 0.745556 0.056282
O O15 0.113124 0.806396 0.030384
O O16 0.000000 0.544894 0.250000
#
# Coordination Sequence:
#
# PCOD9321293 Si02
#       7
#     8   8   8   8   8   8   8
#     4  11  20  44  66  94 124 170 230 270 328 378
#     4  11  27  43  64  91 134 183 214 268 340 417
#     4  11  22  38  68  98 128 170 221 286 317 385
#     4  12  20  39  69 104 129 162 232 280 329 381
#     4  11  24  42  59  97 137 172 215 256 348 392
#     4  11  25  38  69  97 133 174 215 287 322 404
#     4  11  21  43  71  97 129 169 222 277 331 393
#
# _framework density 19.485403999999999
#
# number of rings (size 3 to 8) (size 9 to 14) (size 15 to 20)
#    0.000    0.857    5.714    3.000    4.000    1.143 
#    0.000    6.429    0.000    0.000    0.000    0.000 
#    0.000    0.000    0.000    0.000    0.000    0.000 
#
# Total GULP energy -156041.891199 kJ/mol
# GULP energy per Si atom -5572.924686 kJ/mol
# Density = 1.944105 g / cm^3
# Si number density = 19.485404 Si / 1000 Ang^3
#
#
#
# Elastic Constant Matrix: (Units=GPa)
#
#
# Indices 1 2 3 4 5 6 
#
# 1 127.7206 77.0279 48.5535 0.0000 0.0000 0.0000
# 2 77.0279 135.4057 39.1608 0.0000 0.0000 0.0000
# 3 48.5535 39.1608 92.7709 0.0000 0.0000 0.0000
# 4 0.0000 0.0000 0.0000 24.6054 0.0000 0.0000
# 5 0.0000 0.0000 0.0000 0.0000 23.5600 0.0000
# 6 0.0000 0.0000 0.0000 0.0000 0.0000 20.8887
#
#
#
# Elastic Compliance Matrix: (Units=1/GPa)
#
#
# Indices 1 2 3 4 5 6 
#
# 1 0.013258 -0.006305 -0.004277 0.000000 0.000000 0.000000
# 2 -0.006305 0.011411 -0.001517 0.000000 0.000000 0.000000
# 3 -0.004277 -0.001517 0.013658 0.000000 0.000000 0.000000
# 4 0.000000 0.000000 0.000000 0.040641 0.000000 0.000000
# 5 0.000000 0.000000 0.000000 0.000000 0.042445 0.000000
# 6 0.000000 0.000000 0.000000 0.000000 0.000000 0.047873
#
#
# Mechanical properties :
#
#
# Convention : Reuss Voigt Hill
#
# Bulk Modulus (GPa) = 70.77931 76.15349 73.46640
# Shear Modulus (GPa) = 25.22773 26.55447 25.89110
#
# Velocity S-wave (km/s) = 3.60210 3.69560 3.64915
# Velocity P-wave (km/s) = 7.32825 7.57477 7.45253
#
# Compressibility (1/GPa) = 0.01412842
#
# Stress axis : x y z
#
# Youngs Moduli (GPa) = 75.42452 87.63724 73.21604
#
# Poissons Ratio (x) = 0.55256 0.31318
# Poissons Ratio (y) = 0.47556 0.11105
# Poissons Ratio (z) = 0.32262 0.13293
#
# Static dielectric constant tensor:
#      x y z
#    x 1.723120 0.000000 0.000000 
#    y 0.000000 1.695400 0.000000 
#    z 0.000000 0.000000 1.729020 
# 
# From -- ./inp_files/19176.got.cif
#   From: 2010.05.17/outbox.cif.g08.bks.cpg/sg20_10_cif.got.tgz:19176.got - 2010.06.03 22:52:26.
