data_PCOD9321622
_publ_section_title
;
Structure prediction by ZEFSAII (Michael W. Deem and Ramdas Pophale) SiO2 
 PCOD9321622
Probable space group: C 2 2 21
;
_chemical_formula_sum "Si O2"
_cell_formula_units_Z 36
_cell_length_a 7.739631
_cell_length_b 18.694976
_cell_length_c 11.637992
_cell_angle_alpha 90.000000
_cell_angle_beta 90.000000
_cell_angle_gamma 90.000000
_cell_volume 1683.926850
_symmetry_space_group_name_H-M "C 2 2 21"
_symmetry_group_IT_number 20
_symmetry_cell_setting 'orthorhombic'
loop_
_space_group_symop_operation_xyz
x,y,z
-x,-y,1/2+z
x,-y,-z
-x,y,1/2-z
1/2+x,1/2+y,z
1/2-x,1/2-y,1/2+z
1/2+x,1/2-y,-z
1/2-x,1/2+y,1/2-z
loop_
_atom_site_type_symbol
_atom_site_label
_atom_site_fract_x
_atom_site_fract_y
_atom_site_fract_z
Si Si1 0.372199 0.937015 0.422617
Si Si2 0.500000 0.580228 0.250000
Si Si3 0.254913 0.543241 0.669310
Si Si4 0.200991 0.820932 0.567846
Si Si5 0.420615 0.687515 0.624303
O O1 0.274406 0.931653 0.301574
O O2 0.565986 0.960697 0.387778
O O3 0.347256 0.866424 0.498986
O O4 0.293838 0.000000 0.500000
O O5 0.631269 0.528232 0.179585
O O6 0.387220 0.629418 0.164649
O O7 0.351646 0.607374 0.606610
O O8 0.276768 0.748412 0.618302
O O9 0.060223 0.799820 0.473586
O O10 0.500000 0.691295 0.750000
#
# Coordination Sequence:
#
# PCOD9321622 Si02
#       5
#     8   4   8   8   8
#     4  11  23  44  71 107 144 185 242 301 360 429
#     4  12  26  46  78 112 144 190 254 300 356 438
#     4  11  24  45  76 104 146 191 236 303 367 430
#     4  12  28  46  74 108 149 191 249 301 361 442
#     4  12  27  48  73 102 150 194 240 295 376 433
#
# _framework density 21.378602000000001
#
# number of rings (size 3 to 8) (size 9 to 14) (size 15 to 20)
#    0.000    0.444    5.556    1.333    6.222    3.556 
#    0.000    0.000    0.000    0.000    0.000    0.000 
#    0.000    0.000    0.000    0.000    0.000    0.000 
#
# Total GULP energy -100695.801921 kJ/mol
# GULP energy per Si atom -5594.211218 kJ/mol
# Density = 2.132994 g / cm^3
# Si number density = 21.378602 Si / 1000 Ang^3
#
#
#
# Elastic Constant Matrix: (Units=GPa)
#
#
# Indices 1 2 3 4 5 6 
#
# 1 95.1714 50.0092 26.9326 0.0000 0.0000 0.0000
# 2 50.0092 115.2653 43.0073 0.0000 0.0000 0.0000
# 3 26.9326 43.0073 75.2101 0.0000 0.0000 0.0000
# 4 0.0000 0.0000 0.0000 -142.3832 0.0000 0.0000
# 5 0.0000 0.0000 0.0000 0.0000 23.8796 0.0000
# 6 0.0000 0.0000 0.0000 0.0000 0.0000 50.5717
#
#
#
# Elastic Compliance Matrix: (Units=1/GPa)
#
#
# Indices 1 2 3 4 5 6 
#
# 1 0.013828 -0.005278 -0.001934 0.000000 0.000000 0.000000
# 2 -0.005278 0.013043 -0.005568 0.000000 0.000000 0.000000
# 3 -0.001934 -0.005568 0.017173 0.000000 0.000000 0.000000
# 4 0.000000 0.000000 0.000000 -0.007023 0.000000 0.000000
# 5 0.000000 0.000000 0.000000 0.000000 0.041877 0.000000
# 6 0.000000 0.000000 0.000000 0.000000 0.000000 0.019774
#
#
# Mechanical properties :
#
#
# Convention : Reuss Voigt Hill
#
# Bulk Modulus (GPa) = 54.10163 58.39390 56.24776
# Shear Modulus (GPa) = 38.34571 -2.53987 17.90292
#
# Velocity S-wave (km/s) = 4.23974 -1.09116 2.89696
# Velocity P-wave (km/s) = 7.02343 5.07799 6.12840
#
# Compressibility (1/GPa) = 0.01848373
#
# Stress axis : x y z
#
# Youngs Moduli (GPa) = 72.31733 76.66816 58.23175
#
# Poissons Ratio (x) = 0.40465 0.11260
# Poissons Ratio (y) = 0.38169 0.32426
# Poissons Ratio (z) = 0.13984 0.42693
#
# Static dielectric constant tensor:
#      x y z
#    x 1.866450 0.000000 0.000000 
#    y 0.000000 1.756770 0.000000 
#    z 0.000000 0.000000 1.726620 
# 
# From -- ./inp_files/12832.got.cif
#   From: 2010.05.17/outbox.cif.g08.bks.cpg/sg20_7_cif.got.tgz:12832.got - 2010.06.03 22:52:26.
