data_PCOD9321050
_publ_section_title
;
Structure prediction by ZEFSAII (Michael W. Deem and Ramdas Pophale) SiO2 
 PCOD9321050
Probable space group: C 2 2 21
;
_chemical_formula_sum "Si O2"
_cell_formula_units_Z 40
_cell_length_a 15.616725
_cell_length_b 8.200758
_cell_length_c 12.986524
_cell_angle_alpha 90.000000
_cell_angle_beta 90.000000
_cell_angle_gamma 90.000000
_cell_volume 1663.170915
_symmetry_space_group_name_H-M "C 2 2 21"
_symmetry_group_IT_number 20
_symmetry_cell_setting 'orthorhombic'
loop_
_space_group_symop_operation_xyz
x,y,z
-x,-y,1/2+z
x,-y,-z
-x,y,1/2-z
1/2+x,1/2+y,z
1/2-x,1/2-y,1/2+z
1/2+x,1/2-y,-z
1/2-x,1/2+y,1/2-z
loop_
_atom_site_type_symbol
_atom_site_label
_atom_site_fract_x
_atom_site_fract_y
_atom_site_fract_z
Si Si1 0.075205 0.626789 0.666024
Si Si2 0.676557 0.500000 0.000000
Si Si3 0.012780 0.181109 0.986079
Si Si4 0.757011 0.235863 0.659007
Si Si5 0.217160 0.000000 0.500000
Si Si6 0.882022 0.253853 0.848928
O O1 0.158170 0.735176 0.696498
O O2 0.110474 0.447718 0.645370
O O3 0.000000 0.627585 0.750000
O O4 0.032831 0.696342 0.562344
O O5 0.610984 0.651558 0.017364
O O6 0.730778 0.572152 0.908329
O O7 0.982965 0.213347 0.869672
O O8 0.977664 0.000000 0.000000
O O9 0.766641 0.397171 0.588069
O O10 0.828414 0.223382 0.746224
O O11 0.168571 0.852736 0.436432
#
# Coordination Sequence:
#
# PCOD9321050 Si02
#       6
#     8   4   8   8   4   8
#     4  12  28  47  81 120 163 216 273 345 418 504
#     4  10  27  50  82 115 156 220 270 355 410 500
#     4  10  24  49  77 112 164 209 264 345 407 493
#     4  12  27  50  84 119 167 219 285 340 424 508
#     4  12  25  50  80 121 170 216 284 347 408 500
#     4  12  25  49  80 117 168 222 271 348 412 503
#
# _framework density 24.050445
#
# number of rings (size 3 to 8) (size 9 to 14) (size 15 to 20)
#    0.600    0.000    3.000    3.000    2.800    8.000 
#    0.000    1.000    0.000    0.000    0.000    0.000 
#    0.000    0.000    0.000    0.000    0.000    0.000 
#
# Total GULP energy -111455.884118 kJ/mol
# GULP energy per Si atom -5572.794206 kJ/mol
# Density = 2.399571 g / cm^3
# Si number density = 24.050445 Si / 1000 Ang^3
#
#
#
# Elastic Constant Matrix: (Units=GPa)
#
#
# Indices 1 2 3 4 5 6 
#
# 1 133.4482 42.4623 68.9041 0.0000 0.0000 0.0000
# 2 42.4623 94.4163 60.2306 0.0000 0.0000 0.0000
# 3 68.9041 60.2306 137.6245 0.0000 0.0000 0.0000
# 4 0.0000 0.0000 0.0000 29.1990 0.0000 0.0000
# 5 0.0000 0.0000 0.0000 0.0000 38.1704 0.0000
# 6 0.0000 0.0000 0.0000 0.0000 0.0000 37.7902
#
#
#
# Elastic Compliance Matrix: (Units=1/GPa)
#
#
# Indices 1 2 3 4 5 6 
#
# 1 0.010339 -0.001870 -0.004358 0.000000 0.000000 0.000000
# 2 -0.001870 0.015032 -0.005643 0.000000 0.000000 0.000000
# 3 -0.004358 -0.005643 0.011917 0.000000 0.000000 0.000000
# 4 0.000000 0.000000 0.000000 0.034248 0.000000 0.000000
# 5 0.000000 0.000000 0.000000 0.000000 0.026198 0.000000
# 6 0.000000 0.000000 0.000000 0.000000 0.000000 0.026462
#
#
# Mechanical properties :
#
#
# Convention : Reuss Voigt Hill
#
# Bulk Modulus (GPa) = 73.81360 78.74256 76.27808
# Shear Modulus (GPa) = 32.79724 33.95804 33.37764
#
# Velocity S-wave (km/s) = 3.69682 3.76167 3.72938
# Velocity P-wave (km/s) = 6.99855 7.18878 7.09430
#
# Compressibility (1/GPa) = 0.01354764
#
# Stress axis : x y z
#
# Youngs Moduli (GPa) = 96.72466 66.52611 83.91037
#
# Poissons Ratio (x) = 0.12437 0.36568
# Poissons Ratio (y) = 0.18083 0.47346
# Poissons Ratio (z) = 0.42153 0.37537
#
# Static dielectric constant tensor:
#      x y z
#    x 2.052680 0.000000 0.000000 
#    y 0.000000 1.880050 0.000000 
#    z 0.000000 0.000000 1.927120 
# 
# From -- ./inp_files/15595.got.cif
#   From: 2010.05.17/outbox.cif.g08.bks.cpg/sg20_8_cif.got.tgz:15595.got - 2010.06.03 22:52:26.
