data_PCOD9321536
_publ_section_title
;
Structure prediction by ZEFSAII (Michael W. Deem and Ramdas Pophale) SiO2 
 PCOD9321536
Probable space group: C 2 2 21
;
_chemical_formula_sum "Si O2"
_cell_formula_units_Z 64
_cell_length_a 11.047898
_cell_length_b 9.331127
_cell_length_c 28.846568
_cell_angle_alpha 90.000000
_cell_angle_beta 90.000000
_cell_angle_gamma 90.000000
_cell_volume 2973.773637
_symmetry_space_group_name_H-M "C 2 2 21"
_symmetry_group_IT_number 20
_symmetry_cell_setting 'orthorhombic'
loop_
_space_group_symop_operation_xyz
x,y,z
-x,-y,1/2+z
x,-y,-z
-x,y,1/2-z
1/2+x,1/2+y,z
1/2-x,1/2-y,1/2+z
1/2+x,1/2-y,-z
1/2-x,1/2+y,1/2-z
loop_
_atom_site_type_symbol
_atom_site_label
_atom_site_fract_x
_atom_site_fract_y
_atom_site_fract_z
Si Si1 0.471504 0.629105 0.676410
Si Si2 0.687499 0.932346 0.544120
Si Si3 0.196787 0.566533 0.113551
Si Si4 0.710731 0.890490 0.278690
Si Si5 0.825842 0.086580 0.207475
Si Si6 0.667517 0.615267 0.539742
Si Si7 0.439425 0.938520 0.855139
Si Si8 0.101218 0.860757 0.073501
O O1 0.349057 0.642226 0.705712
O O2 0.559859 0.514850 0.699371
O O3 0.537781 0.781667 0.667730
O O4 0.431855 0.582055 0.624902
O O5 0.723093 0.770829 0.531245
O O6 0.621256 0.925881 0.593985
O O7 0.616442 0.000000 0.500000
O O8 0.801449 0.035159 0.551392
O O9 0.275564 0.622296 0.156406
O O10 0.274249 0.452287 0.085617
O O11 0.155882 0.702376 0.082520
O O12 0.073401 0.501727 0.134412
O O13 0.651766 0.737436 0.267582
O O14 0.725396 0.997847 0.235863
O O15 0.639284 0.966842 0.320411
O O16 0.688663 0.500000 0.500000
O O17 0.524146 0.641610 0.545858
#
# Coordination Sequence:
#
# PCOD9321536 Si02
#       8
#     8   8   8   8   8   8   8   8
#     4  11  22  47  72  95 136 182 228 283 348 405
#     4  12  24  44  69 101 135 174 228 280 339 413
#     4  11  23  47  71  98 138 181 230 281 345 413
#     4  12  26  45  69 102 141 180 232 292 344 415
#     4  12  24  44  71 101 137 184 230 288 349 411
#     4  12  26  45  70 101 137 179 226 283 345 411
#     4  11  23  47  73  94 138 187 223 284 352 406
#     4  11  22  47  73  96 136 181 225 283 347 404
#
# _framework density 21.521478999999999
#
# number of rings (size 3 to 8) (size 9 to 14) (size 15 to 20)
#    0.000    0.500    7.500    2.250    0.000    2.000 
#   13.500    0.000    0.000    0.000    0.000    0.000 
#    0.000    0.000    0.000    0.000    0.000    0.000 
#
# Total GULP energy -178949.991817 kJ/mol
# GULP energy per Si atom -5592.187244 kJ/mol
# Density = 2.147249 g / cm^3
# Si number density = 21.521479 Si / 1000 Ang^3
#
#
#
# Elastic Constant Matrix: (Units=GPa)
#
#
# Indices 1 2 3 4 5 6 
#
# 1 96.9482 47.4819 5.6529 0.0000 0.0000 0.0000
# 2 47.4819 128.5937 40.5075 0.0000 0.0000 0.0000
# 3 5.6529 40.5075 58.2543 0.0000 0.0000 0.0000
# 4 0.0000 0.0000 0.0000 34.6421 0.0000 0.0000
# 5 0.0000 0.0000 0.0000 0.0000 31.1479 0.0000
# 6 0.0000 0.0000 0.0000 0.0000 0.0000 24.4592
#
#
#
# Elastic Compliance Matrix: (Units=1/GPa)
#
#
# Indices 1 2 3 4 5 6 
#
# 1 0.012901 -0.005595 0.002638 0.000000 0.000000 0.000000
# 2 -0.005595 0.012384 -0.008068 0.000000 0.000000 0.000000
# 3 0.002638 -0.008068 0.022520 0.000000 0.000000 0.000000
# 4 0.000000 0.000000 0.000000 0.028867 0.000000 0.000000
# 5 0.000000 0.000000 0.000000 0.000000 0.032105 0.000000
# 6 0.000000 0.000000 0.000000 0.000000 0.000000 0.040884
#
#
# Mechanical properties :
#
#
# Convention : Reuss Voigt Hill
#
# Bulk Modulus (GPa) = 38.82572 52.34232 45.58402
# Shear Modulus (GPa) = 27.73229 30.72677 29.22953
#
# Velocity S-wave (km/s) = 3.59358 3.78262 3.68931
# Velocity P-wave (km/s) = 5.94122 6.59177 6.27493
#
# Compressibility (1/GPa) = 0.02575612
#
# Stress axis : x y z
#
# Youngs Moduli (GPa) = 77.51331 80.75128 44.40433
#
# Poissons Ratio (x) = 0.45178 -0.11716
# Poissons Ratio (y) = 0.43366 0.35826
# Poissons Ratio (z) = -0.20451 0.65152
#
# Static dielectric constant tensor:
#      x y z
#    x 1.782690 0.000000 0.000000 
#    y 0.000000 1.776990 0.000000 
#    z 0.000000 0.000000 1.809470 
# 
# From -- ./inp_files/31056.got.cif
#   From: 2010.05.17/outbox.cif.g08.bks.cpg/sg20_16_cif.got.tgz:31056.got - 2010.06.03 22:52:26.
