data_PCOD9321513
_publ_section_title
;
Structure prediction by ZEFSAII (Michael W. Deem and Ramdas Pophale) SiO2 
 PCOD9321513
Probable space group: C 2 2 21
;
_chemical_formula_sum "Si O2"
_cell_formula_units_Z 40
_cell_length_a 9.534953
_cell_length_b 23.481963
_cell_length_c 8.738390
_cell_angle_alpha 90.000000
_cell_angle_beta 90.000000
_cell_angle_gamma 90.000000
_cell_volume 1956.520396
_symmetry_space_group_name_H-M "C 2 2 21"
_symmetry_group_IT_number 20
_symmetry_cell_setting 'orthorhombic'
loop_
_space_group_symop_operation_xyz
x,y,z
-x,-y,1/2+z
x,-y,-z
-x,y,1/2-z
1/2+x,1/2+y,z
1/2-x,1/2-y,1/2+z
1/2+x,1/2-y,-z
1/2-x,1/2+y,1/2-z
loop_
_atom_site_type_symbol
_atom_site_label
_atom_site_fract_x
_atom_site_fract_y
_atom_site_fract_z
Si Si1 0.605457 0.222349 0.865938
Si Si2 0.609144 0.786429 0.638234
Si Si3 0.345999 0.502601 0.682529
Si Si4 0.351661 0.093112 0.308320
Si Si5 0.148227 0.596584 0.823100
O O1 0.500000 0.254528 0.750000
O O2 0.745831 0.256374 0.908338
O O3 0.661382 0.163952 0.790685
O O4 0.496284 0.203536 0.997562
O O5 0.500000 0.752896 0.750000
O O6 0.651470 0.843941 0.730565
O O7 0.346151 0.500000 0.500000
O O8 0.500000 0.504639 0.750000
O O9 0.269632 0.446431 0.745152
O O10 0.263447 0.557478 0.745176
O O11 0.500000 0.068710 0.250000
O O12 0.347821 0.091763 0.492414
O O13 0.000000 0.578978 0.750000
#
# Coordination Sequence:
#
# PCOD9321513 Si02
#       5
#     8   8   8   8   8
#     4  11  24  41  71 103 143 188 238 291 353 423
#     4  11  23  45  67 104 143 187 239 292 355 423
#     4  12  27  46  68 101 139 179 230 294 358 416
#     4  11  22  44  70  98 136 182 234 285 344 422
#     4  11  23  44  71 100 132 183 236 283 345 424
#
# _framework density 20.444458000000001
#
# number of rings (size 3 to 8) (size 9 to 14) (size 15 to 20)
#    0.000    0.800    4.000    4.800    2.800    1.600 
#    3.600    0.000    0.000    0.000    0.000    0.000 
#    0.000    0.000    0.000    0.000    0.000    0.000 
#
# Total GULP energy -111603.934599 kJ/mol
# GULP energy per Si atom -5580.196730 kJ/mol
# Density = 2.039793 g / cm^3
# Si number density = 20.444458 Si / 1000 Ang^3
#
#
#
# Elastic Constant Matrix: (Units=GPa)
#
#
# Indices 1 2 3 4 5 6 
#
# 1 200.3632 88.1943 68.9080 0.0000 0.0000 0.0000
# 2 88.1943 91.2826 49.3843 0.0000 0.0000 0.0000
# 3 68.9080 49.3843 156.5355 0.0000 0.0000 0.0000
# 4 0.0000 0.0000 0.0000 22.9759 0.0000 0.0000
# 5 0.0000 0.0000 0.0000 0.0000 39.7070 0.0000
# 6 0.0000 0.0000 0.0000 0.0000 0.0000 25.1705
#
#
#
# Elastic Compliance Matrix: (Units=1/GPa)
#
#
# Indices 1 2 3 4 5 6 
#
# 1 0.008953 -0.007859 -0.001462 0.000000 0.000000 0.000000
# 2 -0.007859 0.020109 -0.002884 0.000000 0.000000 0.000000
# 3 -0.001462 -0.002884 0.007942 0.000000 0.000000 0.000000
# 4 0.000000 0.000000 0.000000 0.043524 0.000000 0.000000
# 5 0.000000 0.000000 0.000000 0.000000 0.025184 0.000000
# 6 0.000000 0.000000 0.000000 0.000000 0.000000 0.039729
#
#
# Mechanical properties :
#
#
# Convention : Reuss Voigt Hill
#
# Bulk Modulus (GPa) = 79.40936 95.68383 87.54660
# Shear Modulus (GPa) = 28.72745 33.68367 31.20556
#
# Velocity S-wave (km/s) = 3.75259 4.06343 3.91110
# Velocity P-wave (km/s) = 7.59617 8.30173 7.95677
#
# Compressibility (1/GPa) = 0.01259297
#
# Stress axis : x y z
#
# Youngs Moduli (GPa) = 111.69240 49.72915 125.91742
#
# Poissons Ratio (x) = 0.39084 0.18406
# Poissons Ratio (y) = 0.87784 0.36318
# Poissons Ratio (z) = 0.16326 0.14343
#
# Static dielectric constant tensor:
#      x y z
#    x 1.661810 0.000000 0.000000 
#    y 0.000000 1.734100 0.000000 
#    z 0.000000 0.000000 1.862210 
# 
# From -- ./inp_files/6079.got.cif
#   From: 2010.05.17/outbox.cif.g08.bks.cpg/sg20_4_cif.got.tgz:6079.got - 2010.06.03 22:52:26.
