data_PCOD9321992
_publ_section_title
;
Structure prediction by ZEFSAII (Michael W. Deem and Ramdas Pophale) SiO2 
 PCOD9321992
Probable space group: C 2 2 21
;
_chemical_formula_sum "Si O2"
_cell_formula_units_Z 40
_cell_length_a 24.831885
_cell_length_b 11.690849
_cell_length_c 5.455005
_cell_angle_alpha 90.000000
_cell_angle_beta 90.000000
_cell_angle_gamma 90.000000
_cell_volume 1583.619688
_symmetry_space_group_name_H-M "C 2 2 21"
_symmetry_group_IT_number 20
_symmetry_cell_setting 'orthorhombic'
loop_
_space_group_symop_operation_xyz
x,y,z
-x,-y,1/2+z
x,-y,-z
-x,y,1/2-z
1/2+x,1/2+y,z
1/2-x,1/2-y,1/2+z
1/2+x,1/2-y,-z
1/2-x,1/2+y,1/2-z
loop_
_atom_site_type_symbol
_atom_site_label
_atom_site_fract_x
_atom_site_fract_y
_atom_site_fract_z
Si Si1 0.321363 0.000000 0.000000
Si Si2 0.500000 0.705140 0.750000
Si Si3 0.950859 0.000000 0.000000
Si Si4 0.408371 0.112189 0.368912
Si Si5 0.737550 0.382422 0.360844
Si Si6 0.119011 0.000000 0.000000
Si Si7 0.327207 0.276957 0.477739
O O1 0.279442 0.919454 0.145007
O O2 0.362519 0.067042 0.180589
O O3 0.513784 0.617248 0.526858
O O4 0.549445 0.794647 0.774820
O O5 0.917329 0.987459 0.254534
O O6 0.372608 0.188241 0.552060
O O7 0.432384 0.000000 0.500000
O O8 0.730274 0.500000 0.500000
O O9 0.680302 0.325308 0.298763
O O10 0.771597 0.288098 0.501190
O O11 0.157989 0.897589 0.910523
#
# Coordination Sequence:
#
# PCOD9321992 Si02
#       7
#     4   4   4   8   8   4   8
#     4  12  23  50  75 112 162 201 266 333 410 512
#     4  12  30  52  86 122 162 222 284 356 434 508
#     4  12  29  58  81 122 166 211 282 360 415 514
#     4  12  27  53  76 118 159 214 273 343 424 503
#     4  12  27  47  74 116 158 210 277 336 420 497
#     4  12  30  52  86 116 166 216 276 347 433 494
#     4  12  26  48  77 112 159 219 268 345 413 509
#
# _framework density 25.258590999999999
#
# number of rings (size 3 to 8) (size 9 to 14) (size 15 to 20)
#    0.000    0.000    6.000    2.400    8.400    0.000 
#    3.600    0.000    0.000    0.000    0.000    0.000 
#    0.000    0.000    0.000    0.000    0.000    0.000 
#
# Total GULP energy -111476.359609 kJ/mol
# GULP energy per Si atom -5573.817980 kJ/mol
# Density = 2.520110 g / cm^3
# Si number density = 25.258591 Si / 1000 Ang^3
#
#
#
# Elastic Constant Matrix: (Units=GPa)
#
#
# Indices 1 2 3 4 5 6 
#
# 1 73.6182 54.2086 15.5677 0.0000 0.0000 0.0000
# 2 54.2086 220.5446 40.2888 0.0000 0.0000 0.0000
# 3 15.5677 40.2888 82.7604 0.0000 0.0000 0.0000
# 4 0.0000 0.0000 0.0000 46.5983 0.0000 0.0000
# 5 0.0000 0.0000 0.0000 0.0000 31.0142 0.0000
# 6 0.0000 0.0000 0.0000 0.0000 0.0000 65.2388
#
#
#
# Elastic Compliance Matrix: (Units=1/GPa)
#
#
# Indices 1 2 3 4 5 6 
#
# 1 0.016703 -0.003876 -0.001255 0.000000 0.000000 0.000000
# 2 -0.003876 0.005876 -0.002132 0.000000 0.000000 0.000000
# 3 -0.001255 -0.002132 0.013357 0.000000 0.000000 0.000000
# 4 0.000000 0.000000 0.000000 0.021460 0.000000 0.000000
# 5 0.000000 0.000000 0.000000 0.000000 0.032243 0.000000
# 6 0.000000 0.000000 0.000000 0.000000 0.000000 0.015328
#
#
# Mechanical properties :
#
#
# Convention : Reuss Voigt Hill
#
# Bulk Modulus (GPa) = 46.70524 66.33927 56.52226
# Shear Modulus (GPa) = 39.48492 46.36082 42.92287
#
# Velocity S-wave (km/s) = 3.95806 4.28886 4.12677
# Velocity P-wave (km/s) = 6.27848 7.13070 6.71811
#
# Compressibility (1/GPa) = 0.02141087
#
# Stress axis : x y z
#
# Youngs Moduli (GPa) = 59.86844 170.17228 74.86825
#
# Poissons Ratio (x) = 0.65964 0.09395
# Poissons Ratio (y) = 0.23207 0.15959
# Poissons Ratio (z) = 0.07513 0.36273
#
# Static dielectric constant tensor:
#      x y z
#    x 2.087530 0.000000 0.000000 
#    y 0.000000 2.076220 0.000000 
#    z 0.000000 0.000000 2.400010 
# 
# From -- ./inp_files/4142.got.cif
#   From: 2010.05.17/outbox.cif.g08.bks.cpg/sg20_3_cif.got.tgz:4142.got - 2010.06.03 22:52:26.
