data_PCOD9321910
_publ_section_title
;
Structure prediction by ZEFSAII (Michael W. Deem and Ramdas Pophale) SiO2 
 PCOD9321910
Probable space group: C 2 2 21
;
_chemical_formula_sum "Si O2"
_cell_formula_units_Z 32
_cell_length_a 24.920408
_cell_length_b 5.769443
_cell_length_c 8.559376
_cell_angle_alpha 90.000000
_cell_angle_beta 90.000000
_cell_angle_gamma 90.000000
_cell_volume 1230.640320
_symmetry_space_group_name_H-M "C 2 2 21"
_symmetry_group_IT_number 20
_symmetry_cell_setting 'orthorhombic'
loop_
_space_group_symop_operation_xyz
x,y,z
-x,-y,1/2+z
x,-y,-z
-x,y,1/2-z
1/2+x,1/2+y,z
1/2-x,1/2-y,1/2+z
1/2+x,1/2-y,-z
1/2-x,1/2+y,1/2-z
loop_
_atom_site_type_symbol
_atom_site_label
_atom_site_fract_x
_atom_site_fract_y
_atom_site_fract_z
Si Si1 0.500000 0.704847 0.250000
Si Si2 0.604552 0.000000 0.500000
Si Si3 0.816586 0.197059 0.197397
Si Si4 0.560767 0.000000 0.000000
Si Si5 0.905057 0.841655 0.236405
Si Si6 0.266877 0.500000 0.500000
O O1 0.448162 0.542372 0.240991
O O2 0.478465 0.867284 0.385130
O O3 0.639589 0.882270 0.361797
O O4 0.574240 0.808516 0.593019
O O5 0.766705 0.307317 0.100912
O O6 0.798694 0.159883 0.376064
O O7 0.847504 0.947915 0.179750
O O8 0.594199 0.810905 0.895608
#
# Coordination Sequence:
#
# PCOD9321910 Si02
#       6
#     4   4   8   4   8   4
#     4  12  30  54  82 122 172 228 280 346 420 512
#     4  11  28  51  84 122 168 214 280 350 428 498
#     4  11  29  53  81 121 165 219 279 356 422 513
#     4  12  30  50  80 126 166 232 285 342 423 510
#     4  12  29  52  84 122 170 223 280 351 425 506
#     4  11  30  53  86 122 164 222 287 350 443 506
#
# _framework density 26.002721999999999
#
# number of rings (size 3 to 8) (size 9 to 14) (size 15 to 20)
#    0.000    0.500    0.000    3.750   17.500   16.000 
#    0.000    0.000    0.000    0.000    0.000    0.000 
#    0.000    0.000    0.000    0.000    0.000    0.000 
#
# Total GULP energy -89342.342811 kJ/mol
# GULP energy per Si atom -5583.896426 kJ/mol
# Density = 2.594354 g / cm^3
# Si number density = 26.002722 Si / 1000 Ang^3
#
#
#
# Elastic Constant Matrix: (Units=GPa)
#
#
# Indices 1 2 3 4 5 6 
#
# 1 57.5944 54.5137 66.6231 0.0000 0.0000 0.0000
# 2 54.5137 167.6564 115.2470 0.0000 0.0000 0.0000
# 3 66.6231 115.2470 196.1227 0.0000 0.0000 0.0000
# 4 0.0000 0.0000 0.0000 68.2029 0.0000 0.0000
# 5 0.0000 0.0000 0.0000 0.0000 38.6297 0.0000
# 6 0.0000 0.0000 0.0000 0.0000 0.0000 24.9223
#
#
#
# Elastic Compliance Matrix: (Units=1/GPa)
#
#
# Indices 1 2 3 4 5 6 
#
# 1 0.030675 -0.004716 -0.007649 0.000000 0.000000 0.000000
# 2 -0.004716 0.010732 -0.004704 0.000000 0.000000 0.000000
# 3 -0.007649 -0.004704 0.010462 0.000000 0.000000 0.000000
# 4 0.000000 0.000000 0.000000 0.014662 0.000000 0.000000
# 5 0.000000 0.000000 0.000000 0.000000 0.025887 0.000000
# 6 0.000000 0.000000 0.000000 0.000000 0.000000 0.040125
#
#
# Mechanical properties :
#
#
# Convention : Reuss Voigt Hill
#
# Bulk Modulus (GPa) = 56.40321 99.34902 77.87611
# Shear Modulus (GPa) = 28.97048 38.68362 33.82705
#
# Velocity S-wave (km/s) = 3.34148 3.86122 3.61072
# Velocity P-wave (km/s) = 6.05192 7.62685 6.88457
#
# Compressibility (1/GPa) = 0.01772949
#
# Stress axis : x y z
#
# Youngs Moduli (GPa) = 32.60030 93.18228 95.58854
#
# Poissons Ratio (x) = 0.43945 0.73115
# Poissons Ratio (y) = 0.15374 0.44967
# Poissons Ratio (z) = 0.24936 0.43835
#
# Static dielectric constant tensor:
#      x y z
#    x 2.073430 0.000000 0.000000 
#    y 0.000000 2.169220 0.000000 
#    z 0.000000 0.000000 2.056450 
# 
# From -- ./inp_files/11324.got.cif
#   From: 2010.05.17/outbox.cif.g08.bks.cpg/sg20_6_cif.got.tgz:11324.got - 2010.06.03 22:52:26.
