data_PCOD9321079
_publ_section_title
;
Structure prediction by ZEFSAII (Michael W. Deem and Ramdas Pophale) SiO2 
 PCOD9321079
Probable space group: C 2 2 21
;
_chemical_formula_sum "Si O2"
_cell_formula_units_Z 48
_cell_length_a 8.522118
_cell_length_b 10.866975
_cell_length_c 21.800373
_cell_angle_alpha 90.000000
_cell_angle_beta 90.000000
_cell_angle_gamma 90.000000
_cell_volume 2018.924766
_symmetry_space_group_name_H-M "C 2 2 21"
_symmetry_group_IT_number 20
_symmetry_cell_setting 'orthorhombic'
loop_
_space_group_symop_operation_xyz
x,y,z
-x,-y,1/2+z
x,-y,-z
-x,y,1/2-z
1/2+x,1/2+y,z
1/2-x,1/2-y,1/2+z
1/2+x,1/2-y,-z
1/2-x,1/2+y,1/2-z
loop_
_atom_site_type_symbol
_atom_site_label
_atom_site_fract_x
_atom_site_fract_y
_atom_site_fract_z
Si Si1 0.671199 0.857270 0.361787
Si Si2 0.025564 0.849759 0.322226
Si Si3 0.894760 0.379974 0.541698
Si Si4 0.328473 0.600973 0.160123
Si Si5 0.159334 0.391468 0.712145
Si Si6 0.273311 0.866167 0.001550
O O1 0.582308 0.731844 0.344269
O O2 0.640676 0.873775 0.432755
O O3 0.854274 0.822712 0.349361
O O4 0.651713 0.984155 0.326537
O O5 0.151241 0.738019 0.324262
O O6 0.000000 0.872333 0.250000
O O7 0.078015 0.976744 0.352050
O O8 0.865068 0.500000 0.500000
O O9 0.805749 0.400111 0.606712
O O10 0.828278 0.256858 0.507898
O O11 0.083043 0.360346 0.546089
O O12 0.280423 0.597758 0.231859
O O13 0.000000 0.386291 0.750000
O O14 0.187865 0.000000 0.000000
#
# Coordination Sequence:
#
# PCOD9321079 Si02
#       6
#     8   8   8   8   8   8
#     4  11  24  43  65  98 133 172 216 274 329 400
#     4  11  22  42  64  99 137 169 214 268 335 405
#     4  10  25  44  66  96 128 174 228 278 325 390
#     4  11  22  42  67  96 134 171 219 271 330 403
#     4  11  22  39  68  96 135 175 209 267 340 396
#     4  10  25  45  69  92 134 172 232 275 330 390
#
# _framework density 23.775031999999999
#
# number of rings (size 3 to 8) (size 9 to 14) (size 15 to 20)
#    0.000    1.333    5.000    0.000    4.667    8.000 
#    3.000    0.000    0.000    0.000    0.000    0.000 
#    0.000    0.000    0.000    0.000    0.000    0.000 
#
# Total GULP energy -133893.551159 kJ/mol
# GULP energy per Si atom -5578.897965 kJ/mol
# Density = 2.372092 g / cm^3
# Si number density = 23.775032 Si / 1000 Ang^3
#
#
#
# Elastic Constant Matrix: (Units=GPa)
#
#
# Indices 1 2 3 4 5 6 
#
# 1 44.5921 25.4467 3.5871 0.0000 0.0000 0.0000
# 2 25.4467 228.3270 34.5256 0.0000 0.0000 0.0000
# 3 3.5871 34.5256 86.1791 0.0000 0.0000 0.0000
# 4 0.0000 0.0000 0.0000 69.4243 0.0000 0.0000
# 5 0.0000 0.0000 0.0000 0.0000 23.4835 0.0000
# 6 0.0000 0.0000 0.0000 0.0000 0.0000 78.5265
#
#
#
# Elastic Compliance Matrix: (Units=1/GPa)
#
#
# Indices 1 2 3 4 5 6 
#
# 1 0.023949 -0.002681 0.000077 0.000000 0.000000 0.000000
# 2 -0.002681 0.004962 -0.001876 0.000000 0.000000 0.000000
# 3 0.000077 -0.001876 0.012352 0.000000 0.000000 0.000000
# 4 0.000000 0.000000 0.000000 0.014404 0.000000 0.000000
# 5 0.000000 0.000000 0.000000 0.000000 0.042583 0.000000
# 6 0.000000 0.000000 0.000000 0.000000 0.000000 0.012735
#
#
# Mechanical properties :
#
#
# Convention : Reuss Voigt Hill
#
# Bulk Modulus (GPa) = 30.95641 54.02412 42.49026
# Shear Modulus (GPa) = 38.25167 53.98943 46.12055
#
# Velocity S-wave (km/s) = 4.01546 4.77051 4.40918
# Velocity P-wave (km/s) = 5.87770 7.28808 6.62055
#
# Compressibility (1/GPa) = 0.03230349
#
# Stress axis : x y z
#
# Youngs Moduli (GPa) = 41.75527 201.52425 80.95682
#
# Poissons Ratio (x) = 0.54024 -0.00624
# Poissons Ratio (y) = 0.11194 0.15191
# Poissons Ratio (z) = -0.00322 0.37814
#
# Static dielectric constant tensor:
#      x y z
#    x 1.266810 0.000000 0.000000 
#    y 0.000000 2.029060 0.000000 
#    z 0.000000 0.000000 1.901330 
# 
# From -- ./inp_files/28720.got.cif
#   From: 2010.05.17/outbox.cif.g08.bks.cpg/sg20_15_cif.got.tgz:28720.got - 2010.06.03 22:52:26.
