data_PCOD9321207
_publ_section_title
;
Structure prediction by ZEFSAII (Michael W. Deem and Ramdas Pophale) SiO2 
 PCOD9321207
Probable space group: C 2 2 21
;
_chemical_formula_sum "Si O2"
_cell_formula_units_Z 56
_cell_length_a 8.514176
_cell_length_b 19.025483
_cell_length_c 14.312487
_cell_angle_alpha 90.000000
_cell_angle_beta 90.000000
_cell_angle_gamma 90.000000
_cell_volume 2318.426967
_symmetry_space_group_name_H-M "C 2 2 21"
_symmetry_group_IT_number 20
_symmetry_cell_setting 'orthorhombic'
loop_
_space_group_symop_operation_xyz
x,y,z
-x,-y,1/2+z
x,-y,-z
-x,y,1/2-z
1/2+x,1/2+y,z
1/2-x,1/2-y,1/2+z
1/2+x,1/2-y,-z
1/2-x,1/2+y,1/2-z
loop_
_atom_site_type_symbol
_atom_site_label
_atom_site_fract_x
_atom_site_fract_y
_atom_site_fract_z
Si Si1 0.891262 0.104054 0.575051
Si Si2 0.123985 0.227065 0.510681
Si Si3 0.403975 0.500000 0.000000
Si Si4 0.334066 0.290760 0.790612
Si Si5 0.321831 0.893205 0.456387
Si Si6 0.378760 0.888484 0.941783
Si Si7 0.500000 0.871201 0.750000
Si Si8 0.183389 0.368188 0.245092
O O1 0.790231 0.093831 0.480780
O O2 0.784287 0.112891 0.665007
O O3 0.997311 0.173436 0.555964
O O4 0.991533 0.033540 0.579988
O O5 0.122609 0.228718 0.398120
O O6 0.291306 0.189089 0.528841
O O7 0.116404 0.303177 0.556281
O O8 0.289998 0.435951 0.973645
O O9 0.500000 0.322240 0.750000
O O10 0.164176 0.330470 0.780959
O O11 0.306130 0.216474 0.738578
O O12 0.497392 0.912341 0.480136
O O13 0.269748 0.905544 0.350740
O O14 0.439295 0.912199 0.841393
O O15 0.000000 0.384198 0.250000
#
# Coordination Sequence:
#
# PCOD9321207 Si02
#       8
#     8   8   4   8   8   8   4   8
#     4  11  23  43  71  99 138 183 238 290 370 426
#     4  11  21  38  65 102 147 182 215 292 362 437
#     4  10  28  46  66  94 128 188 232 304 356 424
#     4  11  21  38  62 104 151 183 233 288 359 438
#     4  11  23  44  69  96 144 178 235 297 358 421
#     4  12  21  40  66 102 137 180 230 286 367 434
#     4  12  24  36  62 102 142 196 228 270 368 458
#     4  11  21  41  70 109 131 184 244 303 349 432
#
# _framework density 24.154308
#
# number of rings (size 3 to 8) (size 9 to 14) (size 15 to 20)
#    0.000    0.857    4.286    4.286    0.000    4.000 
#    0.000    2.857    6.286    0.000    0.000    0.000 
#    0.000    0.000    0.000    0.000    0.000    0.000 
#
# Total GULP energy -156319.172190 kJ/mol
# GULP energy per Si atom -5582.827578 kJ/mol
# Density = 2.409933 g / cm^3
# Si number density = 24.154308 Si / 1000 Ang^3
#
#
#
# Elastic Constant Matrix: (Units=GPa)
#
#
# Indices 1 2 3 4 5 6 
#
# 1 111.1160 21.7461 15.1461 0.0000 0.0000 0.0000
# 2 21.7461 53.0228 8.7642 0.0000 0.0000 0.0000
# 3 15.1461 8.7642 115.3973 0.0000 0.0000 0.0000
# 4 0.0000 0.0000 0.0000 7.2467 0.0000 0.0000
# 5 0.0000 0.0000 0.0000 0.0000 47.7007 0.0000
# 6 0.0000 0.0000 0.0000 0.0000 0.0000 5.8527
#
#
#
# Elastic Compliance Matrix: (Units=1/GPa)
#
#
# Indices 1 2 3 4 5 6 
#
# 1 0.009898 -0.003894 -0.001003 0.000000 0.000000 0.000000
# 2 -0.003894 0.020631 -0.001056 0.000000 0.000000 0.000000
# 3 -0.001003 -0.001056 0.008878 0.000000 0.000000 0.000000
# 4 0.000000 0.000000 0.000000 0.137994 0.000000 0.000000
# 5 0.000000 0.000000 0.000000 0.000000 0.020964 0.000000
# 6 0.000000 0.000000 0.000000 0.000000 0.000000 0.170862
#
#
# Mechanical properties :
#
#
# Convention : Reuss Voigt Hill
#
# Bulk Modulus (GPa) = 36.36207 41.20544 38.78376
# Shear Modulus (GPa) = 12.81067 27.75201 20.28134
#
# Velocity S-wave (km/s) = 2.30547 3.39329 2.90083
# Velocity P-wave (km/s) = 4.70889 5.69639 5.22602
#
# Compressibility (1/GPa) = 0.02750118
#
# Stress axis : x y z
#
# Youngs Moduli (GPa) = 101.02632 48.47012 112.64297
#
# Poissons Ratio (x) = 0.18873 0.11303
# Poissons Ratio (y) = 0.39337 0.11893
# Poissons Ratio (z) = 0.10138 0.05118
#
# Static dielectric constant tensor:
#      x y z
#    x 2.002300 0.000000 0.000000 
#    y 0.000000 1.922580 0.000000 
#    z 0.000000 0.000000 1.931690 
# 
# From -- ./inp_files/19251.got.cif
#   From: 2010.05.17/outbox.cif.g08.bks.cpg/sg20_10_cif.got.tgz:19251.got - 2010.06.03 22:52:26.
