data_PCOD9321788
_publ_section_title
;
Structure prediction by ZEFSAII (Michael W. Deem and Ramdas Pophale) SiO2 
 PCOD9321788
Probable space group: C 2 2 21
;
_chemical_formula_sum "Si O2"
_cell_formula_units_Z 40
_cell_length_a 12.982515
_cell_length_b 9.091755
_cell_length_c 14.314072
_cell_angle_alpha 90.000000
_cell_angle_beta 90.000000
_cell_angle_gamma 90.000000
_cell_volume 1689.544965
_symmetry_space_group_name_H-M "C 2 2 21"
_symmetry_group_IT_number 20
_symmetry_cell_setting 'orthorhombic'
loop_
_space_group_symop_operation_xyz
x,y,z
-x,-y,1/2+z
x,-y,-z
-x,y,1/2-z
1/2+x,1/2+y,z
1/2-x,1/2-y,1/2+z
1/2+x,1/2-y,-z
1/2-x,1/2+y,1/2-z
loop_
_atom_site_type_symbol
_atom_site_label
_atom_site_fract_x
_atom_site_fract_y
_atom_site_fract_z
Si Si1 0.777074 0.204816 0.496393
Si Si2 0.000000 0.370301 0.250000
Si Si3 0.837846 0.880689 0.301399
Si Si4 0.670606 0.500000 0.500000
Si Si5 0.524428 0.388233 0.891169
Si Si6 0.669559 0.092816 0.317767
O O1 0.776404 0.183639 0.607908
O O2 0.746774 0.370275 0.469672
O O3 0.891677 0.151467 0.469928
O O4 0.702413 0.115794 0.425547
O O5 0.037723 0.254445 0.173310
O O6 0.078771 0.479029 0.300714
O O7 0.853282 0.749388 0.229561
O O8 0.938204 0.965020 0.338286
O O9 0.766415 0.014821 0.266669
O O10 0.589240 0.579435 0.429741
#
# Coordination Sequence:
#
# PCOD9321788 Si02
#       6
#     8   4   8   4   8   8
#     4  11  26  46  78 107 150 195 257 307 390 453
#     4  12  28  42  74 108 152 196 266 300 388 460
#     4  11  24  47  74 102 152 191 248 316 382 444
#     4  12  26  44  80 108 146 210 242 318 386 456
#     4  11  25  50  70 111 151 200 248 323 364 464
#     4  11  25  44  71 109 140 198 244 317 371 459
#
# _framework density 23.675013
#
# number of rings (size 3 to 8) (size 9 to 14) (size 15 to 20)
#    0.000    0.800    2.000    5.400   11.200    0.000 
#    0.000    0.000    0.000    0.000    0.000    0.000 
#    0.000    0.000    0.000    0.000    0.000    0.000 
#
# Total GULP energy -111760.212645 kJ/mol
# GULP energy per Si atom -5588.010632 kJ/mol
# Density = 2.362113 g / cm^3
# Si number density = 23.675013 Si / 1000 Ang^3
#
#
#
# Elastic Constant Matrix: (Units=GPa)
#
#
# Indices 1 2 3 4 5 6 
#
# 1 62.4603 35.2430 31.6920 0.0000 0.0000 0.0000
# 2 35.2430 168.6488 49.4050 0.0000 0.0000 0.0000
# 3 31.6920 49.4050 76.4127 0.0000 0.0000 0.0000
# 4 0.0000 0.0000 0.0000 40.7060 0.0000 0.0000
# 5 0.0000 0.0000 0.0000 0.0000 462.3308 0.0000
# 6 0.0000 0.0000 0.0000 0.0000 0.0000 -8.9259
#
#
#
# Elastic Compliance Matrix: (Units=1/GPa)
#
#
# Indices 1 2 3 4 5 6 
#
# 1 0.020954 -0.002261 -0.007229 0.000000 0.000000 0.000000
# 2 -0.002261 0.007559 -0.003949 0.000000 0.000000 0.000000
# 3 -0.007229 -0.003949 0.018638 0.000000 0.000000 0.000000
# 4 0.000000 0.000000 0.000000 0.024566 0.000000 0.000000
# 5 0.000000 0.000000 0.000000 0.000000 0.002163 0.000000
# 6 0.000000 0.000000 0.000000 0.000000 0.000000 -0.112034
#
#
# Mechanical properties :
#
#
# Convention : Reuss Voigt Hill
#
# Bulk Modulus (GPa) = 49.32735 60.02243 54.67489
# Shear Modulus (GPa) = -1106.88459 111.56762 -497.65848
#
# Velocity S-wave (km/s) = -21.64597 6.87219 -14.51415
# Velocity P-wave (km/s) = 24.57336 9.40090 16.05417
#
# Compressibility (1/GPa) = 0.02027273
#
# Stress axis : x y z
#
# Youngs Moduli (GPa) = 47.72408 132.29273 53.65264
#
# Poissons Ratio (x) = 0.29914 0.38783
# Poissons Ratio (y) = 0.10791 0.21190
# Poissons Ratio (z) = 0.34498 0.52249
#
# Static dielectric constant tensor:
#      x y z
#    x 1.925240 0.000000 0.000000 
#    y 0.000000 0.714830 0.000000 
#    z 0.000000 0.000000 2.002950 
# 
# From -- ./inp_files/18573.got.cif
#   From: 2010.05.17/outbox.cif.g08.bks.cpg/sg20_10_cif.got.tgz:18573.got - 2010.06.03 22:52:26.
