data_PCOD9321720
_publ_section_title
;
Structure prediction by ZEFSAII (Michael W. Deem and Ramdas Pophale) SiO2 
 PCOD9321720
Probable space group: C 2 2 21
;
_chemical_formula_sum "Si O2"
_cell_formula_units_Z 56
_cell_length_a 29.179590
_cell_length_b 5.649839
_cell_length_c 14.820983
_cell_angle_alpha 90.000000
_cell_angle_beta 90.000000
_cell_angle_gamma 90.000000
_cell_volume 2443.387044
_symmetry_space_group_name_H-M "C 2 2 21"
_symmetry_group_IT_number 20
_symmetry_cell_setting 'orthorhombic'
loop_
_space_group_symop_operation_xyz
x,y,z
-x,-y,1/2+z
x,-y,-z
-x,y,1/2-z
1/2+x,1/2+y,z
1/2-x,1/2-y,1/2+z
1/2+x,1/2-y,-z
1/2-x,1/2+y,1/2-z
loop_
_atom_site_type_symbol
_atom_site_label
_atom_site_fract_x
_atom_site_fract_y
_atom_site_fract_z
Si Si1 0.557338 0.441313 0.395751
Si Si2 0.500000 0.733265 0.250000
Si Si3 0.814148 0.000000 0.500000
Si Si4 0.661573 0.455232 0.343572
Si Si5 0.259941 0.123049 0.590793
Si Si6 0.983113 0.587427 0.397791
Si Si7 0.111743 0.662070 0.086963
Si Si8 0.669404 0.956981 0.238145
O O1 0.543798 0.500000 0.500000
O O2 0.535027 0.596323 0.315800
O O3 0.611822 0.451535 0.389361
O O4 0.532790 0.192550 0.376463
O O5 0.473458 0.890883 0.323334
O O6 0.779315 0.116366 0.427780
O O7 0.849446 0.150631 0.561263
O O8 0.706591 0.429548 0.404706
O O9 0.665374 0.707952 0.291030
O O10 0.664527 0.205303 0.290279
O O11 0.282950 0.038553 0.682960
O O12 0.278820 0.000000 0.500000
O O13 0.986535 0.500000 0.500000
O O14 0.939014 0.761974 0.391435
O O15 0.130511 0.485682 0.162671
O O16 0.105598 0.500000 0.000000
#
# Coordination Sequence:
#
# PCOD9321720 Si02
#       8
#     8   4   4   8   8   8   8   8
#     4  12  28  53  77 115 158 219 268 337 406 503
#     4  12  26  50  78 112 160 206 272 340 402 484
#     4  12  22  44  76 110 154 194 264 326 402 480
#     4  12  31  47  79 109 159 208 265 318 406 485
#     4  12  26  49  73 110 149 208 257 333 394 480
#     4  11  26  47  76 111 158 205 267 334 413 482
#     4  11  24  42  73 109 148 198 255 329 404 478
#     4  12  25  50  75 114 148 200 261 334 393 477
#
# _framework density 22.919007000000001
#
# number of rings (size 3 to 8) (size 9 to 14) (size 15 to 20)
#    0.000    0.286    4.286    3.429    9.000    0.000 
#    1.286    0.000    0.000    0.000    0.000    0.000 
#    0.000    0.000    0.000    0.000    0.000    0.000 
#
# Total GULP energy -156251.300799 kJ/mol
# GULP energy per Si atom -5580.403600 kJ/mol
# Density = 2.286684 g / cm^3
# Si number density = 22.919007 Si / 1000 Ang^3
#
#
#
# Elastic Constant Matrix: (Units=GPa)
#
#
# Indices 1 2 3 4 5 6 
#
# 1 162.1627 36.4966 39.1843 0.0000 0.0000 0.0000
# 2 36.4966 104.0794 56.1135 0.0000 0.0000 0.0000
# 3 39.1843 56.1135 126.9961 0.0000 0.0000 0.0000
# 4 0.0000 0.0000 0.0000 27.4861 0.0000 0.0000
# 5 0.0000 0.0000 0.0000 0.0000 86.4194 0.0000
# 6 0.0000 0.0000 0.0000 0.0000 0.0000 25.5181
#
#
#
# Elastic Compliance Matrix: (Units=1/GPa)
#
#
# Indices 1 2 3 4 5 6 
#
# 1 0.006876 -0.001664 -0.001387 0.000000 0.000000 0.000000
# 2 -0.001664 0.013015 -0.005237 0.000000 0.000000 0.000000
# 3 -0.001387 -0.005237 0.010616 0.000000 0.000000 0.000000
# 4 0.000000 0.000000 0.000000 0.036382 0.000000 0.000000
# 5 0.000000 0.000000 0.000000 0.000000 0.011571 0.000000
# 6 0.000000 0.000000 0.000000 0.000000 0.000000 0.039188
#
#
# Mechanical properties :
#
#
# Convention : Reuss Voigt Hill
#
# Bulk Modulus (GPa) = 71.77592 72.98079 72.37835
# Shear Modulus (GPa) = 36.00537 45.31431 40.65984
#
# Velocity S-wave (km/s) = 3.96786 4.45134 4.21654
# Velocity P-wave (km/s) = 7.23720 7.63749 7.44004
#
# Compressibility (1/GPa) = 0.01393225
#
# Stress axis : x y z
#
# Youngs Moduli (GPa) = 145.43125 76.83342 94.19522
#
# Poissons Ratio (x) = 0.12782 0.13060
# Poissons Ratio (y) = 0.24195 0.49334
# Poissons Ratio (z) = 0.20164 0.40241
#
# Static dielectric constant tensor:
#      x y z
#    x 1.877000 0.000000 0.000000 
#    y 0.000000 2.038510 0.000000 
#    z 0.000000 0.000000 1.868130 
# 
# From -- ./inp_files/22337.got.cif
#   From: 2010.05.17/outbox.cif.g08.bks.cpg/sg20_12_cif.got.tgz:22337.got - 2010.06.03 22:52:26.
