data_PCOD9321894
_publ_section_title
;
Structure prediction by ZEFSAII (Michael W. Deem and Ramdas Pophale) SiO2 
 PCOD9321894
Probable space group: C 2 2 21
;
_chemical_formula_sum "Si O2"
_cell_formula_units_Z 44
_cell_length_a 11.307150
_cell_length_b 9.626921
_cell_length_c 15.160157
_cell_angle_alpha 90.000000
_cell_angle_beta 90.000000
_cell_angle_gamma 90.000000
_cell_volume 1650.229173
_symmetry_space_group_name_H-M "C 2 2 21"
_symmetry_group_IT_number 20
_symmetry_cell_setting 'orthorhombic'
loop_
_space_group_symop_operation_xyz
x,y,z
-x,-y,1/2+z
x,-y,-z
-x,y,1/2-z
1/2+x,1/2+y,z
1/2-x,1/2-y,1/2+z
1/2+x,1/2-y,-z
1/2-x,1/2+y,1/2-z
loop_
_atom_site_type_symbol
_atom_site_label
_atom_site_fract_x
_atom_site_fract_y
_atom_site_fract_z
Si Si1 0.832969 0.500000 0.500000
Si Si2 0.753207 0.506356 0.686939
Si Si3 0.273682 0.000000 0.000000
Si Si4 0.106612 0.919595 0.845405
Si Si5 0.947227 0.188131 0.869462
Si Si6 0.500000 0.943313 0.750000
Si Si7 0.965140 0.289858 0.058620
O O1 0.763833 0.449210 0.587002
O O2 0.918884 0.620474 0.534379
O O3 0.683599 0.413545 0.757403
O O4 0.676428 0.644028 0.673123
O O5 0.882866 0.526791 0.727295
O O6 0.356766 0.897888 0.057848
O O7 0.192185 0.918547 0.930744
O O8 0.042477 0.070319 0.846044
O O9 0.005656 0.805722 0.861237
O O10 0.939144 0.193928 0.974126
O O11 0.981464 0.337994 0.831840
#
# Coordination Sequence:
#
# PCOD9321894 Si02
#       7
#     4   8   4   8   8   4   8
#     4  11  28  49  78 118 160 229 279 340 438 504
#     4  12  29  48  81 118 161 223 280 344 422 505
#     4  11  26  49  84 118 168 221 269 350 422 508
#     4  12  26  48  80 120 162 218 277 345 422 506
#     4  12  25  51  77 112 164 214 267 345 425 494
#     4  12  26  54  76 112 166 212 276 348 418 508
#     4  11  26  49  77 115 167 216 277 344 421 507
#
# _framework density 26.662963999999999
#
# number of rings (size 3 to 8) (size 9 to 14) (size 15 to 20)
#    0.000    0.364    5.455    1.091   10.182    1.455 
#    0.000    1.818    0.000    0.000    0.000    0.000 
#    0.000    0.000    0.000    0.000    0.000    0.000 
#
# Total GULP energy -123484.794592 kJ/mol
# GULP energy per Si atom -5612.945209 kJ/mol
# Density = 2.660228 g / cm^3
# Si number density = 26.662964 Si / 1000 Ang^3
#
#
#
# Elastic Constant Matrix: (Units=GPa)
#
#
# Indices 1 2 3 4 5 6 
#
# 1 171.8226 60.9614 73.8931 0.0000 0.0000 0.0000
# 2 60.9614 78.1827 39.7241 0.0000 0.0000 0.0000
# 3 73.8931 39.7241 159.6278 0.0000 0.0000 0.0000
# 4 0.0000 0.0000 0.0000 43.4212 0.0000 0.0000
# 5 0.0000 0.0000 0.0000 0.0000 33.0961 0.0000
# 6 0.0000 0.0000 0.0000 0.0000 0.0000 29.6199
#
#
#
# Elastic Compliance Matrix: (Units=1/GPa)
#
#
# Indices 1 2 3 4 5 6 
#
# 1 0.009003 -0.005612 -0.002771 0.000000 0.000000 0.000000
# 2 -0.005612 0.018140 -0.001916 0.000000 0.000000 0.000000
# 3 -0.002771 -0.001916 0.008024 0.000000 0.000000 0.000000
# 4 0.000000 0.000000 0.000000 0.023030 0.000000 0.000000
# 5 0.000000 0.000000 0.000000 0.000000 0.030215 0.000000
# 6 0.000000 0.000000 0.000000 0.000000 0.000000 0.033761
#
#
# Mechanical properties :
#
#
# Convention : Reuss Voigt Hill
#
# Bulk Modulus (GPa) = 68.64119 84.31003 76.47561
# Shear Modulus (GPa) = 33.86905 36.89773 35.38339
#
# Velocity S-wave (km/s) = 3.56795 3.72406 3.64684
# Velocity P-wave (km/s) = 6.54015 7.08384 6.81742
#
# Compressibility (1/GPa) = 0.01456851
#
# Stress axis : x y z
#
# Youngs Moduli (GPa) = 111.07928 55.12694 124.62366
#
# Poissons Ratio (x) = 0.30936 0.34532
# Poissons Ratio (y) = 0.62335 0.23884
# Poissons Ratio (z) = 0.30779 0.10565
#
# Static dielectric constant tensor:
#      x y z
#    x 2.069380 0.000000 0.000000 
#    y 0.000000 2.052460 0.000000 
#    z 0.000000 0.000000 2.081520 
# 
# From -- ./inp_files/27132.got.cif
#   From: 2010.05.17/outbox.cif.g08.bks.cpg/sg20_14_cif.got.tgz:27132.got - 2010.06.03 22:52:26.
