data_PCOD9321092
_publ_section_title
;
Structure prediction by ZEFSAII (Michael W. Deem and Ramdas Pophale) SiO2 
 PCOD9321092
Probable space group: C 2 2 21
;
_chemical_formula_sum "Si O2"
_cell_formula_units_Z 60
_cell_length_a 11.590338
_cell_length_b 27.698014
_cell_length_c 8.068009
_cell_angle_alpha 90.000000
_cell_angle_beta 90.000000
_cell_angle_gamma 90.000000
_cell_volume 2590.067638
_symmetry_space_group_name_H-M "C 2 2 21"
_symmetry_group_IT_number 20
_symmetry_cell_setting 'orthorhombic'
loop_
_space_group_symop_operation_xyz
x,y,z
-x,-y,1/2+z
x,-y,-z
-x,y,1/2-z
1/2+x,1/2+y,z
1/2-x,1/2-y,1/2+z
1/2+x,1/2-y,-z
1/2-x,1/2+y,1/2-z
loop_
_atom_site_type_symbol
_atom_site_label
_atom_site_fract_x
_atom_site_fract_y
_atom_site_fract_z
Si Si1 0.969009 0.705554 0.449708
Si Si2 0.924536 0.096305 0.021532
Si Si3 0.281740 0.440625 0.265327
Si Si4 0.316863 0.853183 0.030155
Si Si5 0.563106 0.952844 0.079957
Si Si6 0.565233 0.314006 0.071493
Si Si7 0.060589 0.000000 0.000000
Si Si8 0.321254 0.875687 0.644280
O O1 0.067494 0.678134 0.555088
O O2 0.000000 0.705680 0.250000
O O3 0.957604 0.760887 0.501152
O O4 0.851474 0.674164 0.451600
O O5 0.873996 0.090631 0.836077
O O6 0.011617 0.140927 0.028699
O O7 0.808657 0.106655 0.120738
O O8 0.984574 0.045392 0.057179
O O9 0.209312 0.402884 0.374569
O O10 0.191516 0.465707 0.143853
O O11 0.354980 0.479304 0.361959
O O12 0.331293 0.867878 0.838514
O O13 0.202944 0.821907 0.070795
O O14 0.500000 0.938245 0.250000
O O15 0.588094 0.912761 0.940409
O O16 0.505732 0.000000 0.000000
O O17 0.500000 0.314353 0.250000
#
# Coordination Sequence:
#
# PCOD9321092 Si02
#       8
#     8   8   8   8   8   8   4   8
#     4   9  22  42  70 100 139 184 240 302 372 436
#     4  11  24  43  66  99 145 180 236 295 370 435
#     4  11  25  43  68 101 136 190 241 292 371 434
#     4  11  22  43  75 100 138 197 243 306 374 435
#     4  11  27  45  71 104 142 188 241 304 370 442
#     4  11  21  42  69 105 140 186 239 305 371 449
#     4  12  24  40  70  98 134 184 240 290 376 428
#     4  10  25  45  68 102 146 184 244 307 359 449
#
# _framework density 23.165420000000001
#
# number of rings (size 3 to 8) (size 9 to 14) (size 15 to 20)
#    0.000    1.333    2.667    1.200    8.400    3.200 
#    0.000    0.000    8.800    0.000    0.000    0.000 
#    0.000    0.000    0.000    0.000    0.000    0.000 
#
# Total GULP energy -167680.496593 kJ/mol
# GULP energy per Si atom -5589.349886 kJ/mol
# Density = 2.311269 g / cm^3
# Si number density = 23.165420 Si / 1000 Ang^3
#
#
#
# Elastic Constant Matrix: (Units=GPa)
#
#
# Indices 1 2 3 4 5 6 
#
# 1 124.8303 58.6869 33.2892 0.0000 0.0000 0.0000
# 2 58.6869 173.7943 40.1263 0.0000 0.0000 0.0000
# 3 33.2892 40.1263 76.9489 0.0000 0.0000 0.0000
# 4 0.0000 0.0000 0.0000 7.4472 0.0000 0.0000
# 5 0.0000 0.0000 0.0000 0.0000 28.4803 0.0000
# 6 0.0000 0.0000 0.0000 0.0000 0.0000 35.8545
#
#
#
# Elastic Compliance Matrix: (Units=1/GPa)
#
#
# Indices 1 2 3 4 5 6 
#
# 1 0.010075 -0.002724 -0.002938 0.000000 0.000000 0.000000
# 2 -0.002724 0.007278 -0.002617 0.000000 0.000000 0.000000
# 3 -0.002938 -0.002617 0.015631 0.000000 0.000000 0.000000
# 4 0.000000 0.000000 0.000000 0.134278 0.000000 0.000000
# 5 0.000000 0.000000 0.000000 0.000000 0.035112 0.000000
# 6 0.000000 0.000000 0.000000 0.000000 0.000000 0.027891
#
#
# Mechanical properties :
#
#
# Convention : Reuss Voigt Hill
#
# Bulk Modulus (GPa) = 60.87699 71.08646 65.98173
# Shear Modulus (GPa) = 19.81783 30.58780 25.20282
#
# Velocity S-wave (km/s) = 2.92805 3.63768 3.30199
# Velocity P-wave (km/s) = 6.14554 6.95678 6.56370
#
# Compressibility (1/GPa) = 0.01642657
#
# Stress axis : x y z
#
# Youngs Moduli (GPa) = 99.25616 137.40302 63.97394
#
# Poissons Ratio (x) = 0.37425 0.18797
# Poissons Ratio (y) = 0.27035 0.16741
# Poissons Ratio (z) = 0.29164 0.35956
#
# Static dielectric constant tensor:
#      x y z
#    x 1.897770 0.000000 0.000000 
#    y 0.000000 1.892490 0.000000 
#    z 0.000000 0.000000 1.970460 
# 
# From -- ./inp_files/7561.got.cif
#   From: 2010.05.17/outbox.cif.g08.bks.cpg/sg20_4_cif.got.tgz:7561.got - 2010.06.03 22:52:26.
