data_PCOD9321443
_publ_section_title
;
Structure prediction by ZEFSAII (Michael W. Deem and Ramdas Pophale) SiO2 
 PCOD9321443
Probable space group: C 2 2 21
;
_chemical_formula_sum "Si O2"
_cell_formula_units_Z 48
_cell_length_a 8.155440
_cell_length_b 10.820110
_cell_length_c 24.484900
_cell_angle_alpha 90.000000
_cell_angle_beta 90.000000
_cell_angle_gamma 90.000000
_cell_volume 2160.615103
_symmetry_space_group_name_H-M "C 2 2 21"
_symmetry_group_IT_number 20
_symmetry_cell_setting 'orthorhombic'
loop_
_space_group_symop_operation_xyz
x,y,z
-x,-y,1/2+z
x,-y,-z
-x,y,1/2-z
1/2+x,1/2+y,z
1/2-x,1/2-y,1/2+z
1/2+x,1/2-y,-z
1/2-x,1/2+y,1/2-z
loop_
_atom_site_type_symbol
_atom_site_label
_atom_site_fract_x
_atom_site_fract_y
_atom_site_fract_z
Si Si1 0.788260 0.358256 0.010122
Si Si2 0.449198 0.484265 0.845812
Si Si3 0.408584 0.217743 0.872064
Si Si4 0.092358 0.112750 0.538171
Si Si5 0.881110 0.443426 0.293881
Si Si6 0.347302 0.319832 0.284696
O O1 0.871344 0.313171 0.066020
O O2 0.593791 0.366864 0.018592
O O3 0.844934 0.500000 0.000000
O O4 0.822304 0.246313 0.968047
O O5 0.497940 0.348324 0.864714
O O6 0.416207 0.565749 0.899779
O O7 0.276811 0.483481 0.813831
O O8 0.582555 0.549174 0.807447
O O9 0.512861 0.110319 0.843250
O O10 0.236163 0.231527 0.839358
O O11 0.161550 0.000000 0.500000
O O12 0.800134 0.333034 0.258297
O O13 0.000000 0.506373 0.250000
O O14 0.500000 0.268687 0.250000
#
# Coordination Sequence:
#
# PCOD9321443 Si02
#       6
#     8   8   8   8   8   8
#     4  11  26  43  67  96 134 172 221 280 330 396
#     4  11  22  40  70  91 129 176 214 268 334 395
#     4  11  22  42  66  96 130 171 216 268 332 396
#     4  11  24  44  66  98 130 172 223 274 330 397
#     4   9  22  39  62  95 131 164 214 265 321 392
#     4   9  20  41  61  93 130 165 216 264 323 388
#
# _framework density 22.215896000000001
#
# number of rings (size 3 to 8) (size 9 to 14) (size 15 to 20)
#    0.000    1.667    3.333    0.000    2.333    8.667 
#    0.000    3.333    0.000    0.000    0.000    0.000 
#    0.000    0.000    0.000    0.000    0.000    0.000 
#
# Total GULP energy -133922.940810 kJ/mol
# GULP energy per Si atom -5580.122534 kJ/mol
# Density = 2.216533 g / cm^3
# Si number density = 22.215896 Si / 1000 Ang^3
#
#
#
# Elastic Constant Matrix: (Units=GPa)
#
#
# Indices 1 2 3 4 5 6 
#
# 1 57.8415 8.3846 1.7015 0.0000 0.0000 0.0000
# 2 8.3846 119.6832 14.7459 0.0000 0.0000 0.0000
# 3 1.7015 14.7459 73.4347 0.0000 0.0000 0.0000
# 4 0.0000 0.0000 0.0000 -38.4211 0.0000 0.0000
# 5 0.0000 0.0000 0.0000 0.0000 29.0239 0.0000
# 6 0.0000 0.0000 0.0000 0.0000 0.0000 13.7996
#
#
#
# Elastic Compliance Matrix: (Units=1/GPa)
#
#
# Indices 1 2 3 4 5 6 
#
# 1 0.017468 -0.001204 -0.000163 0.000000 0.000000 0.000000
# 2 -0.001204 0.008650 -0.001709 0.000000 0.000000 0.000000
# 3 -0.000163 -0.001709 0.013965 0.000000 0.000000 0.000000
# 4 0.000000 0.000000 0.000000 -0.026027 0.000000 0.000000
# 5 0.000000 0.000000 0.000000 0.000000 0.034454 0.000000
# 6 0.000000 0.000000 0.000000 0.000000 0.000000 0.072466
#
#
# Mechanical properties :
#
#
# Convention : Reuss Voigt Hill
#
# Bulk Modulus (GPa) = 29.47148 33.40260 31.43704
# Shear Modulus (GPa) = 36.11734 15.95562 26.03648
#
# Velocity S-wave (km/s) = 4.03642 2.68285 3.42713
# Velocity P-wave (km/s) = 5.91763 4.96638 5.46275
#
# Compressibility (1/GPa) = 0.03393111
#
# Stress axis : x y z
#
# Youngs Moduli (GPa) = 57.24784 115.60296 71.61005
#
# Poissons Ratio (x) = 0.13915 0.01167
# Poissons Ratio (y) = 0.06891 0.12239
# Poissons Ratio (z) = 0.00933 0.19758
#
# Static dielectric constant tensor:
#      x y z
#    x 1.807470 0.000000 0.000000 
#    y 0.000000 1.868990 0.000000 
#    z 0.000000 0.000000 1.790170 
# 
# From -- ./inp_files/28701.got.cif
#   From: 2010.05.17/outbox.cif.g08.bks.cpg/sg20_15_cif.got.tgz:28701.got - 2010.06.03 22:52:26.
