data_PCOD9321718
_publ_section_title
;
Structure prediction by ZEFSAII (Michael W. Deem and Ramdas Pophale) SiO2 
 PCOD9321718
Probable space group: C 2 2 21
;
_chemical_formula_sum "Si O2"
_cell_formula_units_Z 56
_cell_length_a 5.863933
_cell_length_b 14.469322
_cell_length_c 26.515365
_cell_angle_alpha 90.000000
_cell_angle_beta 90.000000
_cell_angle_gamma 90.000000
_cell_volume 2249.752747
_symmetry_space_group_name_H-M "C 2 2 21"
_symmetry_group_IT_number 20
_symmetry_cell_setting 'orthorhombic'
loop_
_space_group_symop_operation_xyz
x,y,z
-x,-y,1/2+z
x,-y,-z
-x,y,1/2-z
1/2+x,1/2+y,z
1/2-x,1/2-y,1/2+z
1/2+x,1/2-y,-z
1/2-x,1/2+y,1/2-z
loop_
_atom_site_type_symbol
_atom_site_label
_atom_site_fract_x
_atom_site_fract_y
_atom_site_fract_z
Si Si1 0.500000 0.903408 0.750000
Si Si2 0.235969 0.229905 0.109350
Si Si3 0.348445 0.836160 0.643590
Si Si4 0.010691 0.711654 0.805201
Si Si5 0.796226 0.000000 0.000000
Si Si6 0.011278 0.030419 0.393614
Si Si7 0.592424 0.800203 0.010374
Si Si8 0.326610 0.448981 0.290748
O O1 0.465349 0.851948 0.697501
O O2 0.273065 0.962893 0.761027
O O3 0.504411 0.213465 0.101131
O O4 0.143526 0.124021 0.104510
O O5 0.112620 0.296071 0.070997
O O6 0.239915 0.281786 0.163781
O O7 0.138463 0.772462 0.657338
O O8 0.259506 0.933297 0.623692
O O9 0.892270 0.614484 0.799618
O O10 0.000000 0.755005 0.750000
O O11 0.953399 0.009424 0.949526
O O12 0.646837 0.093987 0.005476
O O13 0.922893 0.972433 0.345839
O O14 0.332562 0.759178 0.001497
O O15 0.500000 0.404742 0.250000
#
# Coordination Sequence:
#
# PCOD9321718 Si02
#       8
#     4   8   8   8   4   8   8   8
#     4  12  22  40  68 100 142 190 244 306 386 466
#     4  11  25  48  75 104 155 196 261 332 390 483
#     4  11  24  42  73 102 143 197 249 319 386 477
#     4  11  27  42  67 107 149 197 251 309 393 472
#     4  12  28  52  84 114 160 220 270 344 424 484
#     4  11  25  49  71 111 145 201 261 319 407 477
#     4  12  29  55  84 122 163 212 278 348 410 497
#     4  12  26  43  68 107 151 191 252 318 382 475
#
# _framework density 24.891622999999999
#
# number of rings (size 3 to 8) (size 9 to 14) (size 15 to 20)
#    0.000    0.571    5.000    1.714    9.000    1.714 
#    5.143    0.000    0.000    0.000    0.000    0.000 
#    0.000    0.000    0.000    0.000    0.000    0.000 
#
# Total GULP energy -156229.082255 kJ/mol
# GULP energy per Si atom -5579.610081 kJ/mol
# Density = 2.483497 g / cm^3
# Si number density = 24.891623 Si / 1000 Ang^3
#
#
#
# Elastic Constant Matrix: (Units=GPa)
#
#
# Indices 1 2 3 4 5 6 
#
# 1 65.5446 27.0769 21.7074 0.0000 0.0000 0.0000
# 2 27.0769 85.4358 20.5214 0.0000 0.0000 0.0000
# 3 21.7074 20.5214 137.7392 0.0000 0.0000 0.0000
# 4 0.0000 0.0000 0.0000 41.6699 0.0000 0.0000
# 5 0.0000 0.0000 0.0000 0.0000 46.4086 0.0000
# 6 0.0000 0.0000 0.0000 0.0000 0.0000 27.6715
#
#
#
# Elastic Compliance Matrix: (Units=1/GPa)
#
#
# Indices 1 2 3 4 5 6 
#
# 1 0.018108 -0.005241 -0.002073 0.000000 0.000000 0.000000
# 2 -0.005241 0.013656 -0.001209 0.000000 0.000000 0.000000
# 3 -0.002073 -0.001209 0.007767 0.000000 0.000000 0.000000
# 4 0.000000 0.000000 0.000000 0.023998 0.000000 0.000000
# 5 0.000000 0.000000 0.000000 0.000000 0.021548 0.000000
# 6 0.000000 0.000000 0.000000 0.000000 0.000000 0.036138
#
#
# Mechanical properties :
#
#
# Convention : Reuss Voigt Hill
#
# Bulk Modulus (GPa) = 44.47223 47.48123 45.97673
# Shear Modulus (GPa) = 34.30384 37.77759 36.04072
#
# Velocity S-wave (km/s) = 3.71634 3.89997 3.80926
# Velocity P-wave (km/s) = 6.02661 6.27665 6.15290
#
# Compressibility (1/GPa) = 0.02248594
#
# Stress axis : x y z
#
# Youngs Moduli (GPa) = 55.22277 73.22761 128.75219
#
# Poissons Ratio (x) = 0.38380 0.26690
# Poissons Ratio (y) = 0.28943 0.15561
# Poissons Ratio (z) = 0.11448 0.08850
#
# Static dielectric constant tensor:
#      x y z
#    x 2.630820 0.000000 0.000000 
#    y 0.000000 1.944930 0.000000 
#    z 0.000000 0.000000 2.275520 
# 
# From -- ./inp_files/30778.got.cif
#   From: 2010.05.17/outbox.cif.g08.bks.cpg/sg20_16_cif.got.tgz:30778.got - 2010.06.03 22:52:26.
