data_PCOD9321142
_publ_section_title
;
Structure prediction by ZEFSAII (Michael W. Deem and Ramdas Pophale) SiO2 
 PCOD9321142
Probable space group: C 2 2 21
;
_chemical_formula_sum "Si O2"
_cell_formula_units_Z 32
_cell_length_a 17.979633
_cell_length_b 13.514527
_cell_length_c 6.042491
_cell_angle_alpha 90.000000
_cell_angle_beta 90.000000
_cell_angle_gamma 90.000000
_cell_volume 1468.242142
_symmetry_space_group_name_H-M "C 2 2 21"
_symmetry_group_IT_number 20
_symmetry_cell_setting 'orthorhombic'
loop_
_space_group_symop_operation_xyz
x,y,z
-x,-y,1/2+z
x,-y,-z
-x,y,1/2-z
1/2+x,1/2+y,z
1/2-x,1/2-y,1/2+z
1/2+x,1/2-y,-z
1/2-x,1/2+y,1/2-z
loop_
_atom_site_type_symbol
_atom_site_label
_atom_site_fract_x
_atom_site_fract_y
_atom_site_fract_z
Si Si1 0.543030 0.000000 0.000000
Si Si2 0.163935 0.325809 0.027368
Si Si3 0.622812 0.500000 0.000000
Si Si4 0.920929 0.818903 0.235557
Si Si5 0.677965 0.357003 0.649191
O O1 0.500000 0.010178 0.250000
O O2 0.598698 0.093255 0.959084
O O3 0.141592 0.255929 0.820656
O O4 0.245677 0.367264 0.983279
O O5 0.171359 0.249450 0.230609
O O6 0.574972 0.587757 0.897874
O O7 0.673585 0.445729 0.821480
O O8 0.000000 0.767022 0.250000
O O9 0.894372 0.860283 0.003737
#
# Coordination Sequence:
#
# PCOD9321142 Si02
#       5
#     4   8   4   8   8
#     4  12  32  51  77 114 156 210 260 316 382 455
#     4  11  26  45  75 103 145 193 250 310 368 449
#     4  10  26  39  71 104 138 180 230 296 374 445
#     4  11  25  44  70 100 145 182 235 299 372 444
#     4  11  24  46  70 108 139 186 244 303 378 440
#
# _framework density 21.794768000000001
#
# number of rings (size 3 to 8) (size 9 to 14) (size 15 to 20)
#    0.000    1.000    2.500    1.500   14.000    3.000 
#    0.000    0.000    0.000    0.000    0.000    0.000 
#    0.000    0.000    0.000    0.000    0.000    0.000 
#
# Total GULP energy -89271.237818 kJ/mol
# GULP energy per Si atom -5579.452364 kJ/mol
# Density = 2.174516 g / cm^3
# Si number density = 21.794768 Si / 1000 Ang^3
#
#
#
# Elastic Constant Matrix: (Units=GPa)
#
#
# Indices 1 2 3 4 5 6 
#
# 1 124.5585 21.5285 43.5298 0.0000 0.0000 0.0000
# 2 21.5285 77.8381 11.7824 0.0000 0.0000 0.0000
# 3 43.5298 11.7824 84.3074 0.0000 0.0000 0.0000
# 4 0.0000 0.0000 0.0000 10.1479 0.0000 0.0000
# 5 0.0000 0.0000 0.0000 0.0000 24.4833 0.0000
# 6 0.0000 0.0000 0.0000 0.0000 0.0000 21.5617
#
#
#
# Elastic Compliance Matrix: (Units=1/GPa)
#
#
# Indices 1 2 3 4 5 6 
#
# 1 0.010106 -0.002049 -0.004932 0.000000 0.000000 0.000000
# 2 -0.002049 0.013540 -0.000835 0.000000 0.000000 0.000000
# 3 -0.004932 -0.000835 0.014524 0.000000 0.000000 0.000000
# 4 0.000000 0.000000 0.000000 0.098542 0.000000 0.000000
# 5 0.000000 0.000000 0.000000 0.000000 0.040844 0.000000
# 6 0.000000 0.000000 0.000000 0.000000 0.000000 0.046378
#
#
# Mechanical properties :
#
#
# Convention : Reuss Voigt Hill
#
# Bulk Modulus (GPa) = 44.36407 48.93173 46.64790
# Shear Modulus (GPa) = 20.23650 25.22947 22.73299
#
# Velocity S-wave (km/s) = 3.05044 3.40603 3.23313
# Velocity P-wave (km/s) = 5.72769 6.16181 5.94872
#
# Compressibility (1/GPa) = 0.02254076
#
# Stress axis : x y z
#
# Youngs Moduli (GPa) = 98.95215 73.85461 68.85021
#
# Poissons Ratio (x) = 0.15130 0.33954
# Poissons Ratio (y) = 0.20271 0.05746
# Poissons Ratio (z) = 0.48799 0.06164
#
# Static dielectric constant tensor:
#      x y z
#    x 1.784290 0.000000 0.000000 
#    y 0.000000 1.779720 0.000000 
#    z 0.000000 0.000000 1.856610 
# 
# From -- ./inp_files/1589.got.cif
#   From: 2010.05.17/outbox.cif.g08.bks.cpg/sg20_1_cif.got.tgz:1589.got - 2010.06.03 22:52:26.
