data_PCOD9321397
_publ_section_title
;
Structure prediction by ZEFSAII (Michael W. Deem and Ramdas Pophale) SiO2 
 PCOD9321397
Probable space group: C 2 2 21
;
_chemical_formula_sum "Si O2"
_cell_formula_units_Z 48
_cell_length_a 27.564973
_cell_length_b 4.980684
_cell_length_c 16.205877
_cell_angle_alpha 90.000000
_cell_angle_beta 90.000000
_cell_angle_gamma 90.000000
_cell_volume 2224.944071
_symmetry_space_group_name_H-M "C 2 2 21"
_symmetry_group_IT_number 20
_symmetry_cell_setting 'orthorhombic'
loop_
_space_group_symop_operation_xyz
x,y,z
-x,-y,1/2+z
x,-y,-z
-x,y,1/2-z
1/2+x,1/2+y,z
1/2-x,1/2-y,1/2+z
1/2+x,1/2-y,-z
1/2-x,1/2+y,1/2-z
loop_
_atom_site_type_symbol
_atom_site_label
_atom_site_fract_x
_atom_site_fract_y
_atom_site_fract_z
Si Si1 0.875562 0.042140 0.808860
Si Si2 0.280092 0.710775 0.271892
Si Si3 0.513317 0.090894 0.092846
Si Si4 0.567979 0.396481 0.852418
Si Si5 0.899999 0.537495 0.905911
Si Si6 0.668104 0.739343 0.056760
O O1 0.872155 0.342085 0.842950
O O2 0.825248 0.924258 0.775307
O O3 0.913481 0.012640 0.734055
O O4 0.893921 0.844717 0.880414
O O5 0.239761 0.477553 0.271460
O O6 0.298338 0.785066 0.363577
O O7 0.531334 0.390821 0.107897
O O8 0.456053 0.052424 0.101211
O O9 0.541514 0.889072 0.153633
O O10 0.526513 0.000000 0.000000
O O11 0.615803 0.352703 0.908034
O O12 0.884206 0.500000 0.000000
O O13 0.687699 0.500000 0.000000
O O14 0.662808 0.000000 0.000000
#
# Coordination Sequence:
#
# PCOD9321397 Si02
#       6
#     8   8   8   8   8   8
#     4  11  24  42  64  89 118 161 205 251 316 364
#     4  11  24  45  68  92 125 158 197 255 316 375
#     4  11  22  36  57  88 127 168 206 247 294 345
#     4  11  22  36  60  91 124 161 202 251 304 363
#     4  11  24  42  61  86 125 168 211 252 290 348
#     4  11  22  39  64  94 127 158 197 250 310 371
#
# _framework density 21.573575999999999
#
# number of rings (size 3 to 8) (size 9 to 14) (size 15 to 20)
#    0.000    1.000    0.000    7.500    0.000   12.000 
#    0.000    8.333    0.000    0.000    0.000    0.000 
#    0.000    0.000    0.000    0.000    0.000    0.000 
#
# Total GULP energy -134406.581787 kJ/mol
# GULP energy per Si atom -5600.274241 kJ/mol
# Density = 2.152447 g / cm^3
# Si number density = 21.573576 Si / 1000 Ang^3
#
#
#
# Elastic Constant Matrix: (Units=GPa)
#
#
# Indices 1 2 3 4 5 6 
#
# 1 44.9598 -4.6846 10.8856 0.0000 0.0000 0.0000
# 2 -4.6846 70.8338 -15.6803 0.0000 0.0000 0.0000
# 3 10.8856 -15.6803 63.0551 0.0000 0.0000 0.0000
# 4 0.0000 0.0000 0.0000 40.3234 0.0000 0.0000
# 5 0.0000 0.0000 0.0000 0.0000 -9.3669 0.0000
# 6 0.0000 0.0000 0.0000 0.0000 0.0000 103.1798
#
#
#
# Elastic Compliance Matrix: (Units=1/GPa)
#
#
# Indices 1 2 3 4 5 6 
#
# 1 0.023244 0.000687 -0.003842 0.000000 0.000000 0.000000
# 2 0.000687 0.014960 0.003602 0.000000 0.000000 0.000000
# 3 -0.003842 0.003602 0.017418 0.000000 0.000000 0.000000
# 4 0.000000 0.000000 0.000000 0.024799 0.000000 0.000000
# 5 0.000000 0.000000 0.000000 0.000000 -0.106759 0.000000
# 6 0.000000 0.000000 0.000000 0.000000 0.000000 0.009692
#
#
# Mechanical properties :
#
#
# Convention : Reuss Voigt Hill
#
# Bulk Modulus (GPa) = 17.69435 17.76556 17.72995
# Shear Modulus (GPa) = 3846.05688 39.38245 1942.71967
#
# Velocity S-wave (km/s) = 42.26858 4.27722 30.04104
# Velocity P-wave (km/s) = 48.89169 5.71363 34.80691
#
# Compressibility (1/GPa) = 0.05651522
#
# Stress axis : x y z
#
# Youngs Moduli (GPa) = 43.02214 66.84365 57.41162
#
# Poissons Ratio (x) = -0.04591 0.22057
# Poissons Ratio (y) = -0.02955 -0.20678
# Poissons Ratio (z) = 0.16529 -0.24075
#
# Static dielectric constant tensor:
#      x y z
#    x 1.779680 0.000000 0.000000 
#    y 0.000000 1.737300 0.000000 
#    z 0.000000 0.000000 1.780580 
# 
# From -- ./inp_files/22244.got.cif
#   From: 2010.05.17/outbox.cif.g08.bks.cpg/sg20_12_cif.got.tgz:22244.got - 2010.06.03 22:52:26.
