data_PCOD9321287
_publ_section_title
;
Structure prediction by ZEFSAII (Michael W. Deem and Ramdas Pophale) SiO2 
 PCOD9321287
Probable space group: C 2 2 21
;
_chemical_formula_sum "Si O2"
_cell_formula_units_Z 44
_cell_length_a 17.375790
_cell_length_b 8.146300
_cell_length_c 13.568740
_cell_angle_alpha 90.000000
_cell_angle_beta 90.000000
_cell_angle_gamma 90.000000
_cell_volume 1920.633411
_symmetry_space_group_name_H-M "C 2 2 21"
_symmetry_group_IT_number 20
_symmetry_cell_setting 'orthorhombic'
loop_
_space_group_symop_operation_xyz
x,y,z
-x,-y,1/2+z
x,-y,-z
-x,y,1/2-z
1/2+x,1/2+y,z
1/2-x,1/2-y,1/2+z
1/2+x,1/2-y,-z
1/2-x,1/2+y,1/2-z
loop_
_atom_site_type_symbol
_atom_site_label
_atom_site_fract_x
_atom_site_fract_y
_atom_site_fract_z
Si Si1 0.044096 0.458249 0.883128
Si Si2 0.669760 0.500000 0.500000
Si Si3 0.694968 0.213582 0.060397
Si Si4 0.744012 0.506472 0.188169
Si Si5 0.847425 0.289191 0.328651
Si Si6 0.616996 0.153739 0.420650
O O1 0.119889 0.344672 0.880213
O O2 0.069939 0.622792 0.826438
O O3 0.962297 0.377424 0.861480
O O4 0.038497 0.500000 0.000000
O O5 0.731867 0.407141 0.570472
O O6 0.621681 0.340802 0.462318
O O7 0.720908 0.386357 0.100319
O O8 0.672851 0.217194 0.945148
O O9 0.787562 0.398948 0.268125
O O10 0.667665 0.608739 0.213709
O O11 0.808896 0.630421 0.147707
O O12 0.621621 0.000000 0.500000
#
# Coordination Sequence:
#
# PCOD9321287 Si02
#       6
#     8   4   8   8   8   8
#     4   9  20  40  61  89 133 173 213 279 341 408
#     4  12  20  40  70  98 126 178 226 282 340 408
#     4  11  20  42  65  94 133 175 232 289 337 418
#     4  12  23  39  69  95 131 185 235 292 345 415
#     4  11  22  37  63  96 129 178 229 281 351 411
#     4  11  22  40  64  96 133 174 224 279 345 410
#
# _framework density 22.909106999999999
#
# number of rings (size 3 to 8) (size 9 to 14) (size 15 to 20)
#    0.000    1.091    6.364    1.636    0.000    0.727 
#    9.818    0.000    0.000    2.182    0.000    0.000 
#    0.000    0.000    0.000    0.000    0.000    0.000 
#
# Total GULP energy -122738.310087 kJ/mol
# GULP energy per Si atom -5579.014095 kJ/mol
# Density = 2.285696 g / cm^3
# Si number density = 22.909107 Si / 1000 Ang^3
#
#
#
# Elastic Constant Matrix: (Units=GPa)
#
#
# Indices 1 2 3 4 5 6 
#
# 1 150.6884 58.8178 11.0320 0.0000 0.0000 0.0000
# 2 58.8178 154.0732 17.7690 0.0000 0.0000 0.0000
# 3 11.0320 17.7690 53.9394 0.0000 0.0000 0.0000
# 4 0.0000 0.0000 0.0000 41.6643 0.0000 0.0000
# 5 0.0000 0.0000 0.0000 0.0000 25.4478 0.0000
# 6 0.0000 0.0000 0.0000 0.0000 0.0000 31.4584
#
#
#
# Elastic Compliance Matrix: (Units=1/GPa)
#
#
# Indices 1 2 3 4 5 6 
#
# 1 0.007819 -0.002911 -0.000640 0.000000 0.000000 0.000000
# 2 -0.002911 0.007831 -0.001984 0.000000 0.000000 0.000000
# 3 -0.000640 -0.001984 0.019324 0.000000 0.000000 0.000000
# 4 0.000000 0.000000 0.000000 0.024001 0.000000 0.000000
# 5 0.000000 0.000000 0.000000 0.000000 0.039296 0.000000
# 6 0.000000 0.000000 0.000000 0.000000 0.000000 0.031788
#
#
# Mechanical properties :
#
#
# Convention : Reuss Voigt Hill
#
# Bulk Modulus (GPa) = 41.83639 59.32650 50.58145
# Shear Modulus (GPa) = 33.53492 37.78625 35.66058
#
# Velocity S-wave (km/s) = 3.83015 4.06568 3.94967
# Velocity P-wave (km/s) = 6.15318 6.92766 6.55187
#
# Compressibility (1/GPa) = 0.02390264
#
# Stress axis : x y z
#
# Youngs Moduli (GPa) = 127.88668 127.70373 51.74937
#
# Poissons Ratio (x) = 0.37178 0.03313
# Poissons Ratio (y) = 0.37231 0.10268
# Poissons Ratio (z) = 0.08188 0.25339
#
# Static dielectric constant tensor:
#      x y z
#    x 1.860580 0.000000 0.000000 
#    y 0.000000 1.901240 0.000000 
#    z 0.000000 0.000000 1.942220 
# 
# From -- ./inp_files/21228.got.cif
#   From: 2010.05.17/outbox.cif.g08.bks.cpg/sg20_11_cif.got.tgz:21228.got - 2010.06.03 22:52:26.
