data_PCOD9321582
_publ_section_title
;
Structure prediction by ZEFSAII (Michael W. Deem and Ramdas Pophale) SiO2 
 PCOD9321582
Probable space group: C 2 2 21
;
_chemical_formula_sum "Si O2"
_cell_formula_units_Z 24
_cell_length_a 14.975101
_cell_length_b 13.516483
_cell_length_c 5.006272
_cell_angle_alpha 90.000000
_cell_angle_beta 90.000000
_cell_angle_gamma 90.000000
_cell_volume 1013.323010
_symmetry_space_group_name_H-M "C 2 2 21"
_symmetry_group_IT_number 20
_symmetry_cell_setting 'orthorhombic'
loop_
_space_group_symop_operation_xyz
x,y,z
-x,-y,1/2+z
x,-y,-z
-x,y,1/2-z
1/2+x,1/2+y,z
1/2-x,1/2-y,1/2+z
1/2+x,1/2-y,-z
1/2-x,1/2+y,1/2-z
loop_
_atom_site_type_symbol
_atom_site_label
_atom_site_fract_x
_atom_site_fract_y
_atom_site_fract_z
Si Si1 0.366730 0.434652 0.255615
Si Si2 0.404057 0.207485 0.357757
Si Si3 0.837569 0.397838 0.115769
O O1 0.397045 0.500000 0.500000
O O2 0.401511 0.324848 0.314274
O O3 0.258894 0.424663 0.267123
O O4 0.390214 0.500000 0.000000
O O5 0.500000 0.172136 0.250000
O O6 0.387539 0.163676 0.652479
O O7 0.329689 0.167636 0.150941
O O8 0.878979 0.500000 0.000000
#
# Coordination Sequence:
#
# PCOD9321582 Si02
#       3
#     8   8   8
#     4  11  23  42  68  94 124 167 217 265 313 375
#     4  12  25  41  65  96 132 168 206 263 326 382
#     4  11  23  43  66  92 126 169 218 262 311 377
#
# _framework density 23.684453000000001
#
# number of rings (size 3 to 8) (size 9 to 14) (size 15 to 20)
#    0.000    0.667    0.000   10.000    0.000    4.000 
#    0.000    1.667    0.000    0.000    0.000    0.000 
#    0.000    0.000    0.000    0.000    0.000    0.000 
#
# Total GULP energy -67098.983472 kJ/mol
# GULP energy per Si atom -5591.581956 kJ/mol
# Density = 2.363055 g / cm^3
# Si number density = 23.684453 Si / 1000 Ang^3
#
#
#
# Elastic Constant Matrix: (Units=GPa)
#
#
# Indices 1 2 3 4 5 6 
#
# 1 67.3533 22.4773 15.6386 0.0000 0.0000 0.0000
# 2 22.4773 206.7293 91.3541 0.0000 0.0000 0.0000
# 3 15.6386 91.3541 201.7095 0.0000 0.0000 0.0000
# 4 0.0000 0.0000 0.0000 51.3880 0.0000 0.0000
# 5 0.0000 0.0000 0.0000 0.0000 0.9827 0.0000
# 6 0.0000 0.0000 0.0000 0.0000 0.0000 9.8890
#
#
#
# Elastic Compliance Matrix: (Units=1/GPa)
#
#
# Indices 1 2 3 4 5 6 
#
# 1 0.015454 -0.001439 -0.000547 0.000000 0.000000 0.000000
# 2 -0.001439 0.006182 -0.002688 0.000000 0.000000 0.000000
# 3 -0.000547 -0.002688 0.006217 0.000000 0.000000 0.000000
# 4 0.000000 0.000000 0.000000 0.019460 0.000000 0.000000
# 5 0.000000 0.000000 0.000000 0.000000 1.017556 0.000000
# 6 0.000000 0.000000 0.000000 0.000000 0.000000 0.101122
#
#
# Mechanical properties :
#
#
# Convention : Reuss Voigt Hill
#
# Bulk Modulus (GPa) = 54.03559 81.63689 67.83624
# Shear Modulus (GPa) = 4.23188 35.54010 19.88599
#
# Velocity S-wave (km/s) = 1.33815 3.87792 2.90077
# Velocity P-wave (km/s) = 5.02512 7.38880 6.31847
#
# Compressibility (1/GPa) = 0.01850632
#
# Stress axis : x y z
#
# Youngs Moduli (GPa) = 64.70761 161.77196 160.83842
#
# Poissons Ratio (x) = 0.23275 0.08790
# Poissons Ratio (y) = 0.09310 0.43234
# Poissons Ratio (z) = 0.03537 0.43485
#
# Static dielectric constant tensor:
#      x y z
#    x 1.946030 0.000000 0.000000 
#    y 0.000000 1.872210 0.000000 
#    z 0.000000 0.000000 1.836690 
# 
# From -- ./inp_files/855.got.cif
#   From: 2010.05.17/outbox.cif.g08.bks.cpg/sg20_1_cif.got.tgz:855.got - 2010.06.03 22:52:26.
