data_PCOD9321096
_publ_section_title
;
Structure prediction by ZEFSAII (Michael W. Deem and Ramdas Pophale) SiO2 
 PCOD9321096
Probable space group: C 2 2 21
;
_chemical_formula_sum "Si O2"
_cell_formula_units_Z 60
_cell_length_a 25.194509
_cell_length_b 5.277439
_cell_length_c 20.983514
_cell_angle_alpha 90.000000
_cell_angle_beta 90.000000
_cell_angle_gamma 90.000000
_cell_volume 2790.020153
_symmetry_space_group_name_H-M "C 2 2 21"
_symmetry_group_IT_number 20
_symmetry_cell_setting 'orthorhombic'
loop_
_space_group_symop_operation_xyz
x,y,z
-x,-y,1/2+z
x,-y,-z
-x,y,1/2-z
1/2+x,1/2+y,z
1/2-x,1/2-y,1/2+z
1/2+x,1/2-y,-z
1/2-x,1/2+y,1/2-z
loop_
_atom_site_type_symbol
_atom_site_label
_atom_site_fract_x
_atom_site_fract_y
_atom_site_fract_z
Si Si1 0.767293 0.261063 0.717593
Si Si2 0.996527 0.025233 0.171693
Si Si3 0.630763 0.996450 0.729442
Si Si4 0.786928 0.000000 0.500000
Si Si5 0.626309 0.495318 0.349063
Si Si6 0.231201 0.855246 0.589353
Si Si7 0.661000 0.122529 0.929134
Si Si8 0.440325 0.975147 0.656044
O O1 0.733731 0.504954 0.741430
O O2 0.824835 0.387367 0.722619
O O3 0.743109 0.177008 0.650287
O O4 0.032629 0.795479 0.145174
O O5 0.000000 0.012871 0.250000
O O6 0.019505 0.293489 0.149751
O O7 0.937166 0.008278 0.143573
O O8 0.635395 0.280820 0.703651
O O9 0.577506 0.976163 0.769889
O O10 0.634301 0.792639 0.673530
O O11 0.746996 0.213541 0.525115
O O12 0.827223 0.083099 0.444030
O O13 0.671356 0.548902 0.402457
O O14 0.281086 0.044829 0.597989
O O15 0.611056 0.044365 0.887097
O O16 0.654756 0.000000 0.000000
#
# Coordination Sequence:
#
# PCOD9321096 Si02
#       8
#     8   8   8   4   8   8   8   8
#     4  12  23  36  59 101 139 171 212 270 349 415
#     4  12  24  42  64 101 143 183 221 268 327 417
#     4  12  21  37  61 101 135 179 210 275 331 417
#     4  10  26  46  70  98 136 178 236 290 358 408
#     4  12  25  39  65  96 144 178 223 264 336 413
#     4  11  24  41  68  97 133 181 225 285 345 417
#     4  10  25  45  69  99 126 172 230 297 346 401
#     4  12  24  41  72  96 136 184 226 275 345 401
#
# _framework density 21.505223000000001
#
# number of rings (size 3 to 8) (size 9 to 14) (size 15 to 20)
#    0.000    0.533    6.667    1.200    7.467    1.067 
#    0.000    0.000    1.467    0.000    0.000    0.000 
#    0.000    0.000    0.000    0.000    0.000    0.000 
#
# Total GULP energy -167191.115730 kJ/mol
# GULP energy per Si atom -5573.037191 kJ/mol
# Density = 2.145628 g / cm^3
# Si number density = 21.505223 Si / 1000 Ang^3
#
#
#
# Elastic Constant Matrix: (Units=GPa)
#
#
# Indices 1 2 3 4 5 6 
#
# 1 117.2229 13.0049 19.2178 0.0000 0.0000 0.0000
# 2 13.0049 82.2491 2.9843 0.0000 0.0000 0.0000
# 3 19.2178 2.9843 43.5123 0.0000 0.0000 0.0000
# 4 0.0000 0.0000 0.0000 23.3622 0.0000 0.0000
# 5 0.0000 0.0000 0.0000 0.0000 26.0317 0.0000
# 6 0.0000 0.0000 0.0000 0.0000 0.0000 33.3839
#
#
#
# Elastic Compliance Matrix: (Units=1/GPa)
#
#
# Indices 1 2 3 4 5 6 
#
# 1 0.009340 -0.001330 -0.004034 0.000000 0.000000 0.000000
# 2 -0.001330 0.012378 -0.000261 0.000000 0.000000 0.000000
# 3 -0.004034 -0.000261 0.024781 0.000000 0.000000 0.000000
# 4 0.000000 0.000000 0.000000 0.042804 0.000000 0.000000
# 5 0.000000 0.000000 0.000000 0.000000 0.038415 0.000000
# 6 0.000000 0.000000 0.000000 0.000000 0.000000 0.029955
#
#
# Mechanical properties :
#
#
# Convention : Reuss Voigt Hill
#
# Bulk Modulus (GPa) = 28.37028 34.82205 31.59617
# Shear Modulus (GPa) = 27.67432 30.40740 29.04086
#
# Velocity S-wave (km/s) = 3.59118 3.76434 3.67878
# Velocity P-wave (km/s) = 5.51510 5.92631 5.72440
#
# Compressibility (1/GPa) = 0.03524816
#
# Stress axis : x y z
#
# Youngs Moduli (GPa) = 107.07037 80.78835 40.35269
#
# Poissons Ratio (x) = 0.10748 0.16277
# Poissons Ratio (y) = 0.14245 0.01055
# Poissons Ratio (z) = 0.43189 0.02112
#
# Static dielectric constant tensor:
#      x y z
#    x 1.828500 0.000000 0.000000 
#    y 0.000000 1.850890 0.000000 
#    z 0.000000 0.000000 1.876080 
# 
# From -- ./inp_files/28023.got.cif
#   From: 2010.05.17/outbox.cif.g08.bks.cpg/sg20_15_cif.got.tgz:28023.got - 2010.06.03 22:52:26.
