data_PCOD9321586
_publ_section_title
;
Structure prediction by ZEFSAII (Michael W. Deem and Ramdas Pophale) SiO2 
 PCOD9321586
Probable space group: C 2 2 21
;
_chemical_formula_sum "Si O2"
_cell_formula_units_Z 56
_cell_length_a 15.796192
_cell_length_b 8.293903
_cell_length_c 20.124886
_cell_angle_alpha 90.000000
_cell_angle_beta 90.000000
_cell_angle_gamma 90.000000
_cell_volume 2636.603259
_symmetry_space_group_name_H-M "C 2 2 21"
_symmetry_group_IT_number 20
_symmetry_cell_setting 'orthorhombic'
loop_
_space_group_symop_operation_xyz
x,y,z
-x,-y,1/2+z
x,-y,-z
-x,y,1/2-z
1/2+x,1/2+y,z
1/2-x,1/2-y,1/2+z
1/2+x,1/2-y,-z
1/2-x,1/2+y,1/2-z
loop_
_atom_site_type_symbol
_atom_site_label
_atom_site_fract_x
_atom_site_fract_y
_atom_site_fract_z
Si Si1 0.380936 0.764796 0.590564
Si Si2 0.274240 0.520557 0.072666
Si Si3 0.180856 0.928681 0.209947
Si Si4 0.938042 0.180775 0.121248
Si Si5 0.500000 0.492804 0.250000
Si Si6 0.800679 0.302642 0.323342
Si Si7 0.968701 0.000000 0.500000
Si Si8 0.979711 0.514085 0.672026
O O1 0.315516 0.892105 0.560631
O O2 0.323084 0.678991 0.645342
O O3 0.414747 0.631509 0.540499
O O4 0.457719 0.856313 0.628483
O O5 0.340920 0.623376 0.116155
O O6 0.253039 0.357051 0.112356
O O7 0.312944 0.500000 0.000000
O O8 0.190256 0.114037 0.189052
O O9 0.252892 0.878938 0.260612
O O10 0.087950 0.900940 0.241748
O O11 0.952001 0.370658 0.135304
O O12 0.983293 0.099082 0.184710
O O13 0.981835 0.106011 0.055582
O O14 0.892225 0.384395 0.328863
O O15 0.000000 0.484135 0.750000
#
# Coordination Sequence:
#
# PCOD9321586 Si02
#       8
#     8   8   8   8   4   8   4   8
#     4  11  28  43  69 103 139 190 239 290 363 431
#     4  11  26  45  68 100 141 185 234 293 354 436
#     4  12  24  44  69 104 138 186 237 295 356 428
#     4  12  23  46  70 101 140 189 233 293 369 427
#     4  12  22  42  72  98 144 184 228 304 358 422
#     4  11  23  42  70 103 140 182 230 296 356 422
#     4  12  26  46  68  98 144 188 238 286 356 440
#     4  11  24  43  74 105 139 181 237 304 361 428
#
# _framework density 21.239450000000001
#
# number of rings (size 3 to 8) (size 9 to 14) (size 15 to 20)
#    0.000    0.571    5.714    1.714    9.000    0.000 
#    2.571    1.429    0.000    0.000    0.000    0.000 
#    0.000    0.000    0.000    0.000    0.000    0.000 
#
# Total GULP energy -156492.973439 kJ/mol
# GULP energy per Si atom -5589.034766 kJ/mol
# Density = 2.119111 g / cm^3
# Si number density = 21.239450 Si / 1000 Ang^3
#
#
#
# Elastic Constant Matrix: (Units=GPa)
#
#
# Indices 1 2 3 4 5 6 
#
# 1 74.4914 16.6479 20.3699 0.0000 0.0000 0.0000
# 2 16.6479 84.7742 34.4380 0.0000 0.0000 0.0000
# 3 20.3699 34.4380 121.8579 0.0000 0.0000 0.0000
# 4 0.0000 0.0000 0.0000 24.4075 0.0000 0.0000
# 5 0.0000 0.0000 0.0000 0.0000 24.0073 0.0000
# 6 0.0000 0.0000 0.0000 0.0000 0.0000 33.8776
#
#
#
# Elastic Compliance Matrix: (Units=1/GPa)
#
#
# Indices 1 2 3 4 5 6 
#
# 1 0.014387 -0.002088 -0.001815 0.000000 0.000000 0.000000
# 2 -0.002088 0.013629 -0.003503 0.000000 0.000000 0.000000
# 3 -0.001815 -0.003503 0.009500 0.000000 0.000000 0.000000
# 4 0.000000 0.000000 0.000000 0.040971 0.000000 0.000000
# 5 0.000000 0.000000 0.000000 0.000000 0.041654 0.000000
# 6 0.000000 0.000000 0.000000 0.000000 0.000000 0.029518
#
#
# Mechanical properties :
#
#
# Convention : Reuss Voigt Hill
#
# Bulk Modulus (GPa) = 44.04392 47.11504 45.57948
# Shear Modulus (GPa) = 29.06331 30.43633 29.74982
#
# Velocity S-wave (km/s) = 3.70315 3.78962 3.74664
# Velocity P-wave (km/s) = 6.25031 6.43267 6.34214
#
# Compressibility (1/GPa) = 0.02270461
#
# Stress axis : x y z
#
# Youngs Moduli (GPa) = 69.50564 73.37314 105.26851
#
# Poissons Ratio (x) = 0.15321 0.19105
# Poissons Ratio (y) = 0.14514 0.36871
# Poissons Ratio (z) = 0.12614 0.25700
#
# Static dielectric constant tensor:
#      x y z
#    x 1.789360 0.000000 0.000000 
#    y 0.000000 1.774370 0.000000 
#    z 0.000000 0.000000 1.773310 
# 
# From -- ./inp_files/27611.got.cif
#   From: 2010.05.17/outbox.cif.g08.bks.cpg/sg20_14_cif.got.tgz:27611.got - 2010.06.03 22:52:26.
