data_PCOD9321711
_publ_section_title
;
Structure prediction by ZEFSAII (Michael W. Deem and Ramdas Pophale) SiO2 
 PCOD9321711
Probable space group: C 2 2 21
;
_chemical_formula_sum "Si O2"
_cell_formula_units_Z 40
_cell_length_a 8.482825
_cell_length_b 8.798693
_cell_length_c 23.880513
_cell_angle_alpha 90.000000
_cell_angle_beta 90.000000
_cell_angle_gamma 90.000000
_cell_volume 1782.388307
_symmetry_space_group_name_H-M "C 2 2 21"
_symmetry_group_IT_number 20
_symmetry_cell_setting 'orthorhombic'
loop_
_space_group_symop_operation_xyz
x,y,z
-x,-y,1/2+z
x,-y,-z
-x,y,1/2-z
1/2+x,1/2+y,z
1/2-x,1/2-y,1/2+z
1/2+x,1/2-y,-z
1/2-x,1/2+y,1/2-z
loop_
_atom_site_type_symbol
_atom_site_label
_atom_site_fract_x
_atom_site_fract_y
_atom_site_fract_z
Si Si1 0.323604 0.835343 0.873819
Si Si2 0.328229 0.174057 0.722395
Si Si3 0.785477 0.331794 0.074782
Si Si4 0.560218 0.667227 0.521237
Si Si5 0.669521 0.836609 0.821280
O O1 0.190108 0.787432 0.830040
O O2 0.619292 0.667293 0.957862
O O3 0.488411 0.826702 0.840312
O O4 0.336073 0.721564 0.926176
O O5 0.500000 0.178983 0.750000
O O6 0.208509 0.222905 0.770956
O O7 0.295936 0.005617 0.699936
O O8 0.915195 0.283373 0.029863
O O9 0.771675 0.211240 0.124976
O O10 0.808308 0.496237 0.101845
O O11 0.604232 0.500000 0.500000
#
# Coordination Sequence:
#
# PCOD9321711 Si02
#       5
#     8   8   8   8   8
#     4  11  25  46  67  96 137 176 218 272 334 396
#     4  12  25  43  68  97 131 171 222 274 328 392
#     4  11  25  45  69  98 135 176 221 273 330 394
#     4  11  24  42  68  99 132 174 221 271 330 393
#     4  11  25  44  68  96 134 177 220 274 333 393
#
# _framework density 22.441799
#
# number of rings (size 3 to 8) (size 9 to 14) (size 15 to 20)
#    0.000    0.800    0.000    7.200    0.000   14.400 
#    0.000    1.000    0.000    0.000    0.000    0.000 
#    0.000    0.000    0.000    0.000    0.000    0.000 
#
# Total GULP energy -112113.359870 kJ/mol
# GULP energy per Si atom -5605.667994 kJ/mol
# Density = 2.239072 g / cm^3
# Si number density = 22.441799 Si / 1000 Ang^3
#
#
#
# Elastic Constant Matrix: (Units=GPa)
#
#
# Indices 1 2 3 4 5 6 
#
# 1 75.1517 48.6888 73.7075 0.0000 0.0000 0.0000
# 2 48.6888 148.5328 108.2416 0.0000 0.0000 0.0000
# 3 73.7075 108.2416 192.3505 0.0000 0.0000 0.0000
# 4 0.0000 0.0000 0.0000 69.5368 0.0000 0.0000
# 5 0.0000 0.0000 0.0000 0.0000 46.0933 0.0000
# 6 0.0000 0.0000 0.0000 0.0000 0.0000 20.7931
#
#
#
# Elastic Compliance Matrix: (Units=1/GPa)
#
#
# Indices 1 2 3 4 5 6 
#
# 1 0.021592 -0.001777 -0.007274 0.000000 0.000000 0.000000
# 2 -0.001777 0.011559 -0.005824 0.000000 0.000000 0.000000
# 3 -0.007274 -0.005824 0.011263 0.000000 0.000000 0.000000
# 4 0.000000 0.000000 0.000000 0.014381 0.000000 0.000000
# 5 0.000000 0.000000 0.000000 0.000000 0.021695 0.000000
# 6 0.000000 0.000000 0.000000 0.000000 0.000000 0.048093
#
#
# Mechanical properties :
#
#
# Convention : Reuss Voigt Hill
#
# Bulk Modulus (GPa) = 68.18961 97.47897 82.83429
# Shear Modulus (GPa) = 30.63347 39.64445 35.13896
#
# Velocity S-wave (km/s) = 3.69862 4.20759 3.96129
# Velocity P-wave (km/s) = 6.97788 8.19364 7.61008
#
# Compressibility (1/GPa) = 0.01466499
#
# Stress axis : x y z
#
# Youngs Moduli (GPa) = 46.31391 86.51330 88.78417
#
# Poissons Ratio (x) = 0.15374 0.64580
# Poissons Ratio (y) = 0.08230 0.51705
# Poissons Ratio (z) = 0.33688 0.50382
#
# Static dielectric constant tensor:
#      x y z
#    x 1.823440 0.000000 0.000000 
#    y 0.000000 1.792520 0.000000 
#    z 0.000000 0.000000 1.816360 
# 
# From -- ./inp_files/28590.got.cif
#   From: 2010.05.17/outbox.cif.g08.bks.cpg/sg20_15_cif.got.tgz:28590.got - 2010.06.03 22:52:26.
