data_PCOD9321005
_publ_section_title
;
Structure prediction by ZEFSAII (Michael W. Deem and Ramdas Pophale) SiO2 
 PCOD9321005
Probable space group: C 2 2 21
;
_chemical_formula_sum "Si O2"
_cell_formula_units_Z 64
_cell_length_a 8.368904
_cell_length_b 21.110736
_cell_length_c 15.131914
_cell_angle_alpha 90.000000
_cell_angle_beta 90.000000
_cell_angle_gamma 90.000000
_cell_volume 2673.411582
_symmetry_space_group_name_H-M "C 2 2 21"
_symmetry_group_IT_number 20
_symmetry_cell_setting 'orthorhombic'
loop_
_space_group_symop_operation_xyz
x,y,z
-x,-y,1/2+z
x,-y,-z
-x,y,1/2-z
1/2+x,1/2+y,z
1/2-x,1/2-y,1/2+z
1/2+x,1/2-y,-z
1/2-x,1/2+y,1/2-z
loop_
_atom_site_type_symbol
_atom_site_label
_atom_site_fract_x
_atom_site_fract_y
_atom_site_fract_z
Si Si1 0.272376 0.785839 0.881310
Si Si2 0.312170 0.918768 0.920862
Si Si3 0.179510 0.567242 0.785981
Si Si4 0.044167 0.760167 0.527668
Si Si5 0.318102 0.442816 0.394906
Si Si6 0.652743 0.396460 0.455278
Si Si7 0.676952 0.703792 0.295201
Si Si8 0.819973 0.427531 0.634061
O O1 0.222963 0.859383 0.878864
O O2 0.284899 0.764675 0.781041
O O3 0.133290 0.752158 0.935922
O O4 0.423780 0.784786 0.945037
O O5 0.491336 0.920956 0.884591
O O6 0.228495 0.983690 0.894448
O O7 0.293532 0.913967 0.027260
O O8 0.288293 0.583841 0.702080
O O9 0.225336 0.606442 0.873157
O O10 0.202650 0.493291 0.813870
O O11 0.000000 0.575421 0.750000
O O12 0.081180 0.829351 0.487123
O O13 0.155325 0.756667 0.614710
O O14 0.499477 0.434860 0.422879
O O15 0.735740 0.428643 0.538843
O O16 0.500000 0.699894 0.250000
O O17 0.748931 0.635032 0.319079
#
# Coordination Sequence:
#
# PCOD9321005 Si02
#       8
#     8   8   8   8   8   8   8   8
#     4  11  23  45  73  97 138 179 232 292 344 407
#     4  11  24  42  70  97 139 178 229 291 348 404
#     4  12  24  41  61 101 143 176 225 276 344 428
#     4  10  24  47  66 104 131 182 234 284 347 413
#     4  11  24  43  67 100 138 181 224 281 349 420
#     4  11  25  45  68  96 140 186 228 280 351 425
#     4   9  22  43  70  99 134 177 235 291 347 405
#     4  11  24  41  70 101 133 178 235 291 345 408
#
# _framework density 23.939449
#
# number of rings (size 3 to 8) (size 9 to 14) (size 15 to 20)
#    0.000    1.250    2.500    2.250    8.750    1.000 
#    2.250    0.625    0.000    0.000    0.000    0.000 
#    0.000    0.000    0.000    0.000    0.000    0.000 
#
# Total GULP energy -179112.281264 kJ/mol
# GULP energy per Si atom -5597.258789 kJ/mol
# Density = 2.388496 g / cm^3
# Si number density = 23.939449 Si / 1000 Ang^3
#
#
#
# Elastic Constant Matrix: (Units=GPa)
#
#
# Indices 1 2 3 4 5 6 
#
# 1 67.0890 8.1059 41.4519 0.0000 0.0000 0.0000
# 2 8.1059 29.7258 5.0123 0.0000 0.0000 0.0000
# 3 41.4519 5.0123 177.5155 0.0000 0.0000 0.0000
# 4 0.0000 0.0000 0.0000 26.2128 0.0000 0.0000
# 5 0.0000 0.0000 0.0000 0.0000 36.6072 0.0000
# 6 0.0000 0.0000 0.0000 0.0000 0.0000 29.0513
#
#
#
# Elastic Compliance Matrix: (Units=1/GPa)
#
#
# Indices 1 2 3 4 5 6 
#
# 1 0.017926 -0.004203 -0.004067 0.000000 0.000000 0.000000
# 2 -0.004203 0.034787 -0.000001 0.000000 0.000000 0.000000
# 3 -0.004067 -0.000001 0.006583 0.000000 0.000000 0.000000
# 4 0.000000 0.000000 0.000000 0.038149 0.000000 0.000000
# 5 0.000000 0.000000 0.000000 0.000000 0.027317 0.000000
# 6 0.000000 0.000000 0.000000 0.000000 0.000000 0.034422
#
#
# Mechanical properties :
#
#
# Convention : Reuss Voigt Hill
#
# Bulk Modulus (GPa) = 23.38914 42.60784 32.99849
# Shear Modulus (GPa) = 26.31886 33.02494 29.67190
#
# Velocity S-wave (km/s) = 3.31931 3.71822 3.52441
# Velocity P-wave (km/s) = 4.94790 6.02249 5.51145
#
# Compressibility (1/GPa) = 0.04275489
#
# Stress axis : x y z
#
# Youngs Moduli (GPa) = 55.78359 28.74643 151.90382
#
# Poissons Ratio (x) = 0.12081 0.61785
# Poissons Ratio (y) = 0.23443 0.00014
# Poissons Ratio (z) = 0.22689 0.00003
#
# Static dielectric constant tensor:
#      x y z
#    x 1.912900 0.000000 0.000000 
#    y 0.000000 1.945690 0.000000 
#    z 0.000000 0.000000 1.955320 
# 
# From -- ./inp_files/19347.got.cif
#   From: 2010.05.17/outbox.cif.g08.bks.cpg/sg20_10_cif.got.tgz:19347.got - 2010.06.03 22:52:26.
