data_PCOD9321621
_publ_section_title
;
Structure prediction by ZEFSAII (Michael W. Deem and Ramdas Pophale) SiO2 
 PCOD9321621
Probable space group: C 2 2 21
;
_chemical_formula_sum "Si O2"
_cell_formula_units_Z 40
_cell_length_a 8.822369
_cell_length_b 13.916378
_cell_length_c 14.209417
_cell_angle_alpha 90.000000
_cell_angle_beta 90.000000
_cell_angle_gamma 90.000000
_cell_volume 1744.567167
_symmetry_space_group_name_H-M "C 2 2 21"
_symmetry_group_IT_number 20
_symmetry_cell_setting 'orthorhombic'
loop_
_space_group_symop_operation_xyz
x,y,z
-x,-y,1/2+z
x,-y,-z
-x,y,1/2-z
1/2+x,1/2+y,z
1/2-x,1/2-y,1/2+z
1/2+x,1/2-y,-z
1/2-x,1/2+y,1/2-z
loop_
_atom_site_type_symbol
_atom_site_label
_atom_site_fract_x
_atom_site_fract_y
_atom_site_fract_z
Si Si1 0.828287 0.207423 0.720003
Si Si2 0.012860 0.612821 0.972792
Si Si3 0.139207 0.875353 0.817670
Si Si4 0.288728 0.720625 0.498481
Si Si5 0.360412 0.959625 0.204446
O O1 0.735863 0.298435 0.757636
O O2 0.824396 0.197357 0.606713
O O3 0.745095 0.113191 0.761694
O O4 0.000000 0.213560 0.750000
O O5 0.955277 0.608065 0.865743
O O6 0.171049 0.666805 0.988222
O O7 0.015265 0.500000 0.000000
O O8 0.879696 0.677701 0.021360
O O9 0.104670 0.827906 0.918734
O O10 0.000000 0.901185 0.750000
O O11 0.243297 0.966867 0.839537
O O12 0.500000 0.017129 0.250000
#
# Coordination Sequence:
#
# PCOD9321621 Si02
#       5
#     8   8   8   8   8
#     4  11  24  42  70 101 136 181 233 294 355 427
#     4  11  23  44  70  99 139 181 225 291 351 420
#     4  12  24  43  66 100 140 186 236 290 356 425
#     4  11  24  44  70 102 140 181 234 294 352 419
#     4  11  24  43  68  98 138 185 232 291 352 418
#
# _framework density 22.928322999999999
#
# number of rings (size 3 to 8) (size 9 to 14) (size 15 to 20)
#    0.000    0.800    2.000    6.600    2.800    0.000 
#    0.000    1.000    0.000    0.000    0.000    0.000 
#    0.000    0.000    0.000    0.000    0.000    0.000 
#
# Total GULP energy -111572.644759 kJ/mol
# GULP energy per Si atom -5578.632238 kJ/mol
# Density = 2.287614 g / cm^3
# Si number density = 22.928323 Si / 1000 Ang^3
#
#
#
# Elastic Constant Matrix: (Units=GPa)
#
#
# Indices 1 2 3 4 5 6 
#
# 1 95.1690 58.9583 27.0175 0.0000 0.0000 0.0000
# 2 58.9583 119.0659 -1.6106 0.0000 0.0000 0.0000
# 3 27.0175 -1.6106 99.0102 0.0000 0.0000 0.0000
# 4 0.0000 0.0000 0.0000 24.3942 0.0000 0.0000
# 5 0.0000 0.0000 0.0000 0.0000 21.0028 0.0000
# 6 0.0000 0.0000 0.0000 0.0000 0.0000 54.9387
#
#
#
# Elastic Compliance Matrix: (Units=1/GPa)
#
#
# Indices 1 2 3 4 5 6 
#
# 1 0.017194 -0.008580 -0.004831 0.000000 0.000000 0.000000
# 2 -0.008580 0.012682 0.002547 0.000000 0.000000 0.000000
# 3 -0.004831 0.002547 0.011460 0.000000 0.000000 0.000000
# 4 0.000000 0.000000 0.000000 0.040993 0.000000 0.000000
# 5 0.000000 0.000000 0.000000 0.000000 0.047613 0.000000
# 6 0.000000 0.000000 0.000000 0.000000 0.000000 0.018202
#
#
# Mechanical properties :
#
#
# Convention : Reuss Voigt Hill
#
# Bulk Modulus (GPa) = 50.99827 53.55284 52.27556
# Shear Modulus (GPa) = 28.34351 35.32580 31.83465
#
# Velocity S-wave (km/s) = 3.51975 3.92944 3.73022
# Velocity P-wave (km/s) = 6.22968 6.63285 6.43442
#
# Compressibility (1/GPa) = 0.01960851
#
# Stress axis : x y z
#
# Youngs Moduli (GPa) = 58.15860 78.85476 87.26151
#
# Poissons Ratio (x) = 0.67654 0.42160
# Poissons Ratio (y) = 0.49897 -0.22229
# Poissons Ratio (z) = 0.28099 -0.20088
#
# Static dielectric constant tensor:
#      x y z
#    x 1.863040 0.000000 0.000000 
#    y 0.000000 1.879280 0.000000 
#    z 0.000000 0.000000 1.996550 
# 
# From -- ./inp_files/18552.got.cif
#   From: 2010.05.17/outbox.cif.g08.bks.cpg/sg20_10_cif.got.tgz:18552.got - 2010.06.03 22:52:26.
