data_PCOD9321962
_publ_section_title
;
Structure prediction by ZEFSAII (Michael W. Deem and Ramdas Pophale) SiO2 
 PCOD9321962
Probable space group: C 2 2 21
;
_chemical_formula_sum "Si O2"
_cell_formula_units_Z 48
_cell_length_a 15.176933
_cell_length_b 9.250183
_cell_length_c 15.071391
_cell_angle_alpha 90.000000
_cell_angle_beta 90.000000
_cell_angle_gamma 90.000000
_cell_volume 2115.863655
_symmetry_space_group_name_H-M "C 2 2 21"
_symmetry_group_IT_number 20
_symmetry_cell_setting 'orthorhombic'
loop_
_space_group_symop_operation_xyz
x,y,z
-x,-y,1/2+z
x,-y,-z
-x,y,1/2-z
1/2+x,1/2+y,z
1/2-x,1/2-y,1/2+z
1/2+x,1/2-y,-z
1/2-x,1/2+y,1/2-z
loop_
_atom_site_type_symbol
_atom_site_label
_atom_site_fract_x
_atom_site_fract_y
_atom_site_fract_z
Si Si1 0.842283 0.999012 0.605107
Si Si2 0.824838 0.351880 0.178090
Si Si3 0.787071 0.707110 0.633900
Si Si4 0.459632 0.237181 0.405181
Si Si5 0.862638 0.173429 0.002260
Si Si6 0.353219 0.000000 0.500000
Si Si7 0.000000 0.511570 0.250000
O O1 0.742591 0.035834 0.633506
O O2 0.908089 0.125593 0.635058
O O3 0.849617 0.000000 0.500000
O O4 0.859588 0.834641 0.632853
O O5 0.767211 0.299004 0.262290
O O6 0.848512 0.237255 0.100860
O O7 0.914659 0.417701 0.219954
O O8 0.709774 0.742579 0.563988
O O9 0.811853 0.550194 0.594059
O O10 0.544150 0.289069 0.459492
O O11 0.400971 0.147456 0.474385
O O12 0.481935 0.118727 0.331591
O O13 0.852722 0.000000 0.000000
#
# Coordination Sequence:
#
# PCOD9321962 Si02
#       7
#     8   8   8   8   8   4   4
#     4  12  26  48  77 111 154 203 250 326 394 468
#     4  12  29  49  80 116 154 212 268 323 406 476
#     4  12  27  48  80 111 155 206 264 322 391 484
#     4  12  27  46  76 114 151 204 257 327 398 460
#     4  12  28  49  78 115 164 209 266 340 403 482
#     4  12  22  48  76 104 148 200 256 312 386 466
#     4  12  28  48  80 114 154 210 266 334 386 492
#
# _framework density 22.685772
#
# number of rings (size 3 to 8) (size 9 to 14) (size 15 to 20)
#    0.000    0.000    5.833    2.500    7.000    0.000 
#    0.000    0.000    0.000    0.000    0.000    0.000 
#    0.000    0.000    0.000    0.000    0.000    0.000 
#
# Total GULP energy -133952.911658 kJ/mol
# GULP energy per Si atom -5581.371319 kJ/mol
# Density = 2.263414 g / cm^3
# Si number density = 22.685772 Si / 1000 Ang^3
#
#
#
# Elastic Constant Matrix: (Units=GPa)
#
#
# Indices 1 2 3 4 5 6 
#
# 1 69.7295 26.5873 23.3584 0.0000 0.0000 0.0000
# 2 26.5873 125.7587 46.5229 0.0000 0.0000 0.0000
# 3 23.3584 46.5229 139.5920 0.0000 0.0000 0.0000
# 4 0.0000 0.0000 0.0000 41.1706 0.0000 0.0000
# 5 0.0000 0.0000 0.0000 0.0000 36.9414 0.0000
# 6 0.0000 0.0000 0.0000 0.0000 0.0000 30.0807
#
#
#
# Elastic Compliance Matrix: (Units=1/GPa)
#
#
# Indices 1 2 3 4 5 6 
#
# 1 0.015971 -0.002724 -0.001765 0.000000 0.000000 0.000000
# 2 -0.002724 0.009534 -0.002722 0.000000 0.000000 0.000000
# 3 -0.001765 -0.002722 0.008366 0.000000 0.000000 0.000000
# 4 0.000000 0.000000 0.000000 0.024289 0.000000 0.000000
# 5 0.000000 0.000000 0.000000 0.000000 0.027070 0.000000
# 6 0.000000 0.000000 0.000000 0.000000 0.000000 0.033244
#
#
# Mechanical properties :
#
#
# Convention : Reuss Voigt Hill
#
# Bulk Modulus (GPa) = 51.41126 58.66858 55.03992
# Shear Modulus (GPa) = 35.87352 37.54597 36.70975
#
# Velocity S-wave (km/s) = 3.98090 4.07264 4.02703
# Velocity P-wave (km/s) = 6.62130 6.93056 6.77770
#
# Compressibility (1/GPa) = 0.01945099
#
# Stress axis : x y z
#
# Youngs Moduli (GPa) = 62.61429 104.88251 119.52906
#
# Poissons Ratio (x) = 0.28566 0.21093
# Poissons Ratio (y) = 0.17054 0.32534
# Poissons Ratio (z) = 0.11050 0.28548
#
# Static dielectric constant tensor:
#      x y z
#    x 1.970300 0.000000 0.000000 
#    y 0.000000 1.892940 0.000000 
#    z 0.000000 0.000000 1.879160 
# 
# From -- ./inp_files/21318.got.cif
#   From: 2010.05.17/outbox.cif.g08.bks.cpg/sg20_11_cif.got.tgz:21318.got - 2010.06.03 22:52:26.
