data_PCOD9321733
_publ_section_title
;
Structure prediction by ZEFSAII (Michael W. Deem and Ramdas Pophale) SiO2 
 PCOD9321733
Probable space group: C 2 2 21
;
_chemical_formula_sum "Si O2"
_cell_formula_units_Z 40
_cell_length_a 10.060188
_cell_length_b 21.913486
_cell_length_c 8.739950
_cell_angle_alpha 90.000000
_cell_angle_beta 90.000000
_cell_angle_gamma 90.000000
_cell_volume 1926.755092
_symmetry_space_group_name_H-M "C 2 2 21"
_symmetry_group_IT_number 20
_symmetry_cell_setting 'orthorhombic'
loop_
_space_group_symop_operation_xyz
x,y,z
-x,-y,1/2+z
x,-y,-z
-x,y,1/2-z
1/2+x,1/2+y,z
1/2-x,1/2-y,1/2+z
1/2+x,1/2-y,-z
1/2-x,1/2+y,1/2-z
loop_
_atom_site_type_symbol
_atom_site_label
_atom_site_fract_x
_atom_site_fract_y
_atom_site_fract_z
Si Si1 0.646072 0.882362 0.679393
Si Si2 0.357312 0.621799 0.821851
Si Si3 0.374234 0.819722 0.141704
Si Si4 0.642646 0.489844 0.818081
Si Si5 0.629765 0.679595 0.355856
O O1 0.500000 0.888867 0.750000
O O2 0.630175 0.864139 0.502827
O O3 0.735394 0.830569 0.760836
O O4 0.738555 0.941842 0.698864
O O5 0.500000 0.634575 0.750000
O O6 0.252445 0.666857 0.746086
O O7 0.323984 0.552779 0.770092
O O8 0.366149 0.633674 0.001753
O O9 0.500000 0.830640 0.250000
O O10 0.377031 0.749500 0.088438
O O11 0.500000 0.469624 0.750000
O O12 0.624656 0.500000 0.000000
O O13 0.500000 0.670198 0.250000
#
# Coordination Sequence:
#
# PCOD9321733 Si02
#       5
#     8   8   8   8   8
#     4  12  26  45  69 102 145 181 231 293 354 413
#     4  11  24  43  71  98 133 185 233 293 349 414
#     4  11  24  45  68 102 145 185 231 286 354 421
#     4  11  26  48  72 100 135 182 238 293 346 422
#     4  11  25  43  72 104 139 185 236 288 348 424
#
# _framework density 20.760292
#
# number of rings (size 3 to 8) (size 9 to 14) (size 15 to 20)
#    0.000    0.800    2.000    4.200    8.400    7.200 
#    3.600    0.000    0.000    0.000    0.000    0.000 
#    0.000    0.000    0.000    0.000    0.000    0.000 
#
# Total GULP energy -111914.391046 kJ/mol
# GULP energy per Si atom -5595.719552 kJ/mol
# Density = 2.071304 g / cm^3
# Si number density = 20.760292 Si / 1000 Ang^3
#
#
#
# Elastic Constant Matrix: (Units=GPa)
#
#
# Indices 1 2 3 4 5 6 
#
# 1 144.9546 50.0864 58.4634 0.0000 0.0000 0.0000
# 2 50.0864 108.5099 55.3793 0.0000 0.0000 0.0000
# 3 58.4634 55.3793 140.5107 0.0000 0.0000 0.0000
# 4 0.0000 0.0000 0.0000 39.4183 0.0000 0.0000
# 5 0.0000 0.0000 0.0000 0.0000 35.3195 0.0000
# 6 0.0000 0.0000 0.0000 0.0000 0.0000 18.0487
#
#
#
# Elastic Compliance Matrix: (Units=1/GPa)
#
#
# Indices 1 2 3 4 5 6 
#
# 1 0.008913 -0.002781 -0.002613 0.000000 0.000000 0.000000
# 2 -0.002781 0.012404 -0.003732 0.000000 0.000000 0.000000
# 3 -0.002613 -0.003732 0.009675 0.000000 0.000000 0.000000
# 4 0.000000 0.000000 0.000000 0.025369 0.000000 0.000000
# 5 0.000000 0.000000 0.000000 0.000000 0.028313 0.000000
# 6 0.000000 0.000000 0.000000 0.000000 0.000000 0.055406
#
#
# Mechanical properties :
#
#
# Convention : Reuss Voigt Hill
#
# Bulk Modulus (GPa) = 78.48315 80.20373 79.34344
# Shear Modulus (GPa) = 30.75468 33.89371 32.32420
#
# Velocity S-wave (km/s) = 3.85310 4.04496 3.95019
# Velocity P-wave (km/s) = 7.59484 7.78027 7.68812
#
# Compressibility (1/GPa) = 0.01274159
#
# Stress axis : x y z
#
# Youngs Moduli (GPa) = 112.19180 80.62019 103.36238
#
# Poissons Ratio (x) = 0.22419 0.27005
# Poissons Ratio (y) = 0.31199 0.38571
# Poissons Ratio (z) = 0.29311 0.30085
#
# Static dielectric constant tensor:
#      x y z
#    x 1.694730 0.000000 0.000000 
#    y 0.000000 1.771130 0.000000 
#    z 0.000000 0.000000 1.736340 
# 
# From -- ./inp_files/6063.got.cif
#   From: 2010.05.17/outbox.cif.g08.bks.cpg/sg20_4_cif.got.tgz:6063.got - 2010.06.03 22:52:26.
