data_PCOD9321394
_publ_section_title
;
Structure prediction by ZEFSAII (Michael W. Deem and Ramdas Pophale) SiO2 
 PCOD9321394
Probable space group: C 2 2 21
;
_chemical_formula_sum "Si O2"
_cell_formula_units_Z 32
_cell_length_a 13.637577
_cell_length_b 19.966433
_cell_length_c 4.952126
_cell_angle_alpha 90.000000
_cell_angle_beta 90.000000
_cell_angle_gamma 90.000000
_cell_volume 1348.433045
_symmetry_space_group_name_H-M "C 2 2 21"
_symmetry_group_IT_number 20
_symmetry_cell_setting 'orthorhombic'
loop_
_space_group_symop_operation_xyz
x,y,z
-x,-y,1/2+z
x,-y,-z
-x,y,1/2-z
1/2+x,1/2+y,z
1/2-x,1/2-y,1/2+z
1/2+x,1/2-y,-z
1/2-x,1/2+y,1/2-z
loop_
_atom_site_type_symbol
_atom_site_label
_atom_site_fract_x
_atom_site_fract_y
_atom_site_fract_z
Si Si1 0.933954 0.599742 0.025214
Si Si2 0.125188 0.736728 0.180275
Si Si3 0.726274 0.543366 0.224372
Si Si4 0.849917 0.812398 0.834244
O O1 0.000000 0.601671 0.750000
O O2 0.915662 0.674243 0.146049
O O3 0.826051 0.567728 0.062145
O O4 0.000000 0.563018 0.250000
O O5 0.109457 0.799750 0.371294
O O6 0.238238 0.715205 0.149531
O O7 0.099242 0.764346 0.885684
O O8 0.746102 0.500000 0.500000
O O9 0.664030 0.609832 0.278801
O O10 0.672307 0.500000 0.000000
#
# Coordination Sequence:
#
# PCOD9321394 Si02
#       4
#     8   8   8   8
#     4  11  22  35  51  74 107 145 182 217 255 315
#     4   9  17  31  51  72  95 127 170 223 275 309
#     4  11  22  35  51  74 107 145 182 217 255 315
#     4   9  17  31  51  72  95 127 170 223 275 309
#
# _framework density 23.731249999999999
#
# number of rings (size 3 to 8) (size 9 to 14) (size 15 to 20)
#    0.000    2.000    0.000    4.500    0.000   10.000 
#    0.000    0.000    0.000    0.000    0.000    0.000 
#    0.000   56.000    0.000    0.000    0.000    0.000 
#
# Total GULP energy -89079.962190 kJ/mol
# GULP energy per Si atom -5567.497637 kJ/mol
# Density = 2.367724 g / cm^3
# Si number density = 23.731250 Si / 1000 Ang^3
#
#
#
# Elastic Constant Matrix: (Units=GPa)
#
#
# Indices 1 2 3 4 5 6 
#
# 1 49.9497 7.6548 20.6400 0.0000 0.0000 0.0000
# 2 7.6548 135.9724 34.2947 0.0000 0.0000 0.0000
# 3 20.6400 34.2947 157.5171 0.0000 0.0000 0.0000
# 4 0.0000 0.0000 0.0000 37.0790 0.0000 0.0000
# 5 0.0000 0.0000 0.0000 0.0000 25.9625 0.0000
# 6 0.0000 0.0000 0.0000 0.0000 0.0000 -11.7111
#
#
#
# Elastic Compliance Matrix: (Units=1/GPa)
#
#
# Indices 1 2 3 4 5 6 
#
# 1 0.021201 -0.000522 -0.002665 0.000000 0.000000 0.000000
# 2 -0.000522 0.007795 -0.001629 0.000000 0.000000 0.000000
# 3 -0.002665 -0.001629 0.007052 0.000000 0.000000 0.000000
# 4 0.000000 0.000000 0.000000 0.026969 0.000000 0.000000
# 5 0.000000 0.000000 0.000000 0.000000 0.038517 0.000000
# 6 0.000000 0.000000 0.000000 0.000000 0.000000 -0.085389
#
#
# Mechanical properties :
#
#
# Convention : Reuss Voigt Hill
#
# Bulk Modulus (GPa) = 37.85227 52.06868 44.96048
# Shear Modulus (GPa) = 144.58836 28.98940 86.78888
#
# Velocity S-wave (km/s) = 7.81407 3.49889 6.05400
# Velocity P-wave (km/s) = 9.86904 6.18963 8.23740
#
# Compressibility (1/GPa) = 0.02641849
#
# Stress axis : x y z
#
# Youngs Moduli (GPa) = 47.16737 128.29424 141.79850
#
# Poissons Ratio (x) = 0.06691 0.37782
# Poissons Ratio (y) = 0.02460 0.23095
# Poissons Ratio (z) = 0.12568 0.20895
#
# Static dielectric constant tensor:
#      x y z
#    x 2.069150 0.000000 0.000000 
#    y 0.000000 1.939590 0.000000 
#    z 0.000000 0.000000 1.886900 
# 
# From -- ./inp_files/1572.got.cif
#   From: 2010.05.17/outbox.cif.g08.bks.cpg/sg20_1_cif.got.tgz:1572.got - 2010.06.03 22:52:26.
