data_PCOD9321800
_publ_section_title
;
Structure prediction by ZEFSAII (Michael W. Deem and Ramdas Pophale) SiO2 
 PCOD9321800
Probable space group: C 2 2 21
;
_chemical_formula_sum "Si O2"
_cell_formula_units_Z 40
_cell_length_a 18.026603
_cell_length_b 5.048081
_cell_length_c 18.398823
_cell_angle_alpha 90.000000
_cell_angle_beta 90.000000
_cell_angle_gamma 90.000000
_cell_volume 1674.288332
_symmetry_space_group_name_H-M "C 2 2 21"
_symmetry_group_IT_number 20
_symmetry_cell_setting 'orthorhombic'
loop_
_space_group_symop_operation_xyz
x,y,z
-x,-y,1/2+z
x,-y,-z
-x,y,1/2-z
1/2+x,1/2+y,z
1/2-x,1/2-y,1/2+z
1/2+x,1/2-y,-z
1/2-x,1/2+y,1/2-z
loop_
_atom_site_type_symbol
_atom_site_label
_atom_site_fract_x
_atom_site_fract_y
_atom_site_fract_z
Si Si1 0.742090 0.190819 0.430746
Si Si2 0.887754 0.000000 0.000000
Si Si3 0.478648 0.262908 0.579157
Si Si4 0.722885 0.649866 0.789352
Si Si5 0.052318 0.739792 0.180147
Si Si6 0.139758 0.500000 0.000000
O O1 0.664222 0.332487 0.445942
O O2 0.749823 0.006942 0.361004
O O3 0.802984 0.428110 0.435262
O O4 0.757248 0.000000 0.500000
O O5 0.941105 0.195807 0.044331
O O6 0.462551 0.503024 0.632230
O O7 0.419471 0.231359 0.513821
O O8 0.467110 0.006455 0.628870
O O9 0.769162 0.914670 0.770627
O O10 0.638148 0.743775 0.796605
O O11 0.000000 0.733804 0.250000
#
# Coordination Sequence:
#
# PCOD9321800 Si02
#       6
#     8   4   8   8   8   4
#     4  11  27  49  80 115 157 211 269 332 402 484
#     4  11  30  46  78 121 154 206 266 349 396 474
#     4  12  26  49  77 116 153 204 268 335 405 465
#     4  12  29  53  80 118 165 214 267 331 411 487
#     4  12  28  50  78 112 159 213 266 326 403 491
#     4  11  24  48  78 107 154 200 274 329 402 474
#
# _framework density 23.890749
#
# number of rings (size 3 to 8) (size 9 to 14) (size 15 to 20)
#    0.000    0.400    2.000    4.200   14.000    0.000 
#    0.000    0.000    0.000    0.000    0.000    0.000 
#    0.000    0.000    0.000    0.000    0.000    0.000 
#
# Total GULP energy -111970.407500 kJ/mol
# GULP energy per Si atom -5598.520375 kJ/mol
# Density = 2.383637 g / cm^3
# Si number density = 23.890749 Si / 1000 Ang^3
#
#
#
# Elastic Constant Matrix: (Units=GPa)
#
#
# Indices 1 2 3 4 5 6 
#
# 1 203.3958 69.3482 70.9280 0.0000 0.0000 0.0000
# 2 69.3482 198.3310 73.3877 0.0000 0.0000 0.0000
# 3 70.9280 73.3877 132.5979 0.0000 0.0000 0.0000
# 4 0.0000 0.0000 0.0000 64.9906 0.0000 0.0000
# 5 0.0000 0.0000 0.0000 0.0000 33.8293 0.0000
# 6 0.0000 0.0000 0.0000 0.0000 0.0000 43.5613
#
#
#
# Elastic Compliance Matrix: (Units=1/GPa)
#
#
# Indices 1 2 3 4 5 6 
#
# 1 0.006261 -0.001195 -0.002688 0.000000 0.000000 0.000000
# 2 -0.001195 0.006569 -0.002996 0.000000 0.000000 0.000000
# 3 -0.002688 -0.002996 0.010638 0.000000 0.000000 0.000000
# 4 0.000000 0.000000 0.000000 0.015387 0.000000 0.000000
# 5 0.000000 0.000000 0.000000 0.000000 0.029560 0.000000
# 6 0.000000 0.000000 0.000000 0.000000 0.000000 0.022956
#
#
# Mechanical properties :
#
#
# Convention : Reuss Voigt Hill
#
# Bulk Modulus (GPa) = 102.99210 106.85027 104.92118
# Shear Modulus (GPa) = 46.14025 49.85364 47.99694
#
# Velocity S-wave (km/s) = 4.39943 4.57303 4.48707
# Velocity P-wave (km/s) = 8.30721 8.52673 8.41769
#
# Compressibility (1/GPa) = 0.00970948
#
# Stress axis : x y z
#
# Youngs Moduli (GPa) = 159.71395 152.24075 94.00434
#
# Poissons Ratio (x) = 0.18188 0.25268
# Poissons Ratio (y) = 0.19080 0.28167
# Poissons Ratio (z) = 0.42931 0.45617
#
# Static dielectric constant tensor:
#      x y z
#    x 1.901750 0.000000 0.000000 
#    y 0.000000 1.902360 0.000000 
#    z 0.000000 0.000000 1.979190 
# 
# From -- ./inp_files/25111.got.cif
#   From: 2010.05.17/outbox.cif.g08.bks.cpg/sg20_13_cif.got.tgz:25111.got - 2010.06.03 22:52:26.
