data_PCOD9321016
_publ_section_title
;
Structure prediction by ZEFSAII (Michael W. Deem and Ramdas Pophale) SiO2 
 PCOD9321016
Probable space group: C 2 2 21
;
_chemical_formula_sum "Si O2"
_cell_formula_units_Z 48
_cell_length_a 5.571432
_cell_length_b 25.306070
_cell_length_c 14.820297
_cell_angle_alpha 90.000000
_cell_angle_beta 90.000000
_cell_angle_gamma 90.000000
_cell_volume 2089.529209
_symmetry_space_group_name_H-M "C 2 2 21"
_symmetry_group_IT_number 20
_symmetry_cell_setting 'orthorhombic'
loop_
_space_group_symop_operation_xyz
x,y,z
-x,-y,1/2+z
x,-y,-z
-x,y,1/2-z
1/2+x,1/2+y,z
1/2-x,1/2-y,1/2+z
1/2+x,1/2-y,-z
1/2-x,1/2+y,1/2-z
loop_
_atom_site_type_symbol
_atom_site_label
_atom_site_fract_x
_atom_site_fract_y
_atom_site_fract_z
Si Si1 0.997488 0.873162 0.987571
Si Si2 0.727211 0.039482 0.923906
Si Si3 0.922213 0.765116 0.449719
Si Si4 0.500000 0.889237 0.750000
Si Si5 0.323801 0.694214 0.184858
Si Si6 0.000000 0.007596 0.750000
Si Si7 0.334359 0.043374 0.105727
O O1 0.196556 0.917261 0.961614
O O2 0.931804 0.838625 0.899576
O O3 0.083164 0.828510 0.057403
O O4 0.771180 0.904265 0.030391
O O5 0.465733 0.012371 0.915179
O O6 0.845405 0.038740 0.825018
O O7 0.844795 0.000000 0.000000
O O8 0.685413 0.751015 0.511255
O O9 0.872975 0.732075 0.359543
O O10 0.278547 0.849825 0.752450
O O11 0.468462 0.922474 0.659264
O O12 0.500000 0.726259 0.250000
O O13 0.156245 0.970607 0.813619
#
# Coordination Sequence:
#
# PCOD9321016 Si02
#       7
#     8   8   8   4   8   4   8
#     4  11  24  47  71 106 148 200 250 308 390 461
#     4  12  26  42  69 103 146 204 250 305 380 453
#     4  10  24  47  73 110 151 191 248 320 389 459
#     4  12  20  36  71 108 140 185 250 318 390 428
#     4  11  23  42  76 112 146 187 254 328 388 452
#     4  12  24  46  61 102 146 189 250 316 352 446
#     4  12  23  41  69 101 148 194 254 316 368 455
#
# _framework density 22.971679000000002
#
# number of rings (size 3 to 8) (size 9 to 14) (size 15 to 20)
#    0.000    0.667    5.000    3.000    4.667    1.333 
#    0.000    0.833    3.667    0.000    0.000    0.000 
#    0.000    0.000    0.000    0.000    0.000    0.000 
#
# Total GULP energy -133776.388237 kJ/mol
# GULP energy per Si atom -5574.016177 kJ/mol
# Density = 2.291939 g / cm^3
# Si number density = 22.971679 Si / 1000 Ang^3
#
#
#
# Elastic Constant Matrix: (Units=GPa)
#
#
# Indices 1 2 3 4 5 6 
#
# 1 75.1965 45.4020 20.3259 0.0000 0.0000 0.0000
# 2 45.4020 126.4574 45.6198 0.0000 0.0000 0.0000
# 3 20.3259 45.6198 80.5323 0.0000 0.0000 0.0000
# 4 0.0000 0.0000 0.0000 16.9492 0.0000 0.0000
# 5 0.0000 0.0000 0.0000 0.0000 46.7813 0.0000
# 6 0.0000 0.0000 0.0000 0.0000 0.0000 35.8474
#
#
#
# Elastic Compliance Matrix: (Units=1/GPa)
#
#
# Indices 1 2 3 4 5 6 
#
# 1 0.017050 -0.005742 -0.001050 0.000000 0.000000 0.000000
# 2 -0.005742 0.011873 -0.005276 0.000000 0.000000 0.000000
# 3 -0.001050 -0.005276 0.015671 0.000000 0.000000 0.000000
# 4 0.000000 0.000000 0.000000 0.059000 0.000000 0.000000
# 5 0.000000 0.000000 0.000000 0.000000 0.021376 0.000000
# 6 0.000000 0.000000 0.000000 0.000000 0.000000 0.027896
#
#
# Mechanical properties :
#
#
# Convention : Reuss Voigt Hill
#
# Bulk Modulus (GPa) = 48.88603 56.09797 52.49200
# Shear Modulus (GPa) = 27.20014 31.30482 29.25248
#
# Velocity S-wave (km/s) = 3.44477 3.69556 3.57237
# Velocity P-wave (km/s) = 6.09501 6.53323 6.31792
#
# Compressibility (1/GPa) = 0.02045574
#
# Stress axis : x y z
#
# Youngs Moduli (GPa) = 58.65272 84.22478 63.81028
#
# Poissons Ratio (x) = 0.48365 0.06702
# Poissons Ratio (y) = 0.33681 0.33669
# Poissons Ratio (z) = 0.06160 0.44441
#
# Static dielectric constant tensor:
#      x y z
#    x 2.018600 0.000000 0.000000 
#    y 0.000000 1.882840 0.000000 
#    z 0.000000 0.000000 1.925210 
# 
# From -- ./inp_files/17836.got.cif
#   From: 2010.05.17/outbox.cif.g08.bks.cpg/sg20_9_cif.got.tgz:17836.got - 2010.06.03 22:52:26.
