data_PCOD9321049
_publ_section_title
;
Structure prediction by ZEFSAII (Michael W. Deem and Ramdas Pophale) SiO2 
 PCOD9321049
Probable space group: C 2 2 21
;
_chemical_formula_sum "Si O2"
_cell_formula_units_Z 44
_cell_length_a 7.906664
_cell_length_b 11.063876
_cell_length_c 18.538194
_cell_angle_alpha 90.000000
_cell_angle_beta 90.000000
_cell_angle_gamma 90.000000
_cell_volume 1621.690624
_symmetry_space_group_name_H-M "C 2 2 21"
_symmetry_group_IT_number 20
_symmetry_cell_setting 'orthorhombic'
loop_
_space_group_symop_operation_xyz
x,y,z
-x,-y,1/2+z
x,-y,-z
-x,y,1/2-z
1/2+x,1/2+y,z
1/2-x,1/2-y,1/2+z
1/2+x,1/2-y,-z
1/2-x,1/2+y,1/2-z
loop_
_atom_site_type_symbol
_atom_site_label
_atom_site_fract_x
_atom_site_fract_y
_atom_site_fract_z
Si Si1 0.003787 0.573751 0.628154
Si Si2 0.327152 0.442108 0.885738
Si Si3 0.729640 0.248779 0.714678
Si Si4 0.807453 0.274356 0.485091
Si Si5 0.597498 0.500000 0.000000
Si Si6 0.908515 0.299178 0.859964
O O1 0.121492 0.635544 0.687761
O O2 0.962668 0.665586 0.561373
O O3 0.322714 0.633686 0.505835
O O4 0.086977 0.441150 0.618191
O O5 0.375290 0.357995 0.820028
O O6 0.187978 0.532673 0.853876
O O7 0.233386 0.363912 0.949255
O O8 0.487593 0.489424 0.927301
O O9 0.772937 0.274188 0.797044
O O10 0.912509 0.257240 0.673900
O O11 0.649324 0.271077 0.430450
#
# Coordination Sequence:
#
# PCOD9321049 Si02
#       6
#     8   8   8   8   4   8
#     4  11  24  47  75 103 146 205 249 315 385 457
#     4  11  25  44  71 108 156 195 258 321 387 459
#     4  10  24  49  75 106 158 202 259 316 385 472
#     4  12  27  43  77 110 151 198 257 317 396 468
#     4  12  26  44  68 112 152 200 248 326 382 458
#     4  10  27  48  72 114 152 208 254 321 389 469
#
# _framework density 27.132176999999999
#
# number of rings (size 3 to 8) (size 9 to 14) (size 15 to 20)
#    0.000    1.091    3.636    0.000    7.636    8.000 
#    0.000    3.636    0.000    0.000    0.000    0.000 
#    0.000    0.000    0.000    0.000    0.000    0.000 
#
# Total GULP energy -123172.423420 kJ/mol
# GULP energy per Si atom -5598.746519 kJ/mol
# Density = 2.707042 g / cm^3
# Si number density = 27.132177 Si / 1000 Ang^3
#
#
#
# Elastic Constant Matrix: (Units=GPa)
#
#
# Indices 1 2 3 4 5 6 
#
# 1 109.3931 50.7812 39.6303 0.0000 0.0000 0.0000
# 2 50.7812 180.1890 40.3261 0.0000 0.0000 0.0000
# 3 39.6303 40.3261 136.0493 0.0000 0.0000 0.0000
# 4 0.0000 0.0000 0.0000 33.2673 0.0000 0.0000
# 5 0.0000 0.0000 0.0000 0.0000 55.7158 0.0000
# 6 0.0000 0.0000 0.0000 0.0000 0.0000 38.9913
#
#
#
# Elastic Compliance Matrix: (Units=1/GPa)
#
#
# Indices 1 2 3 4 5 6 
#
# 1 0.011262 -0.002613 -0.002506 0.000000 0.000000 0.000000
# 2 -0.002613 0.006550 -0.001180 0.000000 0.000000 0.000000
# 3 -0.002506 -0.001180 0.008430 0.000000 0.000000 0.000000
# 4 0.000000 0.000000 0.000000 0.030060 0.000000 0.000000
# 5 0.000000 0.000000 0.000000 0.000000 0.017948 0.000000
# 6 0.000000 0.000000 0.000000 0.000000 0.000000 0.025647
#
#
# Mechanical properties :
#
#
# Convention : Reuss Voigt Hill
#
# Bulk Modulus (GPa) = 73.29438 76.34516 74.81977
# Shear Modulus (GPa) = 42.71886 45.25445 43.98665
#
# Velocity S-wave (km/s) = 3.97227 4.08845 4.03078
# Velocity P-wave (km/s) = 6.93621 7.10539 7.02131
#
# Compressibility (1/GPa) = 0.01364361
#
# Stress axis : x y z
#
# Youngs Moduli (GPa) = 88.79224 152.66415 118.62170
#
# Poissons Ratio (x) = 0.39893 0.29728
# Poissons Ratio (y) = 0.23202 0.14002
# Poissons Ratio (z) = 0.22252 0.18020
#
# Static dielectric constant tensor:
#      x y z
#    x 2.201420 0.000000 0.000000 
#    y 0.000000 2.176360 0.000000 
#    z 0.000000 0.000000 2.087580 
# 
# From -- ./inp_files/24161.got.cif
#   From: 2010.05.17/outbox.cif.g08.bks.cpg/sg20_13_cif.got.tgz:24161.got - 2010.06.03 22:52:26.
