data_PCOD9321267
_publ_section_title
;
Structure prediction by ZEFSAII (Michael W. Deem and Ramdas Pophale) SiO2 
 PCOD9321267
Probable space group: C 2 2 21
;
_chemical_formula_sum "Si O2"
_cell_formula_units_Z 48
_cell_length_a 11.187053
_cell_length_b 20.353106
_cell_length_c 9.411376
_cell_angle_alpha 90.000000
_cell_angle_beta 90.000000
_cell_angle_gamma 90.000000
_cell_volume 2142.888206
_symmetry_space_group_name_H-M "C 2 2 21"
_symmetry_group_IT_number 20
_symmetry_cell_setting 'orthorhombic'
loop_
_space_group_symop_operation_xyz
x,y,z
-x,-y,1/2+z
x,-y,-z
-x,y,1/2-z
1/2+x,1/2+y,z
1/2-x,1/2-y,1/2+z
1/2+x,1/2-y,-z
1/2-x,1/2+y,1/2-z
loop_
_atom_site_type_symbol
_atom_site_label
_atom_site_fract_x
_atom_site_fract_y
_atom_site_fract_z
Si Si1 0.236117 0.156682 0.276571
Si Si2 0.296355 0.111803 0.984368
Si Si3 0.733078 0.805037 0.225415
Si Si4 0.550810 0.680942 0.522323
Si Si5 0.080633 0.054889 0.888056
Si Si6 0.952889 0.331294 0.504746
O O1 0.229450 0.227687 0.203911
O O2 0.123768 0.158327 0.382440
O O3 0.357068 0.155990 0.370147
O O4 0.243620 0.108115 0.143758
O O5 0.276006 0.178163 0.890412
O O6 0.225945 0.059371 0.885571
O O7 0.438853 0.117054 0.005247
O O8 0.622229 0.835296 0.140654
O O9 0.855599 0.826191 0.151866
O O10 0.452191 0.626609 0.550755
O O11 0.502240 0.755759 0.517572
O O12 0.000000 0.044184 0.750000
O O13 0.045704 0.000000 0.000000
#
# Coordination Sequence:
#
# PCOD9321267 Si02
#       6
#     8   8   8   8   8   8
#     4  11  22  36  60 103 141 178 213 271 339 423
#     4  12  23  39  65  94 133 176 225 275 344 398
#     4  11  20  38  58  99 140 182 214 269 344 414
#     4  11  23  39  65  94 140 181 222 273 343 402
#     4  12  29  49  70  92 131 182 236 290 332 401
#     4  11  23  37  65 102 147 177 215 273 343 424
#
# _framework density 22.399675999999999
#
# number of rings (size 3 to 8) (size 9 to 14) (size 15 to 20)
#    0.000    0.667    5.000    4.000    2.333    1.333 
#    0.000    0.000    0.000    8.000    0.000    0.000 
#    0.000    0.000    0.000    0.000    0.000    0.000 
#
# Total GULP energy -134046.779257 kJ/mol
# GULP energy per Si atom -5585.282469 kJ/mol
# Density = 2.234869 g / cm^3
# Si number density = 22.399676 Si / 1000 Ang^3
#
#
#
# Elastic Constant Matrix: (Units=GPa)
#
#
# Indices 1 2 3 4 5 6 
#
# 1 105.6910 2.4845 66.3182 0.0000 0.0000 0.0000
# 2 2.4845 33.5449 19.3524 0.0000 0.0000 0.0000
# 3 66.3182 19.3524 136.4474 0.0000 0.0000 0.0000
# 4 0.0000 0.0000 0.0000 16.1698 0.0000 0.0000
# 5 0.0000 0.0000 0.0000 0.0000 34.2936 0.0000
# 6 0.0000 0.0000 0.0000 0.0000 0.0000 9.4518
#
#
#
# Elastic Compliance Matrix: (Units=1/GPa)
#
#
# Indices 1 2 3 4 5 6 
#
# 1 0.013908 0.003125 -0.007203 0.000000 0.000000 0.000000
# 2 0.003125 0.033170 -0.006224 0.000000 0.000000 0.000000
# 3 -0.007203 -0.006224 0.011712 0.000000 0.000000 0.000000
# 4 0.000000 0.000000 0.000000 0.061844 0.000000 0.000000
# 5 0.000000 0.000000 0.000000 0.000000 0.029160 0.000000
# 6 0.000000 0.000000 0.000000 0.000000 0.000000 0.105800
#
#
# Mechanical properties :
#
#
# Convention : Reuss Voigt Hill
#
# Bulk Modulus (GPa) = 26.18642 50.22150 38.20396
# Shear Modulus (GPa) = 17.30556 24.48492 20.89524
#
# Velocity S-wave (km/s) = 2.78255 3.30978 3.05755
# Velocity P-wave (km/s) = 4.69461 6.08897 5.43668
#
# Compressibility (1/GPa) = 0.03818773
#
# Stress axis : x y z
#
# Youngs Moduli (GPa) = 71.90264 30.14794 85.37971
#
# Poissons Ratio (x) = -0.09422 0.61498
# Poissons Ratio (y) = -0.22472 0.53136
# Poissons Ratio (z) = 0.51791 0.18763
#
# Static dielectric constant tensor:
#      x y z
#    x 1.992040 0.000000 0.000000 
#    y 0.000000 1.793450 0.000000 
#    z 0.000000 0.000000 1.846460 
# 
# From -- ./inp_files/7380.got.cif
#   From: 2010.05.17/outbox.cif.g08.bks.cpg/sg20_4_cif.got.tgz:7380.got - 2010.06.03 22:52:26.
