data_PCOD9321770
_publ_section_title
;
Structure prediction by ZEFSAII (Michael W. Deem and Ramdas Pophale) SiO2 
 PCOD9321770
Probable space group: C 2 2 21
;
_chemical_formula_sum "Si O2"
_cell_formula_units_Z 64
_cell_length_a 9.135194
_cell_length_b 13.091683
_cell_length_c 22.757549
_cell_angle_alpha 90.000000
_cell_angle_beta 90.000000
_cell_angle_gamma 90.000000
_cell_volume 2721.690529
_symmetry_space_group_name_H-M "C 2 2 21"
_symmetry_group_IT_number 20
_symmetry_cell_setting 'orthorhombic'
loop_
_space_group_symop_operation_xyz
x,y,z
-x,-y,1/2+z
x,-y,-z
-x,y,1/2-z
1/2+x,1/2+y,z
1/2-x,1/2-y,1/2+z
1/2+x,1/2-y,-z
1/2-x,1/2+y,1/2-z
loop_
_atom_site_type_symbol
_atom_site_label
_atom_site_fract_x
_atom_site_fract_y
_atom_site_fract_z
Si Si1 0.671630 0.774479 0.042721
Si Si2 0.569884 0.365786 0.604426
Si Si3 0.346083 0.939680 0.728232
Si Si4 0.706196 0.966765 0.106126
Si Si5 0.346810 0.510476 0.668817
Si Si6 0.874570 0.508295 0.069383
Si Si7 0.169703 0.766254 0.157740
Si Si8 0.963471 0.714939 0.054321
O O1 0.561772 0.686903 0.066775
O O2 0.735718 0.849224 0.092384
O O3 0.827296 0.748223 0.013850
O O4 0.578484 0.828170 0.992310
O O5 0.685446 0.448916 0.576999
O O6 0.483848 0.441903 0.649261
O O7 0.670631 0.275597 0.633441
O O8 0.500000 0.982164 0.750000
O O9 0.370834 0.828313 0.700002
O O10 0.290410 0.007411 0.674328
O O11 0.237684 0.945177 0.782610
O O12 0.537722 0.974100 0.085219
O O13 0.250757 0.535308 0.610132
O O14 0.354811 0.627192 0.691383
O O15 0.881742 0.626237 0.089011
O O16 0.842917 0.500000 0.000000
O O17 0.061063 0.773673 0.101227
#
# Coordination Sequence:
#
# PCOD9321770 Si02
#       8
#     8   8   8   8   8   8   8   8
#     4  12  26  43  74 106 148 198 244 304 376 435
#     4  11  25  45  72 107 146 187 248 302 362 440
#     4  11  24  48  74 102 141 194 248 302 373 445
#     4  11  24  46  70 102 145 189 242 303 365 434
#     4  12  26  48  75 109 143 194 251 303 375 442
#     4  12  23  44  72 100 144 188 241 300 363 437
#     4  11  26  48  71 106 151 186 248 315 366 441
#     4  12  24  45  69 105 151 195 241 308 371 444
#
# _framework density 23.514796
#
# number of rings (size 3 to 8) (size 9 to 14) (size 15 to 20)
#    0.000    0.500    6.250    2.250    1.750    3.000 
#    4.500    1.875    0.000    0.000    0.000    0.000 
#    0.000    0.000    0.000    0.000    0.000    0.000 
#
# Total GULP energy -178273.735220 kJ/mol
# GULP energy per Si atom -5571.054226 kJ/mol
# Density = 2.346128 g / cm^3
# Si number density = 23.514796 Si / 1000 Ang^3
#
#
#
# Elastic Constant Matrix: (Units=GPa)
#
#
# Indices 1 2 3 4 5 6 
#
# 1 142.4854 21.0278 32.3085 0.0000 0.0000 0.0000
# 2 21.0278 68.8410 3.1325 0.0000 0.0000 0.0000
# 3 32.3085 3.1325 85.2917 0.0000 0.0000 0.0000
# 4 0.0000 0.0000 0.0000 17.8638 0.0000 0.0000
# 5 0.0000 0.0000 0.0000 0.0000 36.9721 0.0000
# 6 0.0000 0.0000 0.0000 0.0000 0.0000 18.8422
#
#
#
# Elastic Compliance Matrix: (Units=1/GPa)
#
#
# Indices 1 2 3 4 5 6 
#
# 1 0.008031 -0.002319 -0.002957 0.000000 0.000000 0.000000
# 2 -0.002319 0.015220 0.000319 0.000000 0.000000 0.000000
# 3 -0.002957 0.000319 0.012833 0.000000 0.000000 0.000000
# 4 0.000000 0.000000 0.000000 0.055979 0.000000 0.000000
# 5 0.000000 0.000000 0.000000 0.000000 0.027047 0.000000
# 6 0.000000 0.000000 0.000000 0.000000 0.000000 0.053072
#
#
# Mechanical properties :
#
#
# Convention : Reuss Voigt Hill
#
# Bulk Modulus (GPa) = 38.20984 45.50616 41.85800
# Shear Modulus (GPa) = 26.20286 30.74557 28.47422
#
# Velocity S-wave (km/s) = 3.34176 3.61986 3.48358
# Velocity P-wave (km/s) = 5.58340 6.07168 5.83265
#
# Compressibility (1/GPa) = 0.02617127
#
# Stress axis : x y z
#
# Youngs Moduli (GPa) = 124.51882 65.70343 77.92506
#
# Poissons Ratio (x) = 0.15234 0.23042
# Poissons Ratio (y) = 0.28870 -0.02488
# Poissons Ratio (z) = 0.36820 -0.02098
#
# Static dielectric constant tensor:
#      x y z
#    x 2.043710 0.000000 0.000000 
#    y 0.000000 2.279150 0.000000 
#    z 0.000000 0.000000 1.887580 
# 
# From -- ./inp_files/28904.got.cif
#   From: 2010.05.17/outbox.cif.g08.bks.cpg/sg20_15_cif.got.tgz:28904.got - 2010.06.03 22:52:26.
