data_PCOD9321281
_publ_section_title
;
Structure prediction by ZEFSAII (Michael W. Deem and Ramdas Pophale) SiO2 
 PCOD9321281
Probable space group: C 2 2 21
;
_chemical_formula_sum "Si O2"
_cell_formula_units_Z 40
_cell_length_a 8.051357
_cell_length_b 20.739730
_cell_length_c 11.302530
_cell_angle_alpha 90.000000
_cell_angle_beta 90.000000
_cell_angle_gamma 90.000000
_cell_volume 1887.330031
_symmetry_space_group_name_H-M "C 2 2 21"
_symmetry_group_IT_number 20
_symmetry_cell_setting 'orthorhombic'
loop_
_space_group_symop_operation_xyz
x,y,z
-x,-y,1/2+z
x,-y,-z
-x,y,1/2-z
1/2+x,1/2+y,z
1/2-x,1/2-y,1/2+z
1/2+x,1/2-y,-z
1/2-x,1/2+y,1/2-z
loop_
_atom_site_type_symbol
_atom_site_label
_atom_site_fract_x
_atom_site_fract_y
_atom_site_fract_z
Si Si1 0.804963 0.938529 0.773607
Si Si2 0.365808 0.376853 0.459245
Si Si3 0.409382 0.028602 0.876088
Si Si4 0.314566 0.303218 0.708218
Si Si5 0.500000 0.287987 0.250000
Si Si6 0.104303 0.000000 0.500000
O O1 0.759564 0.864240 0.790180
O O2 0.787322 0.983682 0.886045
O O3 0.000000 0.938681 0.750000
O O4 0.712190 0.970494 0.665069
O O5 0.196669 0.408425 0.410269
O O6 0.336929 0.335553 0.578505
O O7 0.446824 0.331748 0.360374
O O8 0.490884 0.437067 0.478998
O O9 0.500000 0.041726 0.750000
O O10 0.479038 0.000000 0.000000
O O11 0.500000 0.281228 0.750000
O O12 0.164054 0.253279 0.715216
#
# Coordination Sequence:
#
# PCOD9321281 Si02
#       6
#     8   8   8   8   4   4
#     4  11  20  40  72 102 144 188 243 308 383 455
#     4  12  23  49  73 107 148 189 257 322 373 463
#     4  12  25  44  70 116 154 188 248 326 391 462
#     4  11  25  49  76 103 151 209 250 309 376 454
#     4  12  32  46  74 110 146 206 264 300 374 468
#     4  12  20  42  80 108 132 188 248 312 402 442
#
# _framework density 21.193961999999999
#
# number of rings (size 3 to 8) (size 9 to 14) (size 15 to 20)
#    0.000    0.400    9.000    1.200    5.600    0.800 
#    0.000    0.000    0.000    0.000    0.000    0.000 
#    0.000    0.000    0.000    0.000    0.000    0.000 
#
# Total GULP energy -111635.001930 kJ/mol
# GULP energy per Si atom -5581.750097 kJ/mol
# Density = 2.114572 g / cm^3
# Si number density = 21.193962 Si / 1000 Ang^3
#
#
#
# Elastic Constant Matrix: (Units=GPa)
#
#
# Indices 1 2 3 4 5 6 
#
# 1 121.9962 76.1694 77.9988 0.0000 0.0000 0.0000
# 2 76.1694 119.4252 76.6938 0.0000 0.0000 0.0000
# 3 77.9988 76.6938 180.8793 0.0000 0.0000 0.0000
# 4 0.0000 0.0000 0.0000 39.0398 0.0000 0.0000
# 5 0.0000 0.0000 0.0000 0.0000 31.7609 0.0000
# 6 0.0000 0.0000 0.0000 0.0000 0.0000 -0.1100
#
#
#
# Elastic Compliance Matrix: (Units=1/GPa)
#
#
# Indices 1 2 3 4 5 6 
#
# 1 0.014928 -0.007403 -0.003298 0.000000 0.000000 0.000000
# 2 -0.007403 0.015178 -0.003243 0.000000 0.000000 0.000000
# 3 -0.003298 -0.003243 0.008326 0.000000 0.000000 0.000000
# 4 0.000000 0.000000 0.000000 0.025615 0.000000 0.000000
# 5 0.000000 0.000000 0.000000 0.000000 0.031485 0.000000
# 6 0.000000 0.000000 0.000000 0.000000 0.000000 -9.088709
#
#
# Mechanical properties :
#
#
# Convention : Reuss Voigt Hill
#
# Bulk Modulus (GPa) = 94.85117 98.22496 96.53807
# Shear Modulus (GPa) = -0.55793 26.90071 13.17139
#
# Velocity S-wave (km/s) = -0.51363 3.56654 2.49563
# Velocity P-wave (km/s) = 6.67078 7.96283 7.34527
#
# Compressibility (1/GPa) = 0.01054283
#
# Stress axis : x y z
#
# Youngs Moduli (GPa) = 66.98924 65.88624 120.10585
#
# Poissons Ratio (x) = 0.48774 0.39615
# Poissons Ratio (y) = 0.49591 0.38953
# Poissons Ratio (z) = 0.22095 0.21368
#
# Static dielectric constant tensor:
#      x y z
#    x 1.809270 0.000000 0.000000 
#    y 0.000000 1.787960 0.000000 
#    z 0.000000 0.000000 1.826930 
# 
# From -- ./inp_files/12777.got.cif
#   From: 2010.05.17/outbox.cif.g08.bks.cpg/sg20_7_cif.got.tgz:12777.got - 2010.06.03 22:52:26.
