data_PCOD9321963
_publ_section_title
;
Structure prediction by ZEFSAII (Michael W. Deem and Ramdas Pophale) SiO2 
 PCOD9321963
Probable space group: C 2 2 21
;
_chemical_formula_sum "Si O2"
_cell_formula_units_Z 40
_cell_length_a 5.482391
_cell_length_b 24.572951
_cell_length_c 11.522260
_cell_angle_alpha 90.000000
_cell_angle_beta 90.000000
_cell_angle_gamma 90.000000
_cell_volume 1552.261877
_symmetry_space_group_name_H-M "C 2 2 21"
_symmetry_group_IT_number 20
_symmetry_cell_setting 'orthorhombic'
loop_
_space_group_symop_operation_xyz
x,y,z
-x,-y,1/2+z
x,-y,-z
-x,y,1/2-z
1/2+x,1/2+y,z
1/2-x,1/2-y,1/2+z
1/2+x,1/2-y,-z
1/2-x,1/2+y,1/2-z
loop_
_atom_site_type_symbol
_atom_site_label
_atom_site_fract_x
_atom_site_fract_y
_atom_site_fract_z
Si Si1 0.855019 0.738867 0.631369
Si Si2 0.983039 0.830428 0.030637
Si Si3 0.063458 0.500000 0.000000
Si Si4 0.363161 0.411110 0.860572
Si Si5 0.500000 0.177998 0.250000
Si Si6 0.500000 0.386862 0.250000
Si Si7 0.000000 0.548622 0.750000
O O1 0.790324 0.680152 0.579233
O O2 0.635336 0.779845 0.666102
O O3 0.000000 0.733987 0.750000
O O4 0.986803 0.774343 0.535065
O O5 0.103852 0.847023 0.150017
O O6 0.045956 0.877908 0.942161
O O7 0.226094 0.548076 0.055315
O O8 0.938911 0.480457 0.123022
O O9 0.500000 0.436154 0.750000
O O10 0.188369 0.362962 0.812490
O O11 0.739562 0.422532 0.279456
#
# Coordination Sequence:
#
# PCOD9321963 Si02
#       7
#     8   8   4   8   4   4   4
#     4  12  27  46  73 117 153 213 271 329 416 501
#     4  12  26  47  77 112 164 209 270 342 408 505
#     4  12  30  52  88 126 162 228 284 368 432 524
#     4  12  26  51  79 115 160 215 279 341 425 500
#     4  12  22  48  76 110 152 208 268 332 408 512
#     4  12  31  52  82 117 166 217 272 355 424 498
#     4  12  31  56  84 125 164 219 290 353 440 510
#
# _framework density 25.768844000000001
#
# number of rings (size 3 to 8) (size 9 to 14) (size 15 to 20)
#    0.000    0.000    6.000    2.400    8.400    2.400 
#    0.000    0.000    0.000    0.000    0.000    0.000 
#    0.000    0.000    0.000    0.000    0.000    0.000 
#
# Total GULP energy -111576.941241 kJ/mol
# GULP energy per Si atom -5578.847062 kJ/mol
# Density = 2.571019 g / cm^3
# Si number density = 25.768844 Si / 1000 Ang^3
#
#
#
# Elastic Constant Matrix: (Units=GPa)
#
#
# Indices 1 2 3 4 5 6 
#
# 1 66.2263 14.1583 31.0577 0.0000 0.0000 0.0000
# 2 14.1583 78.5043 54.5912 0.0000 0.0000 0.0000
# 3 31.0577 54.5912 221.2708 0.0000 0.0000 0.0000
# 4 0.0000 0.0000 0.0000 95.8178 0.0000 0.0000
# 5 0.0000 0.0000 0.0000 0.0000 46.8964 0.0000
# 6 0.0000 0.0000 0.0000 0.0000 0.0000 22.7725
#
#
#
# Elastic Compliance Matrix: (Units=1/GPa)
#
#
# Indices 1 2 3 4 5 6 
#
# 1 0.016335 -0.001632 -0.001890 0.000000 0.000000 0.000000
# 2 -0.001632 0.015539 -0.003605 0.000000 0.000000 0.000000
# 3 -0.001890 -0.003605 0.005674 0.000000 0.000000 0.000000
# 4 0.000000 0.000000 0.000000 0.010436 0.000000 0.000000
# 5 0.000000 0.000000 0.000000 0.000000 0.021324 0.000000
# 6 0.000000 0.000000 0.000000 0.000000 0.000000 0.043913
#
#
# Mechanical properties :
#
#
# Convention : Reuss Voigt Hill
#
# Bulk Modulus (GPa) = 42.92762 62.84618 52.88690
# Shear Modulus (GPa) = 36.97159 50.84361 43.90760
#
# Velocity S-wave (km/s) = 3.79191 4.44674 4.13231
# Velocity P-wave (km/s) = 5.98885 7.12783 6.58302
#
# Compressibility (1/GPa) = 0.02329502
#
# Stress axis : x y z
#
# Youngs Moduli (GPa) = 61.21819 64.35371 176.24183
#
# Poissons Ratio (x) = 0.10500 0.33314
# Poissons Ratio (y) = 0.09988 0.63531
# Poissons Ratio (z) = 0.11572 0.23198
#
# Static dielectric constant tensor:
#      x y z
#    x 2.205330 0.000000 0.000000 
#    y 0.000000 2.027410 0.000000 
#    z 0.000000 0.000000 2.145620 
# 
# From -- ./inp_files/12138.got.cif
#   From: 2010.05.17/outbox.cif.g08.bks.cpg/sg20_7_cif.got.tgz:12138.got - 2010.06.03 22:52:26.
