data_PCOD9321670
_publ_section_title
;
Structure prediction by ZEFSAII (Michael W. Deem and Ramdas Pophale) SiO2 
 PCOD9321670
Probable space group: C 2 2 21
;
_chemical_formula_sum "Si O2"
_cell_formula_units_Z 48
_cell_length_a 17.602102
_cell_length_b 7.619499
_cell_length_c 16.898585
_cell_angle_alpha 90.000000
_cell_angle_beta 90.000000
_cell_angle_gamma 90.000000
_cell_volume 2266.424677
_symmetry_space_group_name_H-M "C 2 2 21"
_symmetry_group_IT_number 20
_symmetry_cell_setting 'orthorhombic'
loop_
_space_group_symop_operation_xyz
x,y,z
-x,-y,1/2+z
x,-y,-z
-x,y,1/2-z
1/2+x,1/2+y,z
1/2-x,1/2-y,1/2+z
1/2+x,1/2-y,-z
1/2-x,1/2+y,1/2-z
loop_
_atom_site_type_symbol
_atom_site_label
_atom_site_fract_x
_atom_site_fract_y
_atom_site_fract_z
Si Si1 0.752394 0.391172 0.647400
Si Si2 0.609673 0.607882 0.124263
Si Si3 0.777090 0.294479 0.821567
Si Si4 0.609631 0.228156 0.049596
Si Si5 0.121849 0.602791 0.630495
Si Si6 0.018712 0.500000 0.500000
Si Si7 0.500000 0.219763 0.750000
O O1 0.792462 0.332257 0.729333
O O2 0.723037 0.589709 0.657105
O O3 0.814272 0.367698 0.578548
O O4 0.683515 0.256366 0.635855
O O5 0.691275 0.638504 0.164183
O O6 0.602119 0.406795 0.098498
O O7 0.543676 0.667103 0.183506
O O8 0.610916 0.719436 0.042963
O O9 0.833880 0.417747 0.870427
O O10 0.536433 0.105896 0.058390
O O11 0.071774 0.622677 0.552316
O O12 0.065398 0.612092 0.705131
#
# Coordination Sequence:
#
# PCOD9321670 Si02
#       7
#     8   8   8   8   8   4   4
#     4  12  24  45  77 106 146 194 252 306 371 447
#     4  11  23  47  78 107 145 193 253 302 374 451
#     4  12  24  46  73 110 142 195 248 302 370 448
#     4  11  25  46  75 105 146 203 243 301 381 452
#     4  12  28  47  72 110 151 191 249 309 370 447
#     4  12  28  50  66 108 156 196 242 310 386 436
#     4  12  24  50  76 108 154 192 244 326 370 444
#
# _framework density 21.178732
#
# number of rings (size 3 to 8) (size 9 to 14) (size 15 to 20)
#    0.000    0.333    6.667    1.000    4.667    1.333 
#    0.000    0.833    0.000    0.000    0.000    0.000 
#    0.000    0.000    0.000    0.000    0.000    0.000 
#
# Total GULP energy -134327.501525 kJ/mol
# GULP energy per Si atom -5596.979230 kJ/mol
# Density = 2.113053 g / cm^3
# Si number density = 21.178732 Si / 1000 Ang^3
#
#
#
# Elastic Constant Matrix: (Units=GPa)
#
#
# Indices 1 2 3 4 5 6 
#
# 1 115.3323 49.2407 41.1958 0.0000 0.0000 0.0000
# 2 49.2407 155.7978 34.2099 0.0000 0.0000 0.0000
# 3 41.1958 34.2099 85.9361 0.0000 0.0000 0.0000
# 4 0.0000 0.0000 0.0000 28.2053 0.0000 0.0000
# 5 0.0000 0.0000 0.0000 0.0000 51.1949 0.0000
# 6 0.0000 0.0000 0.0000 0.0000 0.0000 23.9359
#
#
#
# Elastic Compliance Matrix: (Units=1/GPa)
#
#
# Indices 1 2 3 4 5 6 
#
# 1 0.011364 -0.002625 -0.004403 0.000000 0.000000 0.000000
# 2 -0.002625 0.007640 -0.001783 0.000000 0.000000 0.000000
# 3 -0.004403 -0.001783 0.014457 0.000000 0.000000 0.000000
# 4 0.000000 0.000000 0.000000 0.035454 0.000000 0.000000
# 5 0.000000 0.000000 0.000000 0.000000 0.019533 0.000000
# 6 0.000000 0.000000 0.000000 0.000000 0.000000 0.041778
#
#
# Mechanical properties :
#
#
# Convention : Reuss Voigt Hill
#
# Bulk Modulus (GPa) = 63.13347 67.37322 65.25335
# Shear Modulus (GPa) = 32.65264 36.16188 34.40726
#
# Velocity S-wave (km/s) = 3.93079 4.13663 4.03502
# Velocity P-wave (km/s) = 7.10465 7.39570 7.25164
#
# Compressibility (1/GPa) = 0.01583946
#
# Stress axis : x y z
#
# Youngs Moduli (GPa) = 87.99809 130.89560 69.17132
#
# Poissons Ratio (x) = 0.34359 0.30454
# Poissons Ratio (y) = 0.23098 0.12333
# Poissons Ratio (z) = 0.38743 0.23338
#
# Static dielectric constant tensor:
#      x y z
#    x 1.728850 0.000000 0.000000 
#    y 0.000000 1.762920 0.000000 
#    z 0.000000 0.000000 1.810760 
# 
# From -- ./inp_files/24852.got.cif
#   From: 2010.05.17/outbox.cif.g08.bks.cpg/sg20_13_cif.got.tgz:24852.got - 2010.06.03 22:52:26.
