data_PCOD9321835
_publ_section_title
;
Structure prediction by ZEFSAII (Michael W. Deem and Ramdas Pophale) SiO2 
 PCOD9321835
Probable space group: C 2 2 21
;
_chemical_formula_sum "Si O2"
_cell_formula_units_Z 60
_cell_length_a 16.727725
_cell_length_b 9.247063
_cell_length_c 16.971972
_cell_angle_alpha 90.000000
_cell_angle_beta 90.000000
_cell_angle_gamma 90.000000
_cell_volume 2625.264121
_symmetry_space_group_name_H-M "C 2 2 21"
_symmetry_group_IT_number 20
_symmetry_cell_setting 'orthorhombic'
loop_
_space_group_symop_operation_xyz
x,y,z
-x,-y,1/2+z
x,-y,-z
-x,y,1/2-z
1/2+x,1/2+y,z
1/2-x,1/2-y,1/2+z
1/2+x,1/2-y,-z
1/2-x,1/2+y,1/2-z
loop_
_atom_site_type_symbol
_atom_site_label
_atom_site_fract_x
_atom_site_fract_y
_atom_site_fract_z
Si Si1 0.072391 0.032105 0.695941
Si Si2 0.917006 0.517186 0.769438
Si Si3 0.205290 0.219176 0.609236
Si Si4 0.191870 0.787826 0.745940
Si Si5 0.044707 0.909960 0.074023
Si Si6 0.801278 0.500000 0.500000
Si Si7 0.652600 0.809160 0.858414
Si Si8 0.935630 0.625243 0.059800
O O1 0.120746 0.901396 0.733924
O O2 0.000000 0.090863 0.750000
O O3 0.139168 0.145059 0.666849
O O4 0.020470 0.990890 0.618903
O O5 0.844467 0.628285 0.764168
O O6 0.901388 0.395171 0.704013
O O7 0.929016 0.444712 0.853722
O O8 0.000000 0.596164 0.750000
O O9 0.266242 0.297422 0.668532
O O10 0.154845 0.316517 0.548935
O O11 0.249239 0.098288 0.558522
O O12 0.259511 0.809679 0.679575
O O13 0.118010 0.849934 0.125700
O O14 0.994237 0.763166 0.055589
O O15 0.073756 0.000000 0.000000
O O16 0.848286 0.605124 0.440975
O O17 0.958162 0.500000 0.000000
#
# Coordination Sequence:
#
# PCOD9321835 Si02
#       8
#     8   8   8   8   8   4   8   8
#     4  11  25  45  75 107 148 193 251 312 379 457
#     4  12  25  47  75 109 147 201 253 310 378 464
#     4  11  25  46  74 107 153 201 249 317 387 457
#     4  12  24  46  73 113 144 195 256 307 376 464
#     4  11  28  49  76 109 153 198 256 318 391 454
#     4  12  26  48  74 110 162 200 256 322 400 446
#     4  12  26  49  78 105 155 208 257 312 387 464
#     4  11  27  45  79 109 151 199 259 316 387 459
#
# _framework density 22.854844
#
# number of rings (size 3 to 8) (size 9 to 14) (size 15 to 20)
#    0.000    0.533    5.333    1.200   10.267    1.067 
#    2.400    0.000    0.000    0.000    0.000    0.000 
#    0.000    0.000    0.000    0.000    0.000    0.000 
#
# Total GULP energy -167829.864141 kJ/mol
# GULP energy per Si atom -5594.328805 kJ/mol
# Density = 2.280283 g / cm^3
# Si number density = 22.854844 Si / 1000 Ang^3
#
#
#
# Elastic Constant Matrix: (Units=GPa)
#
#
# Indices 1 2 3 4 5 6 
#
# 1 100.6705 27.4280 38.6198 0.0000 0.0000 0.0000
# 2 27.4280 60.9375 31.8493 0.0000 0.0000 0.0000
# 3 38.6198 31.8493 99.1713 0.0000 0.0000 0.0000
# 4 0.0000 0.0000 0.0000 49.0854 0.0000 0.0000
# 5 0.0000 0.0000 0.0000 0.0000 -21.9641 0.0000
# 6 0.0000 0.0000 0.0000 0.0000 0.0000 35.4314
#
#
#
# Elastic Compliance Matrix: (Units=1/GPa)
#
#
# Indices 1 2 3 4 5 6 
#
# 1 0.012318 -0.003650 -0.003625 0.000000 0.000000 0.000000
# 2 -0.003650 0.020802 -0.005259 0.000000 0.000000 0.000000
# 3 -0.003625 -0.005259 0.013184 0.000000 0.000000 0.000000
# 4 0.000000 0.000000 0.000000 0.020373 0.000000 0.000000
# 5 0.000000 0.000000 0.000000 0.000000 -0.045529 0.000000
# 6 0.000000 0.000000 0.000000 0.000000 0.000000 0.028224
#
#
# Mechanical properties :
#
#
# Convention : Reuss Voigt Hill
#
# Bulk Modulus (GPa) = 47.08909 50.73039 48.90974
# Shear Modulus (GPa) = 61.33557 23.36937 42.35247
#
# Velocity S-wave (km/s) = 5.18607 3.20114 4.30944
# Velocity P-wave (km/s) = 7.51722 5.99233 6.79767
#
# Compressibility (1/GPa) = 0.02123634
#
# Stress axis : x y z
#
# Youngs Moduli (GPa) = 81.17907 48.07263 75.84831
#
# Poissons Ratio (x) = 0.17546 0.27494
# Poissons Ratio (y) = 0.29630 0.39890
# Poissons Ratio (z) = 0.29427 0.25282
#
# Static dielectric constant tensor:
#      x y z
#    x 1.876540 0.000000 0.000000 
#    y 0.000000 1.942320 0.000000 
#    z 0.000000 0.000000 1.892660 
# 
# From -- ./inp_files/25268.got.cif
#   From: 2010.05.17/outbox.cif.g08.bks.cpg/sg20_13_cif.got.tgz:25268.got - 2010.06.03 22:52:26.
