data_PCOD9321956
_publ_section_title
;
Structure prediction by ZEFSAII (Michael W. Deem and Ramdas Pophale) SiO2 
 PCOD9321956
Probable space group: C 2 2 21
;
_chemical_formula_sum "Si O2"
_cell_formula_units_Z 36
_cell_length_a 6.456289
_cell_length_b 22.394516
_cell_length_c 11.033089
_cell_angle_alpha 90.000000
_cell_angle_beta 90.000000
_cell_angle_gamma 90.000000
_cell_volume 1595.224329
_symmetry_space_group_name_H-M "C 2 2 21"
_symmetry_group_IT_number 20
_symmetry_cell_setting 'orthorhombic'
loop_
_space_group_symop_operation_xyz
x,y,z
-x,-y,1/2+z
x,-y,-z
-x,y,1/2-z
1/2+x,1/2+y,z
1/2-x,1/2-y,1/2+z
1/2+x,1/2-y,-z
1/2-x,1/2+y,1/2-z
loop_
_atom_site_type_symbol
_atom_site_label
_atom_site_fract_x
_atom_site_fract_y
_atom_site_fract_z
Si Si1 0.649097 0.640706 0.641420
Si Si2 0.659307 0.475848 0.866339
Si Si3 0.500000 0.944883 0.250000
Si Si4 0.172126 0.849421 0.954610
Si Si5 0.483575 0.223675 0.608336
O O1 0.500000 0.661687 0.750000
O O2 0.826399 0.595047 0.681970
O O3 0.482319 0.618151 0.547524
O O4 0.761784 0.695747 0.577807
O O5 0.500000 0.483606 0.750000
O O6 0.864040 0.514571 0.838469
O O7 0.726831 0.405484 0.870596
O O8 0.586882 0.500000 0.000000
O O9 0.045270 0.794644 0.896946
O O10 0.351711 0.814751 0.030508
O O11 0.500000 0.208667 0.750000
#
# Coordination Sequence:
#
# PCOD9321956 Si02
#       5
#     8   8   4   8   8
#     4  12  22  44  76 101 147 197 259 312 388 473
#     4  12  28  52  79 115 161 207 266 329 400 470
#     4  12  26  48  78 112 148 208 262 322 394 480
#     4  12  26  46  73 115 153 201 257 329 393 470
#     4  12  24  44  72 110 150 201 256 316 398 471
#
# _framework density 22.567357999999999
#
# number of rings (size 3 to 8) (size 9 to 14) (size 15 to 20)
#    0.000    0.000    5.556    5.333    0.000    4.444 
#    6.000    2.222    0.000    0.000    0.000    0.000 
#    0.000    0.000    0.000    0.000    0.000    0.000 
#
# Total GULP energy -100261.449248 kJ/mol
# GULP energy per Si atom -5570.080514 kJ/mol
# Density = 2.251599 g / cm^3
# Si number density = 22.567358 Si / 1000 Ang^3
#
#
#
# Elastic Constant Matrix: (Units=GPa)
#
#
# Indices 1 2 3 4 5 6 
#
# 1 116.5925 59.0684 45.1218 0.0000 0.0000 0.0000
# 2 59.0684 186.5407 43.1060 0.0000 0.0000 0.0000
# 3 45.1218 43.1060 91.9544 0.0000 0.0000 0.0000
# 4 0.0000 0.0000 0.0000 25.9830 0.0000 0.0000
# 5 0.0000 0.0000 0.0000 0.0000 33.5885 0.0000
# 6 0.0000 0.0000 0.0000 0.0000 0.0000 23.2658
#
#
#
# Elastic Compliance Matrix: (Units=1/GPa)
#
#
# Indices 1 2 3 4 5 6 
#
# 1 0.011654 -0.002657 -0.004473 0.000000 0.000000 0.000000
# 2 -0.002657 0.006618 -0.001799 0.000000 0.000000 0.000000
# 3 -0.004473 -0.001799 0.013913 0.000000 0.000000 0.000000
# 4 0.000000 0.000000 0.000000 0.038487 0.000000 0.000000
# 5 0.000000 0.000000 0.000000 0.000000 0.029772 0.000000
# 6 0.000000 0.000000 0.000000 0.000000 0.000000 0.042981
#
#
# Mechanical properties :
#
#
# Convention : Reuss Voigt Hill
#
# Bulk Modulus (GPa) = 69.79418 76.63113 73.21265
# Shear Modulus (GPa) = 30.11006 33.08691 31.59848
#
# Velocity S-wave (km/s) = 3.65667 3.83317 3.74596
# Velocity P-wave (km/s) = 6.98731 7.32266 7.15695
#
# Compressibility (1/GPa) = 0.01432784
#
# Stress axis : x y z
#
# Youngs Moduli (GPa) = 85.80822 151.11258 71.87480
#
# Poissons Ratio (x) = 0.40144 0.32151
# Poissons Ratio (y) = 0.22795 0.12927
# Poissons Ratio (z) = 0.38384 0.27179
#
# Static dielectric constant tensor:
#      x y z
#    x 1.969000 0.000000 0.000000 
#    y 0.000000 1.881400 0.000000 
#    z 0.000000 0.000000 1.691700 
# 
# From -- ./inp_files/12047.got.cif
#   From: 2010.05.17/outbox.cif.g08.bks.cpg/sg20_7_cif.got.tgz:12047.got - 2010.06.03 22:52:26.
