data_PCOD9321585
_publ_section_title
;
Structure prediction by ZEFSAII (Michael W. Deem and Ramdas Pophale) SiO2 
 PCOD9321585
Probable space group: C 2 2 21
;
_chemical_formula_sum "Si O2"
_cell_formula_units_Z 40
_cell_length_a 18.147695
_cell_length_b 7.218573
_cell_length_c 13.868557
_cell_angle_alpha 90.000000
_cell_angle_beta 90.000000
_cell_angle_gamma 90.000000
_cell_volume 1816.787362
_symmetry_space_group_name_H-M "C 2 2 21"
_symmetry_group_IT_number 20
_symmetry_cell_setting 'orthorhombic'
loop_
_space_group_symop_operation_xyz
x,y,z
-x,-y,1/2+z
x,-y,-z
-x,y,1/2-z
1/2+x,1/2+y,z
1/2-x,1/2-y,1/2+z
1/2+x,1/2-y,-z
1/2-x,1/2+y,1/2-z
loop_
_atom_site_type_symbol
_atom_site_label
_atom_site_fract_x
_atom_site_fract_y
_atom_site_fract_z
Si Si1 0.644886 0.000000 0.000000
Si Si2 0.364827 0.714870 0.961103
Si Si3 0.481569 0.709289 0.462128
Si Si4 0.158117 0.053935 0.737574
Si Si5 0.500000 0.593468 0.250000
Si Si6 0.744865 0.733897 0.379453
O O1 0.699082 0.924244 0.917439
O O2 0.590778 0.166883 0.971208
O O3 0.340163 0.700823 0.850780
O O4 0.368185 0.500000 0.000000
O O5 0.448269 0.782135 0.976308
O O6 0.304454 0.801026 0.031398
O O7 0.467113 0.500000 0.500000
O O8 0.506451 0.703165 0.350292
O O9 0.206588 0.115139 0.826735
O O10 0.073027 0.027812 0.762271
O O11 0.189833 0.862509 0.695929
#
# Coordination Sequence:
#
# PCOD9321585 Si02
#       6
#     4   8   8   8   4   8
#     4  12  26  44  68 104 140 170 232 298 330 412
#     4   9  18  45  65  84 142 181 209 287 350 389
#     4  11  23  46  71  98 138 183 227 277 353 408
#     4  11  23  42  70 100 133 184 229 280 350 411
#     4  12  22  42  76  96 136 192 228 276 348 424
#     4  11  23  44  67  99 137 178 226 291 345 400
#
# _framework density 22.016884999999998
#
# number of rings (size 3 to 8) (size 9 to 14) (size 15 to 20)
#    0.000    1.200    9.000    1.200    2.800    0.000 
#    7.200    0.000    0.000    0.000    0.000    0.000 
#    0.000    0.000    0.000    0.000    0.000    0.000 
#
# Total GULP energy -111810.395136 kJ/mol
# GULP energy per Si atom -5590.519757 kJ/mol
# Density = 2.196677 g / cm^3
# Si number density = 22.016885 Si / 1000 Ang^3
#
#
#
# Elastic Constant Matrix: (Units=GPa)
#
#
# Indices 1 2 3 4 5 6 
#
# 1 149.1619 23.6293 7.3650 0.0000 0.0000 0.0000
# 2 23.6293 54.1290 -7.0391 0.0000 0.0000 0.0000
# 3 7.3650 -7.0391 26.6258 0.0000 0.0000 0.0000
# 4 0.0000 0.0000 0.0000 19.6484 0.0000 0.0000
# 5 0.0000 0.0000 0.0000 0.0000 37.9679 0.0000
# 6 0.0000 0.0000 0.0000 0.0000 0.0000 14.5626
#
#
#
# Elastic Compliance Matrix: (Units=1/GPa)
#
#
# Indices 1 2 3 4 5 6 
#
# 1 0.007429 -0.003635 -0.003016 0.000000 0.000000 0.000000
# 2 -0.003635 0.020911 0.006534 0.000000 0.000000 0.000000
# 3 -0.003016 0.006534 0.040119 0.000000 0.000000 0.000000
# 4 0.000000 0.000000 0.000000 0.050895 0.000000 0.000000
# 5 0.000000 0.000000 0.000000 0.000000 0.026338 0.000000
# 6 0.000000 0.000000 0.000000 0.000000 0.000000 0.068669
#
#
# Mechanical properties :
#
#
# Convention : Reuss Voigt Hill
#
# Bulk Modulus (GPa) = 14.65753 30.86968 22.76361
# Shear Modulus (GPa) = 21.06709 28.16654 24.61681
#
# Velocity S-wave (km/s) = 3.09667 3.58063 3.34741
# Velocity P-wave (km/s) = 4.41109 5.58085 5.03009
#
# Compressibility (1/GPa) = 0.06822432
#
# Stress axis : x y z
#
# Youngs Moduli (GPa) = 134.60932 47.82181 24.92573
#
# Poissons Ratio (x) = 0.17384 0.07517
# Poissons Ratio (y) = 0.48933 -0.16286
# Poissons Ratio (z) = 0.40598 -0.31246
#
# Static dielectric constant tensor:
#      x y z
#    x 1.799950 0.000000 0.000000 
#    y 0.000000 1.833500 0.000000 
#    z 0.000000 0.000000 1.821030 
# 
# From -- ./inp_files/18583.got.cif
#   From: 2010.05.17/outbox.cif.g08.bks.cpg/sg20_10_cif.got.tgz:18583.got - 2010.06.03 22:52:26.
