data_PCOD9321988
_publ_section_title
;
Structure prediction by ZEFSAII (Michael W. Deem and Ramdas Pophale) SiO2 
 PCOD9321988
Probable space group: C 2 2 21
;
_chemical_formula_sum "Si O2"
_cell_formula_units_Z 56
_cell_length_a 9.019328
_cell_length_b 20.001279
_cell_length_c 14.008379
_cell_angle_alpha 90.000000
_cell_angle_beta 90.000000
_cell_angle_gamma 90.000000
_cell_volume 2527.084896
_symmetry_space_group_name_H-M "C 2 2 21"
_symmetry_group_IT_number 20
_symmetry_cell_setting 'orthorhombic'
loop_
_space_group_symop_operation_xyz
x,y,z
-x,-y,1/2+z
x,-y,-z
-x,y,1/2-z
1/2+x,1/2+y,z
1/2-x,1/2-y,1/2+z
1/2+x,1/2-y,-z
1/2-x,1/2+y,1/2-z
loop_
_atom_site_type_symbol
_atom_site_label
_atom_site_fract_x
_atom_site_fract_y
_atom_site_fract_z
Si Si1 0.773840 0.697388 0.619946
Si Si2 0.500000 0.492017 0.250000
Si Si3 0.193252 0.947178 0.915682
Si Si4 0.963286 0.819596 0.648538
Si Si5 0.797880 0.302187 0.591906
Si Si6 0.027669 0.569101 0.142036
Si Si7 0.752906 0.041880 0.900251
Si Si8 0.500000 0.730315 0.750000
O O1 0.875791 0.751521 0.674049
O O2 0.803743 0.727346 0.513919
O O3 0.800867 0.618789 0.603231
O O4 0.616095 0.698445 0.674345
O O5 0.372750 0.524894 0.316659
O O6 0.602356 0.459486 0.332802
O O7 0.121078 0.873078 0.918411
O O8 0.370086 0.938306 0.908731
O O9 0.159552 0.000000 0.000000
O O10 0.000000 0.854027 0.750000
O O11 0.123411 0.804768 0.607664
O O12 0.868289 0.375958 0.594114
O O13 0.888812 0.266592 0.675684
O O14 0.117938 0.500735 0.142989
O O15 0.000000 0.591727 0.250000
O O16 0.784465 0.000000 0.000000
#
# Coordination Sequence:
#
# PCOD9321988 Si02
#       8
#     8   4   8   8   8   8   8   4
#     4  12  28  48  76 113 156 205 258 324 391 472
#     4  12  25  48  72 110 151 194 260 322 379 456
#     4  12  27  45  79 113 147 199 261 315 374 463
#     4  12  25  51  76 111 153 204 255 314 393 461
#     4  12  25  47  81 108 150 205 251 319 392 476
#     4  12  23  48  75 109 150 203 258 316 377 458
#     4  12  26  48  77 107 155 204 256 318 393 456
#     4  12  25  52  78 114 153 198 262 326 393 472
#
# _framework density 22.159918999999999
#
# number of rings (size 3 to 8) (size 9 to 14) (size 15 to 20)
#    0.000    0.000    5.714    4.714    2.000    0.571 
#    2.571    0.000    0.000    0.000    0.000    0.000 
#    0.000    0.000    0.000    0.000    0.000    0.000 
#
# Total GULP energy -155990.089141 kJ/mol
# GULP energy per Si atom -5571.074612 kJ/mol
# Density = 2.210948 g / cm^3
# Si number density = 22.159919 Si / 1000 Ang^3
#
#
#
# Elastic Constant Matrix: (Units=GPa)
#
#
# Indices 1 2 3 4 5 6 
#
# 1 127.1334 61.6517 11.1239 0.0000 0.0000 0.0000
# 2 61.6517 124.7135 43.7015 0.0000 0.0000 0.0000
# 3 11.1239 43.7015 102.3082 0.0000 0.0000 0.0000
# 4 0.0000 0.0000 0.0000 21.4535 0.0000 0.0000
# 5 0.0000 0.0000 0.0000 0.0000 23.4806 0.0000
# 6 0.0000 0.0000 0.0000 0.0000 0.0000 -10.1334
#
#
#
# Elastic Compliance Matrix: (Units=1/GPa)
#
#
# Indices 1 2 3 4 5 6 
#
# 1 0.010483 -0.005625 0.001263 0.000000 0.000000 0.000000
# 2 -0.005625 0.012448 -0.004706 0.000000 0.000000 0.000000
# 3 0.001263 -0.004706 0.011647 0.000000 0.000000 0.000000
# 4 0.000000 0.000000 0.000000 0.046612 0.000000 0.000000
# 5 0.000000 0.000000 0.000000 0.000000 0.042588 0.000000
# 6 0.000000 0.000000 0.000000 0.000000 0.000000 -0.098684
#
#
# Mechanical properties :
#
#
# Convention : Reuss Voigt Hill
#
# Bulk Modulus (GPa) = 60.81652 65.23434 63.02543
# Shear Modulus (GPa) = 102.64638 22.80533 62.72586
#
# Velocity S-wave (km/s) = 6.81332 3.21148 5.32611
# Velocity P-wave (km/s) = 9.45511 6.57673 8.14409
#
# Compressibility (1/GPa) = 0.01644290
#
# Stress axis : x y z
#
# Youngs Moduli (GPa) = 95.39365 80.33528 85.85828
#
# Poissons Ratio (x) = 0.45186 -0.10842
# Poissons Ratio (y) = 0.53656 0.40401
# Poissons Ratio (z) = -0.12046 0.37802
#
# Static dielectric constant tensor:
#      x y z
#    x 1.728920 0.000000 0.000000 
#    y 0.000000 1.875210 0.000000 
#    z 0.000000 0.000000 2.032940 
# 
# From -- ./inp_files/19266.got.cif
#   From: 2010.05.17/outbox.cif.g08.bks.cpg/sg20_10_cif.got.tgz:19266.got - 2010.06.03 22:52:26.
