data_PCOD9321399
_publ_section_title
;
Structure prediction by ZEFSAII (Michael W. Deem and Ramdas Pophale) SiO2 
 PCOD9321399
Probable space group: C 2 2 21
;
_chemical_formula_sum "Si O2"
_cell_formula_units_Z 52
_cell_length_a 20.660849
_cell_length_b 14.275846
_cell_length_c 9.238891
_cell_angle_alpha 90.000000
_cell_angle_beta 90.000000
_cell_angle_gamma 90.000000
_cell_volume 2725.021050
_symmetry_space_group_name_H-M "C 2 2 21"
_symmetry_group_IT_number 20
_symmetry_cell_setting 'orthorhombic'
loop_
_space_group_symop_operation_xyz
x,y,z
-x,-y,1/2+z
x,-y,-z
-x,y,1/2-z
1/2+x,1/2+y,z
1/2-x,1/2-y,1/2+z
1/2+x,1/2-y,-z
1/2-x,1/2+y,1/2-z
loop_
_atom_site_type_symbol
_atom_site_label
_atom_site_fract_x
_atom_site_fract_y
_atom_site_fract_z
Si Si1 0.700072 0.306580 0.122344
Si Si2 0.448517 0.689871 0.625443
Si Si3 0.324833 0.500000 0.500000
Si Si4 0.933714 0.285934 0.323226
Si Si5 0.612803 0.583697 0.289344
Si Si6 0.283680 0.500000 0.000000
Si Si7 0.992502 0.000000 0.000000
Si Si8 0.797256 0.340622 0.362424
O O1 0.625852 0.313730 0.180064
O O2 0.713402 0.408076 0.050997
O O3 0.753430 0.289781 0.242887
O O4 0.701055 0.226578 0.001990
O O5 0.500000 0.712359 0.750000
O O6 0.448747 0.760592 0.490111
O O7 0.469278 0.590322 0.556699
O O8 0.364690 0.463660 0.639743
O O9 0.908912 0.189104 0.247543
O O10 0.871516 0.352695 0.315077
O O11 0.000000 0.317412 0.250000
O O12 0.671020 0.567638 0.403052
O O13 0.553054 0.533266 0.368054
O O14 0.239085 0.436125 0.100340
#
# Coordination Sequence:
#
# PCOD9321399 Si02
#       8
#     8   8   4   8   8   4   4   8
#     4  11  24  38  62  87 130 166 203 254 307 373
#     4  11  23  32  51  86 123 163 194 233 299 373
#     4  12  19  38  59  93 128 167 200 242 311 372
#     4  11  23  41  61  87 122 160 202 257 313 371
#     4  11  22  37  60  92 128 163 200 243 304 380
#     4  11  24  40  65  91 121 166 216 254 307 356
#     4  11  23  30  54  88 133 167 190 232 296 386
#     4  11  24  41  61  88 121 168 212 259 302 367
#
# _framework density 19.082422000000001
#
# number of rings (size 3 to 8) (size 9 to 14) (size 15 to 20)
#    0.000    0.923    6.154    2.308    4.308    1.231 
#    0.000    0.000    0.000    4.615    0.000    0.000 
#    0.000    0.000    0.000    0.000    0.000    0.000 
#
# Total GULP energy -145290.525236 kJ/mol
# GULP energy per Si atom -5588.097124 kJ/mol
# Density = 1.903899 g / cm^3
# Si number density = 19.082422 Si / 1000 Ang^3
#
#
#
# Elastic Constant Matrix: (Units=GPa)
#
#
# Indices 1 2 3 4 5 6 
#
# 1 153.9828 12.5253 57.7346 0.0000 0.0000 0.0000
# 2 12.5253 15.5244 -5.9023 0.0000 0.0000 0.0000
# 3 57.7346 -5.9023 87.9921 0.0000 0.0000 0.0000
# 4 0.0000 0.0000 0.0000 20.9385 0.0000 0.0000
# 5 0.0000 0.0000 0.0000 0.0000 40.5717 0.0000
# 6 0.0000 0.0000 0.0000 0.0000 0.0000 3.0582
#
#
#
# Elastic Compliance Matrix: (Units=1/GPa)
#
#
# Indices 1 2 3 4 5 6 
#
# 1 0.010170 -0.011024 -0.007412 0.000000 0.000000 0.000000
# 2 -0.011024 0.078049 0.012468 0.000000 0.000000 0.000000
# 3 -0.007412 0.012468 0.017065 0.000000 0.000000 0.000000
# 4 0.000000 0.000000 0.000000 0.047759 0.000000 0.000000
# 5 0.000000 0.000000 0.000000 0.000000 0.024648 0.000000
# 6 0.000000 0.000000 0.000000 0.000000 0.000000 0.326991
#
#
# Mechanical properties :
#
#
# Convention : Reuss Voigt Hill
#
# Bulk Modulus (GPa) = 10.71254 42.91274 26.81264
# Shear Modulus (GPa) = 9.12853 25.78979 17.45916
#
# Velocity S-wave (km/s) = 2.18955 3.68026 3.02807
# Velocity P-wave (km/s) = 3.46672 6.37150 5.12904
#
# Compressibility (1/GPa) = 0.09334859
#
# Stress axis : x y z
#
# Youngs Moduli (GPa) = 98.32693 12.81241 58.60102
#
# Poissons Ratio (x) = 0.14124 0.43438
# Poissons Ratio (y) = 1.08392 -0.73066
# Poissons Ratio (z) = 0.72884 -0.15975
#
# Static dielectric constant tensor:
#      x y z
#    x 1.700630 0.000000 0.000000 
#    y 0.000000 1.653340 0.000000 
#    z 0.000000 0.000000 1.689950 
# 
# From -- ./inp_files/9551.got.cif
#   From: 2010.05.17/outbox.cif.g08.bks.cpg/sg20_5_cif.got.tgz:9551.got - 2010.06.03 22:52:26.
