data_PCOD9321764
_publ_section_title
;
Structure prediction by ZEFSAII (Michael W. Deem and Ramdas Pophale) SiO2 
 PCOD9321764
Probable space group: C 2 2 21
;
_chemical_formula_sum "Si O2"
_cell_formula_units_Z 32
_cell_length_a 17.004198
_cell_length_b 16.313132
_cell_length_c 4.936449
_cell_angle_alpha 90.000000
_cell_angle_beta 90.000000
_cell_angle_gamma 90.000000
_cell_volume 1369.330111
_symmetry_space_group_name_H-M "C 2 2 21"
_symmetry_group_IT_number 20
_symmetry_cell_setting 'orthorhombic'
loop_
_space_group_symop_operation_xyz
x,y,z
-x,-y,1/2+z
x,-y,-z
-x,y,1/2-z
1/2+x,1/2+y,z
1/2-x,1/2-y,1/2+z
1/2+x,1/2-y,-z
1/2-x,1/2+y,1/2-z
loop_
_atom_site_type_symbol
_atom_site_label
_atom_site_fract_x
_atom_site_fract_y
_atom_site_fract_z
Si Si1 0.645217 0.556082 0.256266
Si Si2 0.500000 0.336997 0.750000
Si Si3 0.000000 0.557536 0.750000
Si Si4 0.734233 0.801155 0.619367
Si Si5 0.926772 0.312605 0.564448
O O1 0.675694 0.500000 0.500000
O O2 0.568745 0.605390 0.365592
O O3 0.710819 0.620261 0.156870
O O4 0.622090 0.500000 0.000000
O O5 0.451850 0.275902 0.553239
O O6 0.928990 0.618255 0.666337
O O7 0.020924 0.500000 0.500000
O O8 0.728993 0.770550 0.311221
O O9 0.649703 0.811982 0.754113
O O10 0.000000 0.336120 0.750000
#
# Coordination Sequence:
#
# PCOD9321764 Si02
#       5
#     8   4   4   8   8
#     4  12  27  48  72 111 149 192 238 310 381 434
#     4  11  24  46  76 107 144 192 254 301 364 452
#     4  11  24  46  66 105 142 178 244 307 362 422
#     4  12  26  49  75 106 151 193 247 300 364 452
#     4  11  25  45  79 106 139 202 253 299 371 446
#
# _framework density 23.369092999999999
#
# number of rings (size 3 to 8) (size 9 to 14) (size 15 to 20)
#    0.000    0.500    3.750    3.750    7.000    1.000 
#    4.500    0.000    0.000    0.000    0.000    0.000 
#    0.000    0.000    0.000    0.000    0.000    0.000 
#
# Total GULP energy -89589.747769 kJ/mol
# GULP energy per Si atom -5599.359236 kJ/mol
# Density = 2.331590 g / cm^3
# Si number density = 23.369093 Si / 1000 Ang^3
#
#
#
# Elastic Constant Matrix: (Units=GPa)
#
#
# Indices 1 2 3 4 5 6 
#
# 1 113.6481 23.5513 -11.3715 0.0000 0.0000 0.0000
# 2 23.5513 118.6196 22.8921 0.0000 0.0000 0.0000
# 3 -11.3715 22.8921 83.7978 0.0000 0.0000 0.0000
# 4 0.0000 0.0000 0.0000 1.4512 0.0000 0.0000
# 5 0.0000 0.0000 0.0000 0.0000 29.2834 0.0000
# 6 0.0000 0.0000 0.0000 0.0000 0.0000 14.4224
#
#
#
# Elastic Compliance Matrix: (Units=1/GPa)
#
#
# Indices 1 2 3 4 5 6 
#
# 1 0.009454 -0.002243 0.001896 0.000000 0.000000 0.000000
# 2 -0.002243 0.009432 -0.002881 0.000000 0.000000 0.000000
# 3 0.001896 -0.002881 0.012978 0.000000 0.000000 0.000000
# 4 0.000000 0.000000 0.000000 0.689079 0.000000 0.000000
# 5 0.000000 0.000000 0.000000 0.000000 0.034149 0.000000
# 6 0.000000 0.000000 0.000000 0.000000 0.000000 0.069337
#
#
# Mechanical properties :
#
#
# Convention : Reuss Voigt Hill
#
# Bulk Modulus (GPa) = 39.35986 42.91217 41.13602
# Shear Modulus (GPa) = 5.95697 27.76432 16.86065
#
# Velocity S-wave (km/s) = 1.59832 3.45059 2.68898
# Velocity P-wave (km/s) = 4.50393 5.85475 5.22319
#
# Compressibility (1/GPa) = 0.02540659
#
# Stress axis : x y z
#
# Youngs Moduli (GPa) = 105.78066 106.02683 77.05511
#
# Poissons Ratio (x) = 0.23779 -0.14606
# Poissons Ratio (y) = 0.23724 0.22199
# Poissons Ratio (z) = -0.20051 0.30545
#
# Static dielectric constant tensor:
#      x y z
#    x 2.093510 0.000000 0.000000 
#    y 0.000000 1.919670 0.000000 
#    z 0.000000 0.000000 1.926270 
# 
# From -- ./inp_files/2438.got.cif
#   From: 2010.05.17/outbox.cif.g08.bks.cpg/sg20_2_cif.got.tgz:2438.got - 2010.06.03 22:52:26.
