data_PCOD9321681
_publ_section_title
;
Structure prediction by ZEFSAII (Michael W. Deem and Ramdas Pophale) SiO2 
 PCOD9321681
Probable space group: C 2 2 21
;
_chemical_formula_sum "Si O2"
_cell_formula_units_Z 32
_cell_length_a 14.456608
_cell_length_b 19.184044
_cell_length_c 5.145547
_cell_angle_alpha 90.000000
_cell_angle_beta 90.000000
_cell_angle_gamma 90.000000
_cell_volume 1427.046472
_symmetry_space_group_name_H-M "C 2 2 21"
_symmetry_group_IT_number 20
_symmetry_cell_setting 'orthorhombic'
loop_
_space_group_symop_operation_xyz
x,y,z
-x,-y,1/2+z
x,-y,-z
-x,y,1/2-z
1/2+x,1/2+y,z
1/2-x,1/2-y,1/2+z
1/2+x,1/2-y,-z
1/2-x,1/2+y,1/2-z
loop_
_atom_site_type_symbol
_atom_site_label
_atom_site_fract_x
_atom_site_fract_y
_atom_site_fract_z
Si Si1 0.000000 0.822116 0.750000
Si Si2 0.000000 0.918707 0.250000
Si Si3 0.055939 0.500000 0.500000
Si Si4 0.353430 0.500000 0.500000
Si Si5 0.711854 0.713878 0.364611
Si Si6 0.290415 0.931068 0.683499
O O1 0.993111 0.870981 0.499363
O O2 0.898532 0.786718 0.795021
O O3 0.913881 0.969785 0.269636
O O4 0.117523 0.559567 0.358408
O O5 0.000000 0.471045 0.250000
O O6 0.290256 0.560310 0.392921
O O7 0.733247 0.764310 0.605065
O O8 0.759865 0.640146 0.451382
O O9 0.290712 0.000000 0.500000
#
# Coordination Sequence:
#
# PCOD9321681 Si02
#       6
#     4   4   4   4   8   8
#     4  12  25  50  74 100 154 197 250 298 382 461
#     4  12  23  40  72 114 146 181 232 296 370 457
#     4  11  24  46  73 110 144 188 259 322 366 429
#     4  11  24  36  71 114 144 186 227 304 374 439
#     4  12  29  51  73 109 153 198 249 311 378 449
#     4  11  25  47  78 106 149 192 250 311 369 437
#
# _framework density 22.423935
#
# number of rings (size 3 to 8) (size 9 to 14) (size 15 to 20)
#    0.000    0.500    3.750    3.750    8.750    0.000 
#    6.750    0.000    0.000    0.000    0.000    0.000 
#    0.000    0.000    0.000    0.000    0.000    0.000 
#
# Total GULP energy -89278.242513 kJ/mol
# GULP energy per Si atom -5579.890157 kJ/mol
# Density = 2.237290 g / cm^3
# Si number density = 22.423935 Si / 1000 Ang^3
#
#
#
# Elastic Constant Matrix: (Units=GPa)
#
#
# Indices 1 2 3 4 5 6 
#
# 1 141.8795 37.3301 51.4014 0.0000 0.0000 0.0000
# 2 37.3301 71.3800 25.6712 0.0000 0.0000 0.0000
# 3 51.4014 25.6712 145.1955 0.0000 0.0000 0.0000
# 4 0.0000 0.0000 0.0000 49.7930 0.0000 0.0000
# 5 0.0000 0.0000 0.0000 0.0000 35.1304 0.0000
# 6 0.0000 0.0000 0.0000 0.0000 0.0000 5.2709
#
#
#
# Elastic Compliance Matrix: (Units=1/GPa)
#
#
# Indices 1 2 3 4 5 6 
#
# 1 0.008949 -0.003781 -0.002499 0.000000 0.000000 0.000000
# 2 -0.003781 0.016558 -0.001589 0.000000 0.000000 0.000000
# 3 -0.002499 -0.001589 0.008053 0.000000 0.000000 0.000000
# 4 0.000000 0.000000 0.000000 0.020083 0.000000 0.000000
# 5 0.000000 0.000000 0.000000 0.000000 0.028465 0.000000
# 6 0.000000 0.000000 0.000000 0.000000 0.000000 0.189721
#
#
# Mechanical properties :
#
#
# Convention : Reuss Voigt Hill
#
# Bulk Modulus (GPa) = 56.11349 65.25116 60.68233
# Shear Modulus (GPa) = 17.03525 34.30902 25.67214
#
# Velocity S-wave (km/s) = 2.75924 3.91579 3.38724
# Velocity P-wave (km/s) = 5.93544 7.04319 6.51291
#
# Compressibility (1/GPa) = 0.01782103
#
# Stress axis : x y z
#
# Youngs Moduli (GPa) = 111.74967 60.39236 124.17644
#
# Poissons Ratio (x) = 0.22834 0.31037
# Poissons Ratio (y) = 0.42253 0.19732
# Poissons Ratio (z) = 0.27931 0.09597
#
# Static dielectric constant tensor:
#      x y z
#    x 1.912250 0.000000 0.000000 
#    y 0.000000 2.511770 0.000000 
#    z 0.000000 0.000000 1.820900 
# 
# From -- ./inp_files/1628.got.cif
#   From: 2010.05.17/outbox.cif.g08.bks.cpg/sg20_1_cif.got.tgz:1628.got - 2010.06.03 22:52:26.
