data_PCOD9321624
_publ_section_title
;
Structure prediction by ZEFSAII (Michael W. Deem and Ramdas Pophale) SiO2 
 PCOD9321624
Probable space group: C 2 2 21
;
_chemical_formula_sum "Si O2"
_cell_formula_units_Z 40
_cell_length_a 8.466558
_cell_length_b 11.618465
_cell_length_c 16.753197
_cell_angle_alpha 90.000000
_cell_angle_beta 90.000000
_cell_angle_gamma 90.000000
_cell_volume 1647.985314
_symmetry_space_group_name_H-M "C 2 2 21"
_symmetry_group_IT_number 20
_symmetry_cell_setting 'orthorhombic'
loop_
_space_group_symop_operation_xyz
x,y,z
-x,-y,1/2+z
x,-y,-z
-x,y,1/2-z
1/2+x,1/2+y,z
1/2-x,1/2-y,1/2+z
1/2+x,1/2-y,-z
1/2-x,1/2+y,1/2-z
loop_
_atom_site_type_symbol
_atom_site_label
_atom_site_fract_x
_atom_site_fract_y
_atom_site_fract_z
Si Si1 0.589517 0.659298 0.334657
Si Si2 0.360111 0.738314 0.474374
Si Si3 0.324525 0.297819 0.238280
Si Si4 0.310393 0.040081 0.616458
Si Si5 0.071316 0.353497 0.592726
O O1 0.500000 0.639398 0.250000
O O2 0.477294 0.712413 0.401268
O O3 0.734719 0.742912 0.312237
O O4 0.666335 0.547272 0.373952
O O5 0.292864 0.865914 0.453192
O O6 0.219350 0.646733 0.468060
O O7 0.457155 0.756611 0.554329
O O8 0.500000 0.348563 0.250000
O O9 0.205031 0.386958 0.197793
O O10 0.360275 0.193915 0.175810
O O11 0.471196 0.968573 0.605142
#
# Coordination Sequence:
#
# PCOD9321624 Si02
#       5
#     8   8   8   8   8
#     4  12  23  45  71 105 143 182 238 300 358 422
#     4  11  26  46  68 102 140 190 238 298 353 430
#     4  11  24  45  72 107 141 186 235 302 359 421
#     4  11  24  44  69  98 139 179 236 281 354 422
#     4  11  23  44  71  95 144 187 234 294 355 416
#
# _framework density 24.272061000000001
#
# number of rings (size 3 to 8) (size 9 to 14) (size 15 to 20)
#    0.000    0.800    6.000    2.400    0.000    4.800 
#    3.600    4.000    0.000    0.000    0.000    0.000 
#    0.000    0.000    0.000    0.000    0.000    0.000 
#
# Total GULP energy -111877.524582 kJ/mol
# GULP energy per Si atom -5593.876229 kJ/mol
# Density = 2.421682 g / cm^3
# Si number density = 24.272061 Si / 1000 Ang^3
#
#
#
# Elastic Constant Matrix: (Units=GPa)
#
#
# Indices 1 2 3 4 5 6 
#
# 1 138.2732 46.2129 33.7797 0.0000 0.0000 0.0000
# 2 46.2129 93.3816 10.6602 0.0000 0.0000 0.0000
# 3 33.7797 10.6602 56.3807 0.0000 0.0000 0.0000
# 4 0.0000 0.0000 0.0000 17.7246 0.0000 0.0000
# 5 0.0000 0.0000 0.0000 0.0000 60.7362 0.0000
# 6 0.0000 0.0000 0.0000 0.0000 0.0000 19.8931
#
#
#
# Elastic Compliance Matrix: (Units=1/GPa)
#
#
# Indices 1 2 3 4 5 6 
#
# 1 0.009933 -0.004330 -0.005133 0.000000 0.000000 0.000000
# 2 -0.004330 0.012832 0.000168 0.000000 0.000000 0.000000
# 3 -0.005133 0.000168 0.020780 0.000000 0.000000 0.000000
# 4 0.000000 0.000000 0.000000 0.056419 0.000000 0.000000
# 5 0.000000 0.000000 0.000000 0.000000 0.016465 0.000000
# 6 0.000000 0.000000 0.000000 0.000000 0.000000 0.050269
#
#
# Mechanical properties :
#
#
# Convention : Reuss Voigt Hill
#
# Bulk Modulus (GPa) = 40.07009 52.14902 46.10955
# Shear Modulus (GPa) = 25.82579 32.82963 29.32771
#
# Velocity S-wave (km/s) = 3.26546 3.68172 3.47982
# Velocity P-wave (km/s) = 5.54637 6.29327 5.93159
#
# Compressibility (1/GPa) = 0.02495627
#
# Stress axis : x y z
#
# Youngs Moduli (GPa) = 100.67465 77.92834 48.12334
#
# Poissons Ratio (x) = 0.33741 0.24700
# Poissons Ratio (y) = 0.43589 -0.00808
# Poissons Ratio (z) = 0.51672 -0.01308
#
# Static dielectric constant tensor:
#      x y z
#    x 1.985340 0.000000 0.000000 
#    y 0.000000 1.949630 0.000000 
#    z 0.000000 0.000000 1.963430 
# 
# From -- ./inp_files/23160.got.cif
#   From: 2010.05.17/outbox.cif.g08.bks.cpg/sg20_12_cif.got.tgz:23160.got - 2010.06.03 22:52:26.
