data_PCOD9321307
_publ_section_title
;
Structure prediction by ZEFSAII (Michael W. Deem and Ramdas Pophale) SiO2 
 PCOD9321307
Probable space group: C 2 2 21
;
_chemical_formula_sum "Si O2"
_cell_formula_units_Z 52
_cell_length_a 6.354809
_cell_length_b 23.212410
_cell_length_c 18.584609
_cell_angle_alpha 90.000000
_cell_angle_beta 90.000000
_cell_angle_gamma 90.000000
_cell_volume 2741.423702
_symmetry_space_group_name_H-M "C 2 2 21"
_symmetry_group_IT_number 20
_symmetry_cell_setting 'orthorhombic'
loop_
_space_group_symop_operation_xyz
x,y,z
-x,-y,1/2+z
x,-y,-z
-x,y,1/2-z
1/2+x,1/2+y,z
1/2-x,1/2-y,1/2+z
1/2+x,1/2-y,-z
1/2-x,1/2+y,1/2-z
loop_
_atom_site_type_symbol
_atom_site_label
_atom_site_fract_x
_atom_site_fract_y
_atom_site_fract_z
Si Si1 0.622879 0.866657 0.823014
Si Si2 0.386280 0.309730 0.426580
Si Si3 0.132190 0.025695 0.318942
Si Si4 0.306699 0.201637 0.078943
Si Si5 0.000000 0.550549 0.750000
Si Si6 0.078596 0.240685 0.323587
Si Si7 0.891835 0.914774 0.327976
O O1 0.500000 0.884740 0.750000
O O2 0.767866 0.917938 0.853857
O O3 0.459983 0.843322 0.881920
O O4 0.770274 0.812610 0.803053
O O5 0.565707 0.261101 0.434775
O O6 0.285656 0.320790 0.504095
O O7 0.211565 0.281972 0.374413
O O8 0.455573 0.367235 0.385568
O O9 0.000000 0.047743 0.250000
O O10 0.330875 0.988562 0.291549
O O11 0.975409 0.978040 0.352495
O O12 0.117217 0.216623 0.132137
O O13 0.855996 0.583884 0.808135
O O14 0.000000 0.269116 0.250000
O O15 0.000000 0.903166 0.250000
#
# Coordination Sequence:
#
# PCOD9321307 Si02
#       7
#     8   8   8   8   4   8   8
#     4  11  21  35  63  96 121 155 206 257 305 375
#     4  11  24  41  59  87 129 167 203 253 311 384
#     4   9  18  34  58  93 122 152 198 254 304 351
#     4  11  24  41  59  91 125 168 203 246 330 364
#     4   8  16  34  56  90 114 152 190 242 310 340
#     4  11  23  37  61  93 122 158 209 259 307 363
#     4   9  21  35  59  94 115 157 207 249 298 359
#
# _framework density 18.968243999999999
#
# number of rings (size 3 to 8) (size 9 to 14) (size 15 to 20)
#    0.000    2.154    3.846    0.462    3.231    1.231 
#    0.000    0.000    0.000    5.538    0.000    0.000 
#    0.000    0.000    0.000    0.000    0.000    0.000 
#
# Total GULP energy -144989.857235 kJ/mol
# GULP energy per Si atom -5576.532971 kJ/mol
# Density = 1.892507 g / cm^3
# Si number density = 18.968244 Si / 1000 Ang^3
#
#
#
# Elastic Constant Matrix: (Units=GPa)
#
#
# Indices 1 2 3 4 5 6 
#
# 1 78.1142 11.7615 14.4283 0.0000 0.0000 0.0000
# 2 11.7615 78.7841 19.6392 0.0000 0.0000 0.0000
# 3 14.4283 19.6392 76.3177 0.0000 0.0000 0.0000
# 4 0.0000 0.0000 0.0000 -0.2480 0.0000 0.0000
# 5 0.0000 0.0000 0.0000 0.0000 21.0167 0.0000
# 6 0.0000 0.0000 0.0000 0.0000 0.0000 15.6224
#
#
#
# Elastic Compliance Matrix: (Units=1/GPa)
#
#
# Indices 1 2 3 4 5 6 
#
# 1 0.013421 -0.001465 -0.002160 0.000000 0.000000 0.000000
# 2 -0.001465 0.013723 -0.003254 0.000000 0.000000 0.000000
# 3 -0.002160 -0.003254 0.014349 0.000000 0.000000 0.000000
# 4 0.000000 0.000000 0.000000 -4.031450 0.000000 0.000000
# 5 0.000000 0.000000 0.000000 0.000000 0.047581 0.000000
# 6 0.000000 0.000000 0.000000 0.000000 0.000000 0.064011
#
#
# Mechanical properties :
#
#
# Convention : Reuss Voigt Hill
#
# Bulk Modulus (GPa) = 36.05736 36.09708 36.07722
# Shear Modulus (GPa) = -1.29690 19.77067 9.23689
#
# Velocity S-wave (km/s) = -0.82777 3.23197 2.20912
# Velocity P-wave (km/s) = 4.25875 5.74449 5.05649
#
# Compressibility (1/GPa) = 0.02773359
#
# Stress axis : x y z
#
# Youngs Moduli (GPa) = 74.50782 72.87099 69.69117
#
# Poissons Ratio (x) = 0.10676 0.15056
# Poissons Ratio (y) = 0.10916 0.22680
# Poissons Ratio (z) = 0.16096 0.23715
#
# Static dielectric constant tensor:
#      x y z
#    x 1.688540 0.000000 0.000000 
#    y 0.000000 1.688900 0.000000 
#    z 0.000000 0.000000 1.641180 
# 
# From -- ./inp_files/26088.got.cif
#   From: 2010.05.17/outbox.cif.g08.bks.cpg/sg20_14_cif.got.tgz:26088.got - 2010.06.03 22:52:26.
