data_PCOD9321574
_publ_section_title
;
Structure prediction by ZEFSAII (Michael W. Deem and Ramdas Pophale) SiO2 
 PCOD9321574
Probable space group: C 2 2 21
;
_chemical_formula_sum "Si O2"
_cell_formula_units_Z 40
_cell_length_a 23.660408
_cell_length_b 7.634194
_cell_length_c 9.777103
_cell_angle_alpha 90.000000
_cell_angle_beta 90.000000
_cell_angle_gamma 90.000000
_cell_volume 1766.019976
_symmetry_space_group_name_H-M "C 2 2 21"
_symmetry_group_IT_number 20
_symmetry_cell_setting 'orthorhombic'
loop_
_space_group_symop_operation_xyz
x,y,z
-x,-y,1/2+z
x,-y,-z
-x,y,1/2-z
1/2+x,1/2+y,z
1/2-x,1/2-y,1/2+z
1/2+x,1/2-y,-z
1/2-x,1/2+y,1/2-z
loop_
_atom_site_type_symbol
_atom_site_label
_atom_site_fract_x
_atom_site_fract_y
_atom_site_fract_z
Si Si1 0.713587 0.709418 0.467062
Si Si2 0.463739 0.000000 0.000000
Si Si3 0.622906 0.759508 0.670175
Si Si4 0.658932 0.205068 0.032111
Si Si5 0.000000 0.690707 0.750000
Si Si6 0.378558 0.357721 0.753270
O O1 0.716615 0.500000 0.500000
O O2 0.683242 0.797108 0.597818
O O3 0.776991 0.769818 0.437780
O O4 0.670379 0.737240 0.341348
O O5 0.423686 0.139109 0.080658
O O6 0.503938 0.919886 0.113417
O O7 0.622431 0.798969 0.830232
O O8 0.618463 0.549756 0.679494
O O9 0.636618 0.321517 0.905462
O O10 0.662843 0.000000 0.000000
O O11 0.941712 0.790003 0.770144
#
# Coordination Sequence:
#
# PCOD9321574 Si02
#       6
#     8   4   8   8   4   8
#     4   9  20  42  71 102 140 183 236 290 356 425
#     4  12  28  48  74 100 138 186 242 306 360 438
#     4  11  24  47  69 104 141 187 239 295 364 425
#     4  11  23  41  70 108 146 186 236 295 354 431
#     4  12  28  48  72 102 136 188 238 302 362 436
#     4  11  24  47  70 105 143 187 240 293 362 434
#
# _framework density 22.649799000000002
#
# number of rings (size 3 to 8) (size 9 to 14) (size 15 to 20)
#    0.000    1.200    2.000    3.000    4.200    0.800 
#    7.200    0.000    0.000    0.000    0.000    0.000 
#    0.000    0.000    0.000    0.000    0.000    0.000 
#
# Total GULP energy -111696.471852 kJ/mol
# GULP energy per Si atom -5584.823593 kJ/mol
# Density = 2.259825 g / cm^3
# Si number density = 22.649799 Si / 1000 Ang^3
#
#
#
# Elastic Constant Matrix: (Units=GPa)
#
#
# Indices 1 2 3 4 5 6 
#
# 1 69.7962 22.7011 27.3311 0.0000 0.0000 0.0000
# 2 22.7011 65.5042 31.1808 0.0000 0.0000 0.0000
# 3 27.3311 31.1808 155.6085 0.0000 0.0000 0.0000
# 4 0.0000 0.0000 0.0000 29.3608 0.0000 0.0000
# 5 0.0000 0.0000 0.0000 0.0000 39.4516 0.0000
# 6 0.0000 0.0000 0.0000 0.0000 0.0000 11.9910
#
#
#
# Elastic Compliance Matrix: (Units=1/GPa)
#
#
# Indices 1 2 3 4 5 6 
#
# 1 0.016670 -0.004846 -0.001957 0.000000 0.000000 0.000000
# 2 -0.004846 0.018284 -0.002813 0.000000 0.000000 0.000000
# 3 -0.001957 -0.002813 0.007334 0.000000 0.000000 0.000000
# 4 0.000000 0.000000 0.000000 0.034059 0.000000 0.000000
# 5 0.000000 0.000000 0.000000 0.000000 0.025348 0.000000
# 6 0.000000 0.000000 0.000000 0.000000 0.000000 0.083396
#
#
# Mechanical properties :
#
#
# Convention : Reuss Voigt Hill
#
# Bulk Modulus (GPa) = 43.37005 50.37055 46.87030
# Shear Modulus (GPa) = 23.58417 30.14039 26.86228
#
# Velocity S-wave (km/s) = 3.23035 3.65185 3.44755
# Velocity P-wave (km/s) = 5.75354 6.32997 6.04862
#
# Compressibility (1/GPa) = 0.02305739
#
# Stress axis : x y z
#
# Youngs Moduli (GPa) = 59.98895 54.69157 136.35652
#
# Poissons Ratio (x) = 0.26501 0.26684
# Poissons Ratio (y) = 0.29068 0.38354
# Poissons Ratio (z) = 0.11739 0.15383
#
# Static dielectric constant tensor:
#      x y z
#    x 1.848990 0.000000 0.000000 
#    y 0.000000 2.694030 0.000000 
#    z 0.000000 0.000000 1.851630 
# 
# From -- ./inp_files/10533.got.cif
#   From: 2010.05.17/outbox.cif.g08.bks.cpg/sg20_6_cif.got.tgz:10533.got - 2010.06.03 22:52:26.
