data_PCOD9321637
_publ_section_title
;
Structure prediction by ZEFSAII (Michael W. Deem and Ramdas Pophale) SiO2 
 PCOD9321637
Probable space group: C 2 2 21
;
_chemical_formula_sum "Si O2"
_cell_formula_units_Z 52
_cell_length_a 28.156123
_cell_length_b 8.475406
_cell_length_c 10.172337
_cell_angle_alpha 90.000000
_cell_angle_beta 90.000000
_cell_angle_gamma 90.000000
_cell_volume 2427.471305
_symmetry_space_group_name_H-M "C 2 2 21"
_symmetry_group_IT_number 20
_symmetry_cell_setting 'orthorhombic'
loop_
_space_group_symop_operation_xyz
x,y,z
-x,-y,1/2+z
x,-y,-z
-x,y,1/2-z
1/2+x,1/2+y,z
1/2-x,1/2-y,1/2+z
1/2+x,1/2-y,-z
1/2-x,1/2+y,1/2-z
loop_
_atom_site_type_symbol
_atom_site_label
_atom_site_fract_x
_atom_site_fract_y
_atom_site_fract_z
Si Si1 0.961854 0.965331 0.351453
Si Si2 0.137318 0.784326 0.144272
Si Si3 0.594635 0.000000 0.000000
Si Si4 0.792832 0.679560 0.559987
Si Si5 0.685450 0.221140 0.403057
Si Si6 0.447601 0.181729 0.724962
Si Si7 0.152283 0.629763 0.671520
O O1 0.911459 0.878821 0.370806
O O2 0.000000 0.886779 0.250000
O O3 0.980948 0.000000 0.500000
O O4 0.949737 0.130128 0.279888
O O5 0.157013 0.811517 0.289638
O O6 0.122761 0.603614 0.106852
O O7 0.181352 0.797365 0.043245
O O8 0.565062 0.124695 0.919993
O O9 0.788794 0.500000 0.500000
O O10 0.740629 0.736993 0.597136
O O11 0.825757 0.682259 0.689619
O O12 0.666440 0.241914 0.550538
O O13 0.675384 0.039139 0.362948
O O14 0.500000 0.118366 0.750000
O O15 0.404841 0.125922 0.817678
#
# Coordination Sequence:
#
# PCOD9321637 Si02
#       7
#     8   8   4   8   8   8   8
#     4  11  25  45  70 104 141 185 230 289 357 429
#     4  12  22  46  70  99 135 187 234 286 349 423
#     4  12  20  44  72  94 134 180 230 280 338 420
#     4  12  22  44  69  93 140 187 234 282 350 422
#     4  11  25  40  66 102 133 178 232 290 343 400
#     4  11  24  44  72  99 137 180 227 282 354 411
#     4  11  23  45  64  98 141 171 230 295 333 414
#
# _framework density 21.421468000000001
#
# number of rings (size 3 to 8) (size 9 to 14) (size 15 to 20)
#    0.000    0.615    6.923    0.923    0.000    5.538 
#   11.077    0.000    0.000    0.000    0.000    0.000 
#    0.000    0.000    0.000    0.000    0.000    0.000 
#
# Total GULP energy -145063.672966 kJ/mol
# GULP energy per Si atom -5579.372037 kJ/mol
# Density = 2.137271 g / cm^3
# Si number density = 21.421468 Si / 1000 Ang^3
#
#
#
# Elastic Constant Matrix: (Units=GPa)
#
#
# Indices 1 2 3 4 5 6 
#
# 1 180.4880 32.6525 59.2536 0.0000 0.0000 0.0000
# 2 32.6525 37.8146 1.9889 0.0000 0.0000 0.0000
# 3 59.2536 1.9889 135.6271 0.0000 0.0000 0.0000
# 4 0.0000 0.0000 0.0000 13.0849 0.0000 0.0000
# 5 0.0000 0.0000 0.0000 0.0000 38.6955 0.0000
# 6 0.0000 0.0000 0.0000 0.0000 0.0000 33.0897
#
#
#
# Elastic Compliance Matrix: (Units=1/GPa)
#
#
# Indices 1 2 3 4 5 6 
#
# 1 0.007821 -0.006578 -0.003320 0.000000 0.000000 0.000000
# 2 -0.006578 0.031999 0.002405 0.000000 0.000000 0.000000
# 3 -0.003320 0.002405 0.008788 0.000000 0.000000 0.000000
# 4 0.000000 0.000000 0.000000 0.076424 0.000000 0.000000
# 5 0.000000 0.000000 0.000000 0.000000 0.025843 0.000000
# 6 0.000000 0.000000 0.000000 0.000000 0.000000 0.030221
#
#
# Mechanical properties :
#
#
# Convention : Reuss Voigt Hill
#
# Bulk Modulus (GPa) = 29.74418 60.19108 44.96763
# Shear Modulus (GPa) = 24.12075 34.30966 29.21521
#
# Velocity S-wave (km/s) = 3.35925 4.00640 3.69701
# Velocity P-wave (km/s) = 5.38158 7.03997 6.26588
#
# Compressibility (1/GPa) = 0.03362002
#
# Stress axis : x y z
#
# Youngs Moduli (GPa) = 127.86587 31.25123 113.78537
#
# Poissons Ratio (x) = 0.20558 0.37780
# Poissons Ratio (y) = 0.84116 -0.27363
# Poissons Ratio (z) = 0.42455 -0.07515
#
# Static dielectric constant tensor:
#      x y z
#    x 1.784120 0.000000 0.000000 
#    y 0.000000 1.812210 0.000000 
#    z 0.000000 0.000000 1.793490 
# 
# From -- ./inp_files/17000.got.cif
#   From: 2010.05.17/outbox.cif.g08.bks.cpg/sg20_9_cif.got.tgz:17000.got - 2010.06.03 22:52:26.
