data_PCOD9321450
_publ_section_title
;
Structure prediction by ZEFSAII (Michael W. Deem and Ramdas Pophale) SiO2 
 PCOD9321450
Probable space group: C 2 2 21
;
_chemical_formula_sum "Si O2"
_cell_formula_units_Z 40
_cell_length_a 26.684472
_cell_length_b 5.038575
_cell_length_c 13.178626
_cell_angle_alpha 90.000000
_cell_angle_beta 90.000000
_cell_angle_gamma 90.000000
_cell_volume 1771.888847
_symmetry_space_group_name_H-M "C 2 2 21"
_symmetry_group_IT_number 20
_symmetry_cell_setting 'orthorhombic'
loop_
_space_group_symop_operation_xyz
x,y,z
-x,-y,1/2+z
x,-y,-z
-x,y,1/2-z
1/2+x,1/2+y,z
1/2-x,1/2-y,1/2+z
1/2+x,1/2-y,-z
1/2-x,1/2+y,1/2-z
loop_
_atom_site_type_symbol
_atom_site_label
_atom_site_fract_x
_atom_site_fract_y
_atom_site_fract_z
Si Si1 0.611655 0.619220 0.784647
Si Si2 0.723750 0.798263 0.790848
Si Si3 0.331086 0.000000 0.000000
Si Si4 0.584041 0.107602 0.666328
Si Si5 0.071711 0.000000 0.000000
Si Si6 0.760328 0.000000 0.000000
Si Si7 0.999532 0.500000 0.000000
O O1 0.670410 0.669115 0.767589
O O2 0.588226 0.404324 0.708342
O O3 0.586416 0.901325 0.759338
O O4 0.604024 0.511918 0.897829
O O5 0.762972 0.558276 0.774992
O O6 0.727402 0.908579 0.904990
O O7 0.367905 0.938910 0.093890
O O8 0.296450 0.252444 0.023904
O O9 0.536289 0.046490 0.596865
O O10 0.035271 0.750477 0.007289
#
# Coordination Sequence:
#
# PCOD9321450 Si02
#       7
#     8   8   4   8   4   4   4
#     4  12  26  45  67  98 137 182 216 275 336 394
#     4  12  26  44  67  99 137 181 234 275 328 404
#     4  11  22  41  66 101 130 171 226 285 334 381
#     4  11  24  44  72  97 132 169 224 280 338 394
#     4  12  28  46  68  99 140 171 220 266 334 416
#     4  12  24  40  66  95 136 181 224 280 332 388
#     4  11  26  47  72 105 126 167 222 281 336 411
#
# _framework density 22.574778999999999
#
# number of rings (size 3 to 8) (size 9 to 14) (size 15 to 20)
#    0.000    0.400    0.000    9.600    0.000   12.800 
#    0.000    0.000    0.000    0.000    0.000    0.000 
#    0.000    0.000    0.000    0.000    0.000    0.000 
#
# Total GULP energy -112096.399386 kJ/mol
# GULP energy per Si atom -5604.819969 kJ/mol
# Density = 2.252340 g / cm^3
# Si number density = 22.574779 Si / 1000 Ang^3
#
#
#
# Elastic Constant Matrix: (Units=GPa)
#
#
# Indices 1 2 3 4 5 6 
#
# 1 55.6895 32.8850 19.4025 0.0000 0.0000 0.0000
# 2 32.8850 155.9697 16.2508 0.0000 0.0000 0.0000
# 3 19.4025 16.2508 103.1939 0.0000 0.0000 0.0000
# 4 0.0000 0.0000 0.0000 42.5881 0.0000 0.0000
# 5 0.0000 0.0000 0.0000 0.0000 25.2154 0.0000
# 6 0.0000 0.0000 0.0000 0.0000 0.0000 37.7024
#
#
#
# Elastic Compliance Matrix: (Units=1/GPa)
#
#
# Indices 1 2 3 4 5 6 
#
# 1 0.021626 -0.004205 -0.003404 0.000000 0.000000 0.000000
# 2 -0.004205 0.007336 -0.000365 0.000000 0.000000 0.000000
# 3 -0.003404 -0.000365 0.010388 0.000000 0.000000 0.000000
# 4 0.000000 0.000000 0.000000 0.023481 0.000000 0.000000
# 5 0.000000 0.000000 0.000000 0.000000 0.039658 0.000000
# 6 0.000000 0.000000 0.000000 0.000000 0.000000 0.026524
#
#
# Mechanical properties :
#
#
# Convention : Reuss Voigt Hill
#
# Bulk Modulus (GPa) = 42.73006 50.21440 46.47223
# Shear Modulus (GPa) = 32.73106 37.52216 35.12661
#
# Velocity S-wave (km/s) = 3.81188 4.08134 3.94891
# Velocity P-wave (km/s) = 6.19219 6.67096 6.43603
#
# Compressibility (1/GPa) = 0.02340273
#
# Stress axis : x y z
#
# Youngs Moduli (GPa) = 46.24131 136.31264 96.26572
#
# Poissons Ratio (x) = 0.57319 0.32768
# Poissons Ratio (y) = 0.19444 0.03510
# Poissons Ratio (z) = 0.15740 0.04971
#
# Static dielectric constant tensor:
#      x y z
#    x 1.813650 0.000000 0.000000 
#    y 0.000000 1.767790 0.000000 
#    z 0.000000 0.000000 1.869130 
# 
# From -- ./inp_files/16935.got.cif
#   From: 2010.05.17/outbox.cif.g08.bks.cpg/sg20_9_cif.got.tgz:16935.got - 2010.06.03 22:52:26.
