data_PCOD9321227
_publ_section_title
;
Structure prediction by ZEFSAII (Michael W. Deem and Ramdas Pophale) SiO2 
 PCOD9321227
Probable space group: C 2 2 21
;
_chemical_formula_sum "Si O2"
_cell_formula_units_Z 40
_cell_length_a 14.143752
_cell_length_b 15.392297
_cell_length_c 10.198933
_cell_angle_alpha 90.000000
_cell_angle_beta 90.000000
_cell_angle_gamma 90.000000
_cell_volume 2220.356990
_symmetry_space_group_name_H-M "C 2 2 21"
_symmetry_group_IT_number 20
_symmetry_cell_setting 'orthorhombic'
loop_
_space_group_symop_operation_xyz
x,y,z
-x,-y,1/2+z
x,-y,-z
-x,y,1/2-z
1/2+x,1/2+y,z
1/2-x,1/2-y,1/2+z
1/2+x,1/2-y,-z
1/2-x,1/2+y,1/2-z
loop_
_atom_site_type_symbol
_atom_site_label
_atom_site_fract_x
_atom_site_fract_y
_atom_site_fract_z
Si Si1 0.132595 0.094107 0.052231
Si Si2 0.965512 0.337800 0.056338
Si Si3 0.332809 0.882860 0.827441
Si Si4 0.000000 0.510905 0.750000
Si Si5 0.000000 0.195867 0.250000
Si Si6 0.910983 0.763389 0.345911
O O1 0.228312 0.086621 0.137767
O O2 0.057631 0.137211 0.150171
O O3 0.136316 0.157778 0.925124
O O4 0.104738 0.000000 0.000000
O O5 0.003006 0.423828 0.127180
O O6 0.940255 0.263750 0.161996
O O7 0.877200 0.361550 0.968392
O O8 0.042762 0.297949 0.957675
O O9 0.340548 0.795914 0.739646
O O10 0.406587 0.951600 0.764131
O O11 0.000000 0.788405 0.250000
#
# Coordination Sequence:
#
# PCOD9321227 Si02
#       6
#     8   8   8   4   4   8
#     4  11  24  39  62  85 115 155 207 242 284 341
#     4   9  18  36  60  86 118 155 181 232 302 353
#     4  11  21  35  60  93 117 149 191 236 302 353
#     4  11  18  32  63  88 130 140 181 244 296 361
#     4   9  22  40  59  80 114 162 195 236 286 335
#     4   9  20  40  61  82 118 158 189 237 297 345
#
# _framework density 18.01512
#
# number of rings (size 3 to 8) (size 9 to 14) (size 15 to 20)
#    0.000    2.000    3.000    1.800    4.200    0.000 
#    3.600    0.000    4.400    0.000    0.000    0.000 
#    0.000    0.000    0.000    0.000    0.000    0.000 
#
# Total GULP energy -111461.845845 kJ/mol
# GULP energy per Si atom -5573.092292 kJ/mol
# Density = 1.797412 g / cm^3
# Si number density = 18.015120 Si / 1000 Ang^3
#
#
#
# Elastic Constant Matrix: (Units=GPa)
#
#
# Indices 1 2 3 4 5 6 
#
# 1 40.5071 43.3075 19.2080 0.0000 0.0000 0.0000
# 2 43.3075 124.1376 58.9177 0.0000 0.0000 0.0000
# 3 19.2080 58.9177 99.4435 0.0000 0.0000 0.0000
# 4 0.0000 0.0000 0.0000 37.8794 0.0000 0.0000
# 5 0.0000 0.0000 0.0000 0.0000 20.5380 0.0000
# 6 0.0000 0.0000 0.0000 0.0000 0.0000 6.4621
#
#
#
# Elastic Compliance Matrix: (Units=1/GPa)
#
#
# Indices 1 2 3 4 5 6 
#
# 1 0.039412 -0.014102 0.000742 0.000000 0.000000 0.000000
# 2 -0.014102 0.016253 -0.006905 0.000000 0.000000 0.000000
# 3 0.000742 -0.006905 0.014004 0.000000 0.000000 0.000000
# 4 0.000000 0.000000 0.000000 0.026400 0.000000 0.000000
# 5 0.000000 0.000000 0.000000 0.000000 0.048690 0.000000
# 6 0.000000 0.000000 0.000000 0.000000 0.000000 0.154748
#
#
# Mechanical properties :
#
#
# Convention : Reuss Voigt Hill
#
# Bulk Modulus (GPa) = 34.31885 56.32828 45.32356
# Shear Modulus (GPa) = 14.29598 22.48623 18.39110
#
# Velocity S-wave (km/s) = 2.82007 3.53680 3.19857
# Velocity P-wave (km/s) = 5.44932 6.92919 6.23333
#
# Compressibility (1/GPa) = 0.02913851
#
# Stress axis : x y z
#
# Youngs Moduli (GPa) = 25.37322 61.52836 71.40876
#
# Poissons Ratio (x) = 0.86766 -0.05301
# Poissons Ratio (y) = 0.35781 0.49311
# Poissons Ratio (z) = -0.01884 0.42488
#
# Static dielectric constant tensor:
#      x y z
#    x 1.697810 0.000000 0.000000 
#    y 0.000000 1.627000 0.000000 
#    z 0.000000 0.000000 1.636070 
# 
# From -- ./inp_files/14946.got.cif
#   From: 2010.05.17/outbox.cif.g08.bks.cpg/sg20_8_cif.got.tgz:14946.got - 2010.06.03 22:52:26.
