data_PCOD9321751
_publ_section_title
;
Structure prediction by ZEFSAII (Michael W. Deem and Ramdas Pophale) SiO2 
 PCOD9321751
Probable space group: C 2 2 21
;
_chemical_formula_sum "Si O2"
_cell_formula_units_Z 48
_cell_length_a 14.548121
_cell_length_b 9.552714
_cell_length_c 16.712713
_cell_angle_alpha 90.000000
_cell_angle_beta 90.000000
_cell_angle_gamma 90.000000
_cell_volume 2322.633231
_symmetry_space_group_name_H-M "C 2 2 21"
_symmetry_group_IT_number 20
_symmetry_cell_setting 'orthorhombic'
loop_
_space_group_symop_operation_xyz
x,y,z
-x,-y,1/2+z
x,-y,-z
-x,y,1/2-z
1/2+x,1/2+y,z
1/2-x,1/2-y,1/2+z
1/2+x,1/2-y,-z
1/2-x,1/2+y,1/2-z
loop_
_atom_site_type_symbol
_atom_site_label
_atom_site_fract_x
_atom_site_fract_y
_atom_site_fract_z
Si Si1 0.951009 0.501000 0.163829
Si Si2 0.378688 0.656197 0.531586
Si Si3 0.772300 0.684995 0.839139
Si Si4 0.958400 0.181709 0.839130
Si Si5 0.211148 0.990319 0.306703
Si Si6 0.871113 0.586066 0.575183
O O1 0.870037 0.390846 0.151392
O O2 0.916659 0.661125 0.159305
O O3 0.000000 0.481669 0.250000
O O4 0.032161 0.480007 0.100577
O O5 0.375095 0.500000 0.500000
O O6 0.285846 0.693314 0.579714
O O7 0.462510 0.674352 0.594101
O O8 0.387039 0.758520 0.456083
O O9 0.715379 0.584865 0.779138
O O10 0.783370 0.841911 0.804944
O O11 0.880271 0.065510 0.849960
O O12 0.000000 0.164180 0.750000
O O13 0.300241 0.932285 0.353057
O O14 0.833121 0.500000 0.500000
#
# Coordination Sequence:
#
# PCOD9321751 Si02
#       6
#     8   8   8   8   8   8
#     4  11  24  44  74 102 136 189 236 280 350 427
#     4  12  29  47  71 107 147 181 234 297 355 412
#     4  12  26  46  72 107 138 189 239 286 351 425
#     4  11  24  46  73 102 141 183 233 286 348 422
#     4  12  26  44  75 102 142 187 240 288 350 423
#     4  12  25  49  69 101 148 185 223 292 361 416
#
# _framework density 20.666198999999999
#
# number of rings (size 3 to 8) (size 9 to 14) (size 15 to 20)
#    0.000    0.333    6.667    1.000    7.000    3.333 
#    0.000    0.000    0.000    0.000    0.000    0.000 
#    0.000    0.000    0.000    0.000    0.000    0.000 
#
# Total GULP energy -134277.024628 kJ/mol
# GULP energy per Si atom -5594.876026 kJ/mol
# Density = 2.061916 g / cm^3
# Si number density = 20.666199 Si / 1000 Ang^3
#
#
#
# Elastic Constant Matrix: (Units=GPa)
#
#
# Indices 1 2 3 4 5 6 
#
# 1 85.4242 31.9533 -0.1605 0.0000 0.0000 0.0000
# 2 31.9533 160.9086 15.8359 0.0000 0.0000 0.0000
# 3 -0.1605 15.8359 38.2421 0.0000 0.0000 0.0000
# 4 0.0000 0.0000 0.0000 37.5760 0.0000 0.0000
# 5 0.0000 0.0000 0.0000 0.0000 23.3479 0.0000
# 6 0.0000 0.0000 0.0000 0.0000 0.0000 25.2579
#
#
#
# Elastic Compliance Matrix: (Units=1/GPa)
#
#
# Indices 1 2 3 4 5 6 
#
# 1 0.012693 -0.002633 0.001144 0.000000 0.000000 0.000000
# 2 -0.002633 0.007025 -0.002920 0.000000 0.000000 0.000000
# 3 0.001144 -0.002920 0.027363 0.000000 0.000000 0.000000
# 4 0.000000 0.000000 0.000000 0.026613 0.000000 0.000000
# 5 0.000000 0.000000 0.000000 0.000000 0.042830 0.000000
# 6 0.000000 0.000000 0.000000 0.000000 0.000000 0.039592
#
#
# Mechanical properties :
#
#
# Convention : Reuss Voigt Hill
#
# Bulk Modulus (GPa) = 26.13533 42.20358 34.16945
# Shear Modulus (GPa) = 28.13894 33.03276 30.58585
#
# Velocity S-wave (km/s) = 3.69398 4.00233 3.85124
# Velocity P-wave (km/s) = 5.55588 6.46715 6.02876
#
# Compressibility (1/GPa) = 0.03826239
#
# Stress axis : x y z
#
# Youngs Moduli (GPa) = 78.78106 142.34886 36.54543
#
# Poissons Ratio (x) = 0.37484 -0.04180
# Poissons Ratio (y) = 0.20745 0.10672
# Poissons Ratio (z) = -0.09010 0.41567
#
# Static dielectric constant tensor:
#      x y z
#    x 1.722590 0.000000 0.000000 
#    y 0.000000 1.724720 0.000000 
#    z 0.000000 0.000000 1.770660 
# 
# From -- ./inp_files/23489.got.cif
#   From: 2010.05.17/outbox.cif.g08.bks.cpg/sg20_12_cif.got.tgz:23489.got - 2010.06.03 22:52:26.
