data_PCOD9321058
_publ_section_title
;
Structure prediction by ZEFSAII (Michael W. Deem and Ramdas Pophale) SiO2 
 PCOD9321058
Probable space group: C 2 2 21
;
_chemical_formula_sum "Si O2"
_cell_formula_units_Z 36
_cell_length_a 12.643764
_cell_length_b 22.606986
_cell_length_c 5.716285
_cell_angle_alpha 90.000000
_cell_angle_beta 90.000000
_cell_angle_gamma 90.000000
_cell_volume 1633.928018
_symmetry_space_group_name_H-M "C 2 2 21"
_symmetry_group_IT_number 20
_symmetry_cell_setting 'orthorhombic'
loop_
_space_group_symop_operation_xyz
x,y,z
-x,-y,1/2+z
x,-y,-z
-x,y,1/2-z
1/2+x,1/2+y,z
1/2-x,1/2-y,1/2+z
1/2+x,1/2-y,-z
1/2-x,1/2+y,1/2-z
loop_
_atom_site_type_symbol
_atom_site_label
_atom_site_fract_x
_atom_site_fract_y
_atom_site_fract_z
Si Si1 0.108772 0.262767 0.398985
Si Si2 0.777564 0.160095 0.875452
Si Si3 0.194622 0.070389 0.006597
Si Si4 0.115082 0.369692 0.736474
Si Si5 0.000000 0.962677 0.750000
O O1 0.138697 0.196793 0.473205
O O2 0.212341 0.290084 0.270913
O O3 0.099032 0.304827 0.625196
O O4 0.000000 0.266584 0.250000
O O5 0.832422 0.109125 0.721316
O O6 0.682556 0.132860 0.028201
O O7 0.308757 0.095095 0.066458
O O8 0.103049 0.076601 0.199669
O O9 0.204452 0.000000 0.000000
O O10 0.000000 0.397357 0.750000
O O11 0.013952 0.000000 0.500000
#
# Coordination Sequence:
#
# PCOD9321058 Si02
#       5
#     8   8   8   8   4
#     4  11  22  42  69 104 150 196 250 316 392 473
#     4  11  23  43  73 105 147 198 253 315 395 467
#     4  10  26  48  72 107 147 199 260 323 390 469
#     4  11  23  43  71 101 148 198 241 324 388 469
#     4  10  24  50  80 104 152 206 254 332 392 452
#
# _framework density 22.032795
#
# number of rings (size 3 to 8) (size 9 to 14) (size 15 to 20)
#    0.000    1.333    4.444    0.000    6.222    0.000 
#    6.000    2.222    0.000    0.000    0.000    0.000 
#    0.000    0.000    0.000    0.000    0.000    0.000 
#
# Total GULP energy -100414.744528 kJ/mol
# GULP energy per Si atom -5578.596918 kJ/mol
# Density = 2.198265 g / cm^3
# Si number density = 22.032795 Si / 1000 Ang^3
#
#
#
# Elastic Constant Matrix: (Units=GPa)
#
#
# Indices 1 2 3 4 5 6 
#
# 1 119.0198 33.1045 16.0622 0.0000 0.0000 0.0000
# 2 33.1045 123.5806 36.2217 0.0000 0.0000 0.0000
# 3 16.0622 36.2217 81.6728 0.0000 0.0000 0.0000
# 4 0.0000 0.0000 0.0000 32.6668 0.0000 0.0000
# 5 0.0000 0.0000 0.0000 0.0000 49.7947 0.0000
# 6 0.0000 0.0000 0.0000 0.0000 0.0000 23.5994
#
#
#
# Elastic Compliance Matrix: (Units=1/GPa)
#
#
# Indices 1 2 3 4 5 6 
#
# 1 0.009126 -0.002205 -0.000817 0.000000 0.000000 0.000000
# 2 -0.002205 0.009834 -0.003928 0.000000 0.000000 0.000000
# 3 -0.000817 -0.003928 0.014146 0.000000 0.000000 0.000000
# 4 0.000000 0.000000 0.000000 0.030612 0.000000 0.000000
# 5 0.000000 0.000000 0.000000 0.000000 0.020082 0.000000
# 6 0.000000 0.000000 0.000000 0.000000 0.000000 0.042374
#
#
# Mechanical properties :
#
#
# Convention : Reuss Voigt Hill
#
# Bulk Modulus (GPa) = 52.06457 55.00555 53.53506
# Shear Modulus (GPa) = 34.13539 37.13782 35.63660
#
# Velocity S-wave (km/s) = 3.94038 4.11002 4.02610
# Velocity P-wave (km/s) = 6.66213 6.89511 6.77962
#
# Compressibility (1/GPa) = 0.01920692
#
# Stress axis : x y z
#
# Youngs Moduli (GPa) = 109.58271 101.69036 70.68903
#
# Poissons Ratio (x) = 0.22424 0.05773
# Poissons Ratio (y) = 0.24165 0.27764
# Poissons Ratio (z) = 0.08950 0.39940
#
# Static dielectric constant tensor:
#      x y z
#    x 1.819440 0.000000 0.000000 
#    y 0.000000 1.844780 0.000000 
#    z 0.000000 0.000000 1.960640 
# 
# From -- ./inp_files/1207.got.cif
#   From: 2010.05.17/outbox.cif.g08.bks.cpg/sg20_1_cif.got.tgz:1207.got - 2010.06.03 22:52:26.
