data_PCOD9321373
_publ_section_title
;
Structure prediction by ZEFSAII (Michael W. Deem and Ramdas Pophale) SiO2 
 PCOD9321373
Probable space group: C 2 2 21
;
_chemical_formula_sum "Si O2"
_cell_formula_units_Z 48
_cell_length_a 9.453992
_cell_length_b 26.328810
_cell_length_c 8.394301
_cell_angle_alpha 90.000000
_cell_angle_beta 90.000000
_cell_angle_gamma 90.000000
_cell_volume 2089.445265
_symmetry_space_group_name_H-M "C 2 2 21"
_symmetry_group_IT_number 20
_symmetry_cell_setting 'orthorhombic'
loop_
_space_group_symop_operation_xyz
x,y,z
-x,-y,1/2+z
x,-y,-z
-x,y,1/2-z
1/2+x,1/2+y,z
1/2-x,1/2-y,1/2+z
1/2+x,1/2-y,-z
1/2-x,1/2+y,1/2-z
loop_
_atom_site_type_symbol
_atom_site_label
_atom_site_fract_x
_atom_site_fract_y
_atom_site_fract_z
Si Si1 0.417861 0.785596 0.400770
Si Si2 0.662244 0.895286 0.797952
Si Si3 0.617619 0.371566 0.131633
Si Si4 0.603843 0.548138 0.107936
Si Si5 0.304782 0.199516 0.093125
Si Si6 0.642399 0.903679 0.161007
O O1 0.500000 0.762342 0.250000
O O2 0.533229 0.789999 0.542036
O O3 0.278589 0.752113 0.412042
O O4 0.378671 0.842916 0.357438
O O5 0.500000 0.897326 0.750000
O O6 0.753026 0.930381 0.682752
O O7 0.706482 0.836719 0.750410
O O8 0.670563 0.916662 0.977324
O O9 0.500000 0.349181 0.250000
O O10 0.720365 0.409427 0.229640
O O11 0.542457 0.405116 0.996345
O O12 0.722551 0.332791 0.043561
O O13 0.500000 0.535253 0.250000
O O14 0.626816 0.500000 0.000000
O O15 0.500000 0.923179 0.250000
#
# Coordination Sequence:
#
# PCOD9321373 Si02
#       6
#     8   8   8   8   8   8
#     4  11  24  39  59  94 132 190 237 287 337 388
#     4  11  23  44  72  99 138 182 228 285 342 402
#     4  11  23  41  67  97 130 183 230 274 345 413
#     4  11  25  48  74 108 140 170 216 275 346 419
#     4  11  25  40  61  96 138 188 238 291 338 392
#     4  11  21  43  64  91 135 183 227 282 339 389
#
# _framework density 22.972605000000001
#
# number of rings (size 3 to 8) (size 9 to 14) (size 15 to 20)
#    0.000    1.000    5.000    2.500    4.667    2.667 
#    0.000    3.333    0.000    0.000    0.000    0.000 
#    0.000    0.000    0.000    0.000    0.000    0.000 
#
# Total GULP energy -134107.590875 kJ/mol
# GULP energy per Si atom -5587.816286 kJ/mol
# Density = 2.292032 g / cm^3
# Si number density = 22.972605 Si / 1000 Ang^3
#
#
#
# Elastic Constant Matrix: (Units=GPa)
#
#
# Indices 1 2 3 4 5 6 
#
# 1 90.0242 21.5907 17.4517 0.0000 0.0000 0.0000
# 2 21.5907 49.0719 1.7541 0.0000 0.0000 0.0000
# 3 17.4517 1.7541 90.6049 0.0000 0.0000 0.0000
# 4 0.0000 0.0000 0.0000 17.6348 0.0000 0.0000
# 5 0.0000 0.0000 0.0000 0.0000 49.2877 0.0000
# 6 0.0000 0.0000 0.0000 0.0000 0.0000 18.0604
#
#
#
# Elastic Compliance Matrix: (Units=1/GPa)
#
#
# Indices 1 2 3 4 5 6 
#
# 1 0.012911 -0.005596 -0.002379 0.000000 0.000000 0.000000
# 2 -0.005596 0.022818 0.000636 0.000000 0.000000 0.000000
# 3 -0.002379 0.000636 0.011483 0.000000 0.000000 0.000000
# 4 0.000000 0.000000 0.000000 0.056706 0.000000 0.000000
# 5 0.000000 0.000000 0.000000 0.000000 0.020289 0.000000
# 6 0.000000 0.000000 0.000000 0.000000 0.000000 0.055370
#
#
# Mechanical properties :
#
#
# Convention : Reuss Voigt Hill
#
# Bulk Modulus (GPa) = 30.73595 34.58822 32.66209
# Shear Modulus (GPa) = 24.37859 29.59020 26.98440
#
# Velocity S-wave (km/s) = 3.26114 3.59286 3.43101
# Velocity P-wave (km/s) = 5.25248 5.68335 5.47216
#
# Compressibility (1/GPa) = 0.03253519
#
# Stress axis : x y z
#
# Youngs Moduli (GPa) = 77.45185 43.82597 87.08711
#
# Poissons Ratio (x) = 0.24524 0.20714
# Poissons Ratio (y) = 0.43340 -0.05539
# Poissons Ratio (z) = 0.18422 -0.02788
#
# Static dielectric constant tensor:
#      x y z
#    x 1.874070 0.000000 0.000000 
#    y 0.000000 1.845710 0.000000 
#    z 0.000000 0.000000 1.962150 
# 
# From -- ./inp_files/6524.got.cif
#   From: 2010.05.17/outbox.cif.g08.bks.cpg/sg20_4_cif.got.tgz:6524.got - 2010.06.03 22:52:26.
