data_PCOD9321630
_publ_section_title
;
Structure prediction by ZEFSAII (Michael W. Deem and Ramdas Pophale) SiO2 
 PCOD9321630
Probable space group: C 2 2 21
;
_chemical_formula_sum "Si O2"
_cell_formula_units_Z 48
_cell_length_a 10.847340
_cell_length_b 11.549048
_cell_length_c 16.651883
_cell_angle_alpha 90.000000
_cell_angle_beta 90.000000
_cell_angle_gamma 90.000000
_cell_volume 2086.088794
_symmetry_space_group_name_H-M "C 2 2 21"
_symmetry_group_IT_number 20
_symmetry_cell_setting 'orthorhombic'
loop_
_space_group_symop_operation_xyz
x,y,z
-x,-y,1/2+z
x,-y,-z
-x,y,1/2-z
1/2+x,1/2+y,z
1/2-x,1/2-y,1/2+z
1/2+x,1/2-y,-z
1/2-x,1/2+y,1/2-z
loop_
_atom_site_type_symbol
_atom_site_label
_atom_site_fract_x
_atom_site_fract_y
_atom_site_fract_z
Si Si1 0.537809 0.623498 0.658609
Si Si2 0.051317 0.344345 0.915021
Si Si3 0.534247 0.723121 0.085185
Si Si4 0.193938 0.009069 0.093493
Si Si5 0.700473 0.441826 0.584173
Si Si6 0.943591 0.553881 0.834500
O O1 0.500000 0.607985 0.750000
O O2 0.535641 0.757386 0.634770
O O3 0.427429 0.569373 0.605035
O O4 0.658731 0.548761 0.639631
O O5 0.190646 0.361028 0.883583
O O6 0.995964 0.470778 0.903972
O O7 0.059901 0.292664 0.003753
O O8 0.648058 0.640414 0.108630
O O9 0.418542 0.638116 0.070017
O O10 0.491635 0.816860 0.149931
O O11 0.297791 0.961877 0.153332
O O12 0.232875 0.000000 0.000000
O O13 0.738769 0.500000 0.500000
O O14 0.000000 0.513922 0.750000
#
# Coordination Sequence:
#
# PCOD9321630 Si02
#       6
#     8   8   8   8   8   8
#     4  11  24  45  72 104 146 186 238 304 372 425
#     4  12  24  44  70 105 141 191 239 298 364 437
#     4  11  23  45  75 103 138 194 248 299 362 442
#     4  11  23  49  78 101 142 195 250 302 366 445
#     4  11  23  44  74 104 138 184 248 299 360 440
#     4  12  29  46  65 110 154 184 243 306 372 438
#
# _framework density 23.009568999999999
#
# number of rings (size 3 to 8) (size 9 to 14) (size 15 to 20)
#    0.000    0.667    3.333    5.000    4.667    4.000 
#    3.000    0.000    0.000    0.000    0.000    0.000 
#    0.000    0.000    0.000    0.000    0.000    0.000 
#
# Total GULP energy -134262.653475 kJ/mol
# GULP energy per Si atom -5594.277228 kJ/mol
# Density = 2.295720 g / cm^3
# Si number density = 23.009569 Si / 1000 Ang^3
#
#
#
# Elastic Constant Matrix: (Units=GPa)
#
#
# Indices 1 2 3 4 5 6 
#
# 1 82.9674 31.1911 -4.1247 0.0000 0.0000 0.0000
# 2 31.1911 131.0075 18.1423 0.0000 0.0000 0.0000
# 3 -4.1247 18.1423 58.6993 0.0000 0.0000 0.0000
# 4 0.0000 0.0000 0.0000 21.5563 0.0000 0.0000
# 5 0.0000 0.0000 0.0000 0.0000 18.8693 0.0000
# 6 0.0000 0.0000 0.0000 0.0000 0.0000 18.9257
#
#
#
# Elastic Compliance Matrix: (Units=1/GPa)
#
#
# Indices 1 2 3 4 5 6 
#
# 1 0.013464 -0.003486 0.002023 0.000000 0.000000 0.000000
# 2 -0.003486 0.008877 -0.002989 0.000000 0.000000 0.000000
# 3 0.002023 -0.002989 0.018102 0.000000 0.000000 0.000000
# 4 0.000000 0.000000 0.000000 0.046390 0.000000 0.000000
# 5 0.000000 0.000000 0.000000 0.000000 0.052996 0.000000
# 6 0.000000 0.000000 0.000000 0.000000 0.000000 0.052838
#
#
# Mechanical properties :
#
#
# Convention : Reuss Voigt Hill
#
# Bulk Modulus (GPa) = 31.70483 40.34353 36.02418
# Shear Modulus (GPa) = 23.57571 27.03463 25.30517
#
# Velocity S-wave (km/s) = 3.20442 3.43144 3.31987
# Velocity P-wave (km/s) = 5.24404 5.76812 5.51231
#
# Compressibility (1/GPa) = 0.03154094
#
# Stress axis : x y z
#
# Youngs Moduli (GPa) = 74.27222 112.65148 55.24303
#
# Poissons Ratio (x) = 0.39268 -0.11178
# Poissons Ratio (y) = 0.25890 0.16510
# Poissons Ratio (z) = -0.15029 0.33667
#
# Static dielectric constant tensor:
#      x y z
#    x 1.921480 0.000000 0.000000 
#    y 0.000000 1.879560 0.000000 
#    z 0.000000 0.000000 1.855180 
# 
# From -- ./inp_files/24226.got.cif
#   From: 2010.05.17/outbox.cif.g08.bks.cpg/sg20_13_cif.got.tgz:24226.got - 2010.06.03 22:52:26.
