data_PCOD9321216
_publ_section_title
;
Structure prediction by ZEFSAII (Michael W. Deem and Ramdas Pophale) SiO2 
 PCOD9321216
Probable space group: C 2 2 21
;
_chemical_formula_sum "Si O2"
_cell_formula_units_Z 40
_cell_length_a 13.380390
_cell_length_b 5.100855
_cell_length_c 23.920751
_cell_angle_alpha 90.000000
_cell_angle_beta 90.000000
_cell_angle_gamma 90.000000
_cell_volume 1632.625444
_symmetry_space_group_name_H-M "C 2 2 21"
_symmetry_group_IT_number 20
_symmetry_cell_setting 'orthorhombic'
loop_
_space_group_symop_operation_xyz
x,y,z
-x,-y,1/2+z
x,-y,-z
-x,y,1/2-z
1/2+x,1/2+y,z
1/2-x,1/2-y,1/2+z
1/2+x,1/2-y,-z
1/2-x,1/2+y,1/2-z
loop_
_atom_site_type_symbol
_atom_site_label
_atom_site_fract_x
_atom_site_fract_y
_atom_site_fract_z
Si Si1 0.955043 0.819768 0.073556
Si Si2 0.115795 0.000000 0.000000
Si Si3 0.500000 0.034806 0.250000
Si Si4 0.468698 0.158602 0.630714
Si Si5 0.737438 0.779679 0.093998
Si Si6 0.708500 0.257906 0.278838
O O1 0.838343 0.893881 0.066899
O O2 0.953253 0.542282 0.104353
O O3 0.004350 0.050259 0.110797
O O4 0.031511 0.794077 0.021655
O O5 0.189507 0.921251 0.950104
O O6 0.592210 0.210479 0.268933
O O7 0.531173 0.862245 0.197043
O O8 0.362048 0.053109 0.607700
O O9 0.763920 0.691981 0.157179
O O10 0.736491 0.552944 0.262176
#
# Coordination Sequence:
#
# PCOD9321216 Si02
#       6
#     8   4   4   8   8   8
#     4  11  27  49  70 108 143 194 239 310 362 425
#     4  10  28  48  76 108 144 194 258 306 362 436
#     4  12  26  46  76 112 152 196 238 302 366 444
#     4  11  27  44  74 108 149 186 246 292 365 443
#     4  11  26  49  77 107 151 195 250 302 370 436
#     4  12  29  46  75 113 149 194 241 300 374 444
#
# _framework density 24.500416000000001
#
# number of rings (size 3 to 8) (size 9 to 14) (size 15 to 20)
#    0.000    0.800    4.000    0.000    8.400   12.800 
#    0.000    0.000    0.000    0.000    0.000    0.000 
#    0.000    0.000    0.000    0.000    0.000    0.000 
#
# Total GULP energy -111717.840079 kJ/mol
# GULP energy per Si atom -5585.892004 kJ/mol
# Density = 2.444465 g / cm^3
# Si number density = 24.500416 Si / 1000 Ang^3
#
#
#
# Elastic Constant Matrix: (Units=GPa)
#
#
# Indices 1 2 3 4 5 6 
#
# 1 156.2167 -16.2832 15.0900 0.0000 0.0000 0.0000
# 2 -16.2832 56.2216 9.9198 0.0000 0.0000 0.0000
# 3 15.0900 9.9198 100.3519 0.0000 0.0000 0.0000
# 4 0.0000 0.0000 0.0000 25.6491 0.0000 0.0000
# 5 0.0000 0.0000 0.0000 0.0000 38.3850 0.0000
# 6 0.0000 0.0000 0.0000 0.0000 0.0000 28.0822
#
#
#
# Elastic Compliance Matrix: (Units=1/GPa)
#
#
# Indices 1 2 3 4 5 6 
#
# 1 0.006746 0.002171 -0.001229 0.000000 0.000000 0.000000
# 2 0.002171 0.018801 -0.002185 0.000000 0.000000 0.000000
# 3 -0.001229 -0.002185 0.010366 0.000000 0.000000 0.000000
# 4 0.000000 0.000000 0.000000 0.038988 0.000000 0.000000
# 5 0.000000 0.000000 0.000000 0.000000 0.026052 0.000000
# 6 0.000000 0.000000 0.000000 0.000000 0.000000 0.035610
#
#
# Mechanical properties :
#
#
# Convention : Reuss Voigt Hill
#
# Bulk Modulus (GPa) = 29.91619 36.69371 33.30495
# Shear Modulus (GPa) = 33.29096 38.69417 35.99257
#
# Velocity S-wave (km/s) = 3.69018 3.97839 3.83699
# Velocity P-wave (km/s) = 5.51303 6.00938 5.76655
#
# Compressibility (1/GPa) = 0.03342672
#
# Stress axis : x y z
#
# Youngs Moduli (GPa) = 148.22814 53.18869 96.47179
#
# Poissons Ratio (x) = -0.11546 0.11857
# Poissons Ratio (y) = -0.32177 0.21078
# Poissons Ratio (z) = 0.18218 0.11621
#
# Static dielectric constant tensor:
#      x y z
#    x 1.949080 0.000000 0.000000 
#    y 0.000000 1.892820 0.000000 
#    z 0.000000 0.000000 2.062050 
# 
# From -- ./inp_files/29234.got.cif
#   From: 2010.05.17/outbox.cif.g08.bks.cpg/sg20_15_cif.got.tgz:29234.got - 2010.06.03 22:52:26.
