data_PCOD9321702
_publ_section_title
;
Structure prediction by ZEFSAII (Michael W. Deem and Ramdas Pophale) SiO2 
 PCOD9321702
Probable space group: C 2 2 21
;
_chemical_formula_sum "Si O2"
_cell_formula_units_Z 60
_cell_length_a 28.290311
_cell_length_b 5.578510
_cell_length_c 16.613377
_cell_angle_alpha 90.000000
_cell_angle_beta 90.000000
_cell_angle_gamma 90.000000
_cell_volume 2621.886323
_symmetry_space_group_name_H-M "C 2 2 21"
_symmetry_group_IT_number 20
_symmetry_cell_setting 'orthorhombic'
loop_
_space_group_symop_operation_xyz
x,y,z
-x,-y,1/2+z
x,-y,-z
-x,y,1/2-z
1/2+x,1/2+y,z
1/2-x,1/2-y,1/2+z
1/2+x,1/2-y,-z
1/2-x,1/2+y,1/2-z
loop_
_atom_site_type_symbol
_atom_site_label
_atom_site_fract_x
_atom_site_fract_y
_atom_site_fract_z
Si Si1 0.246201 0.127096 0.163261
Si Si2 0.013976 0.500000 0.500000
Si Si3 0.061869 0.840812 0.920090
Si Si4 0.676488 0.490874 0.301953
Si Si5 0.165324 0.254992 0.048176
Si Si6 0.571961 0.022434 0.344239
Si Si7 0.570297 0.488289 0.745443
Si Si8 0.826130 0.606730 0.910706
O O1 0.295689 0.249825 0.182644
O O2 0.215302 0.111580 0.243369
O O3 0.210852 0.258561 0.104195
O O4 0.270226 0.908975 0.115192
O O5 0.048391 0.588371 0.429776
O O6 0.978821 0.336961 0.447728
O O7 0.114310 0.733856 0.907794
O O8 0.050519 0.965482 0.835716
O O9 0.066545 0.000000 0.000000
O O10 0.627631 0.492470 0.254243
O O11 0.665917 0.614018 0.387716
O O12 0.166571 0.500000 0.000000
O O13 0.167032 0.000000 0.000000
O O14 0.557874 0.250578 0.289999
O O15 0.559306 0.760268 0.304270
O O16 0.628234 0.002749 0.362501
O O17 0.829059 0.500000 0.000000
#
# Coordination Sequence:
#
# PCOD9321702 Si02
#       8
#     8   4   8   8   8   8   8   8
#     4  12  23  40  66 104 144 194 247 299 360 450
#     4  12  28  54  78 120 146 208 248 344 384 464
#     4  11  27  51  81 109 154 193 262 315 390 452
#     4  11  24  41  69 101 149 190 248 300 373 439
#     4  11  26  45  68 104 145 194 240 307 362 438
#     4  11  27  50  80 108 158 189 261 311 395 455
#     4  11  26  52  77 113 149 209 239 318 385 471
#     4  11  24  44  66 103 142 199 243 310 367 455
#
# _framework density 22.884285999999999
#
# number of rings (size 3 to 8) (size 9 to 14) (size 15 to 20)
#    0.000    0.800    5.333    0.400    7.467    0.533 
#    0.000    0.000    0.000    0.000    0.000    0.000 
#    0.000    0.000    0.000    0.000    0.000    0.000 
#
# Total GULP energy -167025.638201 kJ/mol
# GULP energy per Si atom -5567.521273 kJ/mol
# Density = 2.283220 g / cm^3
# Si number density = 22.884286 Si / 1000 Ang^3
#
#
#
# Elastic Constant Matrix: (Units=GPa)
#
#
# Indices 1 2 3 4 5 6 
#
# 1 98.9907 19.0667 12.2397 0.0000 0.0000 0.0000
# 2 19.0667 61.4729 18.2155 0.0000 0.0000 0.0000
# 3 12.2397 18.2155 84.4076 0.0000 0.0000 0.0000
# 4 0.0000 0.0000 0.0000 18.2949 0.0000 0.0000
# 5 0.0000 0.0000 0.0000 0.0000 -28.6599 0.0000
# 6 0.0000 0.0000 0.0000 0.0000 0.0000 76.6090
#
#
#
# Elastic Compliance Matrix: (Units=1/GPa)
#
#
# Indices 1 2 3 4 5 6 
#
# 1 0.010808 -0.003085 -0.000901 0.000000 0.000000 0.000000
# 2 -0.003085 0.018259 -0.003493 0.000000 0.000000 0.000000
# 3 -0.000901 -0.003493 0.012732 0.000000 0.000000 0.000000
# 4 0.000000 0.000000 0.000000 0.054660 0.000000 0.000000
# 5 0.000000 0.000000 0.000000 0.000000 -0.034892 0.000000
# 6 0.000000 0.000000 0.000000 0.000000 0.000000 0.013053
#
#
# Mechanical properties :
#
#
# Convention : Reuss Voigt Hill
#
# Bulk Modulus (GPa) = 37.25832 38.21278 37.73555
# Shear Modulus (GPa) = 50.74824 26.27209 38.51017
#
# Velocity S-wave (km/s) = 4.71425 3.39195 4.10667
# Velocity P-wave (km/s) = 6.77855 5.66348 6.24595
#
# Compressibility (1/GPa) = 0.02683964
#
# Stress axis : x y z
#
# Youngs Moduli (GPa) = 92.52729 54.76679 78.54353
#
# Poissons Ratio (x) = 0.16896 0.07080
# Poissons Ratio (y) = 0.28545 0.27436
# Poissons Ratio (z) = 0.08341 0.19130
#
# Static dielectric constant tensor:
#      x y z
#    x 2.333530 0.000000 0.000000 
#    y 0.000000 2.134650 0.000000 
#    z 0.000000 0.000000 0.602310 
# 
# From -- ./inp_files/25705.got.cif
#   From: 2010.05.17/outbox.cif.g08.bks.cpg/sg20_13_cif.got.tgz:25705.got - 2010.06.03 22:52:26.
