data_PCOD9321427
_publ_section_title
;
Structure prediction by ZEFSAII (Michael W. Deem and Ramdas Pophale) SiO2 
 PCOD9321427
Probable space group: C 2 2 21
;
_chemical_formula_sum "Si O2"
_cell_formula_units_Z 44
_cell_length_a 5.416045
_cell_length_b 13.426510
_cell_length_c 25.363085
_cell_angle_alpha 90.000000
_cell_angle_beta 90.000000
_cell_angle_gamma 90.000000
_cell_volume 1844.367585
_symmetry_space_group_name_H-M "C 2 2 21"
_symmetry_group_IT_number 20
_symmetry_cell_setting 'orthorhombic'
loop_
_space_group_symop_operation_xyz
x,y,z
-x,-y,1/2+z
x,-y,-z
-x,y,1/2-z
1/2+x,1/2+y,z
1/2-x,1/2-y,1/2+z
1/2+x,1/2-y,-z
1/2-x,1/2+y,1/2-z
loop_
_atom_site_type_symbol
_atom_site_label
_atom_site_fract_x
_atom_site_fract_y
_atom_site_fract_z
Si Si1 0.285529 0.500000 0.000000
Si Si2 0.537913 0.443384 0.306069
Si Si3 0.555321 0.175015 0.462091
Si Si4 0.535563 0.186600 0.692400
Si Si5 0.835933 0.299417 0.081985
Si Si6 0.359674 0.506940 0.412783
O O1 0.133056 0.414739 0.972530
O O2 0.456445 0.542456 0.954555
O O3 0.500000 0.495977 0.250000
O O4 0.807233 0.392471 0.308969
O O5 0.485531 0.511356 0.356326
O O6 0.311476 0.362696 0.306494
O O7 0.437762 0.251549 0.420899
O O8 0.583728 0.218809 0.521245
O O9 0.778484 0.111547 0.437223
O O10 0.500000 0.237494 0.750000
O O11 0.534058 0.239298 0.635152
O O12 0.847140 0.419924 0.088739
#
# Coordination Sequence:
#
# PCOD9321427 Si02
#       6
#     4   8   8   8   8   8
#     4  12  20  40  60  88 144 172 220 288 346 412
#     4   9  19  36  65  99 128 175 232 282 341 412
#     4  12  24  39  61 101 137 183 226 284 357 419
#     4   9  19  38  65  99 129 173 233 285 336 411
#     4  11  22  41  63  99 135 178 233 280 354 419
#     4  11  22  40  62  96 137 174 227 289 340 420
#
# _framework density 23.856415999999999
#
# number of rings (size 3 to 8) (size 9 to 14) (size 15 to 20)
#    0.000    1.455    3.636    2.182    2.545    1.455 
#    0.000    0.000    0.000    1.091   18.909    0.000 
#    0.000    0.000    0.000    0.000    0.000    0.000 
#
# Total GULP energy -122650.114607 kJ/mol
# GULP energy per Si atom -5575.005209 kJ/mol
# Density = 2.380212 g / cm^3
# Si number density = 23.856416 Si / 1000 Ang^3
#
#
#
# Elastic Constant Matrix: (Units=GPa)
#
#
# Indices 1 2 3 4 5 6 
#
# 1 76.6904 18.7745 30.1678 0.0000 0.0000 0.0000
# 2 18.7745 87.0014 31.4848 0.0000 0.0000 0.0000
# 3 30.1678 31.4848 233.2704 0.0000 0.0000 0.0000
# 4 0.0000 0.0000 0.0000 19.6110 0.0000 0.0000
# 5 0.0000 0.0000 0.0000 0.0000 43.0363 0.0000
# 6 0.0000 0.0000 0.0000 0.0000 0.0000 -336.9312
#
#
#
# Elastic Compliance Matrix: (Units=1/GPa)
#
#
# Indices 1 2 3 4 5 6 
#
# 1 0.014250 -0.002532 -0.001501 0.000000 0.000000 0.000000
# 2 -0.002532 0.012534 -0.001364 0.000000 0.000000 0.000000
# 3 -0.001501 -0.001364 0.004665 0.000000 0.000000 0.000000
# 4 0.000000 0.000000 0.000000 0.050992 0.000000 0.000000
# 5 0.000000 0.000000 0.000000 0.000000 0.023236 0.000000
# 6 0.000000 0.000000 0.000000 0.000000 0.000000 -0.002968
#
#
# Mechanical properties :
#
#
# Convention : Reuss Voigt Hill
#
# Bulk Modulus (GPa) = 48.41551 61.97962 55.19756
# Shear Modulus (GPa) = 41.53229 -33.75443 3.88893
#
# Velocity S-wave (km/s) = 4.17697 -3.76560 1.27815
# Velocity P-wave (km/s) = 6.60313 2.67028 5.03645
#
# Compressibility (1/GPa) = 0.02065454
#
# Stress axis : x y z
#
# Youngs Moduli (GPa) = 70.17670 79.78204 214.35531
#
# Poissons Ratio (x) = 0.20199 0.32178
# Poissons Ratio (y) = 0.17767 0.29245
# Poissons Ratio (z) = 0.10534 0.10885
#
# Static dielectric constant tensor:
#      x y z
#    x 2.055510 0.000000 0.000000 
#    y 0.000000 1.944490 0.000000 
#    z 0.000000 0.000000 1.956750 
# 
# From -- ./inp_files/29768.got.cif
#   From: 2010.05.17/outbox.cif.g08.bks.cpg/sg20_15_cif.got.tgz:29768.got - 2010.06.03 22:52:26.
