data_PCOD9321918
_publ_section_title
;
Structure prediction by ZEFSAII (Michael W. Deem and Ramdas Pophale) SiO2 
 PCOD9321918
Probable space group: C 2 2 21
;
_chemical_formula_sum "Si O2"
_cell_formula_units_Z 36
_cell_length_a 11.581059
_cell_length_b 8.148110
_cell_length_c 14.427847
_cell_angle_alpha 90.000000
_cell_angle_beta 90.000000
_cell_angle_gamma 90.000000
_cell_volume 1361.465641
_symmetry_space_group_name_H-M "C 2 2 21"
_symmetry_group_IT_number 20
_symmetry_cell_setting 'orthorhombic'
loop_
_space_group_symop_operation_xyz
x,y,z
-x,-y,1/2+z
x,-y,-z
-x,y,1/2-z
1/2+x,1/2+y,z
1/2-x,1/2-y,1/2+z
1/2+x,1/2-y,-z
1/2-x,1/2+y,1/2-z
loop_
_atom_site_type_symbol
_atom_site_label
_atom_site_fract_x
_atom_site_fract_y
_atom_site_fract_z
Si Si1 0.938639 0.520559 0.650445
Si Si2 0.247993 0.430952 0.281743
Si Si3 0.585392 0.696850 0.401919
Si Si4 0.145208 0.349489 0.571764
Si Si5 0.500000 0.553661 0.750000
O O1 0.806556 0.527472 0.680969
O O2 0.000000 0.544917 0.750000
O O3 0.976068 0.676942 0.589952
O O4 0.014435 0.371799 0.610534
O O5 0.175293 0.292864 0.335393
O O6 0.230436 0.596868 0.344620
O O7 0.377720 0.368517 0.273426
O O8 0.642996 0.692915 0.503956
O O9 0.534782 0.551038 0.341222
O O10 0.165985 0.500000 0.500000
#
# Coordination Sequence:
#
# PCOD9321918 Si02
#       5
#     8   8   8   8   4
#     4   7  11  27  51  69  94 126 163 204 244 292
#     4   9  17  30  51  76 104 129 172 208 250 305
#     4   9  16  34  55  72 100 135 171 206 254 302
#     4   7  13  28  55  71  95 138 161 210 259 285
#     4  12  20  30  56  74 102 142 164 206 258 302
#
# _framework density 26.44209
#
# number of rings (size 3 to 8) (size 9 to 14) (size 15 to 20)
#    0.000    4.444    3.333    0.000    0.000    0.000 
#    4.000    0.000   12.222   12.000    0.000    0.000 
#    0.000    0.000    0.000    0.000    0.000    0.000 
#
# Total GULP energy -100299.366713 kJ/mol
# GULP energy per Si atom -5572.187040 kJ/mol
# Density = 2.638191 g / cm^3
# Si number density = 26.442090 Si / 1000 Ang^3
#
#
#
# Elastic Constant Matrix: (Units=GPa)
#
#
# Indices 1 2 3 4 5 6 
#
# 1 163.1303 21.8803 39.3335 0.0000 0.0000 0.0000
# 2 21.8803 54.0193 8.5500 0.0000 0.0000 0.0000
# 3 39.3335 8.5500 107.9619 0.0000 0.0000 0.0000
# 4 0.0000 0.0000 0.0000 33.4537 0.0000 0.0000
# 5 0.0000 0.0000 0.0000 0.0000 28.7823 0.0000
# 6 0.0000 0.0000 0.0000 0.0000 0.0000 33.8381
#
#
#
# Elastic Compliance Matrix: (Units=1/GPa)
#
#
# Indices 1 2 3 4 5 6 
#
# 1 0.007032 -0.002474 -0.002366 0.000000 0.000000 0.000000
# 2 -0.002474 0.019617 -0.000652 0.000000 0.000000 0.000000
# 3 -0.002366 -0.000652 0.010176 0.000000 0.000000 0.000000
# 4 0.000000 0.000000 0.000000 0.029892 0.000000 0.000000
# 5 0.000000 0.000000 0.000000 0.000000 0.034744 0.000000
# 6 0.000000 0.000000 0.000000 0.000000 0.000000 0.029552
#
#
# Mechanical properties :
#
#
# Convention : Reuss Voigt Hill
#
# Bulk Modulus (GPa) = 38.69804 51.62658 45.16231
# Shear Modulus (GPa) = 33.19780 36.23801 34.71790
#
# Velocity S-wave (km/s) = 3.54713 3.70600 3.62744
# Velocity P-wave (km/s) = 5.60741 6.15462 5.88737
#
# Compressibility (1/GPa) = 0.02584110
#
# Stress axis : x y z
#
# Youngs Moduli (GPa) = 142.19850 50.97568 98.26807
#
# Poissons Ratio (x) = 0.12611 0.23252
# Poissons Ratio (y) = 0.35179 0.06410
# Poissons Ratio (z) = 0.33647 0.03325
#
# Static dielectric constant tensor:
#      x y z
#    x 2.143020 0.000000 0.000000 
#    y 0.000000 2.231440 0.000000 
#    z 0.000000 0.000000 2.138500 
# 
# From -- ./inp_files/19607.got.cif
#   From: 2010.05.17/outbox.cif.g08.bks.cpg/sg20_10_cif.got.tgz:19607.got - 2010.06.03 22:52:26.
