data_PCOD9321240
_publ_section_title
;
Structure prediction by ZEFSAII (Michael W. Deem and Ramdas Pophale) SiO2 
 PCOD9321240
Probable space group: C 2 2 21
;
_chemical_formula_sum "Si O2"
_cell_formula_units_Z 64
_cell_length_a 12.656101
_cell_length_b 15.489457
_cell_length_c 17.054401
_cell_angle_alpha 90.000000
_cell_angle_beta 90.000000
_cell_angle_gamma 90.000000
_cell_volume 3343.278809
_symmetry_space_group_name_H-M "C 2 2 21"
_symmetry_group_IT_number 20
_symmetry_cell_setting 'orthorhombic'
loop_
_space_group_symop_operation_xyz
x,y,z
-x,-y,1/2+z
x,-y,-z
-x,y,1/2-z
1/2+x,1/2+y,z
1/2-x,1/2-y,1/2+z
1/2+x,1/2-y,-z
1/2-x,1/2+y,1/2-z
loop_
_atom_site_type_symbol
_atom_site_label
_atom_site_fract_x
_atom_site_fract_y
_atom_site_fract_z
Si Si1 0.734745 0.663196 0.799731
Si Si2 0.765254 0.163197 0.299731
Si Si3 0.087179 0.092591 0.319132
Si Si4 0.043101 0.225908 0.907622
Si Si5 0.956899 0.774091 0.592378
Si Si6 0.412821 0.592591 0.819133
Si Si7 0.962803 0.401152 0.159544
Si Si8 0.462803 0.901151 0.840456
O O1 0.749999 0.750000 0.750000
O O2 0.644014 0.685195 0.862990
O O3 0.693362 0.600202 0.731090
O O4 0.839836 0.626697 0.839078
O O5 0.806638 0.100202 0.231090
O O6 0.855986 0.185196 0.362989
O O7 0.660164 0.126697 0.339078
O O8 0.000000 0.095134 0.250000
O O9 0.057859 0.172092 0.374646
O O10 0.080277 0.000000 0.360153
O O11 0.942141 0.172091 0.874647
O O12 0.026331 0.326112 0.885208
O O13 0.052782 0.215882 0.000000
O O14 0.973669 0.673888 0.614792
O O15 0.500000 0.595134 0.750000
O O16 0.975771 0.500000 0.131487
O O17 0.000000 0.397677 0.250000
O O18 0.500000 0.897677 0.750000
#
# Coordination Sequence:
#
# PCOD9321240 Si02
#       8
#     8   8   8   8   8   8   8   8
#     4  11  19  38  63  87 115 158 206 248 292 357
#     4  11  19  38  63  87 115 158 206 248 292 357
#     4   9  18  35  60  86 113 149 196 245 290 349
#     4  11  23  38  58  88 126 158 193 252 314 362
#     4  11  23  38  58  88 126 158 193 252 314 362
#     4   9  18  35  60  86 113 149 196 245 290 349
#     4  11  22  39  64  91 118 158 208 252 299 362
#     4  11  22  39  64  91 118 158 208 252 299 362
#
# _framework density 19.142883999999999
#
# number of rings (size 3 to 8) (size 9 to 14) (size 15 to 20)
#    0.000    1.500    5.000    1.500    0.000    3.000 
#    0.000    0.000    0.000    0.000    0.000    0.000 
#    0.000    0.000    0.000    0.000    0.000    0.000 
#
# Total GULP energy -178423.110131 kJ/mol
# GULP energy per Si atom -5575.722192 kJ/mol
# Density = 1.909931 g / cm^3
# Si number density = 19.142884 Si / 1000 Ang^3
#
#
#
# Elastic Constant Matrix: (Units=GPa)
#
#
# Indices 1 2 3 4 5 6 
#
# 1 68.6929 14.4449 20.4352 0.0000 0.0000 0.0000
# 2 14.4449 145.4392 43.2940 0.0000 0.0000 0.0000
# 3 20.4352 43.2940 97.6300 0.0000 0.0000 0.0000
# 4 0.0000 0.0000 0.0000 9.2744 0.0000 0.0000
# 5 0.0000 0.0000 0.0000 0.0000 15.2344 0.0000
# 6 0.0000 0.0000 0.0000 0.0000 0.0000 17.4775
#
#
#
# Elastic Compliance Matrix: (Units=1/GPa)
#
#
# Indices 1 2 3 4 5 6 
#
# 1 0.015580 -0.000664 -0.002966 0.000000 0.000000 0.000000
# 2 -0.000664 0.007950 -0.003386 0.000000 0.000000 0.000000
# 3 -0.002966 -0.003386 0.012365 0.000000 0.000000 0.000000
# 4 0.000000 0.000000 0.000000 0.107823 0.000000 0.000000
# 5 0.000000 0.000000 0.000000 0.000000 0.065641 0.000000
# 6 0.000000 0.000000 0.000000 0.000000 0.000000 0.057216
#
#
# Mechanical properties :
#
#
# Convention : Reuss Voigt Hill
#
# Bulk Modulus (GPa) = 45.74419 52.01227 48.87823
# Shear Modulus (GPa) = 17.36737 23.96981 20.66859
#
# Velocity S-wave (km/s) = 3.01533 3.54242 3.28944
# Velocity P-wave (km/s) = 6.00591 6.63032 6.32583
#
# Compressibility (1/GPa) = 0.02186070
#
# Stress axis : x y z
#
# Youngs Moduli (GPa) = 64.18605 125.79059 80.87146
#
# Poissons Ratio (x) = 0.08356 0.23990
# Poissons Ratio (y) = 0.04264 0.27385
# Poissons Ratio (z) = 0.19040 0.42596
#
# Static dielectric constant tensor:
#      x y z
#    x 1.728500 0.000000 0.000000 
#    y 0.000000 1.719600 0.000000 
#    z 0.000000 0.000000 1.614120 
# 
# From -- ./inp_files/24454.got.cif
#   From: 2010.05.17/outbox.cif.g08.bks.cpg/sg20_13_cif.got.tgz:24454.got - 2010.06.03 22:52:26.
