data_PCOD9321647
_publ_section_title
;
Structure prediction by ZEFSAII (Michael W. Deem and Ramdas Pophale) SiO2 
 PCOD9321647
Probable space group: C 2 2 21
;
_chemical_formula_sum "Si O2"
_cell_formula_units_Z 40
_cell_length_a 7.703434
_cell_length_b 11.612648
_cell_length_c 20.121488
_cell_angle_alpha 90.000000
_cell_angle_beta 90.000000
_cell_angle_gamma 90.000000
_cell_volume 1800.013333
_symmetry_space_group_name_H-M "C 2 2 21"
_symmetry_group_IT_number 20
_symmetry_cell_setting 'orthorhombic'
loop_
_space_group_symop_operation_xyz
x,y,z
-x,-y,1/2+z
x,-y,-z
-x,y,1/2-z
1/2+x,1/2+y,z
1/2-x,1/2-y,1/2+z
1/2+x,1/2-y,-z
1/2-x,1/2+y,1/2-z
loop_
_atom_site_type_symbol
_atom_site_label
_atom_site_fract_x
_atom_site_fract_y
_atom_site_fract_z
Si Si1 0.380907 0.797571 0.411819
Si Si2 0.220011 0.557518 0.573544
Si Si3 0.189701 0.998000 0.783327
Si Si4 0.043698 0.865623 0.489206
Si Si5 0.797107 0.249865 0.264260
O O1 0.528853 0.895807 0.409089
O O2 0.222348 0.819187 0.461242
O O3 0.490479 0.693040 0.442231
O O4 0.290179 0.778373 0.341926
O O5 0.203397 0.500000 0.500000
O O6 0.285770 0.484928 0.637015
O O7 0.379422 0.646718 0.560922
O O8 0.244906 0.131493 0.771733
O O9 0.000000 0.997601 0.750000
O O10 0.277440 0.880199 0.753025
O O11 0.068222 0.000000 0.500000
O O12 0.000000 0.237529 0.250000
#
# Coordination Sequence:
#
# PCOD9321647 Si02
#       5
#     8   8   8   8   8
#     4  12  23  44  72 103 142 192 240 296 374 435
#     4  11  23  45  73 105 148 188 243 311 369 435
#     4  11  25  47  72 104 143 198 242 303 373 441
#     4  11  24  42  67 103 141 182 232 300 362 436
#     4  11  24  45  70 100 143 188 240 301 361 438
#
# _framework density 22.222058000000001
#
# number of rings (size 3 to 8) (size 9 to 14) (size 15 to 20)
#    0.000    0.800    4.000    4.200    0.000    2.400 
#    0.000    0.000    0.000    0.000    0.000    0.000 
#    0.000    0.000    0.000    0.000    0.000    0.000 
#
# Total GULP energy -111355.838073 kJ/mol
# GULP energy per Si atom -5567.791904 kJ/mol
# Density = 2.217148 g / cm^3
# Si number density = 22.222058 Si / 1000 Ang^3
#
#
#
# Elastic Constant Matrix: (Units=GPa)
#
#
# Indices 1 2 3 4 5 6 
#
# 1 77.8184 10.3409 -5.4161 0.0000 0.0000 0.0000
# 2 10.3409 92.1688 12.7798 0.0000 0.0000 0.0000
# 3 -5.4161 12.7798 72.1337 0.0000 0.0000 0.0000
# 4 0.0000 0.0000 0.0000 34.3269 0.0000 0.0000
# 5 0.0000 0.0000 0.0000 0.0000 31.0784 0.0000
# 6 0.0000 0.0000 0.0000 0.0000 0.0000 55.5510
#
#
#
# Elastic Compliance Matrix: (Units=1/GPa)
#
#
# Indices 1 2 3 4 5 6 
#
# 1 0.013159 -0.001654 0.001281 0.000000 0.000000 0.000000
# 2 -0.001654 0.011331 -0.002132 0.000000 0.000000 0.000000
# 3 0.001281 -0.002132 0.014337 0.000000 0.000000 0.000000
# 4 0.000000 0.000000 0.000000 0.029132 0.000000 0.000000
# 5 0.000000 0.000000 0.000000 0.000000 0.032177 0.000000
# 6 0.000000 0.000000 0.000000 0.000000 0.000000 0.018001
#
#
# Mechanical properties :
#
#
# Convention : Reuss Voigt Hill
#
# Bulk Modulus (GPa) = 29.57004 30.83666 30.20335
# Shear Modulus (GPa) = 37.19715 39.15235 38.17475
#
# Velocity S-wave (km/s) = 4.09575 4.20202 4.14922
# Velocity P-wave (km/s) = 5.97515 6.11958 6.04780
#
# Compressibility (1/GPa) = 0.03381802
#
# Stress axis : x y z
#
# Youngs Moduli (GPa) = 75.99133 88.25499 69.74957
#
# Poissons Ratio (x) = 0.14598 -0.08936
# Poissons Ratio (y) = 0.12569 0.14868
# Poissons Ratio (z) = -0.09735 0.18813
#
# Static dielectric constant tensor:
#      x y z
#    x 1.804320 0.000000 0.000000 
#    y 0.000000 1.918530 0.000000 
#    z 0.000000 0.000000 1.828230 
# 
# From -- ./inp_files/26489.got.cif
#   From: 2010.05.17/outbox.cif.g08.bks.cpg/sg20_14_cif.got.tgz:26489.got - 2010.06.03 22:52:26.
