data_PCOD9321161
_publ_section_title
;
Structure prediction by ZEFSAII (Michael W. Deem and Ramdas Pophale) SiO2 
 PCOD9321161
Probable space group: C 2 2 21
;
_chemical_formula_sum "Si O2"
_cell_formula_units_Z 56
_cell_length_a 30.149052
_cell_length_b 5.994536
_cell_length_c 14.078076
_cell_angle_alpha 90.000000
_cell_angle_beta 90.000000
_cell_angle_gamma 90.000000
_cell_volume 2544.324729
_symmetry_space_group_name_H-M "C 2 2 21"
_symmetry_group_IT_number 20
_symmetry_cell_setting 'orthorhombic'
loop_
_space_group_symop_operation_xyz
x,y,z
-x,-y,1/2+z
x,-y,-z
-x,y,1/2-z
1/2+x,1/2+y,z
1/2-x,1/2-y,1/2+z
1/2+x,1/2-y,-z
1/2-x,1/2+y,1/2-z
loop_
_atom_site_type_symbol
_atom_site_label
_atom_site_fract_x
_atom_site_fract_y
_atom_site_fract_z
Si Si1 0.248079 0.018919 0.603089
Si Si2 0.804062 0.795848 0.273651
Si Si3 0.072096 0.344911 0.090479
Si Si4 0.525744 0.555324 0.845936
Si Si5 0.054356 0.746761 0.448021
Si Si6 0.098392 0.664328 0.247384
Si Si7 0.829653 0.161986 0.413083
O O1 0.217152 0.160765 0.672043
O O2 0.294138 0.144364 0.585045
O O3 0.226370 0.000000 0.500000
O O4 0.264988 0.800610 0.659467
O O5 0.848881 0.649951 0.268422
O O6 0.821624 0.026146 0.317092
O O7 0.075443 0.453106 0.195918
O O8 0.120682 0.242970 0.074563
O O9 0.034253 0.161143 0.092561
O O10 0.065467 0.500000 0.000000
O O11 0.500000 0.495576 0.750000
O O12 0.493823 0.728194 0.898391
O O13 0.573997 0.644898 0.815213
O O14 0.056839 0.500000 0.500000
O O15 0.087163 0.716509 0.356688
O O16 0.061695 0.000000 0.500000
O O17 0.819319 0.000000 0.500000
#
# Coordination Sequence:
#
# PCOD9321161 Si02
#       7
#     8   8   8   8   8   8   8
#     4  12  25  43  68 107 139 183 243 296 367 446
#     4  12  24  44  70 102 143 194 235 307 374 437
#     4  12  26  42  72 108 144 189 245 309 380 451
#     4  10  26  46  69 103 146 192 243 308 370 441
#     4  11  29  51  77 110 154 204 257 314 379 452
#     4  11  26  47  72 107 145 197 248 306 370 460
#     4  12  23  41  69 101 145 178 236 304 371 443
#
# _framework density 22.009768000000001
#
# number of rings (size 3 to 8) (size 9 to 14) (size 15 to 20)
#    0.000    0.571    5.714    1.286    8.000    1.143 
#    0.000    2.143    0.000    0.000    0.000    0.000 
#    0.000    0.000    0.000    0.000    0.000    0.000 
#
# Total GULP energy -156319.768329 kJ/mol
# GULP energy per Si atom -5582.848869 kJ/mol
# Density = 2.195967 g / cm^3
# Si number density = 22.009768 Si / 1000 Ang^3
#
#
#
# Elastic Constant Matrix: (Units=GPa)
#
#
# Indices 1 2 3 4 5 6 
#
# 1 54.3179 5.5978 17.3532 0.0000 0.0000 0.0000
# 2 5.5978 75.2661 37.3320 0.0000 0.0000 0.0000
# 3 17.3532 37.3320 134.0983 0.0000 0.0000 0.0000
# 4 0.0000 0.0000 0.0000 46.8868 0.0000 0.0000
# 5 0.0000 0.0000 0.0000 0.0000 14.2184 0.0000
# 6 0.0000 0.0000 0.0000 0.0000 0.0000 22.8542
#
#
#
# Elastic Compliance Matrix: (Units=1/GPa)
#
#
# Indices 1 2 3 4 5 6 
#
# 1 0.019207 -0.000227 -0.002422 0.000000 0.000000 0.000000
# 2 -0.000227 0.015417 -0.004263 0.000000 0.000000 0.000000
# 3 -0.002422 -0.004263 0.008957 0.000000 0.000000 0.000000
# 4 0.000000 0.000000 0.000000 0.021328 0.000000 0.000000
# 5 0.000000 0.000000 0.000000 0.000000 0.070331 0.000000
# 6 0.000000 0.000000 0.000000 0.000000 0.000000 0.043756
#
#
# Mechanical properties :
#
#
# Convention : Reuss Voigt Hill
#
# Bulk Modulus (GPa) = 33.60439 42.69424 38.14931
# Shear Modulus (GPa) = 24.66204 30.35182 27.50693
#
# Velocity S-wave (km/s) = 3.35102 3.71754 3.53903
# Velocity P-wave (km/s) = 5.50214 6.15360 5.83697
#
# Compressibility (1/GPa) = 0.02975802
#
# Stress axis : x y z
#
# Youngs Moduli (GPa) = 52.06319 64.86179 111.63954
#
# Poissons Ratio (x) = 0.01472 0.27043
# Poissons Ratio (y) = 0.01182 0.47589
# Poissons Ratio (z) = 0.12612 0.27649
#
# Static dielectric constant tensor:
#      x y z
#    x 1.748530 0.000000 0.000000 
#    y 0.000000 1.919140 0.000000 
#    z 0.000000 0.000000 1.837950 
# 
# From -- ./inp_files/22279.got.cif
#   From: 2010.05.17/outbox.cif.g08.bks.cpg/sg20_12_cif.got.tgz:22279.got - 2010.06.03 22:52:26.
