data_PCOD9321743
_publ_section_title
;
Structure prediction by ZEFSAII (Michael W. Deem and Ramdas Pophale) SiO2 
 PCOD9321743
Probable space group: C 2 2 21
;
_chemical_formula_sum "Si O2"
_cell_formula_units_Z 60
_cell_length_a 27.113546
_cell_length_b 6.378849
_cell_length_c 15.687383
_cell_angle_alpha 90.000000
_cell_angle_beta 90.000000
_cell_angle_gamma 90.000000
_cell_volume 2713.183337
_symmetry_space_group_name_H-M "C 2 2 21"
_symmetry_group_IT_number 20
_symmetry_cell_setting 'orthorhombic'
loop_
_space_group_symop_operation_xyz
x,y,z
-x,-y,1/2+z
x,-y,-z
-x,y,1/2-z
1/2+x,1/2+y,z
1/2-x,1/2-y,1/2+z
1/2+x,1/2-y,-z
1/2-x,1/2+y,1/2-z
loop_
_atom_site_type_symbol
_atom_site_label
_atom_site_fract_x
_atom_site_fract_y
_atom_site_fract_z
Si Si1 0.897654 0.594142 0.089178
Si Si2 0.547661 0.238145 0.708364
Si Si3 0.190333 0.615670 0.288118
Si Si4 0.989222 0.895915 0.089660
Si Si5 0.342928 0.500000 0.500000
Si Si6 0.135434 0.703072 0.825293
Si Si7 0.580209 0.151279 0.070303
Si Si8 0.290232 0.447869 0.361235
O O1 0.923939 0.413407 0.144197
O O2 0.852928 0.677677 0.146861
O O3 0.940333 0.761205 0.072385
O O4 0.879441 0.500000 0.000000
O O5 0.500000 0.129503 0.750000
O O6 0.525470 0.431424 0.657657
O O7 0.588725 0.302905 0.777578
O O8 0.173483 0.398823 0.241994
O O9 0.240736 0.566749 0.337445
O O10 0.197601 0.793098 0.216239
O O11 0.035848 0.761067 0.119824
O O12 0.004057 0.000000 0.000000
O O13 0.385411 0.679454 0.525596
O O14 0.297036 0.349828 0.452909
O O15 0.113469 0.504626 0.874171
O O16 0.164310 0.882659 0.878405
O O17 0.555467 0.000000 0.000000
#
# Coordination Sequence:
#
# PCOD9321743 Si02
#       8
#     8   8   8   8   4   8   8   8
#     4  11  24  47  68  98 141 185 235 291 355 427
#     4  11  26  42  67 102 135 183 231 289 347 427
#     4  11  25  43  73  98 137 186 238 295 363 432
#     4  12  25  41  67  98 137 184 226 283 345 419
#     4  12  26  40  72 106 144 178 246 298 364 436
#     4  11  24  44  70  97 139 178 232 290 355 425
#     4  12  25  42  70 105 139 187 229 295 358 424
#     4  12  24  46  69 106 135 185 237 303 363 428
#
# _framework density 22.114245
#
# number of rings (size 3 to 8) (size 9 to 14) (size 15 to 20)
#    0.000    0.533    6.000    2.000    4.667    2.667 
#    0.000    0.000    2.933    0.000    0.000    0.000 
#    0.000    0.000    0.000    0.000    0.000    0.000 
#
# Total GULP energy -167473.885846 kJ/mol
# GULP energy per Si atom -5582.462862 kJ/mol
# Density = 2.206391 g / cm^3
# Si number density = 22.114245 Si / 1000 Ang^3
#
#
#
# Elastic Constant Matrix: (Units=GPa)
#
#
# Indices 1 2 3 4 5 6 
#
# 1 133.7387 40.3495 35.9478 0.0000 0.0000 0.0000
# 2 40.3495 71.1006 15.8490 0.0000 0.0000 0.0000
# 3 35.9478 15.8490 65.0819 0.0000 0.0000 0.0000
# 4 0.0000 0.0000 0.0000 27.1999 0.0000 0.0000
# 5 0.0000 0.0000 0.0000 0.0000 35.5989 0.0000
# 6 0.0000 0.0000 0.0000 0.0000 0.0000 41.6347
#
#
#
# Elastic Compliance Matrix: (Units=1/GPa)
#
#
# Indices 1 2 3 4 5 6 
#
# 1 0.010097 -0.004745 -0.004422 0.000000 0.000000 0.000000
# 2 -0.004745 0.017101 -0.001544 0.000000 0.000000 0.000000
# 3 -0.004422 -0.001544 0.018184 0.000000 0.000000 0.000000
# 4 0.000000 0.000000 0.000000 0.036765 0.000000 0.000000
# 5 0.000000 0.000000 0.000000 0.000000 0.028091 0.000000
# 6 0.000000 0.000000 0.000000 0.000000 0.000000 0.024018
#
#
# Mechanical properties :
#
#
# Convention : Reuss Voigt Hill
#
# Bulk Modulus (GPa) = 41.73345 50.46821 46.10083
# Shear Modulus (GPa) = 30.55042 32.73835 31.64438
#
# Velocity S-wave (km/s) = 3.72086 3.85180 3.78689
# Velocity P-wave (km/s) = 6.11330 6.53092 6.32556
#
# Compressibility (1/GPa) = 0.02396160
#
# Stress axis : x y z
#
# Youngs Moduli (GPa) = 99.03695 58.47526 54.99466
#
# Poissons Ratio (x) = 0.27744 0.24317
# Poissons Ratio (y) = 0.46988 0.08491
# Poissons Ratio (z) = 0.43792 0.09028
#
# Static dielectric constant tensor:
#      x y z
#    x 1.825540 0.000000 0.000000 
#    y 0.000000 1.730780 0.000000 
#    z 0.000000 0.000000 2.715360 
# 
# From -- ./inp_files/25712.got.cif
#   From: 2010.05.17/outbox.cif.g08.bks.cpg/sg20_13_cif.got.tgz:25712.got - 2010.06.03 22:52:26.
