data_PCOD9321496
_publ_section_title
;
Structure prediction by ZEFSAII (Michael W. Deem and Ramdas Pophale) SiO2 
 PCOD9321496
Probable space group: C 2 2 21
;
_chemical_formula_sum "Si O2"
_cell_formula_units_Z 40
_cell_length_a 18.462846
_cell_length_b 12.180486
_cell_length_c 8.612511
_cell_angle_alpha 90.000000
_cell_angle_beta 90.000000
_cell_angle_gamma 90.000000
_cell_volume 1936.836914
_symmetry_space_group_name_H-M "C 2 2 21"
_symmetry_group_IT_number 20
_symmetry_cell_setting 'orthorhombic'
loop_
_space_group_symop_operation_xyz
x,y,z
-x,-y,1/2+z
x,-y,-z
-x,y,1/2-z
1/2+x,1/2+y,z
1/2-x,1/2-y,1/2+z
1/2+x,1/2-y,-z
1/2-x,1/2+y,1/2-z
loop_
_atom_site_type_symbol
_atom_site_label
_atom_site_fract_x
_atom_site_fract_y
_atom_site_fract_z
Si Si1 0.563142 0.588197 0.631014
Si Si2 0.550811 0.089305 0.096526
Si Si3 0.452150 0.216425 0.894927
Si Si4 0.332564 0.735370 0.701606
Si Si5 0.700491 0.133853 0.514519
O O1 0.578845 0.500000 0.500000
O O2 0.500000 0.555530 0.750000
O O3 0.542137 0.695511 0.532478
O O4 0.632258 0.625357 0.727573
O O5 0.500000 0.074450 0.250000
O O6 0.603228 0.192883 0.125444
O O7 0.494358 0.112773 0.959479
O O8 0.598242 0.000000 0.000000
O O9 0.500000 0.256116 0.750000
O O10 0.369114 0.176897 0.884642
O O11 0.269926 0.691954 0.590471
O O12 0.307299 0.813456 0.843133
O O13 0.702203 0.000000 0.500000
#
# Coordination Sequence:
#
# PCOD9321496 Si02
#       5
#     8   8   8   8   8
#     4  11  22  43  68 100 141 182 232 283 340 410
#     4  12  23  44  74 105 138 178 227 296 345 405
#     4  11  23  42  72 106 136 175 238 287 342 409
#     4  11  26  46  65 104 142 174 236 284 335 425
#     4  11  27  46  69  99 142 185 225 282 350 413
#
# _framework density 20.652229999999999
#
# number of rings (size 3 to 8) (size 9 to 14) (size 15 to 20)
#    0.000    0.800    6.000    1.800    5.600    4.000 
#    0.000    1.000    0.000    0.000    0.000    0.000 
#    0.000    0.000    0.000    0.000    0.000    0.000 
#
# Total GULP energy -111445.185949 kJ/mol
# GULP energy per Si atom -5572.259297 kJ/mol
# Density = 2.060522 g / cm^3
# Si number density = 20.652230 Si / 1000 Ang^3
#
#
#
# Elastic Constant Matrix: (Units=GPa)
#
#
# Indices 1 2 3 4 5 6 
#
# 1 132.0563 47.3241 58.4365 0.0000 0.0000 0.0000
# 2 47.3241 88.9039 10.1744 0.0000 0.0000 0.0000
# 3 58.4365 10.1744 43.9081 0.0000 0.0000 0.0000
# 4 0.0000 0.0000 0.0000 43.9602 0.0000 0.0000
# 5 0.0000 0.0000 0.0000 0.0000 33.9520 0.0000
# 6 0.0000 0.0000 0.0000 0.0000 0.0000 21.9898
#
#
#
# Elastic Compliance Matrix: (Units=1/GPa)
#
#
# Indices 1 2 3 4 5 6 
#
# 1 0.024333 -0.009498 -0.030183 0.000000 0.000000 0.000000
# 2 -0.009498 0.015262 0.009104 0.000000 0.000000 0.000000
# 3 -0.030183 0.009104 0.060835 0.000000 0.000000 0.000000
# 4 0.000000 0.000000 0.000000 0.022748 0.000000 0.000000
# 5 0.000000 0.000000 0.000000 0.000000 0.029453 0.000000
# 6 0.000000 0.000000 0.000000 0.000000 0.000000 0.045476
#
#
# Mechanical properties :
#
#
# Convention : Reuss Voigt Hill
#
# Bulk Modulus (GPa) = 25.46055 55.19315 40.32685
# Shear Modulus (GPa) = 18.35857 29.90927 24.13392
#
# Velocity S-wave (km/s) = 2.98474 3.80970 3.42217
# Velocity P-wave (km/s) = 4.92273 6.79226 5.93161
#
# Compressibility (1/GPa) = 0.03927645
#
# Stress axis : x y z
#
# Youngs Moduli (GPa) = 41.09701 65.52161 16.43789
#
# Poissons Ratio (x) = 0.62234 0.49614
# Poissons Ratio (y) = 0.39035 -0.14966
# Poissons Ratio (z) = 1.24043 -0.59654
#
# Static dielectric constant tensor:
#      x y z
#    x 1.742870 0.000000 0.000000 
#    y 0.000000 1.999730 0.000000 
#    z 0.000000 0.000000 1.738490 
# 
# From -- ./inp_files/7064.got.cif
#   From: 2010.05.17/outbox.cif.g08.bks.cpg/sg20_4_cif.got.tgz:7064.got - 2010.06.03 22:52:26.
