data_PCOD9321527
_publ_section_title
;
Structure prediction by ZEFSAII (Michael W. Deem and Ramdas Pophale) SiO2 
 PCOD9321527
Probable space group: C 2 2 21
;
_chemical_formula_sum "Si O2"
_cell_formula_units_Z 36
_cell_length_a 9.153984
_cell_length_b 11.422936
_cell_length_c 13.634963
_cell_angle_alpha 90.000000
_cell_angle_beta 90.000000
_cell_angle_gamma 90.000000
_cell_volume 1425.744997
_symmetry_space_group_name_H-M "C 2 2 21"
_symmetry_group_IT_number 20
_symmetry_cell_setting 'orthorhombic'
loop_
_space_group_symop_operation_xyz
x,y,z
-x,-y,1/2+z
x,-y,-z
-x,y,1/2-z
1/2+x,1/2+y,z
1/2-x,1/2-y,1/2+z
1/2+x,1/2-y,-z
1/2-x,1/2+y,1/2-z
loop_
_atom_site_type_symbol
_atom_site_label
_atom_site_fract_x
_atom_site_fract_y
_atom_site_fract_z
Si Si1 0.556685 0.682567 0.138364
Si Si2 0.088188 0.813817 0.150243
Si Si3 0.337199 0.085103 0.723697
Si Si4 0.406187 0.500000 0.500000
Si Si5 0.248178 0.601532 0.080519
O O1 0.500000 0.657425 0.250000
O O2 0.636794 0.806535 0.148885
O O3 0.403126 0.668427 0.080342
O O4 0.661099 0.596312 0.074659
O O5 0.244656 0.862380 0.187432
O O6 0.120590 0.697578 0.088612
O O7 0.000000 0.792365 0.250000
O O8 0.021977 0.917688 0.084481
O O9 0.500000 0.048495 0.750000
O O10 0.258560 0.973479 0.680334
O O11 0.230412 0.500000 0.000000
#
# Coordination Sequence:
#
# PCOD9321527 Si02
#       5
#     8   8   8   4   8
#     4  11  22  45  74 102 155 201 253 320 397 460
#     4  12  27  48  79 112 158 215 265 332 408 473
#     4  11  24  48  74 105 155 203 256 324 394 480
#     4  12  24  44  72 116 142 208 268 314 386 492
#     4  12  24  46  74 114 154 203 263 331 391 473
#
# _framework density 25.249957999999999
#
# number of rings (size 3 to 8) (size 9 to 14) (size 15 to 20)
#    0.000    0.444    5.556    5.333    0.000    0.000 
#    2.000    0.000    0.000    0.000    0.000    0.000 
#    0.000    0.000    0.000    0.000    0.000    0.000 
#
# Total GULP energy -100406.230391 kJ/mol
# GULP energy per Si atom -5578.123911 kJ/mol
# Density = 2.519249 g / cm^3
# Si number density = 25.249958 Si / 1000 Ang^3
#
#
#
# Elastic Constant Matrix: (Units=GPa)
#
#
# Indices 1 2 3 4 5 6 
#
# 1 90.5285 26.5498 12.7058 0.0000 0.0000 0.0000
# 2 26.5498 139.1849 27.3900 0.0000 0.0000 0.0000
# 3 12.7058 27.3900 92.8922 0.0000 0.0000 0.0000
# 4 0.0000 0.0000 0.0000 55.8109 0.0000 0.0000
# 5 0.0000 0.0000 0.0000 0.0000 23.5783 0.0000
# 6 0.0000 0.0000 0.0000 0.0000 0.0000 27.5851
#
#
#
# Elastic Compliance Matrix: (Units=1/GPa)
#
#
# Indices 1 2 3 4 5 6 
#
# 1 0.011789 -0.002050 -0.001008 0.000000 0.000000 0.000000
# 2 -0.002050 0.007984 -0.002074 0.000000 0.000000 0.000000
# 3 -0.001008 -0.002074 0.011514 0.000000 0.000000 0.000000
# 4 0.000000 0.000000 0.000000 0.017918 0.000000 0.000000
# 5 0.000000 0.000000 0.000000 0.000000 0.042412 0.000000
# 6 0.000000 0.000000 0.000000 0.000000 0.000000 0.036251
#
#
# Mechanical properties :
#
#
# Convention : Reuss Voigt Hill
#
# Bulk Modulus (GPa) = 47.56609 50.65519 49.11064
# Shear Modulus (GPa) = 34.44946 38.45887 36.45417
#
# Velocity S-wave (km/s) = 3.69770 3.90696 3.80377
# Velocity P-wave (km/s) = 6.09177 6.36062 6.22764
#
# Compressibility (1/GPa) = 0.02102338
#
# Stress axis : x y z
#
# Youngs Moduli (GPa) = 84.82447 125.25240 86.84735
#
# Poissons Ratio (x) = 0.25682 0.08754
# Poissons Ratio (y) = 0.17393 0.18009
# Poissons Ratio (z) = 0.08550 0.25973
#
# Static dielectric constant tensor:
#      x y z
#    x 2.026620 0.000000 0.000000 
#    y 0.000000 2.009110 0.000000 
#    z 0.000000 0.000000 2.046000 
# 
# From -- ./inp_files/13679.got.cif
#   From: 2010.05.17/outbox.cif.g08.bks.cpg/sg20_7_cif.got.tgz:13679.got - 2010.06.03 22:52:26.
