data_PCOD9321444
_publ_section_title
;
Structure prediction by ZEFSAII (Michael W. Deem and Ramdas Pophale) SiO2 
 PCOD9321444
Probable space group: C 2 2 21
;
_chemical_formula_sum "Si O2"
_cell_formula_units_Z 48
_cell_length_a 14.012883
_cell_length_b 18.805100
_cell_length_c 8.540779
_cell_angle_alpha 90.000000
_cell_angle_beta 90.000000
_cell_angle_gamma 90.000000
_cell_volume 2250.611986
_symmetry_space_group_name_H-M "C 2 2 21"
_symmetry_group_IT_number 20
_symmetry_cell_setting 'orthorhombic'
loop_
_space_group_symop_operation_xyz
x,y,z
-x,-y,1/2+z
x,-y,-z
-x,y,1/2-z
1/2+x,1/2+y,z
1/2-x,1/2-y,1/2+z
1/2+x,1/2-y,-z
1/2-x,1/2+y,1/2-z
loop_
_atom_site_type_symbol
_atom_site_label
_atom_site_fract_x
_atom_site_fract_y
_atom_site_fract_z
Si Si1 0.934330 0.061600 0.888584
Si Si2 0.081593 0.553840 0.637487
Si Si3 0.039667 0.683168 0.417742
Si Si4 0.246682 0.225425 0.022238
Si Si5 0.254488 0.142935 0.703875
Si Si6 0.046121 0.820411 0.919768
O O1 0.847425 0.106325 0.817925
O O2 0.000000 0.031549 0.750000
O O3 0.001500 0.112952 0.990942
O O4 0.896275 0.000000 0.000000
O O5 0.113037 0.500000 0.500000
O O6 0.036138 0.621163 0.546311
O O7 0.167719 0.585145 0.742190
O O8 0.000000 0.522499 0.750000
O O9 0.150406 0.706449 0.407181
O O10 0.000000 0.661126 0.250000
O O11 0.982367 0.751452 0.479057
O O12 0.225664 0.308603 0.051888
O O13 0.160059 0.179718 0.092754
O O14 0.252339 0.201287 0.842472
O O15 0.000000 0.813455 0.750000
#
# Coordination Sequence:
#
# PCOD9321444 Si02
#       6
#     8   8   8   8   8   8
#     4  12  26  49  70 101 147 196 237 295 361 441
#     4  11  25  46  68  99 145 187 236 288 358 430
#     4  11  22  41  70 105 138 184 237 298 357 416
#     4  11  22  40  71 100 143 175 239 303 351 419
#     4  11  24  45  70 109 136 184 239 296 365 422
#     4  12  23  42  67 104 142 184 239 296 359 423
#
# _framework density 21.327532000000001
#
# number of rings (size 3 to 8) (size 9 to 14) (size 15 to 20)
#    0.000    0.667    3.333    6.000    0.000    1.333 
#    6.000    0.000    0.000    0.000    0.000    0.000 
#    0.000    0.000    0.000    0.000    0.000    0.000 
#
# Total GULP energy -134262.950372 kJ/mol
# GULP energy per Si atom -5594.289599 kJ/mol
# Density = 2.127899 g / cm^3
# Si number density = 21.327532 Si / 1000 Ang^3
#
#
#
# Elastic Constant Matrix: (Units=GPa)
#
#
# Indices 1 2 3 4 5 6 
#
# 1 128.3438 16.2574 45.7123 0.0000 0.0000 0.0000
# 2 16.2574 70.7503 14.0181 0.0000 0.0000 0.0000
# 3 45.7123 14.0181 64.2603 0.0000 0.0000 0.0000
# 4 0.0000 0.0000 0.0000 44.2557 0.0000 0.0000
# 5 0.0000 0.0000 0.0000 0.0000 27.8611 0.0000
# 6 0.0000 0.0000 0.0000 0.0000 0.0000 14.3596
#
#
#
# Elastic Compliance Matrix: (Units=1/GPa)
#
#
# Indices 1 2 3 4 5 6 
#
# 1 0.010500 -0.000975 -0.007256 0.000000 0.000000 0.000000
# 2 -0.000975 0.014863 -0.002549 0.000000 0.000000 0.000000
# 3 -0.007256 -0.002549 0.021280 0.000000 0.000000 0.000000
# 4 0.000000 0.000000 0.000000 0.022596 0.000000 0.000000
# 5 0.000000 0.000000 0.000000 0.000000 0.035892 0.000000
# 6 0.000000 0.000000 0.000000 0.000000 0.000000 0.069640
#
#
# Mechanical properties :
#
#
# Convention : Reuss Voigt Hill
#
# Bulk Modulus (GPa) = 39.86878 46.14776 43.00827
# Shear Modulus (GPa) = 24.42704 29.78640 27.10672
#
# Velocity S-wave (km/s) = 3.38794 3.74119 3.56894
# Velocity P-wave (km/s) = 5.83424 6.35190 6.09856
#
# Compressibility (1/GPa) = 0.02508228
#
# Stress axis : x y z
#
# Youngs Moduli (GPa) = 95.24223 67.28000 46.99340
#
# Poissons Ratio (x) = 0.06559 0.34100
# Poissons Ratio (y) = 0.09285 0.11978
# Poissons Ratio (z) = 0.69111 0.17149
#
# Static dielectric constant tensor:
#      x y z
#    x 1.765020 0.000000 0.000000 
#    y 0.000000 1.755530 0.000000 
#    z 0.000000 0.000000 1.828020 
# 
# From -- ./inp_files/8385.got.cif
#   From: 2010.05.17/outbox.cif.g08.bks.cpg/sg20_5_cif.got.tgz:8385.got - 2010.06.03 22:52:26.
