data_PCOD9321563
_publ_section_title
;
Structure prediction by ZEFSAII (Michael W. Deem and Ramdas Pophale) SiO2 
 PCOD9321563
Probable space group: C 2 2 21
;
_chemical_formula_sum "Si O2"
_cell_formula_units_Z 56
_cell_length_a 14.405257
_cell_length_b 14.999597
_cell_length_c 12.566989
_cell_angle_alpha 90.000000
_cell_angle_beta 90.000000
_cell_angle_gamma 90.000000
_cell_volume 2715.387639
_symmetry_space_group_name_H-M "C 2 2 21"
_symmetry_group_IT_number 20
_symmetry_cell_setting 'orthorhombic'
loop_
_space_group_symop_operation_xyz
x,y,z
-x,-y,1/2+z
x,-y,-z
-x,y,1/2-z
1/2+x,1/2+y,z
1/2-x,1/2-y,1/2+z
1/2+x,1/2-y,-z
1/2-x,1/2+y,1/2-z
loop_
_atom_site_type_symbol
_atom_site_label
_atom_site_fract_x
_atom_site_fract_y
_atom_site_fract_z
Si Si1 0.314564 0.165426 0.243988
Si Si2 0.500000 0.256206 0.750000
Si Si3 0.813202 0.665775 0.785614
Si Si4 0.062821 0.911555 0.899743
Si Si5 0.956448 0.922550 0.112355
Si Si6 0.726867 0.097812 0.481724
Si Si7 0.253518 0.009313 0.626060
Si Si8 0.000000 0.755610 0.250000
O O1 0.246031 0.248990 0.250116
O O2 0.323388 0.141436 0.119099
O O3 0.414563 0.195629 0.287617
O O4 0.273652 0.082580 0.310985
O O5 0.419863 0.194689 0.797011
O O6 0.549820 0.325420 0.828739
O O7 0.800712 0.587470 0.697777
O O8 0.776984 0.642246 0.903223
O O9 0.165884 0.911199 0.945467
O O10 0.038081 0.008501 0.850543
O O11 0.984739 0.905871 0.990545
O O12 0.855803 0.965740 0.126189
O O13 0.960764 0.826043 0.164958
O O14 0.686645 0.000000 0.500000
O O15 0.280489 0.000000 0.500000
#
# Coordination Sequence:
#
# PCOD9321563 Si02
#       8
#     8   4   8   8   8   8   8   4
#     4  12  28  47  75 108 153 200 249 312 384 454
#     4  12  27  45  72 108 150 200 260 308 382 458
#     4  12  28  48  74 108 154 202 254 312 383 460
#     4  11  23  40  73 109 139 186 248 323 391 429
#     4  11  23  40  73 109 140 179 248 324 378 435
#     4  12  25  49  72 107 153 197 246 312 383 458
#     4  12  27  49  72 109 151 196 249 320 382 451
#     4  12  27  43  72 108 146 194 252 304 380 446
#
# _framework density 20.623206
#
# number of rings (size 3 to 8) (size 9 to 14) (size 15 to 20)
#    0.000    0.286    7.143    2.143    6.000    1.714 
#    0.000    0.000    0.000    0.000    0.000    0.000 
#    0.000    0.000    0.000    0.000    0.000    0.000 
#
# Total GULP energy -156401.474332 kJ/mol
# GULP energy per Si atom -5585.766940 kJ/mol
# Density = 2.057627 g / cm^3
# Si number density = 20.623206 Si / 1000 Ang^3
#
#
#
# Elastic Constant Matrix: (Units=GPa)
#
#
# Indices 1 2 3 4 5 6 
#
# 1 88.4918 26.8085 -0.4467 0.0000 0.0000 0.0000
# 2 26.8085 130.1121 49.2444 0.0000 0.0000 0.0000
# 3 -0.4467 49.2444 117.2475 0.0000 0.0000 0.0000
# 4 0.0000 0.0000 0.0000 47.8492 0.0000 0.0000
# 5 0.0000 0.0000 0.0000 0.0000 27.7075 0.0000
# 6 0.0000 0.0000 0.0000 0.0000 0.0000 9.4660
#
#
#
# Elastic Compliance Matrix: (Units=1/GPa)
#
#
# Indices 1 2 3 4 5 6 
#
# 1 0.012220 -0.003015 0.001313 0.000000 0.000000 0.000000
# 2 -0.003015 0.009882 -0.004162 0.000000 0.000000 0.000000
# 3 0.001313 -0.004162 0.010282 0.000000 0.000000 0.000000
# 4 0.000000 0.000000 0.000000 0.020899 0.000000 0.000000
# 5 0.000000 0.000000 0.000000 0.000000 0.036091 0.000000
# 6 0.000000 0.000000 0.000000 0.000000 0.000000 0.105641
#
#
# Mechanical properties :
#
#
# Convention : Reuss Voigt Hill
#
# Bulk Modulus (GPa) = 48.41080 54.11819 51.26449
# Shear Modulus (GPa) = 23.40498 34.35421 28.87959
#
# Velocity S-wave (km/s) = 3.37246 4.08585 3.74618
# Velocity P-wave (km/s) = 6.22009 6.96831 6.60480
#
# Compressibility (1/GPa) = 0.02065655
#
# Stress axis : x y z
#
# Youngs Moduli (GPa) = 81.83012 101.19340 97.25714
#
# Poissons Ratio (x) = 0.30508 -0.12768
# Poissons Ratio (y) = 0.24670 0.40478
# Poissons Ratio (z) = -0.10742 0.42117
#
# Static dielectric constant tensor:
#      x y z
#    x 1.678690 0.000000 0.000000 
#    y 0.000000 1.752070 0.000000 
#    z 0.000000 0.000000 2.400930 
# 
# From -- ./inp_files/15191.got.cif
#   From: 2010.05.17/outbox.cif.g08.bks.cpg/sg20_8_cif.got.tgz:15191.got - 2010.06.03 22:52:26.
