data_PCOD9321858
_publ_section_title
;
Structure prediction by ZEFSAII (Michael W. Deem and Ramdas Pophale) SiO2 
 PCOD9321858
Probable space group: C 2 2 21
;
_chemical_formula_sum "Si O2"
_cell_formula_units_Z 16
_cell_length_a 6.987159
_cell_length_b 7.472518
_cell_length_c 13.364815
_cell_angle_alpha 90.000000
_cell_angle_beta 90.000000
_cell_angle_gamma 90.000000
_cell_volume 697.799329
_symmetry_space_group_name_H-M "C 2 2 21"
_symmetry_group_IT_number 20
_symmetry_cell_setting 'orthorhombic'
loop_
_space_group_symop_operation_xyz
x,y,z
-x,-y,1/2+z
x,-y,-z
-x,y,1/2-z
1/2+x,1/2+y,z
1/2-x,1/2-y,1/2+z
1/2+x,1/2-y,-z
1/2-x,1/2+y,1/2-z
loop_
_atom_site_type_symbol
_atom_site_label
_atom_site_fract_x
_atom_site_fract_y
_atom_site_fract_z
Si Si1 0.197659 0.900584 0.712694
Si Si2 0.933251 0.473476 0.115685
O O1 0.157906 0.501367 0.861467
O O2 0.135975 0.717333 0.658639
O O3 0.320661 0.885339 0.814669
O O4 0.000000 0.010826 0.250000
O O5 0.891089 0.500000 0.000000
#
# Coordination Sequence:
#
# PCOD9321858 Si02
#       2
#     8   8
#     4  11  25  49  70 109 149 190 247 307 351 447
#     4  11  28  47  77 110 149 198 244 303 372 435
#
# _framework density 22.929227000000001
#
# number of rings (size 3 to 8) (size 9 to 14) (size 15 to 20)
#    0.000    1.000    5.000    0.000   14.000    2.000 
#    0.000    0.000    0.000    0.000    0.000    0.000 
#    0.000    0.000    0.000    0.000    0.000    0.000 
#
# Total GULP energy -44692.569986 kJ/mol
# GULP energy per Si atom -5586.571248 kJ/mol
# Density = 2.287704 g / cm^3
# Si number density = 22.929227 Si / 1000 Ang^3
#
#
#
# Elastic Constant Matrix: (Units=GPa)
#
#
# Indices 1 2 3 4 5 6 
#
# 1 147.7472 45.6221 23.2158 0.0000 0.0000 0.0000
# 2 45.6221 106.3733 17.4613 0.0000 0.0000 0.0000
# 3 23.2158 17.4613 183.1128 0.0000 0.0000 0.0000
# 4 0.0000 0.0000 0.0000 33.3077 0.0000 0.0000
# 5 0.0000 0.0000 0.0000 0.0000 23.0742 0.0000
# 6 0.0000 0.0000 0.0000 0.0000 0.0000 47.9863
#
#
#
# Elastic Compliance Matrix: (Units=1/GPa)
#
#
# Indices 1 2 3 4 5 6 
#
# 1 0.007886 -0.003269 -0.000688 0.000000 0.000000 0.000000
# 2 -0.003269 0.010906 -0.000625 0.000000 0.000000 0.000000
# 3 -0.000688 -0.000625 0.005608 0.000000 0.000000 0.000000
# 4 0.000000 0.000000 0.000000 0.030023 0.000000 0.000000
# 5 0.000000 0.000000 0.000000 0.000000 0.043338 0.000000
# 6 0.000000 0.000000 0.000000 0.000000 0.000000 0.020839
#
#
# Mechanical properties :
#
#
# Convention : Reuss Voigt Hill
#
# Bulk Modulus (GPa) = 65.64228 67.75907 66.70068
# Shear Modulus (GPa) = 37.63817 44.26925 40.95371
#
# Velocity S-wave (km/s) = 4.05593 4.39873 4.23080
# Velocity P-wave (km/s) = 7.11509 7.44406 7.28143
#
# Compressibility (1/GPa) = 0.01523408
#
# Stress axis : x y z
#
# Youngs Moduli (GPa) = 126.80835 91.69556 178.31692
#
# Poissons Ratio (x) = 0.29977 0.12269
# Poissons Ratio (y) = 0.41456 0.11153
# Poissons Ratio (z) = 0.08725 0.05735
#
# Static dielectric constant tensor:
#      x y z
#    x 1.907430 0.000000 0.000000 
#    y 0.000000 1.933830 0.000000 
#    z 0.000000 0.000000 1.798800 
# 
# From -- ./inp_files/4863.got.cif
#   From: 2010.05.17/outbox.cif.g08.bks.cpg/sg20_3_cif.got.tgz:4863.got - 2010.06.03 22:52:26.
