data_PCOD9321462
_publ_section_title
;
Structure prediction by ZEFSAII (Michael W. Deem and Ramdas Pophale) SiO2 
 PCOD9321462
Probable space group: C 2 2 21
;
_chemical_formula_sum "Si O2"
_cell_formula_units_Z 52
_cell_length_a 18.926255
_cell_length_b 5.878582
_cell_length_c 20.495422
_cell_angle_alpha 90.000000
_cell_angle_beta 90.000000
_cell_angle_gamma 90.000000
_cell_volume 2280.311264
_symmetry_space_group_name_H-M "C 2 2 21"
_symmetry_group_IT_number 20
_symmetry_cell_setting 'orthorhombic'
loop_
_space_group_symop_operation_xyz
x,y,z
-x,-y,1/2+z
x,-y,-z
-x,y,1/2-z
1/2+x,1/2+y,z
1/2-x,1/2-y,1/2+z
1/2+x,1/2-y,-z
1/2-x,1/2+y,1/2-z
loop_
_atom_site_type_symbol
_atom_site_label
_atom_site_fract_x
_atom_site_fract_y
_atom_site_fract_z
Si Si1 0.648432 0.847874 0.790102
Si Si2 0.824784 0.945379 0.628285
Si Si3 0.214187 0.109969 0.678895
Si Si4 0.295965 0.500000 0.500000
Si Si5 0.017284 0.743091 0.536063
Si Si6 0.180250 0.182779 0.444210
Si Si7 0.458155 0.785382 0.315376
O O1 0.666564 0.708779 0.855193
O O2 0.719069 0.003653 0.782356
O O3 0.653409 0.691863 0.726680
O O4 0.573493 0.964793 0.799776
O O5 0.750991 0.824711 0.644182
O O6 0.842527 0.876745 0.553891
O O7 0.884775 0.845982 0.675041
O O8 0.185119 0.935881 0.625766
O O9 0.242948 0.358853 0.455492
O O10 0.994143 0.500000 0.500000
O O11 0.102490 0.726532 0.541367
O O12 0.993614 0.737428 0.612904
O O13 0.004134 0.000000 0.500000
O O14 0.195021 0.000000 0.500000
O O15 0.500000 0.713588 0.250000
#
# Coordination Sequence:
#
# PCOD9321462 Si02
#       7
#     8   8   8   4   8   8   8
#     4  11  24  42  70 106 144 192 243 319 395 461
#     4  11  25  42  71 107 145 189 238 320 394 468
#     4  11  22  41  70 107 145 179 241 312 393 468
#     4  12  22  40  72 108 146 176 246 308 404 474
#     4  11  28  52  78 110 155 212 270 325 388 469
#     4  11  23  41  70 110 143 191 241 315 386 464
#     4  11  30  49  71 106 149 210 271 319 392 474
#
# _framework density 22.803906999999999
#
# number of rings (size 3 to 8) (size 9 to 14) (size 15 to 20)
#    0.000    0.923    5.385    0.000    5.385    4.308 
#    0.000    0.000    0.000    0.000    0.000    0.000 
#    0.000    0.000    0.000    0.000    0.000    0.000 
#
# Total GULP energy -144821.013179 kJ/mol
# GULP energy per Si atom -5570.038968 kJ/mol
# Density = 2.275200 g / cm^3
# Si number density = 22.803907 Si / 1000 Ang^3
#
#
#
# Elastic Constant Matrix: (Units=GPa)
#
#
# Indices 1 2 3 4 5 6 
#
# 1 40.7394 30.3232 33.9248 0.0000 0.0000 0.0000
# 2 30.3232 64.6823 56.6112 0.0000 0.0000 0.0000
# 3 33.9248 56.6112 182.3216 0.0000 0.0000 0.0000
# 4 0.0000 0.0000 0.0000 46.5372 0.0000 0.0000
# 5 0.0000 0.0000 0.0000 0.0000 38.5808 0.0000
# 6 0.0000 0.0000 0.0000 0.0000 0.0000 -9.1215
#
#
#
# Elastic Compliance Matrix: (Units=1/GPa)
#
#
# Indices 1 2 3 4 5 6 
#
# 1 0.038295 -0.016089 -0.002130 0.000000 0.000000 0.000000
# 2 -0.016089 0.027989 -0.005697 0.000000 0.000000 0.000000
# 3 -0.002130 -0.005697 0.007650 0.000000 0.000000 0.000000
# 4 0.000000 0.000000 0.000000 0.021488 0.000000 0.000000
# 5 0.000000 0.000000 0.000000 0.000000 0.025920 0.000000
# 6 0.000000 0.000000 0.000000 0.000000 0.000000 -0.109631
#
#
# Mechanical properties :
#
#
# Convention : Reuss Voigt Hill
#
# Bulk Modulus (GPa) = 38.31021 58.82907 48.56964
# Shear Modulus (GPa) = 73.26860 26.32490 49.79675
#
# Velocity S-wave (km/s) = 5.67447 3.40134 4.67807
# Velocity P-wave (km/s) = 7.73105 6.42489 7.10804
#
# Compressibility (1/GPa) = 0.02610270
#
# Stress axis : x y z
#
# Youngs Moduli (GPa) = 26.11300 35.72891 130.71795
#
# Poissons Ratio (x) = 0.57483 0.27844
# Poissons Ratio (y) = 0.42012 0.74469
# Poissons Ratio (z) = 0.05562 0.20354
#
# Static dielectric constant tensor:
#      x y z
#    x 1.855780 0.000000 0.000000 
#    y 0.000000 2.085180 0.000000 
#    z 0.000000 0.000000 1.952790 
# 
# From -- ./inp_files/26101.got.cif
#   From: 2010.05.17/outbox.cif.g08.bks.cpg/sg20_14_cif.got.tgz:26101.got - 2010.06.03 22:52:26.
