data_PCOD9321976
_publ_section_title
;
Structure prediction by ZEFSAII (Michael W. Deem and Ramdas Pophale) SiO2 
 PCOD9321976
Probable space group: C 2 2 21
;
_chemical_formula_sum "Si O2"
_cell_formula_units_Z 40
_cell_length_a 17.323807
_cell_length_b 16.025005
_cell_length_c 6.106476
_cell_angle_alpha 90.000000
_cell_angle_beta 90.000000
_cell_angle_gamma 90.000000
_cell_volume 1695.243801
_symmetry_space_group_name_H-M "C 2 2 21"
_symmetry_group_IT_number 20
_symmetry_cell_setting 'orthorhombic'
loop_
_space_group_symop_operation_xyz
x,y,z
-x,-y,1/2+z
x,-y,-z
-x,y,1/2-z
1/2+x,1/2+y,z
1/2-x,1/2-y,1/2+z
1/2+x,1/2-y,-z
1/2-x,1/2+y,1/2-z
loop_
_atom_site_type_symbol
_atom_site_label
_atom_site_fract_x
_atom_site_fract_y
_atom_site_fract_z
Si Si1 0.554265 0.757678 0.443469
Si Si2 0.680756 0.786321 0.113261
Si Si3 0.652919 0.344579 0.223014
Si Si4 0.500000 0.900958 0.750000
Si Si5 0.792230 0.000000 0.500000
Si Si6 0.334482 0.062721 0.308618
O O1 0.500000 0.722518 0.250000
O O2 0.629784 0.797225 0.328477
O O3 0.584119 0.691080 0.624571
O O4 0.509511 0.835579 0.550313
O O5 0.768531 0.809540 0.165965
O O6 0.657011 0.697208 0.017006
O O7 0.660171 0.846800 0.913785
O O8 0.660062 0.442950 0.170215
O O9 0.577207 0.956044 0.746128
O O10 0.731008 0.058202 0.371819
O O11 0.310830 0.000000 0.500000
#
# Coordination Sequence:
#
# PCOD9321976 Si02
#       6
#     8   8   8   4   4   8
#     4  12  24  44  73 108 144 191 257 300 361 440
#     4  12  23  44  74 104 144 197 249 298 361 448
#     4  12  24  43  72 110 148 193 251 307 369 439
#     4  12  26  42  66 106 146 202 238 294 366 454
#     4  12  28  44  68 112 154 188 244 318 368 434
#     4  12  26  42  65 106 156 197 240 295 372 444
#
# _framework density 23.595427000000001
#
# number of rings (size 3 to 8) (size 9 to 14) (size 15 to 20)
#    0.000    0.000    8.000    2.400    1.400    0.000 
#    0.000    0.000    0.000    0.000   26.000    0.000 
#    0.000    0.000    0.000    0.000    0.000    0.000 
#
# Total GULP energy -111812.927671 kJ/mol
# GULP energy per Si atom -5590.646384 kJ/mol
# Density = 2.354172 g / cm^3
# Si number density = 23.595427 Si / 1000 Ang^3
#
#
#
# Elastic Constant Matrix: (Units=GPa)
#
#
# Indices 1 2 3 4 5 6 
#
# 1 80.5813 16.5439 32.9351 0.0000 0.0000 0.0000
# 2 16.5439 69.2090 24.2364 0.0000 0.0000 0.0000
# 3 32.9351 24.2364 84.0981 0.0000 0.0000 0.0000
# 4 0.0000 0.0000 0.0000 36.9748 0.0000 0.0000
# 5 0.0000 0.0000 0.0000 0.0000 27.5353 0.0000
# 6 0.0000 0.0000 0.0000 0.0000 0.0000 24.3015
#
#
#
# Elastic Compliance Matrix: (Units=1/GPa)
#
#
# Indices 1 2 3 4 5 6 
#
# 1 0.014951 -0.001695 -0.005367 0.000000 0.000000 0.000000
# 2 -0.001695 0.016263 -0.004023 0.000000 0.000000 0.000000
# 3 -0.005367 -0.004023 0.015152 0.000000 0.000000 0.000000
# 4 0.000000 0.000000 0.000000 0.027045 0.000000 0.000000
# 5 0.000000 0.000000 0.000000 0.000000 0.036317 0.000000
# 6 0.000000 0.000000 0.000000 0.000000 0.000000 0.041150
#
#
# Mechanical properties :
#
#
# Convention : Reuss Voigt Hill
#
# Bulk Modulus (GPa) = 41.32750 42.36880 41.84815
# Shear Modulus (GPa) = 27.60696 28.44053 28.02375
#
# Velocity S-wave (km/s) = 3.42426 3.47557 3.45001
# Velocity P-wave (km/s) = 5.76083 5.83964 5.80037
#
# Compressibility (1/GPa) = 0.02419697
#
# Stress axis : x y z
#
# Youngs Moduli (GPa) = 66.88372 61.48949 65.99700
#
# Poissons Ratio (x) = 0.10420 0.35421
# Poissons Ratio (y) = 0.11334 0.26552
# Poissons Ratio (z) = 0.35897 0.24739
#
# Static dielectric constant tensor:
#      x y z
#    x 1.948700 0.000000 0.000000 
#    y 0.000000 2.061020 0.000000 
#    z 0.000000 0.000000 1.970070 
# 
# From -- ./inp_files/2526.got.cif
#   From: 2010.05.17/outbox.cif.g08.bks.cpg/sg20_2_cif.got.tgz:2526.got - 2010.06.03 22:52:26.
