data_PCOD9321891
_publ_section_title
;
Structure prediction by ZEFSAII (Michael W. Deem and Ramdas Pophale) SiO2 
 PCOD9321891
Probable space group: C 2 2 21
;
_chemical_formula_sum "Si O2"
_cell_formula_units_Z 56
_cell_length_a 10.712810
_cell_length_b 15.453253
_cell_length_c 13.447540
_cell_angle_alpha 90.000000
_cell_angle_beta 90.000000
_cell_angle_gamma 90.000000
_cell_volume 2226.210168
_symmetry_space_group_name_H-M "C 2 2 21"
_symmetry_group_IT_number 20
_symmetry_cell_setting 'orthorhombic'
loop_
_space_group_symop_operation_xyz
x,y,z
-x,-y,1/2+z
x,-y,-z
-x,y,1/2-z
1/2+x,1/2+y,z
1/2-x,1/2-y,1/2+z
1/2+x,1/2-y,-z
1/2-x,1/2+y,1/2-z
loop_
_atom_site_type_symbol
_atom_site_label
_atom_site_fract_x
_atom_site_fract_y
_atom_site_fract_z
Si Si1 0.500000 0.027934 0.250000
Si Si2 0.094858 0.078466 0.062836
Si Si3 0.178096 0.671244 0.334949
Si Si4 0.291986 0.335990 0.293095
Si Si5 0.000000 0.022985 0.750000
Si Si6 0.897683 0.373075 0.362754
Si Si7 0.840332 0.896964 0.000026
Si Si8 0.132695 0.277467 0.446713
O O1 0.609467 0.087291 0.292684
O O2 0.451408 0.968370 0.340976
O O3 0.186328 0.140428 0.124577
O O4 0.009459 0.035624 0.151570
O O5 0.990431 0.114244 0.985345
O O6 0.158030 0.000000 0.000000
O O7 0.163681 0.745779 0.252798
O O8 0.119711 0.709775 0.435602
O O9 0.380193 0.413826 0.258528
O O10 0.155665 0.346327 0.243623
O O11 0.252519 0.331555 0.407762
O O12 0.773061 0.370122 0.428576
O O13 0.002128 0.310870 0.405237
O O14 0.831656 0.821138 0.917236
O O15 0.822346 0.000000 0.000000
#
# Coordination Sequence:
#
# PCOD9321891 Si02
#       8
#     4   8   8   8   4   8   8   8
#     4  12  29  50  77 124 164 216 276 337 414 493
#     4  11  26  48  78 110 151 201 264 321 398 473
#     4  12  29  49  77 117 160 210 271 330 415 495
#     4  12  25  51  76 111 153 207 266 328 407 482
#     4  12  27  48  79 104 154 198 260 331 388 477
#     4  12  26  51  78 112 160 209 271 331 411 484
#     4  11  27  48  78 113 152 204 273 327 401 487
#     4  12  28  48  80 113 158 212 260 341 409 485
#
# _framework density 25.154858999999998
#
# number of rings (size 3 to 8) (size 9 to 14) (size 15 to 20)
#    0.000    0.286    2.857    4.714    8.000    1.143 
#    0.000    0.000    0.000    0.000    0.000    0.000 
#    0.000    0.000    0.000    0.000    0.000    0.000 
#
# Total GULP energy -156319.461936 kJ/mol
# GULP energy per Si atom -5582.837926 kJ/mol
# Density = 2.509761 g / cm^3
# Si number density = 25.154859 Si / 1000 Ang^3
#
#
#
# Elastic Constant Matrix: (Units=GPa)
#
#
# Indices 1 2 3 4 5 6 
#
# 1 122.6443 47.1471 34.9264 0.0000 0.0000 0.0000
# 2 47.1471 129.0539 22.3142 0.0000 0.0000 0.0000
# 3 34.9264 22.3142 69.3536 0.0000 0.0000 0.0000
# 4 0.0000 0.0000 0.0000 38.9624 0.0000 0.0000
# 5 0.0000 0.0000 0.0000 0.0000 44.7005 0.0000
# 6 0.0000 0.0000 0.0000 0.0000 0.0000 41.0636
#
#
#
# Elastic Compliance Matrix: (Units=1/GPa)
#
#
# Indices 1 2 3 4 5 6 
#
# 1 0.010585 -0.003119 -0.004327 0.000000 0.000000 0.000000
# 2 -0.003119 0.009124 -0.001365 0.000000 0.000000 0.000000
# 3 -0.004327 -0.001365 0.017037 0.000000 0.000000 0.000000
# 4 0.000000 0.000000 0.000000 0.025666 0.000000 0.000000
# 5 0.000000 0.000000 0.000000 0.000000 0.022371 0.000000
# 6 0.000000 0.000000 0.000000 0.000000 0.000000 0.024352
#
#
# Mechanical properties :
#
#
# Convention : Reuss Voigt Hill
#
# Bulk Modulus (GPa) = 52.28929 58.86969 55.57949
# Shear Modulus (GPa) = 37.55671 39.38956 38.47314
#
# Velocity S-wave (km/s) = 3.86815 3.96142 3.91506
# Velocity P-wave (km/s) = 6.38610 6.66164 6.52532
#
# Compressibility (1/GPa) = 0.01912437
#
# Stress axis : x y z
#
# Youngs Moduli (GPa) = 94.47477 109.59990 58.69520
#
# Poissons Ratio (x) = 0.34182 0.25398
# Poissons Ratio (y) = 0.29464 0.08012
# Poissons Ratio (z) = 0.40880 0.14961
#
# Static dielectric constant tensor:
#      x y z
#    x 2.082890 0.000000 0.000000 
#    y 0.000000 2.095600 0.000000 
#    z 0.000000 0.000000 2.047120 
# 
# From -- ./inp_files/20076.got.cif
#   From: 2010.05.17/outbox.cif.g08.bks.cpg/sg20_11_cif.got.tgz:20076.got - 2010.06.03 22:52:26.
