data_PCOD9321929
_publ_section_title
;
Structure prediction by ZEFSAII (Michael W. Deem and Ramdas Pophale) SiO2 
 PCOD9321929
Probable space group: C 2 2 21
;
_chemical_formula_sum "Si O2"
_cell_formula_units_Z 48
_cell_length_a 22.506062
_cell_length_b 10.810126
_cell_length_c 9.473493
_cell_angle_alpha 90.000000
_cell_angle_beta 90.000000
_cell_angle_gamma 90.000000
_cell_volume 2304.838000
_symmetry_space_group_name_H-M "C 2 2 21"
_symmetry_group_IT_number 20
_symmetry_cell_setting 'orthorhombic'
loop_
_space_group_symop_operation_xyz
x,y,z
-x,-y,1/2+z
x,-y,-z
-x,y,1/2-z
1/2+x,1/2+y,z
1/2-x,1/2-y,1/2+z
1/2+x,1/2-y,-z
1/2-x,1/2+y,1/2-z
loop_
_atom_site_type_symbol
_atom_site_label
_atom_site_fract_x
_atom_site_fract_y
_atom_site_fract_z
Si Si1 0.870458 0.681349 0.793196
Si Si2 0.865599 0.397176 0.739128
Si Si3 0.141473 0.788510 0.997652
Si Si4 0.220769 0.647489 0.479190
Si Si5 0.029557 0.110343 0.900798
Si Si6 0.031651 0.363969 0.530783
O O1 0.857259 0.544120 0.733767
O O2 0.881168 0.770989 0.662373
O O3 0.815069 0.714128 0.894641
O O4 0.925588 0.665508 0.898681
O O5 0.864831 0.336906 0.587041
O O6 0.813774 0.331798 0.832259
O O7 0.925976 0.374942 0.830534
O O8 0.210409 0.822031 0.983968
O O9 0.101061 0.883490 0.087233
O O10 0.212672 0.500000 0.500000
O O11 0.000000 0.092062 0.750000
O O12 0.010076 0.246903 0.951366
O O13 0.008183 0.000000 0.000000
O O14 0.004534 0.500000 0.500000
#
# Coordination Sequence:
#
# PCOD9321929 Si02
#       6
#     8   8   8   8   8   8
#     4   9  20  35  63  93 118 155 203 271 330 374
#     4   9  18  37  61  88 124 153 202 273 325 369
#     4  12  21  35  61  91 120 166 216 253 311 391
#     4   9  19  37  56  83 125 164 202 258 324 382
#     4  12  28  46  63  91 134 178 216 267 319 382
#     4   9  20  44  67  89 120 166 214 266 325 374
#
# _framework density 20.825759000000001
#
# number of rings (size 3 to 8) (size 9 to 14) (size 15 to 20)
#    0.000    2.000    1.667    4.000    2.333    1.333 
#    0.000    0.000    0.000    0.000    0.000    0.000 
#    0.000    0.000    0.000    0.000    0.000    0.000 
#
# Total GULP energy -134011.441993 kJ/mol
# GULP energy per Si atom -5583.810083 kJ/mol
# Density = 2.077836 g / cm^3
# Si number density = 20.825759 Si / 1000 Ang^3
#
#
#
# Elastic Constant Matrix: (Units=GPa)
#
#
# Indices 1 2 3 4 5 6 
#
# 1 84.2576 26.2033 24.6872 0.0000 0.0000 0.0000
# 2 26.2033 53.9377 23.0990 0.0000 0.0000 0.0000
# 3 24.6872 23.0990 105.1036 0.0000 0.0000 0.0000
# 4 0.0000 0.0000 0.0000 28.9652 0.0000 0.0000
# 5 0.0000 0.0000 0.0000 0.0000 16.3783 0.0000
# 6 0.0000 0.0000 0.0000 0.0000 0.0000 -50.8378
#
#
#
# Elastic Compliance Matrix: (Units=1/GPa)
#
#
# Indices 1 2 3 4 5 6 
#
# 1 0.014363 -0.006108 -0.002031 0.000000 0.000000 0.000000
# 2 -0.006108 0.023063 -0.003634 0.000000 0.000000 0.000000
# 3 -0.002031 -0.003634 0.010790 0.000000 0.000000 0.000000
# 4 0.000000 0.000000 0.000000 0.034524 0.000000 0.000000
# 5 0.000000 0.000000 0.000000 0.000000 0.061057 0.000000
# 6 0.000000 0.000000 0.000000 0.000000 0.000000 -0.019670
#
#
# Mechanical properties :
#
#
# Convention : Reuss Voigt Hill
#
# Bulk Modulus (GPa) = 40.53457 43.47531 42.00494
# Shear Modulus (GPa) = 32.07255 10.18844 21.13049
#
# Velocity S-wave (km/s) = 3.92859 2.21424 3.18879
# Velocity P-wave (km/s) = 6.33122 5.24006 5.81131
#
# Compressibility (1/GPa) = 0.02467030
#
# Stress axis : x y z
#
# Youngs Moduli (GPa) = 69.62346 43.35881 92.67645
#
# Poissons Ratio (x) = 0.26482 0.18826
# Poissons Ratio (y) = 0.42524 0.33680
# Poissons Ratio (z) = 0.14143 0.15757
#
# Static dielectric constant tensor:
#      x y z
#    x 1.786430 0.000000 0.000000 
#    y 0.000000 1.740850 0.000000 
#    z 0.000000 0.000000 1.748010 
# 
# From -- ./inp_files/7387.got.cif
#   From: 2010.05.17/outbox.cif.g08.bks.cpg/sg20_4_cif.got.tgz:7387.got - 2010.06.03 22:52:26.
