data_PCOD9321384
_publ_section_title
;
Structure prediction by ZEFSAII (Michael W. Deem and Ramdas Pophale) SiO2 
 PCOD9321384
Probable space group: C 2 2 21
;
_chemical_formula_sum "Si O2"
_cell_formula_units_Z 40
_cell_length_a 13.792460
_cell_length_b 4.805845
_cell_length_c 26.552658
_cell_angle_alpha 90.000000
_cell_angle_beta 90.000000
_cell_angle_gamma 90.000000
_cell_volume 1760.027666
_symmetry_space_group_name_H-M "C 2 2 21"
_symmetry_group_IT_number 20
_symmetry_cell_setting 'orthorhombic'
loop_
_space_group_symop_operation_xyz
x,y,z
-x,-y,1/2+z
x,-y,-z
-x,y,1/2-z
1/2+x,1/2+y,z
1/2-x,1/2-y,1/2+z
1/2+x,1/2-y,-z
1/2-x,1/2+y,1/2-z
loop_
_atom_site_type_symbol
_atom_site_label
_atom_site_fract_x
_atom_site_fract_y
_atom_site_fract_z
Si Si1 0.973343 0.927465 0.304708
Si Si2 0.045147 0.048333 0.443375
Si Si3 0.713416 0.290818 0.844482
Si Si4 0.657518 0.666401 0.349431
Si Si5 0.060933 0.436408 0.900691
O O1 0.970755 0.685741 0.346511
O O2 0.000000 0.822415 0.250000
O O3 0.870161 0.076565 0.310367
O O4 0.055332 0.150326 0.321037
O O5 0.130787 0.013829 0.402542
O O6 0.010697 0.357111 0.429509
O O7 0.077011 0.000000 0.500000
O O8 0.952331 0.846496 0.432839
O O9 0.786616 0.544444 0.857288
O O10 0.773794 0.044944 0.819204
O O11 0.656259 0.119691 0.888845
#
# Coordination Sequence:
#
# PCOD9321384 Si02
#       5
#     8   8   8   8   8
#     4  11  26  46  73 105 146 193 242 292 369 432
#     4  11  23  44  76 104 139 192 242 293 372 436
#     4  12  23  45  70 103 143 181 237 287 360 422
#     4  11  24  43  72  99 146 186 232 301 357 420
#     4  11  21  46  69 104 143 183 231 303 353 425
#
# _framework density 22.726914000000001
#
# number of rings (size 3 to 8) (size 9 to 14) (size 15 to 20)
#    0.000    0.800    6.000    3.000    0.000    2.400 
#    0.000    4.000    0.000    0.000    0.000    0.000 
#    0.000    0.000    0.000    0.000    0.000    0.000 
#
# Total GULP energy -111476.285968 kJ/mol
# GULP energy per Si atom -5573.814298 kJ/mol
# Density = 2.267519 g / cm^3
# Si number density = 22.726914 Si / 1000 Ang^3
#
#
#
# Elastic Constant Matrix: (Units=GPa)
#
#
# Indices 1 2 3 4 5 6 
#
# 1 113.9140 43.6124 4.3399 0.0000 0.0000 0.0000
# 2 43.6124 149.6786 3.2693 0.0000 0.0000 0.0000
# 3 4.3399 3.2693 81.0430 0.0000 0.0000 0.0000
# 4 0.0000 0.0000 0.0000 20.7483 0.0000 0.0000
# 5 0.0000 0.0000 0.0000 0.0000 8.2249 0.0000
# 6 0.0000 0.0000 0.0000 0.0000 0.0000 50.8280
#
#
#
# Elastic Compliance Matrix: (Units=1/GPa)
#
#
# Indices 1 2 3 4 5 6 
#
# 1 0.009895 -0.002874 -0.000414 0.000000 0.000000 0.000000
# 2 -0.002874 0.007522 -0.000150 0.000000 0.000000 0.000000
# 3 -0.000414 -0.000150 0.012367 0.000000 0.000000 0.000000
# 4 0.000000 0.000000 0.000000 0.048197 0.000000 0.000000
# 5 0.000000 0.000000 0.000000 0.000000 0.121582 0.000000
# 6 0.000000 0.000000 0.000000 0.000000 0.000000 0.019674
#
#
# Mechanical properties :
#
#
# Convention : Reuss Voigt Hill
#
# Bulk Modulus (GPa) = 43.65146 49.67540 46.66343
# Shear Modulus (GPa) = 21.39063 35.52118 28.45591
#
# Velocity S-wave (km/s) = 3.07123 3.95771 3.54231
# Velocity P-wave (km/s) = 5.64139 6.54138 6.10798
#
# Compressibility (1/GPa) = 0.02290874
#
# Stress axis : x y z
#
# Youngs Moduli (GPa) = 101.06481 132.94945 80.85825
#
# Poissons Ratio (x) = 0.38210 0.03347
# Poissons Ratio (y) = 0.29046 0.01209
# Poissons Ratio (z) = 0.04183 0.01988
#
# Static dielectric constant tensor:
#      x y z
#    x 1.996470 0.000000 0.000000 
#    y 0.000000 1.868240 0.000000 
#    z 0.000000 0.000000 1.867520 
# 
# From -- ./inp_files/30369.got.cif
#   From: 2010.05.17/outbox.cif.g08.bks.cpg/sg20_16_cif.got.tgz:30369.got - 2010.06.03 22:52:26.
