data_PCOD9321948
_publ_section_title
;
Structure prediction by ZEFSAII (Michael W. Deem and Ramdas Pophale) SiO2 
 PCOD9321948
Probable space group: C 2 2 21
;
_chemical_formula_sum "Si O2"
_cell_formula_units_Z 40
_cell_length_a 28.893926
_cell_length_b 12.395459
_cell_length_c 4.867661
_cell_angle_alpha 90.000000
_cell_angle_beta 90.000000
_cell_angle_gamma 90.000000
_cell_volume 1743.369703
_symmetry_space_group_name_H-M "C 2 2 21"
_symmetry_group_IT_number 20
_symmetry_cell_setting 'orthorhombic'
loop_
_space_group_symop_operation_xyz
x,y,z
-x,-y,1/2+z
x,-y,-z
-x,y,1/2-z
1/2+x,1/2+y,z
1/2-x,1/2-y,1/2+z
1/2+x,1/2-y,-z
1/2-x,1/2+y,1/2-z
loop_
_atom_site_type_symbol
_atom_site_label
_atom_site_fract_x
_atom_site_fract_y
_atom_site_fract_z
Si Si1 0.728638 0.000000 0.500000
Si Si2 0.925054 0.771739 0.819728
Si Si3 0.868721 0.725075 0.324671
Si Si4 0.532135 0.500000 0.500000
Si Si5 0.500000 0.916967 0.250000
Si Si6 0.225102 0.792858 0.876312
Si Si7 0.163117 0.500000 0.000000
O O1 0.762924 0.082888 0.358738
O O2 0.695473 0.038733 0.747761
O O3 0.910171 0.774298 0.502968
O O4 0.960016 0.669197 0.844138
O O5 0.942063 0.890728 0.904814
O O6 0.880428 0.746925 0.009922
O O7 0.821512 0.769105 0.459088
O O8 0.866348 0.597738 0.382513
O O9 0.500000 0.535167 0.750000
O O10 0.488239 0.000000 0.500000
O O11 0.233387 0.749027 0.573637
#
# Coordination Sequence:
#
# PCOD9321948 Si02
#       7
#     4   8   8   4   4   8   4
#     4  12  22  42  71  94 131 196 237 276 353 412
#     4  12  28  48  75 109 141 191 235 302 362 426
#     4  12  26  44  70 108 144 178 243 296 356 418
#     4  12  26  52  80 102 144 194 248 286 362 456
#     4  12  28  50  74 112 154 186 232 296 378 450
#     4  12  23  43  65  98 138 183 233 286 335 413
#     4  12  24  42  69 100 141 190 229 282 353 444
#
# _framework density 22.944071000000001
#
# number of rings (size 3 to 8) (size 9 to 14) (size 15 to 20)
#    0.000    0.000    5.000    4.800    5.600    1.600 
#    0.000    0.000    0.000    0.000    0.000    0.000 
#    0.000    0.000    0.000    0.000    0.000    0.000 
#
# Total GULP energy -111759.453329 kJ/mol
# GULP energy per Si atom -5587.972666 kJ/mol
# Density = 2.289185 g / cm^3
# Si number density = 22.944071 Si / 1000 Ang^3
#
#
#
# Elastic Constant Matrix: (Units=GPa)
#
#
# Indices 1 2 3 4 5 6 
#
# 1 70.5904 29.2417 0.6446 0.0000 0.0000 0.0000
# 2 29.2417 125.1907 0.7057 0.0000 0.0000 0.0000
# 3 0.6446 0.7057 83.9293 0.0000 0.0000 0.0000
# 4 0.0000 0.0000 0.0000 27.9994 0.0000 0.0000
# 5 0.0000 0.0000 0.0000 0.0000 46.0951 0.0000
# 6 0.0000 0.0000 0.0000 0.0000 0.0000 46.8652
#
#
#
# Elastic Compliance Matrix: (Units=1/GPa)
#
#
# Indices 1 2 3 4 5 6 
#
# 1 0.015684 -0.003663 -0.000090 0.000000 0.000000 0.000000
# 2 -0.003663 0.008844 -0.000046 0.000000 0.000000 0.000000
# 3 -0.000090 -0.000046 0.011916 0.000000 0.000000 0.000000
# 4 0.000000 0.000000 0.000000 0.035715 0.000000 0.000000
# 5 0.000000 0.000000 0.000000 0.000000 0.021694 0.000000
# 6 0.000000 0.000000 0.000000 0.000000 0.000000 0.021338
#
#
# Mechanical properties :
#
#
# Convention : Reuss Voigt Hill
#
# Bulk Modulus (GPa) = 34.66667 37.87717 36.27192
# Shear Modulus (GPa) = 37.76309 40.79981 39.28145
#
# Velocity S-wave (km/s) = 4.06134 4.22148 4.14218
# Velocity P-wave (km/s) = 6.09382 6.34866 6.22255
#
# Compressibility (1/GPa) = 0.02884615
#
# Stress axis : x y z
#
# Youngs Moduli (GPa) = 63.75743 113.07519 83.92171
#
# Poissons Ratio (x) = 0.41420 0.00753
# Poissons Ratio (y) = 0.23355 0.00388
# Poissons Ratio (z) = 0.00572 0.00523
#
# Static dielectric constant tensor:
#      x y z
#    x 1.889090 0.000000 0.000000 
#    y 0.000000 1.915120 0.000000 
#    z 0.000000 0.000000 1.706460 
# 
# From -- ./inp_files/4140.got.cif
#   From: 2010.05.17/outbox.cif.g08.bks.cpg/sg20_3_cif.got.tgz:4140.got - 2010.06.03 22:52:26.
