data_PCOD9321014
_publ_section_title
;
Structure prediction by ZEFSAII (Michael W. Deem and Ramdas Pophale) SiO2 
 PCOD9321014
Probable space group: C 2 2 21
;
_chemical_formula_sum "Si O2"
_cell_formula_units_Z 40
_cell_length_a 11.005278
_cell_length_b 7.822369
_cell_length_c 17.882134
_cell_angle_alpha 90.000000
_cell_angle_beta 90.000000
_cell_angle_gamma 90.000000
_cell_volume 1539.425447
_symmetry_space_group_name_H-M "C 2 2 21"
_symmetry_group_IT_number 20
_symmetry_cell_setting 'orthorhombic'
loop_
_space_group_symop_operation_xyz
x,y,z
-x,-y,1/2+z
x,-y,-z
-x,y,1/2-z
1/2+x,1/2+y,z
1/2-x,1/2-y,1/2+z
1/2+x,1/2-y,-z
1/2-x,1/2+y,1/2-z
loop_
_atom_site_type_symbol
_atom_site_label
_atom_site_fract_x
_atom_site_fract_y
_atom_site_fract_z
Si Si1 0.060918 0.858214 0.675944
Si Si2 0.587674 0.438487 0.071721
Si Si3 0.707572 0.870364 0.903551
Si Si4 0.636529 0.191702 0.466522
Si Si5 0.462125 0.037390 0.167721
O O1 0.184993 0.940422 0.647053
O O2 0.000000 0.926698 0.750000
O O3 0.079367 0.656362 0.680657
O O4 0.963809 0.901132 0.613123
O O5 0.664694 0.317236 0.123889
O O6 0.481008 0.318235 0.038255
O O7 0.660992 0.500000 0.000000
O O8 0.583755 0.971522 0.885754
O O9 0.767718 0.810624 0.984565
O O10 0.640995 0.142817 0.377693
O O11 0.608082 0.000000 0.500000
O O12 0.500000 0.105658 0.250000
#
# Coordination Sequence:
#
# PCOD9321014 Si02
#       5
#     8   8   8   8   8
#     4  11  25  49  70 108 149 184 251 304 368 453
#     4  11  23  43  70 105 140 187 244 298 354 446
#     4  11  24  45  71 104 138 198 234 298 389 413
#     4  11  21  46  74 104 150 186 256 302 359 452
#     4  10  24  47  73 104 153 196 246 311 373 449
#
# _framework density 25.983720000000002
#
# number of rings (size 3 to 8) (size 9 to 14) (size 15 to 20)
#    0.000    1.200    4.000    0.600    0.000    6.400 
#   25.200    0.000    0.000    0.000    0.000    0.000 
#    0.000    0.000    0.000    0.000    0.000    0.000 
#
# Total GULP energy -111339.531770 kJ/mol
# GULP energy per Si atom -5566.976589 kJ/mol
# Density = 2.592458 g / cm^3
# Si number density = 25.983720 Si / 1000 Ang^3
#
#
#
# Elastic Constant Matrix: (Units=GPa)
#
#
# Indices 1 2 3 4 5 6 
#
# 1 108.3438 -9.2060 19.7731 0.0000 0.0000 0.0000
# 2 -9.2060 76.1428 4.8069 0.0000 0.0000 0.0000
# 3 19.7731 4.8069 119.4474 0.0000 0.0000 0.0000
# 4 0.0000 0.0000 0.0000 6.3326 0.0000 0.0000
# 5 0.0000 0.0000 0.0000 0.0000 20.4275 0.0000
# 6 0.0000 0.0000 0.0000 0.0000 0.0000 -43.7323
#
#
#
# Elastic Compliance Matrix: (Units=1/GPa)
#
#
# Indices 1 2 3 4 5 6 
#
# 1 0.009638 0.001269 -0.001647 0.000000 0.000000 0.000000
# 2 0.001269 0.013334 -0.000747 0.000000 0.000000 0.000000
# 3 -0.001647 -0.000747 0.008675 0.000000 0.000000 0.000000
# 4 0.000000 0.000000 0.000000 0.157913 0.000000 0.000000
# 5 0.000000 0.000000 0.000000 0.000000 0.048954 0.000000
# 6 0.000000 0.000000 0.000000 0.000000 0.000000 -0.022866
#
#
# Mechanical properties :
#
#
# Convention : Reuss Voigt Hill
#
# Bulk Modulus (GPa) = 34.01534 37.18691 35.60112
# Shear Modulus (GPa) = 21.95925 15.84287 18.90106
#
# Velocity S-wave (km/s) = 2.91024 2.47194 2.70000
# Velocity P-wave (km/s) = 4.94086 4.74236 4.84263
#
# Compressibility (1/GPa) = 0.02939850
#
# Stress axis : x y z
#
# Youngs Moduli (GPa) = 103.75343 74.99725 115.28036
#
# Poissons Ratio (x) = -0.09519 0.18982
# Poissons Ratio (y) = -0.13169 0.08608
# Poissons Ratio (z) = 0.17084 0.05600
#
# Static dielectric constant tensor:
#      x y z
#    x 2.117900 0.000000 0.000000 
#    y 0.000000 2.008600 0.000000 
#    z 0.000000 0.000000 2.179820 
# 
# From -- ./inp_files/23190.got.cif
#   From: 2010.05.17/outbox.cif.g08.bks.cpg/sg20_12_cif.got.tgz:23190.got - 2010.06.03 22:52:26.
