data_PCOD9321134
_publ_section_title
;
Structure prediction by ZEFSAII (Michael W. Deem and Ramdas Pophale) SiO2 
 PCOD9321134
Probable space group: C 2 2 21
;
_chemical_formula_sum "Si O2"
_cell_formula_units_Z 36
_cell_length_a 13.838652
_cell_length_b 4.875275
_cell_length_c 19.238278
_cell_angle_alpha 90.000000
_cell_angle_beta 90.000000
_cell_angle_gamma 90.000000
_cell_volume 1297.953406
_symmetry_space_group_name_H-M "C 2 2 21"
_symmetry_group_IT_number 20
_symmetry_cell_setting 'orthorhombic'
loop_
_space_group_symop_operation_xyz
x,y,z
-x,-y,1/2+z
x,-y,-z
-x,y,1/2-z
1/2+x,1/2+y,z
1/2-x,1/2-y,1/2+z
1/2+x,1/2-y,-z
1/2-x,1/2+y,1/2-z
loop_
_atom_site_type_symbol
_atom_site_label
_atom_site_fract_x
_atom_site_fract_y
_atom_site_fract_z
Si Si1 0.277731 0.000000 0.000000
Si Si2 0.084998 0.727507 0.394786
Si Si3 0.538981 0.185522 0.823677
Si Si4 0.883511 0.680011 0.430258
Si Si5 0.681581 0.519870 0.741304
O O1 0.208549 0.862919 0.056576
O O2 0.343578 0.210533 0.041414
O O3 0.240142 0.261926 0.267006
O O4 0.050056 0.416482 0.373179
O O5 0.982047 0.852213 0.418518
O O6 0.500000 0.068283 0.750000
O O7 0.594441 0.454569 0.795283
O O8 0.622545 0.023682 0.865180
O O9 0.896131 0.500000 0.500000
O O10 0.631927 0.627235 0.671017
#
# Coordination Sequence:
#
# PCOD9321134 Si02
#       5
#     4   8   8   8   8
#     4  12  26  58  96 128 188 260 326 382 492 578
#     4  10  26  56  89 135 187 246 315 400 473 572
#     4  10  25  53  85 130 188 237 305 398 473 560
#     4  10  26  56  86 132 181 253 315 392 472 586
#     4  12  29  54  90 144 188 242 316 397 490 576
#
# _framework density 27.735973000000001
#
# number of rings (size 3 to 8) (size 9 to 14) (size 15 to 20)
#    1.333    0.000    1.111    1.333    3.111    9.778 
#    6.000    0.000    0.000    0.000    0.000    0.000 
#    0.000    0.000    0.000    0.000    0.000    0.000 
#
# Total GULP energy -100793.855987 kJ/mol
# GULP energy per Si atom -5599.658666 kJ/mol
# Density = 2.767285 g / cm^3
# Si number density = 27.735973 Si / 1000 Ang^3
#
#
#
# Elastic Constant Matrix: (Units=GPa)
#
#
# Indices 1 2 3 4 5 6 
#
# 1 180.4601 57.8130 66.7528 0.0000 0.0000 0.0000
# 2 57.8130 123.1672 40.4821 0.0000 0.0000 0.0000
# 3 66.7528 40.4821 136.8798 0.0000 0.0000 0.0000
# 4 0.0000 0.0000 0.0000 51.1058 0.0000 0.0000
# 5 0.0000 0.0000 0.0000 0.0000 70.3342 0.0000
# 6 0.0000 0.0000 0.0000 0.0000 0.0000 64.6077
#
#
#
# Elastic Compliance Matrix: (Units=1/GPa)
#
#
# Indices 1 2 3 4 5 6 
#
# 1 0.007414 -0.002539 -0.002865 0.000000 0.000000 0.000000
# 2 -0.002539 0.009862 -0.001679 0.000000 0.000000 0.000000
# 3 -0.002865 -0.001679 0.009199 0.000000 0.000000 0.000000
# 4 0.000000 0.000000 0.000000 0.019567 0.000000 0.000000
# 5 0.000000 0.000000 0.000000 0.000000 0.014218 0.000000
# 6 0.000000 0.000000 0.000000 0.000000 0.000000 0.015478
#
#
# Mechanical properties :
#
#
# Convention : Reuss Voigt Hill
#
# Bulk Modulus (GPa) = 81.22558 85.62253 83.42406
# Shear Modulus (GPa) = 53.18694 55.57348 54.38021
#
# Velocity S-wave (km/s) = 4.38381 4.48108 4.43271
# Velocity P-wave (km/s) = 7.41435 7.59678 7.50612
#
# Compressibility (1/GPa) = 0.01231139
#
# Stress axis : x y z
#
# Youngs Moduli (GPa) = 134.87170 101.39526 108.70272
#
# Poissons Ratio (x) = 0.25740 0.31144
# Poissons Ratio (y) = 0.34238 0.18249
# Poissons Ratio (z) = 0.38642 0.17022
#
# Static dielectric constant tensor:
#      x y z
#    x 2.160960 0.000000 0.000000 
#    y 0.000000 2.238310 0.000000 
#    z 0.000000 0.000000 2.107390 
# 
# From -- ./inp_files/27387.got.cif
#   From: 2010.05.17/outbox.cif.g08.bks.cpg/sg20_14_cif.got.tgz:27387.got - 2010.06.03 22:52:26.
