data_PCOD9321299
_publ_section_title
;
Structure prediction by ZEFSAII (Michael W. Deem and Ramdas Pophale) SiO2 
 PCOD9321299
Probable space group: C 2 2 21
;
_chemical_formula_sum "Si O2"
_cell_formula_units_Z 64
_cell_length_a 14.813402
_cell_length_b 9.101510
_cell_length_c 22.038927
_cell_angle_alpha 90.000000
_cell_angle_beta 90.000000
_cell_angle_gamma 90.000000
_cell_volume 2971.383488
_symmetry_space_group_name_H-M "C 2 2 21"
_symmetry_group_IT_number 20
_symmetry_cell_setting 'orthorhombic'
loop_
_space_group_symop_operation_xyz
x,y,z
-x,-y,1/2+z
x,-y,-z
-x,y,1/2-z
1/2+x,1/2+y,z
1/2-x,1/2-y,1/2+z
1/2+x,1/2-y,-z
1/2-x,1/2+y,1/2-z
loop_
_atom_site_type_symbol
_atom_site_label
_atom_site_fract_x
_atom_site_fract_y
_atom_site_fract_z
Si Si1 0.993594 0.916371 0.941199
Si Si2 0.042632 0.077858 0.315746
Si Si3 0.272264 0.578737 0.062229
Si Si4 0.774250 0.577703 0.186391
Si Si5 0.993594 0.416372 0.058801
Si Si6 0.457369 0.922143 0.184254
Si Si7 0.274250 0.422296 0.186391
Si Si8 0.272263 0.921263 0.062230
O O1 0.021525 0.956198 0.872837
O O2 0.883165 0.927185 0.938806
O O3 0.019477 0.750000 0.950873
O O4 0.025514 0.000000 0.000000
O O5 0.075146 0.250000 0.324829
O O6 0.000000 0.075912 0.250000
O O7 0.119270 0.955511 0.317001
O O8 0.240826 0.498235 0.123897
O O9 0.247033 0.750000 0.062765
O O10 0.243209 0.500000 0.000000
O O11 0.880729 0.544488 0.183000
O O12 0.750000 0.500000 0.250000
O O13 0.751673 0.749999 0.187862
O O14 0.740825 0.501764 0.123897
O O15 0.021525 0.456200 0.127163
O O16 0.883165 0.427185 0.061194
O O17 0.025514 0.500000 0.000000
O O18 0.500000 0.924088 0.250000
O O19 0.243209 0.000000 0.000000
#
# Coordination Sequence:
#
# PCOD9321299 Si02
#       8
#     8   8   8   8   8   8   8   8
#     4   8  14  24  41  65  91 119 151 190 233 278
#     4   9  18  33  51  71  97 128 162 201 246 294
#     4   9  16  28  46  70  97 125 160 201 246 291
#     4  11  21  33  50  73 101 132 167 207 250 295
#     4   8  14  24  41  65  91 119 151 190 233 278
#     4   9  18  33  51  71  97 128 162 201 246 294
#     4  11  21  33  50  73 101 132 167 207 250 295
#     4   9  16  28  46  70  97 125 160 201 246 291
#
# _framework density 21.538786000000002
#
# number of rings (size 3 to 8) (size 9 to 14) (size 15 to 20)
#    0.000    2.750    0.000    4.500    0.000    6.500 
#    0.000    0.000    0.000    1.500    0.000    7.000 
#    0.000    0.000    0.000    0.000    0.000    0.000 
#
# Total GULP energy -178332.864764 kJ/mol
# GULP energy per Si atom -5572.902024 kJ/mol
# Density = 2.148976 g / cm^3
# Si number density = 21.538786 Si / 1000 Ang^3
#
#
#
# Elastic Constant Matrix: (Units=GPa)
#
#
# Indices 1 2 3 4 5 6 
#
# 1 27.3371 10.6057 9.7546 0.0000 0.0000 0.0000
# 2 10.6057 141.5945 120.4783 0.0000 0.0000 0.0000
# 3 9.7546 120.4783 283.1294 0.0000 0.0000 0.0000
# 4 0.0000 0.0000 0.0000 45.8296 0.0000 0.0000
# 5 0.0000 0.0000 0.0000 0.0000 17.0005 0.0000
# 6 0.0000 0.0000 0.0000 0.0000 0.0000 5.2682
#
#
#
# Elastic Compliance Matrix: (Units=1/GPa)
#
#
# Indices 1 2 3 4 5 6 
#
# 1 0.037679 -0.002693 -0.000152 0.000000 0.000000 0.000000
# 2 -0.002693 0.011263 -0.004700 0.000000 0.000000 0.000000
# 3 -0.000152 -0.004700 0.005537 0.000000 0.000000 0.000000
# 4 0.000000 0.000000 0.000000 0.021820 0.000000 0.000000
# 5 0.000000 0.000000 0.000000 0.000000 0.058822 0.000000
# 6 0.000000 0.000000 0.000000 0.000000 0.000000 0.189819
#
#
# Mechanical properties :
#
#
# Convention : Reuss Voigt Hill
#
# Bulk Modulus (GPa) = 25.38729 81.52645 53.45687
# Shear Modulus (GPa) = 14.15790 34.36782 24.26286
#
# Velocity S-wave (km/s) = 2.56661 3.99886 3.35994
# Velocity P-wave (km/s) = 4.53825 7.69768 6.31862
#
# Compressibility (1/GPa) = 0.03938978
#
# Stress axis : x y z
#
# Youngs Moduli (GPa) = 26.53972 88.78494 180.59804
#
# Poissons Ratio (x) = 0.23906 0.02752
# Poissons Ratio (y) = 0.07146 0.84881
# Poissons Ratio (z) = 0.00404 0.41729
#
# Static dielectric constant tensor:
#      x y z
#    x 1.891840 0.000000 0.000000 
#    y 0.000000 1.743520 0.000000 
#    z 0.000000 0.000000 1.880120 
# 
# From -- ./inp_files/25643.got.cif
#   From: 2010.05.17/outbox.cif.g08.bks.cpg/sg20_13_cif.got.tgz:25643.got - 2010.06.03 22:52:26.
