data_PCOD9321348
_publ_section_title
;
Structure prediction by ZEFSAII (Michael W. Deem and Ramdas Pophale) SiO2 
 PCOD9321348
Probable space group: C 2 2 21
;
_chemical_formula_sum "Si O2"
_cell_formula_units_Z 56
_cell_length_a 13.732849
_cell_length_b 21.784560
_cell_length_c 9.008474
_cell_angle_alpha 90.000000
_cell_angle_beta 90.000000
_cell_angle_gamma 90.000000
_cell_volume 2695.011773
_symmetry_space_group_name_H-M "C 2 2 21"
_symmetry_group_IT_number 20
_symmetry_cell_setting 'orthorhombic'
loop_
_space_group_symop_operation_xyz
x,y,z
-x,-y,1/2+z
x,-y,-z
-x,y,1/2-z
1/2+x,1/2+y,z
1/2-x,1/2-y,1/2+z
1/2+x,1/2-y,-z
1/2-x,1/2+y,1/2-z
loop_
_atom_site_type_symbol
_atom_site_label
_atom_site_fract_x
_atom_site_fract_y
_atom_site_fract_z
Si Si1 0.500000 0.553430 0.750000
Si Si2 0.893341 0.200986 0.306253
Si Si3 0.669402 0.377471 0.075794
Si Si4 0.166714 0.660287 0.817068
Si Si5 0.747390 0.119215 0.120102
Si Si6 0.136571 0.000000 0.500000
Si Si7 0.303842 0.960373 0.871139
Si Si8 0.593604 0.030384 0.839105
O O1 0.422584 0.593888 0.659093
O O2 0.565684 0.514195 0.638059
O O3 0.868818 0.177430 0.471556
O O4 0.877333 0.273383 0.288474
O O5 0.821504 0.162426 0.204007
O O6 0.000000 0.184786 0.250000
O O7 0.751675 0.354518 0.191808
O O8 0.717301 0.429768 0.966609
O O9 0.092134 0.603395 0.829976
O O10 0.207728 0.657948 0.983750
O O11 0.801297 0.060400 0.045239
O O12 0.673906 0.094493 0.251281
O O13 0.305940 0.013437 0.746705
O O14 0.359518 0.000000 0.000000
O O15 0.500000 0.005469 0.750000
O O16 0.595103 0.000000 0.000000
#
# Coordination Sequence:
#
# PCOD9321348 Si02
#       8
#     4   8   8   8   8   4   8   8
#     4  12  26  38  64 102 140 176 220 278 356 428
#     4  11  26  45  68  95 134 180 234 294 346 423
#     4  11  25  43  69  98 139 184 226 286 356 427
#     4  12  23  46  70  96 131 188 239 283 351 429
#     4  11  23  42  67  97 135 176 230 282 348 428
#     4  12  24  36  62 100 136 168 214 280 344 416
#     4  11  21  40  66 100 136 176 220 279 354 422
#     4  12  25  42  71 104 143 180 230 297 354 415
#
# _framework density 20.779129999999999
#
# number of rings (size 3 to 8) (size 9 to 14) (size 15 to 20)
#    0.000    0.571    4.286    4.286    6.000    0.000 
#    0.000    0.000    1.571    0.000    0.000    0.000 
#    0.000    0.000    0.000    0.000    0.000    0.000 
#
# Total GULP energy -155947.163788 kJ/mol
# GULP energy per Si atom -5569.541564 kJ/mol
# Density = 2.073184 g / cm^3
# Si number density = 20.779130 Si / 1000 Ang^3
#
#
#
# Elastic Constant Matrix: (Units=GPa)
#
#
# Indices 1 2 3 4 5 6 
#
# 1 51.2637 8.5377 41.9146 0.0000 0.0000 0.0000
# 2 8.5377 93.0241 26.9450 0.0000 0.0000 0.0000
# 3 41.9146 26.9450 142.4063 0.0000 0.0000 0.0000
# 4 0.0000 0.0000 0.0000 35.4532 0.0000 0.0000
# 5 0.0000 0.0000 0.0000 0.0000 35.5661 0.0000
# 6 0.0000 0.0000 0.0000 0.0000 0.0000 23.9007
#
#
#
# Elastic Compliance Matrix: (Units=1/GPa)
#
#
# Indices 1 2 3 4 5 6 
#
# 1 0.025692 -0.000177 -0.007528 0.000000 0.000000 0.000000
# 2 -0.000177 0.011374 -0.002100 0.000000 0.000000 0.000000
# 3 -0.007528 -0.002100 0.009635 0.000000 0.000000 0.000000
# 4 0.000000 0.000000 0.000000 0.028206 0.000000 0.000000
# 5 0.000000 0.000000 0.000000 0.000000 0.028117 0.000000
# 6 0.000000 0.000000 0.000000 0.000000 0.000000 0.041840
#
#
# Mechanical properties :
#
#
# Convention : Reuss Voigt Hill
#
# Bulk Modulus (GPa) = 36.91359 49.05429 42.98394
# Shear Modulus (GPa) = 28.81750 32.93714 30.87732
#
# Velocity S-wave (km/s) = 3.72808 3.98566 3.85902
# Velocity P-wave (km/s) = 6.02783 6.69622 6.37080
#
# Compressibility (1/GPa) = 0.02709029
#
# Stress axis : x y z
#
# Youngs Moduli (GPa) = 38.92281 87.91630 103.78466
#
# Poissons Ratio (x) = 0.01559 0.78133
# Poissons Ratio (y) = 0.00690 0.21795
# Poissons Ratio (z) = 0.29302 0.18462
#
# Static dielectric constant tensor:
#      x y z
#    x 1.792960 0.000000 0.000000 
#    y 0.000000 1.741500 0.000000 
#    z 0.000000 0.000000 1.828810 
# 
# From -- ./inp_files/8787.got.cif
#   From: 2010.05.17/outbox.cif.g08.bks.cpg/sg20_5_cif.got.tgz:8787.got - 2010.06.03 22:52:26.
