data_PCOD9321416
_publ_section_title
;
Structure prediction by ZEFSAII (Michael W. Deem and Ramdas Pophale) SiO2 
 PCOD9321416
Probable space group: C 2 2 21
;
_chemical_formula_sum "Si O2"
_cell_formula_units_Z 40
_cell_length_a 20.533876
_cell_length_b 9.437945
_cell_length_c 9.519829
_cell_angle_alpha 90.000000
_cell_angle_beta 90.000000
_cell_angle_gamma 90.000000
_cell_volume 1844.919940
_symmetry_space_group_name_H-M "C 2 2 21"
_symmetry_group_IT_number 20
_symmetry_cell_setting 'orthorhombic'
loop_
_space_group_symop_operation_xyz
x,y,z
-x,-y,1/2+z
x,-y,-z
-x,y,1/2-z
1/2+x,1/2+y,z
1/2-x,1/2-y,1/2+z
1/2+x,1/2-y,-z
1/2-x,1/2+y,1/2-z
loop_
_atom_site_type_symbol
_atom_site_label
_atom_site_fract_x
_atom_site_fract_y
_atom_site_fract_z
Si Si1 0.416240 0.341178 0.501639
Si Si2 0.000000 0.263117 0.750000
Si Si3 0.779449 0.279652 0.433528
Si Si4 0.772358 0.428516 0.714464
Si Si5 0.500000 0.233242 0.750000
Si Si6 0.595273 0.987756 0.653917
O O1 0.389778 0.500000 0.500000
O O2 0.450086 0.316646 0.350992
O O3 0.357004 0.236501 0.540643
O O4 0.471034 0.322659 0.621658
O O5 0.040609 0.366964 0.649089
O O6 0.753396 0.323063 0.587176
O O7 0.757205 0.411573 0.335051
O O8 0.756992 0.137621 0.355477
O O9 0.849881 0.438940 0.738388
O O10 0.558151 0.130169 0.698056
O O11 0.625275 0.000000 0.500000
#
# Coordination Sequence:
#
# PCOD9321416 Si02
#       6
#     8   4   8   8   4   8
#     4  12  25  44  70 103 149 188 237 302 375 438
#     4  11  23  42  68 108 141 181 230 308 372 440
#     4  11  27  46  72 104 142 197 247 305 364 438
#     4  11  26  46  70 103 142 189 253 300 364 437
#     4  11  23  42  68 110 137 183 232 304 370 440
#     4  11  22  38  74  99 138 182 239 298 362 433
#
# _framework density 21.681159000000001
#
# number of rings (size 3 to 8) (size 9 to 14) (size 15 to 20)
#    0.000    0.800    6.000    0.600    5.600    0.000 
#    0.000    0.000    0.000    0.000    0.000    0.000 
#    0.000    0.000    0.000    0.000    0.000    0.000 
#
# Total GULP energy -111640.228736 kJ/mol
# GULP energy per Si atom -5582.011437 kJ/mol
# Density = 2.163181 g / cm^3
# Si number density = 21.681159 Si / 1000 Ang^3
#
#
#
# Elastic Constant Matrix: (Units=GPa)
#
#
# Indices 1 2 3 4 5 6 
#
# 1 50.6960 13.5624 21.0461 0.0000 0.0000 0.0000
# 2 13.5624 72.5338 62.5199 0.0000 0.0000 0.0000
# 3 21.0461 62.5199 99.0055 0.0000 0.0000 0.0000
# 4 0.0000 0.0000 0.0000 37.7867 0.0000 0.0000
# 5 0.0000 0.0000 0.0000 0.0000 39.1946 0.0000
# 6 0.0000 0.0000 0.0000 0.0000 0.0000 31.0688
#
#
#
# Elastic Compliance Matrix: (Units=1/GPa)
#
#
# Indices 1 2 3 4 5 6 
#
# 1 0.021636 -0.000178 -0.004487 0.000000 0.000000 0.000000
# 2 -0.000178 0.030255 -0.019068 0.000000 0.000000 0.000000
# 3 -0.004487 -0.019068 0.023095 0.000000 0.000000 0.000000
# 4 0.000000 0.000000 0.000000 0.026464 0.000000 0.000000
# 5 0.000000 0.000000 0.000000 0.000000 0.025514 0.000000
# 6 0.000000 0.000000 0.000000 0.000000 0.000000 0.032187
#
#
# Mechanical properties :
#
#
# Convention : Reuss Voigt Hill
#
# Bulk Modulus (GPa) = 36.33604 46.27690 41.30647
# Shear Modulus (GPa) = 23.17080 29.95051 26.56065
#
# Velocity S-wave (km/s) = 3.27265 3.72076 3.50388
# Velocity P-wave (km/s) = 5.57459 6.31264 5.95506
#
# Compressibility (1/GPa) = 0.02752088
#
# Stress axis : x y z
#
# Youngs Moduli (GPa) = 46.21988 33.05229 43.29948
#
# Poissons Ratio (x) = 0.00589 0.19427
# Poissons Ratio (y) = 0.00824 0.82562
# Poissons Ratio (z) = 0.20737 0.63023
#
# Static dielectric constant tensor:
#      x y z
#    x 1.751450 0.000000 0.000000 
#    y 0.000000 1.795590 0.000000 
#    z 0.000000 0.000000 1.812630 
# 
# From -- ./inp_files/10541.got.cif
#   From: 2010.05.17/outbox.cif.g08.bks.cpg/sg20_6_cif.got.tgz:10541.got - 2010.06.03 22:52:26.
