data_PCOD9321263
_publ_section_title
;
Structure prediction by ZEFSAII (Michael W. Deem and Ramdas Pophale) SiO2 
 PCOD9321263
Probable space group: C 2 2 21
;
_chemical_formula_sum "Si O2"
_cell_formula_units_Z 64
_cell_length_a 20.614096
_cell_length_b 8.848631
_cell_length_c 18.876284
_cell_angle_alpha 90.000000
_cell_angle_beta 90.000000
_cell_angle_gamma 90.000000
_cell_volume 3443.157443
_symmetry_space_group_name_H-M "C 2 2 21"
_symmetry_group_IT_number 20
_symmetry_cell_setting 'orthorhombic'
loop_
_space_group_symop_operation_xyz
x,y,z
-x,-y,1/2+z
x,-y,-z
-x,y,1/2-z
1/2+x,1/2+y,z
1/2-x,1/2-y,1/2+z
1/2+x,1/2-y,-z
1/2-x,1/2+y,1/2-z
loop_
_atom_site_type_symbol
_atom_site_label
_atom_site_fract_x
_atom_site_fract_y
_atom_site_fract_z
Si Si1 0.868341 0.904314 0.930355
Si Si2 0.934889 0.831459 0.703990
Si Si3 0.689142 0.134583 0.286501
Si Si4 0.637434 0.961055 0.423657
Si Si5 0.682102 0.494730 0.280722
Si Si6 0.564896 0.972122 0.794567
Si Si7 0.006804 0.603005 0.058095
Si Si8 0.484995 0.379215 0.547677
O O1 0.864916 0.721100 0.925383
O O2 0.831340 0.955540 0.860896
O O3 0.945181 0.939841 0.925946
O O4 0.846178 0.000000 0.000000
O O5 0.878426 0.940034 0.734027
O O6 0.921822 0.652106 0.711960
O O7 0.948060 0.844090 0.619847
O O8 0.000000 0.863134 0.750000
O O9 0.674259 0.044886 0.359966
O O10 0.691976 0.315414 0.287871
O O11 0.753898 0.068322 0.252260
O O12 0.627081 0.103569 0.238102
O O13 0.563399 0.028312 0.423231
O O14 0.666579 0.000000 0.500000
O O15 0.500000 0.942612 0.750000
O O16 0.548573 0.905049 0.871507
O O17 0.041613 0.500000 0.000000
O O18 0.997943 0.752748 0.011483
O O19 0.447812 0.500000 0.500000
#
# Coordination Sequence:
#
# PCOD9321263 Si02
#       8
#     8   8   8   8   8   8   8   8
#     4  11  21  38  65  99 131 171 217 273 326 396
#     4  11  22  40  66  99 132 171 214 274 332 393
#     4  12  27  45  67  95 132 181 224 282 333 407
#     4  11  20  38  67  97 131 168 222 268 328 396
#     4  12  27  45  66  93 136 175 229 275 342 399
#     4  11  22  38  68  98 131 169 218 268 333 393
#     4  11  20  37  61  98 135 172 215 269 336 399
#     4  11  23  36  62  98 139 171 213 276 335 394
#
# _framework density 18.587589999999999
#
# number of rings (size 3 to 8) (size 9 to 14) (size 15 to 20)
#    0.000    0.750    6.250    3.000    3.500    0.500 
#    0.000    1.250    2.750    0.000    0.000    0.000 
#    0.000    0.000    0.000    0.000    0.000    0.000 
#
# Total GULP energy -178323.603406 kJ/mol
# GULP energy per Si atom -5572.612606 kJ/mol
# Density = 1.854528 g / cm^3
# Si number density = 18.587590 Si / 1000 Ang^3
#
#
#
# Elastic Constant Matrix: (Units=GPa)
#
#
# Indices 1 2 3 4 5 6 
#
# 1 76.1189 58.2879 59.3441 0.0000 0.0000 0.0000
# 2 58.2879 130.9787 75.3291 0.0000 0.0000 0.0000
# 3 59.3441 75.3291 166.0713 0.0000 0.0000 0.0000
# 4 0.0000 0.0000 0.0000 10.5971 0.0000 0.0000
# 5 0.0000 0.0000 0.0000 0.0000 18.2877 0.0000
# 6 0.0000 0.0000 0.0000 0.0000 0.0000 18.4820
#
#
#
# Elastic Compliance Matrix: (Units=1/GPa)
#
#
# Indices 1 2 3 4 5 6 
#
# 1 0.022347 -0.007241 -0.004701 0.000000 0.000000 0.000000
# 2 -0.007241 0.012676 -0.003162 0.000000 0.000000 0.000000
# 3 -0.004701 -0.003162 0.009136 0.000000 0.000000 0.000000
# 4 0.000000 0.000000 0.000000 0.094365 0.000000 0.000000
# 5 0.000000 0.000000 0.000000 0.000000 0.054682 0.000000
# 6 0.000000 0.000000 0.000000 0.000000 0.000000 0.054107
#
#
# Mechanical properties :
#
#
# Convention : Reuss Voigt Hill
#
# Bulk Modulus (GPa) = 71.68396 84.34345 78.01370
# Shear Modulus (GPa) = 17.71973 21.48723 19.60348
#
# Velocity S-wave (km/s) = 3.09092 3.40369 3.25107
# Velocity P-wave (km/s) = 7.16851 7.80522 7.49363
#
# Compressibility (1/GPa) = 0.01395012
#
# Stress axis : x y z
#
# Youngs Moduli (GPa) = 44.74800 78.88951 109.46065
#
# Poissons Ratio (x) = 0.57126 0.51458
# Poissons Ratio (y) = 0.32403 0.34613
# Poissons Ratio (z) = 0.21036 0.24946
#
# Static dielectric constant tensor:
#      x y z
#    x 1.608060 0.000000 0.000000 
#    y 0.000000 1.791720 0.000000 
#    z 0.000000 0.000000 1.683960 
# 
# From -- ./inp_files/25524.got.cif
#   From: 2010.05.17/outbox.cif.g08.bks.cpg/sg20_13_cif.got.tgz:25524.got - 2010.06.03 22:52:26.
