data_PCOD9321031
_publ_section_title
;
Structure prediction by ZEFSAII (Michael W. Deem and Ramdas Pophale) SiO2 
 PCOD9321031
Probable space group: C 2 2 21
;
_chemical_formula_sum "Si O2"
_cell_formula_units_Z 60
_cell_length_a 8.933534
_cell_length_b 25.375731
_cell_length_c 11.779295
_cell_angle_alpha 90.000000
_cell_angle_beta 90.000000
_cell_angle_gamma 90.000000
_cell_volume 2670.306758
_symmetry_space_group_name_H-M "C 2 2 21"
_symmetry_group_IT_number 20
_symmetry_cell_setting 'orthorhombic'
loop_
_space_group_symop_operation_xyz
x,y,z
-x,-y,1/2+z
x,-y,-z
-x,y,1/2-z
1/2+x,1/2+y,z
1/2-x,1/2-y,1/2+z
1/2+x,1/2-y,-z
1/2-x,1/2+y,1/2-z
loop_
_atom_site_type_symbol
_atom_site_label
_atom_site_fract_x
_atom_site_fract_y
_atom_site_fract_z
Si Si1 0.591586 0.273902 0.137058
Si Si2 0.850798 0.947687 0.207967
Si Si3 0.742308 0.922699 0.988212
Si Si4 0.668346 0.306725 0.539746
Si Si5 0.721774 0.438407 0.778703
Si Si6 0.000000 0.853774 0.750000
Si Si7 0.096400 0.559630 0.486614
Si Si8 0.656352 0.137919 0.689505
O O1 0.500000 0.255500 0.250000
O O2 0.696972 0.232639 0.069721
O O3 0.713028 0.318403 0.177080
O O4 0.461049 0.290100 0.048256
O O5 0.711757 0.910596 0.233492
O O6 0.000000 0.919888 0.250000
O O7 0.835191 0.001546 0.278012
O O8 0.853425 0.952627 0.072859
O O9 0.762172 0.860657 0.008029
O O10 0.761708 0.928906 0.854437
O O11 0.577743 0.943217 0.012349
O O12 0.590640 0.319490 0.660701
O O13 0.604209 0.394621 0.819786
O O14 0.866400 0.429758 0.855335
O O15 0.160363 0.500000 0.500000
O O16 0.146688 0.607728 0.567343
O O17 0.500000 0.156425 0.750000
#
# Coordination Sequence:
#
# PCOD9321031 Si02
#       8
#     8   8   8   8   8   4   8   8
#     4  12  30  51  83 114 147 201 264 330 407 471
#     4  12  23  43  72 104 151 196 257 308 378 456
#     4  11  25  43  69 104 149 191 250 316 378 461
#     4  11  28  50  80 109 150 194 263 325 407 466
#     4  11  23  42  66 105 149 203 244 303 378 459
#     4  10  24  48  70 108 152 192 244 314 384 466
#     4  12  24  41  70 107 153 200 252 305 370 454
#     4  12  26  45  76 108 156 198 259 321 389 461
#
# _framework density 22.469327
#
# number of rings (size 3 to 8) (size 9 to 14) (size 15 to 20)
#    0.000    0.533    3.333    4.400    4.667    3.200 
#    2.400    0.000    0.000    0.000    0.000    0.000 
#    0.000    0.000    0.000    0.000    0.000    0.000 
#
# Total GULP energy -167416.921291 kJ/mol
# GULP energy per Si atom -5580.564043 kJ/mol
# Density = 2.241819 g / cm^3
# Si number density = 22.469327 Si / 1000 Ang^3
#
#
#
# Elastic Constant Matrix: (Units=GPa)
#
#
# Indices 1 2 3 4 5 6 
#
# 1 98.4632 47.1349 56.0293 0.0000 0.0000 0.0000
# 2 47.1349 82.8823 28.3076 0.0000 0.0000 0.0000
# 3 56.0293 28.3076 127.3467 0.0000 0.0000 0.0000
# 4 0.0000 0.0000 0.0000 20.5704 0.0000 0.0000
# 5 0.0000 0.0000 0.0000 0.0000 52.1624 0.0000
# 6 0.0000 0.0000 0.0000 0.0000 0.0000 42.7817
#
#
#
# Elastic Compliance Matrix: (Units=1/GPa)
#
#
# Indices 1 2 3 4 5 6 
#
# 1 0.017209 -0.007792 -0.005839 0.000000 0.000000 0.000000
# 2 -0.007792 0.016585 -0.000258 0.000000 0.000000 0.000000
# 3 -0.005839 -0.000258 0.010479 0.000000 0.000000 0.000000
# 4 0.000000 0.000000 0.000000 0.048614 0.000000 0.000000
# 5 0.000000 0.000000 0.000000 0.000000 0.019171 0.000000
# 6 0.000000 0.000000 0.000000 0.000000 0.000000 0.023375
#
#
# Mechanical properties :
#
#
# Convention : Reuss Voigt Hill
#
# Bulk Modulus (GPa) = 60.63068 63.51508 62.07288
# Shear Modulus (GPa) = 29.63658 34.91757 32.27708
#
# Velocity S-wave (km/s) = 3.63572 3.94637 3.79422
# Velocity P-wave (km/s) = 6.68333 7.00671 6.84693
#
# Compressibility (1/GPa) = 0.01649330
#
# Stress axis : x y z
#
# Youngs Moduli (GPa) = 58.10832 60.29540 95.42724
#
# Poissons Ratio (x) = 0.46985 0.55724
# Poissons Ratio (y) = 0.45281 0.02464
# Poissons Ratio (z) = 0.33932 0.01557
#
# Static dielectric constant tensor:
#      x y z
#    x 1.874500 0.000000 0.000000 
#    y 0.000000 1.873600 0.000000 
#    z 0.000000 0.000000 1.864480 
# 
# From -- ./inp_files/13299.got.cif
#   From: 2010.05.17/outbox.cif.g08.bks.cpg/sg20_7_cif.got.tgz:13299.got - 2010.06.03 22:52:26.
