data_PCOD9321346
_publ_section_title
;
Structure prediction by ZEFSAII (Michael W. Deem and Ramdas Pophale) SiO2 
 PCOD9321346
Probable space group: C 2 2 21
;
_chemical_formula_sum "Si O2"
_cell_formula_units_Z 56
_cell_length_a 9.028401
_cell_length_b 21.607241
_cell_length_c 13.234570
_cell_angle_alpha 90.000000
_cell_angle_beta 90.000000
_cell_angle_gamma 90.000000
_cell_volume 2581.784514
_symmetry_space_group_name_H-M "C 2 2 21"
_symmetry_group_IT_number 20
_symmetry_cell_setting 'orthorhombic'
loop_
_space_group_symop_operation_xyz
x,y,z
-x,-y,1/2+z
x,-y,-z
-x,y,1/2-z
1/2+x,1/2+y,z
1/2-x,1/2-y,1/2+z
1/2+x,1/2-y,-z
1/2-x,1/2+y,1/2-z
loop_
_atom_site_type_symbol
_atom_site_label
_atom_site_fract_x
_atom_site_fract_y
_atom_site_fract_z
Si Si1 0.761158 0.692459 0.705504
Si Si2 0.050717 0.190151 0.519121
Si Si3 0.722427 0.393914 0.004302
Si Si4 0.667651 0.435377 0.212445
Si Si5 0.493536 0.820448 0.476127
Si Si6 0.257927 0.816866 0.653379
Si Si7 0.174789 0.929941 0.776826
O O1 0.617967 0.688303 0.631101
O O2 0.756664 0.627419 0.764070
O O3 0.895054 0.687822 0.624465
O O4 0.763435 0.753767 0.777689
O O5 0.133728 0.156930 0.426525
O O6 0.883053 0.167001 0.516386
O O7 0.088287 0.258655 0.481697
O O8 0.694444 0.421289 0.895564
O O9 0.667587 0.438651 0.091996
O O10 0.894385 0.376933 0.019648
O O11 0.500000 0.427870 0.250000
O O12 0.723901 0.500837 0.254970
O O13 0.396515 0.813456 0.577869
O O14 0.266959 0.873611 0.730298
O O15 0.000000 0.924095 0.750000
#
# Coordination Sequence:
#
# PCOD9321346 Si02
#       7
#     8   8   8   8   8   8   8
#     4  11  24  43  68  98 136 177 228 273 338 399
#     4  11  21  40  63  97 135 177 225 274 322 400
#     4  12  23  42  65 100 135 171 229 272 341 401
#     4  11  24  44  70  98 130 177 231 281 329 396
#     4  11  25  40  64 101 140 178 211 288 340 401
#     4  11  24  43  68  98 136 177 228 273 338 399
#     4  11  24  44  70  98 130 177 231 281 329 396
#
# _framework density 21.690422000000002
#
# number of rings (size 3 to 8) (size 9 to 14) (size 15 to 20)
#    0.000    0.857    2.857    5.571    0.000    3.429 
#    0.000    8.571    0.000    0.000    0.000    0.000 
#    0.000    0.000    0.000    0.000    0.000    0.000 
#
# Total GULP energy -156134.049333 kJ/mol
# GULP energy per Si atom -5576.216048 kJ/mol
# Density = 2.164105 g / cm^3
# Si number density = 21.690422 Si / 1000 Ang^3
#
#
#
# Elastic Constant Matrix: (Units=GPa)
#
#
# Indices 1 2 3 4 5 6 
#
# 1 77.7716 19.3934 37.8197 0.0000 0.0000 0.0000
# 2 19.3934 109.9830 40.7684 0.0000 0.0000 0.0000
# 3 37.8197 40.7684 156.1367 0.0000 0.0000 0.0000
# 4 0.0000 0.0000 0.0000 7.6518 0.0000 0.0000
# 5 0.0000 0.0000 0.0000 0.0000 21.0725 0.0000
# 6 0.0000 0.0000 0.0000 0.0000 0.0000 9.9727
#
#
#
# Elastic Compliance Matrix: (Units=1/GPa)
#
#
# Indices 1 2 3 4 5 6 
#
# 1 0.014771 -0.001415 -0.003208 0.000000 0.000000 0.000000
# 2 -0.001415 0.010202 -0.002321 0.000000 0.000000 0.000000
# 3 -0.003208 -0.002321 0.007788 0.000000 0.000000 0.000000
# 4 0.000000 0.000000 0.000000 0.130687 0.000000 0.000000
# 5 0.000000 0.000000 0.000000 0.000000 0.047455 0.000000
# 6 0.000000 0.000000 0.000000 0.000000 0.000000 0.100273
#
#
# Mechanical properties :
#
#
# Convention : Reuss Voigt Hill
#
# Bulk Modulus (GPa) = 52.98904 59.98379 56.48641
# Shear Modulus (GPa) = 15.08944 24.13341 19.61143
#
# Velocity S-wave (km/s) = 2.64042 3.33923 3.01017
# Velocity P-wave (km/s) = 5.81193 6.52547 6.17901
#
# Compressibility (1/GPa) = 0.01887183
#
# Stress axis : x y z
#
# Youngs Moduli (GPa) = 67.69879 98.01764 128.40559
#
# Poissons Ratio (x) = 0.13873 0.41197
# Poissons Ratio (y) = 0.09582 0.29804
# Poissons Ratio (z) = 0.21720 0.22750
#
# Static dielectric constant tensor:
#      x y z
#    x 1.836360 0.000000 0.000000 
#    y 0.000000 1.839480 0.000000 
#    z 0.000000 0.000000 1.919490 
# 
# From -- ./inp_files/19194.got.cif
#   From: 2010.05.17/outbox.cif.g08.bks.cpg/sg20_10_cif.got.tgz:19194.got - 2010.06.03 22:52:26.
