data_PCOD9321184
_publ_section_title
;
Structure prediction by ZEFSAII (Michael W. Deem and Ramdas Pophale) SiO2 
 PCOD9321184
Probable space group: C 2 2 21
;
_chemical_formula_sum "Si O2"
_cell_formula_units_Z 36
_cell_length_a 9.878975
_cell_length_b 16.911926
_cell_length_c 7.728054
_cell_angle_alpha 90.000000
_cell_angle_beta 90.000000
_cell_angle_gamma 90.000000
_cell_volume 1291.145257
_symmetry_space_group_name_H-M "C 2 2 21"
_symmetry_group_IT_number 20
_symmetry_cell_setting 'orthorhombic'
loop_
_space_group_symop_operation_xyz
x,y,z
-x,-y,1/2+z
x,-y,-z
-x,y,1/2-z
1/2+x,1/2+y,z
1/2-x,1/2-y,1/2+z
1/2+x,1/2-y,-z
1/2-x,1/2+y,1/2-z
loop_
_atom_site_type_symbol
_atom_site_label
_atom_site_fract_x
_atom_site_fract_y
_atom_site_fract_z
Si Si1 0.148215 0.992595 0.221808
Si Si2 0.000000 0.265954 0.250000
Si Si3 0.127513 0.830785 0.039935
Si Si4 0.162239 0.640101 0.261645
Si Si5 0.265579 0.339569 0.115551
O O1 0.184525 0.930197 0.374588
O O2 0.000000 0.030071 0.250000
O O3 0.274442 0.051780 0.218307
O O4 0.126261 0.925757 0.070223
O O5 0.987337 0.208244 0.418909
O O6 0.874722 0.324015 0.280977
O O7 0.262698 0.817137 0.923450
O O8 0.865543 0.802860 0.261442
O O9 0.000000 0.638543 0.250000
O O10 0.224967 0.671811 0.082282
#
# Coordination Sequence:
#
# PCOD9321184 Si02
#       5
#     8   4   8   8   8
#     4  10  26  49  78 118 164 214 282 359 438 517
#     4  12  26  50  80 114 170 218 298 342 436 536
#     4  10  28  46  74 114 161 218 277 351 427 521
#     4  12  26  47  82 118 166 213 281 360 445 517
#     4  10  27  48  75 114 161 217 280 350 429 517
#
# _framework density 27.882223
#
# number of rings (size 3 to 8) (size 9 to 14) (size 15 to 20)
#    1.333    0.000    0.000    2.667    9.333    3.556 
#    0.000    1.111    0.000    0.000    0.000    0.000 
#    0.000    0.000    0.000    0.000    0.000    0.000 
#
# Total GULP energy -100483.171197 kJ/mol
# GULP energy per Si atom -5582.398400 kJ/mol
# Density = 2.781876 g / cm^3
# Si number density = 27.882223 Si / 1000 Ang^3
#
#
#
# Elastic Constant Matrix: (Units=GPa)
#
#
# Indices 1 2 3 4 5 6 
#
# 1 272.1199 69.8143 63.6853 0.0000 0.0000 0.0000
# 2 69.8143 106.3428 62.5223 0.0000 0.0000 0.0000
# 3 63.6853 62.5223 225.3189 0.0000 0.0000 0.0000
# 4 0.0000 0.0000 0.0000 58.2960 0.0000 0.0000
# 5 0.0000 0.0000 0.0000 0.0000 46.4859 0.0000
# 6 0.0000 0.0000 0.0000 0.0000 0.0000 51.1295
#
#
#
# Elastic Compliance Matrix: (Units=1/GPa)
#
#
# Indices 1 2 3 4 5 6 
#
# 1 0.004473 -0.002621 -0.000537 0.000000 0.000000 0.000000
# 2 -0.002621 0.012772 -0.002803 0.000000 0.000000 0.000000
# 3 -0.000537 -0.002803 0.005368 0.000000 0.000000 0.000000
# 4 0.000000 0.000000 0.000000 0.017154 0.000000 0.000000
# 5 0.000000 0.000000 0.000000 0.000000 0.021512 0.000000
# 6 0.000000 0.000000 0.000000 0.000000 0.000000 0.019558
#
#
# Mechanical properties :
#
#
# Convention : Reuss Voigt Hill
#
# Bulk Modulus (GPa) = 93.53884 110.64726 102.09305
# Shear Modulus (GPa) = 51.90884 58.36626 55.13755
#
# Velocity S-wave (km/s) = 4.31944 4.58024 4.45175
# Velocity P-wave (km/s) = 7.64836 8.23052 7.94477
#
# Compressibility (1/GPa) = 0.01069075
#
# Stress axis : x y z
#
# Youngs Moduli (GPa) = 223.56856 78.29474 186.29511
#
# Poissons Ratio (x) = 0.20519 0.10005
# Poissons Ratio (y) = 0.58591 0.52225
# Poissons Ratio (z) = 0.12006 0.21949
#
# Static dielectric constant tensor:
#      x y z
#    x 2.221260 0.000000 0.000000 
#    y 0.000000 2.338310 0.000000 
#    z 0.000000 0.000000 2.343270 
# 
# From -- ./inp_files/5892.got.cif
#   From: 2010.05.17/outbox.cif.g08.bks.cpg/sg20_3_cif.got.tgz:5892.got - 2010.06.03 22:52:26.
