data_PCOD9321057
_publ_section_title
;
Structure prediction by ZEFSAII (Michael W. Deem and Ramdas Pophale) SiO2 
 PCOD9321057
Probable space group: C 2 2 21
;
_chemical_formula_sum "Si O2"
_cell_formula_units_Z 28
_cell_length_a 9.573898
_cell_length_b 10.669788
_cell_length_c 11.822108
_cell_angle_alpha 90.000000
_cell_angle_beta 90.000000
_cell_angle_gamma 90.000000
_cell_volume 1207.645616
_symmetry_space_group_name_H-M "C 2 2 21"
_symmetry_group_IT_number 20
_symmetry_cell_setting 'orthorhombic'
loop_
_space_group_symop_operation_xyz
x,y,z
-x,-y,1/2+z
x,-y,-z
-x,y,1/2-z
1/2+x,1/2+y,z
1/2-x,1/2-y,1/2+z
1/2+x,1/2-y,-z
1/2-x,1/2+y,1/2-z
loop_
_atom_site_type_symbol
_atom_site_label
_atom_site_fract_x
_atom_site_fract_y
_atom_site_fract_z
Si Si1 0.239743 0.000000 0.500000
Si Si2 0.651971 0.038581 0.758785
Si Si3 0.089384 0.250715 0.425007
Si Si4 0.800333 0.884953 0.580659
O O1 0.320752 0.050797 0.609032
O O2 0.157385 0.115682 0.446031
O O3 0.500000 0.976776 0.750000
O O4 0.638212 0.166802 0.684020
O O5 0.765599 0.949694 0.699629
O O6 0.155388 0.330929 0.528675
O O7 0.926525 0.213487 0.421084
O O8 0.843028 0.000000 0.500000
#
# Coordination Sequence:
#
# PCOD9321057 Si02
#       4
#     4   8   8   8
#     4  12  28  46  80 116 150 208 260 318 392 452
#     4  11  28  48  77 112 157 201 257 320 387 459
#     4  11  25  50  80 111 159 201 255 325 381 457
#     4  10  24  50  79 117 152 200 259 313 389 460
#
# _framework density 23.185611000000002
#
# number of rings (size 3 to 8) (size 9 to 14) (size 15 to 20)
#    0.000    1.143    1.429    1.714   18.000    0.000 
#    0.000    0.000    0.000    0.000    0.000    0.000 
#    0.000    0.000    0.000    0.000    0.000    0.000 
#
# Total GULP energy -78144.507614 kJ/mol
# GULP energy per Si atom -5581.750544 kJ/mol
# Density = 2.313284 g / cm^3
# Si number density = 23.185611 Si / 1000 Ang^3
#
#
#
# Elastic Constant Matrix: (Units=GPa)
#
#
# Indices 1 2 3 4 5 6 
#
# 1 131.8146 65.9353 83.9424 0.0000 0.0000 0.0000
# 2 65.9353 151.8448 69.7521 0.0000 0.0000 0.0000
# 3 83.9424 69.7521 207.7427 0.0000 0.0000 0.0000
# 4 0.0000 0.0000 0.0000 22.8024 0.0000 0.0000
# 5 0.0000 0.0000 0.0000 0.0000 53.9505 0.0000
# 6 0.0000 0.0000 0.0000 0.0000 0.0000 63.0477
#
#
#
# Elastic Compliance Matrix: (Units=1/GPa)
#
#
# Indices 1 2 3 4 5 6 
#
# 1 0.011521 -0.003387 -0.003518 0.000000 0.000000 0.000000
# 2 -0.003387 0.008782 -0.001580 0.000000 0.000000 0.000000
# 3 -0.003518 -0.001580 0.006766 0.000000 0.000000 0.000000
# 4 0.000000 0.000000 0.000000 0.043855 0.000000 0.000000
# 5 0.000000 0.000000 0.000000 0.000000 0.018536 0.000000
# 6 0.000000 0.000000 0.000000 0.000000 0.000000 0.015861
#
#
# Mechanical properties :
#
#
# Convention : Reuss Voigt Hill
#
# Bulk Modulus (GPa) = 99.02171 103.40688 101.21430
# Shear Modulus (GPa) = 39.79099 46.07828 42.93463
#
# Velocity S-wave (km/s) = 4.14719 4.46282 4.30790
# Velocity P-wave (km/s) = 8.10760 8.44110 8.27603
#
# Compressibility (1/GPa) = 0.01009880
#
# Stress axis : x y z
#
# Youngs Moduli (GPa) = 86.79922 113.86733 147.80166
#
# Poissons Ratio (x) = 0.38562 0.51999
# Poissons Ratio (y) = 0.29395 0.23357
# Poissons Ratio (z) = 0.30537 0.17994
#
# Static dielectric constant tensor:
#      x y z
#    x 1.903490 0.000000 0.000000 
#    y 0.000000 1.502440 0.000000 
#    z 0.000000 0.000000 1.748680 
# 
# From -- ./inp_files/13516.got.cif
#   From: 2010.05.17/outbox.cif.g08.bks.cpg/sg20_7_cif.got.tgz:13516.got - 2010.06.03 22:52:26.
