data_PCOD9321791
_publ_section_title
;
Structure prediction by ZEFSAII (Michael W. Deem and Ramdas Pophale) SiO2 
 PCOD9321791
Probable space group: C 2 2 21
;
_chemical_formula_sum "Si O2"
_cell_formula_units_Z 32
_cell_length_a 9.375937
_cell_length_b 14.694306
_cell_length_c 10.237498
_cell_angle_alpha 90.000000
_cell_angle_beta 90.000000
_cell_angle_gamma 90.000000
_cell_volume 1410.449658
_symmetry_space_group_name_H-M "C 2 2 21"
_symmetry_group_IT_number 20
_symmetry_cell_setting 'orthorhombic'
loop_
_space_group_symop_operation_xyz
x,y,z
-x,-y,1/2+z
x,-y,-z
-x,y,1/2-z
1/2+x,1/2+y,z
1/2-x,1/2-y,1/2+z
1/2+x,1/2-y,-z
1/2-x,1/2+y,1/2-z
loop_
_atom_site_type_symbol
_atom_site_label
_atom_site_fract_x
_atom_site_fract_y
_atom_site_fract_z
Si Si1 0.669822 0.142680 0.776021
Si Si2 0.876576 0.002097 0.348555
Si Si3 0.549316 0.101370 0.043208
Si Si4 0.800025 0.334237 0.799608
O O1 0.500000 0.150345 0.750000
O O2 0.743071 0.062308 0.692840
O O3 0.759924 0.233922 0.754542
O O4 0.662151 0.128705 0.932312
O O5 0.000000 0.973681 0.250000
O O6 0.915682 0.000000 0.500000
O O7 0.838509 0.107621 0.329403
O O8 0.629253 0.110489 0.180365
O O9 0.407150 0.160084 0.075713
O O10 0.505086 0.000000 0.000000
#
# Coordination Sequence:
#
# PCOD9321791 Si02
#       4
#     8   8   8   8
#     4  12  27  47  77 108 154 202 252 318 381 456
#     4  12  29  49  75 110 156 202 255 318 382 455
#     4  11  24  47  76 105 148 198 255 306 381 449
#     4  11  26  46  74 112 146 195 250 318 374 455
#
# _framework density 22.687799999999999
#
# number of rings (size 3 to 8) (size 9 to 14) (size 15 to 20)
#    0.000    0.500    2.500    4.500   14.000    0.000 
#    0.000    0.000    0.000    0.000    0.000    0.000 
#    0.000    0.000    0.000    0.000    0.000    0.000 
#
# Total GULP energy -89343.037685 kJ/mol
# GULP energy per Si atom -5583.939855 kJ/mol
# Density = 2.263616 g / cm^3
# Si number density = 22.687800 Si / 1000 Ang^3
#
#
#
# Elastic Constant Matrix: (Units=GPa)
#
#
# Indices 1 2 3 4 5 6 
#
# 1 84.9454 14.7070 41.2367 0.0000 0.0000 0.0000
# 2 14.7070 97.6858 20.1159 0.0000 0.0000 0.0000
# 3 41.2367 20.1159 153.9269 0.0000 0.0000 0.0000
# 4 0.0000 0.0000 0.0000 26.5804 0.0000 0.0000
# 5 0.0000 0.0000 0.0000 0.0000 43.7263 0.0000
# 6 0.0000 0.0000 0.0000 0.0000 0.0000 -17.3664
#
#
#
# Elastic Compliance Matrix: (Units=1/GPa)
#
#
# Indices 1 2 3 4 5 6 
#
# 1 0.013701 -0.001343 -0.003495 0.000000 0.000000 0.000000
# 2 -0.001343 0.010652 -0.001032 0.000000 0.000000 0.000000
# 3 -0.003495 -0.001032 0.007568 0.000000 0.000000 0.000000
# 4 0.000000 0.000000 0.000000 0.037622 0.000000 0.000000
# 5 0.000000 0.000000 0.000000 0.000000 0.022870 0.000000
# 6 0.000000 0.000000 0.000000 0.000000 0.000000 -0.057582
#
#
# Mechanical properties :
#
#
# Convention : Reuss Voigt Hill
#
# Bulk Modulus (GPa) = 49.55346 54.29747 51.92547
# Shear Modulus (GPa) = 93.81320 27.95461 60.88390
#
# Velocity S-wave (km/s) = 6.43734 3.51400 5.18592
# Velocity P-wave (km/s) = 8.78302 6.35992 7.66779
#
# Compressibility (1/GPa) = 0.02018022
#
# Stress axis : x y z
#
# Youngs Moduli (GPa) = 72.98477 93.88203 132.13866
#
# Poissons Ratio (x) = 0.12609 0.46183
# Poissons Ratio (y) = 0.09803 0.13639
# Poissons Ratio (z) = 0.25509 0.09691
#
# Static dielectric constant tensor:
#      x y z
#    x 1.890560 0.000000 0.000000 
#    y 0.000000 1.823200 0.000000 
#    z 0.000000 0.000000 1.910230 
# 
# From -- ./inp_files/12496.got.cif
#   From: 2010.05.17/outbox.cif.g08.bks.cpg/sg20_7_cif.got.tgz:12496.got - 2010.06.03 22:52:26.
