data_PCOD9321413
_publ_section_title
;
Structure prediction by ZEFSAII (Michael W. Deem and Ramdas Pophale) SiO2 
 PCOD9321413
Probable space group: C 2 2 21
;
_chemical_formula_sum "Si O2"
_cell_formula_units_Z 48
_cell_length_a 5.034689
_cell_length_b 28.393930
_cell_length_c 15.817257
_cell_angle_alpha 90.000000
_cell_angle_beta 90.000000
_cell_angle_gamma 90.000000
_cell_volume 2261.149759
_symmetry_space_group_name_H-M "C 2 2 21"
_symmetry_group_IT_number 20
_symmetry_cell_setting 'orthorhombic'
loop_
_space_group_symop_operation_xyz
x,y,z
-x,-y,1/2+z
x,-y,-z
-x,y,1/2-z
1/2+x,1/2+y,z
1/2-x,1/2-y,1/2+z
1/2+x,1/2-y,-z
1/2-x,1/2+y,1/2-z
loop_
_atom_site_type_symbol
_atom_site_label
_atom_site_fract_x
_atom_site_fract_y
_atom_site_fract_z
Si Si1 0.372913 0.623288 0.432520
Si Si2 0.368561 0.907620 0.661443
Si Si3 0.053486 0.489071 0.100236
Si Si4 0.261446 0.332864 0.306388
Si Si5 0.046956 0.071448 0.892756
Si Si6 0.222052 0.779960 0.018441
O O1 0.576033 0.611416 0.357571
O O2 0.449020 0.589597 0.510624
O O3 0.387904 0.676777 0.462855
O O4 0.070294 0.612285 0.408874
O O5 0.500000 0.894377 0.750000
O O6 0.375880 0.963873 0.650382
O O7 0.255413 0.447770 0.126068
O O8 0.756120 0.470996 0.115514
O O9 0.085856 0.500000 0.000000
O O10 0.500000 0.312586 0.250000
O O11 0.358648 0.384132 0.338354
O O12 0.216807 0.301345 0.389366
O O13 0.000000 0.336594 0.250000
O O14 0.489761 0.758572 0.979785
#
# Coordination Sequence:
#
# PCOD9321413 Si02
#       6
#     8   8   8   8   8   8
#     4  11  22  43  64  87 124 166 211 260 318 390
#     4  12  25  39  59  90 131 173 215 266 312 362
#     4  12  21  37  63  90 127 171 228 270 306 371
#     4  11  24  43  67  99 138 165 207 279 342 382
#     4  11  22  38  65  91 121 176 217 259 322 389
#     4  11  24  45  73 100 124 167 218 261 324 414
#
# _framework density 21.228138000000001
#
# number of rings (size 3 to 8) (size 9 to 14) (size 15 to 20)
#    0.000    0.667    3.333    5.000    0.000    7.333 
#    0.000    8.333    0.000    0.000    0.000    0.000 
#    0.000    0.000    0.000    0.000    0.000    0.000 
#
# Total GULP energy -134380.090820 kJ/mol
# GULP energy per Si atom -5599.170451 kJ/mol
# Density = 2.117982 g / cm^3
# Si number density = 21.228138 Si / 1000 Ang^3
#
#
#
# Elastic Constant Matrix: (Units=GPa)
#
#
# Indices 1 2 3 4 5 6 
#
# 1 69.6228 -9.8850 3.8028 0.0000 0.0000 0.0000
# 2 -9.8850 55.0693 17.8277 0.0000 0.0000 0.0000
# 3 3.8028 17.8277 71.1934 0.0000 0.0000 0.0000
# 4 0.0000 0.0000 0.0000 6.4433 0.0000 0.0000
# 5 0.0000 0.0000 0.0000 0.0000 34.4180 0.0000
# 6 0.0000 0.0000 0.0000 0.0000 0.0000 0.4888
#
#
#
# Elastic Compliance Matrix: (Units=1/GPa)
#
#
# Indices 1 2 3 4 5 6 
#
# 1 0.014903 0.003192 -0.001595 0.000000 0.000000 0.000000
# 2 0.003192 0.020444 -0.005290 0.000000 0.000000 0.000000
# 3 -0.001595 -0.005290 0.015456 0.000000 0.000000 0.000000
# 4 0.000000 0.000000 0.000000 0.155199 0.000000 0.000000
# 5 0.000000 0.000000 0.000000 0.000000 0.029055 0.000000
# 6 0.000000 0.000000 0.000000 0.000000 0.000000 2.045972
#
#
# Mechanical properties :
#
#
# Convention : Reuss Voigt Hill
#
# Bulk Modulus (GPa) = 23.03269 24.37517 23.70393
# Shear Modulus (GPa) = 2.17119 20.54602 11.35860
#
# Velocity S-wave (km/s) = 1.01243 3.11443 2.31567
# Velocity P-wave (km/s) = 3.49861 4.94372 4.28256
#
# Compressibility (1/GPa) = 0.04341655
#
# Stress axis : x y z
#
# Youngs Moduli (GPa) = 67.09883 48.91325 64.69923
#
# Poissons Ratio (x) = -0.15611 0.10321
# Poissons Ratio (y) = -0.21415 0.34226
# Poissons Ratio (z) = 0.10704 0.25875
#
# Static dielectric constant tensor:
#      x y z
#    x 1.721190 0.000000 0.000000 
#    y 0.000000 1.746500 0.000000 
#    z 0.000000 0.000000 1.783730 
# 
# From -- ./inp_files/17793.got.cif
#   From: 2010.05.17/outbox.cif.g08.bks.cpg/sg20_9_cif.got.tgz:17793.got - 2010.06.03 22:52:26.
