data_PCOD9321691
_publ_section_title
;
Structure prediction by ZEFSAII (Michael W. Deem and Ramdas Pophale) SiO2 
 PCOD9321691
Probable space group: C 2 2 21
;
_chemical_formula_sum "Si O2"
_cell_formula_units_Z 60
_cell_length_a 12.123519
_cell_length_b 9.071881
_cell_length_c 22.975044
_cell_angle_alpha 90.000000
_cell_angle_beta 90.000000
_cell_angle_gamma 90.000000
_cell_volume 2526.867060
_symmetry_space_group_name_H-M "C 2 2 21"
_symmetry_group_IT_number 20
_symmetry_cell_setting 'orthorhombic'
loop_
_space_group_symop_operation_xyz
x,y,z
-x,-y,1/2+z
x,-y,-z
-x,y,1/2-z
1/2+x,1/2+y,z
1/2-x,1/2-y,1/2+z
1/2+x,1/2-y,-z
1/2-x,1/2+y,1/2-z
loop_
_atom_site_type_symbol
_atom_site_label
_atom_site_fract_x
_atom_site_fract_y
_atom_site_fract_z
Si Si1 0.112886 0.029649 0.938591
Si Si2 0.000000 0.880051 0.250000
Si Si3 0.185503 0.066487 0.187843
Si Si4 0.436497 0.770631 0.947036
Si Si5 0.569186 0.888768 0.676513
Si Si6 0.747144 0.019787 0.935207
Si Si7 0.422192 0.866031 0.340594
Si Si8 0.422450 0.282338 0.926653
O O1 0.054707 0.188875 0.938690
O O2 0.173195 0.993054 0.878665
O O3 0.012424 0.910930 0.939905
O O4 0.174002 0.000000 0.000000
O O5 0.041713 0.774872 0.301633
O O6 0.102467 0.975128 0.227678
O O7 0.313873 0.061669 0.201712
O O8 0.143070 0.235304 0.190358
O O9 0.423021 0.881748 0.893964
O O10 0.341436 0.645870 0.938947
O O11 0.423905 0.814233 0.014589
O O12 0.467520 0.993033 0.692076
O O13 0.656469 0.075087 0.891321
O O14 0.807877 0.867702 0.918050
O O15 0.701066 0.000000 0.000000
O O16 0.531339 0.794948 0.369798
#
# Coordination Sequence:
#
# PCOD9321691 Si02
#       8
#     8   4   8   8   8   8   8   8
#     4   8  15  36  69  99 136 180 218 265 335 409
#     4  12  30  52  74  92 130 186 234 288 350 396
#     4  11  25  49  74  99 133 184 228 283 347 409
#     4   9  16  38  64  93 141 179 221 267 321 408
#     4  12  27  45  70 103 131 170 235 288 336 400
#     4   9  18  36  63  96 144 193 214 256 335 407
#     4  11  24  40  67 104 139 172 226 280 336 403
#     4   8  18  33  60  99 141 186 214 257 332 405
#
# _framework density 23.744820000000001
#
# number of rings (size 3 to 8) (size 9 to 14) (size 15 to 20)
#    0.000    2.133    2.667    1.600    1.867    3.733 
#    2.400    0.000    0.000    0.000    0.000    0.000 
#    0.000    0.000    0.000    0.000    0.000    0.000 
#
# Total GULP energy -167858.837884 kJ/mol
# GULP energy per Si atom -5595.294596 kJ/mol
# Density = 2.369078 g / cm^3
# Si number density = 23.744820 Si / 1000 Ang^3
#
#
#
# Elastic Constant Matrix: (Units=GPa)
#
#
# Indices 1 2 3 4 5 6 
#
# 1 97.5474 33.7961 7.6305 0.0000 0.0000 0.0000
# 2 33.7961 57.1615 12.5285 0.0000 0.0000 0.0000
# 3 7.6305 12.5285 44.4148 0.0000 0.0000 0.0000
# 4 0.0000 0.0000 0.0000 -26.3331 0.0000 0.0000
# 5 0.0000 0.0000 0.0000 0.0000 23.9231 0.0000
# 6 0.0000 0.0000 0.0000 0.0000 0.0000 31.0406
#
#
#
# Elastic Compliance Matrix: (Units=1/GPa)
#
#
# Indices 1 2 3 4 5 6 
#
# 1 0.012892 -0.007607 -0.000069 0.000000 0.000000 0.000000
# 2 -0.007607 0.023136 -0.005219 0.000000 0.000000 0.000000
# 3 -0.000069 -0.005219 0.023999 0.000000 0.000000 0.000000
# 4 0.000000 0.000000 0.000000 -0.037975 0.000000 0.000000
# 5 0.000000 0.000000 0.000000 0.000000 0.041801 0.000000
# 6 0.000000 0.000000 0.000000 0.000000 0.000000 0.032216
#
#
# Mechanical properties :
#
#
# Convention : Reuss Voigt Hill
#
# Bulk Modulus (GPa) = 29.20882 34.11488 31.66185
# Shear Modulus (GPa) = 37.51714 15.40403 26.46058
#
# Velocity S-wave (km/s) = 3.97925 2.54979 3.34184
# Velocity P-wave (km/s) = 5.78277 4.80281 5.31542
#
# Compressibility (1/GPa) = 0.03423624
#
# Stress axis : x y z
#
# Youngs Moduli (GPa) = 77.56470 43.22271 41.66824
#
# Poissons Ratio (x) = 0.32881 0.00288
# Poissons Ratio (y) = 0.59006 0.21748
# Poissons Ratio (z) = 0.00536 0.22559
#
# Static dielectric constant tensor:
#      x y z
#    x 1.848590 0.000000 0.000000 
#    y 0.000000 1.924050 0.000000 
#    z 0.000000 0.000000 1.937190 
# 
# From -- ./inp_files/30318.got.cif
#   From: 2010.05.17/outbox.cif.g08.bks.cpg/sg20_16_cif.got.tgz:30318.got - 2010.06.03 22:52:26.
