data_PCOD9321968
_publ_section_title
;
Structure prediction by ZEFSAII (Michael W. Deem and Ramdas Pophale) SiO2 
 PCOD9321968
Probable space group: C 2 2 21
;
_chemical_formula_sum "Si O2"
_cell_formula_units_Z 32
_cell_length_a 23.110921
_cell_length_b 11.825375
_cell_length_c 5.002118
_cell_angle_alpha 90.000000
_cell_angle_beta 90.000000
_cell_angle_gamma 90.000000
_cell_volume 1367.055377
_symmetry_space_group_name_H-M "C 2 2 21"
_symmetry_group_IT_number 20
_symmetry_cell_setting 'orthorhombic'
loop_
_space_group_symop_operation_xyz
x,y,z
-x,-y,1/2+z
x,-y,-z
-x,y,1/2-z
1/2+x,1/2+y,z
1/2-x,1/2-y,1/2+z
1/2+x,1/2-y,-z
1/2-x,1/2+y,1/2-z
loop_
_atom_site_type_symbol
_atom_site_label
_atom_site_fract_x
_atom_site_fract_y
_atom_site_fract_z
Si Si1 0.123896 0.423162 0.738352
Si Si2 0.664882 0.500000 0.000000
Si Si3 0.285671 0.267048 0.404063
Si Si4 0.000000 0.178975 0.250000
Si Si5 0.087084 0.000000 0.500000
Si Si6 0.000000 0.326461 0.750000
O O1 0.149159 0.500000 0.500000
O O2 0.161595 0.312028 0.804841
O O3 0.057805 0.391195 0.662606
O O4 0.121591 0.500000 0.000000
O O5 0.698966 0.385006 0.949750
O O6 0.626082 0.465845 0.252268
O O7 0.250267 0.203756 0.637221
O O8 0.978730 0.254378 0.495211
O O9 0.047694 0.099638 0.384932
#
# Coordination Sequence:
#
# PCOD9321968 Si02
#       6
#     8   4   8   4   4   4
#     4  12  26  47  76 110 154 201 257 316 381 460
#     4  12  27  48  74 104 148 186 259 306 386 456
#     4  12  28  48  77 109 148 201 254 325 391 452
#     4  12  23  39  70 104 154 192 249 301 374 446
#     4  12  23  42  68 108 142 200 239 314 370 446
#     4  12  25  45  72 108 154 204 253 307 382 464
#
# _framework density 23.407976999999999
#
# number of rings (size 3 to 8) (size 9 to 14) (size 15 to 20)
#    0.000    0.000    0.000   11.250    5.250    0.000 
#    0.000    0.000    0.000    0.000    0.000    0.000 
#    0.000    0.000    0.000    0.000    0.000    0.000 
#
# Total GULP energy -89606.481027 kJ/mol
# GULP energy per Si atom -5600.405064 kJ/mol
# Density = 2.335470 g / cm^3
# Si number density = 23.407977 Si / 1000 Ang^3
#
#
#
# Elastic Constant Matrix: (Units=GPa)
#
#
# Indices 1 2 3 4 5 6 
#
# 1 90.2887 40.3796 20.5599 0.0000 0.0000 0.0000
# 2 40.3796 128.9125 32.3674 0.0000 0.0000 0.0000
# 3 20.5599 32.3674 150.1253 0.0000 0.0000 0.0000
# 4 0.0000 0.0000 0.0000 52.6343 0.0000 0.0000
# 5 0.0000 0.0000 0.0000 0.0000 36.8808 0.0000
# 6 0.0000 0.0000 0.0000 0.0000 0.0000 16.9980
#
#
#
# Elastic Compliance Matrix: (Units=1/GPa)
#
#
# Indices 1 2 3 4 5 6 
#
# 1 0.013008 -0.003835 -0.000955 0.000000 0.000000 0.000000
# 2 -0.003835 0.009332 -0.001487 0.000000 0.000000 0.000000
# 3 -0.000955 -0.001487 0.007112 0.000000 0.000000 0.000000
# 4 0.000000 0.000000 0.000000 0.018999 0.000000 0.000000
# 5 0.000000 0.000000 0.000000 0.000000 0.027114 0.000000
# 6 0.000000 0.000000 0.000000 0.000000 0.000000 0.058831
#
#
# Mechanical properties :
#
#
# Convention : Reuss Voigt Hill
#
# Bulk Modulus (GPa) = 59.17302 61.77114 60.47208
# Shear Modulus (GPa) = 32.76933 39.70393 36.23663
#
# Velocity S-wave (km/s) = 3.74561 4.12293 3.93879
# Velocity P-wave (km/s) = 6.63627 7.00792 6.82462
#
# Compressibility (1/GPa) = 0.01689959
#
# Stress axis : x y z
#
# Youngs Moduli (GPa) = 76.87563 107.16178 140.59966
#
# Poissons Ratio (x) = 0.41095 0.13423
# Poissons Ratio (y) = 0.29481 0.20904
# Poissons Ratio (z) = 0.07339 0.15932
#
# Static dielectric constant tensor:
#      x y z
#    x 1.940270 0.000000 0.000000 
#    y 0.000000 1.927140 0.000000 
#    z 0.000000 0.000000 1.905410 
# 
# From -- ./inp_files/1087.got.cif
#   From: 2010.05.17/outbox.cif.g08.bks.cpg/sg20_1_cif.got.tgz:1087.got - 2010.06.03 22:52:26.
