data_PCOD9321771
_publ_section_title
;
Structure prediction by ZEFSAII (Michael W. Deem and Ramdas Pophale) SiO2 
 PCOD9321771
Probable space group: C 2 2 21
;
_chemical_formula_sum "Si O2"
_cell_formula_units_Z 32
_cell_length_a 10.691070
_cell_length_b 10.029354
_cell_length_c 12.814726
_cell_angle_alpha 90.000000
_cell_angle_beta 90.000000
_cell_angle_gamma 90.000000
_cell_volume 1374.052917
_symmetry_space_group_name_H-M "C 2 2 21"
_symmetry_group_IT_number 20
_symmetry_cell_setting 'orthorhombic'
loop_
_space_group_symop_operation_xyz
x,y,z
-x,-y,1/2+z
x,-y,-z
-x,y,1/2-z
1/2+x,1/2+y,z
1/2-x,1/2-y,1/2+z
1/2+x,1/2-y,-z
1/2-x,1/2+y,1/2-z
loop_
_atom_site_type_symbol
_atom_site_label
_atom_site_fract_x
_atom_site_fract_y
_atom_site_fract_z
Si Si1 0.733843 0.834162 0.962650
Si Si2 0.531620 0.151833 0.366518
Si Si3 0.658063 0.426999 0.344801
Si Si4 0.768813 0.961508 0.394186
O O1 0.593547 0.869691 0.930594
O O2 0.833031 0.933526 0.906603
O O3 0.766430 0.690972 0.916608
O O4 0.735580 0.848074 0.088077
O O5 0.500000 0.109722 0.250000
O O6 0.554315 0.312612 0.362689
O O7 0.651644 0.063407 0.395101
O O8 0.675722 0.460148 0.223071
O O9 0.845834 0.000000 0.500000
#
# Coordination Sequence:
#
# PCOD9321771 Si02
#       4
#     8   8   8   8
#     4  11  26  46  72  99 148 184 235 301 357 428
#     4  12  24  46  74 103 145 189 233 296 366 429
#     4  11  24  46  71 106 142 183 241 299 353 433
#     4  12  24  44  73 105 141 189 236 293 359 433
#
# _framework density 23.288767
#
# number of rings (size 3 to 8) (size 9 to 14) (size 15 to 20)
#    0.000    0.500    7.500    0.000    3.500    0.000 
#    4.500    3.750    0.000    0.000    0.000    0.000 
#    0.000    0.000    0.000    0.000    0.000    0.000 
#
# Total GULP energy -89099.323533 kJ/mol
# GULP energy per Si atom -5568.707721 kJ/mol
# Density = 2.323576 g / cm^3
# Si number density = 23.288767 Si / 1000 Ang^3
#
#
#
# Elastic Constant Matrix: (Units=GPa)
#
#
# Indices 1 2 3 4 5 6 
#
# 1 66.9292 11.7198 25.1872 0.0000 0.0000 0.0000
# 2 11.7198 159.8973 20.0856 0.0000 0.0000 0.0000
# 3 25.1872 20.0856 178.6442 0.0000 0.0000 0.0000
# 4 0.0000 0.0000 0.0000 45.5933 0.0000 0.0000
# 5 0.0000 0.0000 0.0000 0.0000 32.7859 0.0000
# 6 0.0000 0.0000 0.0000 0.0000 0.0000 35.2252
#
#
#
# Elastic Compliance Matrix: (Units=1/GPa)
#
#
# Indices 1 2 3 4 5 6 
#
# 1 0.015904 -0.000897 -0.002142 0.000000 0.000000 0.000000
# 2 -0.000897 0.006394 -0.000592 0.000000 0.000000 0.000000
# 3 -0.002142 -0.000592 0.005966 0.000000 0.000000 0.000000
# 4 0.000000 0.000000 0.000000 0.021933 0.000000 0.000000
# 5 0.000000 0.000000 0.000000 0.000000 0.030501 0.000000
# 6 0.000000 0.000000 0.000000 0.000000 0.000000 0.028389
#
#
# Mechanical properties :
#
#
# Convention : Reuss Voigt Hill
#
# Bulk Modulus (GPa) = 47.61198 57.71733 52.66465
# Shear Modulus (GPa) = 40.53516 45.95275 43.24396
#
# Velocity S-wave (km/s) = 4.17651 4.44686 4.31380
# Velocity P-wave (km/s) = 6.61409 7.15564 6.89019
#
# Compressibility (1/GPa) = 0.02100312
#
# Stress axis : x y z
#
# Youngs Moduli (GPa) = 62.87691 156.39262 167.60895
#
# Poissons Ratio (x) = 0.14024 0.35894
# Poissons Ratio (y) = 0.05638 0.09931
# Poissons Ratio (z) = 0.13465 0.09266
#
# Static dielectric constant tensor:
#      x y z
#    x 1.949110 0.000000 0.000000 
#    y 0.000000 1.948610 0.000000 
#    z 0.000000 0.000000 1.919980 
# 
# From -- ./inp_files/13554.got.cif
#   From: 2010.05.17/outbox.cif.g08.bks.cpg/sg20_7_cif.got.tgz:13554.got - 2010.06.03 22:52:26.
