data_PCOD9321761
_publ_section_title
;
Structure prediction by ZEFSAII (Michael W. Deem and Ramdas Pophale) SiO2 
 PCOD9321761
Probable space group: C 2 2 21
;
_chemical_formula_sum "Si O2"
_cell_formula_units_Z 28
_cell_length_a 18.118947
_cell_length_b 7.904727
_cell_length_c 8.407317
_cell_angle_alpha 90.000000
_cell_angle_beta 90.000000
_cell_angle_gamma 90.000000
_cell_volume 1204.140748
_symmetry_space_group_name_H-M "C 2 2 21"
_symmetry_group_IT_number 20
_symmetry_cell_setting 'orthorhombic'
loop_
_space_group_symop_operation_xyz
x,y,z
-x,-y,1/2+z
x,-y,-z
-x,y,1/2-z
1/2+x,1/2+y,z
1/2-x,1/2-y,1/2+z
1/2+x,1/2-y,-z
1/2-x,1/2+y,1/2-z
loop_
_atom_site_type_symbol
_atom_site_label
_atom_site_fract_x
_atom_site_fract_y
_atom_site_fract_z
Si Si1 0.642194 0.000000 0.000000
Si Si2 0.860470 0.158068 0.617886
Si Si3 0.309428 0.128614 0.849458
Si Si4 0.933512 0.087206 0.150433
O O1 0.680845 0.054480 0.830801
O O2 0.602117 0.826712 0.949134
O O3 0.773894 0.198625 0.642294
O O4 0.860620 0.000000 0.500000
O O5 0.896896 0.078585 0.770857
O O6 0.369301 0.276548 0.870700
O O7 0.317781 0.000000 0.000000
O O8 0.000000 0.164229 0.250000
O O9 0.970217 0.000000 0.000000
#
# Coordination Sequence:
#
# PCOD9321761 Si02
#       4
#     4   8   8   8
#     4  12  24  42  76 104 154 184 252 306 370 430
#     4  11  24  45  75 111 148 190 248 307 375 439
#     4  11  26  46  75 118 146 196 253 315 371 445
#     4  12  27  49  75 105 155 203 246 305 385 449
#
# _framework density 23.253095999999999
#
# number of rings (size 3 to 8) (size 9 to 14) (size 15 to 20)
#    0.000    0.571    2.857    4.286   12.000    0.000 
#    2.571    1.429    0.000    0.000    0.000    0.000 
#    0.000    0.000    0.000    0.000    0.000    0.000 
#
# Total GULP energy -78160.216950 kJ/mol
# GULP energy per Si atom -5582.872639 kJ/mol
# Density = 2.320017 g / cm^3
# Si number density = 23.253096 Si / 1000 Ang^3
#
#
#
# Elastic Constant Matrix: (Units=GPa)
#
#
# Indices 1 2 3 4 5 6 
#
# 1 102.7068 18.6352 5.5603 0.0000 0.0000 0.0000
# 2 18.6352 147.8555 18.2437 0.0000 0.0000 0.0000
# 3 5.5603 18.2437 115.6790 0.0000 0.0000 0.0000
# 4 0.0000 0.0000 0.0000 36.4235 0.0000 0.0000
# 5 0.0000 0.0000 0.0000 0.0000 -19.5122 0.0000
# 6 0.0000 0.0000 0.0000 0.0000 0.0000 55.5297
#
#
#
# Elastic Compliance Matrix: (Units=1/GPa)
#
#
# Indices 1 2 3 4 5 6 
#
# 1 0.009974 -0.001222 -0.000287 0.000000 0.000000 0.000000
# 2 -0.001222 0.007047 -0.001053 0.000000 0.000000 0.000000
# 3 -0.000287 -0.001053 0.008824 0.000000 0.000000 0.000000
# 4 0.000000 0.000000 0.000000 0.027455 0.000000 0.000000
# 5 0.000000 0.000000 0.000000 0.000000 -0.051250 0.000000
# 6 0.000000 0.000000 0.000000 0.000000 0.000000 0.018008
#
#
# Mechanical properties :
#
#
# Convention : Reuss Voigt Hill
#
# Bulk Modulus (GPa) = 48.25533 50.12441 49.18987
# Shear Modulus (GPa) = 155.81990 36.07502 95.94746
#
# Velocity S-wave (km/s) = 8.19487 3.94306 6.43054
# Velocity P-wave (km/s) = 10.50421 6.50639 8.73704
#
# Compressibility (1/GPa) = 0.02072310
#
# Stress axis : x y z
#
# Youngs Moduli (GPa) = 100.26434 141.89981 113.32195
#
# Poissons Ratio (x) = 0.17335 0.03249
# Poissons Ratio (y) = 0.12249 0.11929
# Poissons Ratio (z) = 0.02875 0.14938
#
# Static dielectric constant tensor:
#      x y z
#    x 1.817620 0.000000 0.000000 
#    y 0.000000 1.908020 0.000000 
#    z 0.000000 0.000000 2.008300 
# 
# From -- ./inp_files/5696.got.cif
#   From: 2010.05.17/outbox.cif.g08.bks.cpg/sg20_3_cif.got.tgz:5696.got - 2010.06.03 22:52:26.
