data_PCOD9321445
_publ_section_title
;
Structure prediction by ZEFSAII (Michael W. Deem and Ramdas Pophale) SiO2 
 PCOD9321445
Probable space group: C 2 2 21
;
_chemical_formula_sum "Si O2"
_cell_formula_units_Z 48
_cell_length_a 16.136717
_cell_length_b 13.058900
_cell_length_c 9.662533
_cell_angle_alpha 90.000000
_cell_angle_beta 90.000000
_cell_angle_gamma 90.000000
_cell_volume 2036.164067
_symmetry_space_group_name_H-M "C 2 2 21"
_symmetry_group_IT_number 20
_symmetry_cell_setting 'orthorhombic'
loop_
_space_group_symop_operation_xyz
x,y,z
-x,-y,1/2+z
x,-y,-z
-x,y,1/2-z
1/2+x,1/2+y,z
1/2-x,1/2-y,1/2+z
1/2+x,1/2-y,-z
1/2-x,1/2+y,1/2-z
loop_
_atom_site_type_symbol
_atom_site_label
_atom_site_fract_x
_atom_site_fract_y
_atom_site_fract_z
Si Si1 0.324685 0.547016 0.163557
Si Si2 0.252989 0.751272 0.635578
Si Si3 0.800846 0.637609 0.625214
Si Si4 0.025708 0.827270 0.586096
Si Si5 0.119067 0.919441 0.100110
Si Si6 0.510495 0.901735 0.086016
O O1 0.262920 0.639201 0.207795
O O2 0.260313 0.458206 0.126568
O O3 0.388792 0.611270 0.069537
O O4 0.388348 0.490371 0.266428
O O5 0.188630 0.680020 0.719036
O O6 0.257539 0.778185 0.473290
O O7 0.335106 0.682804 0.650047
O O8 0.890408 0.613287 0.564115
O O9 0.000000 0.825725 0.750000
O O10 0.958143 0.883196 0.490563
O O11 0.028979 0.707668 0.545658
O O12 0.168598 0.000000 0.000000
O O13 0.500000 0.919852 0.250000
O O14 0.481527 0.000000 0.000000
#
# Coordination Sequence:
#
# PCOD9321445 Si02
#       6
#     8   8   8   8   8   8
#     4  11  24  42  70 110 151 198 253 321 389 454
#     4  11  22  44  69 107 146 201 251 313 384 460
#     4  11  24  44  75 107 152 201 261 321 384 464
#     4  11  22  44  75 106 147 195 251 313 391 451
#     4  11  22  40  72 107 150 196 249 319 382 466
#     4  11  24  48  82 107 150 209 255 318 385 467
#
# _framework density 23.573740000000001
#
# number of rings (size 3 to 8) (size 9 to 14) (size 15 to 20)
#    0.000    1.000    3.333    4.500    0.000    1.333 
#    3.000   14.167    7.333    0.000    0.000    0.000 
#    0.000    0.000    0.000    0.000    0.000    0.000 
#
# Total GULP energy -133767.126150 kJ/mol
# GULP energy per Si atom -5573.630256 kJ/mol
# Density = 2.352009 g / cm^3
# Si number density = 23.573740 Si / 1000 Ang^3
#
#
#
# Elastic Constant Matrix: (Units=GPa)
#
#
# Indices 1 2 3 4 5 6 
#
# 1 87.6554 66.0151 26.9508 0.0000 0.0000 0.0000
# 2 66.0151 210.5409 65.0884 0.0000 0.0000 0.0000
# 3 26.9508 65.0884 71.9267 0.0000 0.0000 0.0000
# 4 0.0000 0.0000 0.0000 54.0447 0.0000 0.0000
# 5 0.0000 0.0000 0.0000 0.0000 25.2392 0.0000
# 6 0.0000 0.0000 0.0000 0.0000 0.0000 31.0653
#
#
#
# Elastic Compliance Matrix: (Units=1/GPa)
#
#
# Indices 1 2 3 4 5 6 
#
# 1 0.015122 -0.004151 -0.001910 0.000000 0.000000 0.000000
# 2 -0.004151 0.007734 -0.005443 0.000000 0.000000 0.000000
# 3 -0.001910 -0.005443 0.019544 0.000000 0.000000 0.000000
# 4 0.000000 0.000000 0.000000 0.018503 0.000000 0.000000
# 5 0.000000 0.000000 0.000000 0.000000 0.039621 0.000000
# 6 0.000000 0.000000 0.000000 0.000000 0.000000 0.032190
#
#
# Mechanical properties :
#
#
# Convention : Reuss Voigt Hill
#
# Bulk Modulus (GPa) = 51.56762 76.24796 63.90779
# Shear Modulus (GPa) = 30.82868 36.20775 33.51822
#
# Velocity S-wave (km/s) = 3.62021 3.92335 3.77483
# Velocity P-wave (km/s) = 6.27671 7.27587 6.79468
#
# Compressibility (1/GPa) = 0.01939201
#
# Stress axis : x y z
#
# Youngs Moduli (GPa) = 66.13013 129.29884 51.16545
#
# Poissons Ratio (x) = 0.53672 0.09771
# Poissons Ratio (y) = 0.27451 0.27851
# Poissons Ratio (z) = 0.12629 0.70382
#
# Static dielectric constant tensor:
#      x y z
#    x 1.900170 0.000000 0.000000 
#    y 0.000000 1.895130 0.000000 
#    z 0.000000 0.000000 2.039710 
# 
# From -- ./inp_files/16265.got.cif
#   From: 2010.05.17/outbox.cif.g08.bks.cpg/sg20_9_cif.got.tgz:16265.got - 2010.06.03 22:52:26.
