data_PCOD9321560
_publ_section_title
;
Structure prediction by ZEFSAII (Michael W. Deem and Ramdas Pophale) SiO2 
 PCOD9321560
Probable space group: C 2 2 21
;
_chemical_formula_sum "Si O2"
_cell_formula_units_Z 48
_cell_length_a 11.648607
_cell_length_b 15.875756
_cell_length_c 11.730460
_cell_angle_alpha 90.000000
_cell_angle_beta 90.000000
_cell_angle_gamma 90.000000
_cell_volume 2169.319158
_symmetry_space_group_name_H-M "C 2 2 21"
_symmetry_group_IT_number 20
_symmetry_cell_setting 'orthorhombic'
loop_
_space_group_symop_operation_xyz
x,y,z
-x,-y,1/2+z
x,-y,-z
-x,y,1/2-z
1/2+x,1/2+y,z
1/2-x,1/2-y,1/2+z
1/2+x,1/2-y,-z
1/2-x,1/2+y,1/2-z
loop_
_atom_site_type_symbol
_atom_site_label
_atom_site_fract_x
_atom_site_fract_y
_atom_site_fract_z
Si Si1 0.808999 0.647343 0.302088
Si Si2 0.350606 0.959850 0.336136
Si Si3 0.233644 0.825714 0.949840
Si Si4 0.903701 0.578872 0.918506
Si Si5 0.450765 0.682141 0.633640
Si Si6 0.806910 0.152375 0.969416
O O1 0.873504 0.559980 0.329149
O O2 0.888806 0.730424 0.322339
O O3 0.709343 0.647787 0.395985
O O4 0.754485 0.639999 0.176674
O O5 0.460853 0.920794 0.398270
O O6 0.347672 0.929316 0.206008
O O7 0.238173 0.930276 0.403847
O O8 0.351677 0.842366 0.017105
O O9 0.138931 0.856293 0.041493
O O10 0.218829 0.726217 0.931887
O O11 0.874762 0.500000 0.000000
O O12 0.500000 0.639632 0.750000
O O13 0.568526 0.683173 0.564527
#
# Coordination Sequence:
#
# PCOD9321560 Si02
#       6
#     8   8   8   8   8   8
#     4  11  24  45  73 104 147 188 245 302 365 433
#     4  11  25  43  71 106 141 189 241 307 368 428
#     4  11  25  43  69 105 138 191 244 299 365 433
#     4  11  23  40  68 104 143 179 239 308 362 427
#     4  11  24  44  73 100 144 195 234 294 361 434
#     4  11  25  42  69 102 144 186 245 293 365 435
#
# _framework density 22.126757999999999
#
# number of rings (size 3 to 8) (size 9 to 14) (size 15 to 20)
#    0.000    1.000    3.333    2.500   11.667    0.667 
#    0.000    1.667    3.667    0.000    0.000    0.000 
#    0.000    0.000    0.000    0.000    0.000    0.000 
#
# Total GULP energy -133831.526299 kJ/mol
# GULP energy per Si atom -5576.313596 kJ/mol
# Density = 2.207640 g / cm^3
# Si number density = 22.126758 Si / 1000 Ang^3
#
#
#
# Elastic Constant Matrix: (Units=GPa)
#
#
# Indices 1 2 3 4 5 6 
#
# 1 91.2999 6.3330 89.9125 0.0000 0.0000 0.0000
# 2 6.3330 40.1798 30.1805 0.0000 0.0000 0.0000
# 3 89.9125 30.1805 198.8175 0.0000 0.0000 0.0000
# 4 0.0000 0.0000 0.0000 19.7301 0.0000 0.0000
# 5 0.0000 0.0000 0.0000 0.0000 41.5790 0.0000
# 6 0.0000 0.0000 0.0000 0.0000 0.0000 14.7002
#
#
#
# Elastic Compliance Matrix: (Units=1/GPa)
#
#
# Indices 1 2 3 4 5 6 
#
# 1 0.020352 0.004183 -0.009839 0.000000 0.000000 0.000000
# 2 0.004183 0.028951 -0.006286 0.000000 0.000000 0.000000
# 3 -0.009839 -0.006286 0.010433 0.000000 0.000000 0.000000
# 4 0.000000 0.000000 0.000000 0.050684 0.000000 0.000000
# 5 0.000000 0.000000 0.000000 0.000000 0.024051 0.000000
# 6 0.000000 0.000000 0.000000 0.000000 0.000000 0.068026
#
#
# Mechanical properties :
#
#
# Convention : Reuss Voigt Hill
#
# Bulk Modulus (GPa) = 27.89307 64.79435 46.34371
# Shear Modulus (GPa) = 20.97906 28.79328 24.88617
#
# Velocity S-wave (km/s) = 3.08251 3.61125 3.35731
# Velocity P-wave (km/s) = 5.03017 6.83630 6.00157
#
# Compressibility (1/GPa) = 0.03585120
#
# Stress axis : x y z
#
# Youngs Moduli (GPa) = 49.13480 34.54147 95.84520
#
# Poissons Ratio (x) = -0.14447 0.94301
# Poissons Ratio (y) = -0.20551 0.60250
# Poissons Ratio (z) = 0.48343 0.21713
#
# Static dielectric constant tensor:
#      x y z
#    x 1.830400 0.000000 0.000000 
#    y 0.000000 1.857060 0.000000 
#    z 0.000000 0.000000 1.854480 
# 
# From -- ./inp_files/14134.got.cif
#   From: 2010.05.17/outbox.cif.g08.bks.cpg/sg20_8_cif.got.tgz:14134.got - 2010.06.03 22:52:26.
