data_PCOD9321329
_publ_section_title
;
Structure prediction by ZEFSAII (Michael W. Deem and Ramdas Pophale) SiO2 
 PCOD9321329
Probable space group: C 2 2 21
;
_chemical_formula_sum "Si O2"
_cell_formula_units_Z 40
_cell_length_a 5.078014
_cell_length_b 25.954408
_cell_length_c 14.040088
_cell_angle_alpha 90.000000
_cell_angle_beta 90.000000
_cell_angle_gamma 90.000000
_cell_volume 1850.439333
_symmetry_space_group_name_H-M "C 2 2 21"
_symmetry_group_IT_number 20
_symmetry_cell_setting 'orthorhombic'
loop_
_space_group_symop_operation_xyz
x,y,z
-x,-y,1/2+z
x,-y,-z
-x,y,1/2-z
1/2+x,1/2+y,z
1/2-x,1/2-y,1/2+z
1/2+x,1/2-y,-z
1/2-x,1/2+y,1/2-z
loop_
_atom_site_type_symbol
_atom_site_label
_atom_site_fract_x
_atom_site_fract_y
_atom_site_fract_z
Si Si1 0.500000 0.931633 0.250000
Si Si2 0.950796 0.278449 0.528938
Si Si3 0.252663 0.176473 0.191790
Si Si4 0.915736 0.603586 0.541272
Si Si5 0.000000 0.994756 0.750000
Si Si6 0.091047 0.078510 0.070398
O O1 0.523475 0.899763 0.152646
O O2 0.250830 0.968884 0.248434
O O3 0.163631 0.246622 0.467691
O O4 0.094348 0.280938 0.631045
O O5 0.928866 0.336916 0.492142
O O6 0.500000 0.151673 0.250000
O O7 0.128090 0.133443 0.123016
O O8 0.000000 0.195377 0.250000
O O9 0.633162 0.582405 0.509311
O O10 0.132638 0.570802 0.482859
O O11 0.985493 0.960108 0.654709
#
# Coordination Sequence:
#
# PCOD9321329 Si02
#       6
#     4   8   8   8   4   8
#     4  12  28  46  64  95 140 185 222 258 334 410
#     4  11  23  42  66  96 128 169 221 269 325 399
#     4  11  21  38  66  98 132 162 208 277 347 381
#     4  11  25  46  68  93 140 182 214 279 339 389
#     4  12  26  40  72 103 132 171 230 278 316 420
#     4  11  23  41  71 100 131 171 218 286 336 373
#
# _framework density 21.616486999999999
#
# number of rings (size 3 to 8) (size 9 to 14) (size 15 to 20)
#    0.000    0.800    1.000    8.400    1.400    4.800 
#    5.400    0.000    0.000    0.000    0.000    0.000 
#    0.000    0.000    0.000    0.000    0.000    0.000 
#
# Total GULP energy -111848.925201 kJ/mol
# GULP energy per Si atom -5592.446260 kJ/mol
# Density = 2.156729 g / cm^3
# Si number density = 21.616487 Si / 1000 Ang^3
#
#
#
# Elastic Constant Matrix: (Units=GPa)
#
#
# Indices 1 2 3 4 5 6 
#
# 1 129.9432 9.8779 0.5671 0.0000 0.0000 0.0000
# 2 9.8779 35.6227 -4.7063 0.0000 0.0000 0.0000
# 3 0.5671 -4.7063 81.5970 0.0000 0.0000 0.0000
# 4 0.0000 0.0000 0.0000 26.2865 0.0000 0.0000
# 5 0.0000 0.0000 0.0000 0.0000 38.1616 0.0000
# 6 0.0000 0.0000 0.0000 0.0000 0.0000 20.8363
#
#
#
# Elastic Compliance Matrix: (Units=1/GPa)
#
#
# Indices 1 2 3 4 5 6 
#
# 1 0.007864 -0.002205 -0.000182 0.000000 0.000000 0.000000
# 2 -0.002205 0.028906 0.001683 0.000000 0.000000 0.000000
# 3 -0.000182 0.001683 0.012354 0.000000 0.000000 0.000000
# 4 0.000000 0.000000 0.000000 0.038042 0.000000 0.000000
# 5 0.000000 0.000000 0.000000 0.000000 0.026204 0.000000
# 6 0.000000 0.000000 0.000000 0.000000 0.000000 0.047993
#
#
# Mechanical properties :
#
#
# Convention : Reuss Voigt Hill
#
# Bulk Modulus (GPa) = 20.95758 28.73782 24.84770
# Shear Modulus (GPa) = 27.98357 33.15182 30.56769
#
# Velocity S-wave (km/s) = 3.60189 3.92041 3.76452
# Velocity P-wave (km/s) = 5.19753 5.81516 5.51500
#
# Compressibility (1/GPa) = 0.04771542
#
# Stress axis : x y z
#
# Youngs Moduli (GPa) = 127.16081 34.59536 80.94762
#
# Poissons Ratio (x) = 0.07627 0.01472
# Poissons Ratio (y) = 0.28035 -0.13620
# Poissons Ratio (z) = 0.02312 -0.05821
#
# Static dielectric constant tensor:
#      x y z
#    x 1.762100 0.000000 0.000000 
#    y 0.000000 1.774760 0.000000 
#    z 0.000000 0.000000 1.868160 
# 
# From -- ./inp_files/17649.got.cif
#   From: 2010.05.17/outbox.cif.g08.bks.cpg/sg20_9_cif.got.tgz:17649.got - 2010.06.03 22:52:26.
