data_PCOD9321843
_publ_section_title
;
Structure prediction by ZEFSAII (Michael W. Deem and Ramdas Pophale) SiO2 
 PCOD9321843
Probable space group: C 2 2 21
;
_chemical_formula_sum "Si O2"
_cell_formula_units_Z 40
_cell_length_a 26.369070
_cell_length_b 5.069155
_cell_length_c 13.170986
_cell_angle_alpha 90.000000
_cell_angle_beta 90.000000
_cell_angle_gamma 90.000000
_cell_volume 1760.551251
_symmetry_space_group_name_H-M "C 2 2 21"
_symmetry_group_IT_number 20
_symmetry_cell_setting 'orthorhombic'
loop_
_space_group_symop_operation_xyz
x,y,z
-x,-y,1/2+z
x,-y,-z
-x,y,1/2-z
1/2+x,1/2+y,z
1/2-x,1/2-y,1/2+z
1/2+x,1/2-y,-z
1/2-x,1/2+y,1/2-z
loop_
_atom_site_type_symbol
_atom_site_label
_atom_site_fract_x
_atom_site_fract_y
_atom_site_fract_z
Si Si1 0.791167 0.167114 0.598152
Si Si2 0.708170 0.494355 0.674796
Si Si3 0.589218 0.361709 0.102929
Si Si4 0.140299 0.506178 0.381875
Si Si5 0.557848 0.869765 0.220523
O O1 0.760317 0.436347 0.615499
O O2 0.851422 0.209749 0.590550
O O3 0.824655 0.243327 0.858368
O O4 0.774683 0.000000 0.500000
O O5 0.717744 0.514694 0.795288
O O6 0.674146 0.243583 0.647695
O O7 0.582452 0.593135 0.185868
O O8 0.561404 0.094160 0.133922
O O9 0.570917 0.500000 0.000000
O O10 0.127211 0.500000 0.500000
O O11 0.090785 0.491625 0.311979
O O12 0.500000 0.823099 0.250000
#
# Coordination Sequence:
#
# PCOD9321843 Si02
#       5
#     8   8   8   8   8
#     4  11  25  46  74 106 144 192 240 287 355 428
#     4  12  25  46  71 104 146 188 239 290 352 431
#     4  11  25  47  77 108 146 187 239 301 363 427
#     4  12  26  46  69 103 148 190 237 296 359 429
#     4  12  25  49  75 109 143 189 247 306 364 425
#
# _framework density 22.720157
#
# number of rings (size 3 to 8) (size 9 to 14) (size 15 to 20)
#    0.000    0.400    4.000    3.600    0.000    4.800 
#    0.000    9.000    0.000    0.000    0.000    0.000 
#    0.000    0.000    0.000    0.000    0.000    0.000 
#
# Total GULP energy -112136.242849 kJ/mol
# GULP energy per Si atom -5606.812142 kJ/mol
# Density = 2.266844 g / cm^3
# Si number density = 22.720157 Si / 1000 Ang^3
#
#
#
# Elastic Constant Matrix: (Units=GPa)
#
#
# Indices 1 2 3 4 5 6 
#
# 1 106.4756 38.4281 22.9026 0.0000 0.0000 0.0000
# 2 38.4281 144.3021 19.1615 0.0000 0.0000 0.0000
# 3 22.9026 19.1615 125.3863 0.0000 0.0000 0.0000
# 4 0.0000 0.0000 0.0000 25.9733 0.0000 0.0000
# 5 0.0000 0.0000 0.0000 0.0000 10.6334 0.0000
# 6 0.0000 0.0000 0.0000 0.0000 0.0000 9.0447
#
#
#
# Elastic Compliance Matrix: (Units=1/GPa)
#
#
# Indices 1 2 3 4 5 6 
#
# 1 0.010677 -0.002638 -0.001547 0.000000 0.000000 0.000000
# 2 -0.002638 0.007725 -0.000699 0.000000 0.000000 0.000000
# 3 -0.001547 -0.000699 0.008365 0.000000 0.000000 0.000000
# 4 0.000000 0.000000 0.000000 0.038501 0.000000 0.000000
# 5 0.000000 0.000000 0.000000 0.000000 0.094043 0.000000
# 6 0.000000 0.000000 0.000000 0.000000 0.000000 0.110563
#
#
# Mechanical properties :
#
#
# Convention : Reuss Voigt Hill
#
# Bulk Modulus (GPa) = 58.82596 59.68317 59.25456
# Shear Modulus (GPa) = 17.52500 28.84173 23.18336
#
# Velocity S-wave (km/s) = 2.78032 3.56678 3.19782
# Velocity P-wave (km/s) = 6.02118 6.57939 6.30646
#
# Compressibility (1/GPa) = 0.01699930
#
# Stress axis : x y z
#
# Youngs Moduli (GPa) = 93.66285 129.44751 119.54984
#
# Poissons Ratio (x) = 0.34145 0.18495
# Poissons Ratio (y) = 0.24706 0.08353
# Poissons Ratio (z) = 0.14490 0.09045
#
# Static dielectric constant tensor:
#      x y z
#    x 1.819530 0.000000 0.000000 
#    y 0.000000 1.832290 0.000000 
#    z 0.000000 0.000000 1.882180 
# 
# From -- ./inp_files/16871.got.cif
#   From: 2010.05.17/outbox.cif.g08.bks.cpg/sg20_9_cif.got.tgz:16871.got - 2010.06.03 22:52:26.
