data_PCOD9321305
_publ_section_title
;
Structure prediction by ZEFSAII (Michael W. Deem and Ramdas Pophale) SiO2 
 PCOD9321305
Probable space group: C 2 2 21
;
_chemical_formula_sum "Si O2"
_cell_formula_units_Z 40
_cell_length_a 4.884208
_cell_length_b 20.571114
_cell_length_c 18.922863
_cell_angle_alpha 90.000000
_cell_angle_beta 90.000000
_cell_angle_gamma 90.000000
_cell_volume 1901.248160
_symmetry_space_group_name_H-M "C 2 2 21"
_symmetry_group_IT_number 20
_symmetry_cell_setting 'orthorhombic'
loop_
_space_group_symop_operation_xyz
x,y,z
-x,-y,1/2+z
x,-y,-z
-x,y,1/2-z
1/2+x,1/2+y,z
1/2-x,1/2-y,1/2+z
1/2+x,1/2-y,-z
1/2-x,1/2+y,1/2-z
loop_
_atom_site_type_symbol
_atom_site_label
_atom_site_fract_x
_atom_site_fract_y
_atom_site_fract_z
Si Si1 0.365240 0.252131 0.822698
Si Si2 0.128939 0.279027 0.593802
Si Si3 0.766801 0.147254 0.990397
Si Si4 0.727702 0.935352 0.454106
Si Si5 0.737577 0.101429 0.699807
O O1 0.500000 0.272914 0.750000
O O2 0.555984 0.284525 0.883246
O O3 0.367599 0.173395 0.824258
O O4 0.051621 0.268819 0.836251
O O5 0.134152 0.212459 0.548949
O O6 0.947695 0.330438 0.550905
O O7 0.565008 0.099928 0.947777
O O8 0.045165 0.106565 0.996663
O O9 0.812620 0.938303 0.371205
O O10 0.693727 0.000000 0.500000
O O11 0.500000 0.072644 0.750000
O O12 0.000000 0.110954 0.750000
#
# Coordination Sequence:
#
# PCOD9321305 Si02
#       5
#     8   8   8   8   8
#     4  11  21  35  59  93 129 165 203 262 328 386
#     4  12  21  38  60  90 132 160 201 260 318 405
#     4  12  23  40  62  94 126 170 205 255 335 375
#     4  12  25  43  65  94 132 170 225 272 319 388
#     4  11  21  38  63  93 129 163 214 280 333 381
#
# _framework density 21.038810999999999
#
# number of rings (size 3 to 8) (size 9 to 14) (size 15 to 20)
#    0.000    0.400    4.000    8.400    0.000    0.000 
#    0.000    0.000    0.000   12.000    0.000    0.000 
#    0.000    0.000    0.000    0.000    0.000    0.000 
#
# Total GULP energy -111511.794686 kJ/mol
# GULP energy per Si atom -5575.589734 kJ/mol
# Density = 2.099093 g / cm^3
# Si number density = 21.038811 Si / 1000 Ang^3
#
#
#
# Elastic Constant Matrix: (Units=GPa)
#
#
# Indices 1 2 3 4 5 6 
#
# 1 141.2536 22.4362 36.0658 0.0000 0.0000 0.0000
# 2 22.4362 28.4986 34.7574 0.0000 0.0000 0.0000
# 3 36.0658 34.7574 105.9696 0.0000 0.0000 0.0000
# 4 0.0000 0.0000 0.0000 17.2458 0.0000 0.0000
# 5 0.0000 0.0000 0.0000 0.0000 45.6988 0.0000
# 6 0.0000 0.0000 0.0000 0.0000 0.0000 10.5243
#
#
#
# Elastic Compliance Matrix: (Units=1/GPa)
#
#
# Indices 1 2 3 4 5 6 
#
# 1 0.008170 -0.005068 -0.001118 0.000000 0.000000 0.000000
# 2 -0.005068 0.061629 -0.018489 0.000000 0.000000 0.000000
# 3 -0.001118 -0.018489 0.015882 0.000000 0.000000 0.000000
# 4 0.000000 0.000000 0.000000 0.057985 0.000000 0.000000
# 5 0.000000 0.000000 0.000000 0.000000 0.021882 0.000000
# 6 0.000000 0.000000 0.000000 0.000000 0.000000 0.095019
#
#
# Mechanical properties :
#
#
# Convention : Reuss Voigt Hill
#
# Bulk Modulus (GPa) = 27.52572 51.36007 39.44290
# Shear Modulus (GPa) = 15.52661 26.85793 21.19227
#
# Velocity S-wave (km/s) = 2.71956 3.57682 3.17723
# Velocity P-wave (km/s) = 4.79302 6.44385 5.67874
#
# Compressibility (1/GPa) = 0.03632965
#
# Stress axis : x y z
#
# Youngs Moduli (GPa) = 122.39907 16.22611 62.96616
#
# Poissons Ratio (x) = 0.08224 0.07041
# Poissons Ratio (y) = 0.62034 1.16418
# Poissons Ratio (z) = 0.13687 0.30001
#
# Static dielectric constant tensor:
#      x y z
#    x 1.746820 0.000000 0.000000 
#    y 0.000000 1.739920 0.000000 
#    z 0.000000 0.000000 1.855610 
# 
# From -- ./inp_files/22722.got.cif
#   From: 2010.05.17/outbox.cif.g08.bks.cpg/sg20_12_cif.got.tgz:22722.got - 2010.06.03 22:52:26.
