data_PCOD9321126
_publ_section_title
;
Structure prediction by ZEFSAII (Michael W. Deem and Ramdas Pophale) SiO2 
 PCOD9321126
Probable space group: C 2 2 21
;
_chemical_formula_sum "Si O2"
_cell_formula_units_Z 56
_cell_length_a 19.523330
_cell_length_b 5.433785
_cell_length_c 22.344627
_cell_angle_alpha 90.000000
_cell_angle_beta 90.000000
_cell_angle_gamma 90.000000
_cell_volume 2370.442664
_symmetry_space_group_name_H-M "C 2 2 21"
_symmetry_group_IT_number 20
_symmetry_cell_setting 'orthorhombic'
loop_
_space_group_symop_operation_xyz
x,y,z
-x,-y,1/2+z
x,-y,-z
-x,y,1/2-z
1/2+x,1/2+y,z
1/2-x,1/2-y,1/2+z
1/2+x,1/2-y,-z
1/2-x,1/2+y,1/2-z
loop_
_atom_site_type_symbol
_atom_site_label
_atom_site_fract_x
_atom_site_fract_y
_atom_site_fract_z
Si Si1 0.171401 0.349642 0.561227
Si Si2 0.948593 0.378144 0.860272
Si Si3 0.252187 0.740964 0.327704
Si Si4 0.000000 0.642472 0.750000
Si Si5 0.071457 0.000000 0.500000
Si Si6 0.052057 0.002904 0.845267
Si Si7 0.827823 0.260830 0.711751
Si Si8 0.045384 0.339304 0.051792
O O1 0.184217 0.500000 0.500000
O O2 0.119147 0.479623 0.607430
O O3 0.233972 0.268433 0.602244
O O4 0.124040 0.115990 0.546491
O O5 0.954245 0.485231 0.794476
O O6 0.973782 0.094790 0.855456
O O7 0.011136 0.480172 0.900604
O O8 0.185821 0.753745 0.283325
O O9 0.287740 0.482332 0.312022
O O10 0.296173 0.982508 0.311497
O O11 0.047609 0.807482 0.792076
O O12 0.019627 0.787706 0.519658
O O13 0.098460 0.217647 0.817846
O O14 0.078301 0.875090 0.906791
O O15 0.082319 0.500000 0.000000
#
# Coordination Sequence:
#
# PCOD9321126 Si02
#       8
#     8   8   8   4   4   8   8   8
#     4  12  25  42  73 103 144 188 238 311 362 433
#     4  11  22  39  61 105 144 181 228 289 370 446
#     4  10  26  47  76 101 141 191 259 302 367 432
#     4  10  26  34  62 112 146 180 228 294 370 452
#     4  12  20  40  64 100 140 178 228 282 362 424
#     4  11  24  40  68 101 147 182 236 298 370 453
#     4  10  25  50  73 104 138 199 244 310 370 433
#     4  11  20  38  62  98 140 184 228 272 367 451
#
# _framework density 23.624279999999999
#
# number of rings (size 3 to 8) (size 9 to 14) (size 15 to 20)
#    0.000    1.143    4.286    0.429   10.000    2.286 
#    0.000    0.000    6.286    0.000    0.000    0.000 
#    0.000    0.000    0.000    0.000    0.000    0.000 
#
# Total GULP energy -156293.069747 kJ/mol
# GULP energy per Si atom -5581.895348 kJ/mol
# Density = 2.357051 g / cm^3
# Si number density = 23.624280 Si / 1000 Ang^3
#
#
#
# Elastic Constant Matrix: (Units=GPa)
#
#
# Indices 1 2 3 4 5 6 
#
# 1 40.8704 21.0205 28.9321 0.0000 0.0000 0.0000
# 2 21.0205 106.2038 57.2190 0.0000 0.0000 0.0000
# 3 28.9321 57.2190 167.9023 0.0000 0.0000 0.0000
# 4 0.0000 0.0000 0.0000 40.1007 0.0000 0.0000
# 5 0.0000 0.0000 0.0000 0.0000 32.6896 0.0000
# 6 0.0000 0.0000 0.0000 0.0000 0.0000 -89.6506
#
#
#
# Elastic Compliance Matrix: (Units=1/GPa)
#
#
# Indices 1 2 3 4 5 6 
#
# 1 0.029029 -0.003737 -0.003729 0.000000 0.000000 0.000000
# 2 -0.003737 0.012014 -0.003450 0.000000 0.000000 0.000000
# 3 -0.003729 -0.003450 0.007774 0.000000 0.000000 0.000000
# 4 0.000000 0.000000 0.000000 0.024937 0.000000 0.000000
# 5 0.000000 0.000000 0.000000 0.000000 0.030591 0.000000
# 6 0.000000 0.000000 0.000000 0.000000 0.000000 -0.011154
#
#
# Mechanical properties :
#
#
# Convention : Reuss Voigt Hill
#
# Bulk Modulus (GPa) = 37.05636 58.81330 47.93483
# Shear Modulus (GPa) = 40.31659 10.48159 25.39909
#
# Velocity S-wave (km/s) = 4.13555 2.10865 3.28247
# Velocity P-wave (km/s) = 6.20673 5.55679 5.89073
#
# Compressibility (1/GPa) = 0.02698592
#
# Stress axis : x y z
#
# Youngs Moduli (GPa) = 34.44828 83.23307 128.62990
#
# Poissons Ratio (x) = 0.31102 0.47962
# Poissons Ratio (y) = 0.12872 0.44384
# Poissons Ratio (z) = 0.12845 0.28719
#
# Static dielectric constant tensor:
#      x y z
#    x 1.982850 0.000000 0.000000 
#    y 0.000000 2.061900 0.000000 
#    z 0.000000 0.000000 3.256630 
# 
# From -- ./inp_files/29524.got.cif
#   From: 2010.05.17/outbox.cif.g08.bks.cpg/sg20_15_cif.got.tgz:29524.got - 2010.06.03 22:52:26.
