data_PCOD9321664
_publ_section_title
;
Structure prediction by ZEFSAII (Michael W. Deem and Ramdas Pophale) SiO2 
 PCOD9321664
Probable space group: C 2 2 21
;
_chemical_formula_sum "Si O2"
_cell_formula_units_Z 40
_cell_length_a 24.501544
_cell_length_b 11.004844
_cell_length_c 5.272236
_cell_angle_alpha 90.000000
_cell_angle_beta 90.000000
_cell_angle_gamma 90.000000
_cell_volume 1421.582884
_symmetry_space_group_name_H-M "C 2 2 21"
_symmetry_group_IT_number 20
_symmetry_cell_setting 'orthorhombic'
loop_
_space_group_symop_operation_xyz
x,y,z
-x,-y,1/2+z
x,-y,-z
-x,y,1/2-z
1/2+x,1/2+y,z
1/2-x,1/2-y,1/2+z
1/2+x,1/2-y,-z
1/2-x,1/2+y,1/2-z
loop_
_atom_site_type_symbol
_atom_site_label
_atom_site_fract_x
_atom_site_fract_y
_atom_site_fract_z
Si Si1 0.620603 0.877873 0.353553
Si Si2 0.447846 0.000000 0.500000
Si Si3 0.376897 0.392882 0.819599
Si Si4 0.299557 0.000000 0.500000
Si Si5 0.000000 0.128929 0.250000
Si Si6 0.500000 0.213559 0.250000
Si Si7 0.233595 0.174948 0.148244
O O1 0.622682 0.741558 0.451658
O O2 0.659057 0.897250 0.103960
O O3 0.636339 0.000000 0.500000
O O4 0.561710 0.907151 0.237749
O O5 0.452856 0.115541 0.303662
O O6 0.438552 0.427035 0.738697
O O7 0.329184 0.367329 0.616341
O O8 0.357535 0.500000 0.000000
O O9 0.264421 0.060435 0.277332
O O10 0.003788 0.201331 0.510449
O O11 0.242758 0.272931 0.383064
#
# Coordination Sequence:
#
# PCOD9321664 Si02
#       7
#     8   4   8   4   4   4   8
#     4  11  23  46  80 118 163 211 281 356 435 514
#     4  11  24  38  78 120 158 210 284 357 436 494
#     4  12  27  53  82 118 172 230 288 349 429 515
#     4  11  24  44  78 122 160 220 278 359 438 530
#     4  12  29  51  80 116 172 232 292 352 418 520
#     4  12  25  47  78 120 160 212 288 352 432 496
#     4  12  27  50  82 124 167 219 285 358 441 517
#
# _framework density 28.137647999999999
#
# number of rings (size 3 to 8) (size 9 to 14) (size 15 to 20)
#    0.000    0.400    5.000    3.000    1.400    4.000 
#    0.000    2.000    0.000    0.000    0.000    0.000 
#    0.000    0.000    0.000    0.000    0.000    0.000 
#
# Total GULP energy -111361.423554 kJ/mol
# GULP energy per Si atom -5568.071178 kJ/mol
# Density = 2.807361 g / cm^3
# Si number density = 28.137648 Si / 1000 Ang^3
#
#
#
# Elastic Constant Matrix: (Units=GPa)
#
#
# Indices 1 2 3 4 5 6 
#
# 1 147.3404 -8.8364 -1.0544 0.0000 0.0000 0.0000
# 2 -8.8364 171.7481 48.1984 0.0000 0.0000 0.0000
# 3 -1.0544 48.1984 149.4146 0.0000 0.0000 0.0000
# 4 0.0000 0.0000 0.0000 76.5350 0.0000 0.0000
# 5 0.0000 0.0000 0.0000 0.0000 32.3501 0.0000
# 6 0.0000 0.0000 0.0000 0.0000 0.0000 28.3288
#
#
#
# Elastic Compliance Matrix: (Units=1/GPa)
#
#
# Indices 1 2 3 4 5 6 
#
# 1 0.006809 0.000370 -0.000071 0.000000 0.000000 0.000000
# 2 0.000370 0.006422 -0.002069 0.000000 0.000000 0.000000
# 3 -0.000071 -0.002069 0.007360 0.000000 0.000000 0.000000
# 4 0.000000 0.000000 0.000000 0.013066 0.000000 0.000000
# 5 0.000000 0.000000 0.000000 0.000000 0.030912 0.000000
# 6 0.000000 0.000000 0.000000 0.000000 0.000000 0.035300
#
#
# Mechanical properties :
#
#
# Convention : Reuss Voigt Hill
#
# Bulk Modulus (GPa) = 58.64983 60.56869 59.60926
# Shear Modulus (GPa) = 45.83299 56.12250 50.97774
#
# Velocity S-wave (km/s) = 4.04032 4.47091 4.26106
# Velocity P-wave (km/s) = 6.53106 6.94439 6.74090
#
# Compressibility (1/GPa) = 0.01705035
#
# Stress axis : x y z
#
# Youngs Moduli (GPa) = 146.87083 155.71020 135.87464
#
# Poissons Ratio (x) = -0.05767 0.00970
# Poissons Ratio (y) = -0.05439 0.28113
# Poissons Ratio (z) = 0.01049 0.32217
#
# Static dielectric constant tensor:
#      x y z
#    x 2.531810 0.000000 0.000000 
#    y 0.000000 2.231710 0.000000 
#    z 0.000000 0.000000 2.266590 
# 
# From -- ./inp_files/4145.got.cif
#   From: 2010.05.17/outbox.cif.g08.bks.cpg/sg20_3_cif.got.tgz:4145.got - 2010.06.03 22:52:26.
