data_PCOD9321115
_publ_section_title
;
Structure prediction by ZEFSAII (Michael W. Deem and Ramdas Pophale) SiO2 
 PCOD9321115
Probable space group: C 2 2 21
;
_chemical_formula_sum "Si O2"
_cell_formula_units_Z 40
_cell_length_a 23.607738
_cell_length_b 10.076483
_cell_length_c 7.416754
_cell_angle_alpha 90.000000
_cell_angle_beta 90.000000
_cell_angle_gamma 90.000000
_cell_volume 1764.319474
_symmetry_space_group_name_H-M "C 2 2 21"
_symmetry_group_IT_number 20
_symmetry_cell_setting 'orthorhombic'
loop_
_space_group_symop_operation_xyz
x,y,z
-x,-y,1/2+z
x,-y,-z
-x,y,1/2-z
1/2+x,1/2+y,z
1/2-x,1/2-y,1/2+z
1/2+x,1/2-y,-z
1/2-x,1/2+y,1/2-z
loop_
_atom_site_type_symbol
_atom_site_label
_atom_site_fract_x
_atom_site_fract_y
_atom_site_fract_z
Si Si1 0.190635 0.247741 0.272495
Si Si2 0.881795 0.282696 0.589867
Si Si3 0.993179 0.349707 0.037012
Si Si4 0.784714 0.464367 0.706717
Si Si5 0.395916 0.646041 0.933913
O O1 0.213251 0.396262 0.308089
O O2 0.241178 0.146814 0.230514
O O3 0.155479 0.195654 0.441939
O O4 0.149795 0.257626 0.098572
O O5 0.945669 0.326696 0.552304
O O6 0.846845 0.398831 0.690804
O O7 0.880328 0.157253 0.723620
O O8 0.000000 0.330745 0.250000
O O9 0.974322 0.500000 0.000000
O O10 0.947861 0.245751 0.964425
O O11 0.768259 0.500000 0.500000
O O12 0.411129 0.500000 0.000000
#
# Coordination Sequence:
#
# PCOD9321115 Si02
#       5
#     8   8   8   8   8
#     4  11  25  50  73 109 150 194 253 300 377 432
#     4  11  26  50  77 106 150 197 246 307 365 448
#     4  12  25  49  80 113 147 196 251 305 374 451
#     4  10  25  47  74 108 149 192 249 303 365 443
#     4  12  29  48  73 112 154 192 250 309 374 435
#
# _framework density 22.671631000000001
#
# number of rings (size 3 to 8) (size 9 to 14) (size 15 to 20)
#    0.000    0.800    2.000    4.200   11.200    2.400 
#    3.600    0.000    0.000    0.000    0.000    0.000 
#    0.000    0.000    0.000    0.000    0.000    0.000 
#
# Total GULP energy -112130.141375 kJ/mol
# GULP energy per Si atom -5606.507069 kJ/mol
# Density = 2.262003 g / cm^3
# Si number density = 22.671631 Si / 1000 Ang^3
#
#
#
# Elastic Constant Matrix: (Units=GPa)
#
#
# Indices 1 2 3 4 5 6 
#
# 1 147.2882 82.7985 13.2027 0.0000 0.0000 0.0000
# 2 82.7985 152.9967 19.6920 0.0000 0.0000 0.0000
# 3 13.2027 19.6920 64.2237 0.0000 0.0000 0.0000
# 4 0.0000 0.0000 0.0000 32.0445 0.0000 0.0000
# 5 0.0000 0.0000 0.0000 0.0000 4.9994 0.0000
# 6 0.0000 0.0000 0.0000 0.0000 0.0000 27.8838
#
#
#
# Elastic Compliance Matrix: (Units=1/GPa)
#
#
# Indices 1 2 3 4 5 6 
#
# 1 0.009768 -0.005234 -0.000403 0.000000 0.000000 0.000000
# 2 -0.005234 0.009610 -0.001870 0.000000 0.000000 0.000000
# 3 -0.000403 -0.001870 0.016227 0.000000 0.000000 0.000000
# 4 0.000000 0.000000 0.000000 0.031207 0.000000 0.000000
# 5 0.000000 0.000000 0.000000 0.000000 0.200024 0.000000
# 6 0.000000 0.000000 0.000000 0.000000 0.000000 0.035863
#
#
# Mechanical properties :
#
#
# Convention : Reuss Voigt Hill
#
# Bulk Modulus (GPa) = 48.57015 66.21058 57.39037
# Shear Modulus (GPa) = 15.40465 29.57323 22.48894
#
# Velocity S-wave (km/s) = 2.60949 3.61559 3.15293
# Velocity P-wave (km/s) = 5.52712 6.83356 6.21476
#
# Compressibility (1/GPa) = 0.02058878
#
# Stress axis : x y z
#
# Youngs Moduli (GPa) = 102.37438 104.06309 61.62595
#
# Poissons Ratio (x) = 0.54471 0.02484
# Poissons Ratio (y) = 0.53587 0.11526
# Poissons Ratio (z) = 0.04127 0.19464
#
# Static dielectric constant tensor:
#      x y z
#    x 1.808340 0.000000 0.000000 
#    y 0.000000 1.824040 0.000000 
#    z 0.000000 0.000000 1.868120 
# 
# From -- ./inp_files/6276.got.cif
#   From: 2010.05.17/outbox.cif.g08.bks.cpg/sg20_4_cif.got.tgz:6276.got - 2010.06.03 22:52:26.
