data_PCOD9321432
_publ_section_title
;
Structure prediction by ZEFSAII (Michael W. Deem and Ramdas Pophale) SiO2 
 PCOD9321432
Probable space group: C 2 2 21
;
_chemical_formula_sum "Si O2"
_cell_formula_units_Z 60
_cell_length_a 10.503379
_cell_length_b 9.546499
_cell_length_c 27.228317
_cell_angle_alpha 90.000000
_cell_angle_beta 90.000000
_cell_angle_gamma 90.000000
_cell_volume 2730.196881
_symmetry_space_group_name_H-M "C 2 2 21"
_symmetry_group_IT_number 20
_symmetry_cell_setting 'orthorhombic'
loop_
_space_group_symop_operation_xyz
x,y,z
-x,-y,1/2+z
x,-y,-z
-x,y,1/2-z
1/2+x,1/2+y,z
1/2-x,1/2-y,1/2+z
1/2+x,1/2-y,-z
1/2-x,1/2+y,1/2-z
loop_
_atom_site_type_symbol
_atom_site_label
_atom_site_fract_x
_atom_site_fract_y
_atom_site_fract_z
Si Si1 0.125694 0.220304 0.137393
Si Si2 0.865951 0.406750 0.220431
Si Si3 0.406283 0.500000 0.500000
Si Si4 0.146953 0.111244 0.245546
Si Si5 0.468775 0.975677 0.115337
Si Si6 0.911384 0.938824 0.913798
Si Si7 0.870199 0.262241 0.923290
Si Si8 0.807076 0.300819 0.037032
O O1 0.162746 0.186973 0.192684
O O2 0.996545 0.132425 0.127869
O O3 0.238177 0.182125 0.100175
O O4 0.091688 0.382575 0.127719
O O5 0.834636 0.241525 0.217735
O O6 0.752840 0.491320 0.246925
O O7 0.887356 0.463464 0.165468
O O8 0.000000 0.419846 0.250000
O O9 0.494971 0.572387 0.460464
O O10 0.320747 0.613037 0.527989
O O11 0.000000 0.061170 0.250000
O O12 0.400364 0.897296 0.069654
O O13 0.477303 0.136008 0.098819
O O14 0.795324 0.841912 0.931670
O O15 0.884900 0.101625 0.907247
O O16 0.859240 0.273874 0.981977
#
# Coordination Sequence:
#
# PCOD9321432 Si02
#       8
#     8   8   4   8   8   8   8   8
#     4  11  23  44  67  95 134 181 217 290 347 414
#     4  11  24  48  71 102 140 182 234 298 355 427
#     4  12  20  40  64  88 138 178 212 278 330 390
#     4  11  24  47  75  99 140 177 232 295 361 416
#     4  11  22  43  71  95 136 183 228 277 359 413
#     4  11  25  40  63  97 135 171 231 274 336 404
#     4  12  22  42  65 101 135 174 230 281 332 420
#     4  11  22  40  66  95 134 183 222 272 335 411
#
# _framework density 21.976437000000001
#
# number of rings (size 3 to 8) (size 9 to 14) (size 15 to 20)
#    0.000    0.800    8.000    0.000    0.000    2.667 
#    2.400    1.333    0.000    0.000    0.000    0.000 
#    0.000    0.000    0.000    0.000    0.000    0.000 
#
# Total GULP energy -167608.724968 kJ/mol
# GULP energy per Si atom -5586.957499 kJ/mol
# Density = 2.192642 g / cm^3
# Si number density = 21.976437 Si / 1000 Ang^3
#
#
#
# Elastic Constant Matrix: (Units=GPa)
#
#
# Indices 1 2 3 4 5 6 
#
# 1 76.8003 33.3897 -6.4070 0.0000 0.0000 0.0000
# 2 33.3897 121.8762 11.6139 0.0000 0.0000 0.0000
# 3 -6.4070 11.6139 68.5402 0.0000 0.0000 0.0000
# 4 0.0000 0.0000 0.0000 19.3387 0.0000 0.0000
# 5 0.0000 0.0000 0.0000 0.0000 21.5720 0.0000
# 6 0.0000 0.0000 0.0000 0.0000 0.0000 35.4688
#
#
#
# Elastic Compliance Matrix: (Units=1/GPa)
#
#
# Indices 1 2 3 4 5 6 
#
# 1 0.015085 -0.004337 0.002145 0.000000 0.000000 0.000000
# 2 -0.004337 0.009587 -0.002030 0.000000 0.000000 0.000000
# 3 0.002145 -0.002030 0.015134 0.000000 0.000000 0.000000
# 4 0.000000 0.000000 0.000000 0.051710 0.000000 0.000000
# 5 0.000000 0.000000 0.000000 0.000000 0.046356 0.000000
# 6 0.000000 0.000000 0.000000 0.000000 0.000000 0.028194
#
#
# Mechanical properties :
#
#
# Convention : Reuss Voigt Hill
#
# Bulk Modulus (GPa) = 31.88525 38.26776 35.07650
# Shear Modulus (GPa) = 27.03216 30.51723 28.77470
#
# Velocity S-wave (km/s) = 3.51101 3.73048 3.62241
# Velocity P-wave (km/s) = 5.56567 6.00052 5.78718
#
# Compressibility (1/GPa) = 0.03136246
#
# Stress axis : x y z
#
# Youngs Moduli (GPa) = 66.28925 104.31083 66.07446
#
# Poissons Ratio (x) = 0.45242 -0.14173
# Poissons Ratio (y) = 0.28751 0.13412
# Poissons Ratio (z) = -0.14220 0.21174
#
# Static dielectric constant tensor:
#      x y z
#    x 1.830550 0.000000 0.000000 
#    y 0.000000 1.842790 0.000000 
#    z 0.000000 0.000000 1.824640 
# 
# From -- ./inp_files/30336.got.cif
#   From: 2010.05.17/outbox.cif.g08.bks.cpg/sg20_16_cif.got.tgz:30336.got - 2010.06.03 22:52:26.
