data_PCOD9321714
_publ_section_title
;
Structure prediction by ZEFSAII (Michael W. Deem and Ramdas Pophale) SiO2 
 PCOD9321714
Probable space group: C 2 2 21
;
_chemical_formula_sum "Si O2"
_cell_formula_units_Z 36
_cell_length_a 21.142735
_cell_length_b 9.703493
_cell_length_c 8.964361
_cell_angle_alpha 90.000000
_cell_angle_beta 90.000000
_cell_angle_gamma 90.000000
_cell_volume 1839.113790
_symmetry_space_group_name_H-M "C 2 2 21"
_symmetry_group_IT_number 20
_symmetry_cell_setting 'orthorhombic'
loop_
_space_group_symop_operation_xyz
x,y,z
-x,-y,1/2+z
x,-y,-z
-x,y,1/2-z
1/2+x,1/2+y,z
1/2-x,1/2-y,1/2+z
1/2+x,1/2-y,-z
1/2-x,1/2+y,1/2-z
loop_
_atom_site_type_symbol
_atom_site_label
_atom_site_fract_x
_atom_site_fract_y
_atom_site_fract_z
Si Si1 0.662280 0.492177 0.247129
Si Si2 0.732848 0.000000 0.000000
Si Si3 0.962573 0.887382 0.100633
Si Si4 0.506129 0.849838 0.071556
Si Si5 0.854349 0.769461 0.513865
O O1 0.722535 0.494479 0.354487
O O2 0.600436 0.462996 0.345984
O O3 0.657641 0.635387 0.158188
O O4 0.660375 0.368617 0.126300
O O5 0.689581 0.135741 0.996937
O O6 0.000000 0.851231 0.250000
O O7 0.954528 0.752110 0.001314
O O8 0.999408 0.000000 0.000000
O O9 0.500000 0.854155 0.250000
O O10 0.573435 0.783677 0.024056
O O11 0.500895 0.000000 0.000000
#
# Coordination Sequence:
#
# PCOD9321714 Si02
#       5
#     8   4   8   8   8
#     4  11  24  42  69  99 132 181 233 283 340 423
#     4  12  24  44  72  96 136 180 234 286 352 414
#     4  12  22  40  68  99 133 175 229 285 341 414
#     4  12  26  43  67 100 140 184 227 290 364 419
#     4  11  24  46  66  97 142 180 227 287 351 410
#
# _framework density 19.574643999999999
#
# number of rings (size 3 to 8) (size 9 to 14) (size 15 to 20)
#    0.000    0.444    4.444    5.333    0.000    0.000 
#    0.000    0.000    0.000    0.000    0.000    0.000 
#    0.000    0.000    0.000    0.000    0.000    0.000 
#
# Total GULP energy -100650.269596 kJ/mol
# GULP energy per Si atom -5591.681644 kJ/mol
# Density = 1.953009 g / cm^3
# Si number density = 19.574644 Si / 1000 Ang^3
#
#
#
# Elastic Constant Matrix: (Units=GPa)
#
#
# Indices 1 2 3 4 5 6 
#
# 1 77.2610 42.6813 38.3640 0.0000 0.0000 0.0000
# 2 42.6813 181.5955 80.7410 0.0000 0.0000 0.0000
# 3 38.3640 80.7410 157.7581 0.0000 0.0000 0.0000
# 4 0.0000 0.0000 0.0000 38.2441 0.0000 0.0000
# 5 0.0000 0.0000 0.0000 0.0000 23.3992 0.0000
# 6 0.0000 0.0000 0.0000 0.0000 0.0000 19.8726
#
#
#
# Elastic Compliance Matrix: (Units=1/GPa)
#
#
# Indices 1 2 3 4 5 6 
#
# 1 0.015590 -0.002561 -0.002480 0.000000 0.000000 0.000000
# 2 -0.002561 0.007550 -0.003241 0.000000 0.000000 0.000000
# 3 -0.002480 -0.003241 0.008601 0.000000 0.000000 0.000000
# 4 0.000000 0.000000 0.000000 0.026148 0.000000 0.000000
# 5 0.000000 0.000000 0.000000 0.000000 0.042737 0.000000
# 6 0.000000 0.000000 0.000000 0.000000 0.000000 0.050320
#
#
# Mechanical properties :
#
#
# Convention : Reuss Voigt Hill
#
# Bulk Modulus (GPa) = 65.89860 82.24303 74.07081
# Shear Modulus (GPa) = 28.97393 33.29173 31.13283
#
# Velocity S-wave (km/s) = 3.85148 4.12850 3.99239
# Velocity P-wave (km/s) = 7.31552 8.05185 7.69250
#
# Compressibility (1/GPa) = 0.01517483
#
# Stress axis : x y z
#
# Youngs Moduli (GPa) = 64.14508 132.45322 116.26837
#
# Poissons Ratio (x) = 0.33926 0.28837
# Poissons Ratio (y) = 0.16430 0.37684
# Poissons Ratio (z) = 0.15909 0.42930
#
# Static dielectric constant tensor:
#      x y z
#    x 1.703690 0.000000 0.000000 
#    y 0.000000 1.676690 0.000000 
#    z 0.000000 0.000000 1.712530 
# 
# From -- ./inp_files/5886.got.cif
#   From: 2010.05.17/outbox.cif.g08.bks.cpg/sg20_3_cif.got.tgz:5886.got - 2010.06.03 22:52:26.
