data_PCOD9321779
_publ_section_title
;
Structure prediction by ZEFSAII (Michael W. Deem and Ramdas Pophale) SiO2 
 PCOD9321779
Probable space group: C 2 2 21
;
_chemical_formula_sum "Si O2"
_cell_formula_units_Z 24
_cell_length_a 6.778382
_cell_length_b 12.832324
_cell_length_c 11.254078
_cell_angle_alpha 90.000000
_cell_angle_beta 90.000000
_cell_angle_gamma 90.000000
_cell_volume 978.906647
_symmetry_space_group_name_H-M "C 2 2 21"
_symmetry_group_IT_number 20
_symmetry_cell_setting 'orthorhombic'
loop_
_space_group_symop_operation_xyz
x,y,z
-x,-y,1/2+z
x,-y,-z
-x,y,1/2-z
1/2+x,1/2+y,z
1/2-x,1/2-y,1/2+z
1/2+x,1/2-y,-z
1/2-x,1/2+y,1/2-z
loop_
_atom_site_type_symbol
_atom_site_label
_atom_site_fract_x
_atom_site_fract_y
_atom_site_fract_z
Si Si1 0.336002 0.261457 0.148225
Si Si2 0.881965 0.115363 0.497519
Si Si3 0.986985 0.559471 0.623702
O O1 0.500000 0.258292 0.250000
O O2 0.464525 0.296976 0.034200
O O3 0.171057 0.351006 0.153257
O O4 0.222469 0.154098 0.122486
O O5 0.702901 0.104249 0.591058
O O6 0.972396 0.000000 0.500000
O O7 0.934402 0.500000 0.500000
O O8 0.000000 0.499298 0.750000
#
# Coordination Sequence:
#
# PCOD9321779 Si02
#       3
#     8   8   8
#     4  12  24  47  74 106 150 200 251 309 374 451
#     4  11  25  45  70 106 144 193 250 304 368 442
#     4  11  24  46  76 112 153 199 255 310 377 448
#
# _framework density 24.517147999999999
#
# number of rings (size 3 to 8) (size 9 to 14) (size 15 to 20)
#    0.000    0.667    6.667    1.000    0.000    5.333 
#    0.000    1.667    0.000    0.000    0.000    0.000 
#    0.000    0.000    0.000    0.000    0.000    0.000 
#
# Total GULP energy -66983.891030 kJ/mol
# GULP energy per Si atom -5581.990919 kJ/mol
# Density = 2.446135 g / cm^3
# Si number density = 24.517148 Si / 1000 Ang^3
#
#
#
# Elastic Constant Matrix: (Units=GPa)
#
#
# Indices 1 2 3 4 5 6 
#
# 1 66.5943 -0.6299 -5.3482 0.0000 0.0000 0.0000
# 2 -0.6299 106.7628 33.4794 0.0000 0.0000 0.0000
# 3 -5.3482 33.4794 120.3385 0.0000 0.0000 0.0000
# 4 0.0000 0.0000 0.0000 28.0817 0.0000 0.0000
# 5 0.0000 0.0000 0.0000 0.0000 34.4958 0.0000
# 6 0.0000 0.0000 0.0000 0.0000 0.0000 15.9912
#
#
#
# Elastic Compliance Matrix: (Units=1/GPa)
#
#
# Indices 1 2 3 4 5 6 
#
# 1 0.015072 -0.000133 0.000707 0.000000 0.000000 0.000000
# 2 -0.000133 0.010263 -0.002861 0.000000 0.000000 0.000000
# 3 0.000707 -0.002861 0.009137 0.000000 0.000000 0.000000
# 4 0.000000 0.000000 0.000000 0.035610 0.000000 0.000000
# 5 0.000000 0.000000 0.000000 0.000000 0.028989 0.000000
# 6 0.000000 0.000000 0.000000 0.000000 0.000000 0.062534
#
#
# Mechanical properties :
#
#
# Convention : Reuss Voigt Hill
#
# Bulk Modulus (GPa) = 33.44720 38.74425 36.09572
# Shear Modulus (GPa) = 28.38551 33.46002 30.92276
#
# Velocity S-wave (km/s) = 3.40631 3.69827 3.55529
# Velocity P-wave (km/s) = 5.39839 5.83725 5.62210
#
# Compressibility (1/GPa) = 0.02989787
#
# Stress axis : x y z
#
# Youngs Moduli (GPa) = 66.34909 97.43741 109.44140
#
# Poissons Ratio (x) = 0.01293 -0.07735
# Poissons Ratio (y) = 0.00880 0.31313
# Poissons Ratio (z) = -0.04689 0.27878
#
# Static dielectric constant tensor:
#      x y z
#    x 1.905310 0.000000 0.000000 
#    y 0.000000 2.004530 0.000000 
#    z 0.000000 0.000000 2.043660 
# 
# From -- ./inp_files/12285.got.cif
#   From: 2010.05.17/outbox.cif.g08.bks.cpg/sg20_7_cif.got.tgz:12285.got - 2010.06.03 22:52:26.
