data_PCOD9321900
_publ_section_title
;
Structure prediction by ZEFSAII (Michael W. Deem and Ramdas Pophale) SiO2 
 PCOD9321900
Probable space group: C 2 2 21
;
_chemical_formula_sum "Si O2"
_cell_formula_units_Z 32
_cell_length_a 8.501274
_cell_length_b 12.447809
_cell_length_c 10.846599
_cell_angle_alpha 90.000000
_cell_angle_beta 90.000000
_cell_angle_gamma 90.000000
_cell_volume 1147.811348
_symmetry_space_group_name_H-M "C 2 2 21"
_symmetry_group_IT_number 20
_symmetry_cell_setting 'orthorhombic'
loop_
_space_group_symop_operation_xyz
x,y,z
-x,-y,1/2+z
x,-y,-z
-x,y,1/2-z
1/2+x,1/2+y,z
1/2-x,1/2-y,1/2+z
1/2+x,1/2-y,-z
1/2-x,1/2+y,1/2-z
loop_
_atom_site_type_symbol
_atom_site_label
_atom_site_fract_x
_atom_site_fract_y
_atom_site_fract_z
Si Si1 0.902054 0.143402 0.372270
Si Si2 0.899875 0.535792 0.373250
Si Si3 0.197545 0.765843 0.532121
Si Si4 0.172407 0.093134 0.786218
O O1 0.751049 0.214107 0.403009
O O2 0.000000 0.171112 0.250000
O O3 0.026326 0.181191 0.474791
O O4 0.861973 0.019098 0.359009
O O5 0.983554 0.500000 0.500000
O O6 0.808689 0.642549 0.411372
O O7 0.769413 0.447480 0.333316
O O8 0.000000 0.549047 0.250000
O O9 0.219843 0.668281 0.629327
O O10 0.000000 0.135286 0.750000
#
# Coordination Sequence:
#
# PCOD9321900 Si02
#       4
#     8   8   8   8
#     4  11  27  50  78 124 160 215 287 341 417 512
#     4  12  31  52  81 127 171 220 287 349 421 511
#     4  12  28  48  88 112 167 224 273 347 432 486
#     4  11  26  52  80 114 163 217 282 344 411 501
#
# _framework density 27.879147
#
# number of rings (size 3 to 8) (size 9 to 14) (size 15 to 20)
#    0.000    0.500    5.000    1.500   14.000    0.000 
#    0.000    0.000    0.000    0.000    0.000    0.000 
#    0.000    0.000    0.000    0.000    0.000    0.000 
#
# Total GULP energy -89836.066320 kJ/mol
# GULP energy per Si atom -5614.754145 kJ/mol
# Density = 2.781569 g / cm^3
# Si number density = 27.879147 Si / 1000 Ang^3
#
#
#
# Elastic Constant Matrix: (Units=GPa)
#
#
# Indices 1 2 3 4 5 6 
#
# 1 83.3595 29.8084 33.4089 0.0000 0.0000 0.0000
# 2 29.8084 154.5972 42.7447 0.0000 0.0000 0.0000
# 3 33.4089 42.7447 178.9297 0.0000 0.0000 0.0000
# 4 0.0000 0.0000 0.0000 61.1796 0.0000 0.0000
# 5 0.0000 0.0000 0.0000 0.0000 66.3822 0.0000
# 6 0.0000 0.0000 0.0000 0.0000 0.0000 46.5616
#
#
#
# Elastic Compliance Matrix: (Units=1/GPa)
#
#
# Indices 1 2 3 4 5 6 
#
# 1 0.013546 -0.002048 -0.002040 0.000000 0.000000 0.000000
# 2 -0.002048 0.007235 -0.001346 0.000000 0.000000 0.000000
# 3 -0.002040 -0.001346 0.006291 0.000000 0.000000 0.000000
# 4 0.000000 0.000000 0.000000 0.016345 0.000000 0.000000
# 5 0.000000 0.000000 0.000000 0.000000 0.015064 0.000000
# 6 0.000000 0.000000 0.000000 0.000000 0.000000 0.021477
#
#
# Mechanical properties :
#
#
# Convention : Reuss Voigt Hill
#
# Bulk Modulus (GPa) = 61.70992 69.86783 65.78888
# Shear Modulus (GPa) = 51.95938 55.55298 53.75618
#
# Velocity S-wave (km/s) = 4.32178 4.46874 4.39588
# Velocity P-wave (km/s) = 6.86197 7.19316 7.02951
#
# Compressibility (1/GPa) = 0.01620485
#
# Stress axis : x y z
#
# Youngs Moduli (GPa) = 73.82183 138.20822 158.95030
#
# Poissons Ratio (x) = 0.28303 0.32427
# Poissons Ratio (y) = 0.15117 0.21397
# Poissons Ratio (z) = 0.15060 0.18605
#
# Static dielectric constant tensor:
#      x y z
#    x 2.206610 0.000000 0.000000 
#    y 0.000000 2.115540 0.000000 
#    z 0.000000 0.000000 2.285650 
# 
# From -- ./inp_files/12574.got.cif
#   From: 2010.05.17/outbox.cif.g08.bks.cpg/sg20_7_cif.got.tgz:12574.got - 2010.06.03 22:52:26.
