data_PCOD9321452
_publ_section_title
;
Structure prediction by ZEFSAII (Michael W. Deem and Ramdas Pophale) SiO2 
 PCOD9321452
Probable space group: C 2 2 21
;
_chemical_formula_sum "Si O2"
_cell_formula_units_Z 40
_cell_length_a 17.513351
_cell_length_b 7.088501
_cell_length_c 12.042989
_cell_angle_alpha 90.000000
_cell_angle_beta 90.000000
_cell_angle_gamma 90.000000
_cell_volume 1495.057674
_symmetry_space_group_name_H-M "C 2 2 21"
_symmetry_group_IT_number 20
_symmetry_cell_setting 'orthorhombic'
loop_
_space_group_symop_operation_xyz
x,y,z
-x,-y,1/2+z
x,-y,-z
-x,y,1/2-z
1/2+x,1/2+y,z
1/2-x,1/2-y,1/2+z
1/2+x,1/2-y,-z
1/2-x,1/2+y,1/2-z
loop_
_atom_site_type_symbol
_atom_site_label
_atom_site_fract_x
_atom_site_fract_y
_atom_site_fract_z
Si Si1 0.025731 0.724445 0.535537
Si Si2 0.326295 0.510553 0.629558
Si Si3 0.864886 0.373597 0.392767
Si Si4 0.924528 0.225881 0.813248
Si Si5 0.658132 0.064151 0.658824
O O1 0.015961 0.500000 0.500000
O O2 0.033075 0.851784 0.425191
O O3 0.097437 0.718523 0.618698
O O4 0.944828 0.737399 0.597627
O O5 0.350887 0.500000 0.500000
O O6 0.307893 0.289954 0.647266
O O7 0.380404 0.594598 0.725145
O O8 0.244439 0.613451 0.633996
O O9 0.848261 0.500000 0.500000
O O10 0.862436 0.500035 0.284624
O O11 0.866553 0.358926 0.886534
O O12 0.000000 0.307575 0.750000
#
# Coordination Sequence:
#
# PCOD9321452 Si02
#       5
#     8   8   8   8   8
#     4   9  19  39  68  95 125 178 239 292 349 436
#     4  12  25  41  63  97 139 179 225 297 366 419
#     4  11  23  42  69  98 134 187 244 293 357 444
#     4  11  22  41  66  95 133 177 232 298 358 421
#     4  11  22  41  68  97 133 181 235 290 360 444
#
# _framework density 26.754819000000001
#
# number of rings (size 3 to 8) (size 9 to 14) (size 15 to 20)
#    0.000    1.200    0.000    9.600    0.000    1.600 
#    0.000    3.000    0.000    8.400    0.000    0.000 
#    0.000    0.000    0.000    0.000    0.000    0.000 
#
# Total GULP energy -111376.848883 kJ/mol
# GULP energy per Si atom -5568.842444 kJ/mol
# Density = 2.669392 g / cm^3
# Si number density = 26.754819 Si / 1000 Ang^3
#
#
#
# Elastic Constant Matrix: (Units=GPa)
#
#
# Indices 1 2 3 4 5 6 
#
# 1 101.1364 27.4135 25.4433 0.0000 0.0000 0.0000
# 2 27.4135 52.4973 6.1290 0.0000 0.0000 0.0000
# 3 25.4433 6.1290 144.7687 0.0000 0.0000 0.0000
# 4 0.0000 0.0000 0.0000 52.1516 0.0000 0.0000
# 5 0.0000 0.0000 0.0000 0.0000 46.9997 0.0000
# 6 0.0000 0.0000 0.0000 0.0000 0.0000 9.4630
#
#
#
# Elastic Compliance Matrix: (Units=1/GPa)
#
#
# Indices 1 2 3 4 5 6 
#
# 1 0.011992 -0.006046 -0.001852 0.000000 0.000000 0.000000
# 2 -0.006046 0.022191 0.000123 0.000000 0.000000 0.000000
# 3 -0.001852 0.000123 0.007228 0.000000 0.000000 0.000000
# 4 0.000000 0.000000 0.000000 0.019175 0.000000 0.000000
# 5 0.000000 0.000000 0.000000 0.000000 0.021277 0.000000
# 6 0.000000 0.000000 0.000000 0.000000 0.000000 0.105674
#
#
# Mechanical properties :
#
#
# Convention : Reuss Voigt Hill
#
# Bulk Modulus (GPa) = 38.66648 46.26378 42.46513
# Shear Modulus (GPa) = 23.61748 37.68397 30.65072
#
# Velocity S-wave (km/s) = 2.97431 3.75706 3.38837
# Velocity P-wave (km/s) = 5.12630 6.01248 5.58699
#
# Compressibility (1/GPa) = 0.02586220
#
# Stress axis : x y z
#
# Youngs Moduli (GPa) = 83.38692 45.06242 138.35471
#
# Poissons Ratio (x) = 0.27245 0.25619
# Poissons Ratio (y) = 0.50416 -0.01703
# Poissons Ratio (z) = 0.15441 -0.00555
#
# Static dielectric constant tensor:
#      x y z
#    x 2.191980 0.000000 0.000000 
#    y 0.000000 -1.774960 0.000000 
#    z 0.000000 0.000000 4.325590 
# 
# From -- ./inp_files/15548.got.cif
#   From: 2010.05.17/outbox.cif.g08.bks.cpg/sg20_8_cif.got.tgz:15548.got - 2010.06.03 22:52:26.
