data_PCOD9321828
_publ_section_title
;
Structure prediction by ZEFSAII (Michael W. Deem and Ramdas Pophale) SiO2 
 PCOD9321828
Probable space group: C 2 2 21
;
_chemical_formula_sum "Si O2"
_cell_formula_units_Z 44
_cell_length_a 9.556719
_cell_length_b 10.479221
_cell_length_c 16.058349
_cell_angle_alpha 90.000000
_cell_angle_beta 90.000000
_cell_angle_gamma 90.000000
_cell_volume 1608.195003
_symmetry_space_group_name_H-M "C 2 2 21"
_symmetry_group_IT_number 20
_symmetry_cell_setting 'orthorhombic'
loop_
_space_group_symop_operation_xyz
x,y,z
-x,-y,1/2+z
x,-y,-z
-x,y,1/2-z
1/2+x,1/2+y,z
1/2-x,1/2-y,1/2+z
1/2+x,1/2-y,-z
1/2-x,1/2+y,1/2-z
loop_
_atom_site_type_symbol
_atom_site_label
_atom_site_fract_x
_atom_site_fract_y
_atom_site_fract_z
Si Si1 0.110280 0.114860 0.697749
Si Si2 0.876998 0.000000 0.000000
Si Si3 0.108253 0.956674 0.099110
Si Si4 0.104959 0.598236 0.372928
Si Si5 0.430949 0.852424 0.324953
Si Si6 0.628799 0.198242 0.008744
O O1 0.104191 0.269472 0.678694
O O2 0.278799 0.096011 0.697376
O O3 0.920236 0.083356 0.701472
O O4 0.077548 0.035974 0.606645
O O5 0.770975 0.117820 0.011361
O O6 0.157542 0.818076 0.066442
O O7 0.238147 0.053892 0.108648
O O8 0.052794 0.000000 0.000000
O O9 0.029615 0.474662 0.335871
O O10 0.006701 0.630542 0.451700
O O11 0.500000 0.771436 0.250000
O O12 0.416004 0.781709 0.413011
#
# Coordination Sequence:
#
# PCOD9321828 Si02
#       6
#     8   4   8   8   8   8
#     4  11  25  49  67 102 142 183 238 293 347 428
#     4  12  24  42  70 106 140 178 232 296 350 402
#     4  11  27  41  76 105 137 183 238 291 354 419
#     4  11  25  47  75 103 138 188 236 293 357 416
#     4  12  25  45  69  98 143 187 227 284 359 419
#     4  11  25  45  69 103 144 177 237 299 345 417
#
# _framework density 27.359869
#
# number of rings (size 3 to 8) (size 9 to 14) (size 15 to 20)
#    0.000    0.727    3.636    1.636    7.636    0.000 
#    0.000    4.545    0.000    0.000    0.000    0.000 
#    0.000    0.000    0.000    0.000    0.000    0.000 
#
# Total GULP energy -123171.609962 kJ/mol
# GULP energy per Si atom -5598.709544 kJ/mol
# Density = 2.729760 g / cm^3
# Si number density = 27.359869 Si / 1000 Ang^3
#
#
#
# Elastic Constant Matrix: (Units=GPa)
#
#
# Indices 1 2 3 4 5 6 
#
# 1 264.5432 71.2141 122.8997 0.0000 0.0000 0.0000
# 2 71.2141 85.8274 49.3833 0.0000 0.0000 0.0000
# 3 122.8997 49.3833 272.0948 0.0000 0.0000 0.0000
# 4 0.0000 0.0000 0.0000 37.7187 0.0000 0.0000
# 5 0.0000 0.0000 0.0000 0.0000 67.7211 0.0000
# 6 0.0000 0.0000 0.0000 0.0000 0.0000 43.2191
#
#
#
# Elastic Compliance Matrix: (Units=1/GPa)
#
#
# Indices 1 2 3 4 5 6 
#
# 1 0.005621 -0.003576 -0.001890 0.000000 0.000000 0.000000
# 2 -0.003576 0.015286 -0.001159 0.000000 0.000000 0.000000
# 3 -0.001890 -0.001159 0.004739 0.000000 0.000000 0.000000
# 4 0.000000 0.000000 0.000000 0.026512 0.000000 0.000000
# 5 0.000000 0.000000 0.000000 0.000000 0.014766 0.000000
# 6 0.000000 0.000000 0.000000 0.000000 0.000000 0.023138
#
#
# Mechanical properties :
#
#
# Convention : Reuss Voigt Hill
#
# Bulk Modulus (GPa) = 80.67468 123.27328 101.97398
# Shear Modulus (GPa) = 46.53609 54.99635 50.76622
#
# Velocity S-wave (km/s) = 4.12866 4.48829 4.31222
# Velocity P-wave (km/s) = 7.23037 8.48609 7.88327
#
# Compressibility (1/GPa) = 0.01239546
#
# Stress axis : x y z
#
# Youngs Moduli (GPa) = 177.91151 65.42116 211.01337
#
# Poissons Ratio (x) = 0.23398 0.39875
# Poissons Ratio (y) = 0.63630 0.24452
# Poissons Ratio (z) = 0.33620 0.07581
#
# Static dielectric constant tensor:
#      x y z
#    x 2.077260 0.000000 0.000000 
#    y 0.000000 2.026960 0.000000 
#    z 0.000000 0.000000 2.301520 
# 
# From -- ./inp_files/24166.got.cif
#   From: 2010.05.17/outbox.cif.g08.bks.cpg/sg20_13_cif.got.tgz:24166.got - 2010.06.03 22:52:26.
