data_PCOD9321093
_publ_section_title
;
Structure prediction by ZEFSAII (Michael W. Deem and Ramdas Pophale) SiO2 
 PCOD9321093
Probable space group: C 2 2 21
;
_chemical_formula_sum "Si O2"
_cell_formula_units_Z 48
_cell_length_a 10.524910
_cell_length_b 9.880299
_cell_length_c 20.653569
_cell_angle_alpha 90.000000
_cell_angle_beta 90.000000
_cell_angle_gamma 90.000000
_cell_volume 2147.749310
_symmetry_space_group_name_H-M "C 2 2 21"
_symmetry_group_IT_number 20
_symmetry_cell_setting 'orthorhombic'
loop_
_space_group_symop_operation_xyz
x,y,z
-x,-y,1/2+z
x,-y,-z
-x,y,1/2-z
1/2+x,1/2+y,z
1/2-x,1/2-y,1/2+z
1/2+x,1/2-y,-z
1/2-x,1/2+y,1/2-z
loop_
_atom_site_type_symbol
_atom_site_label
_atom_site_fract_x
_atom_site_fract_y
_atom_site_fract_z
Si Si1 0.018568 0.000000 0.000000
Si Si2 0.585992 0.118488 0.575316
Si Si3 0.856475 0.046401 0.738446
Si Si4 0.695468 0.593966 0.105757
Si Si5 0.375221 0.000000 0.500000
Si Si6 0.825708 0.197732 0.961065
Si Si7 0.629197 0.738611 0.292005
O O1 0.101520 0.096150 0.044900
O O2 0.931524 0.084890 0.951279
O O3 0.459920 0.031287 0.562785
O O4 0.611100 0.191732 0.507347
O O5 0.588339 0.220183 0.635253
O O6 0.700607 0.017828 0.588300
O O7 0.862365 0.959790 0.671431
O O8 0.830692 0.920006 0.787404
O O9 0.000000 0.101577 0.750000
O O10 0.745011 0.159916 0.730879
O O11 0.767336 0.737058 0.103124
O O12 0.283528 0.128387 0.495843
O O13 0.500000 0.758794 0.250000
#
# Coordination Sequence:
#
# PCOD9321093 Si02
#       7
#     4   8   8   8   4   8   8
#     4  11  23  36  60  96 127 167 206 262 328 389
#     4  11  22  42  64  90 136 168 212 269 330 385
#     4  10  25  45  68  97 131 186 227 278 332 400
#     4  11  22  42  64  90 136 168 212 269 330 385
#     4  11  23  36  60  96 127 167 206 262 328 389
#     4  11  23  36  60  96 127 167 206 262 328 389
#     4  10  25  45  68  97 131 186 227 278 332 400
#
# _framework density 22.348977000000001
#
# number of rings (size 3 to 8) (size 9 to 14) (size 15 to 20)
#    0.000    1.333    3.333    1.000    9.333    3.333 
#    0.000    6.667    0.000    0.000    0.000    0.000 
#    0.000    0.000    0.000    0.000    0.000    0.000 
#
# Total GULP energy -133958.336287 kJ/mol
# GULP energy per Si atom -5581.597345 kJ/mol
# Density = 2.229811 g / cm^3
# Si number density = 22.348977 Si / 1000 Ang^3
#
#
#
# Elastic Constant Matrix: (Units=GPa)
#
#
# Indices 1 2 3 4 5 6 
#
# 1 86.7533 16.1288 -7.3168 0.0000 0.0000 0.0000
# 2 16.1288 58.4292 -18.3259 0.0000 0.0000 0.0000
# 3 -7.3168 -18.3259 30.7274 0.0000 0.0000 0.0000
# 4 0.0000 0.0000 0.0000 26.6189 0.0000 0.0000
# 5 0.0000 0.0000 0.0000 0.0000 16.5887 0.0000
# 6 0.0000 0.0000 0.0000 0.0000 0.0000 28.2830
#
#
#
# Elastic Compliance Matrix: (Units=1/GPa)
#
#
# Indices 1 2 3 4 5 6 
#
# 1 0.012181 -0.003017 0.001101 0.000000 0.000000 0.000000
# 2 -0.003017 0.021800 0.012283 0.000000 0.000000 0.000000
# 3 0.001101 0.012283 0.040132 0.000000 0.000000 0.000000
# 4 0.000000 0.000000 0.000000 0.037567 0.000000 0.000000
# 5 0.000000 0.000000 0.000000 0.000000 0.060282 0.000000
# 6 0.000000 0.000000 0.000000 0.000000 0.000000 0.035357
#
#
# Mechanical properties :
#
#
# Convention : Reuss Voigt Hill
#
# Bulk Modulus (GPa) = 10.54324 17.43134 13.98729
# Shear Modulus (GPa) = 22.91472 26.65971 24.78721
#
# Velocity S-wave (km/s) = 3.20553 3.45756 3.33393
# Velocity P-wave (km/s) = 4.29282 4.87403 4.59263
#
# Compressibility (1/GPa) = 0.09484752
#
# Stress axis : x y z
#
# Youngs Moduli (GPa) = 82.09703 45.87140 24.91771
#
# Poissons Ratio (x) = 0.13839 -0.02744
# Poissons Ratio (y) = 0.24769 -0.30607
# Poissons Ratio (z) = -0.09040 -0.56345
#
# Static dielectric constant tensor:
#      x y z
#    x 1.852410 0.000000 0.000000 
#    y 0.000000 1.956370 0.000000 
#    z 0.000000 0.000000 1.845380 
# 
# From -- ./inp_files/28748.got.cif
#   From: 2010.05.17/outbox.cif.g08.bks.cpg/sg20_15_cif.got.tgz:28748.got - 2010.06.03 22:52:26.
