data_PCOD9321780
_publ_section_title
;
Structure prediction by ZEFSAII (Michael W. Deem and Ramdas Pophale) SiO2 
 PCOD9321780
Probable space group: C 2 2 21
;
_chemical_formula_sum "Si O2"
_cell_formula_units_Z 64
_cell_length_a 10.800212
_cell_length_b 16.046335
_cell_length_c 14.623542
_cell_angle_alpha 90.000000
_cell_angle_beta 90.000000
_cell_angle_gamma 90.000000
_cell_volume 2534.315688
_symmetry_space_group_name_H-M "C 2 2 21"
_symmetry_group_IT_number 20
_symmetry_cell_setting 'orthorhombic'
loop_
_space_group_symop_operation_xyz
x,y,z
-x,-y,1/2+z
x,-y,-z
-x,y,1/2-z
1/2+x,1/2+y,z
1/2-x,1/2-y,1/2+z
1/2+x,1/2-y,-z
1/2-x,1/2+y,1/2-z
loop_
_atom_site_type_symbol
_atom_site_label
_atom_site_fract_x
_atom_site_fract_y
_atom_site_fract_z
Si Si1 0.532277 0.608092 0.594029
Si Si2 0.875194 0.449159 0.799691
Si Si3 0.312420 0.763301 0.823203
Si Si4 0.355337 0.864633 0.500743
Si Si5 0.048328 0.784261 0.926288
Si Si6 0.777779 0.938948 0.418352
Si Si7 0.797385 0.256300 0.122463
Si Si8 0.770465 0.490785 0.374895
O O1 0.316985 0.500000 0.500000
O O2 0.481903 0.639905 0.494648
O O3 0.404857 0.575721 0.639186
O O4 0.632844 0.534021 0.593271
O O5 0.879593 0.352864 0.825351
O O6 0.850451 0.442321 0.568078
O O7 0.837824 0.509170 0.880055
O O8 0.000000 0.474683 0.750000
O O9 0.183030 0.779561 0.879032
O O10 0.278388 0.747424 0.716698
O O11 0.398396 0.687359 0.859011
O O12 0.460881 0.797129 0.492492
O O13 0.246251 0.810501 0.546913
O O14 0.336968 0.903335 0.399570
O O15 0.937654 0.769115 0.856482
O O16 0.725816 0.845362 0.424557
O O17 0.730197 0.029163 0.224879
#
# Coordination Sequence:
#
# PCOD9321780 Si02
#       8
#     8   8   8   8   8   8   8   8
#     4  12  27  50  87 112 166 212 278 343 414 502
#     4  12  31  52  77 117 166 210 278 344 421 493
#     4  12  28  52  82 120 162 224 276 342 429 507
#     4  11  24  46  76 114 152 209 269 324 413 490
#     4  12  25  48  82 118 154 215 273 340 406 510
#     4  12  31  51  81 123 163 214 278 344 410 495
#     4  12  26  50  76 117 165 216 274 341 419 506
#     4  11  25  49  77 117 156 210 271 336 411 491
#
# _framework density 25.253366
#
# number of rings (size 3 to 8) (size 9 to 14) (size 15 to 20)
#    0.000    0.250    5.000    1.875    8.750    2.500 
#    2.250    0.000    0.000    0.000    0.000    0.000 
#    0.000    0.000    0.000    0.000    0.000    0.000 
#
# Total GULP energy -178659.278775 kJ/mol
# GULP energy per Si atom -5583.102462 kJ/mol
# Density = 2.519589 g / cm^3
# Si number density = 25.253366 Si / 1000 Ang^3
#
#
#
# Elastic Constant Matrix: (Units=GPa)
#
#
# Indices 1 2 3 4 5 6 
#
# 1 108.4684 18.0858 7.8374 0.0000 0.0000 0.0000
# 2 18.0858 130.3449 33.2634 0.0000 0.0000 0.0000
# 3 7.8374 33.2634 46.8316 0.0000 0.0000 0.0000
# 4 0.0000 0.0000 0.0000 35.8652 0.0000 0.0000
# 5 0.0000 0.0000 0.0000 0.0000 37.4614 0.0000
# 6 0.0000 0.0000 0.0000 0.0000 0.0000 20.7420
#
#
#
# Elastic Compliance Matrix: (Units=1/GPa)
#
#
# Indices 1 2 3 4 5 6 
#
# 1 0.009462 -0.001110 -0.000795 0.000000 0.000000 0.000000
# 2 -0.001110 0.009501 -0.006562 0.000000 0.000000 0.000000
# 3 -0.000795 -0.006562 0.026147 0.000000 0.000000 0.000000
# 4 0.000000 0.000000 0.000000 0.027882 0.000000 0.000000
# 5 0.000000 0.000000 0.000000 0.000000 0.026694 0.000000
# 6 0.000000 0.000000 0.000000 0.000000 0.000000 0.048211
#
#
# Mechanical properties :
#
#
# Convention : Reuss Voigt Hill
#
# Bulk Modulus (GPa) = 35.49255 44.89090 40.19172
# Shear Modulus (GPa) = 28.69871 33.91092 31.30482
#
# Velocity S-wave (km/s) = 3.37476 3.66844 3.52466
# Velocity P-wave (km/s) = 5.41021 5.97980 5.70212
#
# Compressibility (1/GPa) = 0.02817493
#
# Stress axis : x y z
#
# Youngs Moduli (GPa) = 105.68819 105.25610 38.24498
#
# Poissons Ratio (x) = 0.11683 0.03041
# Poissons Ratio (y) = 0.11731 0.25098
# Poissons Ratio (z) = 0.08403 0.69072
#
# Static dielectric constant tensor:
#      x y z
#    x 2.065970 0.000000 0.000000 
#    y 0.000000 1.962810 0.000000 
#    z 0.000000 0.000000 2.145720 
# 
# From -- ./inp_files/20267.got.cif
#   From: 2010.05.17/outbox.cif.g08.bks.cpg/sg20_11_cif.got.tgz:20267.got - 2010.06.03 22:52:26.
