data_PCOD9321351
_publ_section_title
;
Structure prediction by ZEFSAII (Michael W. Deem and Ramdas Pophale) SiO2 
 PCOD9321351
Probable space group: C 2 2 21
;
_chemical_formula_sum "Si O2"
_cell_formula_units_Z 48
_cell_length_a 13.333254
_cell_length_b 8.669014
_cell_length_c 16.779053
_cell_angle_alpha 90.000000
_cell_angle_beta 90.000000
_cell_angle_gamma 90.000000
_cell_volume 1939.426399
_symmetry_space_group_name_H-M "C 2 2 21"
_symmetry_group_IT_number 20
_symmetry_cell_setting 'orthorhombic'
loop_
_space_group_symop_operation_xyz
x,y,z
-x,-y,1/2+z
x,-y,-z
-x,y,1/2-z
1/2+x,1/2+y,z
1/2-x,1/2-y,1/2+z
1/2+x,1/2-y,-z
1/2-x,1/2+y,1/2-z
loop_
_atom_site_type_symbol
_atom_site_label
_atom_site_fract_x
_atom_site_fract_y
_atom_site_fract_z
Si Si1 0.420373 0.305758 0.423415
Si Si2 0.707057 0.182768 0.667035
Si Si3 0.806926 0.949348 0.180776
Si Si4 0.489862 0.993230 0.845575
Si Si5 0.338263 0.223401 0.595984
Si Si6 0.437116 0.463820 0.690911
O O1 0.314250 0.323142 0.377101
O O2 0.380811 0.282263 0.512076
O O3 0.476619 0.458808 0.390324
O O4 0.488484 0.165874 0.392175
O O5 0.725254 0.107603 0.753996
O O6 0.689634 0.367720 0.666168
O O7 0.614148 0.082171 0.634147
O O8 0.771025 0.855554 0.103326
O O9 0.904343 0.922243 0.236342
O O10 0.500000 0.968673 0.750000
O O11 0.580122 0.098894 0.877045
O O12 0.345107 0.364501 0.657423
O O13 0.500000 0.350310 0.750000
#
# Coordination Sequence:
#
# PCOD9321351 Si02
#       6
#     8   8   8   8   8   8
#     4  11  26  44  70 108 154 193 249 329 395 446
#     4  11  22  42  70 108 144 199 260 309 380 470
#     4  11  21  40  73 105 142 200 254 310 386 455
#     4  12  22  43  75 106 144 200 260 310 376 472
#     4  12  23  44  71 105 153 198 245 327 394 438
#     4  11  24  46  73 104 145 201 260 314 380 477
#
# _framework density 24.749583999999999
#
# number of rings (size 3 to 8) (size 9 to 14) (size 15 to 20)
#    0.000    0.667    5.000    3.000    0.000    1.333 
#    3.000    3.333    0.000    0.000    0.000    0.000 
#    0.000    0.000    0.000    0.000    0.000    0.000 
#
# Total GULP energy -133651.146150 kJ/mol
# GULP energy per Si atom -5568.797756 kJ/mol
# Density = 2.469325 g / cm^3
# Si number density = 24.749584 Si / 1000 Ang^3
#
#
#
# Elastic Constant Matrix: (Units=GPa)
#
#
# Indices 1 2 3 4 5 6 
#
# 1 65.8035 33.7382 20.2276 0.0000 0.0000 0.0000
# 2 33.7382 133.6675 32.8679 0.0000 0.0000 0.0000
# 3 20.2276 32.8679 111.1494 0.0000 0.0000 0.0000
# 4 0.0000 0.0000 0.0000 28.1807 0.0000 0.0000
# 5 0.0000 0.0000 0.0000 0.0000 35.7489 0.0000
# 6 0.0000 0.0000 0.0000 0.0000 0.0000 34.7107
#
#
#
# Elastic Compliance Matrix: (Units=1/GPa)
#
#
# Indices 1 2 3 4 5 6 
#
# 1 0.017887 -0.004006 -0.002071 0.000000 0.000000 0.000000
# 2 -0.004006 0.008965 -0.001922 0.000000 0.000000 0.000000
# 3 -0.002071 -0.001922 0.009942 0.000000 0.000000 0.000000
# 4 0.000000 0.000000 0.000000 0.035485 0.000000 0.000000
# 5 0.000000 0.000000 0.000000 0.000000 0.027973 0.000000
# 6 0.000000 0.000000 0.000000 0.000000 0.000000 0.028810
#
#
# Mechanical properties :
#
#
# Convention : Reuss Voigt Hill
#
# Bulk Modulus (GPa) = 48.08305 53.80977 50.94641
# Shear Modulus (GPa) = 32.89672 34.64715 33.77194
#
# Velocity S-wave (km/s) = 3.64975 3.74559 3.69798
# Velocity P-wave (km/s) = 6.10171 6.36356 6.23401
#
# Compressibility (1/GPa) = 0.02079735
#
# Stress axis : x y z
#
# Youngs Moduli (GPa) = 55.90661 111.54621 100.58235
#
# Poissons Ratio (x) = 0.44681 0.20827
# Poissons Ratio (y) = 0.22394 0.19332
# Poissons Ratio (z) = 0.11577 0.21440
#
# Static dielectric constant tensor:
#      x y z
#    x 2.425220 0.000000 0.000000 
#    y 0.000000 2.116780 0.000000 
#    z 0.000000 0.000000 2.023600 
# 
# From -- ./inp_files/24786.got.cif
#   From: 2010.05.17/outbox.cif.g08.bks.cpg/sg20_13_cif.got.tgz:24786.got - 2010.06.03 22:52:26.
