data_PCOD9321253
_publ_section_title
;
Structure prediction by ZEFSAII (Michael W. Deem and Ramdas Pophale) SiO2 
 PCOD9321253
Probable space group: C 2 2 21
;
_chemical_formula_sum "Si O2"
_cell_formula_units_Z 40
_cell_length_a 13.472956
_cell_length_b 17.020703
_cell_length_c 8.864102
_cell_angle_alpha 90.000000
_cell_angle_beta 90.000000
_cell_angle_gamma 90.000000
_cell_volume 2032.708625
_symmetry_space_group_name_H-M "C 2 2 21"
_symmetry_group_IT_number 20
_symmetry_cell_setting 'orthorhombic'
loop_
_space_group_symop_operation_xyz
x,y,z
-x,-y,1/2+z
x,-y,-z
-x,y,1/2-z
1/2+x,1/2+y,z
1/2-x,1/2-y,1/2+z
1/2+x,1/2-y,-z
1/2-x,1/2+y,1/2-z
loop_
_atom_site_type_symbol
_atom_site_label
_atom_site_fract_x
_atom_site_fract_y
_atom_site_fract_z
Si Si1 0.387347 0.373659 0.288434
Si Si2 0.402507 0.500000 0.500000
Si Si3 0.772856 0.323790 0.416338
Si Si4 0.000000 0.109648 0.250000
Si Si5 0.052358 0.699107 0.098973
Si Si6 0.622794 0.247552 0.623427
O O1 0.500000 0.397565 0.250000
O O2 0.343706 0.435654 0.404963
O O3 0.316739 0.376297 0.144415
O O4 0.403403 0.285491 0.353877
O O5 0.464335 0.554984 0.386255
O O6 0.855737 0.350289 0.535037
O O7 0.710020 0.256283 0.501012
O O8 0.832905 0.296904 0.267813
O O9 0.085069 0.168399 0.312482
O O10 0.000000 0.668684 0.250000
O O11 0.971020 0.712089 0.967243
#
# Coordination Sequence:
#
# PCOD9321253 Si02
#       6
#     8   4   8   4   8   8
#     4  11  20  35  54  83 122 162 195 234 292 354
#     4  12  22  38  54  80 122 168 192 236 278 370
#     4  12  21  34  58  82 121 162 194 247 294 361
#     4  12  24  36  58  80 122 166 194 232 302 354
#     4  11  20  37  54  84 126 154 195 244 301 360
#     4  12  21  36  55  86 122 155 197 239 305 355
#
# _framework density 19.678177999999999
#
# number of rings (size 3 to 8) (size 9 to 14) (size 15 to 20)
#    0.000    0.400   11.000    0.000    0.000    0.000 
#    0.000    0.000    0.000    0.000    0.000    0.000 
#   24.000    0.000    0.000    0.000    0.000    0.000 
#
# Total GULP energy -111461.385267 kJ/mol
# GULP energy per Si atom -5573.069263 kJ/mol
# Density = 1.963339 g / cm^3
# Si number density = 19.678178 Si / 1000 Ang^3
#
#
#
# Elastic Constant Matrix: (Units=GPa)
#
#
# Indices 1 2 3 4 5 6 
#
# 1 123.7001 4.8380 49.7541 0.0000 0.0000 0.0000
# 2 4.8380 17.5414 15.4703 0.0000 0.0000 0.0000
# 3 49.7541 15.4703 107.6382 0.0000 0.0000 0.0000
# 4 0.0000 0.0000 0.0000 19.9900 0.0000 0.0000
# 5 0.0000 0.0000 0.0000 0.0000 57.8755 0.0000
# 6 0.0000 0.0000 0.0000 0.0000 0.0000 -2.0949
#
#
#
# Elastic Compliance Matrix: (Units=1/GPa)
#
#
# Indices 1 2 3 4 5 6 
#
# 1 0.009965 0.001505 -0.004822 0.000000 0.000000 0.000000
# 2 0.001505 0.065510 -0.010111 0.000000 0.000000 0.000000
# 3 -0.004822 -0.010111 0.012973 0.000000 0.000000 0.000000
# 4 0.000000 0.000000 0.000000 0.050025 0.000000 0.000000
# 5 0.000000 0.000000 0.000000 0.000000 0.017278 0.000000
# 6 0.000000 0.000000 0.000000 0.000000 0.000000 -0.477351
#
#
# Mechanical properties :
#
#
# Convention : Reuss Voigt Hill
#
# Bulk Modulus (GPa) = 16.23627 43.22271 29.72949
# Shear Modulus (GPa) = -18.23405 27.07526 4.42060
#
# Velocity S-wave (km/s) = -3.04733 3.71334 1.50044
# Velocity P-wave (km/s) = 2.02802 6.35592 4.25939
#
# Compressibility (1/GPa) = 0.06159050
#
# Stress axis : x y z
#
# Youngs Moduli (GPa) = 100.35273 15.26475 77.08523
#
# Poissons Ratio (x) = -0.02297 0.37173
# Poissons Ratio (y) = -0.15100 0.77941
# Poissons Ratio (z) = 0.48394 0.15434
#
# Static dielectric constant tensor:
#      x y z
#    x 1.741200 0.000000 0.000000 
#    y 0.000000 1.668100 0.000000 
#    z 0.000000 0.000000 1.587480 
# 
# From -- ./inp_files/7242.got.cif
#   From: 2010.05.17/outbox.cif.g08.bks.cpg/sg20_4_cif.got.tgz:7242.got - 2010.06.03 22:52:26.
