data_PCOD9321286
_publ_section_title
;
Structure prediction by ZEFSAII (Michael W. Deem and Ramdas Pophale) SiO2 
 PCOD9321286
Probable space group: C 2 2 21
;
_chemical_formula_sum "Si O2"
_cell_formula_units_Z 40
_cell_length_a 18.292810
_cell_length_b 9.098953
_cell_length_c 10.480249
_cell_angle_alpha 90.000000
_cell_angle_beta 90.000000
_cell_angle_gamma 90.000000
_cell_volume 1744.389430
_symmetry_space_group_name_H-M "C 2 2 21"
_symmetry_group_IT_number 20
_symmetry_cell_setting 'orthorhombic'
loop_
_space_group_symop_operation_xyz
x,y,z
-x,-y,1/2+z
x,-y,-z
-x,y,1/2-z
1/2+x,1/2+y,z
1/2-x,1/2-y,1/2+z
1/2+x,1/2-y,-z
1/2-x,1/2+y,1/2-z
loop_
_atom_site_type_symbol
_atom_site_label
_atom_site_fract_x
_atom_site_fract_y
_atom_site_fract_z
Si Si1 0.699553 0.077932 0.134666
Si Si2 0.828948 0.705433 0.786429
Si Si3 0.557261 0.621736 0.131727
Si Si4 0.913992 0.173009 0.985246
Si Si5 0.916897 0.794929 0.297338
O O1 0.760996 0.192868 0.177046
O O2 0.623551 0.167736 0.127052
O O3 0.693876 0.954654 0.243266
O O4 0.715945 0.000000 0.000000
O O5 0.877856 0.770923 0.670657
O O6 0.879526 0.719674 0.911348
O O7 0.500000 0.616669 0.250000
O O8 0.501898 0.671681 0.018353
O O9 0.590900 0.456690 0.139652
O O10 0.883143 0.205717 0.845736
O O11 0.896056 0.000000 0.000000
O O12 0.000000 0.769155 0.250000
#
# Coordination Sequence:
#
# PCOD9321286 Si02
#       5
#     8   8   8   8   8
#     4  12  30  49  70 102 143 188 242 306 359 435
#     4  11  25  46  71  99 141 186 236 291 366 422
#     4   9  19  38  73 105 132 184 228 281 350 424
#     4  11  20  41  77 105 141 185 231 290 346 439
#     4  11  23  44  70 109 143 183 237 289 358 420
#
# _framework density 22.930661000000001
#
# number of rings (size 3 to 8) (size 9 to 14) (size 15 to 20)
#    0.000    1.200    6.000    1.800    5.600    3.200 
#    0.000    2.000    0.000    0.000    0.000    0.000 
#    0.000    0.000    0.000    0.000    0.000    0.000 
#
# Total GULP energy -111667.519239 kJ/mol
# GULP energy per Si atom -5583.375962 kJ/mol
# Density = 2.287847 g / cm^3
# Si number density = 22.930661 Si / 1000 Ang^3
#
#
#
# Elastic Constant Matrix: (Units=GPa)
#
#
# Indices 1 2 3 4 5 6 
#
# 1 79.4400 40.7487 9.3196 0.0000 0.0000 0.0000
# 2 40.7487 76.5119 7.2159 0.0000 0.0000 0.0000
# 3 9.3196 7.2159 86.0969 0.0000 0.0000 0.0000
# 4 0.0000 0.0000 0.0000 39.1226 0.0000 0.0000
# 5 0.0000 0.0000 0.0000 0.0000 23.3210 0.0000
# 6 0.0000 0.0000 0.0000 0.0000 0.0000 33.3640
#
#
#
# Elastic Compliance Matrix: (Units=1/GPa)
#
#
# Indices 1 2 3 4 5 6 
#
# 1 0.017426 -0.009175 -0.001117 0.000000 0.000000 0.000000
# 2 -0.009175 0.018005 -0.000516 0.000000 0.000000 0.000000
# 3 -0.001117 -0.000516 0.011779 0.000000 0.000000 0.000000
# 4 0.000000 0.000000 0.000000 0.025561 0.000000 0.000000
# 5 0.000000 0.000000 0.000000 0.000000 0.042880 0.000000
# 6 0.000000 0.000000 0.000000 0.000000 0.000000 0.029972
#
#
# Mechanical properties :
#
#
# Convention : Reuss Voigt Hill
#
# Bulk Modulus (GPa) = 39.07309 39.62413 39.34861
# Shear Modulus (GPa) = 28.44624 31.47916 29.96270
#
# Velocity S-wave (km/s) = 3.52594 3.70915 3.61870
# Velocity P-wave (km/s) = 5.80112 5.97170 5.88703
#
# Compressibility (1/GPa) = 0.02559306
#
# Stress axis : x y z
#
# Youngs Moduli (GPa) = 57.38684 55.54005 84.89693
#
# Poissons Ratio (x) = 0.50959 0.09485
# Poissons Ratio (y) = 0.52653 0.04379
# Poissons Ratio (z) = 0.06412 0.02865
#
# Static dielectric constant tensor:
#      x y z
#    x 1.938740 0.000000 0.000000 
#    y 0.000000 1.797760 0.000000 
#    z 0.000000 0.000000 2.001590 
# 
# From -- ./inp_files/15539.got.cif
#   From: 2010.05.17/outbox.cif.g08.bks.cpg/sg20_8_cif.got.tgz:15539.got - 2010.06.03 22:52:26.
