data_PCOD9321870
_publ_section_title
;
Structure prediction by ZEFSAII (Michael W. Deem and Ramdas Pophale) SiO2 
 PCOD9321870
Probable space group: C 2 2 21
;
_chemical_formula_sum "Si O2"
_cell_formula_units_Z 32
_cell_length_a 8.356469
_cell_length_b 20.516927
_cell_length_c 7.539427
_cell_angle_alpha 90.000000
_cell_angle_beta 90.000000
_cell_angle_gamma 90.000000
_cell_volume 1292.627706
_symmetry_space_group_name_H-M "C 2 2 21"
_symmetry_group_IT_number 20
_symmetry_cell_setting 'orthorhombic'
loop_
_space_group_symop_operation_xyz
x,y,z
-x,-y,1/2+z
x,-y,-z
-x,y,1/2-z
1/2+x,1/2+y,z
1/2-x,1/2-y,1/2+z
1/2+x,1/2-y,-z
1/2-x,1/2+y,1/2-z
loop_
_atom_site_type_symbol
_atom_site_label
_atom_site_fract_x
_atom_site_fract_y
_atom_site_fract_z
Si Si1 0.103681 0.500000 0.500000
Si Si2 0.000000 0.393659 0.750000
Si Si3 0.182102 0.813236 0.232327
Si Si4 0.675728 0.321078 0.817697
Si Si5 0.677925 0.455800 0.326856
O O1 0.008728 0.561545 0.425677
O O2 0.206060 0.520731 0.670350
O O3 0.833954 0.354582 0.739522
O O4 0.302991 0.755944 0.280511
O O5 0.200745 0.878102 0.348656
O O6 0.000000 0.788001 0.250000
O O7 0.192531 0.832800 0.027132
O O8 0.500000 0.342697 0.750000
O O9 0.690464 0.500000 0.500000
O O10 0.500000 0.463620 0.250000
#
# Coordination Sequence:
#
# PCOD9321870 Si02
#       5
#     4   4   8   8   8
#     4  12  28  54  80 118 180 230 276 364 422 506
#     4  12  30  56  78 130 172 220 300 348 430 522
#     4  11  25  52  81 129 170 223 285 354 433 506
#     4  12  27  53  89 123 171 227 281 361 432 511
#     4  11  25  50  84 129 175 225 290 350 427 519
#
# _framework density 24.755772
#
# number of rings (size 3 to 8) (size 9 to 14) (size 15 to 20)
#    0.000    0.500    5.000    1.500    1.750    7.000 
#    2.250    1.250    0.000    0.000    0.000    0.000 
#    0.000    0.000    0.000    0.000    0.000    0.000 
#
# Total GULP energy -89739.787601 kJ/mol
# GULP energy per Si atom -5608.736725 kJ/mol
# Density = 2.469943 g / cm^3
# Si number density = 24.755772 Si / 1000 Ang^3
#
#
#
# Elastic Constant Matrix: (Units=GPa)
#
#
# Indices 1 2 3 4 5 6 
#
# 1 187.3907 89.4865 62.6675 0.0000 0.0000 0.0000
# 2 89.4865 147.5251 70.9954 0.0000 0.0000 0.0000
# 3 62.6675 70.9954 164.3129 0.0000 0.0000 0.0000
# 4 0.0000 0.0000 0.0000 20.4045 0.0000 0.0000
# 5 0.0000 0.0000 0.0000 0.0000 42.3587 0.0000
# 6 0.0000 0.0000 0.0000 0.0000 0.0000 34.2360
#
#
#
# Elastic Compliance Matrix: (Units=1/GPa)
#
#
# Indices 1 2 3 4 5 6 
#
# 1 0.007683 -0.004104 -0.001157 0.000000 0.000000 0.000000
# 2 -0.004104 0.010750 -0.003080 0.000000 0.000000 0.000000
# 3 -0.001157 -0.003080 0.007858 0.000000 0.000000 0.000000
# 4 0.000000 0.000000 0.000000 0.049009 0.000000 0.000000
# 5 0.000000 0.000000 0.000000 0.000000 0.023608 0.000000
# 6 0.000000 0.000000 0.000000 0.000000 0.000000 0.029209
#
#
# Mechanical properties :
#
#
# Convention : Reuss Voigt Hill
#
# Bulk Modulus (GPa) = 104.05890 105.05863 104.55876
# Shear Modulus (GPa) = 33.78370 37.80513 35.79442
#
# Velocity S-wave (km/s) = 3.69816 3.91208 3.80663
# Velocity P-wave (km/s) = 7.76921 7.93322 7.85165
#
# Compressibility (1/GPa) = 0.00960994
#
# Stress axis : x y z
#
# Youngs Moduli (GPa) = 130.15700 93.02608 127.26003
#
# Poissons Ratio (x) = 0.38173 0.14727
# Poissons Ratio (y) = 0.53410 0.39191
# Poissons Ratio (z) = 0.15062 0.28648
#
# Static dielectric constant tensor:
#      x y z
#    x 1.975250 0.000000 0.000000 
#    y 0.000000 1.995440 0.000000 
#    z 0.000000 0.000000 1.942280 
# 
# From -- ./inp_files/5855.got.cif
#   From: 2010.05.17/outbox.cif.g08.bks.cpg/sg20_3_cif.got.tgz:5855.got - 2010.06.03 22:52:26.
