data_PCOD9321562
_publ_section_title
;
Structure prediction by ZEFSAII (Michael W. Deem and Ramdas Pophale) SiO2 
 PCOD9321562
Probable space group: C 2 2 21
;
_chemical_formula_sum "Si O2"
_cell_formula_units_Z 48
_cell_length_a 22.136878
_cell_length_b 8.849988
_cell_length_c 10.467289
_cell_angle_alpha 90.000000
_cell_angle_beta 90.000000
_cell_angle_gamma 90.000000
_cell_volume 2050.658151
_symmetry_space_group_name_H-M "C 2 2 21"
_symmetry_group_IT_number 20
_symmetry_cell_setting 'orthorhombic'
loop_
_space_group_symop_operation_xyz
x,y,z
-x,-y,1/2+z
x,-y,-z
-x,y,1/2-z
1/2+x,1/2+y,z
1/2-x,1/2-y,1/2+z
1/2+x,1/2-y,-z
1/2-x,1/2+y,1/2-z
loop_
_atom_site_type_symbol
_atom_site_label
_atom_site_fract_x
_atom_site_fract_y
_atom_site_fract_z
Si Si1 0.669673 0.965590 0.700711
Si Si2 0.564679 0.134286 0.759646
Si Si3 0.083845 0.267899 0.536958
Si Si4 0.000000 0.843689 0.250000
Si Si5 0.899630 0.930623 0.637396
Si Si6 0.829576 0.000000 0.000000
Si Si7 0.717367 0.299992 0.712901
O O1 0.625946 0.898050 0.593997
O O2 0.717631 0.836210 0.730029
O O3 0.618236 0.022093 0.799550
O O4 0.705940 0.123607 0.683289
O O5 0.500000 0.059180 0.750000
O O6 0.562799 0.274411 0.856347
O O7 0.576308 0.204760 0.615816
O O8 0.025009 0.246402 0.625747
O O9 0.123875 0.118752 0.558895
O O10 0.943793 0.948779 0.294624
O O11 0.886181 0.000000 0.500000
O O12 0.837016 0.874065 0.703125
O O13 0.787126 0.898591 0.913718
#
# Coordination Sequence:
#
# PCOD9321562 Si02
#       7
#     8   8   8   4   8   4   8
#     4  11  26  48  72 104 146 196 251 316 381 450
#     4  11  23  44  72 106 153 198 251 307 378 453
#     4  12  24  45  73 111 148 202 250 311 384 458
#     4  12  24  38  70 108 146 194 246 304 374 456
#     4  11  23  40  69 105 145 196 244 310 367 448
#     4  12  22  46  76 110 146 194 256 310 384 462
#     4  11  25  48  72 108 144 193 260 313 386 458
#
# _framework density 23.407118000000001
#
# number of rings (size 3 to 8) (size 9 to 14) (size 15 to 20)
#    0.000    0.667    5.833    2.500    2.333    1.333 
#    6.000    1.667    0.000    0.000    0.000    0.000 
#    0.000    0.000    0.000    0.000    0.000    0.000 
#
# Total GULP energy -133905.035866 kJ/mol
# GULP energy per Si atom -5579.376494 kJ/mol
# Density = 2.335384 g / cm^3
# Si number density = 23.407118 Si / 1000 Ang^3
#
#
#
# Elastic Constant Matrix: (Units=GPa)
#
#
# Indices 1 2 3 4 5 6 
#
# 1 105.7850 20.6503 0.1012 0.0000 0.0000 0.0000
# 2 20.6503 120.9478 18.2063 0.0000 0.0000 0.0000
# 3 0.1012 18.2063 50.5863 0.0000 0.0000 0.0000
# 4 0.0000 0.0000 0.0000 21.2581 0.0000 0.0000
# 5 0.0000 0.0000 0.0000 0.0000 11.5145 0.0000
# 6 0.0000 0.0000 0.0000 0.0000 0.0000 12.7406
#
#
#
# Elastic Compliance Matrix: (Units=1/GPa)
#
#
# Indices 1 2 3 4 5 6 
#
# 1 0.009797 -0.001765 0.000616 0.000000 0.000000 0.000000
# 2 -0.001765 0.009060 -0.003257 0.000000 0.000000 0.000000
# 3 0.000616 -0.003257 0.020939 0.000000 0.000000 0.000000
# 4 0.000000 0.000000 0.000000 0.047041 0.000000 0.000000
# 5 0.000000 0.000000 0.000000 0.000000 0.086847 0.000000
# 6 0.000000 0.000000 0.000000 0.000000 0.000000 0.078489
#
#
# Mechanical properties :
#
#
# Convention : Reuss Voigt Hill
#
# Bulk Modulus (GPa) = 32.27618 39.47052 35.87335
# Shear Modulus (GPa) = 18.42882 24.99339 21.71110
#
# Velocity S-wave (km/s) = 2.80896 3.27122 3.04886
# Velocity P-wave (km/s) = 4.93349 5.58275 5.26813
#
# Compressibility (1/GPa) = 0.03098260
#
# Stress axis : x y z
#
# Youngs Moduli (GPa) = 102.07017 110.37825 47.75727
#
# Poissons Ratio (x) = 0.19487 -0.02941
# Poissons Ratio (y) = 0.18020 0.15555
# Poissons Ratio (z) = -0.06285 0.35952
#
# Static dielectric constant tensor:
#      x y z
#    x 1.931110 0.000000 0.000000 
#    y 0.000000 1.981500 0.000000 
#    z 0.000000 0.000000 2.017360 
# 
# From -- ./inp_files/16693.got.cif
#   From: 2010.05.17/outbox.cif.g08.bks.cpg/sg20_9_cif.got.tgz:16693.got - 2010.06.03 22:52:26.
