data_PCOD9321412
_publ_section_title
;
Structure prediction by ZEFSAII (Michael W. Deem and Ramdas Pophale) SiO2 
 PCOD9321412
Probable space group: C 2 2 21
;
_chemical_formula_sum "Si O2"
_cell_formula_units_Z 64
_cell_length_a 29.631326
_cell_length_b 10.448330
_cell_length_c 9.859902
_cell_angle_alpha 90.000000
_cell_angle_beta 90.000000
_cell_angle_gamma 90.000000
_cell_volume 3052.604681
_symmetry_space_group_name_H-M "C 2 2 21"
_symmetry_group_IT_number 20
_symmetry_cell_setting 'orthorhombic'
loop_
_space_group_symop_operation_xyz
x,y,z
-x,-y,1/2+z
x,-y,-z
-x,y,1/2-z
1/2+x,1/2+y,z
1/2-x,1/2-y,1/2+z
1/2+x,1/2-y,-z
1/2-x,1/2+y,1/2-z
loop_
_atom_site_type_symbol
_atom_site_label
_atom_site_fract_x
_atom_site_fract_y
_atom_site_fract_z
Si Si1 0.118422 0.356692 0.462994
Si Si2 0.123731 0.783018 0.807487
Si Si3 0.177472 0.004333 0.658470
Si Si4 0.726125 0.852349 0.517534
Si Si5 0.601926 0.303854 0.284928
Si Si6 0.636240 0.124800 0.066528
Si Si7 0.041850 0.026641 0.156504
Si Si8 0.765635 0.631674 0.327205
O O1 0.103764 0.500000 0.500000
O O2 0.111866 0.321347 0.306521
O O3 0.172455 0.350193 0.489339
O O4 0.096197 0.252757 0.564337
O O5 0.158102 0.880837 0.735826
O O6 0.079651 0.863772 0.844947
O O7 0.143528 0.723859 0.943870
O O8 0.231087 0.987772 0.664199
O O9 0.164453 0.000000 0.500000
O O10 0.150780 0.124225 0.719294
O O11 0.748909 0.746732 0.422829
O O12 0.734139 0.820356 0.673601
O O13 0.741831 0.000000 0.500000
O O14 0.605832 0.187601 0.181153
O O15 0.565498 0.404711 0.230583
O O16 0.684272 0.090163 0.132233
O O17 0.615191 0.000000 0.000000
O O18 0.000000 0.063884 0.250000
O O19 0.029275 0.000000 0.000000
#
# Coordination Sequence:
#
# PCOD9321412 Si02
#       8
#     8   8   8   8   8   8   8   8
#     4  11  22  42  65  91 128 179 234 269 332 412
#     4  11  23  44  68 100 134 176 227 279 354 419
#     4  11  22  38  64  90 128 175 235 293 344 402
#     4  11  26  41  59  86 129 174 237 296 336 404
#     4  11  23  45  68  99 135 179 225 286 348 411
#     4  12  26  42  66  92 139 191 229 283 336 408
#     4  11  26  46  78 113 140 166 218 286 357 434
#     4  12  25  41  59  92 131 183 243 289 347 391
#
# _framework density 20.965702
#
# number of rings (size 3 to 8) (size 9 to 14) (size 15 to 20)
#    0.000    0.750    5.000    1.875    5.250    0.000 
#    0.000    0.000    0.000    4.500    0.000    0.000 
#    0.000    0.000    0.000    0.000    0.000    0.000 
#
# Total GULP energy -179084.864180 kJ/mol
# GULP energy per Si atom -5596.402006 kJ/mol
# Density = 2.091798 g / cm^3
# Si number density = 20.965702 Si / 1000 Ang^3
#
#
#
# Elastic Constant Matrix: (Units=GPa)
#
#
# Indices 1 2 3 4 5 6 
#
# 1 35.4368 0.5306 7.7949 0.0000 0.0000 0.0000
# 2 0.5306 44.0506 -12.9789 0.0000 0.0000 0.0000
# 3 7.7949 -12.9789 111.1431 0.0000 0.0000 0.0000
# 4 0.0000 0.0000 0.0000 42.1732 0.0000 0.0000
# 5 0.0000 0.0000 0.0000 0.0000 26.6552 0.0000
# 6 0.0000 0.0000 0.0000 0.0000 0.0000 10.3774
#
#
#
# Elastic Compliance Matrix: (Units=1/GPa)
#
#
# Indices 1 2 3 4 5 6 
#
# 1 0.028702 -0.000972 -0.002126 0.000000 0.000000 0.000000
# 2 -0.000972 0.023543 0.002817 0.000000 0.000000 0.000000
# 3 -0.002126 0.002817 0.009476 0.000000 0.000000 0.000000
# 4 0.000000 0.000000 0.000000 0.023712 0.000000 0.000000
# 5 0.000000 0.000000 0.000000 0.000000 0.037516 0.000000
# 6 0.000000 0.000000 0.000000 0.000000 0.000000 0.096363
#
#
# Mechanical properties :
#
#
# Convention : Reuss Voigt Hill
#
# Bulk Modulus (GPa) = 16.35118 20.14705 18.24911
# Shear Modulus (GPa) = 20.81081 28.86009 24.83545
#
# Velocity S-wave (km/s) = 3.15399 3.71420 3.44550
# Velocity P-wave (km/s) = 4.59124 5.29378 4.95498
#
# Compressibility (1/GPa) = 0.06115767
#
# Stress axis : x y z
#
# Youngs Moduli (GPa) = 34.84130 42.47543 105.53462
#
# Poissons Ratio (x) = 0.04130 0.22442
# Poissons Ratio (y) = 0.03387 -0.29734
# Poissons Ratio (z) = 0.07409 -0.11967
#
# Static dielectric constant tensor:
#      x y z
#    x 1.717940 0.000000 0.000000 
#    y 0.000000 1.794330 0.000000 
#    z 0.000000 0.000000 1.755700 
# 
# From -- ./inp_files/11623.got.cif
#   From: 2010.05.17/outbox.cif.g08.bks.cpg/sg20_6_cif.got.tgz:11623.got - 2010.06.03 22:52:26.
