data_PCOD9321400
_publ_section_title
;
Structure prediction by ZEFSAII (Michael W. Deem and Ramdas Pophale) SiO2 
 PCOD9321400
Probable space group: C 2 2 21
;
_chemical_formula_sum "Si O2"
_cell_formula_units_Z 40
_cell_length_a 17.649181
_cell_length_b 13.131617
_cell_length_c 8.082830
_cell_angle_alpha 90.000000
_cell_angle_beta 90.000000
_cell_angle_gamma 90.000000
_cell_volume 1873.295152
_symmetry_space_group_name_H-M "C 2 2 21"
_symmetry_group_IT_number 20
_symmetry_cell_setting 'orthorhombic'
loop_
_space_group_symop_operation_xyz
x,y,z
-x,-y,1/2+z
x,-y,-z
-x,y,1/2-z
1/2+x,1/2+y,z
1/2-x,1/2-y,1/2+z
1/2+x,1/2-y,-z
1/2-x,1/2+y,1/2-z
loop_
_atom_site_type_symbol
_atom_site_label
_atom_site_fract_x
_atom_site_fract_y
_atom_site_fract_z
Si Si1 0.115932 0.696859 0.153702
Si Si2 0.752231 0.536404 0.327266
Si Si3 0.966244 0.622753 0.010641
Si Si4 0.333404 0.159432 0.798754
Si Si5 0.302374 0.341164 0.547144
O O1 0.194179 0.634164 0.145679
O O2 0.076958 0.671099 0.329487
O O3 0.053291 0.653784 0.027215
O O4 0.138017 0.812011 0.098921
O O5 0.715343 0.500000 0.500000
O O6 0.810688 0.448139 0.278636
O O7 0.698658 0.561458 0.170230
O O8 0.960139 0.500000 0.000000
O O9 0.919402 0.663660 0.856414
O O10 0.313376 0.248556 0.674400
O O11 0.279201 0.163690 0.959834
#
# Coordination Sequence:
#
# PCOD9321400 Si02
#       5
#     8   8   8   8   8
#     4  11  23  38  57  92 134 162 200 248 309 384
#     4  12  22  40  60  91 129 166 204 257 309 370
#     4  11  22  37  61  92 129 170 198 248 323 388
#     4  12  21  39  62  91 128 164 209 252 312 366
#     4  12  23  38  59  91 133 161 213 252 302 378
#
# _framework density 21.352747000000001
#
# number of rings (size 3 to 8) (size 9 to 14) (size 15 to 20)
#    0.000    0.400    8.000    1.200    0.000    0.800 
#    0.000    0.000    0.000    0.000    0.000   44.800 
#    0.000    0.000    0.000    0.000    0.000    0.000 
#
# Total GULP energy -111641.632660 kJ/mol
# GULP energy per Si atom -5582.081633 kJ/mol
# Density = 2.130415 g / cm^3
# Si number density = 21.352747 Si / 1000 Ang^3
#
#
#
# Elastic Constant Matrix: (Units=GPa)
#
#
# Indices 1 2 3 4 5 6 
#
# 1 63.7513 15.6529 29.1525 0.0000 0.0000 0.0000
# 2 15.6529 33.1315 15.4221 0.0000 0.0000 0.0000
# 3 29.1525 15.4221 107.5513 0.0000 0.0000 0.0000
# 4 0.0000 0.0000 0.0000 50.7174 0.0000 0.0000
# 5 0.0000 0.0000 0.0000 0.0000 32.3053 0.0000
# 6 0.0000 0.0000 0.0000 0.0000 0.0000 25.9433
#
#
#
# Elastic Compliance Matrix: (Units=1/GPa)
#
#
# Indices 1 2 3 4 5 6 
#
# 1 0.019383 -0.007192 -0.004223 0.000000 0.000000 0.000000
# 2 -0.007192 0.035010 -0.003071 0.000000 0.000000 0.000000
# 3 -0.004223 -0.003071 0.010883 0.000000 0.000000 0.000000
# 4 0.000000 0.000000 0.000000 0.019717 0.000000 0.000000
# 5 0.000000 0.000000 0.000000 0.000000 0.030955 0.000000
# 6 0.000000 0.000000 0.000000 0.000000 0.000000 0.038546
#
#
# Mechanical properties :
#
#
# Convention : Reuss Voigt Hill
#
# Bulk Modulus (GPa) = 27.54435 36.09878 31.82157
# Shear Modulus (GPa) = 25.56701 31.40697 28.48699
#
# Velocity S-wave (km/s) = 3.46405 3.83934 3.65651
# Velocity P-wave (km/s) = 5.37840 6.04952 5.72381
#
# Compressibility (1/GPa) = 0.03630508
#
# Stress axis : x y z
#
# Youngs Moduli (GPa) = 51.59256 28.56341 91.88835
#
# Poissons Ratio (x) = 0.20542 0.38800
# Poissons Ratio (y) = 0.37104 0.28217
# Poissons Ratio (z) = 0.21785 0.08771
#
# Static dielectric constant tensor:
#      x y z
#    x 1.733910 0.000000 0.000000 
#    y 0.000000 1.803070 0.000000 
#    z 0.000000 0.000000 1.947290 
# 
# From -- ./inp_files/9114.got.cif
#   From: 2010.05.17/outbox.cif.g08.bks.cpg/sg20_5_cif.got.tgz:9114.got - 2010.06.03 22:52:26.
