data_PCOD9321814
_publ_section_title
;
Structure prediction by ZEFSAII (Michael W. Deem and Ramdas Pophale) SiO2 
 PCOD9321814
Probable space group: C 2 2 21
;
_chemical_formula_sum "Si O2"
_cell_formula_units_Z 40
_cell_length_a 19.006983
_cell_length_b 11.882863
_cell_length_c 7.877679
_cell_angle_alpha 90.000000
_cell_angle_beta 90.000000
_cell_angle_gamma 90.000000
_cell_volume 1779.231900
_symmetry_space_group_name_H-M "C 2 2 21"
_symmetry_group_IT_number 20
_symmetry_cell_setting 'orthorhombic'
loop_
_space_group_symop_operation_xyz
x,y,z
-x,-y,1/2+z
x,-y,-z
-x,y,1/2-z
1/2+x,1/2+y,z
1/2-x,1/2-y,1/2+z
1/2+x,1/2-y,-z
1/2-x,1/2+y,1/2-z
loop_
_atom_site_type_symbol
_atom_site_label
_atom_site_fract_x
_atom_site_fract_y
_atom_site_fract_z
Si Si1 0.339121 0.517903 0.697944
Si Si2 0.925712 0.817275 0.788200
Si Si3 0.173018 0.468303 0.692077
Si Si4 0.581618 0.255619 0.321870
Si Si5 0.563291 0.102618 0.881857
O O1 0.357820 0.500000 0.500000
O O2 0.369183 0.413128 0.800247
O O3 0.255347 0.496323 0.709746
O O4 0.376945 0.631941 0.762030
O O5 0.917499 0.735792 0.622705
O O6 0.000000 0.875179 0.750000
O O7 0.925343 0.756890 0.972222
O O8 0.154233 0.500000 0.500000
O O9 0.133550 0.348764 0.726522
O O10 0.135452 0.553503 0.815341
O O11 0.500000 0.244930 0.250000
O O12 0.500000 0.106935 0.750000
O O13 0.538073 0.000000 0.000000
#
# Coordination Sequence:
#
# PCOD9321814 Si02
#       5
#     8   8   8   8   8
#     4  11  27  46  71 105 148 193 246 301 365 436
#     4  11  25  46  71 105 141 190 249 300 364 439
#     4  11  25  46  71 106 146 186 240 300 364 438
#     4  12  26  46  79 105 146 197 244 304 365 436
#     4  11  25  41  70 103 143 183 237 298 364 434
#
# _framework density 22.481611999999998
#
# number of rings (size 3 to 8) (size 9 to 14) (size 15 to 20)
#    0.000    0.800    2.000    3.600   14.000    1.600 
#    0.000    0.000    0.000    0.000    0.000    0.000 
#    0.000    0.000    0.000    0.000    0.000    0.000 
#
# Total GULP energy -111344.157311 kJ/mol
# GULP energy per Si atom -5567.207866 kJ/mol
# Density = 2.243044 g / cm^3
# Si number density = 22.481612 Si / 1000 Ang^3
#
#
#
# Elastic Constant Matrix: (Units=GPa)
#
#
# Indices 1 2 3 4 5 6 
#
# 1 96.5394 67.8715 35.1474 0.0000 0.0000 0.0000
# 2 67.8715 150.7620 26.1737 0.0000 0.0000 0.0000
# 3 35.1474 26.1737 40.5373 0.0000 0.0000 0.0000
# 4 0.0000 0.0000 0.0000 39.3745 0.0000 0.0000
# 5 0.0000 0.0000 0.0000 0.0000 173.0158 0.0000
# 6 0.0000 0.0000 0.0000 0.0000 0.0000 47.9206
#
#
#
# Elastic Compliance Matrix: (Units=1/GPa)
#
#
# Indices 1 2 3 4 5 6 
#
# 1 0.019678 -0.006641 -0.012774 0.000000 0.000000 0.000000
# 2 -0.006641 0.009712 -0.000512 0.000000 0.000000 0.000000
# 3 -0.012774 -0.000512 0.036075 0.000000 0.000000 0.000000
# 4 0.000000 0.000000 0.000000 0.025397 0.000000 0.000000
# 5 0.000000 0.000000 0.000000 0.000000 0.005780 0.000000
# 6 0.000000 0.000000 0.000000 0.000000 0.000000 0.020868
#
#
# Mechanical properties :
#
#
# Convention : Reuss Voigt Hill
#
# Bulk Modulus (GPa) = 39.04717 60.69154 49.86935
# Shear Modulus (GPa) = 30.13857 62.63858 46.38857
#
# Velocity S-wave (km/s) = 3.66538 5.28419 4.54740
# Velocity P-wave (km/s) = 5.94302 8.01778 7.05707
#
# Compressibility (1/GPa) = 0.02561005
#
# Stress axis : x y z
#
# Youngs Moduli (GPa) = 50.81793 102.96810 27.72033
#
# Poissons Ratio (x) = 0.68384 0.35409
# Poissons Ratio (y) = 0.33750 0.01420
# Poissons Ratio (z) = 0.64913 0.05275
#
# Static dielectric constant tensor:
#      x y z
#    x 1.839060 0.000000 0.000000 
#    y 0.000000 -2.618530 0.000000 
#    z 0.000000 0.000000 1.959020 
# 
# From -- ./inp_files/9111.got.cif
#   From: 2010.05.17/outbox.cif.g08.bks.cpg/sg20_5_cif.got.tgz:9111.got - 2010.06.03 22:52:26.
