data_PCOD9321960
_publ_section_title
;
Structure prediction by ZEFSAII (Michael W. Deem and Ramdas Pophale) SiO2 
 PCOD9321960
Probable space group: C 2 2 21
;
_chemical_formula_sum "Si O2"
_cell_formula_units_Z 32
_cell_length_a 22.093695
_cell_length_b 12.616965
_cell_length_c 4.767760
_cell_angle_alpha 90.000000
_cell_angle_beta 90.000000
_cell_angle_gamma 90.000000
_cell_volume 1329.038734
_symmetry_space_group_name_H-M "C 2 2 21"
_symmetry_group_IT_number 20
_symmetry_cell_setting 'orthorhombic'
loop_
_space_group_symop_operation_xyz
x,y,z
-x,-y,1/2+z
x,-y,-z
-x,y,1/2-z
1/2+x,1/2+y,z
1/2-x,1/2-y,1/2+z
1/2+x,1/2-y,-z
1/2-x,1/2+y,1/2-z
loop_
_atom_site_type_symbol
_atom_site_label
_atom_site_fract_x
_atom_site_fract_y
_atom_site_fract_z
Si Si1 0.273151 0.684984 0.810936
Si Si2 0.796009 0.500000 0.000000
Si Si3 0.500000 0.576280 0.250000
Si Si4 0.400355 0.257974 0.932353
Si Si5 0.397505 0.107586 0.398606
O O1 0.246741 0.577697 0.680243
O O2 0.232892 0.730740 0.061312
O O3 0.340570 0.688061 0.934711
O O4 0.340261 0.938385 0.783121
O O5 0.480403 0.500000 0.500000
O O6 0.554545 0.651627 0.338631
O O7 0.385671 0.179372 0.673181
O O8 0.428531 0.184387 0.174794
O O9 0.570272 0.000000 0.000000
#
# Coordination Sequence:
#
# PCOD9321960 Si02
#       5
#     8   4   4   8   8
#     4  12  26  46  71 118 163 206 253 310 391 475
#     4  12  26  44  76 116 168 210 242 312 394 484
#     4  12  30  62  84 106 150 212 276 336 374 442
#     4  12  26  51  80 111 156 212 263 323 385 459
#     4  12  22  47  78 114 162 201 246 320 397 469
#
# _framework density 24.077551
#
# number of rings (size 3 to 8) (size 9 to 14) (size 15 to 20)
#    0.000    0.000    5.000    4.500    0.000    0.000 
#   11.250    5.000    2.750    0.000    0.000    0.000 
#    0.000    0.000    0.000    0.000    0.000    0.000 
#
# Total GULP energy -89650.964438 kJ/mol
# GULP energy per Si atom -5603.185277 kJ/mol
# Density = 2.402275 g / cm^3
# Si number density = 24.077551 Si / 1000 Ang^3
#
#
#
# Elastic Constant Matrix: (Units=GPa)
#
#
# Indices 1 2 3 4 5 6 
#
# 1 117.1275 91.0403 63.0019 0.0000 0.0000 0.0000
# 2 91.0403 183.5577 89.0262 0.0000 0.0000 0.0000
# 3 63.0019 89.0262 196.4474 0.0000 0.0000 0.0000
# 4 0.0000 0.0000 0.0000 80.1988 0.0000 0.0000
# 5 0.0000 0.0000 0.0000 0.0000 15.5116 0.0000
# 6 0.0000 0.0000 0.0000 0.0000 0.0000 57.3337
#
#
#
# Elastic Compliance Matrix: (Units=1/GPa)
#
#
# Indices 1 2 3 4 5 6 
#
# 1 0.014356 -0.006264 -0.001765 0.000000 0.000000 0.000000
# 2 -0.006264 0.009716 -0.002394 0.000000 0.000000 0.000000
# 3 -0.001765 -0.002394 0.006742 0.000000 0.000000 0.000000
# 4 0.000000 0.000000 0.000000 0.012469 0.000000 0.000000
# 5 0.000000 0.000000 0.000000 0.000000 0.064468 0.000000
# 6 0.000000 0.000000 0.000000 0.000000 0.000000 0.017442
#
#
# Mechanical properties :
#
#
# Convention : Reuss Voigt Hill
#
# Bulk Modulus (GPa) = 100.33637 109.25215 104.79426
# Shear Modulus (GPa) = 33.47574 47.54643 40.51109
#
# Velocity S-wave (km/s) = 3.73276 4.44860 4.10631
# Velocity P-wave (km/s) = 7.76792 8.47705 8.13022
#
# Compressibility (1/GPa) = 0.00996648
#
# Stress axis : x y z
#
# Youngs Moduli (GPa) = 69.65607 102.92390 148.33411
#
# Poissons Ratio (x) = 0.64473 0.26186
# Poissons Ratio (y) = 0.43634 0.35513
# Poissons Ratio (z) = 0.12297 0.24641
#
# Static dielectric constant tensor:
#      x y z
#    x 1.950170 0.000000 0.000000 
#    y 0.000000 1.934070 0.000000 
#    z 0.000000 0.000000 1.975970 
# 
# From -- ./inp_files/4519.got.cif
#   From: 2010.05.17/outbox.cif.g08.bks.cpg/sg20_3_cif.got.tgz:4519.got - 2010.06.03 22:52:26.
