data_PCOD9321868
_publ_section_title
;
Structure prediction by ZEFSAII (Michael W. Deem and Ramdas Pophale) SiO2 
 PCOD9321868
Probable space group: C 2 2 21
;
_chemical_formula_sum "Si O2"
_cell_formula_units_Z 44
_cell_length_a 5.462936
_cell_length_b 21.351756
_cell_length_c 14.594734
_cell_angle_alpha 90.000000
_cell_angle_beta 90.000000
_cell_angle_gamma 90.000000
_cell_volume 1702.377594
_symmetry_space_group_name_H-M "C 2 2 21"
_symmetry_group_IT_number 20
_symmetry_cell_setting 'orthorhombic'
loop_
_space_group_symop_operation_xyz
x,y,z
-x,-y,1/2+z
x,-y,-z
-x,y,1/2-z
1/2+x,1/2+y,z
1/2-x,1/2-y,1/2+z
1/2+x,1/2-y,-z
1/2-x,1/2+y,1/2-z
loop_
_atom_site_type_symbol
_atom_site_label
_atom_site_fract_x
_atom_site_fract_y
_atom_site_fract_z
Si Si1 0.000000 0.770956 0.750000
Si Si2 0.024218 0.408559 0.888958
Si Si3 0.915161 0.744976 0.560702
Si Si4 0.817183 0.871322 0.166562
Si Si5 0.000000 0.482298 0.250000
Si Si6 0.542458 0.573928 0.011909
Si Si7 0.500000 0.795264 0.750000
O O1 0.056540 0.795572 0.855356
O O2 0.272337 0.751058 0.731378
O O3 0.813734 0.403253 0.963394
O O4 0.928386 0.467578 0.828380
O O5 0.301368 0.418359 0.923250
O O6 0.021255 0.345084 0.831590
O O7 0.664999 0.753381 0.500195
O O8 0.867918 0.681944 0.623813
O O9 0.679830 0.934153 0.200003
O O10 0.000000 0.858761 0.250000
O O11 0.976100 0.889887 0.079590
O O12 0.561237 0.500000 0.000000
#
# Coordination Sequence:
#
# PCOD9321868 Si02
#       7
#     4   8   8   8   4   8   4
#     4  12  27  54  79 114 155 208 275 334 402 478
#     4  11  26  46  73 117 156 203 250 309 388 472
#     4  12  32  55  82 116 157 210 276 346 413 480
#     4  12  30  50  81 112 156 211 265 335 404 473
#     4  11  25  50  78 114 162 208 255 319 390 478
#     4  12  25  46  73 112 154 199 252 310 378 476
#     4  11  26  46  79 108 153 200 250 315 392 464
#
# _framework density 25.846205999999999
#
# number of rings (size 3 to 8) (size 9 to 14) (size 15 to 20)
#    0.000    0.364    1.818    4.364   16.545    1.455 
#    0.000    0.000    0.000    0.000    0.000    0.000 
#    0.000    0.000    0.000    0.000    0.000    0.000 
#
# Total GULP energy -122589.077359 kJ/mol
# GULP energy per Si atom -5572.230789 kJ/mol
# Density = 2.578738 g / cm^3
# Si number density = 25.846206 Si / 1000 Ang^3
#
#
#
# Elastic Constant Matrix: (Units=GPa)
#
#
# Indices 1 2 3 4 5 6 
#
# 1 100.6427 38.4431 27.9959 0.0000 0.0000 0.0000
# 2 38.4431 103.7442 31.7397 0.0000 0.0000 0.0000
# 3 27.9959 31.7397 111.7308 0.0000 0.0000 0.0000
# 4 0.0000 0.0000 0.0000 -23.3636 0.0000 0.0000
# 5 0.0000 0.0000 0.0000 0.0000 37.5166 0.0000
# 6 0.0000 0.0000 0.0000 0.0000 0.0000 61.3249
#
#
#
# Elastic Compliance Matrix: (Units=1/GPa)
#
#
# Indices 1 2 3 4 5 6 
#
# 1 0.011931 -0.003840 -0.001899 0.000000 0.000000 0.000000
# 2 -0.003840 0.011793 -0.002388 0.000000 0.000000 0.000000
# 3 -0.001899 -0.002388 0.010104 0.000000 0.000000 0.000000
# 4 0.000000 0.000000 0.000000 -0.042802 0.000000 0.000000
# 5 0.000000 0.000000 0.000000 0.000000 0.026655 0.000000
# 6 0.000000 0.000000 0.000000 0.000000 0.000000 0.016307
#
#
# Mechanical properties :
#
#
# Convention : Reuss Voigt Hill
#
# Bulk Modulus (GPa) = 56.90020 56.94168 56.92094
# Shear Modulus (GPa) = 89.12772 29.62486 59.37629
#
# Velocity S-wave (km/s) = 5.87867 3.38923 4.79821
# Velocity P-wave (km/s) = 8.25476 6.11511 7.26415
#
# Compressibility (1/GPa) = 0.01757463
#
# Stress axis : x y z
#
# Youngs Moduli (GPa) = 83.81397 84.79854 98.96970
#
# Poissons Ratio (x) = 0.32565 0.18791
# Poissons Ratio (y) = 0.32187 0.23631
# Poissons Ratio (z) = 0.15913 0.20248
#
# Static dielectric constant tensor:
#      x y z
#    x 2.133790 0.000000 0.000000 
#    y 0.000000 2.112450 0.000000 
#    z 0.000000 0.000000 1.961890 
# 
# From -- ./inp_files/17759.got.cif
#   From: 2010.05.17/outbox.cif.g08.bks.cpg/sg20_9_cif.got.tgz:17759.got - 2010.06.03 22:52:26.
