data_PCOD9321446
_publ_section_title
;
Structure prediction by ZEFSAII (Michael W. Deem and Ramdas Pophale) SiO2 
 PCOD9321446
Probable space group: C 2 2 21
;
_chemical_formula_sum "Si O2"
_cell_formula_units_Z 56
_cell_length_a 14.147330
_cell_length_b 13.669571
_cell_length_c 12.048037
_cell_angle_alpha 90.000000
_cell_angle_beta 90.000000
_cell_angle_gamma 90.000000
_cell_volume 2329.944959
_symmetry_space_group_name_H-M "C 2 2 21"
_symmetry_group_IT_number 20
_symmetry_cell_setting 'orthorhombic'
loop_
_space_group_symop_operation_xyz
x,y,z
-x,-y,1/2+z
x,-y,-z
-x,y,1/2-z
1/2+x,1/2+y,z
1/2-x,1/2-y,1/2+z
1/2+x,1/2-y,-z
1/2-x,1/2+y,1/2-z
loop_
_atom_site_type_symbol
_atom_site_label
_atom_site_fract_x
_atom_site_fract_y
_atom_site_fract_z
Si Si1 0.589514 0.612268 0.494305
Si Si2 0.349480 0.112905 0.236995
Si Si3 0.477671 0.104448 0.438827
Si Si4 0.943976 0.722479 0.861271
Si Si5 0.222306 0.396438 0.273811
Si Si6 0.124757 0.893120 0.055769
Si Si7 0.741345 0.760438 0.091680
O O1 0.622078 0.500000 0.500000
O O2 0.569129 0.660804 0.374272
O O3 0.488676 0.615479 0.557428
O O4 0.668156 0.687960 0.536447
O O5 0.388613 0.128260 0.360789
O O6 0.435220 0.105120 0.148357
O O7 0.280091 0.195605 0.193766
O O8 0.298673 0.009797 0.231096
O O9 0.500036 0.183066 0.532570
O O10 0.470090 0.000000 0.500000
O O11 0.848121 0.659550 0.857074
O O12 0.000000 0.700493 0.750000
O O13 0.327415 0.385984 0.323171
O O14 0.195619 0.351589 0.154912
O O15 0.176328 0.810062 0.981345
O O16 0.145676 0.000000 0.000000
#
# Coordination Sequence:
#
# PCOD9321446 Si02
#       7
#     8   8   8   8   8   8   8
#     4  11  27  50  75 108 152 201 256 315 385 462
#     4  11  24  44  72 111 146 198 249 321 381 459
#     4  11  22  40  74 108 150 185 248 315 393 452
#     4  12  24  46  75 112 151 203 254 314 389 472
#     4  12  25  43  74 109 149 195 254 313 392 451
#     4  11  24  49  78 108 150 205 252 311 382 472
#     4  12  26  49  76 105 152 197 258 318 382 463
#
# _framework density 24.034901000000001
#
# number of rings (size 3 to 8) (size 9 to 14) (size 15 to 20)
#    0.000    0.571    5.714    1.714    2.000    1.714 
#    5.143    0.000    0.000    0.000    0.000    0.000 
#    0.000    0.000    0.000    0.000    0.000    0.000 
#
# Total GULP energy -156727.941795 kJ/mol
# GULP energy per Si atom -5597.426493 kJ/mol
# Density = 2.398020 g / cm^3
# Si number density = 24.034901 Si / 1000 Ang^3
#
#
#
# Elastic Constant Matrix: (Units=GPa)
#
#
# Indices 1 2 3 4 5 6 
#
# 1 79.5958 24.3879 11.9991 0.0000 0.0000 0.0000
# 2 24.3879 149.5448 22.9165 0.0000 0.0000 0.0000
# 3 11.9991 22.9165 89.8885 0.0000 0.0000 0.0000
# 4 0.0000 0.0000 0.0000 39.3320 0.0000 0.0000
# 5 0.0000 0.0000 0.0000 0.0000 6.6722 0.0000
# 6 0.0000 0.0000 0.0000 0.0000 0.0000 26.0736
#
#
#
# Elastic Compliance Matrix: (Units=1/GPa)
#
#
# Indices 1 2 3 4 5 6 
#
# 1 0.013364 -0.001984 -0.001278 0.000000 0.000000 0.000000
# 2 -0.001984 0.007253 -0.001584 0.000000 0.000000 0.000000
# 3 -0.001278 -0.001584 0.011699 0.000000 0.000000 0.000000
# 4 0.000000 0.000000 0.000000 0.025425 0.000000 0.000000
# 5 0.000000 0.000000 0.000000 0.000000 0.149875 0.000000
# 6 0.000000 0.000000 0.000000 0.000000 0.000000 0.038353
#
#
# Mechanical properties :
#
#
# Convention : Reuss Voigt Hill
#
# Bulk Modulus (GPa) = 44.20028 48.62624 46.41326
# Shear Modulus (GPa) = 18.99677 31.73060 25.36369
#
# Velocity S-wave (km/s) = 2.81442 3.63738 3.25204
# Velocity P-wave (km/s) = 5.38436 6.15761 5.78392
#
# Compressibility (1/GPa) = 0.02262429
#
# Stress axis : x y z
#
# Youngs Moduli (GPa) = 74.82833 137.86962 85.47402
#
# Poissons Ratio (x) = 0.27347 0.10926
# Poissons Ratio (y) = 0.14842 0.13542
# Poissons Ratio (z) = 0.09565 0.21844
#
# Static dielectric constant tensor:
#      x y z
#    x 2.012200 0.000000 0.000000 
#    y 0.000000 1.899340 0.000000 
#    z 0.000000 0.000000 1.925190 
# 
# From -- ./inp_files/15149.got.cif
#   From: 2010.05.17/outbox.cif.g08.bks.cpg/sg20_8_cif.got.tgz:15149.got - 2010.06.03 22:52:26.
