data_PCOD9321807
_publ_section_title
;
Structure prediction by ZEFSAII (Michael W. Deem and Ramdas Pophale) SiO2 
 PCOD9321807
Probable space group: C 2 2 21
;
_chemical_formula_sum "Si O2"
_cell_formula_units_Z 64
_cell_length_a 8.627262
_cell_length_b 11.963303
_cell_length_c 26.163918
_cell_angle_alpha 90.000000
_cell_angle_beta 90.000000
_cell_angle_gamma 90.000000
_cell_volume 2700.392350
_symmetry_space_group_name_H-M "C 2 2 21"
_symmetry_group_IT_number 20
_symmetry_cell_setting 'orthorhombic'
loop_
_space_group_symop_operation_xyz
x,y,z
-x,-y,1/2+z
x,-y,-z
-x,y,1/2-z
1/2+x,1/2+y,z
1/2-x,1/2-y,1/2+z
1/2+x,1/2-y,-z
1/2-x,1/2+y,1/2-z
loop_
_atom_site_type_symbol
_atom_site_label
_atom_site_fract_x
_atom_site_fract_y
_atom_site_fract_z
Si Si1 0.610630 0.632560 0.161779
Si Si2 0.407695 0.939903 0.413754
Si Si3 0.264985 0.035614 0.070611
Si Si4 0.942035 0.920239 0.200362
Si Si5 0.604830 0.124632 0.799266
Si Si6 0.690244 0.654663 0.409583
Si Si7 0.058529 0.173283 0.902097
Si Si8 0.209921 0.239768 0.524594
O O1 0.754284 0.598498 0.125820
O O2 0.551702 0.528109 0.194741
O O3 0.638606 0.742676 0.194761
O O4 0.468709 0.651258 0.121487
O O5 0.453735 0.906707 0.355911
O O6 0.332968 0.839705 0.446366
O O7 0.565770 0.985065 0.437798
O O8 0.276249 0.035575 0.411322
O O9 0.235242 0.132446 0.029523
O O10 0.136830 0.939331 0.076273
O O11 0.762378 0.944263 0.207520
O O12 0.000000 0.854582 0.250000
O O13 0.957864 0.856913 0.147027
O O14 0.500000 0.106286 0.750000
O O15 0.806321 0.743872 0.384556
O O16 0.678934 0.698015 0.467657
O O17 0.950628 0.229778 0.944258
#
# Coordination Sequence:
#
# PCOD9321807 Si02
#       8
#     8   8   8   8   8   8   8   8
#     4  11  24  49  73 103 149 187 240 309 359 436
#     4  12  24  50  73 105 153 188 243 306 362 432
#     4  11  25  44  76 102 142 192 238 294 366 426
#     4  11  25  48  72 104 142 185 240 301 367 436
#     4  12  26  46  77 105 141 193 242 300 370 433
#     4  12  27  46  76 108 149 197 243 299 369 436
#     4  11  25  48  73 106 148 191 242 302 370 431
#     4  12  26  51  71 106 152 193 246 302 360 436
#
# _framework density 23.700261000000001
#
# number of rings (size 3 to 8) (size 9 to 14) (size 15 to 20)
#    0.000    0.500    5.000    2.250    7.000    0.500 
#    6.750    0.625    0.000    0.000    0.000    0.000 
#    0.000    0.000    0.000    0.000    0.000    0.000 
#
# Total GULP energy -179344.427676 kJ/mol
# GULP energy per Si atom -5604.513365 kJ/mol
# Density = 2.364632 g / cm^3
# Si number density = 23.700261 Si / 1000 Ang^3
#
#
#
# Elastic Constant Matrix: (Units=GPa)
#
#
# Indices 1 2 3 4 5 6 
#
# 1 88.9679 17.4275 14.2136 0.0000 0.0000 0.0000
# 2 17.4275 71.3920 -8.5388 0.0000 0.0000 0.0000
# 3 14.2136 -8.5388 99.5760 0.0000 0.0000 0.0000
# 4 0.0000 0.0000 0.0000 20.3876 0.0000 0.0000
# 5 0.0000 0.0000 0.0000 0.0000 37.9638 0.0000
# 6 0.0000 0.0000 0.0000 0.0000 0.0000 37.7041
#
#
#
# Elastic Compliance Matrix: (Units=1/GPa)
#
#
# Indices 1 2 3 4 5 6 
#
# 1 0.012192 -0.003217 -0.002016 0.000000 0.000000 0.000000
# 2 -0.003217 0.015001 0.001746 0.000000 0.000000 0.000000
# 3 -0.002016 0.001746 0.010480 0.000000 0.000000 0.000000
# 4 0.000000 0.000000 0.000000 0.049049 0.000000 0.000000
# 5 0.000000 0.000000 0.000000 0.000000 0.026341 0.000000
# 6 0.000000 0.000000 0.000000 0.000000 0.000000 0.026522
#
#
# Mechanical properties :
#
#
# Convention : Reuss Voigt Hill
#
# Bulk Modulus (GPa) = 32.57567 34.01560 33.29563
# Shear Modulus (GPa) = 31.88877 35.00002 33.44439
#
# Velocity S-wave (km/s) = 3.67209 3.84706 3.76059
# Velocity P-wave (km/s) = 5.63504 5.84095 5.73892
#
# Compressibility (1/GPa) = 0.03069776
#
# Stress axis : x y z
#
# Youngs Moduli (GPa) = 82.01847 66.66060 95.41914
#
# Poissons Ratio (x) = 0.21448 0.19239
# Poissons Ratio (y) = 0.26389 -0.16657
# Poissons Ratio (z) = 0.16537 -0.11637
#
# Static dielectric constant tensor:
#      x y z
#    x 1.874770 0.000000 0.000000 
#    y 0.000000 1.916110 0.000000 
#    z 0.000000 0.000000 1.913850 
# 
# From -- ./inp_files/31094.got.cif
#   From: 2010.05.17/outbox.cif.g08.bks.cpg/sg20_16_cif.got.tgz:31094.got - 2010.06.03 22:52:26.
