data_PCOD9322845
_publ_section_title
;
Structure prediction by ZEFSAII (Michael W. Deem and Ramdas Pophale) SiO2 
 PCOD9322845
Probable space group: C 2 2 2
;
_chemical_formula_sum "Si O2"
_cell_formula_units_Z 56
_cell_length_a 21.872003
_cell_length_b 14.941479
_cell_length_c 9.217631
_cell_angle_alpha 90.000000
_cell_angle_beta 90.000000
_cell_angle_gamma 90.000000
_cell_volume 3012.322488
_symmetry_space_group_name_H-M "C 2 2 2"
_symmetry_group_IT_number 21
_symmetry_cell_setting 'orthorhombic'
loop_
_space_group_symop_operation_xyz
x,y,z
-x,-y,z
x,-y,-z
-x,y,-z
1/2+x,1/2+y,z
1/2-x,1/2-y,z
1/2+x,1/2-y,-z
1/2-x,1/2+y,-z
loop_
_atom_site_type_symbol
_atom_site_label
_atom_site_fract_x
_atom_site_fract_y
_atom_site_fract_z
Si Si1 0.063458 0.719233 0.068986
Si Si2 0.248065 0.476164 0.666106
Si Si3 0.318504 0.097852 0.927312
Si Si4 0.729452 0.343934 0.835042
Si Si5 0.980857 0.209306 0.341720
Si Si6 0.586779 0.629207 0.147325
Si Si7 0.108853 0.040867 0.662891
O O1 0.123362 0.660646 0.040866
O O2 0.052486 0.720095 0.240201
O O3 0.070222 0.822259 0.006626
O O4 0.000000 0.684676 0.000000
O O5 0.234177 0.500000 0.500000
O O6 0.201178 0.416600 0.759779
O O7 0.248892 0.572231 0.743300
O O8 0.318428 0.440639 0.681049
O O9 0.260262 0.141468 0.008521
O O10 0.328602 0.000000 0.000000
O O11 0.750000 0.250000 0.772186
O O12 0.657104 0.345931 0.837457
O O13 0.935023 0.125493 0.344922
O O14 0.000000 0.239082 0.500000
O O15 0.041886 0.178648 0.258076
O O16 0.586841 0.525822 0.205674
O O17 0.103606 0.000000 0.500000
#
# Coordination Sequence:
#
# PCOD9322845 Si02
#       7
#     8   8   8   8   8   8   8
#     4  10  23  40  58  89 116 148 207 260 297 358
#     4   9  21  38  56  91 122 155 203 247 296 370
#     4  10  21  41  66  84 115 156 199 259 316 361
#     4  10  19  36  62  85 117 158 197 248 305 352
#     4  11  22  37  57  84 127 166 198 241 295 356
#     4  10  20  35  57  85 120 156 208 240 279 360
#     4  10  19  34  59  81 125 170 199 226 290 360
#
# _framework density 18.590306999999999
#
# number of rings (size 3 to 8) (size 9 to 14) (size 15 to 20)
#    0.000    2.000    2.857    0.429    2.000    0.857 
#    2.571    2.857    0.000    0.000    0.000    0.000 
#    0.000    0.000    0.000    0.000    0.000    0.000 
#
# Total GULP energy -155905.593156 kJ/mol
# GULP energy per Si atom -5568.056898 kJ/mol
# Density = 1.854799 g / cm^3
# Si number density = 18.590307 Si / 1000 Ang^3
#
#
#
# Elastic Constant Matrix: (Units=GPa)
#
#
# Indices 1 2 3 4 5 6 
#
# 1 57.1805 27.2865 26.4170 0.0000 0.0000 0.0000
# 2 27.2865 41.4939 12.5871 0.0000 0.0000 0.0000
# 3 26.4170 12.5871 105.5180 0.0000 0.0000 0.0000
# 4 0.0000 0.0000 0.0000 5.5407 0.0000 0.0000
# 5 0.0000 0.0000 0.0000 0.0000 20.1227 0.0000
# 6 0.0000 0.0000 0.0000 0.0000 0.0000 18.6732
#
#
#
# Elastic Compliance Matrix: (Units=1/GPa)
#
#
# Indices 1 2 3 4 5 6 
#
# 1 0.027777 -0.016763 -0.004954 0.000000 0.000000 0.000000
# 2 -0.016763 0.035121 0.000007 0.000000 0.000000 0.000000
# 3 -0.004954 0.000007 0.010717 0.000000 0.000000 0.000000
# 4 0.000000 0.000000 0.000000 0.180483 0.000000 0.000000
# 5 0.000000 0.000000 0.000000 0.000000 0.049695 0.000000
# 6 0.000000 0.000000 0.000000 0.000000 0.000000 0.053553
#
#
# Mechanical properties :
#
#
# Convention : Reuss Voigt Hill
#
# Bulk Modulus (GPa) = 33.11939 37.41930 35.26935
# Shear Modulus (GPa) = 12.17048 18.06078 15.11563
#
# Velocity S-wave (km/s) = 2.56142 3.12030 2.85457
# Velocity P-wave (km/s) = 5.15771 5.75793 5.46606
#
# Compressibility (1/GPa) = 0.03019379
#
# Stress axis : x y z
#
# Youngs Moduli (GPa) = 36.00136 28.47281 93.31349
#
# Poissons Ratio (x) = 0.47729 0.46231
# Poissons Ratio (y) = 0.60350 -0.00067
# Poissons Ratio (z) = 0.17837 -0.00020
#
# Static dielectric constant tensor:
#      x y z
#    x 1.627130 0.000000 0.000000 
#    y 0.000000 1.665120 0.000000 
#    z 0.000000 0.000000 1.694380 
# 
# From -- ./inp_files/17672.got.cif
#   From: 2010.05.17/outbox.cif.g08.bks.cpg/sg21_9_cif.got.tgz:17672.got - 2010.06.03 23:14:55.
