data_PCOD9322057
_publ_section_title
;
Structure prediction by ZEFSAII (Michael W. Deem and Ramdas Pophale) SiO2 
 PCOD9322057
Probable space group: C 2 2 21
;
_chemical_formula_sum "Si O2"
_cell_formula_units_Z 28
_cell_length_a 18.896268
_cell_length_b 11.459888
_cell_length_c 5.176990
_cell_angle_alpha 90.000000
_cell_angle_beta 90.000000
_cell_angle_gamma 90.000000
_cell_volume 1121.072602
_symmetry_space_group_name_H-M "C 2 2 21"
_symmetry_group_IT_number 20
_symmetry_cell_setting 'orthorhombic'
loop_
_space_group_symop_operation_xyz
x,y,z
-x,-y,1/2+z
x,-y,-z
-x,y,1/2-z
1/2+x,1/2+y,z
1/2-x,1/2-y,1/2+z
1/2+x,1/2-y,-z
1/2-x,1/2+y,1/2-z
loop_
_atom_site_type_symbol
_atom_site_label
_atom_site_fract_x
_atom_site_fract_y
_atom_site_fract_z
Si Si1 0.075487 0.370247 0.598136
Si Si2 0.835809 0.000000 0.000000
Si Si3 0.931947 0.000000 0.500000
Si Si4 0.000000 0.203645 0.250000
Si Si5 0.212834 0.764889 0.265989
O O1 0.093086 0.500000 0.500000
O O2 0.061253 0.287265 0.352382
O O3 0.139782 0.308122 0.747182
O O4 0.000000 0.375897 0.750000
O O5 0.793308 0.115194 0.930292
O O6 0.885159 0.011306 0.248186
O O7 0.977796 0.882966 0.520585
O O8 0.237409 0.799207 0.978426
#
# Coordination Sequence:
#
# PCOD9322057 Si02
#       5
#     8   4   4   4   8
#     4  12  28  50  82 119 164 213 274 338 412 492
#     4  12  25  50  74 108 154 201 272 322 402 473
#     4  12  25  44  78 114 152 201 258 342 388 481
#     4  12  26  46  74 120 154 204 260 334 412 468
#     4  12  30  51  78 113 160 216 270 332 408 489
#
# _framework density 24.976078999999999
#
# number of rings (size 3 to 8) (size 9 to 14) (size 15 to 20)
#    0.000    0.000    4.286    4.286   10.000    0.000 
#    0.000    0.000    0.000    0.000    0.000    0.000 
#    0.000    0.000    0.000    0.000    0.000    0.000 
#
# Total GULP energy -78378.470483 kJ/mol
# GULP energy per Si atom -5598.462177 kJ/mol
# Density = 2.491923 g / cm^3
# Si number density = 24.976079 Si / 1000 Ang^3
#
#
#
# Elastic Constant Matrix: (Units=GPa)
#
#
# Indices 1 2 3 4 5 6 
#
# 1 75.9481 -5.3822 30.1365 0.0000 0.0000 0.0000
# 2 -5.3822 129.4476 -0.4818 0.0000 0.0000 0.0000
# 3 30.1365 -0.4818 141.5315 0.0000 0.0000 0.0000
# 4 0.0000 0.0000 0.0000 34.5911 0.0000 0.0000
# 5 0.0000 0.0000 0.0000 0.0000 61.0025 0.0000
# 6 0.0000 0.0000 0.0000 0.0000 0.0000 55.3698
#
#
#
# Elastic Compliance Matrix: (Units=1/GPa)
#
#
# Indices 1 2 3 4 5 6 
#
# 1 0.014427 0.000588 -0.003070 0.000000 0.000000 0.000000
# 2 0.000588 0.007749 -0.000099 0.000000 0.000000 0.000000
# 3 -0.003070 -0.000099 0.007719 0.000000 0.000000 0.000000
# 4 0.000000 0.000000 0.000000 0.028909 0.000000 0.000000
# 5 0.000000 0.000000 0.000000 0.000000 0.016393 0.000000
# 6 0.000000 0.000000 0.000000 0.000000 0.000000 0.018060
#
#
# Mechanical properties :
#
#
# Convention : Reuss Voigt Hill
#
# Bulk Modulus (GPa) = 40.43005 43.94134 42.18569
# Shear Modulus (GPa) = 46.87675 51.70299 49.28987
#
# Velocity S-wave (km/s) = 4.33698 4.55477 4.44721
# Velocity P-wave (km/s) = 6.42665 6.72999 6.58007
#
# Compressibility (1/GPa) = 0.02473408
#
# Stress axis : x y z
#
# Youngs Moduli (GPa) = 69.31576 129.04503 129.55203
#
# Poissons Ratio (x) = -0.07593 0.39771
# Poissons Ratio (y) = -0.04079 0.01281
# Poissons Ratio (z) = 0.21279 0.01276
#
# Static dielectric constant tensor:
#      x y z
#    x 2.172140 0.000000 0.000000 
#    y 0.000000 2.148090 0.000000 
#    z 0.000000 0.000000 2.047100 
# 
# From -- ./inp_files/2965.got.cif
#   From: 2010.05.17/outbox.cif.g08.bks.cpg/sg20_2_cif.got.tgz:2965.got - 2010.06.03 22:52:26.
