data_PCOD9322826
_publ_section_title
;
Structure prediction by ZEFSAII (Michael W. Deem and Ramdas Pophale) SiO2 
 PCOD9322826
Probable space group: C 2 2 2
;
_chemical_formula_sum "Si O2"
_cell_formula_units_Z 64
_cell_length_a 22.801662
_cell_length_b 17.036252
_cell_length_c 7.523341
_cell_angle_alpha 90.000000
_cell_angle_beta 90.000000
_cell_angle_gamma 90.000000
_cell_volume 2922.478374
_symmetry_space_group_name_H-M "C 2 2 2"
_symmetry_group_IT_number 21
_symmetry_cell_setting 'orthorhombic'
loop_
_space_group_symop_operation_xyz
x,y,z
-x,-y,z
x,-y,-z
-x,y,-z
1/2+x,1/2+y,z
1/2-x,1/2-y,z
1/2+x,1/2-y,-z
1/2-x,1/2+y,-z
loop_
_atom_site_type_symbol
_atom_site_label
_atom_site_fract_x
_atom_site_fract_y
_atom_site_fract_z
Si Si1 0.634772 0.233674 0.146707
Si Si2 0.217318 0.168762 0.420552
Si Si3 0.693582 0.078713 0.159321
Si Si4 0.324661 0.083717 0.250288
Si Si5 0.387701 0.767526 0.725232
Si Si6 0.056221 0.040693 0.693678
Si Si7 0.986041 0.789309 0.787686
Si Si8 0.178749 0.907586 0.232886
O O1 0.675643 0.165275 0.223052
O O2 0.568899 0.230556 0.221989
O O3 0.660655 0.319179 0.183049
O O4 0.627478 0.230791 0.934710
O O5 0.250000 0.250000 0.477045
O O6 0.262064 0.125884 0.286429
O O7 0.155379 0.201582 0.351853
O O8 0.201947 0.104020 0.566776
O O9 0.763021 0.069197 0.130915
O O10 0.674780 0.008867 0.290393
O O11 0.666050 0.078185 0.962699
O O12 0.370531 0.144552 0.335640
O O13 0.454726 0.743425 0.703816
O O14 0.120813 0.039421 0.779616
O O15 0.036633 0.131423 0.694808
O O16 0.061659 0.000000 0.500000
O O17 0.000000 0.000000 0.784011
O O18 0.000000 0.804246 0.000000
#
# Coordination Sequence:
#
# PCOD9322826 Si02
#       8
#     8   8   8   8   8   8   8   8
#     4   9  18  36  54  81 105 141 186 226 269 325
#     4  10  20  32  51  80 107 137 184 228 269 328
#     4  10  19  34  56  75 114 144 176 227 279 334
#     4   9  20  34  50  83 109 144 178 223 286 323
#     4   9  18  34  58  76 108 141 183 228 266 334
#     4  10  24  38  52  78 113 145 180 228 277 321
#     4   9  19  37  60  80 103 144 189 224 270 333
#     4  11  22  34  56  79 105 147 185 220 276 330
#
# _framework density 21.89922
#
# number of rings (size 3 to 8) (size 9 to 14) (size 15 to 20)
#    0.000    2.375    0.000    1.875    5.250    2.250 
#    0.000    3.125    0.000    3.750    0.000    0.000 
#    0.000    4.250    0.000    0.000    0.000    0.000 
#
# Total GULP energy -178471.269056 kJ/mol
# GULP energy per Si atom -5577.227158 kJ/mol
# Density = 2.184938 g / cm^3
# Si number density = 21.899220 Si / 1000 Ang^3
#
#
#
# Elastic Constant Matrix: (Units=GPa)
#
#
# Indices 1 2 3 4 5 6 
#
# 1 101.7495 23.8272 8.3434 0.0000 0.0000 0.0000
# 2 23.8272 81.5002 17.1648 0.0000 0.0000 0.0000
# 3 8.3434 17.1648 38.2031 0.0000 0.0000 0.0000
# 4 0.0000 0.0000 0.0000 14.4772 0.0000 0.0000
# 5 0.0000 0.0000 0.0000 0.0000 13.3486 0.0000
# 6 0.0000 0.0000 0.0000 0.0000 0.0000 23.1324
#
#
#
# Elastic Compliance Matrix: (Units=1/GPa)
#
#
# Indices 1 2 3 4 5 6 
#
# 1 0.010586 -0.002881 -0.001018 0.000000 0.000000 0.000000
# 2 -0.002881 0.014336 -0.005812 0.000000 0.000000 0.000000
# 3 -0.001018 -0.005812 0.029010 0.000000 0.000000 0.000000
# 4 0.000000 0.000000 0.000000 0.069074 0.000000 0.000000
# 5 0.000000 0.000000 0.000000 0.000000 0.074914 0.000000
# 6 0.000000 0.000000 0.000000 0.000000 0.000000 0.043229
#
#
# Mechanical properties :
#
#
# Convention : Reuss Voigt Hill
#
# Bulk Modulus (GPa) = 28.97636 35.56928 32.27282
# Shear Modulus (GPa) = 18.37733 21.66613 20.02173
#
# Velocity S-wave (km/s) = 2.90000 3.14882 3.02696
# Velocity P-wave (km/s) = 4.94709 5.43117 5.19477
#
# Compressibility (1/GPa) = 0.03451090
#
# Stress axis : x y z
#
# Youngs Moduli (GPa) = 94.46381 69.75364 34.47137
#
# Poissons Ratio (x) = 0.20093 0.03508
# Poissons Ratio (y) = 0.27211 0.20035
# Poissons Ratio (z) = 0.09613 0.40542
#
# Static dielectric constant tensor:
#      x y z
#    x 1.810300 0.000000 0.000000 
#    y 0.000000 1.910980 0.000000 
#    z 0.000000 0.000000 1.893490 
# 
# From -- ./inp_files/18635.got.cif
#   From: 2010.05.17/outbox.cif.g08.bks.cpg/sg21_10_cif.got.tgz:18635.got - 2010.06.03 23:14:55.
