data_PCOD9322735
_publ_section_title
;
Structure prediction by ZEFSAII (Michael W. Deem and Ramdas Pophale) SiO2 
 PCOD9322735
Probable space group: C 2 2 2
;
_chemical_formula_sum "Si O2"
_cell_formula_units_Z 34
_cell_length_a 19.177968
_cell_length_b 5.307965
_cell_length_c 15.782689
_cell_angle_alpha 90.000000
_cell_angle_beta 90.000000
_cell_angle_gamma 90.000000
_cell_volume 1606.614340
_symmetry_space_group_name_H-M "C 2 2 2"
_symmetry_group_IT_number 21
_symmetry_cell_setting 'orthorhombic'
loop_
_space_group_symop_operation_xyz
x,y,z
-x,-y,z
x,-y,-z
-x,y,-z
1/2+x,1/2+y,z
1/2-x,1/2-y,z
1/2+x,1/2-y,-z
1/2-x,1/2+y,-z
loop_
_atom_site_type_symbol
_atom_site_label
_atom_site_fract_x
_atom_site_fract_y
_atom_site_fract_z
Si Si1 0.581867 0.996037 0.312272
Si Si2 0.085324 0.000785 0.401154
Si Si3 0.000000 0.500000 0.000000
Si Si4 0.291049 0.498276 0.897451
Si Si5 0.563666 0.316257 0.850977
O O1 0.613039 0.758251 0.361207
O O2 0.580280 0.907766 0.214822
O O3 0.500000 0.000000 0.336271
O O4 0.609639 0.261765 0.345440
O O5 0.103597 0.000000 0.500000
O O6 0.000000 0.000000 0.397066
O O7 0.955546 0.680653 0.060995
O O8 0.250000 0.750000 0.871732
O O9 0.368734 0.513628 0.862559
O O10 0.250000 0.250000 0.870845
O O11 0.294914 0.500000 0.000000
O O12 0.500000 0.500000 0.823408
#
# Coordination Sequence:
#
# PCOD9322735 Si02
#       5
#     8   8   2   8   8
#     4  10  19  32  51  80 117 156 198 253 304 365
#     4   9  17  30  49  75 112 159 199 234 301 383
#     4  12  26  36  64  90 126 176 228 276 330 392
#     4  10  24  42  62  83 115 164 223 272 322 374
#     4  12  25  40  60  91 128 167 225 269 326 386
#
# _framework density 21.162514999999999
#
# number of rings (size 3 to 8) (size 9 to 14) (size 15 to 20)
#    0.000    1.647    1.176    4.588    8.235    2.824 
#    0.000    0.000    0.000    0.000    0.000    0.000 
#    0.000    5.647    0.000   32.471    0.000    1.412 
#
# Total GULP energy -94989.186135 kJ/mol
# GULP energy per Si atom -5587.599184 kJ/mol
# Density = 2.111435 g / cm^3
# Si number density = 21.162515 Si / 1000 Ang^3
#
#
#
# Elastic Constant Matrix: (Units=GPa)
#
#
# Indices 1 2 3 4 5 6 
#
# 1 92.0118 53.3363 14.2811 0.0000 0.0000 0.0000
# 2 53.3363 187.2348 76.1345 0.0000 0.0000 0.0000
# 3 14.2811 76.1345 132.3414 0.0000 0.0000 0.0000
# 4 0.0000 0.0000 0.0000 30.0915 0.0000 0.0000
# 5 0.0000 0.0000 0.0000 0.0000 14.2585 0.0000
# 6 0.0000 0.0000 0.0000 0.0000 0.0000 19.9569
#
#
#
# Elastic Compliance Matrix: (Units=1/GPa)
#
#
# Indices 1 2 3 4 5 6 
#
# 1 0.013110 -0.004124 0.000958 0.000000 0.000000 0.000000
# 2 -0.004124 0.008269 -0.004312 0.000000 0.000000 0.000000
# 3 0.000958 -0.004312 0.009934 0.000000 0.000000 0.000000
# 4 0.000000 0.000000 0.000000 0.033232 0.000000 0.000000
# 5 0.000000 0.000000 0.000000 0.000000 0.070133 0.000000
# 6 0.000000 0.000000 0.000000 0.000000 0.000000 0.050108
#
#
# Mechanical properties :
#
#
# Convention : Reuss Voigt Hill
#
# Bulk Modulus (GPa) = 61.13941 77.67686 69.40813
# Shear Modulus (GPa) = 24.36711 30.71714 27.54212
#
# Velocity S-wave (km/s) = 3.39695 3.81397 3.61149
# Velocity P-wave (km/s) = 6.65874 7.49532 7.08938
#
# Compressibility (1/GPa) = 0.01635606
#
# Stress axis : x y z
#
# Youngs Moduli (GPa) = 76.27709 120.93248 100.66897
#
# Poissons Ratio (x) = 0.49873 -0.09642
# Poissons Ratio (y) = 0.31457 0.43409
# Poissons Ratio (z) = -0.07306 0.52147
#
# Static dielectric constant tensor:
#      x y z
#    x 1.746450 0.000000 0.000000 
#    y 0.000000 1.777040 0.000000 
#    z 0.000000 0.000000 1.783060 
# 
# From -- ./inp_files/33084.got.cif
#   From: 2010.05.17/outbox.cif.g08.bks.cpg/sg21_17_cif.got.tgz:33084.got - 2010.06.03 23:14:55.
