data_PCOD9322724
_publ_section_title
;
Structure prediction by ZEFSAII (Michael W. Deem and Ramdas Pophale) SiO2 
 PCOD9322724
Probable space group: C 2 2 2
;
_chemical_formula_sum "Si O2"
_cell_formula_units_Z 32
_cell_length_a 12.136182
_cell_length_b 28.710891
_cell_length_c 5.141331
_cell_angle_alpha 90.000000
_cell_angle_beta 90.000000
_cell_angle_gamma 90.000000
_cell_volume 1791.448451
_symmetry_space_group_name_H-M "C 2 2 2"
_symmetry_group_IT_number 21
_symmetry_cell_setting 'orthorhombic'
loop_
_space_group_symop_operation_xyz
x,y,z
-x,-y,z
x,-y,-z
-x,y,-z
1/2+x,1/2+y,z
1/2-x,1/2-y,z
1/2+x,1/2-y,-z
1/2-x,1/2+y,-z
loop_
_atom_site_type_symbol
_atom_site_label
_atom_site_fract_x
_atom_site_fract_y
_atom_site_fract_z
Si Si1 0.117771 0.129816 0.859735
Si Si2 0.424585 0.768131 0.748947
Si Si3 0.708612 0.675247 0.327921
Si Si4 0.876056 0.978529 0.749973
O O1 0.157163 0.159885 0.607689
O O2 0.114106 0.076702 0.761918
O O3 0.198224 0.136236 0.105471
O O4 0.000000 0.140478 0.000000
O O5 0.500000 0.761588 0.500000
O O6 0.360002 0.719413 0.783480
O O7 0.333552 0.806554 0.670730
O O8 0.500000 0.778454 0.000000
O O9 0.819901 0.000000 0.500000
O O10 0.000000 0.000000 0.749847
O O11 0.819499 0.000000 0.000000
#
# Coordination Sequence:
#
# PCOD9322724 Si02
#       4
#     8   8   8   8
#     4  12  21  34  54  81 121 151 186 227 272 344
#     4  11  22  41  57  75 115 151 187 243 299 318
#     4  11  24  35  56  87 106 148 206 231 272 357
#     4  10  19  32  47  73 111 161 172 203 281 343
#
# _framework density 17.862642000000001
#
# number of rings (size 3 to 8) (size 9 to 14) (size 15 to 20)
#    0.000    1.000    2.500    7.500    3.500    4.000 
#    0.000    0.000    0.000    0.000    0.000    0.000 
#    0.000   70.000    0.000    0.000    0.000    0.000 
#
# Total GULP energy -89159.589831 kJ/mol
# GULP energy per Si atom -5572.474364 kJ/mol
# Density = 1.782199 g / cm^3
# Si number density = 17.862642 Si / 1000 Ang^3
#
#
#
# Elastic Constant Matrix: (Units=GPa)
#
#
# Indices 1 2 3 4 5 6 
#
# 1 62.3377 28.2891 22.7495 0.0000 0.0000 0.0000
# 2 28.2891 72.8440 26.1088 0.0000 0.0000 0.0000
# 3 22.7495 26.1088 152.1480 0.0000 0.0000 0.0000
# 4 0.0000 0.0000 0.0000 49.5511 0.0000 0.0000
# 5 0.0000 0.0000 0.0000 0.0000 15.4268 0.0000
# 6 0.0000 0.0000 0.0000 0.0000 0.0000 84.7847
#
#
#
# Elastic Compliance Matrix: (Units=1/GPa)
#
#
# Indices 1 2 3 4 5 6 
#
# 1 0.019905 -0.007100 -0.001758 0.000000 0.000000 0.000000
# 2 -0.007100 0.017160 -0.001883 0.000000 0.000000 0.000000
# 3 -0.001758 -0.001883 0.007159 0.000000 0.000000 0.000000
# 4 0.000000 0.000000 0.000000 0.020181 0.000000 0.000000
# 5 0.000000 0.000000 0.000000 0.000000 0.064822 0.000000
# 6 0.000000 0.000000 0.000000 0.000000 0.000000 0.011795
#
#
# Mechanical properties :
#
#
# Convention : Reuss Voigt Hill
#
# Bulk Modulus (GPa) = 43.97194 49.06937 46.52066
# Shear Modulus (GPa) = 29.39708 43.96468 36.68088
#
# Velocity S-wave (km/s) = 4.06116 4.96649 4.53647
# Velocity P-wave (km/s) = 6.83087 7.77291 7.31707
#
# Compressibility (1/GPa) = 0.02274177
#
# Stress axis : x y z
#
# Youngs Moduli (GPa) = 50.23791 58.27406 139.69348
#
# Poissons Ratio (x) = 0.41376 0.24556
# Poissons Ratio (y) = 0.35670 0.26306
# Poissons Ratio (z) = 0.08831 0.10974
#
# Static dielectric constant tensor:
#      x y z
#    x 1.568490 0.000000 0.000000 
#    y 0.000000 1.633480 0.000000 
#    z 0.000000 0.000000 1.617980 
# 
# From -- ./inp_files/2785.got.cif
#   From: 2010.05.17/outbox.cif.g08.bks.cpg/sg21_2_cif.got.tgz:2785.got - 2010.06.03 23:14:55.
