data_PCOD9322835
_publ_section_title
;
Structure prediction by ZEFSAII (Michael W. Deem and Ramdas Pophale) SiO2 
 PCOD9322835
Probable space group: C 2 2 2
;
_chemical_formula_sum "Si O2"
_cell_formula_units_Z 40
_cell_length_a 15.832279
_cell_length_b 8.955917
_cell_length_c 14.832142
_cell_angle_alpha 90.000000
_cell_angle_beta 90.000000
_cell_angle_gamma 90.000000
_cell_volume 2103.087631
_symmetry_space_group_name_H-M "C 2 2 2"
_symmetry_group_IT_number 21
_symmetry_cell_setting 'orthorhombic'
loop_
_space_group_symop_operation_xyz
x,y,z
-x,-y,z
x,-y,-z
-x,y,-z
1/2+x,1/2+y,z
1/2-x,1/2-y,z
1/2+x,1/2-y,-z
1/2-x,1/2+y,-z
loop_
_atom_site_type_symbol
_atom_site_label
_atom_site_fract_x
_atom_site_fract_y
_atom_site_fract_z
Si Si1 0.082048 0.604870 0.728523
Si Si2 0.344618 0.301265 0.431119
Si Si3 0.086984 0.903755 0.384483
Si Si4 0.007804 0.680366 0.100666
Si Si5 0.344747 0.196297 0.772220
O O1 0.110952 0.697040 0.642532
O O2 0.057635 0.706773 0.815894
O O3 0.151467 0.480541 0.752492
O O4 0.000000 0.500000 0.709897
O O5 0.250000 0.250000 0.452849
O O6 0.342211 0.467245 0.389255
O O7 0.400784 0.316733 0.521305
O O8 0.106361 0.789942 0.305004
O O9 0.000000 0.000000 0.377693
O O10 0.000000 0.500000 0.093463
O O11 0.099620 0.719363 0.138633
O O12 0.000000 0.742895 0.000000
O O13 0.250000 0.250000 0.778728
#
# Coordination Sequence:
#
# PCOD9322835 Si02
#       5
#     8   8   8   8   8
#     4   9  19  35  56  78 101 139 179 217 262 318
#     4  11  22  36  52  76 107 142 179 219 265 315
#     4  11  23  38  54  75 111 151 177 215 278 330
#     4   8  16  33  56  78 105 139 177 216 265 326
#     4  10  19  34  58  86 107 135 181 232 272 312
#
# _framework density 19.019653999999999
#
# number of rings (size 3 to 8) (size 9 to 14) (size 15 to 20)
#    0.000    2.600    0.000    5.400    0.000    2.400 
#    0.000    5.000    0.000   15.000    0.000    0.000 
#    0.000    0.000    0.000    0.000    0.000    0.000 
#
# Total GULP energy -111420.022037 kJ/mol
# GULP energy per Si atom -5571.001102 kJ/mol
# Density = 1.897636 g / cm^3
# Si number density = 19.019654 Si / 1000 Ang^3
#
#
#
# Elastic Constant Matrix: (Units=GPa)
#
#
# Indices 1 2 3 4 5 6 
#
# 1 121.2058 36.7101 69.0264 0.0000 0.0000 0.0000
# 2 36.7101 50.0007 49.3593 0.0000 0.0000 0.0000
# 3 69.0264 49.3593 166.0387 0.0000 0.0000 0.0000
# 4 0.0000 0.0000 0.0000 1.0266 0.0000 0.0000
# 5 0.0000 0.0000 0.0000 0.0000 10.9770 0.0000
# 6 0.0000 0.0000 0.0000 0.0000 0.0000 30.1108
#
#
#
# Elastic Compliance Matrix: (Units=1/GPa)
#
#
# Indices 1 2 3 4 5 6 
#
# 1 0.011752 -0.005386 -0.003285 0.000000 0.000000 0.000000
# 2 -0.005386 0.030775 -0.006910 0.000000 0.000000 0.000000
# 3 -0.003285 -0.006910 0.009442 0.000000 0.000000 0.000000
# 4 0.000000 0.000000 0.000000 0.974054 0.000000 0.000000
# 5 0.000000 0.000000 0.000000 0.000000 0.091099 0.000000
# 6 0.000000 0.000000 0.000000 0.000000 0.000000 0.033211
#
#
# Mechanical properties :
#
#
# Convention : Reuss Voigt Hill
#
# Bulk Modulus (GPa) = 48.05562 71.93741 59.99652
# Shear Modulus (GPa) = 4.20723 20.56620 12.38672
#
# Velocity S-wave (km/s) = 1.48891 3.29190 2.55475
# Velocity P-wave (km/s) = 5.31761 7.23558 6.34943
#
# Compressibility (1/GPa) = 0.02080922
#
# Stress axis : x y z
#
# Youngs Moduli (GPa) = 85.09004 32.49395 105.90723
#
# Poissons Ratio (x) = 0.17501 0.34786
# Poissons Ratio (y) = 0.45829 0.73177
# Poissons Ratio (z) = 0.27949 0.22452
#
# Static dielectric constant tensor:
#      x y z
#    x 1.697990 0.000000 0.000000 
#    y 0.000000 1.692550 0.000000 
#    z 0.000000 0.000000 1.701510 
# 
# From -- ./inp_files/32096.got.cif
#   From: 2010.05.17/outbox.cif.g08.bks.cpg/sg21_17_cif.got.tgz:32096.got - 2010.06.03 23:14:55.
