data_PCOD9322698
_publ_section_title
;
Structure prediction by ZEFSAII (Michael W. Deem and Ramdas Pophale) SiO2 
 PCOD9322698
Probable space group: C 2 2 2
;
_chemical_formula_sum "Si O2"
_cell_formula_units_Z 28
_cell_length_a 5.213742
_cell_length_b 32.671761
_cell_length_c 7.450022
_cell_angle_alpha 90.000000
_cell_angle_beta 90.000000
_cell_angle_gamma 90.000000
_cell_volume 1269.052635
_symmetry_space_group_name_H-M "C 2 2 2"
_symmetry_group_IT_number 21
_symmetry_cell_setting 'orthorhombic'
loop_
_space_group_symop_operation_xyz
x,y,z
-x,-y,z
x,-y,-z
-x,y,-z
1/2+x,1/2+y,z
1/2-x,1/2-y,z
1/2+x,1/2-y,-z
1/2-x,1/2+y,-z
loop_
_atom_site_type_symbol
_atom_site_label
_atom_site_fract_x
_atom_site_fract_y
_atom_site_fract_z
Si Si1 0.743200 0.481307 0.705679
Si Si2 0.000000 0.725277 0.500000
Si Si3 0.595983 0.162535 0.193304
Si Si4 0.590326 0.613818 0.297100
O O1 0.500000 0.500000 0.799325
O O2 0.745805 0.500000 0.500000
O O3 0.684058 0.433351 0.712927
O O4 0.000000 0.500000 0.784889
O O5 0.250000 0.750000 0.569649
O O6 0.121926 0.698171 0.339524
O O7 0.350044 0.137583 0.260560
O O8 0.847339 0.132760 0.186877
O O9 0.500000 0.178126 0.000000
O O10 0.500000 0.619942 0.500000
#
# Coordination Sequence:
#
# PCOD9322698 Si02
#       4
#     8   4   8   8
#     4  10  19  30  56 101 126 172 238 284 345 401
#     4  12  26  46  76 108 141 180 229 282 352 434
#     4  12  27  46  71 105 143 182 233 289 352 420
#     4  12  21  41  70 102 134 187 245 288 343 424
#
# _framework density 22.063703
#
# number of rings (size 3 to 8) (size 9 to 14) (size 15 to 20)
#    0.000    0.571    5.714    4.286    4.000    1.143 
#    0.000    0.000    0.000   12.857    0.000    0.000 
#    0.000    0.000    0.000    0.000    0.000    0.000 
#
# Total GULP energy -78054.470785 kJ/mol
# GULP energy per Si atom -5575.319342 kJ/mol
# Density = 2.201349 g / cm^3
# Si number density = 22.063703 Si / 1000 Ang^3
#
#
#
# Elastic Constant Matrix: (Units=GPa)
#
#
# Indices 1 2 3 4 5 6 
#
# 1 211.1632 42.7422 6.4350 0.0000 0.0000 0.0000
# 2 42.7422 92.1792 27.5961 0.0000 0.0000 0.0000
# 3 6.4350 27.5961 80.4906 0.0000 0.0000 0.0000
# 4 0.0000 0.0000 0.0000 -29.2944 0.0000 0.0000
# 5 0.0000 0.0000 0.0000 0.0000 9.6224 0.0000
# 6 0.0000 0.0000 0.0000 0.0000 0.0000 46.3444
#
#
#
# Elastic Compliance Matrix: (Units=1/GPa)
#
#
# Indices 1 2 3 4 5 6 
#
# 1 0.005242 -0.002569 0.000462 0.000000 0.000000 0.000000
# 2 -0.002569 0.013348 -0.004371 0.000000 0.000000 0.000000
# 3 0.000462 -0.004371 0.013886 0.000000 0.000000 0.000000
# 4 0.000000 0.000000 0.000000 -0.034136 0.000000 0.000000
# 5 0.000000 0.000000 0.000000 0.000000 0.103924 0.000000
# 6 0.000000 0.000000 0.000000 0.000000 0.000000 0.021578
#
#
# Mechanical properties :
#
#
# Convention : Reuss Voigt Hill
#
# Bulk Modulus (GPa) = 51.23208 59.70886 55.47047
# Shear Modulus (GPa) = 34.89118 25.80513 30.34815
#
# Velocity S-wave (km/s) = 3.98098 3.42361 3.71277
# Velocity P-wave (km/s) = 6.66344 6.53827 6.60115
#
# Compressibility (1/GPa) = 0.01951902
#
# Stress axis : x y z
#
# Youngs Moduli (GPa) = 190.78404 74.91742 72.01757
#
# Poissons Ratio (x) = 0.19243 -0.03324
# Poissons Ratio (y) = 0.49005 0.31479
# Poissons Ratio (z) = -0.08807 0.32746
#
# Static dielectric constant tensor:
#      x y z
#    x 1.868270 0.000000 0.000000 
#    y 0.000000 1.991050 0.000000 
#    z 0.000000 0.000000 1.870310 
# 
# From -- ./inp_files/8979.got.cif
#   From: 2010.05.17/outbox.cif.g08.bks.cpg/sg21_5_cif.got.tgz:8979.got - 2010.06.03 23:14:55.
