data_PCOD9322342
_publ_section_title
;
Structure prediction by ZEFSAII (Michael W. Deem and Ramdas Pophale) SiO2 
 PCOD9322342
Probable space group: C 2 2 2
;
_chemical_formula_sum "Si O2"
_cell_formula_units_Z 32
_cell_length_a 16.532896
_cell_length_b 10.897954
_cell_length_c 8.367200
_cell_angle_alpha 90.000000
_cell_angle_beta 90.000000
_cell_angle_gamma 90.000000
_cell_volume 1507.558085
_symmetry_space_group_name_H-M "C 2 2 2"
_symmetry_group_IT_number 21
_symmetry_cell_setting 'orthorhombic'
loop_
_space_group_symop_operation_xyz
x,y,z
-x,-y,z
x,-y,-z
-x,y,-z
1/2+x,1/2+y,z
1/2-x,1/2-y,z
1/2+x,1/2-y,-z
1/2-x,1/2+y,-z
loop_
_atom_site_type_symbol
_atom_site_label
_atom_site_fract_x
_atom_site_fract_y
_atom_site_fract_z
Si Si1 0.360115 0.958648 0.324507
Si Si2 0.500000 0.182245 0.500000
Si Si3 0.750000 0.250000 0.336912
Si Si4 0.372625 0.376194 0.419109
Si Si5 0.750342 0.392679 0.873510
O O1 0.445745 0.898686 0.376900
O O2 0.306042 0.849189 0.252892
O O3 0.328655 0.000000 0.500000
O O4 0.337272 0.070970 0.208862
O O5 0.440813 0.272302 0.402858
O O6 0.688681 0.321574 0.450568
O O7 0.405151 0.500000 0.500000
O O8 0.319483 0.400469 0.262370
O O9 0.750000 0.250000 0.924836
O O10 0.732860 0.500000 0.000000
#
# Coordination Sequence:
#
# PCOD9322342 Si02
#       5
#     8   4   4   8   8
#     4  11  20  39  65  99 129 167 218 274 334 389
#     4  10  24  34  72 104 134 163 217 288 344 393
#     4  10  16  32  68  96 120 158 218 274 314 382
#     4  11  19  39  65 102 133 170 219 277 337 394
#     4  12  25  40  66 100 136 180 231 275 327 402
#
# _framework density 21.226378
#
# number of rings (size 3 to 8) (size 9 to 14) (size 15 to 20)
#    0.000    1.000    6.250    2.250    1.750    0.000 
#    0.000    0.000    0.000   24.000    0.000    0.000 
#    0.000    0.000    0.000    0.000    0.000    0.000 
#
# Total GULP energy -89160.071331 kJ/mol
# GULP energy per Si atom -5572.504458 kJ/mol
# Density = 2.117807 g / cm^3
# Si number density = 21.226378 Si / 1000 Ang^3
#
#
#
# Elastic Constant Matrix: (Units=GPa)
#
#
# Indices 1 2 3 4 5 6 
#
# 1 123.4512 78.2511 24.6211 0.0000 0.0000 0.0000
# 2 78.2511 190.3404 61.2309 0.0000 0.0000 0.0000
# 3 24.6211 61.2309 64.0326 0.0000 0.0000 0.0000
# 4 0.0000 0.0000 0.0000 46.5027 0.0000 0.0000
# 5 0.0000 0.0000 0.0000 0.0000 18.5415 0.0000
# 6 0.0000 0.0000 0.0000 0.0000 0.0000 63.3599
#
#
#
# Elastic Compliance Matrix: (Units=1/GPa)
#
#
# Indices 1 2 3 4 5 6 
#
# 1 0.010956 -0.004548 0.000136 0.000000 0.000000 0.000000
# 2 -0.004548 0.009476 -0.007312 0.000000 0.000000 0.000000
# 3 0.000136 -0.007312 0.022557 0.000000 0.000000 0.000000
# 4 0.000000 0.000000 0.000000 0.021504 0.000000 0.000000
# 5 0.000000 0.000000 0.000000 0.000000 0.053933 0.000000
# 6 0.000000 0.000000 0.000000 0.000000 0.000000 0.015783
#
#
# Mechanical properties :
#
#
# Convention : Reuss Voigt Hill
#
# Bulk Modulus (GPa) = 51.17530 78.44783 64.81157
# Shear Modulus (GPa) = 30.45609 39.92889 35.19249
#
# Velocity S-wave (km/s) = 3.79201 4.34187 4.07622
# Velocity P-wave (km/s) = 6.58287 7.88503 7.26319
#
# Compressibility (1/GPa) = 0.01954068
#
# Stress axis : x y z
#
# Youngs Moduli (GPa) = 91.27436 105.53152 44.33182
#
# Poissons Ratio (x) = 0.47996 -0.00604
# Poissons Ratio (y) = 0.41511 0.32418
# Poissons Ratio (z) = -0.01244 0.77170
#
# Static dielectric constant tensor:
#      x y z
#    x 1.818850 0.000000 0.000000 
#    y 0.000000 1.855830 0.000000 
#    z 0.000000 0.000000 1.780890 
# 
# From -- ./inp_files/16041.got.cif
#   From: 2010.05.17/outbox.cif.g08.bks.cpg/sg21_9_cif.got.tgz:16041.got - 2010.06.03 23:14:55.
