data_PCOD9322906
_publ_section_title
;
Structure prediction by ZEFSAII (Michael W. Deem and Ramdas Pophale) SiO2 
 PCOD9322906
Probable space group: C 2 2 2
;
_chemical_formula_sum "Si O2"
_cell_formula_units_Z 28
_cell_length_a 13.559678
_cell_length_b 5.034911
_cell_length_c 19.116064
_cell_angle_alpha 90.000000
_cell_angle_beta 90.000000
_cell_angle_gamma 90.000000
_cell_volume 1305.087561
_symmetry_space_group_name_H-M "C 2 2 2"
_symmetry_group_IT_number 21
_symmetry_cell_setting 'orthorhombic'
loop_
_space_group_symop_operation_xyz
x,y,z
-x,-y,z
x,-y,-z
-x,y,-z
1/2+x,1/2+y,z
1/2-x,1/2-y,z
1/2+x,1/2-y,-z
1/2-x,1/2+y,-z
loop_
_atom_site_type_symbol
_atom_site_label
_atom_site_fract_x
_atom_site_fract_y
_atom_site_fract_z
Si Si1 0.322538 0.998971 0.227349
Si Si2 0.750000 0.250000 0.451456
Si Si3 0.562251 0.767443 0.642904
Si Si4 0.676918 0.998647 0.074835
O O1 0.250000 0.250000 0.240943
O O2 0.373368 0.021971 0.150778
O O3 0.250000 0.750000 0.222906
O O4 0.396306 0.922640 0.288945
O O5 0.772334 0.500000 0.500000
O O6 0.656512 0.312518 0.402788
O O7 0.500000 0.500000 0.658260
O O8 0.500000 0.000000 0.605148
O O9 0.750000 0.750000 0.073668
O O10 0.750000 0.250000 0.075238
O O11 0.621648 0.000000 0.000000
#
# Coordination Sequence:
#
# PCOD9322906 Si02
#       4
#     8   4   8   8
#     4  10  19  35  61  88 128 172 214 269 323 378
#     4  12  28  48  72  96 132 170 210 266 328 398
#     4  12  26  43  69  99 133 169 217 267 326 391
#     4   8  14  25  46  81 117 158 212 262 312 371
#
# _framework density 21.454498999999998
#
# number of rings (size 3 to 8) (size 9 to 14) (size 15 to 20)
#    0.000    1.714    1.429    3.429    2.000    3.429 
#    0.000    0.000    0.000    0.857    0.000    2.000 
#    0.000    0.000    0.000    0.000    0.000    0.000 
#
# Total GULP energy -78064.612260 kJ/mol
# GULP energy per Si atom -5576.043733 kJ/mol
# Density = 2.140567 g / cm^3
# Si number density = 21.454499 Si / 1000 Ang^3
#
#
#
# Elastic Constant Matrix: (Units=GPa)
#
#
# Indices 1 2 3 4 5 6 
#
# 1 91.6218 34.2530 51.2393 0.0000 0.0000 0.0000
# 2 34.2530 172.1347 25.4929 0.0000 0.0000 0.0000
# 3 51.2393 25.4929 141.5836 0.0000 0.0000 0.0000
# 4 0.0000 0.0000 0.0000 25.8892 0.0000 0.0000
# 5 0.0000 0.0000 0.0000 0.0000 -14.5981 0.0000
# 6 0.0000 0.0000 0.0000 0.0000 0.0000 28.6718
#
#
#
# Elastic Compliance Matrix: (Units=1/GPa)
#
#
# Indices 1 2 3 4 5 6 
#
# 1 0.014422 -0.002154 -0.004831 0.000000 0.000000 0.000000
# 2 -0.002154 0.006290 -0.000353 0.000000 0.000000 0.000000
# 3 -0.004831 -0.000353 0.008875 0.000000 0.000000 0.000000
# 4 0.000000 0.000000 0.000000 0.038626 0.000000 0.000000
# 5 0.000000 0.000000 0.000000 0.000000 -0.068502 0.000000
# 6 0.000000 0.000000 0.000000 0.000000 0.000000 0.034877
#
#
# Mechanical properties :
#
#
# Convention : Reuss Voigt Hill
#
# Bulk Modulus (GPa) = 67.06960 69.70117 68.38538
# Shear Modulus (GPa) = 92.19012 27.61625 59.90319
#
# Velocity S-wave (km/s) = 6.56227 3.59165 5.28977
# Velocity P-wave (km/s) = 9.42056 7.05396 8.32182
#
# Compressibility (1/GPa) = 0.01490989
#
# Stress axis : x y z
#
# Youngs Moduli (GPa) = 69.33987 158.97354 112.67616
#
# Poissons Ratio (x) = 0.34247 0.54438
# Poissons Ratio (y) = 0.14938 0.03977
# Poissons Ratio (z) = 0.33501 0.05612
#
# Static dielectric constant tensor:
#      x y z
#    x 1.787900 0.000000 0.000000 
#    y 0.000000 1.718590 0.000000 
#    z 0.000000 0.000000 1.901690 
# 
# From -- ./inp_files/36301.got.cif
#   From: 2010.05.17/outbox.cif.g08.bks.cpg/sg21_19_cif.got.tgz:36301.got - 2010.06.03 23:14:55.
