data_PCOD9322459
_publ_section_title
;
Structure prediction by ZEFSAII (Michael W. Deem and Ramdas Pophale) SiO2 
 PCOD9322459
Probable space group: C 2 2 2
;
_chemical_formula_sum "Si O2"
_cell_formula_units_Z 34
_cell_length_a 24.101321
_cell_length_b 5.173265
_cell_length_c 14.129851
_cell_angle_alpha 90.000000
_cell_angle_beta 90.000000
_cell_angle_gamma 90.000000
_cell_volume 1761.745435
_symmetry_space_group_name_H-M "C 2 2 2"
_symmetry_group_IT_number 21
_symmetry_cell_setting 'orthorhombic'
loop_
_space_group_symop_operation_xyz
x,y,z
-x,-y,z
x,-y,-z
-x,y,-z
1/2+x,1/2+y,z
1/2-x,1/2-y,z
1/2+x,1/2-y,-z
1/2-x,1/2+y,-z
loop_
_atom_site_type_symbol
_atom_site_label
_atom_site_fract_x
_atom_site_fract_y
_atom_site_fract_z
Si Si1 0.904206 0.279941 0.623534
Si Si2 0.250000 0.750000 0.343872
Si Si3 0.682231 0.000000 0.500000
Si Si4 0.500000 0.000000 0.500000
Si Si5 0.133268 0.796624 0.263403
Si Si6 0.184574 0.750421 0.065316
O O1 0.858998 0.277968 0.537882
O O2 0.887639 0.534760 0.685323
O O3 0.961388 0.329492 0.568890
O O4 0.900998 0.032855 0.691486
O O5 0.278000 0.953234 0.412860
O O6 0.197516 0.859558 0.289404
O O7 0.140601 0.757455 0.151261
O O8 0.250000 0.750000 0.097033
O O9 0.177027 0.500000 0.000000
O O10 0.177496 0.000000 0.000000
#
# Coordination Sequence:
#
# PCOD9322459 Si02
#       6
#     8   4   4   2   8   8
#     4  10  23  36  59  78 117 148 210 241 308 344
#     4  10  18  30  50  74 120 148 190 234 270 344
#     4   9  18  31  46  76 104 157 186 229 288 336
#     4  10  24  46  60  90 118 166 196 288 296 360
#     4  11  21  36  54  89 110 160 195 245 284 373
#     4  10  20  35  55  82 121 161 195 238 296 358
#
# _framework density 19.299043000000001
#
# number of rings (size 3 to 8) (size 9 to 14) (size 15 to 20)
#    0.000    1.882    1.176    2.824    0.000   12.235 
#    0.000    0.000    0.000    0.000    0.000   12.353 
#    0.000    0.000    0.000    0.000    0.000    0.000 
#
# Total GULP energy -94767.450988 kJ/mol
# GULP energy per Si atom -5574.555940 kJ/mol
# Density = 1.925512 g / cm^3
# Si number density = 19.299043 Si / 1000 Ang^3
#
#
#
# Elastic Constant Matrix: (Units=GPa)
#
#
# Indices 1 2 3 4 5 6 
#
# 1 87.0043 32.4019 41.4976 0.0000 0.0000 0.0000
# 2 32.4019 148.1576 64.0672 0.0000 0.0000 0.0000
# 3 41.4976 64.0672 124.6680 0.0000 0.0000 0.0000
# 4 0.0000 0.0000 0.0000 17.2414 0.0000 0.0000
# 5 0.0000 0.0000 0.0000 0.0000 35.6331 0.0000
# 6 0.0000 0.0000 0.0000 0.0000 0.0000 14.3809
#
#
#
# Elastic Compliance Matrix: (Units=1/GPa)
#
#
# Indices 1 2 3 4 5 6 
#
# 1 0.013865 -0.001333 -0.003930 0.000000 0.000000 0.000000
# 2 -0.001333 0.008806 -0.004082 0.000000 0.000000 0.000000
# 3 -0.003930 -0.004082 0.011427 0.000000 0.000000 0.000000
# 4 0.000000 0.000000 0.000000 0.058000 0.000000 0.000000
# 5 0.000000 0.000000 0.000000 0.000000 0.028064 0.000000
# 6 0.000000 0.000000 0.000000 0.000000 0.000000 0.069537
#
#
# Mechanical properties :
#
#
# Convention : Reuss Voigt Hill
#
# Bulk Modulus (GPa) = 64.89947 70.64037 67.76992
# Shear Modulus (GPa) = 23.41658 28.24195 25.82926
#
# Velocity S-wave (km/s) = 3.48710 3.82957 3.66234
# Velocity P-wave (km/s) = 7.06502 7.49911 7.28530
#
# Compressibility (1/GPa) = 0.01540845
#
# Stress axis : x y z
#
# Youngs Moduli (GPa) = 72.12659 113.55708 87.51030
#
# Poissons Ratio (x) = 0.15133 0.34393
# Poissons Ratio (y) = 0.09612 0.35721
# Poissons Ratio (z) = 0.28347 0.46353
#
# Static dielectric constant tensor:
#      x y z
#    x 1.710960 0.000000 0.000000 
#    y 0.000000 1.676590 0.000000 
#    z 0.000000 0.000000 1.701990 
# 
# From -- ./inp_files/27112.got.cif
#   From: 2010.05.17/outbox.cif.g08.bks.cpg/sg21_14_cif.got.tgz:27112.got - 2010.06.03 23:14:55.
