data_PCOD9322427
_publ_section_title
;
Structure prediction by ZEFSAII (Michael W. Deem and Ramdas Pophale) SiO2 
 PCOD9322427
Probable space group: C 2 2 2
;
_chemical_formula_sum "Si O2"
_cell_formula_units_Z 48
_cell_length_a 8.179818
_cell_length_b 13.515657
_cell_length_c 17.477332
_cell_angle_alpha 90.000000
_cell_angle_beta 90.000000
_cell_angle_gamma 90.000000
_cell_volume 1932.217178
_symmetry_space_group_name_H-M "C 2 2 2"
_symmetry_group_IT_number 21
_symmetry_cell_setting 'orthorhombic'
loop_
_space_group_symop_operation_xyz
x,y,z
-x,-y,z
x,-y,-z
-x,y,-z
1/2+x,1/2+y,z
1/2-x,1/2-y,z
1/2+x,1/2-y,-z
1/2-x,1/2+y,-z
loop_
_atom_site_type_symbol
_atom_site_label
_atom_site_fract_x
_atom_site_fract_y
_atom_site_fract_z
Si Si1 0.111455 0.626604 0.394224
Si Si2 0.678513 0.119466 0.091346
Si Si3 0.821321 0.379928 0.912543
Si Si4 0.736443 0.869585 0.434058
Si Si5 0.996400 0.879416 0.179734
Si Si6 0.052193 0.146631 0.649302
O O1 0.186484 0.607691 0.478709
O O2 0.084950 0.745038 0.385623
O O3 0.266462 0.599323 0.341931
O O4 0.922920 0.592049 0.387740
O O5 0.498613 0.148862 0.120006
O O6 0.835080 0.151725 0.139126
O O7 0.681933 0.999738 0.090819
O O8 0.688905 0.147195 0.001949
O O9 0.660530 0.347788 0.868634
O O10 0.750000 0.750000 0.428649
O O11 0.912444 0.902740 0.403254
O O12 0.982872 0.842617 0.266011
O O13 0.000000 0.000000 0.183063
#
# Coordination Sequence:
#
# PCOD9322427 Si02
#       6
#     8   8   8   8   8   8
#     4   9  17  29  48  69  85 106 149 201 239 262
#     4   8  14  26  44  63  86 124 166 196 213 252
#     4   8  14  26  44  62  87 124 166 197 214 247
#     4   9  15  28  49  70  82 103 143 196 244 267
#     4  10  19  28  40  66 104 133 145 174 237 297
#     4  10  18  27  45  70  96 114 143 189 241 282
#
# _framework density 24.841929
#
# number of rings (size 3 to 8) (size 9 to 14) (size 15 to 20)
#    0.000    3.000    1.667    2.000    0.000    3.333 
#    0.000    0.000    0.000    2.000    0.000    2.333 
#  100.000    0.000    0.000    0.000    0.000    0.000 
#
# Total GULP energy -134133.538367 kJ/mol
# GULP energy per Si atom -5588.897432 kJ/mol
# Density = 2.478539 g / cm^3
# Si number density = 24.841929 Si / 1000 Ang^3
#
#
#
# Elastic Constant Matrix: (Units=GPa)
#
#
# Indices 1 2 3 4 5 6 
#
# 1 235.7028 30.5333 84.9209 0.0000 0.0000 0.0000
# 2 30.5333 99.1454 -8.6947 0.0000 0.0000 0.0000
# 3 84.9209 -8.6947 89.7909 0.0000 0.0000 0.0000
# 4 0.0000 0.0000 0.0000 -5.0197 0.0000 0.0000
# 5 0.0000 0.0000 0.0000 0.0000 225.2265 0.0000
# 6 0.0000 0.0000 0.0000 0.0000 0.0000 41.1914
#
#
#
# Elastic Compliance Matrix: (Units=1/GPa)
#
#
# Indices 1 2 3 4 5 6 
#
# 1 0.007137 -0.002814 -0.007023 0.000000 0.000000 0.000000
# 2 -0.002814 0.011282 0.003754 0.000000 0.000000 0.000000
# 3 -0.007023 0.003754 0.018142 0.000000 0.000000 0.000000
# 4 0.000000 0.000000 0.000000 -0.199215 0.000000 0.000000
# 5 0.000000 0.000000 0.000000 0.000000 0.004440 0.000000
# 6 0.000000 0.000000 0.000000 0.000000 0.000000 0.024277
#
#
# Mechanical properties :
#
#
# Convention : Reuss Voigt Hill
#
# Bulk Modulus (GPa) = 40.99051 70.90646 55.94849
# Shear Modulus (GPa) = -43.99910 73.47162 14.73626
#
# Velocity S-wave (km/s) = -4.21308 5.44425 2.43821
# Velocity P-wave (km/s) = 2.67028 8.25378 5.52243
#
# Compressibility (1/GPa) = 0.02439589
#
# Stress axis : x y z
#
# Youngs Moduli (GPa) = 140.10787 88.63688 55.11978
#
# Poissons Ratio (x) = 0.24942 0.38709
# Poissons Ratio (y) = 0.39425 -0.20691
# Poissons Ratio (z) = 0.98394 -0.33272
#
# Static dielectric constant tensor:
#      x y z
#    x 2.018530 0.000000 0.000000 
#    y 0.000000 2.070350 0.000000 
#    z 0.000000 0.000000 1.886130 
# 
# From -- ./inp_files/30820.got.cif
#   From: 2010.05.17/outbox.cif.g08.bks.cpg/sg21_16_cif.got.tgz:30820.got - 2010.06.03 23:14:55.
