data_PCOD9322058
_publ_section_title
;
Structure prediction by ZEFSAII (Michael W. Deem and Ramdas Pophale) SiO2 
 PCOD9322058
Probable space group: C 2 2 21
;
_chemical_formula_sum "Si O2"
_cell_formula_units_Z 32
_cell_length_a 13.356870
_cell_length_b 18.268929
_cell_length_c 5.660450
_cell_angle_alpha 90.000000
_cell_angle_beta 90.000000
_cell_angle_gamma 90.000000
_cell_volume 1381.238724
_symmetry_space_group_name_H-M "C 2 2 21"
_symmetry_group_IT_number 20
_symmetry_cell_setting 'orthorhombic'
loop_
_space_group_symop_operation_xyz
x,y,z
-x,-y,1/2+z
x,-y,-z
-x,y,1/2-z
1/2+x,1/2+y,z
1/2-x,1/2-y,1/2+z
1/2+x,1/2-y,-z
1/2-x,1/2+y,1/2-z
loop_
_atom_site_type_symbol
_atom_site_label
_atom_site_fract_x
_atom_site_fract_y
_atom_site_fract_z
Si Si1 0.176278 0.500000 0.000000
Si Si2 0.500000 0.317669 0.250000
Si Si3 0.816093 0.861017 0.968881
Si Si4 0.157049 0.241869 0.099462
Si Si5 0.000000 0.652902 0.750000
Si Si6 0.500000 0.065728 0.250000
O O1 0.247661 0.429898 0.027816
O O2 0.101027 0.482205 0.782400
O O3 0.573568 0.363698 0.419869
O O4 0.421671 0.267697 0.389479
O O5 0.825519 0.840174 0.692996
O O6 0.755103 0.788244 0.047307
O O7 0.094992 0.293811 0.274577
O O8 0.997011 0.609756 0.499209
#
# Coordination Sequence:
#
# PCOD9322058 Si02
#       6
#     4   4   8   8   4   4
#     4  12  30  50  78 120 172 212 272 346 432 500
#     4  12  25  50  74 116 157 210 284 334 411 502
#     4  12  27  48  75 116 156 216 267 341 417 501
#     4  12  25  44  82 115 152 207 276 342 407 492
#     4  12  25  48  86 118 159 204 278 344 409 488
#     4  12  28  52  78 122 164 212 266 348 424 496
#
# _framework density 23.167608999999999
#
# number of rings (size 3 to 8) (size 9 to 14) (size 15 to 20)
#    0.000    0.000    7.500    1.500    3.500    0.000 
#    9.000    0.000    0.000    0.000    0.000    0.000 
#    0.000    0.000    0.000    0.000    0.000    0.000 
#
# Total GULP energy -89315.485491 kJ/mol
# GULP energy per Si atom -5582.217843 kJ/mol
# Density = 2.311488 g / cm^3
# Si number density = 23.167609 Si / 1000 Ang^3
#
#
#
# Elastic Constant Matrix: (Units=GPa)
#
#
# Indices 1 2 3 4 5 6 
#
# 1 169.3306 56.9764 41.5329 0.0000 0.0000 0.0000
# 2 56.9764 117.2628 53.6138 0.0000 0.0000 0.0000
# 3 41.5329 53.6138 86.6164 0.0000 0.0000 0.0000
# 4 0.0000 0.0000 0.0000 28.0469 0.0000 0.0000
# 5 0.0000 0.0000 0.0000 0.0000 52.6412 0.0000
# 6 0.0000 0.0000 0.0000 0.0000 0.0000 -7.0079
#
#
#
# Elastic Compliance Matrix: (Units=1/GPa)
#
#
# Indices 1 2 3 4 5 6 
#
# 1 0.007258 -0.002699 -0.001809 0.000000 0.000000 0.000000
# 2 -0.002699 0.012898 -0.006689 0.000000 0.000000 0.000000
# 3 -0.001809 -0.006689 0.016553 0.000000 0.000000 0.000000
# 4 0.000000 0.000000 0.000000 0.035655 0.000000 0.000000
# 5 0.000000 0.000000 0.000000 0.000000 0.018997 0.000000
# 6 0.000000 0.000000 0.000000 0.000000 0.000000 -0.142696
#
#
# Mechanical properties :
#
#
# Convention : Reuss Voigt Hill
#
# Bulk Modulus (GPa) = 69.86549 75.27291 72.56920
# Shear Modulus (GPa) = -206.86665 29.47515 -88.69575
#
# Velocity S-wave (km/s) = -9.45966 3.57074 -6.19415
# Velocity P-wave (km/s) = 9.43883 7.03998 4.44579
#
# Compressibility (1/GPa) = 0.01431322
#
# Stress axis : x y z
#
# Youngs Moduli (GPa) = 137.78663 77.53329 60.41127
#
# Poissons Ratio (x) = 0.20927 0.10930
# Poissons Ratio (y) = 0.37190 0.40410
# Poissons Ratio (z) = 0.24930 0.51863
#
# Static dielectric constant tensor:
#      x y z
#    x 1.919700 0.000000 0.000000 
#    y 0.000000 1.917480 0.000000 
#    z 0.000000 0.000000 2.165090 
# 
# From -- ./inp_files/1081.got.cif
#   From: 2010.05.17/outbox.cif.g08.bks.cpg/sg20_1_cif.got.tgz:1081.got - 2010.06.03 22:52:26.
