data_PCOD9322272
_publ_section_title
;
Structure prediction by ZEFSAII (Michael W. Deem and Ramdas Pophale) SiO2 
 PCOD9322272
Probable space group: C 2 2 2
;
_chemical_formula_sum "Si O2"
_cell_formula_units_Z 48
_cell_length_a 9.207550
_cell_length_b 30.050104
_cell_length_c 7.970800
_cell_angle_alpha 90.000000
_cell_angle_beta 90.000000
_cell_angle_gamma 90.000000
_cell_volume 2205.423396
_symmetry_space_group_name_H-M "C 2 2 2"
_symmetry_group_IT_number 21
_symmetry_cell_setting 'orthorhombic'
loop_
_space_group_symop_operation_xyz
x,y,z
-x,-y,z
x,-y,-z
-x,y,-z
1/2+x,1/2+y,z
1/2-x,1/2-y,z
1/2+x,1/2-y,-z
1/2-x,1/2+y,-z
loop_
_atom_site_type_symbol
_atom_site_label
_atom_site_fract_x
_atom_site_fract_y
_atom_site_fract_z
Si Si1 0.000000 0.500000 0.743478
Si Si2 0.760421 0.942576 0.902617
Si Si3 0.624081 0.152291 0.737544
Si Si4 0.750000 0.250000 0.276175
Si Si5 0.801225 0.654446 0.882851
Si Si6 0.500000 0.224611 0.500000
Si Si7 0.000000 0.000000 0.712038
Si Si8 0.751021 0.439066 0.690667
O O1 0.109409 0.466371 0.844906
O O2 0.110215 0.531490 0.645850
O O3 0.781251 0.891479 0.845221
O O4 0.758707 0.940965 0.104822
O O5 0.889849 0.971077 0.825094
O O6 0.459481 0.143076 0.802505
O O7 0.603849 0.193035 0.611897
O O8 0.707046 0.111456 0.649601
O O9 0.699184 0.160534 0.915983
O O10 0.758967 0.297142 0.182652
O O11 0.604053 0.252526 0.383643
O O12 0.891766 0.036016 0.625470
#
# Coordination Sequence:
#
# PCOD9322272 Si02
#       8
#     4   8   8   4   8   4   4   8
#     4  10  15  22  46  77 106 147 196 239 298 351
#     4  10  16  26  44  77 116 152 186 238 299 355
#     4   9  18  34  59  86 115 152 199 249 300 362
#     4  10  22  42  64  88 116 156 202 258 310 372
#     4   9  18  34  59  87 116 149 200 256 301 349
#     4  10  22  42  64  87 118 159 204 248 314 380
#     4  10  19  26  42  78 131 158 185 238 305 362
#     4  10  16  26  44  76 115 152 188 237 293 355
#
# _framework density 21.764529
#
# number of rings (size 3 to 8) (size 9 to 14) (size 15 to 20)
#    0.000    2.333    1.667    4.000    0.000    0.667 
#    3.000    0.000   11.000    0.500    0.000    4.667 
#    0.000    0.000    0.000    0.000    0.000    0.000 
#
# Total GULP energy -133895.611954 kJ/mol
# GULP energy per Si atom -5578.983831 kJ/mol
# Density = 2.171499 g / cm^3
# Si number density = 21.764529 Si / 1000 Ang^3
#
#
#
# Elastic Constant Matrix: (Units=GPa)
#
#
# Indices 1 2 3 4 5 6 
#
# 1 122.4065 71.4247 28.0383 0.0000 0.0000 0.0000
# 2 71.4247 173.4632 40.4985 0.0000 0.0000 0.0000
# 3 28.0383 40.4985 43.4075 0.0000 0.0000 0.0000
# 4 0.0000 0.0000 0.0000 162.6688 0.0000 0.0000
# 5 0.0000 0.0000 0.0000 0.0000 18.4435 0.0000
# 6 0.0000 0.0000 0.0000 0.0000 0.0000 34.3237
#
#
#
# Elastic Compliance Matrix: (Units=1/GPa)
#
#
# Indices 1 2 3 4 5 6 
#
# 1 0.011211 -0.003740 -0.003752 0.000000 0.000000 0.000000
# 2 -0.003740 0.008618 -0.005625 0.000000 0.000000 0.000000
# 3 -0.003752 -0.005625 0.030709 0.000000 0.000000 0.000000
# 4 0.000000 0.000000 0.000000 0.006147 0.000000 0.000000
# 5 0.000000 0.000000 0.000000 0.000000 0.054220 0.000000
# 6 0.000000 0.000000 0.000000 0.000000 0.000000 0.029134
#
#
# Mechanical properties :
#
#
# Convention : Reuss Voigt Hill
#
# Bulk Modulus (GPa) = 41.14516 68.80002 54.97259
# Shear Modulus (GPa) = 28.67373 56.37493 42.52433
#
# Velocity S-wave (km/s) = 3.63361 5.09494 4.42502
# Velocity P-wave (km/s) = 6.04565 8.14193 7.17080
#
# Compressibility (1/GPa) = 0.02430419
#
# Stress axis : x y z
#
# Youngs Moduli (GPa) = 89.19419 116.03308 32.56398
#
# Poissons Ratio (x) = 0.43401 0.12218
# Poissons Ratio (y) = 0.33362 0.18316
# Poissons Ratio (z) = 0.33467 0.65264
#
# Static dielectric constant tensor:
#      x y z
#    x 1.779070 0.000000 0.000000 
#    y 0.000000 1.794800 0.000000 
#    z 0.000000 0.000000 1.866930 
# 
# From -- ./inp_files/11608.got.cif
#   From: 2010.05.17/outbox.cif.g08.bks.cpg/sg21_6_cif.got.tgz:11608.got - 2010.06.03 23:14:55.
