data_PCOD9322313
_publ_section_title
;
Structure prediction by ZEFSAII (Michael W. Deem and Ramdas Pophale) SiO2 
 PCOD9322313
Probable space group: C 2 2 2
;
_chemical_formula_sum "Si O2"
_cell_formula_units_Z 40
_cell_length_a 15.235951
_cell_length_b 18.430986
_cell_length_c 9.065418
_cell_angle_alpha 90.000000
_cell_angle_beta 90.000000
_cell_angle_gamma 90.000000
_cell_volume 2545.692660
_symmetry_space_group_name_H-M "C 2 2 2"
_symmetry_group_IT_number 21
_symmetry_cell_setting 'orthorhombic'
loop_
_space_group_symop_operation_xyz
x,y,z
-x,-y,z
x,-y,-z
-x,y,-z
1/2+x,1/2+y,z
1/2-x,1/2-y,z
1/2+x,1/2-y,-z
1/2-x,1/2+y,-z
loop_
_atom_site_type_symbol
_atom_site_label
_atom_site_fract_x
_atom_site_fract_y
_atom_site_fract_z
Si Si1 0.241433 0.078191 0.467549
Si Si2 0.490897 0.714823 0.826005
Si Si3 0.450410 0.573596 0.654356
Si Si4 0.163089 0.287053 0.334085
Si Si5 0.330994 0.705228 0.353296
O O1 0.151622 0.061395 0.379504
O O2 0.306788 0.132636 0.382049
O O3 0.204722 0.124872 0.607406
O O4 0.282160 0.000000 0.500000
O O5 0.454910 0.636673 0.773552
O O6 0.423083 0.774366 0.761889
O O7 0.585139 0.715171 0.747023
O O8 0.500000 0.720838 0.000000
O O9 0.500000 0.500000 0.698966
O O10 0.500000 0.596102 0.500000
O O11 0.250000 0.250000 0.263452
O O12 0.149392 0.241292 0.486084
O O13 0.250000 0.750000 0.288897
#
# Coordination Sequence:
#
# PCOD9322313 Si02
#       5
#     8   8   8   8   8
#     4  10  16  29  56  81  99 128 173 226 274 305
#     4  12  21  31  48  75 112 146 174 211 260 332
#     4  11  17  29  53  76 107 136 169 216 274 326
#     4   9  18  32  53  73 103 135 176 221 259 311
#     4   9  18  33  52  73  98 130 175 225 258 303
#
# _framework density 15.712816
#
# number of rings (size 3 to 8) (size 9 to 14) (size 15 to 20)
#    0.000    2.200    8.000    0.600    0.000    1.200 
#    0.000    0.000    0.000    9.600    0.000    5.600 
#    0.000    0.000    0.000    0.000    0.000    0.000 
#
# Total GULP energy -111343.445872 kJ/mol
# GULP energy per Si atom -5567.172294 kJ/mol
# Density = 1.567705 g / cm^3
# Si number density = 15.712816 Si / 1000 Ang^3
#
#
#
# Elastic Constant Matrix: (Units=GPa)
#
#
# Indices 1 2 3 4 5 6 
#
# 1 79.1517 46.1539 37.9567 0.0000 0.0000 0.0000
# 2 46.1539 125.6613 28.7683 0.0000 0.0000 0.0000
# 3 37.9567 28.7683 62.6400 0.0000 0.0000 0.0000
# 4 0.0000 0.0000 0.0000 12.7066 0.0000 0.0000
# 5 0.0000 0.0000 0.0000 0.0000 4.5433 0.0000
# 6 0.0000 0.0000 0.0000 0.0000 0.0000 25.5238
#
#
#
# Elastic Compliance Matrix: (Units=1/GPa)
#
#
# Indices 1 2 3 4 5 6 
#
# 1 0.020485 -0.005232 -0.010010 0.000000 0.000000 0.000000
# 2 -0.005232 0.010229 -0.001527 0.000000 0.000000 0.000000
# 3 -0.010010 -0.001527 0.022731 0.000000 0.000000 0.000000
# 4 0.000000 0.000000 0.000000 0.078699 0.000000 0.000000
# 5 0.000000 0.000000 0.000000 0.000000 0.220102 0.000000
# 6 0.000000 0.000000 0.000000 0.000000 0.000000 0.039179
#
#
# Mechanical properties :
#
#
# Convention : Reuss Voigt Hill
#
# Bulk Modulus (GPa) = 50.23527 54.80119 52.51823
# Shear Modulus (GPa) = 11.58478 18.85971 15.22224
#
# Velocity S-wave (km/s) = 2.71824 3.46826 3.11590
# Velocity P-wave (km/s) = 6.47241 7.14079 6.81480
#
# Compressibility (1/GPa) = 0.01990633
#
# Stress axis : x y z
#
# Youngs Moduli (GPa) = 48.81576 97.75783 43.99224
#
# Poissons Ratio (x) = 0.51150 0.44036
# Poissons Ratio (y) = 0.25542 0.06720
# Poissons Ratio (z) = 0.48864 0.14932
#
# Static dielectric constant tensor:
#      x y z
#    x 1.551560 0.000000 0.000000 
#    y 0.000000 1.565710 0.000000 
#    z 0.000000 0.000000 1.514080 
# 
# From -- ./inp_files/14753.got.cif
#   From: 2010.05.17/outbox.cif.g08.bks.cpg/sg21_8_cif.got.tgz:14753.got - 2010.06.03 23:14:55.
