data_PCOD9322089
_publ_section_title
;
Structure prediction by ZEFSAII (Michael W. Deem and Ramdas Pophale) SiO2 
 PCOD9322089
Probable space group: C 2 2 21
;
_chemical_formula_sum "Si O2"
_cell_formula_units_Z 52
_cell_length_a 17.706802
_cell_length_b 12.307303
_cell_length_c 9.383110
_cell_angle_alpha 90.000000
_cell_angle_beta 90.000000
_cell_angle_gamma 90.000000
_cell_volume 2044.795268
_symmetry_space_group_name_H-M "C 2 2 21"
_symmetry_group_IT_number 20
_symmetry_cell_setting 'orthorhombic'
loop_
_space_group_symop_operation_xyz
x,y,z
-x,-y,1/2+z
x,-y,-z
-x,y,1/2-z
1/2+x,1/2+y,z
1/2-x,1/2-y,1/2+z
1/2+x,1/2-y,-z
1/2-x,1/2+y,1/2-z
loop_
_atom_site_type_symbol
_atom_site_label
_atom_site_fract_x
_atom_site_fract_y
_atom_site_fract_z
Si Si1 0.005979 0.500000 0.000000
Si Si2 0.321779 0.500000 0.000000
Si Si3 0.187977 0.681766 0.556364
Si Si4 0.294674 0.136716 0.393580
Si Si5 0.808717 0.000000 0.500000
Si Si6 0.613272 0.833652 0.167735
Si Si7 0.425378 0.818002 0.818512
Si Si8 0.085983 0.083212 0.245545
O O1 0.054881 0.582989 0.903456
O O2 0.958634 0.579247 0.099627
O O3 0.253055 0.473258 0.883662
O O4 0.381718 0.432179 0.904777
O O5 0.250937 0.600840 0.497696
O O6 0.318481 0.833071 0.445391
O O7 0.136444 0.626503 0.675808
O O8 0.134340 0.731526 0.432744
O O9 0.235015 0.229326 0.355293
O O10 0.370491 0.143959 0.306492
O O11 0.863633 0.012340 0.363999
O O12 0.586153 0.709022 0.190877
O O13 0.500000 0.760523 0.750000
O O14 0.000000 0.045261 0.250000
#
# Coordination Sequence:
#
# PCOD9322089 Si02
#       8
#     4   4   8   8   4   8   8   8
#     4  12  30  48  82 122 176 214 258 364 432 506
#     4  12  26  52  83 115 160 224 276 348 416 502
#     4  12  27  50  82 115 166 216 277 348 421 512
#     4  12  25  52  82 119 164 215 283 342 422 512
#     4  12  26  52  79 111 158 220 272 352 418 504
#     4  12  27  49  79 118 165 214 274 340 435 503
#     4  12  29  48  76 126 164 212 269 337 426 504
#     4  12  28  51  80 115 161 215 289 347 410 500
#
# _framework density 25.430420000000002
#
# number of rings (size 3 to 8) (size 9 to 14) (size 15 to 20)
#    0.000    0.000    4.615    4.154    6.462    0.000 
#    0.000    3.077    0.000    0.000    0.000    0.000 
#    0.000    0.000    0.000    0.000    0.000    0.000 
#
# Total GULP energy -145049.057733 kJ/mol
# GULP energy per Si atom -5578.809913 kJ/mol
# Density = 2.537254 g / cm^3
# Si number density = 25.430420 Si / 1000 Ang^3
#
#
#
# Elastic Constant Matrix: (Units=GPa)
#
#
# Indices 1 2 3 4 5 6 
#
# 1 187.2806 34.8759 69.3274 0.0000 0.0000 0.0000
# 2 34.8759 66.6380 34.1880 0.0000 0.0000 0.0000
# 3 69.3274 34.1880 137.9617 0.0000 0.0000 0.0000
# 4 0.0000 0.0000 0.0000 21.8953 0.0000 0.0000
# 5 0.0000 0.0000 0.0000 0.0000 59.3551 0.0000
# 6 0.0000 0.0000 0.0000 0.0000 0.0000 22.5460
#
#
#
# Elastic Compliance Matrix: (Units=1/GPa)
#
#
# Indices 1 2 3 4 5 6 
#
# 1 0.006800 -0.002069 -0.002904 0.000000 0.000000 0.000000
# 2 -0.002069 0.017822 -0.003377 0.000000 0.000000 0.000000
# 3 -0.002904 -0.003377 0.009545 0.000000 0.000000 0.000000
# 4 0.000000 0.000000 0.000000 0.045672 0.000000 0.000000
# 5 0.000000 0.000000 0.000000 0.000000 0.016848 0.000000
# 6 0.000000 0.000000 0.000000 0.000000 0.000000 0.044354
#
#
# Mechanical properties :
#
#
# Convention : Reuss Voigt Hill
#
# Bulk Modulus (GPa) = 57.25286 74.29585 65.77435
# Shear Modulus (GPa) = 30.56954 37.65857 34.11405
#
# Velocity S-wave (km/s) = 3.47087 3.85235 3.66658
# Velocity P-wave (km/s) = 6.21490 7.00473 6.62160
#
# Compressibility (1/GPa) = 0.01746638
#
# Stress axis : x y z
#
# Youngs Moduli (GPa) = 147.05905 56.11171 104.77051
#
# Poissons Ratio (x) = 0.11608 0.30430
# Poissons Ratio (y) = 0.30423 0.35378
# Poissons Ratio (z) = 0.42712 0.18947
#
# Static dielectric constant tensor:
#      x y z
#    x 2.047220 0.000000 0.000000 
#    y 0.000000 2.048130 0.000000 
#    z 0.000000 0.000000 2.029760 
# 
# From -- ./inp_files/9568.got.cif
#   From: 2010.05.17/outbox.cif.g08.bks.cpg/sg20_5_cif.got.tgz:9568.got - 2010.06.03 22:52:26.
