data_PCOD9322279
_publ_section_title
;
Structure prediction by ZEFSAII (Michael W. Deem and Ramdas Pophale) SiO2 
 PCOD9322279
Probable space group: C 2 2 2
;
_chemical_formula_sum "Si O2"
_cell_formula_units_Z 58
_cell_length_a 5.444194
_cell_length_b 19.317554
_cell_length_c 30.202117
_cell_angle_alpha 90.000000
_cell_angle_beta 90.000000
_cell_angle_gamma 90.000000
_cell_volume 3176.311691
_symmetry_space_group_name_H-M "C 2 2 2"
_symmetry_group_IT_number 21
_symmetry_cell_setting 'orthorhombic'
loop_
_space_group_symop_operation_xyz
x,y,z
-x,-y,z
x,-y,-z
-x,y,-z
1/2+x,1/2+y,z
1/2-x,1/2-y,z
1/2+x,1/2-y,-z
1/2-x,1/2+y,-z
loop_
_atom_site_type_symbol
_atom_site_label
_atom_site_fract_x
_atom_site_fract_y
_atom_site_fract_z
Si Si1 0.749961 0.829975 0.971460
Si Si2 0.252534 0.084844 0.235011
Si Si3 0.662683 0.068508 0.571641
Si Si4 0.248090 0.926999 0.198567
Si Si5 0.497977 0.782848 0.447260
Si Si6 0.000000 0.000000 0.500000
Si Si7 0.746906 0.455127 0.669417
Si Si8 0.249324 0.042313 0.905969
O O1 0.750000 0.750000 0.955712
O O2 0.749486 0.886497 0.932935
O O3 0.500000 0.839353 0.000000
O O4 0.000000 0.839392 0.000000
O O5 0.501896 0.110504 0.212566
O O6 0.258482 0.093407 0.287670
O O7 0.000007 0.110467 0.213696
O O8 0.250644 0.001675 0.223845
O O9 0.506373 0.135448 0.559990
O O10 0.772629 0.077869 0.620658
O O11 0.500000 0.000000 0.573736
O O12 0.851086 0.050717 0.532608
O O13 0.245707 0.943065 0.146645
O O14 0.500000 0.769391 0.500000
O O15 0.750000 0.750000 0.429268
O O16 0.250000 0.750000 0.428665
O O17 0.500000 0.500000 0.675060
O O18 0.000000 0.500000 0.670681
O O19 0.500000 0.000000 0.915873
O O20 0.000000 0.000000 0.916819
#
# Coordination Sequence:
#
# PCOD9322279 Si02
#       8
#     8   8   8   8   8   2   8   8
#     4  10  23  42  57  73 109 161 197 222 272 341
#     4  10  15  28  47  69 114 145 167 214 285 337
#     4  11  25  37  57  87 120 146 192 238 291 337
#     4  10  16  27  46  75 112 138 167 223 289 323
#     4  10  23  40  61  80 106 148 192 226 273 338
#     4  12  22  36  60  82 128 152 180 248 322 320
#     4  11  19  31  49  78 110 144 186 218 267 339
#     4  12  21  32  55  88 114 135 185 243 290 324
#
# _framework density 18.260171
#
# number of rings (size 3 to 8) (size 9 to 14) (size 15 to 20)
#    0.000    1.379    6.207    1.862    4.828    1.655 
#    0.000    0.000    0.000    0.000    0.000    2.897 
#    0.000    0.000    0.000    0.000    0.000    0.000 
#
# Total GULP energy -161705.462255 kJ/mol
# GULP energy per Si atom -5576.050423 kJ/mol
# Density = 1.821861 g / cm^3
# Si number density = 18.260171 Si / 1000 Ang^3
#
#
#
# Elastic Constant Matrix: (Units=GPa)
#
#
# Indices 1 2 3 4 5 6 
#
# 1 173.2818 51.4013 40.5448 0.0000 0.0000 0.0000
# 2 51.4013 60.1746 41.7625 0.0000 0.0000 0.0000
# 3 40.5448 41.7625 102.8354 0.0000 0.0000 0.0000
# 4 0.0000 0.0000 0.0000 0.2205 0.0000 0.0000
# 5 0.0000 0.0000 0.0000 0.0000 21.1430 0.0000
# 6 0.0000 0.0000 0.0000 0.0000 0.0000 18.4009
#
#
#
# Elastic Compliance Matrix: (Units=1/GPa)
#
#
# Indices 1 2 3 4 5 6 
#
# 1 0.007749 -0.006264 -0.000511 0.000000 0.000000 0.000000
# 2 -0.006264 0.028205 -0.008984 0.000000 0.000000 0.000000
# 3 -0.000511 -0.008984 0.013574 0.000000 0.000000 0.000000
# 4 0.000000 0.000000 0.000000 4.535733 0.000000 0.000000
# 5 0.000000 0.000000 0.000000 0.000000 0.047297 0.000000
# 6 0.000000 0.000000 0.000000 0.000000 0.000000 0.054345
#
#
# Mechanical properties :
#
#
# Convention : Reuss Voigt Hill
#
# Bulk Modulus (GPa) = 55.52999 67.07879 61.30439
# Shear Modulus (GPa) = 1.05833 21.45843 11.25838
#
# Velocity S-wave (km/s) = 0.76213 3.43176 2.48574
# Velocity P-wave (km/s) = 5.59025 7.24689 6.47180
#
# Compressibility (1/GPa) = 0.01800829
#
# Stress axis : x y z
#
# Youngs Moduli (GPa) = 129.05338 35.45520 73.66788
#
# Poissons Ratio (x) = 0.22210 0.03765
# Poissons Ratio (y) = 0.80843 0.66186
# Poissons Ratio (z) = 0.06596 0.31854
#
# Static dielectric constant tensor:
#      x y z
#    x 1.698480 0.000000 0.000000 
#    y 0.000000 1.589090 0.000000 
#    z 0.000000 0.000000 1.634160 
# 
# From -- ./inp_files/39158.got.cif
#   From: 2010.05.17/outbox.cif.g08.bks.cpg/sg21_20_cif.got.tgz:39158.got - 2010.06.03 23:14:55.
