data_PCOD9322337
_publ_section_title
;
Structure prediction by ZEFSAII (Michael W. Deem and Ramdas Pophale) SiO2 
 PCOD9322337
Probable space group: C 2 2 2
;
_chemical_formula_sum "Si O2"
_cell_formula_units_Z 40
_cell_length_a 27.873898
_cell_length_b 11.848522
_cell_length_c 5.180036
_cell_angle_alpha 90.000000
_cell_angle_beta 90.000000
_cell_angle_gamma 90.000000
_cell_volume 1710.781967
_symmetry_space_group_name_H-M "C 2 2 2"
_symmetry_group_IT_number 21
_symmetry_cell_setting 'orthorhombic'
loop_
_space_group_symop_operation_xyz
x,y,z
-x,-y,z
x,-y,-z
-x,y,-z
1/2+x,1/2+y,z
1/2-x,1/2-y,z
1/2+x,1/2-y,-z
1/2-x,1/2+y,-z
loop_
_atom_site_type_symbol
_atom_site_label
_atom_site_fract_x
_atom_site_fract_y
_atom_site_fract_z
Si Si1 0.734138 0.074402 0.253401
Si Si2 0.445555 0.052075 0.251294
Si Si3 0.532088 0.682681 0.252056
Si Si4 0.132414 0.118343 0.125476
Si Si5 0.172870 0.781790 0.342157
O O1 0.781336 0.151898 0.222567
O O2 0.689960 0.153537 0.336391
O O3 0.745548 0.000000 0.500000
O O4 0.725506 0.000000 0.000000
O O5 0.450028 0.186301 0.262101
O O6 0.500000 0.000000 0.250555
O O7 0.421021 0.000000 0.500000
O O8 0.421793 0.000000 0.000000
O O9 0.500000 0.660570 0.500000
O O10 0.578770 0.605917 0.231726
O O11 0.500000 0.670243 0.000000
O O12 0.161037 0.169376 0.372532
O O13 0.132202 0.199466 0.873997
O O14 0.148738 0.000000 0.000000
#
# Coordination Sequence:
#
# PCOD9322337 Si02
#       5
#     8   8   8   8   8
#     4  11  22  41  74 104 140 177 223 277 336 422
#     4  10  16  32  58  84 114 150 204 269 321 422
#     4  12  23  40  65  92 125 171 233 290 339 408
#     4  12  26  45  66  94 137 179 235 292 349 416
#     4  11  24  44  69 102 138 184 226 273 348 425
#
# _framework density 23.381119999999999
#
# number of rings (size 3 to 8) (size 9 to 14) (size 15 to 20)
#    0.000    0.800    4.000    6.000    0.000    3.600 
#    0.000    7.000    0.000    0.000    0.000    0.000 
#    0.000    0.000    0.000    0.000    0.000    0.000 
#
# Total GULP energy -111832.212767 kJ/mol
# GULP energy per Si atom -5591.610638 kJ/mol
# Density = 2.332790 g / cm^3
# Si number density = 23.381120 Si / 1000 Ang^3
#
#
#
# Elastic Constant Matrix: (Units=GPa)
#
#
# Indices 1 2 3 4 5 6 
#
# 1 46.0255 17.5082 26.0571 0.0000 0.0000 0.0000
# 2 17.5082 54.1175 24.5731 0.0000 0.0000 0.0000
# 3 26.0571 24.5731 205.2878 0.0000 0.0000 0.0000
# 4 0.0000 0.0000 0.0000 49.2471 0.0000 0.0000
# 5 0.0000 0.0000 0.0000 0.0000 -12.6895 0.0000
# 6 0.0000 0.0000 0.0000 0.0000 0.0000 30.5702
#
#
#
# Elastic Compliance Matrix: (Units=1/GPa)
#
#
# Indices 1 2 3 4 5 6 
#
# 1 0.025858 -0.007271 -0.002412 0.000000 0.000000 0.000000
# 2 -0.007271 0.021585 -0.001661 0.000000 0.000000 0.000000
# 3 -0.002412 -0.001661 0.005376 0.000000 0.000000 0.000000
# 4 0.000000 0.000000 0.000000 0.020306 0.000000 0.000000
# 5 0.000000 0.000000 0.000000 0.000000 -0.078806 0.000000
# 6 0.000000 0.000000 0.000000 0.000000 0.000000 0.032712
#
#
# Mechanical properties :
#
#
# Convention : Reuss Voigt Hill
#
# Bulk Modulus (GPa) = 33.18678 49.07865 41.13271
# Shear Modulus (GPa) = 83.66559 29.24505 56.45532
#
# Velocity S-wave (km/s) = 5.98841 3.54050 4.91916
# Velocity P-wave (km/s) = 7.87651 6.14409 7.06361
#
# Compressibility (1/GPa) = 0.03013248
#
# Stress axis : x y z
#
# Youngs Moduli (GPa) = 38.67227 46.32927 186.00651
#
# Poissons Ratio (x) = 0.33684 0.44863
# Poissons Ratio (y) = 0.28117 0.30893
# Poissons Ratio (z) = 0.09327 0.07695
#
# Static dielectric constant tensor:
#      x y z
#    x 1.885610 0.000000 0.000000 
#    y 0.000000 1.996460 0.000000 
#    z 0.000000 0.000000 1.704070 
# 
# From -- ./inp_files/7155.got.cif
#   From: 2010.05.17/outbox.cif.g08.bks.cpg/sg21_4_cif.got.tgz:7155.got - 2010.06.03 23:14:55.
