data_PCOD9322642
_publ_section_title
;
Structure prediction by ZEFSAII (Michael W. Deem and Ramdas Pophale) SiO2 
 PCOD9322642
Probable space group: C 2 2 2
;
_chemical_formula_sum "Si O2"
_cell_formula_units_Z 54
_cell_length_a 14.585014
_cell_length_b 12.052329
_cell_length_c 14.920328
_cell_angle_alpha 90.000000
_cell_angle_beta 90.000000
_cell_angle_gamma 90.000000
_cell_volume 2622.745794
_symmetry_space_group_name_H-M "C 2 2 2"
_symmetry_group_IT_number 21
_symmetry_cell_setting 'orthorhombic'
loop_
_space_group_symop_operation_xyz
x,y,z
-x,-y,z
x,-y,-z
-x,y,-z
1/2+x,1/2+y,z
1/2-x,1/2-y,z
1/2+x,1/2-y,-z
1/2-x,1/2+y,-z
loop_
_atom_site_type_symbol
_atom_site_label
_atom_site_fract_x
_atom_site_fract_y
_atom_site_fract_z
Si Si1 0.750000 0.250000 0.469653
Si Si2 0.971376 0.247094 0.102757
Si Si3 0.198237 0.975750 0.399516
Si Si4 0.639407 0.151359 0.604711
Si Si5 0.352362 0.970430 0.104411
Si Si6 0.309739 0.360770 0.783362
Si Si7 0.146187 0.707884 0.803813
Si Si8 0.000000 0.500000 0.500000
O O1 0.743526 0.135369 0.419277
O O2 0.661590 0.246143 0.533116
O O3 0.930064 0.373952 0.109461
O O4 0.893091 0.177086 0.153166
O O5 0.066818 0.221954 0.151519
O O6 0.000000 0.228269 0.000000
O O7 0.157665 0.935393 0.302973
O O8 0.154122 0.000000 0.500000
O O9 0.269477 0.075295 0.383718
O O10 0.622699 0.203547 0.699660
O O11 0.561727 0.074889 0.564228
O O12 0.261843 0.925326 0.153653
O O13 0.369671 0.085348 0.155661
O O14 0.338968 0.000000 0.000000
O O15 0.250000 0.250000 0.755820
O O16 0.250000 0.750000 0.818218
#
# Coordination Sequence:
#
# PCOD9322642 Si02
#       8
#     4   8   8   8   8   8   8   2
#     4  10  18  38  58  86 130 174 196 268 328 404
#     4  11  25  42  66 103 136 172 228 296 339 414
#     4  10  19  36  64  94 128 181 217 268 330 417
#     4  11  23  38  60  97 132 163 224 279 343 402
#     4  11  23  41  69  97 134 180 217 279 352 409
#     4  10  22  39  67 101 136 179 228 276 349 417
#     4  12  26  41  66  94 136 178 228 276 346 407
#     4  12  24  36  64 108 124 162 220 304 336 404
#
# _framework density 20.589109000000001
#
# number of rings (size 3 to 8) (size 9 to 14) (size 15 to 20)
#    0.000    1.185    6.667    0.444    4.148    1.185 
#    0.000    0.741    0.000    0.000    5.778    0.000 
#    0.000    0.000    0.000    0.000    0.000    0.000 
#
# Total GULP energy -150321.880984 kJ/mol
# GULP energy per Si atom -5567.477073 kJ/mol
# Density = 2.054225 g / cm^3
# Si number density = 20.589109 Si / 1000 Ang^3
#
#
#
# Elastic Constant Matrix: (Units=GPa)
#
#
# Indices 1 2 3 4 5 6 
#
# 1 111.0944 20.7803 52.6992 0.0000 0.0000 0.0000
# 2 20.7803 43.9999 8.9434 0.0000 0.0000 0.0000
# 3 52.6992 8.9434 109.8875 0.0000 0.0000 0.0000
# 4 0.0000 0.0000 0.0000 -1.7202 0.0000 0.0000
# 5 0.0000 0.0000 0.0000 0.0000 24.3944 0.0000
# 6 0.0000 0.0000 0.0000 0.0000 0.0000 30.0490
#
#
#
# Elastic Compliance Matrix: (Units=1/GPa)
#
#
# Indices 1 2 3 4 5 6 
#
# 1 0.012573 -0.004792 -0.005640 0.000000 0.000000 0.000000
# 2 -0.004792 0.024936 0.000268 0.000000 0.000000 0.000000
# 3 -0.005640 0.000268 0.011783 0.000000 0.000000 0.000000
# 4 0.000000 0.000000 0.000000 -0.581335 0.000000 0.000000
# 5 0.000000 0.000000 0.000000 0.000000 0.040993 0.000000
# 6 0.000000 0.000000 0.000000 0.000000 0.000000 0.033279
#
#
# Mechanical properties :
#
#
# Convention : Reuss Voigt Hill
#
# Bulk Modulus (GPa) = 34.52319 47.75864 41.14091
# Shear Modulus (GPa) = -11.68798 22.71523 5.51363
#
# Velocity S-wave (km/s) = -2.38518 3.32515 1.63821
# Velocity P-wave (km/s) = 3.03622 6.16349 4.85835
#
# Compressibility (1/GPa) = 0.02896604
#
# Stress axis : x y z
#
# Youngs Moduli (GPa) = 79.53625 40.10313 84.86805
#
# Poissons Ratio (x) = 0.19216 0.47863
# Poissons Ratio (y) = 0.38111 -0.02279
# Poissons Ratio (z) = 0.44856 -0.01077
#
# Static dielectric constant tensor:
#      x y z
#    x 1.712550 0.000000 0.000000 
#    y 0.000000 1.712080 0.000000 
#    z 0.000000 0.000000 1.751140 
# 
# From -- ./inp_files/32353.got.cif
#   From: 2010.05.17/outbox.cif.g08.bks.cpg/sg21_17_cif.got.tgz:32353.got - 2010.06.03 23:14:55.
