data_PCOD9322631
_publ_section_title
;
Structure prediction by ZEFSAII (Michael W. Deem and Ramdas Pophale) SiO2 
 PCOD9322631
Probable space group: C 2 2 2
;
_chemical_formula_sum "Si O2"
_cell_formula_units_Z 64
_cell_length_a 12.082995
_cell_length_b 29.004524
_cell_length_c 7.851979
_cell_angle_alpha 90.000000
_cell_angle_beta 90.000000
_cell_angle_gamma 90.000000
_cell_volume 2751.816483
_symmetry_space_group_name_H-M "C 2 2 2"
_symmetry_group_IT_number 21
_symmetry_cell_setting 'orthorhombic'
loop_
_space_group_symop_operation_xyz
x,y,z
-x,-y,z
x,-y,-z
-x,y,-z
1/2+x,1/2+y,z
1/2-x,1/2-y,z
1/2+x,1/2-y,-z
1/2-x,1/2+y,-z
loop_
_atom_site_type_symbol
_atom_site_label
_atom_site_fract_x
_atom_site_fract_y
_atom_site_fract_z
Si Si1 0.957236 0.450339 0.803608
Si Si2 0.325617 0.548322 0.442712
Si Si3 0.476861 0.331045 0.703060
Si Si4 0.240086 0.905777 0.921620
Si Si5 0.296206 0.699723 0.785639
Si Si6 0.756921 0.697223 0.614818
Si Si7 0.026454 0.932889 0.770231
Si Si8 0.146519 0.611000 0.285511
O O1 0.828898 0.435913 0.812126
O O2 0.000000 0.500000 0.738091
O O3 0.026845 0.411356 0.708771
O O4 0.000000 0.449668 0.000000
O O5 0.275442 0.500000 0.500000
O O6 0.399693 0.564916 0.599357
O O7 0.414140 0.540068 0.286198
O O8 0.233070 0.585975 0.409674
O O9 0.500000 0.333124 0.500000
O O10 0.569670 0.297998 0.780711
O O11 0.349486 0.320640 0.715197
O O12 0.488040 0.380643 0.784197
O O13 0.228639 0.851683 0.862812
O O14 0.122811 0.934141 0.914527
O O15 0.296835 0.901206 0.104967
O O16 0.250000 0.750000 0.848183
O O17 0.256229 0.694580 0.589164
O O18 0.750000 0.750000 0.657776
O O19 0.855704 0.665113 0.676272
#
# Coordination Sequence:
#
# PCOD9322631 Si02
#       8
#     8   8   8   8   8   8   8   8
#     4   9  21  42  61  81 121 174 208 250 321 368
#     4  11  22  37  61  90 122 160 193 245 312 376
#     4   9  14  30  53  77 113 156 192 240 304 359
#     4  10  22  37  65  88 120 166 209 262 306 369
#     4   9  19  35  58  87 120 165 209 253 313 373
#     4  10  20  36  59  87 122 167 207 252 314 373
#     4  10  18  37  59  85 121 159 191 240 314 371
#     4  11  22  40  62  91 123 161 214 260 307 368
#
# _framework density 23.257365
#
# number of rings (size 3 to 8) (size 9 to 14) (size 15 to 20)
#    0.000    2.125    2.500    2.250    1.750    2.000 
#    0.000    3.750    0.000    3.000    0.000    0.000 
#    0.000    0.000    0.000    0.000    0.000    0.000 
#
# Total GULP energy -178442.930612 kJ/mol
# GULP energy per Si atom -5576.341582 kJ/mol
# Density = 2.320443 g / cm^3
# Si number density = 23.257365 Si / 1000 Ang^3
#
#
#
# Elastic Constant Matrix: (Units=GPa)
#
#
# Indices 1 2 3 4 5 6 
#
# 1 25.6968 7.0955 -12.3994 0.0000 0.0000 0.0000
# 2 7.0955 111.4795 5.2394 0.0000 0.0000 0.0000
# 3 -12.3994 5.2394 53.5971 0.0000 0.0000 0.0000
# 4 0.0000 0.0000 0.0000 7.8551 0.0000 0.0000
# 5 0.0000 0.0000 0.0000 0.0000 14.1699 0.0000
# 6 0.0000 0.0000 0.0000 0.0000 0.0000 20.6997
#
#
#
# Elastic Compliance Matrix: (Units=1/GPa)
#
#
# Indices 1 2 3 4 5 6 
#
# 1 0.045032 -0.003371 0.010748 0.000000 0.000000 0.000000
# 2 -0.003371 0.009264 -0.001686 0.000000 0.000000 0.000000
# 3 0.010748 -0.001686 0.021309 0.000000 0.000000 0.000000
# 4 0.000000 0.000000 0.000000 0.127305 0.000000 0.000000
# 5 0.000000 0.000000 0.000000 0.000000 0.070572 0.000000
# 6 0.000000 0.000000 0.000000 0.000000 0.000000 0.048310
#
#
# Mechanical properties :
#
#
# Convention : Reuss Voigt Hill
#
# Bulk Modulus (GPa) = 11.49604 21.18272 16.33938
# Shear Modulus (GPa) = 14.73159 21.26747 17.99953
#
# Velocity S-wave (km/s) = 2.51951 3.02725 2.78497
# Velocity P-wave (km/s) = 3.66300 4.62025 4.16919
#
# Compressibility (1/GPa) = 0.08698646
#
# Stress axis : x y z
#
# Youngs Moduli (GPa) = 22.20629 107.94403 46.92878
#
# Poissons Ratio (x) = 0.36392 -0.50437
# Poissons Ratio (y) = 0.07487 0.07910
# Poissons Ratio (z) = -0.23866 0.18195
#
# Static dielectric constant tensor:
#      x y z
#    x 1.918350 0.000000 0.000000 
#    y 0.000000 2.194610 0.000000 
#    z 0.000000 0.000000 1.961350 
# 
# From -- ./inp_files/13659.got.cif
#   From: 2010.05.17/outbox.cif.g08.bks.cpg/sg21_7_cif.got.tgz:13659.got - 2010.06.03 23:14:55.
