data_PCOD9322030
_publ_section_title
;
Structure prediction by ZEFSAII (Michael W. Deem and Ramdas Pophale) SiO2 
 PCOD9322030
Probable space group: C 2 2 21
;
_chemical_formula_sum "Si O2"
_cell_formula_units_Z 36
_cell_length_a 4.999487
_cell_length_b 19.855075
_cell_length_c 14.700977
_cell_angle_alpha 90.000000
_cell_angle_beta 90.000000
_cell_angle_gamma 90.000000
_cell_volume 1459.295265
_symmetry_space_group_name_H-M "C 2 2 21"
_symmetry_group_IT_number 20
_symmetry_cell_setting 'orthorhombic'
loop_
_space_group_symop_operation_xyz
x,y,z
-x,-y,1/2+z
x,-y,-z
-x,y,1/2-z
1/2+x,1/2+y,z
1/2-x,1/2-y,1/2+z
1/2+x,1/2-y,-z
1/2-x,1/2+y,1/2-z
loop_
_atom_site_type_symbol
_atom_site_label
_atom_site_fract_x
_atom_site_fract_y
_atom_site_fract_z
Si Si1 0.196078 0.122480 0.668759
Si Si2 0.267702 0.611725 0.382604
Si Si3 0.000000 0.495686 0.750000
Si Si4 0.595737 0.754314 0.067894
Si Si5 0.737776 0.922994 0.984686
O O1 0.320665 0.050899 0.697545
O O2 0.397312 0.181740 0.636512
O O3 0.000000 0.143257 0.750000
O O4 0.085144 0.104579 0.568916
O O5 0.045094 0.610752 0.463203
O O6 0.155340 0.556226 0.314016
O O7 0.315045 0.691059 0.369310
O O8 0.564237 0.585847 0.401969
O O9 0.318478 0.740543 0.013940
O O10 0.675433 0.000000 0.000000
#
# Coordination Sequence:
#
# PCOD9322030 Si02
#       5
#     8   8   4   8   8
#     4  12  28  47  75 114 158 196 265 318 393 456
#     4  12  26  48  75 112 152 200 262 312 392 460
#     4  12  30  48  78 116 160 204 264 332 388 456
#     4  12  26  50  78 110 148 206 257 315 389 467
#     4  12  24  46  77 105 148 204 256 313 380 466
#
# _framework density 24.669442
#
# number of rings (size 3 to 8) (size 9 to 14) (size 15 to 20)
#    0.000    0.000    6.667    2.000    7.778    0.000 
#    0.000    0.000    0.000    0.000    0.000    0.000 
#    0.000    0.000    0.000    0.000    0.000    0.000 
#
# Total GULP energy -100439.163222 kJ/mol
# GULP energy per Si atom -5579.953512 kJ/mol
# Density = 2.461329 g / cm^3
# Si number density = 24.669442 Si / 1000 Ang^3
#
#
#
# Elastic Constant Matrix: (Units=GPa)
#
#
# Indices 1 2 3 4 5 6 
#
# 1 103.9246 12.4599 15.6408 0.0000 0.0000 0.0000
# 2 12.4599 136.5792 36.0851 0.0000 0.0000 0.0000
# 3 15.6408 36.0851 63.0122 0.0000 0.0000 0.0000
# 4 0.0000 0.0000 0.0000 43.6382 0.0000 0.0000
# 5 0.0000 0.0000 0.0000 0.0000 30.2408 0.0000
# 6 0.0000 0.0000 0.0000 0.0000 0.0000 62.1496
#
#
#
# Elastic Compliance Matrix: (Units=1/GPa)
#
#
# Indices 1 2 3 4 5 6 
#
# 1 0.010006 -0.000302 -0.002311 0.000000 0.000000 0.000000
# 2 -0.000302 0.008636 -0.004871 0.000000 0.000000 0.000000
# 3 -0.002311 -0.004871 0.019233 0.000000 0.000000 0.000000
# 4 0.000000 0.000000 0.000000 0.022916 0.000000 0.000000
# 5 0.000000 0.000000 0.000000 0.000000 0.033068 0.000000
# 6 0.000000 0.000000 0.000000 0.000000 0.000000 0.016090
#
#
# Mechanical properties :
#
#
# Convention : Reuss Voigt Hill
#
# Bulk Modulus (GPa) = 43.65274 47.98752 45.82013
# Shear Modulus (GPa) = 37.72095 43.16106 40.44101
#
# Velocity S-wave (km/s) = 3.91456 4.18733 4.05324
# Velocity P-wave (km/s) = 6.17779 6.54773 6.36545
#
# Compressibility (1/GPa) = 0.02290807
#
# Stress axis : x y z
#
# Youngs Moduli (GPa) = 99.93641 115.79174 51.99475
#
# Poissons Ratio (x) = 0.03501 0.12014
# Poissons Ratio (y) = 0.03022 0.25325
# Poissons Ratio (z) = 0.23091 0.56398
#
# Static dielectric constant tensor:
#      x y z
#    x 1.911980 0.000000 0.000000 
#    y 0.000000 1.985410 0.000000 
#    z 0.000000 0.000000 0.591760 
# 
# From -- ./inp_files/17551.got.cif
#   From: 2010.05.17/outbox.cif.g08.bks.cpg/sg20_9_cif.got.tgz:17551.got - 2010.06.03 22:52:26.
