data_PCOD9322814
_publ_section_title
;
Structure prediction by ZEFSAII (Michael W. Deem and Ramdas Pophale) SiO2 
 PCOD9322814
Probable space group: C 2 2 2
;
_chemical_formula_sum "Si O2"
_cell_formula_units_Z 56
_cell_length_a 9.484247
_cell_length_b 22.179771
_cell_length_c 12.472464
_cell_angle_alpha 90.000000
_cell_angle_beta 90.000000
_cell_angle_gamma 90.000000
_cell_volume 2623.687902
_symmetry_space_group_name_H-M "C 2 2 2"
_symmetry_group_IT_number 21
_symmetry_cell_setting 'orthorhombic'
loop_
_space_group_symop_operation_xyz
x,y,z
-x,-y,z
x,-y,-z
-x,y,-z
1/2+x,1/2+y,z
1/2-x,1/2-y,z
1/2+x,1/2-y,-z
1/2-x,1/2+y,-z
loop_
_atom_site_type_symbol
_atom_site_label
_atom_site_fract_x
_atom_site_fract_y
_atom_site_fract_z
Si Si1 0.620976 0.212071 0.792371
Si Si2 0.024647 0.797807 0.380807
Si Si3 0.225412 0.502178 0.119985
Si Si4 0.341442 0.504263 0.343028
Si Si5 0.248913 0.125571 0.386257
Si Si6 0.804863 0.370896 0.382011
Si Si7 0.507095 0.101119 0.175425
O O1 0.750000 0.250000 0.841181
O O2 0.528632 0.254746 0.714598
O O3 0.694751 0.163356 0.713443
O O4 0.532611 0.167321 0.867100
O O5 0.914692 0.853560 0.390880
O O6 0.000000 0.769416 0.500000
O O7 0.182159 0.821667 0.356122
O O8 0.337299 0.506621 0.214115
O O9 0.133180 0.563326 0.123695
O O10 0.121888 0.446120 0.153689
O O11 0.281158 0.500000 0.000000
O O12 0.500000 0.500000 0.380879
O O13 0.251220 0.445787 0.373166
O O14 0.272293 0.564725 0.384742
O O15 0.333072 0.142793 0.493431
O O16 0.928489 0.382529 0.295392
#
# Coordination Sequence:
#
# PCOD9322814 Si02
#       7
#     8   8   8   8   8   8   8
#     4  10  21  35  54  78 116 164 199 232 270 326
#     4   9  19  33  50  77 117 169 204 223 261 319
#     4  10  22  42  64  90 110 142 187 250 324 364
#     4  11  20  35  61  87 117 147 193 244 300 356
#     4  10  19  34  51  82 120 162 196 228 276 337
#     4  10  21  31  53  88 120 160 196 232 280 328
#     4  10  20  36  58  86 111 148 194 236 288 350
#
# _framework density 21.344002
#
# number of rings (size 3 to 8) (size 9 to 14) (size 15 to 20)
#    0.000    2.000    2.857    1.286    2.000    1.429 
#    0.000    0.000    0.000    0.000   22.286    0.000 
#    0.000    0.000    0.000    0.000    0.000    0.000 
#
# Total GULP energy -155995.084464 kJ/mol
# GULP energy per Si atom -5571.253017 kJ/mol
# Density = 2.129542 g / cm^3
# Si number density = 21.344002 Si / 1000 Ang^3
#
#
#
# Elastic Constant Matrix: (Units=GPa)
#
#
# Indices 1 2 3 4 5 6 
#
# 1 55.2377 24.3040 2.8976 0.0000 0.0000 0.0000
# 2 24.3040 134.0493 2.8270 0.0000 0.0000 0.0000
# 3 2.8976 2.8270 87.8698 0.0000 0.0000 0.0000
# 4 0.0000 0.0000 0.0000 2.2958 0.0000 0.0000
# 5 0.0000 0.0000 0.0000 0.0000 8.1356 0.0000
# 6 0.0000 0.0000 0.0000 0.0000 0.0000 32.3456
#
#
#
# Elastic Compliance Matrix: (Units=1/GPa)
#
#
# Indices 1 2 3 4 5 6 
#
# 1 0.019698 -0.003560 -0.000535 0.000000 0.000000 0.000000
# 2 -0.003560 0.008108 -0.000143 0.000000 0.000000 0.000000
# 3 -0.000535 -0.000143 0.011403 0.000000 0.000000 0.000000
# 4 0.000000 0.000000 0.000000 0.435581 0.000000 0.000000
# 5 0.000000 0.000000 0.000000 0.000000 0.122916 0.000000
# 6 0.000000 0.000000 0.000000 0.000000 0.000000 0.030916
#
#
# Mechanical properties :
#
#
# Convention : Reuss Voigt Hill
#
# Bulk Modulus (GPa) = 32.53933 37.46820 35.00377
# Shear Modulus (GPa) = 7.72387 25.03062 16.37725
#
# Velocity S-wave (km/s) = 1.90437 3.42822 2.77302
# Velocity P-wave (km/s) = 4.48484 5.76739 5.16607
#
# Compressibility (1/GPa) = 0.03073204
#
# Stress axis : x y z
#
# Youngs Moduli (GPa) = 50.76644 123.32833 87.69828
#
# Poissons Ratio (x) = 0.43906 0.04692
# Poissons Ratio (y) = 0.18073 0.01258
# Poissons Ratio (z) = 0.02716 0.01769
#
# Static dielectric constant tensor:
#      x y z
#    x 1.799840 0.000000 0.000000 
#    y 0.000000 1.796160 0.000000 
#    z 0.000000 0.000000 1.805560 
# 
# From -- ./inp_files/24233.got.cif
#   From: 2010.05.17/outbox.cif.g08.bks.cpg/sg21_13_cif.got.tgz:24233.got - 2010.06.03 23:14:55.
