data_PCOD9322359
_publ_section_title
;
Structure prediction by ZEFSAII (Michael W. Deem and Ramdas Pophale) SiO2 
 PCOD9322359
Probable space group: C 2 2 2
;
_chemical_formula_sum "Si O2"
_cell_formula_units_Z 32
_cell_length_a 35.246779
_cell_length_b 5.315558
_cell_length_c 7.057079
_cell_angle_alpha 90.000000
_cell_angle_beta 90.000000
_cell_angle_gamma 90.000000
_cell_volume 1322.188197
_symmetry_space_group_name_H-M "C 2 2 2"
_symmetry_group_IT_number 21
_symmetry_cell_setting 'orthorhombic'
loop_
_space_group_symop_operation_xyz
x,y,z
-x,-y,z
x,-y,-z
-x,y,-z
1/2+x,1/2+y,z
1/2-x,1/2-y,z
1/2+x,1/2-y,-z
1/2-x,1/2+y,-z
loop_
_atom_site_type_symbol
_atom_site_label
_atom_site_fract_x
_atom_site_fract_y
_atom_site_fract_z
Si Si1 0.708205 0.750630 0.370935
Si Si2 0.016681 0.247886 0.785196
Si Si3 0.131407 0.579883 0.783360
Si Si4 0.602636 0.419618 0.216339
O O1 0.704328 0.500000 0.500000
O O2 0.750000 0.750000 0.277029
O O3 0.672560 0.792642 0.234106
O O4 0.708186 0.000000 0.500000
O O5 0.061586 0.210337 0.787974
O O6 0.000000 0.500000 0.701080
O O7 0.000000 0.000000 0.695558
O O8 0.000000 0.249208 0.000000
O O9 0.129338 0.297904 0.695995
O O10 0.103629 0.796687 0.700208
O O11 0.122290 0.500000 0.000000
O O12 0.613152 0.500000 0.000000
#
# Coordination Sequence:
#
# PCOD9322359 Si02
#       4
#     8   8   8   8
#     4  10  21  40  63  84 110 149 200 245 282 345
#     4  10  17  24  41  65 101 153 182 217 261 340
#     4  10  21  34  54  82 117 150 176 237 293 351
#     4  10  18  30  45  73 115 152 176 221 289 339
#
# _framework density 24.202302
#
# number of rings (size 3 to 8) (size 9 to 14) (size 15 to 20)
#    0.000    2.000    2.500    3.000    7.000    0.000 
#    0.000    7.500    0.000    0.000    0.000    0.000 
#    0.000   70.000    0.000    0.000    0.000    0.000 
#
# Total GULP energy -89209.017334 kJ/mol
# GULP energy per Si atom -5575.563583 kJ/mol
# Density = 2.414722 g / cm^3
# Si number density = 24.202302 Si / 1000 Ang^3
#
#
#
# Elastic Constant Matrix: (Units=GPa)
#
#
# Indices 1 2 3 4 5 6 
#
# 1 173.9660 71.7970 8.1181 0.0000 0.0000 0.0000
# 2 71.7970 287.6364 22.9889 0.0000 0.0000 0.0000
# 3 8.1181 22.9889 70.3022 0.0000 0.0000 0.0000
# 4 0.0000 0.0000 0.0000 -3.5544 0.0000 0.0000
# 5 0.0000 0.0000 0.0000 0.0000 -395.4954 0.0000
# 6 0.0000 0.0000 0.0000 0.0000 0.0000 39.5211
#
#
#
# Elastic Compliance Matrix: (Units=1/GPa)
#
#
# Indices 1 2 3 4 5 6 
#
# 1 0.006412 -0.001583 -0.000223 0.000000 0.000000 0.000000
# 2 -0.001583 0.003961 -0.001112 0.000000 0.000000 0.000000
# 3 -0.000223 -0.001112 0.014614 0.000000 0.000000 0.000000
# 4 0.000000 0.000000 0.000000 -0.281341 0.000000 0.000000
# 5 0.000000 0.000000 0.000000 0.000000 -0.002528 0.000000
# 6 0.000000 0.000000 0.000000 0.000000 0.000000 0.025303
#
#
# Mechanical properties :
#
#
# Convention : Reuss Voigt Hill
#
# Bulk Modulus (GPa) = 52.21818 81.96808 67.09313
# Shear Modulus (GPa) = -22.58756 -43.30570 -32.94663
#
# Velocity S-wave (km/s) = -3.05828 -4.23463 -3.69358
# Velocity P-wave (km/s) = 3.02519 3.16733 3.09708
#
# Compressibility (1/GPa) = 0.01915042
#
# Stress axis : x y z
#
# Youngs Moduli (GPa) = 155.96196 252.48965 68.42856
#
# Poissons Ratio (x) = 0.39960 0.01525
# Poissons Ratio (y) = 0.24683 0.07612
# Poissons Ratio (z) = 0.03476 0.28086
#
# Static dielectric constant tensor:
#      x y z
#    x 1.974450 0.000000 0.000000 
#    y 0.000000 2.116810 0.000000 
#    z 0.000000 0.000000 1.995400 
# 
# From -- ./inp_files/19398.got.cif
#   From: 2010.05.17/outbox.cif.g08.bks.cpg/sg21_10_cif.got.tgz:19398.got - 2010.06.03 23:14:55.
