data_PCOD9322849
_publ_section_title
;
Structure prediction by ZEFSAII (Michael W. Deem and Ramdas Pophale) SiO2 
 PCOD9322849
Probable space group: C 2 2 2
;
_chemical_formula_sum "Si O2"
_cell_formula_units_Z 28
_cell_length_a 31.559290
_cell_length_b 5.205230
_cell_length_c 8.068027
_cell_angle_alpha 90.000000
_cell_angle_beta 90.000000
_cell_angle_gamma 90.000000
_cell_volume 1325.361929
_symmetry_space_group_name_H-M "C 2 2 2"
_symmetry_group_IT_number 21
_symmetry_cell_setting 'orthorhombic'
loop_
_space_group_symop_operation_xyz
x,y,z
-x,-y,z
x,-y,-z
-x,y,-z
1/2+x,1/2+y,z
1/2-x,1/2-y,z
1/2+x,1/2-y,-z
1/2-x,1/2+y,-z
loop_
_atom_site_type_symbol
_atom_site_label
_atom_site_fract_x
_atom_site_fract_y
_atom_site_fract_z
Si Si1 0.250000 0.250000 0.384977
Si Si2 0.117965 0.623852 0.178638
Si Si3 0.980942 0.746831 0.810525
Si Si4 0.842003 0.124096 0.683419
O O1 0.242782 0.500000 0.500000
O O2 0.206774 0.201863 0.286649
O O3 0.069185 0.715246 0.187414
O O4 0.130356 0.384270 0.297944
O O5 0.144093 0.884602 0.204270
O O6 0.125273 0.500000 0.000000
O O7 0.000000 0.500000 0.724700
O O8 0.000000 0.000000 0.731842
O O9 0.000000 0.747942 0.000000
O O10 0.844938 0.000000 0.500000
#
# Coordination Sequence:
#
# PCOD9322849 Si02
#       4
#     4   8   8   8
#     4  10  20  42  70  92 122 182 230 244 302 422
#     4  12  23  39  66 105 129 163 221 278 320 376
#     4  10  19  34  59  91 120 163 220 253 292 383
#     4  11  24  42  67  96 133 171 217 266 327 386
#
# _framework density 21.126304999999999
#
# number of rings (size 3 to 8) (size 9 to 14) (size 15 to 20)
#    0.000    1.143    2.857    6.857    4.000    0.000 
#    0.000    2.857    0.000   14.571    0.000    0.000 
#    0.000    0.000    0.000    0.000    0.000    0.000 
#
# Total GULP energy -78142.677075 kJ/mol
# GULP energy per Si atom -5581.619791 kJ/mol
# Density = 2.107822 g / cm^3
# Si number density = 21.126305 Si / 1000 Ang^3
#
#
#
# Elastic Constant Matrix: (Units=GPa)
#
#
# Indices 1 2 3 4 5 6 
#
# 1 194.5798 102.2296 43.3941 0.0000 0.0000 0.0000
# 2 102.2296 230.9891 27.5811 0.0000 0.0000 0.0000
# 3 43.3941 27.5811 37.1742 0.0000 0.0000 0.0000
# 4 0.0000 0.0000 0.0000 -5.2165 0.0000 0.0000
# 5 0.0000 0.0000 0.0000 0.0000 2110.4647 0.0000
# 6 0.0000 0.0000 0.0000 0.0000 0.0000 51.7091
#
#
#
# Elastic Compliance Matrix: (Units=1/GPa)
#
#
# Indices 1 2 3 4 5 6 
#
# 1 0.008290 -0.002758 -0.007631 0.000000 0.000000 0.000000
# 2 -0.002758 0.005667 -0.000986 0.000000 0.000000 0.000000
# 3 -0.007631 -0.000986 0.036539 0.000000 0.000000 0.000000
# 4 0.000000 0.000000 0.000000 -0.191701 0.000000 0.000000
# 5 0.000000 0.000000 0.000000 0.000000 0.000474 0.000000
# 6 0.000000 0.000000 0.000000 0.000000 0.000000 0.019339
#
#
# Mechanical properties :
#
#
# Convention : Reuss Voigt Hill
#
# Bulk Modulus (GPa) = 36.03859 89.90587 62.97223
# Shear Modulus (GPa) = -55.93281 450.69400 197.38059
#
# Velocity S-wave (km/s) = -5.15101 14.62177 9.67635
# Velocity P-wave (km/s) = 4.27569 18.10277 12.43842
#
# Compressibility (1/GPa) = 0.02774803
#
# Stress axis : x y z
#
# Youngs Moduli (GPa) = 120.62751 176.44724 27.36765
#
# Poissons Ratio (x) = 0.48660 0.20884
# Poissons Ratio (y) = 0.33266 0.02698
# Poissons Ratio (z) = 0.92050 0.17393
#
# Static dielectric constant tensor:
#      x y z
#    x 1.773360 0.000000 0.000000 
#    y 0.000000 1.536940 0.000000 
#    z 0.000000 0.000000 1.780980 
# 
# From -- ./inp_files/18794.got.cif
#   From: 2010.05.17/outbox.cif.g08.bks.cpg/sg21_10_cif.got.tgz:18794.got - 2010.06.03 23:14:55.
