data_PCOD9322921
_publ_section_title
;
Structure prediction by ZEFSAII (Michael W. Deem and Ramdas Pophale) SiO2 
 PCOD9322921
Probable space group: C 2 2 2
;
_chemical_formula_sum "Si O2"
_cell_formula_units_Z 48
_cell_length_a 9.248782
_cell_length_b 16.693994
_cell_length_c 14.818539
_cell_angle_alpha 90.000000
_cell_angle_beta 90.000000
_cell_angle_gamma 90.000000
_cell_volume 2287.969251
_symmetry_space_group_name_H-M "C 2 2 2"
_symmetry_group_IT_number 21
_symmetry_cell_setting 'orthorhombic'
loop_
_space_group_symop_operation_xyz
x,y,z
-x,-y,z
x,-y,-z
-x,y,-z
1/2+x,1/2+y,z
1/2-x,1/2-y,z
1/2+x,1/2-y,-z
1/2-x,1/2+y,-z
loop_
_atom_site_type_symbol
_atom_site_label
_atom_site_fract_x
_atom_site_fract_y
_atom_site_fract_z
Si Si1 0.409397 0.657144 0.911965
Si Si2 0.650142 0.916433 0.544691
Si Si3 0.870998 0.809004 0.440646
Si Si4 0.889847 0.642992 0.734773
Si Si5 0.577165 0.146968 0.909048
Si Si6 0.951436 0.170616 0.274912
O O1 0.418236 0.755064 0.911466
O O2 0.245763 0.625951 0.912273
O O3 0.474155 0.637871 0.814823
O O4 0.500000 0.631002 0.000000
O O5 0.500000 0.893874 0.500000
O O6 0.776523 0.856945 0.514702
O O7 0.608782 0.915700 0.649581
O O8 0.692604 0.000000 0.500000
O O9 0.750000 0.750000 0.399373
O O10 0.000000 0.772248 0.500000
O O11 0.953822 0.856942 0.361297
O O12 0.951301 0.732158 0.712406
O O13 0.716947 0.652716 0.743682
O O14 0.982407 0.620115 0.822843
O O15 0.500000 0.119493 0.000000
#
# Coordination Sequence:
#
# PCOD9322921 Si02
#       6
#     8   8   8   8   8   8
#     4   9  17  28  44  76 117 155 187 231 298 357
#     4  11  25  42  58  80 115 159 200 247 300 362
#     4  12  23  37  59  86 116 153 203 251 306 353
#     4  10  19  36  52  79 116 154 198 240 298 350
#     4   9  17  28  49  76 114 155 190 236 292 358
#     4  10  20  31  53  82 114 152 195 244 290 351
#
# _framework density 20.979302000000001
#
# number of rings (size 3 to 8) (size 9 to 14) (size 15 to 20)
#    0.000    1.833    1.667    3.500    7.000    4.333 
#    0.000    0.000    0.000    0.000    0.000    2.333 
#    0.000    1.333    0.000    0.000    0.000    0.000 
#
# Total GULP energy -133656.519845 kJ/mol
# GULP energy per Si atom -5569.021660 kJ/mol
# Density = 2.093155 g / cm^3
# Si number density = 20.979302 Si / 1000 Ang^3
#
#
#
# Elastic Constant Matrix: (Units=GPa)
#
#
# Indices 1 2 3 4 5 6 
#
# 1 155.7037 -1.0762 64.9514 0.0000 0.0000 0.0000
# 2 -1.0762 7.0297 -12.6225 0.0000 0.0000 0.0000
# 3 64.9514 -12.6225 160.7597 0.0000 0.0000 0.0000
# 4 0.0000 0.0000 0.0000 11.8695 0.0000 0.0000
# 5 0.0000 0.0000 0.0000 0.0000 47.7967 0.0000
# 6 0.0000 0.0000 0.0000 0.0000 0.0000 3.2348
#
#
#
# Elastic Compliance Matrix: (Units=1/GPa)
#
#
# Indices 1 2 3 4 5 6 
#
# 1 0.007888 -0.005256 -0.003599 0.000000 0.000000 0.000000
# 2 -0.005256 0.169103 0.015401 0.000000 0.000000 0.000000
# 3 -0.003599 0.015401 0.008884 0.000000 0.000000 0.000000
# 4 0.000000 0.000000 0.000000 0.084249 0.000000 0.000000
# 5 0.000000 0.000000 0.000000 0.000000 0.020922 0.000000
# 6 0.000000 0.000000 0.000000 0.000000 0.000000 0.309138
#
#
# Mechanical properties :
#
#
# Convention : Reuss Voigt Hill
#
# Bulk Modulus (GPa) = 5.02596 47.33316 26.17956
# Shear Modulus (GPa) = 7.65211 30.72955 19.19083
#
# Velocity S-wave (km/s) = 1.91190 3.83136 3.02777
# Velocity P-wave (km/s) = 2.69717 6.49487 4.97283
#
# Compressibility (1/GPa) = 0.19896678
#
# Stress axis : x y z
#
# Youngs Moduli (GPa) = 126.78049 5.91355 112.56167
#
# Poissons Ratio (x) = 0.03108 0.40517
# Poissons Ratio (y) = 0.66631 -1.73357
# Poissons Ratio (z) = 0.45635 -0.09107
#
# Static dielectric constant tensor:
#      x y z
#    x 1.745590 0.000000 0.000000 
#    y 0.000000 1.930060 0.000000 
#    z 0.000000 0.000000 1.768470 
# 
# From -- ./inp_files/30649.got.cif
#   From: 2010.05.17/outbox.cif.g08.bks.cpg/sg21_16_cif.got.tgz:30649.got - 2010.06.03 23:14:55.
