data_PCOD9322199
_publ_section_title
;
Structure prediction by ZEFSAII (Michael W. Deem and Ramdas Pophale) SiO2 
 PCOD9322199
Probable space group: C 2 2 21
;
_chemical_formula_sum "Si O2"
_cell_formula_units_Z 28
_cell_length_a 21.000000
_cell_length_b 9.000000
_cell_length_c 15.000000
_cell_angle_alpha 90.000000
_cell_angle_beta 90.000000
_cell_angle_gamma 90.000000
_cell_volume 2835.000000
_symmetry_space_group_name_H-M "C 2 2 21"
_symmetry_group_IT_number 20
_symmetry_cell_setting 'orthorhombic'
loop_
_space_group_symop_operation_xyz
x,y,z
-x,-y,1/2+z
x,-y,-z
-x,y,1/2-z
1/2+x,1/2+y,z
1/2-x,1/2-y,1/2+z
1/2+x,1/2-y,-z
1/2-x,1/2+y,1/2-z
loop_
_atom_site_type_symbol
_atom_site_label
_atom_site_fract_x
_atom_site_fract_y
_atom_site_fract_z
Si Si1 0.214140 0.086723 0.184942
Si Si2 0.150771 0.000000 0.000000
Si Si3 0.562970 0.617807 0.576935
Si Si4 0.066653 0.392811 0.798897
Si Si5 0.669468 0.297890 0.293151
Si Si6 0.500000 0.533454 0.250000
Si Si7 0.442559 0.772434 0.513858
Si Si8 0.597081 0.216523 0.809318
O O1 0.282721 0.161013 0.193062
O O2 0.168023 0.226650 0.203985
O O3 0.193997 0.040845 0.084707
O O4 0.200354 0.946753 0.250233
O O5 0.102928 0.869866 0.030824
O O6 0.574897 0.500000 0.500000
O O7 0.629961 0.668223 0.617267
O O8 0.521947 0.554928 0.661544
O O9 0.516670 0.733973 0.527981
O O10 0.115325 0.265072 0.771836
O O11 0.067691 0.387263 0.906184
O O12 0.085558 0.557027 0.766099
O O13 0.000000 0.360968 0.750000
O O14 0.443237 0.645145 0.273732
O O15 0.424259 0.802596 0.412087
#
# Coordination Sequence:
#
# PCOD9322199 Si02
#       8
#     8   4   8   8   8   4   8   8
#     4  11  24  46  66  91 128 179 224 263 330 397
#     4  10  20  42  70  92 124 168 224 268 316 408
#     4  12  22  39  66 105 131 169 220 274 339 391
#     4  12  23  38  64 100 134 165 213 271 332 388
#     4  12  25  44  67  92 132 174 224 275 329 399
#     4  12  20  38  68  98 136 172 206 268 336 398
#     4  11  20  38  66  97 129 165 212 271 330 392
#     4  11  23  40  66  97 133 170 214 264 325 399
#
# _framework density 9.8765429999999999
#
# number of rings (size 3 to 8) (size 9 to 14) (size 15 to 20)
#    0.000    0.571    7.143    3.000    0.000    0.000 
#    2.571    2.857    0.000    0.000    0.000    0.000 
#    0.000    0.000    0.000    0.000    0.000    0.000 
#
# Total GULP energy -156139.711254 kJ/mol
# GULP energy per Si atom -5576.418259 kJ/mol
# Density = 0.985406 g / cm^3
# Si number density = 9.876543 Si / 1000 Ang^3
#
#
#
# Elastic Constant Matrix: (Units=GPa)
#
#
# Indices 1 2 3 4 5 6 
#
# 1 85.0491 37.0536 33.2313 0.0000 0.0000 0.0000
# 2 37.0536 97.4535 12.9138 0.0000 0.0000 0.0000
# 3 33.2313 12.9138 40.5550 0.0000 0.0000 0.0000
# 4 0.0000 0.0000 0.0000 13.5682 0.0000 0.0000
# 5 0.0000 0.0000 0.0000 0.0000 17.5725 0.0000
# 6 0.0000 0.0000 0.0000 0.0000 0.0000 -244.5244
#
#
#
# Elastic Compliance Matrix: (Units=1/GPa)
#
#
# Indices 1 2 3 4 5 6 
#
# 1 0.019876 -0.005637 -0.014492 0.000000 0.000000 0.000000
# 2 -0.005637 0.012312 0.000699 0.000000 0.000000 0.000000
# 3 -0.014492 0.000699 0.036310 0.000000 0.000000 0.000000
# 4 0.000000 0.000000 0.000000 0.073702 0.000000 0.000000
# 5 0.000000 0.000000 0.000000 0.000000 0.056907 0.000000
# 6 0.000000 0.000000 0.000000 0.000000 0.000000 -0.004090
#
#
# Mechanical properties :
#
#
# Convention : Reuss Voigt Hill
#
# Bulk Modulus (GPa) = 33.74060 43.27277 38.50668
# Shear Modulus (GPa) = 20.51215 -33.35283 -6.42034
#
# Velocity S-wave (km/s) = 3.22596 -4.11358 -1.80481
# Velocity P-wave (km/s) = 5.56723 0.77951 3.89784
#
# Compressibility (1/GPa) = 0.02963789
#
# Stress axis : x y z
#
# Youngs Moduli (GPa) = 50.31139 81.22149 27.54040
#
# Poissons Ratio (x) = 0.45784 0.39911
# Poissons Ratio (y) = 0.28360 -0.01924
# Poissons Ratio (z) = 0.72911 -0.05674
#
# Static dielectric constant tensor:
#      x y z
#    x 1.835830 0.000000 0.000000 
#    y 0.000000 1.744800 0.000000 
#    z 0.000000 0.000000 1.958780 
# 
# From -- ./inp_files/21795.got.cif
#   From: 2010.05.17/outbox.ucp.g08.bks.cvg/sg20_11_cif.got.tgz:21795.got - 2010.06.11 15:13:06.
