data_PCOD9322196
_publ_section_title
;
Structure prediction by ZEFSAII (Michael W. Deem and Ramdas Pophale) SiO2 
 PCOD9322196
Probable space group: C 2 2 21
;
_chemical_formula_sum "Si O2"
_cell_formula_units_Z 24
_cell_length_a 18.000000
_cell_length_b 15.000000
_cell_length_c 9.000000
_cell_angle_alpha 90.000000
_cell_angle_beta 90.000000
_cell_angle_gamma 90.000000
_cell_volume 2430.000000
_symmetry_space_group_name_H-M "C 2 2 21"
_symmetry_group_IT_number 20
_symmetry_cell_setting 'orthorhombic'
loop_
_space_group_symop_operation_xyz
x,y,z
-x,-y,1/2+z
x,-y,-z
-x,y,1/2-z
1/2+x,1/2+y,z
1/2-x,1/2-y,1/2+z
1/2+x,1/2-y,-z
1/2-x,1/2+y,1/2-z
loop_
_atom_site_type_symbol
_atom_site_label
_atom_site_fract_x
_atom_site_fract_y
_atom_site_fract_z
Si Si1 0.413590 0.761992 0.992219
Si Si2 0.084553 0.742401 0.012666
Si Si3 0.916651 0.897024 0.238187
Si Si4 0.238059 0.030679 0.672471
Si Si5 0.700397 0.228635 0.761569
Si Si6 0.663104 0.866161 0.756765
O O1 0.499685 0.770179 0.040021
O O2 0.409099 0.666363 0.907607
O O3 0.392080 0.839909 0.876275
O O4 0.350445 0.768715 0.115675
O O5 0.086199 0.824204 0.129366
O O6 0.114417 0.654050 0.096844
O O7 0.144800 0.762277 0.888254
O O8 0.846461 0.963308 0.236043
O O9 0.000000 0.937467 0.250000
O O10 0.270662 0.129936 0.696574
O O11 0.233830 0.000000 0.500000
O O12 0.294385 0.959875 0.747025
O O13 0.771241 0.292220 0.744601
#
# Coordination Sequence:
#
# PCOD9322196 Si02
#       6
#     8   8   8   8   8   8
#     4  10  21  39  65  93 125 167 209 262 326 377
#     4  10  20  41  65  92 124 168 208 260 322 380
#     4   9  20  41  67  92 130 170 209 263 330 386
#     4  12  23  39  66  96 129 170 220 263 324 387
#     4  12  22  40  64  96 128 163 218 267 317 383
#     4  11  22  39  64  90 125 171 212 256 324 383
#
# _framework density 9.8765429999999999
#
# number of rings (size 3 to 8) (size 9 to 14) (size 15 to 20)
#    0.000    1.333    5.000    4.000    0.000    0.667 
#    0.000   10.000    0.000    0.000    0.000    0.000 
#    0.000    0.000    0.000    0.000    0.000    0.000 
#
# Total GULP energy -134021.843696 kJ/mol
# GULP energy per Si atom -5584.243487 kJ/mol
# Density = 0.985406 g / cm^3
# Si number density = 9.876543 Si / 1000 Ang^3
#
#
#
# Elastic Constant Matrix: (Units=GPa)
#
#
# Indices 1 2 3 4 5 6 
#
# 1 105.9183 2.8748 -2.4856 0.0000 0.0000 0.0000
# 2 2.8748 60.8785 -18.0888 0.0000 0.0000 0.0000
# 3 -2.4856 -18.0888 44.0501 0.0000 0.0000 0.0000
# 4 0.0000 0.0000 0.0000 7.6887 0.0000 0.0000
# 5 0.0000 0.0000 0.0000 0.0000 -29.5315 0.0000
# 6 0.0000 0.0000 0.0000 0.0000 0.0000 42.6943
#
#
#
# Elastic Compliance Matrix: (Units=1/GPa)
#
#
# Indices 1 2 3 4 5 6 
#
# 1 0.009460 -0.000328 0.000399 0.000000 0.000000 0.000000
# 2 -0.000328 0.018720 0.007669 0.000000 0.000000 0.000000
# 3 0.000399 0.007669 0.025873 0.000000 0.000000 0.000000
# 4 0.000000 0.000000 0.000000 0.130061 0.000000 0.000000
# 5 0.000000 0.000000 0.000000 0.000000 -0.033862 0.000000
# 6 0.000000 0.000000 0.000000 0.000000 0.000000 0.023422
#
#
# Mechanical properties :
#
#
# Convention : Reuss Voigt Hill
#
# Bulk Modulus (GPa) = 14.38180 19.49417 16.93799
# Shear Modulus (GPa) = 27.56761 19.40673 23.48717
#
# Velocity S-wave (km/s) = 3.73984 3.13783 3.45198
# Velocity P-wave (km/s) = 5.09364 4.79774 4.94790
#
# Compressibility (1/GPa) = 0.06953235
#
# Stress axis : x y z
#
# Youngs Moduli (GPa) = 105.71376 53.41794 38.65020
#
# Poissons Ratio (x) = 0.01753 -0.01542
# Poissons Ratio (y) = 0.03469 -0.29640
# Poissons Ratio (z) = -0.04218 -0.40965
#
# Static dielectric constant tensor:
#      x y z
#    x 1.678770 0.000000 0.000000 
#    y 0.000000 1.673980 0.000000 
#    z 0.000000 0.000000 1.779930 
# 
# From -- ./inp_files/8412.got.cif
#   From: 2010.05.17/outbox.ucp.g08.bks.cvg/sg20_5_cif.got.tgz:8412.got - 2010.06.11 15:13:06.
