data_PCOD9322524
_publ_section_title
;
Structure prediction by ZEFSAII (Michael W. Deem and Ramdas Pophale) SiO2 
 PCOD9322524
Probable space group: C 2 2 2
;
_chemical_formula_sum "Si O2"
_cell_formula_units_Z 32
_cell_length_a 9.616307
_cell_length_b 13.446393
_cell_length_c 10.790857
_cell_angle_alpha 90.000000
_cell_angle_beta 90.000000
_cell_angle_gamma 90.000000
_cell_volume 1395.307913
_symmetry_space_group_name_H-M "C 2 2 2"
_symmetry_group_IT_number 21
_symmetry_cell_setting 'orthorhombic'
loop_
_space_group_symop_operation_xyz
x,y,z
-x,-y,z
x,-y,-z
-x,y,-z
1/2+x,1/2+y,z
1/2-x,1/2-y,z
1/2+x,1/2-y,-z
1/2-x,1/2+y,-z
loop_
_atom_site_type_symbol
_atom_site_label
_atom_site_fract_x
_atom_site_fract_y
_atom_site_fract_z
Si Si1 0.410564 0.213911 0.388182
Si Si2 0.509436 0.394159 0.758039
Si Si3 0.677625 0.082932 0.834391
Si Si4 0.263483 0.866401 0.108225
O O1 0.500000 0.169592 0.500000
O O2 0.250000 0.250000 0.416565
O O3 0.502109 0.306903 0.340298
O O4 0.403122 0.140532 0.271332
O O5 0.500000 0.500000 0.691825
O O6 0.662681 0.386584 0.810971
O O7 0.398184 0.395016 0.868873
O O8 0.334100 0.036979 0.825598
O O9 0.663559 0.123588 0.974238
O O10 0.250000 0.750000 0.144324
#
# Coordination Sequence:
#
# PCOD9322524 Si02
#       4
#     8   8   8   8
#     4  10  21  39  64  93 130 174 221 269 319 385
#     4   9  18  33  57  88 120 162 217 265 316 381
#     4   9  19  35  57  93 129 165 212 266 324 385
#     4  10  18  32  60  93 130 166 204 261 332 399
#
# _framework density 22.934006
#
# number of rings (size 3 to 8) (size 9 to 14) (size 15 to 20)
#    0.000    2.500    0.000    3.000    0.000    4.500 
#    0.000    1.250    0.000   33.000    0.000    0.000 
#    0.000    8.000    0.000    0.000    0.000    0.000 
#
# Total GULP energy -89078.062985 kJ/mol
# GULP energy per Si atom -5567.378937 kJ/mol
# Density = 2.288181 g / cm^3
# Si number density = 22.934006 Si / 1000 Ang^3
#
#
#
# Elastic Constant Matrix: (Units=GPa)
#
#
# Indices 1 2 3 4 5 6 
#
# 1 80.1995 20.7361 44.5214 0.0000 0.0000 0.0000
# 2 20.7361 159.9410 37.2003 0.0000 0.0000 0.0000
# 3 44.5214 37.2003 90.1354 0.0000 0.0000 0.0000
# 4 0.0000 0.0000 0.0000 15.9494 0.0000 0.0000
# 5 0.0000 0.0000 0.0000 0.0000 31.0205 0.0000
# 6 0.0000 0.0000 0.0000 0.0000 0.0000 29.9901
#
#
#
# Elastic Compliance Matrix: (Units=1/GPa)
#
#
# Indices 1 2 3 4 5 6 
#
# 1 0.017191 -0.000281 -0.008375 0.000000 0.000000 0.000000
# 2 -0.000281 0.006921 -0.002718 0.000000 0.000000 0.000000
# 3 -0.008375 -0.002718 0.016353 0.000000 0.000000 0.000000
# 4 0.000000 0.000000 0.000000 0.062698 0.000000 0.000000
# 5 0.000000 0.000000 0.000000 0.000000 0.032237 0.000000
# 6 0.000000 0.000000 0.000000 0.000000 0.000000 0.033344
#
#
# Mechanical properties :
#
#
# Convention : Reuss Voigt Hill
#
# Bulk Modulus (GPa) = 56.44264 59.46572 57.95418
# Shear Modulus (GPa) = 25.32961 30.57988 27.95474
#
# Velocity S-wave (km/s) = 3.32694 3.65552 3.49509
# Velocity P-wave (km/s) = 6.27872 6.61834 6.45077
#
# Compressibility (1/GPa) = 0.01771710
#
# Stress axis : x y z
#
# Youngs Moduli (GPa) = 58.17007 144.49208 61.15097
#
# Poissons Ratio (x) = 0.04057 0.51216
# Poissons Ratio (y) = 0.01633 0.16619
# Poissons Ratio (z) = 0.48720 0.39268
#
# Static dielectric constant tensor:
#      x y z
#    x 1.895980 0.000000 0.000000 
#    y 0.000000 1.917780 0.000000 
#    z 0.000000 0.000000 1.901160 
# 
# From -- ./inp_files/21954.got.cif
#   From: 2010.05.17/outbox.cif.g08.bks.cpg/sg21_11_cif.got.tgz:21954.got - 2010.06.03 23:14:55.
