data_PCOD9322367
_publ_section_title
;
Structure prediction by ZEFSAII (Michael W. Deem and Ramdas Pophale) SiO2 
 PCOD9322367
Probable space group: C 2 2 2
;
_chemical_formula_sum "Si O2"
_cell_formula_units_Z 48
_cell_length_a 29.978867
_cell_length_b 7.629708
_cell_length_c 9.071417
_cell_angle_alpha 90.000000
_cell_angle_beta 90.000000
_cell_angle_gamma 90.000000
_cell_volume 2074.905223
_symmetry_space_group_name_H-M "C 2 2 2"
_symmetry_group_IT_number 21
_symmetry_cell_setting 'orthorhombic'
loop_
_space_group_symop_operation_xyz
x,y,z
-x,-y,z
x,-y,-z
-x,y,-z
1/2+x,1/2+y,z
1/2-x,1/2-y,z
1/2+x,1/2-y,-z
1/2-x,1/2+y,-z
loop_
_atom_site_type_symbol
_atom_site_label
_atom_site_fract_x
_atom_site_fract_y
_atom_site_fract_z
Si Si1 0.858424 0.344125 0.801495
Si Si2 0.234051 0.547158 0.827979
Si Si3 0.616752 0.681100 0.906516
Si Si4 0.944334 0.772103 0.350297
Si Si5 0.047843 0.802753 0.315526
Si Si6 0.679369 0.481126 0.325811
O O1 0.816969 0.473278 0.775219
O O2 0.908511 0.343708 0.737407
O O3 0.839062 0.165821 0.732442
O O4 0.862332 0.309800 0.975268
O O5 0.250000 0.750000 0.817814
O O6 0.270349 0.449643 0.728632
O O7 0.238545 0.500000 0.000000
O O8 0.571890 0.752427 0.833631
O O9 0.648051 0.649273 0.765629
O O10 0.610018 0.500000 0.000000
O O11 0.935199 0.743670 0.523934
O O12 0.996393 0.743486 0.315556
O O13 0.943102 0.984159 0.319658
O O14 0.675989 0.500000 0.500000
#
# Coordination Sequence:
#
# PCOD9322367 Si02
#       6
#     8   8   8   8   8   8
#     4  10  19  31  47  73 105 142 178 223 272 325
#     4  10  21  39  58  78 109 148 187 228 279 328
#     4  10  17  27  45  72 102 138 174 217 271 318
#     4   9  16  27  43  68 106 142 179 219 271 333
#     4   9  16  26  43  70 104 145 176 218 278 325
#     4  10  18  31  50  72 101 136 181 226 272 322
#
# _framework density 23.133589000000001
#
# number of rings (size 3 to 8) (size 9 to 14) (size 15 to 20)
#    0.000    2.333    3.333    4.500    0.000    0.667 
#    0.000    9.167    0.000    0.000    0.000    2.333 
#    0.000    2.667    0.000    0.000    0.000    0.000 
#
# Total GULP energy -133902.838432 kJ/mol
# GULP energy per Si atom -5579.284935 kJ/mol
# Density = 2.308094 g / cm^3
# Si number density = 23.133589 Si / 1000 Ang^3
#
#
#
# Elastic Constant Matrix: (Units=GPa)
#
#
# Indices 1 2 3 4 5 6 
#
# 1 150.4194 13.1005 86.6535 0.0000 0.0000 0.0000
# 2 13.1005 49.3417 6.0806 0.0000 0.0000 0.0000
# 3 86.6535 6.0806 157.3998 0.0000 0.0000 0.0000
# 4 0.0000 0.0000 0.0000 0.2875 0.0000 0.0000
# 5 0.0000 0.0000 0.0000 0.0000 26.5184 0.0000
# 6 0.0000 0.0000 0.0000 0.0000 0.0000 -29.7182
#
#
#
# Elastic Compliance Matrix: (Units=1/GPa)
#
#
# Indices 1 2 3 4 5 6 
#
# 1 0.009923 -0.001971 -0.005387 0.000000 0.000000 0.000000
# 2 -0.001971 0.020755 0.000283 0.000000 0.000000 0.000000
# 3 -0.005387 0.000283 0.009308 0.000000 0.000000 0.000000
# 4 0.000000 0.000000 0.000000 3.478403 0.000000 0.000000
# 5 0.000000 0.000000 0.000000 0.000000 0.037710 0.000000
# 6 0.000000 0.000000 0.000000 0.000000 0.000000 -0.033649
#
#
# Mechanical properties :
#
#
# Convention : Reuss Voigt Hill
#
# Bulk Modulus (GPa) = 38.70371 63.20333 50.95352
# Shear Modulus (GPa) = 1.41035 16.17262 8.79149
#
# Velocity S-wave (km/s) = 0.78165 2.64691 1.95155
# Velocity P-wave (km/s) = 4.19303 6.05986 5.21073
#
# Compressibility (1/GPa) = 0.02583732
#
# Stress axis : x y z
#
# Youngs Moduli (GPa) = 100.77704 48.18070 107.43598
#
# Poissons Ratio (x) = 0.09495 0.57873
# Poissons Ratio (y) = 0.19861 -0.03042
# Poissons Ratio (z) = 0.54286 -0.01364
#
# Static dielectric constant tensor:
#      x y z
#    x 1.956320 0.000000 0.000000 
#    y 0.000000 1.937910 0.000000 
#    z 0.000000 0.000000 2.006030 
# 
# From -- ./inp_files/19056.got.cif
#   From: 2010.05.17/outbox.cif.g08.bks.cpg/sg21_10_cif.got.tgz:19056.got - 2010.06.03 23:14:55.
