data_PCOD9322339
_publ_section_title
;
Structure prediction by ZEFSAII (Michael W. Deem and Ramdas Pophale) SiO2 
 PCOD9322339
Probable space group: C 2 2 2
;
_chemical_formula_sum "Si O2"
_cell_formula_units_Z 40
_cell_length_a 11.176077
_cell_length_b 27.383943
_cell_length_c 5.439336
_cell_angle_alpha 90.000000
_cell_angle_beta 90.000000
_cell_angle_gamma 90.000000
_cell_volume 1664.681888
_symmetry_space_group_name_H-M "C 2 2 2"
_symmetry_group_IT_number 21
_symmetry_cell_setting 'orthorhombic'
loop_
_space_group_symop_operation_xyz
x,y,z
-x,-y,z
x,-y,-z
-x,y,-z
1/2+x,1/2+y,z
1/2-x,1/2-y,z
1/2+x,1/2-y,-z
1/2-x,1/2+y,-z
loop_
_atom_site_type_symbol
_atom_site_label
_atom_site_fract_x
_atom_site_fract_y
_atom_site_fract_z
Si Si1 0.050079 0.443979 0.750287
Si Si2 0.879303 0.279017 0.580775
Si Si3 0.567824 0.364863 0.244910
Si Si4 0.671496 0.530784 0.750191
Si Si5 0.801421 0.694330 0.899203
O O1 0.192357 0.448990 0.750098
O O2 0.000000 0.500000 0.751501
O O3 0.000000 0.421649 0.500000
O O4 0.000000 0.420823 0.000000
O O5 0.750000 0.250000 0.576040
O O6 0.883408 0.312022 0.338273
O O7 0.000000 0.248583 0.500000
O O8 0.866499 0.307495 0.838140
O O9 0.500000 0.353371 0.500000
O O10 0.585431 0.423007 0.247676
O O11 0.694304 0.340565 0.180980
O O12 0.500000 0.349145 0.000000
O O13 0.656054 0.500000 0.500000
O O14 0.656375 0.500000 0.000000
O O15 0.750000 0.750000 0.903848
#
# Coordination Sequence:
#
# PCOD9322339 Si02
#       5
#     8   8   8   8   8
#     4  10  16  32  59  90 120 168 221 271 351 412
#     4  10  21  39  69 106 146 185 242 299 371 443
#     4  12  28  48  69 102 144 194 243 303 378 446
#     4  12  23  40  69 100 138 181 243 286 354 443
#     4  10  23  43  70 100 135 187 248 303 366 444
#
# _framework density 24.028614999999999
#
# number of rings (size 3 to 8) (size 9 to 14) (size 15 to 20)
#    0.000    1.200    4.000    3.000    0.000   12.000 
#    0.000    3.000    0.000    0.000    0.000    0.000 
#    0.000    0.000    0.000    0.000    0.000    0.000 
#
# Total GULP energy -111505.046474 kJ/mol
# GULP energy per Si atom -5575.252324 kJ/mol
# Density = 2.397393 g / cm^3
# Si number density = 24.028615 Si / 1000 Ang^3
#
#
#
# Elastic Constant Matrix: (Units=GPa)
#
#
# Indices 1 2 3 4 5 6 
#
# 1 85.7621 35.2549 62.4361 0.0000 0.0000 0.0000
# 2 35.2549 73.0214 50.2969 0.0000 0.0000 0.0000
# 3 62.4361 50.2969 318.1527 0.0000 0.0000 0.0000
# 4 0.0000 0.0000 0.0000 12.4315 0.0000 0.0000
# 5 0.0000 0.0000 0.0000 0.0000 39.0383 0.0000
# 6 0.0000 0.0000 0.0000 0.0000 0.0000 32.0902
#
#
#
# Elastic Compliance Matrix: (Units=1/GPa)
#
#
# Indices 1 2 3 4 5 6 
#
# 1 0.015722 -0.006133 -0.002116 0.000000 0.000000 0.000000
# 2 -0.006133 0.017761 -0.001604 0.000000 0.000000 0.000000
# 3 -0.002116 -0.001604 0.003812 0.000000 0.000000 0.000000
# 4 0.000000 0.000000 0.000000 0.080441 0.000000 0.000000
# 5 0.000000 0.000000 0.000000 0.000000 0.025616 0.000000
# 6 0.000000 0.000000 0.000000 0.000000 0.000000 0.031162
#
#
# Mechanical properties :
#
#
# Convention : Reuss Voigt Hill
#
# Bulk Modulus (GPa) = 56.85641 85.87910 71.36775
# Shear Modulus (GPa) = 24.98974 38.64187 31.81580
#
# Velocity S-wave (km/s) = 3.22840 4.01454 3.64274
# Velocity P-wave (km/s) = 6.13271 7.57011 6.88900
#
# Compressibility (1/GPa) = 0.01758817
#
# Stress axis : x y z
#
# Youngs Moduli (GPa) = 63.60661 56.30413 262.33284
#
# Poissons Ratio (x) = 0.34532 0.55502
# Poissons Ratio (y) = 0.39011 0.42083
# Poissons Ratio (z) = 0.13457 0.09032
#
# Static dielectric constant tensor:
#      x y z
#    x 4.671850 0.000000 0.000000 
#    y 0.000000 1.947210 0.000000 
#    z 0.000000 0.000000 2.057860 
# 
# From -- ./inp_files/3007.got.cif
#   From: 2010.05.17/outbox.cif.g08.bks.cpg/sg21_2_cif.got.tgz:3007.got - 2010.06.03 23:14:55.
