data_PCOD9322264
_publ_section_title
;
Structure prediction by ZEFSAII (Michael W. Deem and Ramdas Pophale) SiO2 
 PCOD9322264
Probable space group: C 2 2 2
;
_chemical_formula_sum "Si O2"
_cell_formula_units_Z 36
_cell_length_a 23.855990
_cell_length_b 7.142396
_cell_length_c 9.722297
_cell_angle_alpha 90.000000
_cell_angle_beta 90.000000
_cell_angle_gamma 90.000000
_cell_volume 1656.571759
_symmetry_space_group_name_H-M "C 2 2 2"
_symmetry_group_IT_number 21
_symmetry_cell_setting 'orthorhombic'
loop_
_space_group_symop_operation_xyz
x,y,z
-x,-y,z
x,-y,-z
-x,y,-z
1/2+x,1/2+y,z
1/2-x,1/2-y,z
1/2+x,1/2-y,-z
1/2-x,1/2+y,-z
loop_
_atom_site_type_symbol
_atom_site_label
_atom_site_fract_x
_atom_site_fract_y
_atom_site_fract_z
Si Si1 0.250000 0.250000 0.043047
Si Si2 0.184929 0.279074 0.507082
Si Si3 0.935782 0.271982 0.002640
Si Si4 0.151534 0.215278 0.222707
Si Si5 0.839398 0.666024 0.809013
O O1 0.204110 0.321153 0.934074
O O2 0.208070 0.139024 0.147387
O O3 0.171932 0.500000 0.500000
O O4 0.250000 0.250000 0.471560
O O5 0.150888 0.177109 0.385451
O O6 0.177224 0.234414 0.667512
O O7 0.897050 0.243824 0.136371
O O8 0.936170 0.500000 0.000000
O O9 0.902268 0.185361 0.873360
O O10 0.000000 0.212122 0.000000
O O11 0.157125 0.443092 0.215645
#
# Coordination Sequence:
#
# PCOD9322264 Si02
#       5
#     4   8   8   8   8
#     4  10  14  24  40  56  84 108 144 172 212 262
#     4  10  18  30  43  63  95 121 146 177 220 268
#     4   8  14  26  41  58  83 116 148 178 219 263
#     4   9  17  26  40  61  86 116 144 179 220 260
#     4   9  17  26  40  61  86 116 144 179 220 260
#
# _framework density 21.731627
#
# number of rings (size 3 to 8) (size 9 to 14) (size 15 to 20)
#    0.000    2.889    2.222    2.000    0.000    0.000 
#    0.000    1.111    0.000    6.667    0.000    0.000 
#    0.000   90.667    0.000    0.000    0.000    0.000 
#
# Total GULP energy -100312.257000 kJ/mol
# GULP energy per Si atom -5572.903167 kJ/mol
# Density = 2.168216 g / cm^3
# Si number density = 21.731627 Si / 1000 Ang^3
#
#
#
# Elastic Constant Matrix: (Units=GPa)
#
#
# Indices 1 2 3 4 5 6 
#
# 1 141.7708 -13.1506 57.8547 0.0000 0.0000 0.0000
# 2 -13.1506 86.0183 3.3645 0.0000 0.0000 0.0000
# 3 57.8547 3.3645 192.5598 0.0000 0.0000 0.0000
# 4 0.0000 0.0000 0.0000 18.7250 0.0000 0.0000
# 5 0.0000 0.0000 0.0000 0.0000 20.0231 0.0000
# 6 0.0000 0.0000 0.0000 0.0000 0.0000 6.2268
#
#
#
# Elastic Compliance Matrix: (Units=1/GPa)
#
#
# Indices 1 2 3 4 5 6 
#
# 1 0.008193 0.001350 -0.002485 0.000000 0.000000 0.000000
# 2 0.001350 0.011856 -0.000613 0.000000 0.000000 0.000000
# 3 -0.002485 -0.000613 0.005951 0.000000 0.000000 0.000000
# 4 0.000000 0.000000 0.000000 0.053405 0.000000 0.000000
# 5 0.000000 0.000000 0.000000 0.000000 0.049942 0.000000
# 6 0.000000 0.000000 0.000000 0.000000 0.000000 0.160597
#
#
# Mechanical properties :
#
#
# Convention : Reuss Voigt Hill
#
# Bulk Modulus (GPa) = 44.43828 57.38736 50.91282
# Shear Modulus (GPa) = 16.61455 33.81365 25.21410
#
# Velocity S-wave (km/s) = 2.76802 3.94885 3.40994
# Velocity P-wave (km/s) = 5.54157 6.87429 6.24359
#
# Compressibility (1/GPa) = 0.02250312
#
# Stress axis : x y z
#
# Youngs Moduli (GPa) = 122.05532 84.34726 168.05111
#
# Poissons Ratio (x) = -0.11385 0.41764
# Poissons Ratio (y) = -0.16475 0.10296
# Poissons Ratio (z) = 0.30333 0.05168
#
# Static dielectric constant tensor:
#      x y z
#    x 1.755630 0.000000 0.000000 
#    y 0.000000 2.006260 0.000000 
#    z 0.000000 0.000000 1.819010 
# 
# From -- ./inp_files/12935.got.cif
#   From: 2010.05.17/outbox.cif.g08.bks.cpg/sg21_7_cif.got.tgz:12935.got - 2010.06.03 23:14:55.
