data_PCOD9322316
_publ_section_title
;
Structure prediction by ZEFSAII (Michael W. Deem and Ramdas Pophale) SiO2 
 PCOD9322316
Probable space group: C 2 2 2
;
_chemical_formula_sum "Si O2"
_cell_formula_units_Z 56
_cell_length_a 5.348110
_cell_length_b 27.706145
_cell_length_c 19.732941
_cell_angle_alpha 90.000000
_cell_angle_beta 90.000000
_cell_angle_gamma 90.000000
_cell_volume 2923.938619
_symmetry_space_group_name_H-M "C 2 2 2"
_symmetry_group_IT_number 21
_symmetry_cell_setting 'orthorhombic'
loop_
_space_group_symop_operation_xyz
x,y,z
-x,-y,z
x,-y,-z
-x,y,-z
1/2+x,1/2+y,z
1/2-x,1/2-y,z
1/2+x,1/2-y,-z
1/2-x,1/2+y,-z
loop_
_atom_site_type_symbol
_atom_site_label
_atom_site_fract_x
_atom_site_fract_y
_atom_site_fract_z
Si Si1 0.998495 0.441736 0.340761
Si Si2 0.976830 0.378086 0.207520
Si Si3 0.504852 0.233800 0.250634
Si Si4 0.000881 0.941476 0.422401
Si Si5 0.759247 0.020552 0.923694
Si Si6 0.472905 0.616427 0.879650
Si Si7 0.499993 0.724900 0.098532
O O1 0.968423 0.414464 0.269980
O O2 0.758369 0.428229 0.385819
O O3 0.000000 0.500000 0.331352
O O4 0.255260 0.427888 0.379313
O O5 0.747935 0.390220 0.155045
O O6 0.964049 0.322125 0.230820
O O7 0.254214 0.381590 0.176327
O O8 0.250000 0.250000 0.285410
O O9 0.501353 0.265183 0.180211
O O10 0.750000 0.250000 0.289788
O O11 0.000000 0.924149 0.500000
O O12 0.000000 0.000000 0.424904
O O13 0.843312 0.076097 0.927298
O O14 0.500000 0.000000 0.893631
O O15 0.000000 0.000000 0.884374
O O16 0.754471 0.000000 0.000000
O O17 0.491941 0.668414 0.914179
O O18 0.250000 0.750000 0.073561
O O19 0.750000 0.750000 0.073818
#
# Coordination Sequence:
#
# PCOD9322316 Si02
#       7
#     8   8   8   8   8   8   8
#     4  10  21  33  45  73 112 143 171 224 272 314
#     4  12  21  31  51  81 118 148 171 211 280 354
#     4  10  16  30  47  70 109 145 168 213 253 324
#     4   9  17  33  54  69  91 139 196 233 267 306
#     4  10  23  43  60  78 105 142 195 244 260 304
#     4  12  21  33  57  81 105 152 181 213 280 337
#     4  10  16  30  49  77 110 133 169 222 263 324
#
# _framework density 19.152248
#
# number of rings (size 3 to 8) (size 9 to 14) (size 15 to 20)
#    0.000    1.571    5.714    2.143    0.000    3.429 
#    0.000    0.000    0.000    0.000    0.000    8.000 
#    0.000   11.429    0.000    0.000    0.000    0.000 
#
# Total GULP energy -155980.652604 kJ/mol
# GULP energy per Si atom -5570.737593 kJ/mol
# Density = 1.910866 g / cm^3
# Si number density = 19.152248 Si / 1000 Ang^3
#
#
#
# Elastic Constant Matrix: (Units=GPa)
#
#
# Indices 1 2 3 4 5 6 
#
# 1 188.7028 36.2206 29.4305 0.0000 0.0000 0.0000
# 2 36.2206 115.9061 31.9029 0.0000 0.0000 0.0000
# 3 29.4305 31.9029 58.7431 0.0000 0.0000 0.0000
# 4 0.0000 0.0000 0.0000 -36.8119 0.0000 0.0000
# 5 0.0000 0.0000 0.0000 0.0000 -26.3753 0.0000
# 6 0.0000 0.0000 0.0000 0.0000 0.0000 29.8608
#
#
#
# Elastic Compliance Matrix: (Units=1/GPa)
#
#
# Indices 1 2 3 4 5 6 
#
# 1 0.005889 -0.001209 -0.002294 0.000000 0.000000 0.000000
# 2 -0.001209 0.010392 -0.005038 0.000000 0.000000 0.000000
# 3 -0.002294 -0.005038 0.020909 0.000000 0.000000 0.000000
# 4 0.000000 0.000000 0.000000 -0.027165 0.000000 0.000000
# 5 0.000000 0.000000 0.000000 0.000000 -0.037914 0.000000
# 6 0.000000 0.000000 0.000000 0.000000 0.000000 0.033489
#
#
# Mechanical properties :
#
#
# Convention : Reuss Voigt Hill
#
# Bulk Modulus (GPa) = 49.73164 62.05111 55.89138
# Shear Modulus (GPa) = 170.15841 11.05458 90.60650
#
# Velocity S-wave (km/s) = 9.43600 2.40509 6.88558
# Velocity P-wave (km/s) = 12.03080 6.33891 9.61567
#
# Compressibility (1/GPa) = 0.02010792
#
# Stress axis : x y z
#
# Youngs Moduli (GPa) = 169.80363 96.22564 47.82686
#
# Poissons Ratio (x) = 0.11633 0.10971
# Poissons Ratio (y) = 0.20529 0.24096
# Poissons Ratio (z) = 0.38951 0.48481
#
# Static dielectric constant tensor:
#      x y z
#    x 1.865810 0.000000 0.000000 
#    y 0.000000 1.726090 0.000000 
#    z 0.000000 0.000000 1.634930 
# 
# From -- ./inp_files/37306.got.cif
#   From: 2010.05.17/outbox.cif.g08.bks.cpg/sg21_19_cif.got.tgz:37306.got - 2010.06.03 23:14:55.
