data_PCOD9322317
_publ_section_title
;
Structure prediction by ZEFSAII (Michael W. Deem and Ramdas Pophale) SiO2 
 PCOD9322317
Probable space group: C 2 2 2
;
_chemical_formula_sum "Si O2"
_cell_formula_units_Z 64
_cell_length_a 14.085348
_cell_length_b 20.909770
_cell_length_c 11.044815
_cell_angle_alpha 90.000000
_cell_angle_beta 90.000000
_cell_angle_gamma 90.000000
_cell_volume 3252.934234
_symmetry_space_group_name_H-M "C 2 2 2"
_symmetry_group_IT_number 21
_symmetry_cell_setting 'orthorhombic'
loop_
_space_group_symop_operation_xyz
x,y,z
-x,-y,z
x,-y,-z
-x,y,-z
1/2+x,1/2+y,z
1/2-x,1/2-y,z
1/2+x,1/2-y,-z
1/2-x,1/2+y,-z
loop_
_atom_site_type_symbol
_atom_site_label
_atom_site_fract_x
_atom_site_fract_y
_atom_site_fract_z
Si Si1 0.635649 0.253881 0.038948
Si Si2 0.884297 0.898850 0.252012
Si Si3 0.135628 0.252357 0.220688
Si Si4 0.109379 0.094211 0.984011
Si Si5 0.602646 0.590063 0.717463
Si Si6 0.864416 0.241564 0.296733
Si Si7 0.765718 0.068562 0.509732
Si Si8 0.339630 0.200140 0.468272
O O1 0.750000 0.250000 0.043278
O O2 0.601919 0.225516 0.911828
O O3 0.611245 0.328938 0.029490
O O4 0.601038 0.230057 0.169256
O O5 0.892953 0.821169 0.247738
O O6 0.847962 0.918666 0.117322
O O7 0.817744 0.919716 0.361763
O O8 0.990476 0.924064 0.277597
O O9 0.250000 0.250000 0.208578
O O10 0.114011 0.295722 0.336245
O O11 0.142674 0.070784 0.851305
O O12 0.000000 0.074577 0.000000
O O13 0.613621 0.666719 0.704992
O O14 0.657538 0.565379 0.599909
O O15 0.750000 0.250000 0.297418
O O16 0.899365 0.273041 0.419820
O O17 0.699791 0.130724 0.497299
O O18 0.715333 0.000000 0.500000
O O19 0.250000 0.250000 0.457854
#
# Coordination Sequence:
#
# PCOD9322317 Si02
#       8
#     8   8   8   8   8   8   8   8
#     4   8  14  20  38  68  82  97 139 181 218 256
#     4  10  18  30  46  67  91 120 150 182 216 258
#     4   9  14  26  45  63  84 110 141 182 220 253
#     4   8  16  28  43  61  88 118 148 179 214 252
#     4  10  18  30  46  67  91 120 150 182 216 258
#     4   9  14  26  45  63  84 110 141 182 220 253
#     4  12  23  33  44  64  90 121 154 190 223 255
#     4  10  16  30  48  61  81 111 144 184 224 256
#
# _framework density 19.674544000000001
#
# number of rings (size 3 to 8) (size 9 to 14) (size 15 to 20)
#    0.000    2.500    5.000    0.375    0.000    1.000 
#    0.000    0.625    0.000    2.250    0.000    0.000 
#    0.000    2.000    0.000    0.000    0.000   43.750 
#
# Total GULP energy -178216.832794 kJ/mol
# GULP energy per Si atom -5569.276025 kJ/mol
# Density = 1.962976 g / cm^3
# Si number density = 19.674544 Si / 1000 Ang^3
#
#
#
# Elastic Constant Matrix: (Units=GPa)
#
#
# Indices 1 2 3 4 5 6 
#
# 1 21.3230 -4.8246 -9.3642 0.0000 0.0000 0.0000
# 2 -4.8246 78.3589 5.9354 0.0000 0.0000 0.0000
# 3 -9.3642 5.9354 206.8193 0.0000 0.0000 0.0000
# 4 0.0000 0.0000 0.0000 -36.1663 0.0000 0.0000
# 5 0.0000 0.0000 0.0000 0.0000 11.8630 0.0000
# 6 0.0000 0.0000 0.0000 0.0000 0.0000 -6.7114
#
#
#
# Elastic Compliance Matrix: (Units=1/GPa)
#
#
# Indices 1 2 3 4 5 6 
#
# 1 0.048465 0.002824 0.002113 0.000000 0.000000 0.000000
# 2 0.002824 0.012954 -0.000244 0.000000 0.000000 0.000000
# 3 0.002113 -0.000244 0.004938 0.000000 0.000000 0.000000
# 4 0.000000 0.000000 0.000000 -0.027650 0.000000 0.000000
# 5 0.000000 0.000000 0.000000 0.000000 0.084296 0.000000
# 6 0.000000 0.000000 0.000000 0.000000 0.000000 -0.148999
#
#
# Mechanical properties :
#
#
# Convention : Reuss Voigt Hill
#
# Bulk Modulus (GPa) = 13.20248 32.22161 22.71205
# Shear Modulus (GPa) = -493.30539 14.78068 -239.26235
#
# Velocity S-wave (km/s) = -15.85172 2.74388 -11.03966
# Velocity P-wave (km/s) = 18.11936 5.14309 12.28535
#
# Compressibility (1/GPa) = 0.07574332
#
# Stress axis : x y z
#
# Youngs Moduli (GPa) = 20.63356 77.19542 202.51839
#
# Poissons Ratio (x) = -0.21799 -0.42798
# Poissons Ratio (y) = -0.05827 0.04940
# Poissons Ratio (z) = -0.04361 0.01883
#
# Static dielectric constant tensor:
#      x y z
#    x 1.699250 0.000000 0.000000 
#    y 0.000000 1.723430 0.000000 
#    z 0.000000 0.000000 1.820550 
# 
# From -- ./inp_files/26302.got.cif
#   From: 2010.05.17/outbox.cif.g08.bks.cpg/sg21_14_cif.got.tgz:26302.got - 2010.06.03 23:14:55.
