data_PCOD9322775
_publ_section_title
;
Structure prediction by ZEFSAII (Michael W. Deem and Ramdas Pophale) SiO2 
 PCOD9322775
Probable space group: C 2 2 2
;
_chemical_formula_sum "Si O2"
_cell_formula_units_Z 58
_cell_length_a 25.787786
_cell_length_b 12.053856
_cell_length_c 9.860279
_cell_angle_alpha 90.000000
_cell_angle_beta 90.000000
_cell_angle_gamma 90.000000
_cell_volume 3064.991399
_symmetry_space_group_name_H-M "C 2 2 2"
_symmetry_group_IT_number 21
_symmetry_cell_setting 'orthorhombic'
loop_
_space_group_symop_operation_xyz
x,y,z
-x,-y,z
x,-y,-z
-x,y,-z
1/2+x,1/2+y,z
1/2-x,1/2-y,z
1/2+x,1/2-y,-z
1/2-x,1/2+y,-z
loop_
_atom_site_type_symbol
_atom_site_label
_atom_site_fract_x
_atom_site_fract_y
_atom_site_fract_z
Si Si1 0.580855 0.273846 0.172243
Si Si2 0.500000 0.500000 0.500000
Si Si3 0.581552 0.751433 0.139826
Si Si4 0.001544 0.633698 0.338150
Si Si5 0.800300 0.171524 0.140441
Si Si6 0.074350 0.983090 0.725860
Si Si7 0.192815 0.796104 0.843438
Si Si8 0.689382 0.511117 0.350776
O O1 0.552908 0.191087 0.275735
O O2 0.643888 0.275970 0.183442
O O3 0.560242 0.400076 0.202286
O O4 0.567287 0.237861 0.018284
O O5 0.536928 0.439796 0.606534
O O6 0.544976 0.814055 0.246612
O O7 0.580593 0.619081 0.172573
O O8 0.642530 0.782864 0.155867
O O9 0.000000 0.500000 0.322460
O O10 0.000000 0.657889 0.500000
O O11 0.750000 0.250000 0.142124
O O12 0.787447 0.071677 0.240726
O O13 0.811685 0.136205 0.984981
O O14 0.128149 0.013102 0.653484
O O15 0.250000 0.750000 0.850287
O O16 0.192021 0.866766 0.707994
O O17 0.711030 0.500000 0.500000
#
# Coordination Sequence:
#
# PCOD9322775 Si02
#       8
#     8   2   8   8   8   8   8   8
#     4  10  21  38  63  88 117 151 191 245 291 344
#     4  12  20  28  46  84 110 152 174 212 264 352
#     4  10  21  38  63  88 117 151 191 245 291 344
#     4  11  26  44  59  79 116 164 201 242 290 344
#     4   9  19  37  59  85 114 150 192 235 289 341
#     4  10  21  32  55  89 121 143 182 226 296 350
#     4   9  19  37  59  85 114 150 192 235 289 341
#     4  10  19  33  52  81 119 150 181 230 284 339
#
# _framework density 18.923380999999999
#
# number of rings (size 3 to 8) (size 9 to 14) (size 15 to 20)
#    0.000    2.069    0.690    2.069    3.862    6.069 
#    2.483    2.069    0.000    0.000    0.000    0.000 
#    0.000    0.000    0.000    0.000    0.000    0.000 
#
# Total GULP energy -161438.307744 kJ/mol
# GULP energy per Si atom -5566.838198 kJ/mol
# Density = 1.888031 g / cm^3
# Si number density = 18.923381 Si / 1000 Ang^3
#
#
#
# Elastic Constant Matrix: (Units=GPa)
#
#
# Indices 1 2 3 4 5 6 
#
# 1 96.4485 23.7383 36.2436 0.0000 0.0000 0.0000
# 2 23.7383 60.1570 35.7349 0.0000 0.0000 0.0000
# 3 36.2436 35.7349 135.2011 0.0000 0.0000 0.0000
# 4 0.0000 0.0000 0.0000 22.5788 0.0000 0.0000
# 5 0.0000 0.0000 0.0000 0.0000 10.7345 0.0000
# 6 0.0000 0.0000 0.0000 0.0000 0.0000 18.3677
#
#
#
# Elastic Compliance Matrix: (Units=1/GPa)
#
#
# Indices 1 2 3 4 5 6 
#
# 1 0.012080 -0.003373 -0.002347 0.000000 0.000000 0.000000
# 2 -0.003373 0.020661 -0.004557 0.000000 0.000000 0.000000
# 3 -0.002347 -0.004557 0.009230 0.000000 0.000000 0.000000
# 4 0.000000 0.000000 0.000000 0.044289 0.000000 0.000000
# 5 0.000000 0.000000 0.000000 0.000000 0.093158 0.000000
# 6 0.000000 0.000000 0.000000 0.000000 0.000000 0.054443
#
#
# Mechanical properties :
#
#
# Convention : Reuss Voigt Hill
#
# Bulk Modulus (GPa) = 46.68924 53.69336 50.19130
# Shear Modulus (GPa) = 19.11651 23.40885 21.26268
#
# Velocity S-wave (km/s) = 3.18182 3.52096 3.35568
# Velocity P-wave (km/s) = 6.18264 6.70561 6.44943
#
# Compressibility (1/GPa) = 0.02141821
#
# Stress axis : x y z
#
# Youngs Moduli (GPa) = 82.77947 48.40055 108.34342
#
# Poissons Ratio (x) = 0.16325 0.25427
# Poissons Ratio (y) = 0.27920 0.49369
# Poissons Ratio (z) = 0.19428 0.22055
#
# Static dielectric constant tensor:
#      x y z
#    x 1.747680 0.000000 0.000000 
#    y 0.000000 1.660010 0.000000 
#    z 0.000000 0.000000 1.658430 
# 
# From -- ./inp_files/19162.got.cif
#   From: 2010.05.17/outbox.cif.g08.bks.cpg/sg21_10_cif.got.tgz:19162.got - 2010.06.03 23:14:55.
