data_PCOD9322358
_publ_section_title
;
Structure prediction by ZEFSAII (Michael W. Deem and Ramdas Pophale) SiO2 
 PCOD9322358
Probable space group: C 2 2 2
;
_chemical_formula_sum "Si O2"
_cell_formula_units_Z 32
_cell_length_a 14.484254
_cell_length_b 5.339661
_cell_length_c 16.655047
_cell_angle_alpha 90.000000
_cell_angle_beta 90.000000
_cell_angle_gamma 90.000000
_cell_volume 1288.118093
_symmetry_space_group_name_H-M "C 2 2 2"
_symmetry_group_IT_number 21
_symmetry_cell_setting 'orthorhombic'
loop_
_space_group_symop_operation_xyz
x,y,z
-x,-y,z
x,-y,-z
-x,y,-z
1/2+x,1/2+y,z
1/2-x,1/2-y,z
1/2+x,1/2-y,-z
1/2-x,1/2+y,-z
loop_
_atom_site_type_symbol
_atom_site_label
_atom_site_fract_x
_atom_site_fract_y
_atom_site_fract_z
Si Si1 0.105829 0.417623 0.283123
Si Si2 0.638317 0.251456 0.047661
Si Si3 0.103409 0.081884 0.775557
Si Si4 0.394446 0.753153 0.534489
O O1 0.147405 0.698221 0.278634
O O2 0.106998 0.290137 0.370399
O O3 0.000000 0.500000 0.264094
O O4 0.145990 0.199037 0.225787
O O5 0.750000 0.250000 0.054181
O O6 0.601126 0.291206 0.137134
O O7 0.611125 0.500000 0.000000
O O8 0.610996 0.000000 0.000000
O O9 0.000000 0.000000 0.749579
O O10 0.354356 0.500000 0.500000
O O11 0.500000 0.753303 0.500000
O O12 0.349297 0.000000 0.500000
#
# Coordination Sequence:
#
# PCOD9322358 Si02
#       4
#     8   8   8   8
#     4  10  18  30  44  70 110 144 171 210 272 320
#     4  10  21  39  61  81 104 140 191 239 273 326
#     4  10  21  33  51  77 110 143 167 223 277 338
#     4  10  17  24  41  64  96 145 176 211 246 317
#
# _framework density 24.842445999999999
#
# number of rings (size 3 to 8) (size 9 to 14) (size 15 to 20)
#    0.000    2.000    2.500    3.000    7.000    0.500 
#    0.000    1.250    0.000    0.000    0.000    0.000 
#    0.000   20.000    0.000    0.000    0.000    0.000 
#
# Total GULP energy -89263.960617 kJ/mol
# GULP energy per Si atom -5578.997539 kJ/mol
# Density = 2.478590 g / cm^3
# Si number density = 24.842446 Si / 1000 Ang^3
#
#
#
# Elastic Constant Matrix: (Units=GPa)
#
#
# Indices 1 2 3 4 5 6 
#
# 1 88.9161 26.2501 4.0637 0.0000 0.0000 0.0000
# 2 26.2501 323.7714 91.0427 0.0000 0.0000 0.0000
# 3 4.0637 91.0427 153.0632 0.0000 0.0000 0.0000
# 4 0.0000 0.0000 0.0000 52.2780 0.0000 0.0000
# 5 0.0000 0.0000 0.0000 0.0000 63.2735 0.0000
# 6 0.0000 0.0000 0.0000 0.0000 0.0000 -24.9414
#
#
#
# Elastic Compliance Matrix: (Units=1/GPa)
#
#
# Indices 1 2 3 4 5 6 
#
# 1 0.011534 -0.001020 0.000300 0.000000 0.000000 0.000000
# 2 -0.001020 0.003799 -0.002233 0.000000 0.000000 0.000000
# 3 0.000300 -0.002233 0.007853 0.000000 0.000000 0.000000
# 4 0.000000 0.000000 0.000000 0.019129 0.000000 0.000000
# 5 0.000000 0.000000 0.000000 0.000000 0.015804 0.000000
# 6 0.000000 0.000000 0.000000 0.000000 0.000000 -0.040094
#
#
# Mechanical properties :
#
#
# Convention : Reuss Voigt Hill
#
# Bulk Modulus (GPa) = 57.86292 89.82931 73.84611
# Shear Modulus (GPa) = 168.40852 47.74829 108.07841
#
# Velocity S-wave (km/s) = 8.24244 4.38887 6.60303
# Velocity P-wave (km/s) = 10.67362 7.86899 9.37676
#
# Compressibility (1/GPa) = 0.01728222
#
# Stress axis : x y z
#
# Youngs Moduli (GPa) = 86.70154 263.22292 127.33569
#
# Poissons Ratio (x) = 0.26836 -0.03823
# Poissons Ratio (y) = 0.08840 0.28429
# Poissons Ratio (z) = -0.02603 0.58768
#
# Static dielectric constant tensor:
#      x y z
#    x 2.018750 0.000000 0.000000 
#    y 0.000000 2.135340 0.000000 
#    z 0.000000 0.000000 1.987320 
# 
# From -- ./inp_files/28846.got.cif
#   From: 2010.05.17/outbox.cif.g08.bks.cpg/sg21_15_cif.got.tgz:28846.got - 2010.06.03 23:14:55.
