data_PCOD9322194
_publ_section_title
;
Structure prediction by ZEFSAII (Michael W. Deem and Ramdas Pophale) SiO2 
 PCOD9322194
Probable space group: C 2 2 21
;
_chemical_formula_sum "Si O2"
_cell_formula_units_Z 32
_cell_length_a 12.000000
_cell_length_b 30.000000
_cell_length_c 9.000000
_cell_angle_alpha 90.000000
_cell_angle_beta 90.000000
_cell_angle_gamma 90.000000
_cell_volume 3240.000000
_symmetry_space_group_name_H-M "C 2 2 21"
_symmetry_group_IT_number 20
_symmetry_cell_setting 'orthorhombic'
loop_
_space_group_symop_operation_xyz
x,y,z
-x,-y,1/2+z
x,-y,-z
-x,y,1/2-z
1/2+x,1/2+y,z
1/2-x,1/2-y,1/2+z
1/2+x,1/2-y,-z
1/2-x,1/2+y,1/2-z
loop_
_atom_site_type_symbol
_atom_site_label
_atom_site_fract_x
_atom_site_fract_y
_atom_site_fract_z
Si Si1 0.806466 0.547393 0.545408
Si Si2 0.435014 0.285550 0.595153
Si Si3 0.805523 0.632767 0.701743
Si Si4 0.545242 0.457447 0.415174
Si Si5 0.057564 0.860028 0.411606
Si Si6 0.876435 0.389628 0.712824
Si Si7 0.289116 0.837723 0.966302
Si Si8 0.045217 0.688514 0.005089
O O1 0.859480 0.500000 0.500000
O O2 0.847032 0.581991 0.672701
O O3 0.678949 0.538175 0.589181
O O4 0.816297 0.577526 0.398764
O O5 0.500000 0.275901 0.750000
O O6 0.513713 0.320410 0.511044
O O7 0.311496 0.307594 0.596301
O O8 0.424225 0.239957 0.503039
O O9 0.690993 0.639846 0.609105
O O10 0.901443 0.665167 0.640456
O O11 0.770139 0.644483 0.867956
O O12 0.498613 0.500000 0.500000
O O13 0.500000 0.457438 0.250000
O O14 0.522976 0.408141 0.478428
O O15 0.000000 0.856322 0.250000
O O16 0.806317 0.379452 0.857816
O O17 0.899729 0.341796 0.633605
O O18 0.000000 0.407233 0.750000
O O19 0.411802 0.815122 0.977107
#
# Coordination Sequence:
#
# PCOD9322194 Si02
#       8
#     8   8   8   8   8   8   8   8
#     4   9  19  39  63  89 120 162 205 255 315 365
#     4  12  27  38  60  95 126 158 215 263 304 368
#     4  10  20  40  67  85 128 163 205 256 315 377
#     4   9  19  36  58  85 118 159 204 245 307 374
#     4  10  21  40  57  87 123 163 203 254 313 362
#     4   9  21  42  65  88 121 163 204 254 316 371
#     4  11  23  41  61  93 124 163 211 253 316 378
#     4  10  24  43  63  88 121 169 210 254 313 378
#
# _framework density 9.8765429999999999
#
# number of rings (size 3 to 8) (size 9 to 14) (size 15 to 20)
#    0.000    2.000    1.250    1.125    7.000    3.000 
#    2.250    4.375    0.000    0.000    0.000    0.000 
#    0.000    0.000    0.000    0.000    0.000    0.000 
#
# Total GULP energy -178349.864588 kJ/mol
# GULP energy per Si atom -5573.433268 kJ/mol
# Density = 0.985406 g / cm^3
# Si number density = 9.876543 Si / 1000 Ang^3
#
#
#
# Elastic Constant Matrix: (Units=GPa)
#
#
# Indices 1 2 3 4 5 6 
#
# 1 91.5582 19.7653 27.7070 0.0000 0.0000 0.0000
# 2 19.7653 115.0428 22.2997 0.0000 0.0000 0.0000
# 3 27.7070 22.2997 55.2737 0.0000 0.0000 0.0000
# 4 0.0000 0.0000 0.0000 1.0960 0.0000 0.0000
# 5 0.0000 0.0000 0.0000 0.0000 25.8707 0.0000
# 6 0.0000 0.0000 0.0000 0.0000 0.0000 15.0777
#
#
#
# Elastic Compliance Matrix: (Units=1/GPa)
#
#
# Indices 1 2 3 4 5 6 
#
# 1 0.012991 -0.001052 -0.006088 0.000000 0.000000 0.000000
# 2 -0.001052 0.009515 -0.003311 0.000000 0.000000 0.000000
# 3 -0.006088 -0.003311 0.022479 0.000000 0.000000 0.000000
# 4 0.000000 0.000000 0.000000 0.912417 0.000000 0.000000
# 5 0.000000 0.000000 0.000000 0.000000 0.038654 0.000000
# 6 0.000000 0.000000 0.000000 0.000000 0.000000 0.066323
#
#
# Mechanical properties :
#
#
# Convention : Reuss Voigt Hill
#
# Bulk Modulus (GPa) = 41.52237 44.60210 43.06224
# Shear Modulus (GPa) = 4.58165 21.21571 12.89868
#
# Velocity S-wave (km/s) = 1.52463 3.28082 2.55815
# Velocity P-wave (km/s) = 4.91586 6.08116 5.52929
#
# Compressibility (1/GPa) = 0.02408340
#
# Stress axis : x y z
#
# Youngs Moduli (GPa) = 76.97417 105.09680 44.48525
#
# Poissons Ratio (x) = 0.11056 0.27082
# Poissons Ratio (y) = 0.08098 0.14731
# Poissons Ratio (z) = 0.46860 0.34802
#
# Static dielectric constant tensor:
#      x y z
#    x 1.690350 0.000000 0.000000 
#    y 0.000000 1.715530 0.000000 
#    z 0.000000 0.000000 1.731010 
# 
# From -- ./inp_files/7704.got.cif
#   From: 2010.05.17/outbox.ucp.g08.bks.cvg/sg20_4_cif.got.tgz:7704.got - 2010.06.11 15:13:06.
