data_PCOD9322167
_publ_section_title
;
Structure prediction by ZEFSAII (Michael W. Deem and Ramdas Pophale) SiO2 
 PCOD9322167
Probable space group: C 2 2 21
;
_chemical_formula_sum "Si O2"
_cell_formula_units_Z 32
_cell_length_a 12.473575
_cell_length_b 11.452948
_cell_length_c 8.999199
_cell_angle_alpha 90.000000
_cell_angle_beta 90.000000
_cell_angle_gamma 90.000000
_cell_volume 1285.618422
_symmetry_space_group_name_H-M "C 2 2 21"
_symmetry_group_IT_number 20
_symmetry_cell_setting 'orthorhombic'
loop_
_space_group_symop_operation_xyz
x,y,z
-x,-y,1/2+z
x,-y,-z
-x,y,1/2-z
1/2+x,1/2+y,z
1/2-x,1/2-y,1/2+z
1/2+x,1/2-y,-z
1/2-x,1/2+y,1/2-z
loop_
_atom_site_type_symbol
_atom_site_label
_atom_site_fract_x
_atom_site_fract_y
_atom_site_fract_z
Si Si1 0.444023 0.152821 0.398482
Si Si2 0.629676 0.422076 0.135508
Si Si3 0.664876 0.829564 0.492806
Si Si4 0.278979 0.609454 0.187090
O O1 0.500000 0.110295 0.250000
O O2 0.420110 0.293048 0.375183
O O3 0.540901 0.134759 0.510924
O O4 0.330605 0.091779 0.403263
O O5 0.757479 0.404333 0.110095
O O6 0.638073 0.505045 0.278607
O O7 0.587831 0.500000 0.000000
O O8 0.664159 0.703795 0.416448
O O9 0.729224 0.836802 0.653803
#
# Coordination Sequence:
#
# PCOD9322167 Si02
#       4
#     8   8   8   8
#     4   9  18  33  56  82 112 151 189 235 290 342
#     4   9  18  33  56  82 112 151 189 235 290 342
#     4   9  18  35  58  84 115 149 190 241 290 342
#     4   9  18  35  58  84 115 149 190 241 290 342
#
# _framework density 24.890746
#
# number of rings (size 3 to 8) (size 9 to 14) (size 15 to 20)
#    0.000    3.000    0.000    0.000    0.000    2.000 
#    0.000   20.000    0.000  186.000    0.000    0.000 
#    0.000    0.000    0.000    0.000    0.000    0.000 
#
# Total GULP energy -89067.440440 kJ/mol
# GULP energy per Si atom -5566.715028 kJ/mol
# Density = 2.483409 g / cm^3
# Si number density = 24.890746 Si / 1000 Ang^3
#
#
#
# Elastic Constant Matrix: (Units=GPa)
#
#
# Indices 1 2 3 4 5 6 
#
# 1 82.7207 3.8670 17.7058 0.0000 0.0000 0.0000
# 2 3.8670 116.6473 59.2788 0.0000 0.0000 0.0000
# 3 17.7058 59.2788 44.2533 0.0000 0.0000 0.0000
# 4 0.0000 0.0000 0.0000 47.4478 0.0000 0.0000
# 5 0.0000 0.0000 0.0000 0.0000 35.8290 0.0000
# 6 0.0000 0.0000 0.0000 0.0000 0.0000 -42.5560
#
#
#
# Elastic Compliance Matrix: (Units=1/GPa)
#
#
# Indices 1 2 3 4 5 6 
#
# 1 0.015371 0.008193 -0.017125 0.000000 0.000000 0.000000
# 2 0.008193 0.031219 -0.045098 0.000000 0.000000 0.000000
# 3 -0.017125 -0.045098 0.089859 0.000000 0.000000 0.000000
# 4 0.000000 0.000000 0.000000 0.021076 0.000000 0.000000
# 5 0.000000 0.000000 0.000000 0.000000 0.027910 0.000000
# 6 0.000000 0.000000 0.000000 0.000000 0.000000 -0.023498
#
#
# Mechanical properties :
#
#
# Convention : Reuss Voigt Hill
#
# Bulk Modulus (GPa) = 35.22319 45.03605 40.12962
# Shear Modulus (GPa) = 17.89164 18.99549 18.44356
#
# Velocity S-wave (km/s) = 2.68397 2.76552 2.72505
# Velocity P-wave (km/s) = 4.87717 5.32262 5.10475
#
# Compressibility (1/GPa) = 0.02839038
#
# Stress axis : x y z
#
# Youngs Moduli (GPa) = 65.05569 32.03146 11.12855
#
# Poissons Ratio (x) = -0.26245 0.19058
# Poissons Ratio (y) = -0.53303 0.50187
# Poissons Ratio (z) = 1.11411 1.44454
#
# Static dielectric constant tensor:
#      x y z
#    x 2.116440 0.000000 0.000000 
#    y 0.000000 2.072950 0.000000 
#    z 0.000000 0.000000 2.116800 
# 
# From -- ./inp_files/6771.got.cif
#   From: 2010.05.17/outbox.cif.g08.bks.cpg/sg20_4_cif.got.tgz:6771.got - 2010.06.03 22:52:26.
