data_PCOD9322074
_publ_section_title
;
Structure prediction by ZEFSAII (Michael W. Deem and Ramdas Pophale) SiO2 
 PCOD9322074
Probable space group: C 2 2 21
;
_chemical_formula_sum "Si O2"
_cell_formula_units_Z 32
_cell_length_a 13.648329
_cell_length_b 9.588084
_cell_length_c 9.960431
_cell_angle_alpha 90.000000
_cell_angle_beta 90.000000
_cell_angle_gamma 90.000000
_cell_volume 1303.435197
_symmetry_space_group_name_H-M "C 2 2 21"
_symmetry_group_IT_number 20
_symmetry_cell_setting 'orthorhombic'
loop_
_space_group_symop_operation_xyz
x,y,z
-x,-y,1/2+z
x,-y,-z
-x,y,1/2-z
1/2+x,1/2+y,z
1/2-x,1/2-y,1/2+z
1/2+x,1/2-y,-z
1/2-x,1/2+y,1/2-z
loop_
_atom_site_type_symbol
_atom_site_label
_atom_site_fract_x
_atom_site_fract_y
_atom_site_fract_z
Si Si1 0.253452 0.633176 0.857684
Si Si2 0.418289 0.500000 0.500000
Si Si3 0.850808 0.851763 0.768951
Si Si4 0.446636 0.260744 0.022645
Si Si5 0.070296 0.500000 0.000000
O O1 0.227351 0.726378 0.730218
O O2 0.305238 0.486001 0.839615
O O3 0.146198 0.593649 0.914519
O O4 0.334919 0.725478 0.931703
O O5 0.364757 0.409527 0.615923
O O6 0.486718 0.612502 0.576241
O O7 0.938013 0.793864 0.862760
O O8 0.497610 0.116139 0.060693
#
# Coordination Sequence:
#
# PCOD9322074 Si02
#       5
#     8   4   8   8   4
#     4  12  28  50  75 114 160 205 267 330 394 472
#     4  12  25  47  76 104 150 210 257 317 402 462
#     4  12  28  49  77 111 160 205 264 330 394 472
#     4  12  27  52  77 111 156 205 265 331 392 470
#     4  12  27  51  80 116 154 204 271 323 394 470
#
# _framework density 24.550511
#
# number of rings (size 3 to 8) (size 9 to 14) (size 15 to 20)
#    0.000    0.000    7.500    0.750   10.500    0.000 
#    0.000    0.000    0.000    0.000    0.000    0.000 
#    0.000    0.000    0.000    0.000    0.000    0.000 
#
# Total GULP energy -89266.265054 kJ/mol
# GULP energy per Si atom -5579.141566 kJ/mol
# Density = 2.449463 g / cm^3
# Si number density = 24.550511 Si / 1000 Ang^3
#
#
#
# Elastic Constant Matrix: (Units=GPa)
#
#
# Indices 1 2 3 4 5 6 
#
# 1 112.8753 57.7479 22.7267 0.0000 0.0000 0.0000
# 2 57.7479 120.2354 -20.8479 0.0000 0.0000 0.0000
# 3 22.7267 -20.8479 40.4759 0.0000 0.0000 0.0000
# 4 0.0000 0.0000 0.0000 28.7504 0.0000 0.0000
# 5 0.0000 0.0000 0.0000 0.0000 23.2705 0.0000
# 6 0.0000 0.0000 0.0000 0.0000 0.0000 41.3235
#
#
#
# Elastic Compliance Matrix: (Units=1/GPa)
#
#
# Indices 1 2 3 4 5 6 
#
# 1 0.017838 -0.011315 -0.015844 0.000000 0.000000 0.000000
# 2 -0.011315 0.016309 0.014753 0.000000 0.000000 0.000000
# 3 -0.015844 0.014753 0.041201 0.000000 0.000000 0.000000
# 4 0.000000 0.000000 0.000000 0.034782 0.000000 0.000000
# 5 0.000000 0.000000 0.000000 0.000000 0.042973 0.000000
# 6 0.000000 0.000000 0.000000 0.000000 0.000000 0.024199
#
#
# Mechanical properties :
#
#
# Convention : Reuss Voigt Hill
#
# Bulk Modulus (GPa) = 19.78663 43.64887 31.71775
# Shear Modulus (GPa) = 22.83540 32.93288 27.88414
#
# Velocity S-wave (km/s) = 3.05313 3.66653 3.37380
# Velocity P-wave (km/s) = 4.52834 5.97850 5.30322
#
# Compressibility (1/GPa) = 0.05053917
#
# Stress axis : x y z
#
# Youngs Moduli (GPa) = 56.06032 61.31427 24.27122
#
# Poissons Ratio (x) = 0.69374 0.38454
# Poissons Ratio (y) = 0.63430 -0.35808
# Poissons Ratio (z) = 0.88819 -0.90460
#
# Static dielectric constant tensor:
#      x y z
#    x 1.995540 0.000000 0.000000 
#    y 0.000000 1.916070 0.000000 
#    z 0.000000 0.000000 2.127940 
# 
# From -- ./inp_files/14679.got.cif
#   From: 2010.05.17/outbox.cif.g08.bks.cpg/sg20_8_cif.got.tgz:14679.got - 2010.06.03 22:52:26.
