data_PCOD9322454
_publ_section_title
;
Structure prediction by ZEFSAII (Michael W. Deem and Ramdas Pophale) SiO2 
 PCOD9322454
Probable space group: C 2 2 2
;
_chemical_formula_sum "Si O2"
_cell_formula_units_Z 64
_cell_length_a 7.633257
_cell_length_b 29.679695
_cell_length_c 16.273257
_cell_angle_alpha 90.000000
_cell_angle_beta 90.000000
_cell_angle_gamma 90.000000
_cell_volume 3686.750956
_symmetry_space_group_name_H-M "C 2 2 2"
_symmetry_group_IT_number 21
_symmetry_cell_setting 'orthorhombic'
loop_
_space_group_symop_operation_xyz
x,y,z
-x,-y,z
x,-y,-z
-x,y,-z
1/2+x,1/2+y,z
1/2-x,1/2-y,z
1/2+x,1/2-y,-z
1/2-x,1/2+y,-z
loop_
_atom_site_type_symbol
_atom_site_label
_atom_site_fract_x
_atom_site_fract_y
_atom_site_fract_z
Si Si1 0.792720 0.357042 0.335679
Si Si2 0.209954 0.303297 1.000000
Si Si3 0.711294 0.803083 0.820890
Si Si4 0.207006 0.802911 0.500000
Si Si5 0.213942 0.550023 0.404283
Si Si6 0.786059 0.449977 0.595717
Si Si7 0.792720 0.642958 0.335679
Si Si8 0.211294 0.696917 0.820890
O O1 0.719722 0.331144 0.256485
O O2 0.774487 0.327220 0.417866
O O3 0.721569 0.406946 0.353981
O O4 1.000000 0.362431 0.321186
O O5 0.250000 0.250000 1.000000
O O6 0.276078 0.319207 0.089111
O O7 0.276078 0.319207 0.910889
O O8 0.000000 0.309479 0.000000
O O9 0.750000 0.750000 0.810980
O O10 0.500000 0.806666 0.821822
O O11 0.250000 0.750000 0.500000
O O12 0.274487 0.827220 0.582134
O O13 0.000000 0.808034 0.500000
O O14 0.263817 0.555632 0.500000
O O15 0.269197 0.500000 0.377149
O O16 0.000000 0.550551 0.402855
O O17 0.721570 0.406946 0.646019
O O18 0.719722 0.668856 0.256485
O O19 0.250000 0.750000 0.810980
#
# Coordination Sequence:
#
# PCOD9322454 Si02
#       8
#     8   8   8   8   8   8   8   8
#     4  10  18  30  46  64  84 110 144 178 209 246
#     4   8  14  26  40  58  81 105 135 169 208 248
#     4   9  17  27  42  61  83 110 138 171 208 246
#     4  12  24  34  43  58  85 119 146 171 205 246
#     4   8  13  23  42  64  82 103 136 178 213 242
#     4   8  13  23  42  64  82 103 136 178 213 242
#     4  10  18  30  46  64  84 110 144 178 209 246
#     4   9  17  27  42  61  83 110 138 171 208 246
#
# _framework density 17.359459000000001
#
# number of rings (size 3 to 8) (size 9 to 14) (size 15 to 20)
#    0.000    2.750    1.250    2.625    0.000    3.000 
#    0.000    0.000    0.000    1.500    0.000    0.875 
#    0.000    7.000    0.000    0.000    0.000   47.500 
#
# Total GULP energy -178298.652232 kJ/mol
# GULP energy per Si atom -5571.832882 kJ/mol
# Density = 1.731995 g / cm^3
# Si number density = 17.359459 Si / 1000 Ang^3
#
#
#
# Elastic Constant Matrix: (Units=GPa)
#
#
# Indices 1 2 3 4 5 6 
#
# 1 36.0159 -0.5845 0.3657 0.0000 0.0000 0.0000
# 2 -0.5845 139.1328 90.2560 0.0000 0.0000 0.0000
# 3 0.3657 90.2560 170.0211 0.0000 0.0000 0.0000
# 4 0.0000 0.0000 0.0000 8.1361 0.0000 0.0000
# 5 0.0000 0.0000 0.0000 0.0000 -11.6460 0.0000
# 6 0.0000 0.0000 0.0000 0.0000 0.0000 7.2395
#
#
#
# Elastic Compliance Matrix: (Units=1/GPa)
#
#
# Indices 1 2 3 4 5 6 
#
# 1 0.027771 0.000237 -0.000186 0.000000 0.000000 0.000000
# 2 0.000237 0.010965 -0.005821 0.000000 0.000000 0.000000
# 3 -0.000186 -0.005821 0.008972 0.000000 0.000000 0.000000
# 4 0.000000 0.000000 0.000000 0.122909 0.000000 0.000000
# 5 0.000000 0.000000 0.000000 0.000000 -0.085866 0.000000
# 6 0.000000 0.000000 0.000000 0.000000 0.000000 0.138132
#
#
# Mechanical properties :
#
#
# Convention : Reuss Voigt Hill
#
# Bulk Modulus (GPa) = 27.64818 58.36047 43.00432
# Shear Modulus (GPa) = 20.28578 17.75474 19.02026
#
# Velocity S-wave (km/s) = 3.42215 3.20155 3.31368
# Velocity P-wave (km/s) = 5.61927 6.88174 6.28230
#
# Compressibility (1/GPa) = 0.03616875
#
# Stress axis : x y z
#
# Youngs Moduli (GPa) = 36.00848 91.20337 111.45620
#
# Poissons Ratio (x) = -0.02162 0.02068
# Poissons Ratio (y) = -0.00854 0.64879
# Poissons Ratio (z) = 0.00668 0.53090
#
# Static dielectric constant tensor:
#      x y z
#    x 1.665060 0.000000 0.000000 
#    y 0.000000 1.579000 0.000000 
#    z 0.000000 0.000000 2.052510 
# 
# From -- ./inp_files/30988.got.cif
#   From: 2010.05.17/outbox.cif.g08.bks.cpg/sg21_16_cif.got.tgz:30988.got - 2010.06.03 23:14:55.
