data_PCOD9322602
_publ_section_title
;
Structure prediction by ZEFSAII (Michael W. Deem and Ramdas Pophale) SiO2 
 PCOD9322602
Probable space group: C 2 2 2
;
_chemical_formula_sum "Si O2"
_cell_formula_units_Z 58
_cell_length_a 9.128011
_cell_length_b 11.344721
_cell_length_c 24.120975
_cell_angle_alpha 90.000000
_cell_angle_beta 90.000000
_cell_angle_gamma 90.000000
_cell_volume 2497.841248
_symmetry_space_group_name_H-M "C 2 2 2"
_symmetry_group_IT_number 21
_symmetry_cell_setting 'orthorhombic'
loop_
_space_group_symop_operation_xyz
x,y,z
-x,-y,z
x,-y,-z
-x,y,-z
1/2+x,1/2+y,z
1/2-x,1/2-y,z
1/2+x,1/2-y,-z
1/2-x,1/2+y,-z
loop_
_atom_site_type_symbol
_atom_site_label
_atom_site_fract_x
_atom_site_fract_y
_atom_site_fract_z
Si Si1 0.617856 0.176636 0.754964
Si Si2 0.886790 0.817276 0.363209
Si Si3 0.092978 0.780789 0.160360
Si Si4 0.835149 0.628003 0.522313
Si Si5 0.500000 0.000000 0.000000
Si Si6 0.080905 0.265275 0.053103
Si Si7 0.832444 0.958168 0.746675
Si Si8 0.804139 0.092100 0.367380
O O1 0.750000 0.250000 0.783156
O O2 0.594831 0.243791 0.695249
O O3 0.477084 0.191491 0.793775
O O4 0.800826 0.448357 0.749813
O O5 0.750000 0.750000 0.391150
O O6 0.047779 0.841904 0.387787
O O7 0.828412 0.951599 0.360920
O O8 0.983012 0.784481 0.109740
O O9 0.131747 0.895798 0.195909
O O10 0.000000 0.000000 0.269117
O O11 0.774491 0.500000 0.500000
O O12 0.750000 0.750000 0.509800
O O13 0.822346 0.612671 0.588809
O O14 0.000000 0.636897 0.500000
O O15 0.564352 0.905515 0.043402
O O16 0.250000 0.250000 0.049903
O O17 0.000000 0.209569 0.000000
O O18 0.750000 0.750000 0.864534
O O19 0.783925 0.874173 0.696394
#
# Coordination Sequence:
#
# PCOD9322602 Si02
#       8
#     8   8   8   8   2   8   8   8
#     4  11  19  39  68 108 155 202 254 311 392 480
#     4  10  18  35  70 114 151 201 251 315 394 487
#     4  12  26  42  66 107 163 204 259 332 394 477
#     4  11  30  58  81 118 157 201 272 340 411 494
#     4   8  24  48  82 102 156 184 290 332 388 476
#     4  10  23  50  79 108 152 207 271 338 401 466
#     4  12  21  42  72 118 154 201 262 310 406 503
#     4  11  20  40  77 110 151 205 257 321 401 487
#
# _framework density 23.220048999999999
#
# number of rings (size 3 to 8) (size 9 to 14) (size 15 to 20)
#    0.414    0.690    6.897    0.828    0.000    7.448 
#    0.000    0.345    0.000    0.000    0.000    0.000 
#    0.000    0.000    0.000    0.000    0.000    0.000 
#
# Total GULP energy -161530.862944 kJ/mol
# GULP energy per Si atom -5570.029757 kJ/mol
# Density = 2.316720 g / cm^3
# Si number density = 23.220049 Si / 1000 Ang^3
#
#
#
# Elastic Constant Matrix: (Units=GPa)
#
#
# Indices 1 2 3 4 5 6 
#
# 1 106.1251 29.7448 47.0619 0.0000 0.0000 0.0000
# 2 29.7448 143.4283 27.5377 0.0000 0.0000 0.0000
# 3 47.0619 27.5377 148.3940 0.0000 0.0000 0.0000
# 4 0.0000 0.0000 0.0000 19.7326 0.0000 0.0000
# 5 0.0000 0.0000 0.0000 0.0000 48.4135 0.0000
# 6 0.0000 0.0000 0.0000 0.0000 0.0000 3.9543
#
#
#
# Elastic Compliance Matrix: (Units=1/GPa)
#
#
# Indices 1 2 3 4 5 6 
#
# 1 0.011363 -0.001726 -0.003283 0.000000 0.000000 0.000000
# 2 -0.001726 0.007492 -0.000843 0.000000 0.000000 0.000000
# 3 -0.003283 -0.000843 0.007936 0.000000 0.000000 0.000000
# 4 0.000000 0.000000 0.000000 0.050678 0.000000 0.000000
# 5 0.000000 0.000000 0.000000 0.000000 0.020655 0.000000
# 6 0.000000 0.000000 0.000000 0.000000 0.000000 0.252886
#
#
# Mechanical properties :
#
#
# Convention : Reuss Voigt Hill
#
# Bulk Modulus (GPa) = 66.28385 67.40402 66.84393
# Shear Modulus (GPa) = 13.59644 33.99364 23.79504
#
# Velocity S-wave (km/s) = 2.42243 3.83035 3.20466
# Velocity P-wave (km/s) = 6.03591 6.97520 6.52249
#
# Compressibility (1/GPa) = 0.01508663
#
# Stress axis : x y z
#
# Youngs Moduli (GPa) = 88.00805 133.47729 126.00042
#
# Poissons Ratio (x) = 0.23039 0.41369
# Poissons Ratio (y) = 0.15191 0.10620
# Poissons Ratio (z) = 0.28895 0.11251
#
# Static dielectric constant tensor:
#      x y z
#    x 1.887990 0.000000 0.000000 
#    y 0.000000 1.997870 0.000000 
#    z 0.000000 0.000000 2.063420 
# 
# From -- ./inp_files/39219.got.cif
#   From: 2010.05.17/outbox.cif.g08.bks.cpg/sg21_20_cif.got.tgz:39219.got - 2010.06.03 23:14:55.
