data_PCOD9322621
_publ_section_title
;
Structure prediction by ZEFSAII (Michael W. Deem and Ramdas Pophale) SiO2 
 PCOD9322621
Probable space group: C 2 2 2
;
_chemical_formula_sum "Si O2"
_cell_formula_units_Z 52
_cell_length_a 18.286687
_cell_length_b 15.599953
_cell_length_c 10.293299
_cell_angle_alpha 90.000000
_cell_angle_beta 90.000000
_cell_angle_gamma 90.000000
_cell_volume 2936.384411
_symmetry_space_group_name_H-M "C 2 2 2"
_symmetry_group_IT_number 21
_symmetry_cell_setting 'orthorhombic'
loop_
_space_group_symop_operation_xyz
x,y,z
-x,-y,z
x,-y,-z
-x,y,-z
1/2+x,1/2+y,z
1/2-x,1/2-y,z
1/2+x,1/2-y,-z
1/2-x,1/2+y,-z
loop_
_atom_site_type_symbol
_atom_site_label
_atom_site_fract_x
_atom_site_fract_y
_atom_site_fract_z
Si Si1 0.292387 0.497612 0.346826
Si Si2 0.514963 0.231796 0.651277
Si Si3 0.470175 0.904343 0.137234
Si Si4 0.701167 0.930778 0.889129
Si Si5 0.250000 0.250000 0.849838
Si Si6 0.675232 0.697944 0.365299
Si Si7 0.630445 0.330007 0.337488
O O1 0.270399 0.500000 0.500000
O O2 0.231695 0.532734 0.247368
O O3 0.314890 0.400056 0.318450
O O4 0.356069 0.568207 0.326588
O O5 0.500000 0.208415 0.500000
O O6 0.494738 0.154288 0.744870
O O7 0.598268 0.260601 0.678964
O O8 0.454187 0.305514 0.675101
O O9 0.383924 0.913467 0.126588
O O10 0.500000 0.000000 0.153353
O O11 0.500000 0.869485 0.000000
O O12 0.735302 0.838341 0.923546
O O13 0.715434 0.000000 0.000000
O O14 0.320072 0.274779 0.761234
O O15 0.750000 0.750000 0.337342
O O16 0.662260 0.693653 0.520866
#
# Coordination Sequence:
#
# PCOD9322621 Si02
#       7
#     8   8   8   8   4   8   8
#     4   9  21  37  60  88 117 154 187 246 299 342
#     4  10  22  37  60  87 113 154 201 237 284 356
#     4  11  23  41  57  78 117 157 189 240 298 349
#     4  11  22  41  61  87 115 154 204 241 293 356
#     4  10  18  36  66  80 112 158 196 242 284 354
#     4  10  20  33  54  90 125 146 187 252 293 335
#     4   9  17  36  59  83 113 155 201 232 289 348
#
# _framework density 17.708853000000001
#
# number of rings (size 3 to 8) (size 9 to 14) (size 15 to 20)
#    0.000    2.000    3.846    0.000    2.154    0.923 
#    4.154    3.077    0.000    0.000    0.000    2.154 
#    0.000    0.000    0.000    0.000    0.000    0.000 
#
# Total GULP energy -144891.168916 kJ/mol
# GULP energy per Si atom -5572.737266 kJ/mol
# Density = 1.766855 g / cm^3
# Si number density = 17.708853 Si / 1000 Ang^3
#
#
#
# Elastic Constant Matrix: (Units=GPa)
#
#
# Indices 1 2 3 4 5 6 
#
# 1 121.2982 49.4492 43.7579 0.0000 0.0000 0.0000
# 2 49.4492 133.8352 57.4626 0.0000 0.0000 0.0000
# 3 43.7579 57.4626 65.9671 0.0000 0.0000 0.0000
# 4 0.0000 0.0000 0.0000 30.2691 0.0000 0.0000
# 5 0.0000 0.0000 0.0000 0.0000 27.4367 0.0000
# 6 0.0000 0.0000 0.0000 0.0000 0.0000 24.8317
#
#
#
# Elastic Compliance Matrix: (Units=1/GPa)
#
#
# Indices 1 2 3 4 5 6 
#
# 1 0.011021 -0.001491 -0.006012 0.000000 0.000000 0.000000
# 2 -0.001491 0.012138 -0.009584 0.000000 0.000000 0.000000
# 3 -0.006012 -0.009584 0.027495 0.000000 0.000000 0.000000
# 4 0.000000 0.000000 0.000000 0.033037 0.000000 0.000000
# 5 0.000000 0.000000 0.000000 0.000000 0.036447 0.000000
# 6 0.000000 0.000000 0.000000 0.000000 0.000000 0.040271
#
#
# Mechanical properties :
#
#
# Convention : Reuss Voigt Hill
#
# Bulk Modulus (GPa) = 60.67758 69.16000 64.91879
# Shear Modulus (GPa) = 24.99059 27.86955 26.43007
#
# Velocity S-wave (km/s) = 3.76066 3.97137 3.86745
# Velocity P-wave (km/s) = 7.29350 7.75679 7.52871
#
# Compressibility (1/GPa) = 0.01648055
#
# Stress axis : x y z
#
# Youngs Moduli (GPa) = 90.73945 82.38888 36.36998
#
# Poissons Ratio (x) = 0.12282 0.21865
# Poissons Ratio (y) = 0.13527 0.34857
# Poissons Ratio (z) = 0.54550 0.78961
#
# Static dielectric constant tensor:
#      x y z
#    x 1.569950 0.000000 0.000000 
#    y 0.000000 1.602040 0.000000 
#    z 0.000000 0.000000 1.607990 
# 
# From -- ./inp_files/26177.got.cif
#   From: 2010.05.17/outbox.cif.g08.bks.cpg/sg21_14_cif.got.tgz:26177.got - 2010.06.03 23:14:55.
