data_PCOD9322439
_publ_section_title
;
Structure prediction by ZEFSAII (Michael W. Deem and Ramdas Pophale) SiO2 
 PCOD9322439
Probable space group: C 2 2 2
;
_chemical_formula_sum "Si O2"
_cell_formula_units_Z 58
_cell_length_a 16.511613
_cell_length_b 27.209518
_cell_length_c 5.747171
_cell_angle_alpha 90.000000
_cell_angle_beta 90.000000
_cell_angle_gamma 90.000000
_cell_volume 2582.048936
_symmetry_space_group_name_H-M "C 2 2 2"
_symmetry_group_IT_number 21
_symmetry_cell_setting 'orthorhombic'
loop_
_space_group_symop_operation_xyz
x,y,z
-x,-y,z
x,-y,-z
-x,y,-z
1/2+x,1/2+y,z
1/2-x,1/2-y,z
1/2+x,1/2-y,-z
1/2-x,1/2+y,-z
loop_
_atom_site_type_symbol
_atom_site_label
_atom_site_fract_x
_atom_site_fract_y
_atom_site_fract_z
Si Si1 0.176848 0.372631 0.042085
Si Si2 0.377699 0.518213 0.750143
Si Si3 0.670863 0.376565 0.636879
Si Si4 0.230961 0.553954 0.311876
Si Si5 0.152652 0.234877 0.351910
Si Si6 0.580246 0.928350 0.355775
Si Si7 0.500000 0.000000 0.000000
Si Si8 0.157848 0.271038 0.842964
O O1 0.256154 0.362920 0.191007
O O2 0.104723 0.379277 0.221542
O O3 0.192836 0.424404 0.919980
O O4 0.161894 0.329657 0.863686
O O5 0.412443 0.500000 0.500000
O O6 0.376893 0.577360 0.747798
O O7 0.286690 0.493596 0.735043
O O8 0.409502 0.500000 0.000000
O O9 0.708255 0.403258 0.408931
O O10 0.634038 0.323029 0.605033
O O11 0.156838 0.553918 0.493298
O O12 0.250000 0.250000 0.348112
O O13 0.120475 0.258784 0.591760
O O14 0.123907 0.251154 0.092462
O O15 0.500000 0.920464 0.500000
O O16 0.555705 0.968380 0.167459
O O17 0.250000 0.250000 0.835875
#
# Coordination Sequence:
#
# PCOD9322439 Si02
#       8
#     8   8   8   8   8   8   2   8
#     4  11  20  33  53  67  89 119 153 199 258 321
#     4  10  20  31  44  67  90 115 153 193 232 288
#     4  10  19  29  45  67  90 119 147 187 240 302
#     4  10  21  35  50  66  88 117 159 202 249 308
#     4  10  18  29  44  66  94 116 142 180 233 303
#     4  11  26  40  52  67  87 120 164 213 272 324
#     4  12  26  48  52  66  92 124 166 228 274 332
#     4  10  19  30  48  71  94 116 145 185 243 312
#
# _framework density 22.462783000000002
#
# number of rings (size 3 to 8) (size 9 to 14) (size 15 to 20)
#    0.000    1.655    4.138    2.690    1.931    9.931 
#    1.241    0.000    0.000    0.000    0.000    0.000 
#    0.000    0.000    0.000    0.000    0.000    0.000 
#
# Total GULP energy -161747.840368 kJ/mol
# GULP energy per Si atom -5577.511737 kJ/mol
# Density = 2.241166 g / cm^3
# Si number density = 22.462783 Si / 1000 Ang^3
#
#
#
# Elastic Constant Matrix: (Units=GPa)
#
#
# Indices 1 2 3 4 5 6 
#
# 1 44.6495 7.2957 16.1699 0.0000 0.0000 0.0000
# 2 7.2957 103.2577 11.7854 0.0000 0.0000 0.0000
# 3 16.1699 11.7854 143.7692 0.0000 0.0000 0.0000
# 4 0.0000 0.0000 0.0000 30.7706 0.0000 0.0000
# 5 0.0000 0.0000 0.0000 0.0000 -11.5608 0.0000
# 6 0.0000 0.0000 0.0000 0.0000 0.0000 -0.2094
#
#
#
# Elastic Compliance Matrix: (Units=1/GPa)
#
#
# Indices 1 2 3 4 5 6 
#
# 1 0.023539 -0.001374 -0.002535 0.000000 0.000000 0.000000
# 2 -0.001374 0.009856 -0.000653 0.000000 0.000000 0.000000
# 3 -0.002535 -0.000653 0.007294 0.000000 0.000000 0.000000
# 4 0.000000 0.000000 0.000000 0.032499 0.000000 0.000000
# 5 0.000000 0.000000 0.000000 0.000000 -0.086499 0.000000
# 6 0.000000 0.000000 0.000000 0.000000 0.000000 -4.775492
#
#
# Mechanical properties :
#
#
# Convention : Reuss Voigt Hill
#
# Bulk Modulus (GPa) = 31.68037 40.24205 35.96121
# Shear Modulus (GPa) = -1.04840 20.89510 9.92335
#
# Velocity S-wave (km/s) = -0.68392 3.05324 2.10411
# Velocity P-wave (km/s) = 3.67566 5.51213 4.68477
#
# Compressibility (1/GPa) = 0.03156529
#
# Stress axis : x y z
#
# Youngs Moduli (GPa) = 42.48238 101.45937 137.09412
#
# Poissons Ratio (x) = 0.13939 0.34752
# Poissons Ratio (y) = 0.05836 0.08958
# Poissons Ratio (z) = 0.10769 0.06630
#
# Static dielectric constant tensor:
#      x y z
#    x 1.919570 0.000000 0.000000 
#    y 0.000000 1.844090 0.000000 
#    z 0.000000 0.000000 1.909630 
# 
# From -- ./inp_files/5344.got.cif
#   From: 2010.05.17/outbox.cif.g08.bks.cpg/sg21_3_cif.got.tgz:5344.got - 2010.06.03 23:14:55.
