data_PCOD9322073
_publ_section_title
;
Structure prediction by ZEFSAII (Michael W. Deem and Ramdas Pophale) SiO2 
 PCOD9322073
Probable space group: C 2 2 21
;
_chemical_formula_sum "Si O2"
_cell_formula_units_Z 36
_cell_length_a 8.299317
_cell_length_b 12.680972
_cell_length_c 12.704376
_cell_angle_alpha 90.000000
_cell_angle_beta 90.000000
_cell_angle_gamma 90.000000
_cell_volume 1337.051808
_symmetry_space_group_name_H-M "C 2 2 21"
_symmetry_group_IT_number 20
_symmetry_cell_setting 'orthorhombic'
loop_
_space_group_symop_operation_xyz
x,y,z
-x,-y,1/2+z
x,-y,-z
-x,y,1/2-z
1/2+x,1/2+y,z
1/2-x,1/2-y,1/2+z
1/2+x,1/2-y,-z
1/2-x,1/2+y,1/2-z
loop_
_atom_site_type_symbol
_atom_site_label
_atom_site_fract_x
_atom_site_fract_y
_atom_site_fract_z
Si Si1 0.005418 0.266005 0.563911
Si Si2 0.776435 0.893054 0.942388
Si Si3 0.713112 0.646174 0.192926
Si Si4 0.339713 0.421499 0.325764
Si Si5 0.500000 0.830952 0.250000
O O1 0.906855 0.366485 0.525066
O O2 0.117054 0.309342 0.657256
O O3 0.878214 0.178488 0.602476
O O4 0.120505 0.201596 0.488746
O O5 0.785083 0.890567 0.815485
O O6 0.825563 0.000000 0.000000
O O7 0.665219 0.540653 0.130913
O O8 0.592427 0.743725 0.177987
O O9 0.500000 0.421046 0.250000
O O10 0.155770 0.399586 0.284705
#
# Coordination Sequence:
#
# PCOD9322073 Si02
#       5
#     8   8   8   8   4
#     4  12  29  52  76 116 167 208 268 336 398 479
#     4  12  30  48  78 119 158 207 268 331 397 479
#     4  12  28  51  84 114 159 218 265 326 406 475
#     4  12  25  46  80 116 152 205 267 321 395 478
#     4  12  26  42  88 116 146 214 264 320 400 474
#
# _framework density 26.924911000000002
#
# number of rings (size 3 to 8) (size 9 to 14) (size 15 to 20)
#    0.000    0.000    5.556    2.000    6.222    1.778 
#    0.000    0.000    0.000    0.000    0.000    0.000 
#    0.000    0.000    0.000    0.000    0.000    0.000 
#
# Total GULP energy -100789.377783 kJ/mol
# GULP energy per Si atom -5599.409877 kJ/mol
# Density = 2.686363 g / cm^3
# Si number density = 26.924911 Si / 1000 Ang^3
#
#
#
# Elastic Constant Matrix: (Units=GPa)
#
#
# Indices 1 2 3 4 5 6 
#
# 1 202.0727 47.0850 45.7678 0.0000 0.0000 0.0000
# 2 47.0850 119.1127 42.4153 0.0000 0.0000 0.0000
# 3 45.7678 42.4153 113.5682 0.0000 0.0000 0.0000
# 4 0.0000 0.0000 0.0000 38.2759 0.0000 0.0000
# 5 0.0000 0.0000 0.0000 0.0000 37.2784 0.0000
# 6 0.0000 0.0000 0.0000 0.0000 0.0000 45.9380
#
#
#
# Elastic Compliance Matrix: (Units=1/GPa)
#
#
# Indices 1 2 3 4 5 6 
#
# 1 0.005717 -0.001660 -0.001684 0.000000 0.000000 0.000000
# 2 -0.001660 0.010165 -0.003127 0.000000 0.000000 0.000000
# 3 -0.001684 -0.003127 0.010652 0.000000 0.000000 0.000000
# 4 0.000000 0.000000 0.000000 0.026126 0.000000 0.000000
# 5 0.000000 0.000000 0.000000 0.000000 0.026825 0.000000
# 6 0.000000 0.000000 0.000000 0.000000 0.000000 0.021768
#
#
# Mechanical properties :
#
#
# Convention : Reuss Voigt Hill
#
# Bulk Modulus (GPa) = 73.57776 78.36554 75.97165
# Shear Modulus (GPa) = 42.11320 44.26414 43.18867
#
# Velocity S-wave (km/s) = 3.95916 4.05901 4.00939
# Velocity P-wave (km/s) = 6.94883 7.15093 7.05060
#
# Compressibility (1/GPa) = 0.01359106
#
# Stress axis : x y z
#
# Youngs Moduli (GPa) = 174.91823 98.37298 93.87992
#
# Poissons Ratio (x) = 0.16333 0.15808
# Poissons Ratio (y) = 0.29042 0.29361
# Poissons Ratio (z) = 0.29453 0.30766
#
# Static dielectric constant tensor:
#      x y z
#    x 2.113810 0.000000 0.000000 
#    y 0.000000 1.994590 0.000000 
#    z 0.000000 0.000000 2.268520 
# 
# From -- ./inp_files/26445.got.cif
#   From: 2010.05.17/outbox.cif.g08.bks.cpg/sg20_14_cif.got.tgz:26445.got - 2010.06.03 22:52:26.
