data_PCOD9322977
_publ_section_title
;
Structure prediction by ZEFSAII (Michael W. Deem and Ramdas Pophale) SiO2 
 PCOD9322977
Probable space group: C 2 2 2
;
_chemical_formula_sum "Si O2"
_cell_formula_units_Z 44
_cell_length_a 8.131555
_cell_length_b 23.960660
_cell_length_c 11.068428
_cell_angle_alpha 90.000000
_cell_angle_beta 90.000000
_cell_angle_gamma 90.000000
_cell_volume 2156.544006
_symmetry_space_group_name_H-M "C 2 2 2"
_symmetry_group_IT_number 21
_symmetry_cell_setting 'orthorhombic'
loop_
_space_group_symop_operation_xyz
x,y,z
-x,-y,z
x,-y,-z
-x,y,-z
1/2+x,1/2+y,z
1/2-x,1/2-y,z
1/2+x,1/2-y,-z
1/2-x,1/2+y,-z
loop_
_atom_site_type_symbol
_atom_site_label
_atom_site_fract_x
_atom_site_fract_y
_atom_site_fract_z
Si Si1 0.502352 0.900285 0.862352
Si Si2 0.744973 0.314579 0.846457
Si Si3 0.500000 0.395055 0.000000
Si Si4 0.889367 0.867561 0.389548
Si Si5 0.847175 0.934174 0.765463
Si Si6 0.833347 0.465753 0.656535
O O1 0.427546 0.838968 0.859679
O O2 0.674024 0.904242 0.793834
O O3 0.379857 0.937529 0.783548
O O4 0.500000 0.920389 0.000000
O O5 0.750000 0.250000 0.878394
O O6 0.687959 0.324526 0.707040
O O7 0.631100 0.353544 0.933577
O O8 0.576420 0.434866 0.101402
O O9 0.748151 0.914943 0.420579
O O10 0.000000 0.844860 0.500000
O O11 0.025766 0.899913 0.312643
O O12 0.803500 0.989324 0.691310
O O13 0.000000 0.500000 0.620700
#
# Coordination Sequence:
#
# PCOD9322977 Si02
#       6
#     8   8   4   8   8   8
#     4  10  19  37  54  83 126 156 189 249 295 370
#     4  10  22  39  61  88 114 155 209 254 319 375
#     4  10  20  34  55  86 122 152 191 246 306 364
#     4  10  22  43  60  83 123 158 206 266 297 357
#     4  10  20  35  54  87 117 161 193 230 305 369
#     4   9  20  36  56  87 120 158 205 233 294 368
#
# _framework density 20.403015
#
# number of rings (size 3 to 8) (size 9 to 14) (size 15 to 20)
#    0.000    2.182    1.818    0.545    1.273    4.727 
#    3.273   15.455    0.000    0.000    0.000    0.000 
#    0.000    0.000    0.000    0.000    0.000    0.000 
#
# Total GULP energy -122616.437839 kJ/mol
# GULP energy per Si atom -5573.474447 kJ/mol
# Density = 2.035658 g / cm^3
# Si number density = 20.403015 Si / 1000 Ang^3
#
#
#
# Elastic Constant Matrix: (Units=GPa)
#
#
# Indices 1 2 3 4 5 6 
#
# 1 57.9763 -5.7541 -14.0106 0.0000 0.0000 0.0000
# 2 -5.7541 44.5885 -10.5213 0.0000 0.0000 0.0000
# 3 -14.0106 -10.5213 68.9364 0.0000 0.0000 0.0000
# 4 0.0000 0.0000 0.0000 -13.2856 0.0000 0.0000
# 5 0.0000 0.0000 0.0000 0.0000 19.6231 0.0000
# 6 0.0000 0.0000 0.0000 0.0000 0.0000 13.8708
#
#
#
# Elastic Compliance Matrix: (Units=1/GPa)
#
#
# Indices 1 2 3 4 5 6 
#
# 1 0.018629 0.003421 0.004308 0.000000 0.000000 0.000000
# 2 0.003421 0.023893 0.004342 0.000000 0.000000 0.000000
# 3 0.004308 0.004342 0.016044 0.000000 0.000000 0.000000
# 4 0.000000 0.000000 0.000000 -0.075269 0.000000 0.000000
# 5 0.000000 0.000000 0.000000 0.000000 0.050960 0.000000
# 6 0.000000 0.000000 0.000000 0.000000 0.000000 0.072094
#
#
# Mechanical properties :
#
#
# Convention : Reuss Voigt Hill
#
# Bulk Modulus (GPa) = 12.09069 12.32546 12.20808
# Shear Modulus (GPa) = 45.54588 17.49414 31.52001
#
# Velocity S-wave (km/s) = 4.72986 2.93137 3.93475
# Velocity P-wave (km/s) = 5.98060 4.18465 5.16134
#
# Compressibility (1/GPa) = 0.08270825
#
# Stress axis : x y z
#
# Youngs Moduli (GPa) = 53.67960 41.85282 62.32705
#
# Poissons Ratio (x) = -0.14316 -0.26852
# Poissons Ratio (y) = -0.18362 -0.27062
# Poissons Ratio (z) = -0.23126 -0.18172
#
# Static dielectric constant tensor:
#      x y z
#    x 1.798790 0.000000 0.000000 
#    y 0.000000 1.760720 0.000000 
#    z 0.000000 0.000000 1.768020 
# 
# From -- ./inp_files/22712.got.cif
#   From: 2010.05.17/outbox.cif.g08.bks.cpg/sg21_12_cif.got.tgz:22712.got - 2010.06.03 23:14:55.
