data_PCOD9322796
_publ_section_title
;
Structure prediction by ZEFSAII (Michael W. Deem and Ramdas Pophale) SiO2 
 PCOD9322796
Probable space group: C 2 2 2
;
_chemical_formula_sum "Si O2"
_cell_formula_units_Z 40
_cell_length_a 8.948788
_cell_length_b 16.623722
_cell_length_c 14.444162
_cell_angle_alpha 90.000000
_cell_angle_beta 90.000000
_cell_angle_gamma 90.000000
_cell_volume 2148.744796
_symmetry_space_group_name_H-M "C 2 2 2"
_symmetry_group_IT_number 21
_symmetry_cell_setting 'orthorhombic'
loop_
_space_group_symop_operation_xyz
x,y,z
-x,-y,z
x,-y,-z
-x,y,-z
1/2+x,1/2+y,z
1/2-x,1/2-y,z
1/2+x,1/2-y,-z
1/2-x,1/2+y,-z
loop_
_atom_site_type_symbol
_atom_site_label
_atom_site_fract_x
_atom_site_fract_y
_atom_site_fract_z
Si Si1 0.180641 0.905473 0.396661
Si Si2 0.327021 0.490036 0.109746
Si Si3 0.098959 0.581071 0.238916
Si Si4 0.837246 0.899474 0.392014
Si Si5 0.806597 0.338128 0.792880
O O1 0.311562 0.883961 0.326352
O O2 0.206895 0.879352 0.502598
O O3 0.011441 0.878532 0.374240
O O4 0.175345 0.003280 0.389365
O O5 0.500000 0.500000 0.136355
O O6 0.221543 0.551732 0.165022
O O7 0.274203 0.402673 0.142173
O O8 0.311819 0.500000 0.000000
O O9 0.000000 0.500000 0.261794
O O10 0.982594 0.645333 0.199702
O O11 0.738557 0.860290 0.312786
O O12 0.750000 0.250000 0.814103
#
# Coordination Sequence:
#
# PCOD9322796 Si02
#       5
#     8   8   8   8   8
#     4   9  16  31  55  82 107 158 209 241 272 335
#     4  10  21  41  66  87 108 148 203 244 287 363
#     4  10  19  33  57  86 113 155 198 237 285 345
#     4   9  17  31  54  80 117 152 199 245 284 340
#     4  11  23  38  55  88 128 152 182 249 305 339
#
# _framework density 18.615518999999999
#
# number of rings (size 3 to 8) (size 9 to 14) (size 15 to 20)
#    0.000    2.200    4.000    2.400    0.000    4.400 
#    0.000   12.000    0.000    0.000    0.000    0.000 
#    0.000    0.000    0.000    0.000    0.000    0.000 
#
# Total GULP energy -111580.624660 kJ/mol
# GULP energy per Si atom -5579.031233 kJ/mol
# Density = 1.857315 g / cm^3
# Si number density = 18.615519 Si / 1000 Ang^3
#
#
#
# Elastic Constant Matrix: (Units=GPa)
#
#
# Indices 1 2 3 4 5 6 
#
# 1 150.9437 49.2685 71.6653 0.0000 0.0000 0.0000
# 2 49.2685 71.3616 33.0713 0.0000 0.0000 0.0000
# 3 71.6653 33.0713 82.4212 0.0000 0.0000 0.0000
# 4 0.0000 0.0000 0.0000 4.7617 0.0000 0.0000
# 5 0.0000 0.0000 0.0000 0.0000 305.2342 0.0000
# 6 0.0000 0.0000 0.0000 0.0000 0.0000 17.8580
#
#
#
# Elastic Compliance Matrix: (Units=1/GPa)
#
#
# Indices 1 2 3 4 5 6 
#
# 1 0.012287 -0.004339 -0.008943 0.000000 0.000000 0.000000
# 2 -0.004339 0.018746 -0.003749 0.000000 0.000000 0.000000
# 3 -0.008943 -0.003749 0.021413 0.000000 0.000000 0.000000
# 4 0.000000 0.000000 0.000000 0.210007 0.000000 0.000000
# 5 0.000000 0.000000 0.000000 0.000000 0.003276 0.000000
# 6 0.000000 0.000000 0.000000 0.000000 0.000000 0.055997
#
#
# Mechanical properties :
#
#
# Convention : Reuss Voigt Hill
#
# Bulk Modulus (GPa) = 54.39330 68.08184 61.23757
# Shear Modulus (GPa) = 13.81537 75.61889 44.71713
#
# Velocity S-wave (km/s) = 2.72719 6.38041 4.90648
# Velocity P-wave (km/s) = 6.26095 9.53580 8.06632
#
# Compressibility (1/GPa) = 0.01838462
#
# Stress axis : x y z
#
# Youngs Moduli (GPa) = 81.38727 53.34427 46.70101
#
# Poissons Ratio (x) = 0.23144 0.41763
# Poissons Ratio (y) = 0.35311 0.17510
# Poissons Ratio (z) = 0.72781 0.20001
#
# Static dielectric constant tensor:
#      x y z
#    x 1.659850 0.000000 0.000000 
#    y 0.000000 1.604970 0.000000 
#    z 0.000000 0.000000 1.641530 
# 
# From -- ./inp_files/30350.got.cif
#   From: 2010.05.17/outbox.cif.g08.bks.cpg/sg21_16_cif.got.tgz:30350.got - 2010.06.03 23:14:55.
