data_PCOD9322863
_publ_section_title
;
Structure prediction by ZEFSAII (Michael W. Deem and Ramdas Pophale) SiO2 
 PCOD9322863
Probable space group: C 2 2 2
;
_chemical_formula_sum "Si O2"
_cell_formula_units_Z 48
_cell_length_a 27.698517
_cell_length_b 13.493436
_cell_length_c 5.815264
_cell_angle_alpha 90.000000
_cell_angle_beta 90.000000
_cell_angle_gamma 90.000000
_cell_volume 2173.444257
_symmetry_space_group_name_H-M "C 2 2 2"
_symmetry_group_IT_number 21
_symmetry_cell_setting 'orthorhombic'
loop_
_space_group_symop_operation_xyz
x,y,z
-x,-y,z
x,-y,-z
-x,y,-z
1/2+x,1/2+y,z
1/2-x,1/2-y,z
1/2+x,1/2-y,-z
1/2-x,1/2+y,-z
loop_
_atom_site_type_symbol
_atom_site_label
_atom_site_fract_x
_atom_site_fract_y
_atom_site_fract_z
Si Si1 0.192926 0.245924 0.900915
Si Si2 0.857738 0.051481 0.250099
Si Si3 0.550615 0.644659 0.588440
Si Si4 0.549116 0.844781 0.878939
Si Si5 0.363506 0.907493 0.357261
Si Si6 0.116881 0.245995 0.259144
O O1 0.250000 0.250000 0.905726
O O2 0.171791 0.155844 0.748321
O O3 0.172499 0.352999 0.818099
O O4 0.167747 0.222655 0.144258
O O5 0.914853 0.080974 0.247444
O O6 0.847370 0.000000 0.500000
O O7 0.846895 0.000000 0.000000
O O8 0.500000 0.605622 0.500000
O O9 0.539593 0.752347 0.704911
O O10 0.585584 0.659516 0.369155
O O11 0.583974 0.925884 0.759768
O O12 0.500000 0.877893 0.000000
O O13 0.583396 0.795770 0.068667
O O14 0.374207 0.823984 0.542991
O O15 0.344576 0.000000 0.500000
#
# Coordination Sequence:
#
# PCOD9322863 Si02
#       6
#     8   8   8   8   8   8
#     4  11  25  46  71 100 134 191 236 301 377 428
#     4  12  27  48  72 107 152 186 243 308 361 433
#     4  11  21  39  70 101 137 194 234 281 358 432
#     4  10  19  34  66  95 133 184 233 283 361 424
#     4  10  23  42  68  96 137 179 235 300 361 437
#     4  10  19  41  66  92 140 176 233 296 357 420
#
# _framework density 22.084762999999999
#
# number of rings (size 3 to 8) (size 9 to 14) (size 15 to 20)
#    0.000    1.333    6.667    1.000    0.000    4.333 
#    3.000    5.000    0.000    0.000    0.000    0.000 
#    0.000    0.000    0.000    0.000    0.000    0.000 
#
# Total GULP energy -133911.487092 kJ/mol
# GULP energy per Si atom -5579.645296 kJ/mol
# Density = 2.203450 g / cm^3
# Si number density = 22.084763 Si / 1000 Ang^3
#
#
#
# Elastic Constant Matrix: (Units=GPa)
#
#
# Indices 1 2 3 4 5 6 
#
# 1 177.9650 41.1369 41.9635 0.0000 0.0000 0.0000
# 2 41.1369 74.5982 22.5111 0.0000 0.0000 0.0000
# 3 41.9635 22.5111 95.4424 0.0000 0.0000 0.0000
# 4 0.0000 0.0000 0.0000 32.0723 0.0000 0.0000
# 5 0.0000 0.0000 0.0000 0.0000 22.2758 0.0000
# 6 0.0000 0.0000 0.0000 0.0000 0.0000 9.7659
#
#
#
# Elastic Compliance Matrix: (Units=1/GPa)
#
#
# Indices 1 2 3 4 5 6 
#
# 1 0.006876 -0.003100 -0.002292 0.000000 0.000000 0.000000
# 2 -0.003100 0.015830 -0.002371 0.000000 0.000000 0.000000
# 3 -0.002292 -0.002371 0.012044 0.000000 0.000000 0.000000
# 4 0.000000 0.000000 0.000000 0.031180 0.000000 0.000000
# 5 0.000000 0.000000 0.000000 0.000000 0.044892 0.000000
# 6 0.000000 0.000000 0.000000 0.000000 0.000000 0.102397
#
#
# Mechanical properties :
#
#
# Convention : Reuss Voigt Hill
#
# Bulk Modulus (GPa) = 52.01573 62.13652 57.07612
# Shear Modulus (GPa) = 21.26274 28.98241 25.12258
#
# Velocity S-wave (km/s) = 3.10623 3.62653 3.37642
# Velocity P-wave (km/s) = 6.03894 6.76256 6.41097
#
# Compressibility (1/GPa) = 0.01922495
#
# Stress axis : x y z
#
# Youngs Moduli (GPa) = 145.43026 63.17083 83.02600
#
# Poissons Ratio (x) = 0.19584 0.19030
# Poissons Ratio (y) = 0.45086 0.19682
# Poissons Ratio (z) = 0.33333 0.14975
#
# Static dielectric constant tensor:
#      x y z
#    x 1.772860 0.000000 0.000000 
#    y 0.000000 1.893550 0.000000 
#    z 0.000000 0.000000 1.891770 
# 
# From -- ./inp_files/7320.got.cif
#   From: 2010.05.17/outbox.cif.g08.bks.cpg/sg21_4_cif.got.tgz:7320.got - 2010.06.03 23:14:55.
