data_PCOD9322285
_publ_section_title
;
Structure prediction by ZEFSAII (Michael W. Deem and Ramdas Pophale) SiO2 
 PCOD9322285
Probable space group: C 2 2 2
;
_chemical_formula_sum "Si O2"
_cell_formula_units_Z 48
_cell_length_a 11.387393
_cell_length_b 24.325392
_cell_length_c 9.075292
_cell_angle_alpha 90.000000
_cell_angle_beta 90.000000
_cell_angle_gamma 90.000000
_cell_volume 2513.881282
_symmetry_space_group_name_H-M "C 2 2 2"
_symmetry_group_IT_number 21
_symmetry_cell_setting 'orthorhombic'
loop_
_space_group_symop_operation_xyz
x,y,z
-x,-y,z
x,-y,-z
-x,y,-z
1/2+x,1/2+y,z
1/2-x,1/2-y,z
1/2+x,1/2-y,-z
1/2-x,1/2+y,-z
loop_
_atom_site_type_symbol
_atom_site_label
_atom_site_fract_x
_atom_site_fract_y
_atom_site_fract_z
Si Si1 0.000000 0.600145 0.500000
Si Si2 0.981436 0.796595 0.322307
Si Si3 0.750000 0.750000 0.388974
Si Si4 0.336639 0.380588 0.699491
Si Si5 0.626159 0.808565 0.661016
Si Si6 0.862330 0.001700 0.174780
Si Si7 0.755026 0.941832 0.426501
O O1 0.039825 0.640882 0.369401
O O2 0.115926 0.567619 0.549853
O O3 0.845146 0.784192 0.297779
O O4 0.000000 0.798418 0.500000
O O5 0.038961 0.852692 0.266744
O O6 0.058674 0.743574 0.273407
O O7 0.675722 0.788312 0.501179
O O8 0.239197 0.334796 0.738005
O O9 0.316024 0.438323 0.777219
O O10 0.319788 0.395563 0.524991
O O11 0.795738 0.952488 0.259996
O O12 0.000000 0.000000 0.217655
O O13 0.852883 0.000000 0.000000
O O14 0.787942 0.000000 0.500000
#
# Coordination Sequence:
#
# PCOD9322285 Si02
#       7
#     4   8   4   8   8   8   8
#     4  10  17  28  50  78 118 144 167 224 292 340
#     4  10  17  26  43  78 121 139 173 216 285 354
#     4  10  16  24  38  70 132 148 156 216 276 348
#     4  10  19  30  55  80 107 146 182 230 296 331
#     4  10  16  27  44  77 116 144 168 211 273 350
#     4  10  23  40  54  77 111 150 202 248 283 342
#     4   9  20  33  54  81 110 138 188 242 293 339
#
# _framework density 19.093980999999999
#
# number of rings (size 3 to 8) (size 9 to 14) (size 15 to 20)
#    0.000    2.167    5.833    0.250    2.333    2.333 
#    0.000    0.000    0.000   18.000    0.000   18.667 
#    0.000    0.167    0.000    0.000    0.000    0.000 
#
# Total GULP energy -133661.952960 kJ/mol
# GULP energy per Si atom -5569.248040 kJ/mol
# Density = 1.905052 g / cm^3
# Si number density = 19.093981 Si / 1000 Ang^3
#
#
#
# Elastic Constant Matrix: (Units=GPa)
#
#
# Indices 1 2 3 4 5 6 
#
# 1 101.8673 26.2579 18.1581 0.0000 0.0000 0.0000
# 2 26.2579 67.0434 10.1188 0.0000 0.0000 0.0000
# 3 18.1581 10.1188 30.0775 0.0000 0.0000 0.0000
# 4 0.0000 0.0000 0.0000 9.4830 0.0000 0.0000
# 5 0.0000 0.0000 0.0000 0.0000 9.0769 0.0000
# 6 0.0000 0.0000 0.0000 0.0000 0.0000 42.2044
#
#
#
# Elastic Compliance Matrix: (Units=1/GPa)
#
#
# Indices 1 2 3 4 5 6 
#
# 1 0.011831 -0.003746 -0.005882 0.000000 0.000000 0.000000
# 2 -0.003746 0.016900 -0.003424 0.000000 0.000000 0.000000
# 3 -0.005882 -0.003424 0.037951 0.000000 0.000000 0.000000
# 4 0.000000 0.000000 0.000000 0.105452 0.000000 0.000000
# 5 0.000000 0.000000 0.000000 0.000000 0.110170 0.000000
# 6 0.000000 0.000000 0.000000 0.000000 0.000000 0.023694
#
#
# Mechanical properties :
#
#
# Convention : Reuss Voigt Hill
#
# Bulk Modulus (GPa) = 24.64461 34.22864 29.43663
# Shear Modulus (GPa) = 14.46649 21.78309 18.12479
#
# Velocity S-wave (km/s) = 2.75552 3.38129 3.08432
# Velocity P-wave (km/s) = 4.80197 5.76277 5.30417
#
# Compressibility (1/GPa) = 0.04057682
#
# Stress axis : x y z
#
# Youngs Moduli (GPa) = 84.52564 59.17311 26.35010
#
# Poissons Ratio (x) = 0.22165 0.15500
# Poissons Ratio (y) = 0.31661 0.09022
# Poissons Ratio (z) = 0.49719 0.20261
#
# Static dielectric constant tensor:
#      x y z
#    x 1.737870 0.000000 0.000000 
#    y 0.000000 1.717090 0.000000 
#    z 0.000000 0.000000 1.676360 
# 
# From -- ./inp_files/13369.got.cif
#   From: 2010.05.17/outbox.cif.g08.bks.cpg/sg21_7_cif.got.tgz:13369.got - 2010.06.03 23:14:55.
