data_PCOD9322901
_publ_section_title
;
Structure prediction by ZEFSAII (Michael W. Deem and Ramdas Pophale) SiO2 
 PCOD9322901
Probable space group: C 2 2 2
;
_chemical_formula_sum "Si O2"
_cell_formula_units_Z 64
_cell_length_a 15.967901
_cell_length_b 8.990342
_cell_length_c 22.502309
_cell_angle_alpha 90.000000
_cell_angle_beta 90.000000
_cell_angle_gamma 90.000000
_cell_volume 3230.361521
_symmetry_space_group_name_H-M "C 2 2 2"
_symmetry_group_IT_number 21
_symmetry_cell_setting 'orthorhombic'
loop_
_space_group_symop_operation_xyz
x,y,z
-x,-y,z
x,-y,-z
-x,y,-z
1/2+x,1/2+y,z
1/2-x,1/2-y,z
1/2+x,1/2-y,-z
1/2-x,1/2+y,-z
loop_
_atom_site_type_symbol
_atom_site_label
_atom_site_fract_x
_atom_site_fract_y
_atom_site_fract_z
Si Si1 0.242688 0.573196 0.838637
Si Si2 0.570997 0.378725 0.835602
Si Si3 0.586957 0.552684 0.430832
Si Si4 0.746409 0.924074 0.564556
Si Si5 0.491997 0.173806 0.929326
Si Si6 0.658420 0.169047 0.626219
Si Si7 0.082071 0.394720 0.245892
Si Si8 0.812959 0.622354 0.948994
O O1 0.250000 0.750000 0.851890
O O2 0.339533 0.545844 0.821768
O O3 0.165550 0.552932 0.791897
O O4 0.224777 0.475136 0.896038
O O5 0.500000 0.500000 0.838246
O O6 0.557702 0.278744 0.895733
O O7 0.554975 0.257386 0.785353
O O8 0.500000 0.500000 0.404097
O O9 0.585345 0.500000 0.500000
O O10 0.666468 0.468418 0.404360
O O11 0.606130 0.725407 0.418770
O O12 0.750000 0.750000 0.557153
O O13 0.743737 0.000000 0.500000
O O14 0.673661 0.004887 0.600217
O O15 0.393747 0.205487 0.921234
O O16 0.500000 0.000000 0.910960
O O17 0.500000 0.185947 0.000000
O O18 0.750000 0.250000 0.632008
O O19 0.613821 0.147460 0.688696
O O20 0.000000 0.500000 0.245673
O O21 0.750000 0.750000 0.971205
O O22 0.835341 0.500000 0.000000
#
# Coordination Sequence:
#
# PCOD9322901 Si02
#       8
#     8   8   8   8   8   8   8   8
#     4  10  22  41  65  86 119 161 205 254 318 375
#     4  11  23  41  65  93 120 156 206 261 324 375
#     4   9  18  34  58  88 127 170 207 261 327 387
#     4  10  19  35  60  90 126 170 216 266 325 389
#     4  11  22  39  60  85 120 162 198 241 307 381
#     4  10  21  39  61  91 125 168 220 265 323 393
#     4  11  24  43  67  86 124 168 215 265 323 388
#     4  12  24  37  58  87 120 155 199 249 308 378
#
# _framework density 19.812024999999998
#
# number of rings (size 3 to 8) (size 9 to 14) (size 15 to 20)
#    0.000    1.500    1.250    6.750    1.750    1.750 
#    0.000    3.125    0.000    3.750    0.000    0.000 
#    0.000    0.000    0.000    0.000    0.000    0.000 
#
# Total GULP energy -178306.904839 kJ/mol
# GULP energy per Si atom -5572.090776 kJ/mol
# Density = 1.976693 g / cm^3
# Si number density = 19.812025 Si / 1000 Ang^3
#
#
#
# Elastic Constant Matrix: (Units=GPa)
#
#
# Indices 1 2 3 4 5 6 
#
# 1 108.1443 46.0523 23.9384 0.0000 0.0000 0.0000
# 2 46.0523 102.5016 49.3561 0.0000 0.0000 0.0000
# 3 23.9384 49.3561 87.5504 0.0000 0.0000 0.0000
# 4 0.0000 0.0000 0.0000 11.1386 0.0000 0.0000
# 5 0.0000 0.0000 0.0000 0.0000 26.4427 0.0000
# 6 0.0000 0.0000 0.0000 0.0000 0.0000 34.4327
#
#
#
# Elastic Compliance Matrix: (Units=1/GPa)
#
#
# Indices 1 2 3 4 5 6 
#
# 1 0.011441 -0.004988 -0.000316 0.000000 0.000000 0.000000
# 2 -0.004988 0.015566 -0.007411 0.000000 0.000000 0.000000
# 3 -0.000316 -0.007411 0.015686 0.000000 0.000000 0.000000
# 4 0.000000 0.000000 0.000000 0.089778 0.000000 0.000000
# 5 0.000000 0.000000 0.000000 0.000000 0.037818 0.000000
# 6 0.000000 0.000000 0.000000 0.000000 0.000000 0.029042
#
#
# Mechanical properties :
#
#
# Convention : Reuss Voigt Hill
#
# Bulk Modulus (GPa) = 57.93017 59.65445 58.79231
# Shear Modulus (GPa) = 21.69052 26.32610 24.00831
#
# Velocity S-wave (km/s) = 3.31239 3.64922 3.48488
# Velocity P-wave (km/s) = 6.62817 6.92324 6.77731
#
# Compressibility (1/GPa) = 0.01726216
#
# Stress axis : x y z
#
# Youngs Moduli (GPa) = 87.40495 64.24443 63.74912
#
# Poissons Ratio (x) = 0.32045 0.02016
# Poissons Ratio (y) = 0.43597 0.47246
# Poissons Ratio (z) = 0.02765 0.47613
#
# Static dielectric constant tensor:
#      x y z
#    x 1.806480 0.000000 0.000000 
#    y 0.000000 1.704100 0.000000 
#    z 0.000000 0.000000 1.480880 
# 
# From -- ./inp_files/38743.got.cif
#   From: 2010.05.17/outbox.cif.g08.bks.cpg/sg21_20_cif.got.tgz:38743.got - 2010.06.03 23:14:55.
