data_PCOD9322227
_publ_section_title
;
Structure prediction by ZEFSAII (Michael W. Deem and Ramdas Pophale) SiO2 
 PCOD9322227
Probable space group: C 2 2 21
;
_chemical_formula_sum "Si O2"
_cell_formula_units_Z 28
_cell_length_a 9.000000
_cell_length_b 21.000000
_cell_length_c 15.000000
_cell_angle_alpha 90.000000
_cell_angle_beta 90.000000
_cell_angle_gamma 90.000000
_cell_volume 2835.000000
_symmetry_space_group_name_H-M "C 2 2 21"
_symmetry_group_IT_number 20
_symmetry_cell_setting 'orthorhombic'
loop_
_space_group_symop_operation_xyz
x,y,z
-x,-y,1/2+z
x,-y,-z
-x,y,1/2-z
1/2+x,1/2+y,z
1/2-x,1/2-y,1/2+z
1/2+x,1/2-y,-z
1/2-x,1/2+y,1/2-z
loop_
_atom_site_type_symbol
_atom_site_label
_atom_site_fract_x
_atom_site_fract_y
_atom_site_fract_z
Si Si1 0.000000 0.791997 0.750000
Si Si2 0.695995 0.409381 0.673693
Si Si3 0.500000 0.865675 0.750000
Si Si4 0.822102 0.805552 0.445723
Si Si5 0.347361 0.444163 0.200794
Si Si6 0.020449 0.070852 0.510265
Si Si7 0.230341 0.315154 0.237603
Si Si8 0.601815 0.766893 0.605014
O O1 0.886497 0.844224 0.792799
O O2 0.891675 0.738048 0.706252
O O3 0.870746 0.400331 0.693590
O O4 0.668695 0.479671 0.718205
O O5 0.625154 0.415617 0.574979
O O6 0.583265 0.823002 0.676361
O O7 0.755971 0.806139 0.344283
O O8 0.710719 0.786230 0.524858
O O9 0.902126 0.872686 0.471830
O O10 0.947483 0.751543 0.440711
O O11 0.500000 0.424284 0.250000
O O12 0.375468 0.435812 0.096190
O O13 0.221564 0.392065 0.226793
O O14 0.949130 0.000000 0.500000
O O15 0.359020 0.293683 0.168487
#
# Coordination Sequence:
#
# PCOD9322227 Si02
#       8
#     4   8   4   8   8   8   8   8
#     4  12  24  41  69 106 138 176 246 286 344 417
#     4  11  25  43  71 101 134 189 236 293 353 421
#     4  12  26  47  67  94 144 178 228 288 364 417
#     4  12  25  41  70 101 135 181 232 287 350 426
#     4  11  21  43  73  99 139 188 233 282 356 427
#     4  10  23  41  69 101 129 177 241 283 343 422
#     4  12  24  43  69 103 141 183 231 291 356 413
#     4  12  25  42  68 100 137 176 227 287 356 417
#
# _framework density 9.8765429999999999
#
# number of rings (size 3 to 8) (size 9 to 14) (size 15 to 20)
#    0.000    0.571    6.429    0.857    6.000    0.571 
#    0.000    0.000    3.143    0.000    0.000    0.000 
#    0.000    0.000    0.000    0.000    0.000    0.000 
#
# Total GULP energy -155909.498553 kJ/mol
# GULP energy per Si atom -5568.196377 kJ/mol
# Density = 0.985406 g / cm^3
# Si number density = 9.876543 Si / 1000 Ang^3
#
#
#
# Elastic Constant Matrix: (Units=GPa)
#
#
# Indices 1 2 3 4 5 6 
#
# 1 56.6307 15.8423 24.4599 0.0000 0.0000 0.0000
# 2 15.8423 117.8147 15.3110 0.0000 0.0000 0.0000
# 3 24.4599 15.3110 91.0626 0.0000 0.0000 0.0000
# 4 0.0000 0.0000 0.0000 34.0116 0.0000 0.0000
# 5 0.0000 0.0000 0.0000 0.0000 27.5872 0.0000
# 6 0.0000 0.0000 0.0000 0.0000 0.0000 27.8506
#
#
#
# Elastic Compliance Matrix: (Units=1/GPa)
#
#
# Indices 1 2 3 4 5 6 
#
# 1 0.020464 -0.002083 -0.005146 0.000000 0.000000 0.000000
# 2 -0.002083 0.008890 -0.000935 0.000000 0.000000 0.000000
# 3 -0.005146 -0.000935 0.012521 0.000000 0.000000 0.000000
# 4 0.000000 0.000000 0.000000 0.029402 0.000000 0.000000
# 5 0.000000 0.000000 0.000000 0.000000 0.036249 0.000000
# 6 0.000000 0.000000 0.000000 0.000000 0.000000 0.035906
#
#
# Mechanical properties :
#
#
# Convention : Reuss Voigt Hill
#
# Bulk Modulus (GPa) = 39.14616 41.85938 40.50277
# Shear Modulus (GPa) = 29.71329 31.88287 30.79808
#
# Velocity S-wave (km/s) = 3.88265 4.02191 3.95289
# Velocity P-wave (km/s) = 6.32145 6.54255 6.43295
#
# Compressibility (1/GPa) = 0.02554529
#
# Stress axis : x y z
#
# Youngs Moduli (GPa) = 48.86675 112.49203 79.86535
#
# Poissons Ratio (x) = 0.23431 0.41103
# Poissons Ratio (y) = 0.10178 0.07469
# Poissons Ratio (z) = 0.25149 0.10520
#
# Static dielectric constant tensor:
#      x y z
#    x 1.777690 0.000000 0.000000 
#    y 0.000000 1.734640 0.000000 
#    z 0.000000 0.000000 1.703360 
# 
# From -- ./inp_files/19257.got.cif
#   From: 2010.05.17/outbox.ucp.g08.bks.cvg/sg20_10_cif.got.tgz:19257.got - 2010.06.11 15:13:06.
