data_PCOD9322991
_publ_section_title
;
Structure prediction by ZEFSAII (Michael W. Deem and Ramdas Pophale) SiO2 
 PCOD9322991
Probable space group: C 2 2 2
;
_chemical_formula_sum "Si O2"
_cell_formula_units_Z 48
_cell_length_a 11.251517
_cell_length_b 13.921030
_cell_length_c 14.604072
_cell_angle_alpha 90.000000
_cell_angle_beta 90.000000
_cell_angle_gamma 90.000000
_cell_volume 2287.475312
_symmetry_space_group_name_H-M "C 2 2 2"
_symmetry_group_IT_number 21
_symmetry_cell_setting 'orthorhombic'
loop_
_space_group_symop_operation_xyz
x,y,z
-x,-y,z
x,-y,-z
-x,y,-z
1/2+x,1/2+y,z
1/2-x,1/2-y,z
1/2+x,1/2-y,-z
1/2-x,1/2+y,-z
loop_
_atom_site_type_symbol
_atom_site_label
_atom_site_fract_x
_atom_site_fract_y
_atom_site_fract_z
Si Si1 0.649728 0.603209 0.047987
Si Si2 0.564821 0.852543 0.738451
Si Si3 0.692146 0.855444 0.341564
Si Si4 0.255001 0.995724 0.795774
Si Si5 0.905778 0.166114 0.138356
Si Si6 0.629162 0.811814 0.531709
O O1 0.753796 0.577332 0.118276
O O2 0.540523 0.640274 0.109348
O O3 0.624640 0.500000 0.000000
O O4 0.659938 0.671876 0.960475
O O5 0.424207 0.853558 0.722443
O O6 0.624559 0.944186 0.785113
O O7 0.598811 0.759354 0.798195
O O8 0.613463 0.849340 0.634151
O O9 0.750000 0.750000 0.341404
O O10 0.653850 0.880959 0.444978
O O11 0.772716 0.935015 0.294753
O O12 0.154552 0.076203 0.811266
O O13 0.500000 0.766237 0.500000
O O14 0.750000 0.750000 0.535166
#
# Coordination Sequence:
#
# PCOD9322991 Si02
#       6
#     8   8   8   8   8   8
#     4   9  19  37  59  84 118 162 209 254 302 362
#     4  11  22  37  60  90 122 159 204 255 311 368
#     4  10  22  39  60  85 119 163 205 251 308 369
#     4  11  20  35  58  86 118 152 198 249 300 361
#     4  10  19  37  61  86 117 161 209 251 305 368
#     4   9  19  37  59  88 125 163 208 258 309 370
#
# _framework density 20.983833000000001
#
# number of rings (size 3 to 8) (size 9 to 14) (size 15 to 20)
#    0.000    2.000    0.000    6.500    0.000    0.667 
#    0.000   24.167    0.000    9.000    0.000    3.500 
#    0.000    0.000    0.000    0.000    0.000    0.000 
#
# Total GULP energy -133734.233991 kJ/mol
# GULP energy per Si atom -5572.259750 kJ/mol
# Density = 2.093607 g / cm^3
# Si number density = 20.983833 Si / 1000 Ang^3
#
#
#
# Elastic Constant Matrix: (Units=GPa)
#
#
# Indices 1 2 3 4 5 6 
#
# 1 84.2680 32.2540 55.9116 0.0000 0.0000 0.0000
# 2 32.2540 82.3315 68.4899 0.0000 0.0000 0.0000
# 3 55.9116 68.4899 163.6113 0.0000 0.0000 0.0000
# 4 0.0000 0.0000 0.0000 1.4797 0.0000 0.0000
# 5 0.0000 0.0000 0.0000 0.0000 40.0734 0.0000
# 6 0.0000 0.0000 0.0000 0.0000 0.0000 27.9311
#
#
#
# Elastic Compliance Matrix: (Units=1/GPa)
#
#
# Indices 1 2 3 4 5 6 
#
# 1 0.015698 -0.002589 -0.004281 0.000000 0.000000 0.000000
# 2 -0.002589 0.019062 -0.007095 0.000000 0.000000 0.000000
# 3 -0.004281 -0.007095 0.010545 0.000000 0.000000 0.000000
# 4 0.000000 0.000000 0.000000 0.675804 0.000000 0.000000
# 5 0.000000 0.000000 0.000000 0.000000 0.024954 0.000000
# 6 0.000000 0.000000 0.000000 0.000000 0.000000 0.035802
#
#
# Mechanical properties :
#
#
# Convention : Reuss Voigt Hill
#
# Bulk Modulus (GPa) = 57.55000 71.50241 64.52621
# Shear Modulus (GPa) = 6.13055 25.46719 15.79887
#
# Velocity S-wave (km/s) = 1.71111 3.48754 2.74689
# Velocity P-wave (km/s) = 5.60261 7.09692 6.39357
#
# Compressibility (1/GPa) = 0.01737619
#
# Stress axis : x y z
#
# Youngs Moduli (GPa) = 63.70198 52.45914 94.83053
#
# Poissons Ratio (x) = 0.13580 0.40596
# Poissons Ratio (y) = 0.16490 0.67284
# Poissons Ratio (z) = 0.27270 0.37221
#
# Static dielectric constant tensor:
#      x y z
#    x 1.894380 0.000000 0.000000 
#    y 0.000000 1.768810 0.000000 
#    z 0.000000 0.000000 1.797270 
# 
# From -- ./inp_files/31506.got.cif
#   From: 2010.05.17/outbox.cif.g08.bks.cpg/sg21_16_cif.got.tgz:31506.got - 2010.06.03 23:14:55.
