data_PCOD9322354
_publ_section_title
;
Structure prediction by ZEFSAII (Michael W. Deem and Ramdas Pophale) SiO2 
 PCOD9322354
Probable space group: C 2 2 2
;
_chemical_formula_sum "Si O2"
_cell_formula_units_Z 44
_cell_length_a 8.765188
_cell_length_b 27.820764
_cell_length_c 8.295021
_cell_angle_alpha 90.000000
_cell_angle_beta 90.000000
_cell_angle_gamma 90.000000
_cell_volume 2022.775932
_symmetry_space_group_name_H-M "C 2 2 2"
_symmetry_group_IT_number 21
_symmetry_cell_setting 'orthorhombic'
loop_
_space_group_symop_operation_xyz
x,y,z
-x,-y,z
x,-y,-z
-x,y,-z
1/2+x,1/2+y,z
1/2-x,1/2-y,z
1/2+x,1/2-y,-z
1/2-x,1/2+y,-z
loop_
_atom_site_type_symbol
_atom_site_label
_atom_site_fract_x
_atom_site_fract_y
_atom_site_fract_z
Si Si1 0.509056 0.573284 0.243325
Si Si2 0.500000 0.186903 0.000000
Si Si3 0.991035 0.764182 0.241702
Si Si4 0.000000 0.693280 0.500000
Si Si5 0.500000 0.500000 0.500000
Si Si6 0.000000 0.000000 0.000000
Si Si7 0.205566 0.154207 0.415998
Si Si8 0.209095 0.154138 0.808493
O O1 0.427078 0.538610 0.375928
O O2 0.586398 0.536106 0.119897
O O3 0.627331 0.608715 0.332148
O O4 0.386993 0.606557 0.152109
O O5 0.578720 0.224712 0.876979
O O6 0.369335 0.158189 0.901814
O O7 0.877280 0.799338 0.338429
O O8 0.075250 0.730173 0.373470
O O9 0.110281 0.798625 0.152662
O O10 0.114595 0.660899 0.601247
O O11 0.197969 0.152413 0.611229
#
# Coordination Sequence:
#
# PCOD9322354 Si02
#       8
#     8   4   8   4   2   2   8   8
#     4  10  21  41  71 100 132 168 220 303 358 425
#     4  12  26  37  62 101 144 195 236 291 346 398
#     4  11  23  39  62  91 138 193 242 286 328 385
#     4  12  22  35  64  93 136 191 240 281 332 398
#     4  10  16  36  76 104 108 162 224 276 366 426
#     4  10  24  40  68 112 128 158 220 292 378 438
#     4  11  22  40  65  97 135 184 242 289 337 410
#     4  11  22  42  63  96 139 183 238 290 340 410
#
# _framework density 21.752286000000002
#
# number of rings (size 3 to 8) (size 9 to 14) (size 15 to 20)
#    0.000    1.091    5.455    2.182    0.000    7.273 
#    0.000    0.000    0.000    1.091    0.000    0.000 
#    0.000    0.000    0.000    0.000    0.000    0.000 
#
# Total GULP energy -122518.297759 kJ/mol
# GULP energy per Si atom -5569.013534 kJ/mol
# Density = 2.170278 g / cm^3
# Si number density = 21.752286 Si / 1000 Ang^3
#
#
#
# Elastic Constant Matrix: (Units=GPa)
#
#
# Indices 1 2 3 4 5 6 
#
# 1 126.4843 65.4725 47.1625 0.0000 0.0000 0.0000
# 2 65.4725 152.7291 69.7298 0.0000 0.0000 0.0000
# 3 47.1625 69.7298 114.8698 0.0000 0.0000 0.0000
# 4 0.0000 0.0000 0.0000 53.8254 0.0000 0.0000
# 5 0.0000 0.0000 0.0000 0.0000 41.7551 0.0000
# 6 0.0000 0.0000 0.0000 0.0000 0.0000 8.5792
#
#
#
# Elastic Compliance Matrix: (Units=1/GPa)
#
#
# Indices 1 2 3 4 5 6 
#
# 1 0.010546 -0.003519 -0.002193 0.000000 0.000000 0.000000
# 2 -0.003519 0.010232 -0.004766 0.000000 0.000000 0.000000
# 3 -0.002193 -0.004766 0.012499 0.000000 0.000000 0.000000
# 4 0.000000 0.000000 0.000000 0.018579 0.000000 0.000000
# 5 0.000000 0.000000 0.000000 0.000000 0.023949 0.000000
# 6 0.000000 0.000000 0.000000 0.000000 0.000000 0.116561
#
#
# Mechanical properties :
#
#
# Convention : Reuss Voigt Hill
#
# Bulk Modulus (GPa) = 81.17466 84.31254 82.74360
# Shear Modulus (GPa) = 22.99574 34.94648 28.97111
#
# Velocity S-wave (km/s) = 3.25493 4.01255 3.65343
# Velocity P-wave (km/s) = 7.17808 7.76607 7.47786
#
# Compressibility (1/GPa) = 0.01231912
#
# Stress axis : x y z
#
# Youngs Moduli (GPa) = 94.82515 97.72879 80.00338
#
# Poissons Ratio (x) = 0.34394 0.17548
# Poissons Ratio (y) = 0.33372 0.38133
# Poissons Ratio (z) = 0.20799 0.46582
#
# Static dielectric constant tensor:
#      x y z
#    x 1.891220 0.000000 0.000000 
#    y 0.000000 1.799780 0.000000 
#    z 0.000000 0.000000 2.002040 
# 
# From -- ./inp_files/11460.got.cif
#   From: 2010.05.17/outbox.cif.g08.bks.cpg/sg21_6_cif.got.tgz:11460.got - 2010.06.03 23:14:55.
