data_PCOD9322369
_publ_section_title
;
Structure prediction by ZEFSAII (Michael W. Deem and Ramdas Pophale) SiO2 
 PCOD9322369
Probable space group: C 2 2 2
;
_chemical_formula_sum "Si O2"
_cell_formula_units_Z 48
_cell_length_a 30.622817
_cell_length_b 9.346907
_cell_length_c 8.467472
_cell_angle_alpha 90.000000
_cell_angle_beta 90.000000
_cell_angle_gamma 90.000000
_cell_volume 2423.632847
_symmetry_space_group_name_H-M "C 2 2 2"
_symmetry_group_IT_number 21
_symmetry_cell_setting 'orthorhombic'
loop_
_space_group_symop_operation_xyz
x,y,z
-x,-y,z
x,-y,-z
-x,y,-z
1/2+x,1/2+y,z
1/2-x,1/2-y,z
1/2+x,1/2-y,-z
1/2-x,1/2+y,-z
loop_
_atom_site_type_symbol
_atom_site_label
_atom_site_fract_x
_atom_site_fract_y
_atom_site_fract_z
Si Si1 0.132454 0.596637 0.295680
Si Si2 0.393157 0.775855 0.606277
Si Si3 0.792138 0.346848 0.071857
Si Si4 0.517203 0.843097 0.251388
Si Si5 0.639764 0.640163 0.086855
Si Si6 0.936802 0.286583 0.072489
O O1 0.119276 0.719093 0.422548
O O2 0.125621 0.433228 0.347622
O O3 0.180426 0.626099 0.231078
O O4 0.097759 0.612073 0.155929
O O5 0.445746 0.783188 0.632301
O O6 0.372405 0.660460 0.727527
O O7 0.750000 0.250000 0.095262
O O8 0.780356 0.500000 0.000000
O O9 0.826257 0.265773 0.956255
O O10 0.474433 0.752999 0.200577
O O11 0.500000 0.000000 0.300567
O O12 0.541614 0.853824 0.082818
O O13 0.658504 0.500000 0.000000
O O14 0.593818 0.662873 0.995387
#
# Coordination Sequence:
#
# PCOD9322369 Si02
#       6
#     8   8   8   8   8   8
#     4  10  20  35  56  86 121 162 195 255 328 377
#     4  10  20  34  56  85 126 165 202 256 316 380
#     4  11  22  40  67  91 117 150 202 263 319 395
#     4  10  17  27  50  84 118 156 215 265 302 350
#     4  10  21  38  61  87 119 165 211 254 316 376
#     4   9  18  29  50  79 117 159 206 259 297 349
#
# _framework density 19.80498
#
# number of rings (size 3 to 8) (size 9 to 14) (size 15 to 20)
#    0.000    2.000    3.333    1.500    2.333    0.667 
#    0.000   10.833    3.667    0.000    0.000   14.000 
#    0.000    0.000    0.000    0.000    0.000    0.000 
#
# Total GULP energy -133641.432372 kJ/mol
# GULP energy per Si atom -5568.393016 kJ/mol
# Density = 1.975990 g / cm^3
# Si number density = 19.804980 Si / 1000 Ang^3
#
#
#
# Elastic Constant Matrix: (Units=GPa)
#
#
# Indices 1 2 3 4 5 6 
#
# 1 126.2952 20.9933 25.7082 0.0000 0.0000 0.0000
# 2 20.9933 62.7338 10.4024 0.0000 0.0000 0.0000
# 3 25.7082 10.4024 57.9380 0.0000 0.0000 0.0000
# 4 0.0000 0.0000 0.0000 18.7673 0.0000 0.0000
# 5 0.0000 0.0000 0.0000 0.0000 14.1852 0.0000
# 6 0.0000 0.0000 0.0000 0.0000 0.0000 25.2735
#
#
#
# Elastic Compliance Matrix: (Units=1/GPa)
#
#
# Indices 1 2 3 4 5 6 
#
# 1 0.009051 -0.002435 -0.003579 0.000000 0.000000 0.000000
# 2 -0.002435 0.017085 -0.001987 0.000000 0.000000 0.000000
# 3 -0.003579 -0.001987 0.019205 0.000000 0.000000 0.000000
# 4 0.000000 0.000000 0.000000 0.053284 0.000000 0.000000
# 5 0.000000 0.000000 0.000000 0.000000 0.070496 0.000000
# 6 0.000000 0.000000 0.000000 0.000000 0.000000 0.039567
#
#
# Mechanical properties :
#
#
# Convention : Reuss Voigt Hill
#
# Bulk Modulus (GPa) = 34.08520 40.13054 37.10787
# Shear Modulus (GPa) = 21.32470 24.30274 22.81372
#
# Velocity S-wave (km/s) = 3.28492 3.50680 3.39767
# Velocity P-wave (km/s) = 5.62454 6.05836 5.84547
#
# Compressibility (1/GPa) = 0.02933825
#
# Stress axis : x y z
#
# Youngs Moduli (GPa) = 110.48114 58.53150 52.07087
#
# Poissons Ratio (x) = 0.14255 0.18636
# Poissons Ratio (y) = 0.26908 0.10345
# Poissons Ratio (z) = 0.39541 0.11629
#
# Static dielectric constant tensor:
#      x y z
#    x 1.723160 0.000000 0.000000 
#    y 0.000000 1.738550 0.000000 
#    z 0.000000 0.000000 1.771520 
# 
# From -- ./inp_files/19672.got.cif
#   From: 2010.05.17/outbox.cif.g08.bks.cpg/sg21_10_cif.got.tgz:19672.got - 2010.06.03 23:14:55.
