data_PCOD9322665
_publ_section_title
;
Structure prediction by ZEFSAII (Michael W. Deem and Ramdas Pophale) SiO2 
 PCOD9322665
Probable space group: C 2 2 2
;
_chemical_formula_sum "Si O2"
_cell_formula_units_Z 38
_cell_length_a 7.224844
_cell_length_b 30.151097
_cell_length_c 8.731666
_cell_angle_alpha 90.000000
_cell_angle_beta 90.000000
_cell_angle_gamma 90.000000
_cell_volume 1902.079684
_symmetry_space_group_name_H-M "C 2 2 2"
_symmetry_group_IT_number 21
_symmetry_cell_setting 'orthorhombic'
loop_
_space_group_symop_operation_xyz
x,y,z
-x,-y,z
x,-y,-z
-x,y,-z
1/2+x,1/2+y,z
1/2-x,1/2-y,z
1/2+x,1/2-y,-z
1/2-x,1/2+y,-z
loop_
_atom_site_type_symbol
_atom_site_label
_atom_site_fract_x
_atom_site_fract_y
_atom_site_fract_z
Si Si1 0.000000 0.000000 0.500000
Si Si2 0.788924 0.167172 0.059601
Si Si3 0.250000 0.250000 0.149394
Si Si4 0.201603 0.490491 0.259990
Si Si5 0.906230 0.785074 0.650627
Si Si6 0.220350 0.932169 0.027599
O O1 0.144106 0.023449 0.383500
O O2 0.804689 0.181345 0.235621
O O3 0.710705 0.117983 0.044692
O O4 0.708400 0.207478 0.958560
O O5 0.000000 0.164530 0.000000
O O6 0.429151 0.261888 0.251371
O O7 0.255796 0.536359 0.174591
O O8 0.000000 0.500000 0.326463
O O9 0.190693 0.455442 0.120940
O O10 0.750000 0.750000 0.602505
O O11 0.000000 0.805120 0.500000
O O12 0.000000 0.931632 0.000000
#
# Coordination Sequence:
#
# PCOD9322665 Si02
#       6
#     2   8   4   8   8   8
#     4  12  22  42  68  82 132 170 182 256 316 380
#     4   9  20  36  63  91 115 161 207 253 302 370
#     4  10  20  40  60  86 118 158 212 252 292 364
#     4  11  22  40  64  93 120 158 206 249 308 372
#     4  11  21  38  60  85 122 162 202 253 312 362
#     4  10  18  40  65  89 121 158 204 256 307 357
#
# _framework density 19.978131000000001
#
# number of rings (size 3 to 8) (size 9 to 14) (size 15 to 20)
#    0.000    1.684    4.211    2.211    0.000    0.000 
#    9.474    0.000    0.000    0.000    0.000    0.000 
#    0.000    0.000    0.000    0.000    0.000    0.000 
#
# Total GULP energy -105985.812370 kJ/mol
# GULP energy per Si atom -5578.200651 kJ/mol
# Density = 1.993266 g / cm^3
# Si number density = 19.978131 Si / 1000 Ang^3
#
#
#
# Elastic Constant Matrix: (Units=GPa)
#
#
# Indices 1 2 3 4 5 6 
#
# 1 99.2133 10.5343 24.8869 0.0000 0.0000 0.0000
# 2 10.5343 125.3028 39.1242 0.0000 0.0000 0.0000
# 3 24.8869 39.1242 118.5352 0.0000 0.0000 0.0000
# 4 0.0000 0.0000 0.0000 4.8539 0.0000 0.0000
# 5 0.0000 0.0000 0.0000 0.0000 32.1482 0.0000
# 6 0.0000 0.0000 0.0000 0.0000 0.0000 10.3524
#
#
#
# Elastic Compliance Matrix: (Units=1/GPa)
#
#
# Indices 1 2 3 4 5 6 
#
# 1 0.010645 -0.000220 -0.002162 0.000000 0.000000 0.000000
# 2 -0.000220 0.008902 -0.002892 0.000000 0.000000 0.000000
# 3 -0.002162 -0.002892 0.009845 0.000000 0.000000 0.000000
# 4 0.000000 0.000000 0.000000 0.206019 0.000000 0.000000
# 5 0.000000 0.000000 0.000000 0.000000 0.031106 0.000000
# 6 0.000000 0.000000 0.000000 0.000000 0.000000 0.096596
#
#
# Mechanical properties :
#
#
# Convention : Reuss Voigt Hill
#
# Bulk Modulus (GPa) = 53.06872 54.68243 53.87557
# Shear Modulus (GPa) = 13.15987 27.37129 20.26558
#
# Velocity S-wave (km/s) = 2.56933 3.70545 3.18840
# Velocity P-wave (km/s) = 5.95172 6.76297 6.37027
#
# Compressibility (1/GPa) = 0.01884349
#
# Stress axis : x y z
#
# Youngs Moduli (GPa) = 93.94035 112.33204 101.57523
#
# Poissons Ratio (x) = 0.02468 0.21965
# Poissons Ratio (y) = 0.02064 0.29377
# Poissons Ratio (z) = 0.20314 0.32488
#
# Static dielectric constant tensor:
#      x y z
#    x 1.756990 0.000000 0.000000 
#    y 0.000000 1.701030 0.000000 
#    z 0.000000 0.000000 1.709000 
# 
# From -- ./inp_files/11349.got.cif
#   From: 2010.05.17/outbox.cif.g08.bks.cpg/sg21_6_cif.got.tgz:11349.got - 2010.06.03 23:14:55.
