data_PCOD9322110
_publ_section_title
;
Structure prediction by ZEFSAII (Michael W. Deem and Ramdas Pophale) SiO2 
 PCOD9322110
Probable space group: C 2 2 21
;
_chemical_formula_sum "Si O2"
_cell_formula_units_Z 24
_cell_length_a 8.093276
_cell_length_b 16.423635
_cell_length_c 7.363242
_cell_angle_alpha 90.000000
_cell_angle_beta 90.000000
_cell_angle_gamma 90.000000
_cell_volume 978.729571
_symmetry_space_group_name_H-M "C 2 2 21"
_symmetry_group_IT_number 20
_symmetry_cell_setting 'orthorhombic'
loop_
_space_group_symop_operation_xyz
x,y,z
-x,-y,1/2+z
x,-y,-z
-x,y,1/2-z
1/2+x,1/2+y,z
1/2-x,1/2-y,1/2+z
1/2+x,1/2-y,-z
1/2-x,1/2+y,1/2-z
loop_
_atom_site_type_symbol
_atom_site_label
_atom_site_fract_x
_atom_site_fract_y
_atom_site_fract_z
Si Si1 0.822314 0.709505 0.847108
Si Si2 0.196519 0.621638 0.262679
Si Si3 0.000000 0.873288 0.250000
Si Si4 0.625247 0.500000 0.500000
O O1 0.785505 0.805874 0.850490
O O2 0.663848 0.678715 0.737378
O O3 0.000000 0.695682 0.750000
O O4 0.797313 0.657989 0.031665
O O5 0.000000 0.613355 0.250000
O O6 0.271032 0.539580 0.168055
O O7 0.992505 0.931051 0.077263
#
# Coordination Sequence:
#
# PCOD9322110 Si02
#       4
#     8   8   4   4
#     4  12  27  49  85 116 155 213 272 328 388 485
#     4  12  27  50  78 119 160 211 268 325 405 468
#     4  12  26  50  74 120 152 216 260 326 404 460
#     4  12  28  46  80 114 170 206 258 340 398 474
#
# _framework density 24.521588000000001
#
# number of rings (size 3 to 8) (size 9 to 14) (size 15 to 20)
#    0.000    0.000    1.667    8.000    7.000    4.000 
#    0.000    1.667    0.000    0.000    0.000    0.000 
#    0.000    0.000    0.000    0.000    0.000    0.000 
#
# Total GULP energy -66942.893311 kJ/mol
# GULP energy per Si atom -5578.574443 kJ/mol
# Density = 2.446578 g / cm^3
# Si number density = 24.521588 Si / 1000 Ang^3
#
#
#
# Elastic Constant Matrix: (Units=GPa)
#
#
# Indices 1 2 3 4 5 6 
#
# 1 197.8915 71.7298 57.5263 0.0000 0.0000 0.0000
# 2 71.7298 117.8636 38.9672 0.0000 0.0000 0.0000
# 3 57.5263 38.9672 133.2148 0.0000 0.0000 0.0000
# 4 0.0000 0.0000 0.0000 57.5520 0.0000 0.0000
# 5 0.0000 0.0000 0.0000 0.0000 17.2702 0.0000
# 6 0.0000 0.0000 0.0000 0.0000 0.0000 12.6916
#
#
#
# Elastic Compliance Matrix: (Units=1/GPa)
#
#
# Indices 1 2 3 4 5 6 
#
# 1 0.006909 -0.003563 -0.001941 0.000000 0.000000 0.000000
# 2 -0.003563 0.011230 -0.001746 0.000000 0.000000 0.000000
# 3 -0.001941 -0.001746 0.008856 0.000000 0.000000 0.000000
# 4 0.000000 0.000000 0.000000 0.017376 0.000000 0.000000
# 5 0.000000 0.000000 0.000000 0.000000 0.057903 0.000000
# 6 0.000000 0.000000 0.000000 0.000000 0.000000 0.078792
#
#
# Mechanical properties :
#
#
# Convention : Reuss Voigt Hill
#
# Bulk Modulus (GPa) = 80.04023 87.26853 83.65438
# Shear Modulus (GPa) = 25.03354 36.21920 30.62637
#
# Velocity S-wave (km/s) = 3.19858 3.84739 3.53789
# Velocity P-wave (km/s) = 6.80829 7.44327 7.13285
#
# Compressibility (1/GPa) = 0.01249372
#
# Stress axis : x y z
#
# Youngs Moduli (GPa) = 144.73741 89.04657 112.91971
#
# Poissons Ratio (x) = 0.31726 0.21922
# Poissons Ratio (y) = 0.51569 0.19720
# Poissons Ratio (z) = 0.28099 0.15551
#
# Static dielectric constant tensor:
#      x y z
#    x 1.506580 0.000000 0.000000 
#    y 0.000000 1.963560 0.000000 
#    z 0.000000 0.000000 2.661710 
# 
# From -- ./inp_files/5478.got.cif
#   From: 2010.05.17/outbox.cif.g08.bks.cpg/sg20_3_cif.got.tgz:5478.got - 2010.06.03 22:52:26.
