data_PCOD9322008
_publ_section_title
;
Structure prediction by ZEFSAII (Michael W. Deem and Ramdas Pophale) SiO2 
 PCOD9322008
Probable space group: C 2 2 21
;
_chemical_formula_sum "Si O2"
_cell_formula_units_Z 52
_cell_length_a 23.229028
_cell_length_b 14.346302
_cell_length_c 6.741912
_cell_angle_alpha 90.000000
_cell_angle_beta 90.000000
_cell_angle_gamma 90.000000
_cell_volume 2246.746562
_symmetry_space_group_name_H-M "C 2 2 21"
_symmetry_group_IT_number 20
_symmetry_cell_setting 'orthorhombic'
loop_
_space_group_symop_operation_xyz
x,y,z
-x,-y,1/2+z
x,-y,-z
-x,y,1/2-z
1/2+x,1/2+y,z
1/2-x,1/2-y,1/2+z
1/2+x,1/2-y,-z
1/2-x,1/2+y,1/2-z
loop_
_atom_site_type_symbol
_atom_site_label
_atom_site_fract_x
_atom_site_fract_y
_atom_site_fract_z
Si Si1 0.000000 0.244625 0.250000
Si Si2 0.033391 0.096521 0.563940
Si Si3 0.887022 0.719675 0.542278
Si Si4 0.702008 0.076213 0.128188
Si Si5 0.266515 0.934193 0.130157
Si Si6 0.698328 0.272273 0.602400
Si Si7 0.146084 0.877107 0.243261
O O1 0.951333 0.300028 0.374953
O O2 0.033616 0.174119 0.395840
O O3 0.095974 0.069729 0.643718
O O4 0.000000 0.137996 0.750000
O O5 0.003701 0.000000 0.500000
O O6 0.856609 0.637691 0.409361
O O7 0.884125 0.816793 0.425917
O O8 0.847472 0.745449 0.730416
O O9 0.705604 0.044954 0.865487
O O10 0.757622 0.143267 0.127633
O O11 0.711113 0.051065 0.383690
O O12 0.266069 0.822238 0.105890
O O13 0.197577 0.944031 0.176021
O O14 0.668172 0.299237 0.398630
#
# Coordination Sequence:
#
# PCOD9322008 Si02
#       7
#     4   8   8   8   8   8   8
#     4  12  26  48  70  94 142 204 252 306 366 422
#     4  12  26  44  67  98 137 187 247 301 362 443
#     4  12  25  45  73 100 145 193 249 299 363 437
#     4  12  24  43  68 108 146 189 234 303 369 437
#     4  12  26  42  70 106 151 190 233 289 382 446
#     4  12  24  45  68 109 149 187 232 301 366 453
#     4  12  25  41  70 104 141 187 238 291 358 450
#
# _framework density 23.144577999999999
#
# number of rings (size 3 to 8) (size 9 to 14) (size 15 to 20)
#    0.000    0.000    8.462    1.846    2.154    1.846 
#    0.000    0.000    0.000    2.769    0.000    0.000 
#    0.000    0.000    0.000    0.000    0.000    0.000 
#
# Total GULP energy -144826.887511 kJ/mol
# GULP energy per Si atom -5570.264904 kJ/mol
# Density = 2.309190 g / cm^3
# Si number density = 23.144578 Si / 1000 Ang^3
#
#
#
# Elastic Constant Matrix: (Units=GPa)
#
#
# Indices 1 2 3 4 5 6 
#
# 1 117.4912 17.3527 27.7393 0.0000 0.0000 0.0000
# 2 17.3527 94.4648 30.0247 0.0000 0.0000 0.0000
# 3 27.7393 30.0247 115.0618 0.0000 0.0000 0.0000
# 4 0.0000 0.0000 0.0000 141.0391 0.0000 0.0000
# 5 0.0000 0.0000 0.0000 0.0000 25.0698 0.0000
# 6 0.0000 0.0000 0.0000 0.0000 0.0000 18.2390
#
#
#
# Elastic Compliance Matrix: (Units=1/GPa)
#
#
# Indices 1 2 3 4 5 6 
#
# 1 0.009122 -0.001065 -0.001921 0.000000 0.000000 0.000000
# 2 -0.001065 0.011668 -0.002788 0.000000 0.000000 0.000000
# 3 -0.001921 -0.002788 0.009882 0.000000 0.000000 0.000000
# 4 0.000000 0.000000 0.000000 0.007090 0.000000 0.000000
# 5 0.000000 0.000000 0.000000 0.000000 0.039889 0.000000
# 6 0.000000 0.000000 0.000000 0.000000 0.000000 0.054827
#
#
# Mechanical properties :
#
#
# Convention : Reuss Voigt Hill
#
# Bulk Modulus (GPa) = 52.29256 53.02790 52.66023
# Shear Modulus (GPa) = 33.24458 53.66300 43.45379
#
# Velocity S-wave (km/s) = 3.79408 4.82041 4.33771
# Velocity P-wave (km/s) = 6.46810 7.34460 6.92024
#
# Compressibility (1/GPa) = 0.01912318
#
# Stress axis : x y z
#
# Youngs Moduli (GPa) = 109.62284 85.70682 101.19778
#
# Poissons Ratio (x) = 0.09128 0.19443
# Poissons Ratio (y) = 0.11675 0.28212
# Poissons Ratio (z) = 0.21062 0.23894
#
# Static dielectric constant tensor:
#      x y z
#    x 1.490520 0.000000 0.000000 
#    y 0.000000 1.879580 0.000000 
#    z 0.000000 0.000000 2.160370 
# 
# From -- ./inp_files/3233.got.cif
#   From: 2010.05.17/outbox.cif.g08.bks.cpg/sg20_2_cif.got.tgz:3233.got - 2010.06.03 22:52:26.
