data_PCOD9322070
_publ_section_title
;
Structure prediction by ZEFSAII (Michael W. Deem and Ramdas Pophale) SiO2 
 PCOD9322070
Probable space group: C 2 2 21
;
_chemical_formula_sum "Si O2"
_cell_formula_units_Z 48
_cell_length_a 17.341739
_cell_length_b 8.574017
_cell_length_c 14.424631
_cell_angle_alpha 90.000000
_cell_angle_beta 90.000000
_cell_angle_gamma 90.000000
_cell_volume 2144.774799
_symmetry_space_group_name_H-M "C 2 2 21"
_symmetry_group_IT_number 20
_symmetry_cell_setting 'orthorhombic'
loop_
_space_group_symop_operation_xyz
x,y,z
-x,-y,1/2+z
x,-y,-z
-x,y,1/2-z
1/2+x,1/2+y,z
1/2-x,1/2-y,1/2+z
1/2+x,1/2-y,-z
1/2-x,1/2+y,1/2-z
loop_
_atom_site_type_symbol
_atom_site_label
_atom_site_fract_x
_atom_site_fract_y
_atom_site_fract_z
Si Si1 0.588609 0.906006 0.667073
Si Si2 0.500000 0.377772 0.250000
Si Si3 0.975422 0.500000 0.500000
Si Si4 0.240102 0.560403 0.595063
Si Si5 0.633713 0.445223 0.785315
Si Si6 0.863872 0.595989 0.652498
Si Si7 0.205463 0.919812 0.595835
O O1 0.562119 0.738317 0.704046
O O2 0.530283 0.937508 0.581864
O O3 0.672403 0.941366 0.624052
O O4 0.591640 0.015667 0.759985
O O5 0.449747 0.492541 0.313661
O O6 0.916705 0.604712 0.560594
O O7 0.275981 0.500000 0.500000
O O8 0.302990 0.560836 0.674520
O O9 0.211280 0.734906 0.582006
O O10 0.654279 0.272224 0.818986
O O11 0.642680 0.443641 0.675178
O O12 0.787443 0.494234 0.629883
O O13 0.184983 0.000000 0.500000
#
# Coordination Sequence:
#
# PCOD9322070 Si02
#       7
#     8   4   4   8   8   8   8
#     4  12  25  47  76 105 152 204 255 317 393 465
#     4  12  30  46  76 112 158 202 250 322 394 454
#     4  12  26  44  78 106 152 200 266 316 402 464
#     4  12  27  45  77 113 149 201 264 318 387 473
#     4  12  28  48  76 110 161 201 263 325 393 471
#     4  12  25  49  77 111 157 207 259 323 402 468
#     4  12  25  46  79 114 151 203 264 323 390 467
#
# _framework density 22.379971999999999
#
# number of rings (size 3 to 8) (size 9 to 14) (size 15 to 20)
#    0.000    0.000    6.667    2.000    7.000    0.000 
#    0.000    0.833    0.000    0.000    0.000    0.000 
#    0.000    0.000    0.000    0.000    0.000    0.000 
#
# Total GULP energy -134093.179284 kJ/mol
# GULP energy per Si atom -5587.215803 kJ/mol
# Density = 2.232903 g / cm^3
# Si number density = 22.379972 Si / 1000 Ang^3
#
#
#
# Elastic Constant Matrix: (Units=GPa)
#
#
# Indices 1 2 3 4 5 6 
#
# 1 76.0912 12.7310 0.5108 0.0000 0.0000 0.0000
# 2 12.7310 91.2154 19.3748 0.0000 0.0000 0.0000
# 3 0.5108 19.3748 123.7829 0.0000 0.0000 0.0000
# 4 0.0000 0.0000 0.0000 19.7680 0.0000 0.0000
# 5 0.0000 0.0000 0.0000 0.0000 32.7356 0.0000
# 6 0.0000 0.0000 0.0000 0.0000 0.0000 35.8356
#
#
#
# Elastic Compliance Matrix: (Units=1/GPa)
#
#
# Indices 1 2 3 4 5 6 
#
# 1 0.013464 -0.001932 0.000247 0.000000 0.000000 0.000000
# 2 -0.001932 0.011617 -0.001810 0.000000 0.000000 0.000000
# 3 0.000247 -0.001810 0.008361 0.000000 0.000000 0.000000
# 4 0.000000 0.000000 0.000000 0.050587 0.000000 0.000000
# 5 0.000000 0.000000 0.000000 0.000000 0.030548 0.000000
# 6 0.000000 0.000000 0.000000 0.000000 0.000000 0.027905
#
#
# Mechanical properties :
#
#
# Convention : Reuss Voigt Hill
#
# Bulk Modulus (GPa) = 37.80502 39.59142 38.69822
# Shear Modulus (GPa) = 31.58779 34.89937 33.24358
#
# Velocity S-wave (km/s) = 3.76098 3.95321 3.85829
# Velocity P-wave (km/s) = 5.98239 6.21016 6.09734
#
# Compressibility (1/GPa) = 0.02645152
#
# Stress axis : x y z
#
# Youngs Moduli (GPa) = 74.27410 86.07932 119.60284
#
# Poissons Ratio (x) = 0.16627 -0.02951
# Poissons Ratio (y) = 0.14346 0.21653
# Poissons Ratio (z) = -0.01833 0.15584
#
# Static dielectric constant tensor:
#      x y z
#    x 1.873380 0.000000 0.000000 
#    y 0.000000 1.802340 0.000000 
#    z 0.000000 0.000000 1.813530 
# 
# From -- ./inp_files/21313.got.cif
#   From: 2010.05.17/outbox.cif.g08.bks.cpg/sg20_11_cif.got.tgz:21313.got - 2010.06.03 22:52:26.
