data_PCOD9322567
_publ_section_title
;
Structure prediction by ZEFSAII (Michael W. Deem and Ramdas Pophale) SiO2 
 PCOD9322567
Probable space group: C 2 2 2
;
_chemical_formula_sum "Si O2"
_cell_formula_units_Z 58
_cell_length_a 8.693470
_cell_length_b 26.960334
_cell_length_c 11.744645
_cell_angle_alpha 90.000000
_cell_angle_beta 90.000000
_cell_angle_gamma 90.000000
_cell_volume 2752.696445
_symmetry_space_group_name_H-M "C 2 2 2"
_symmetry_group_IT_number 21
_symmetry_cell_setting 'orthorhombic'
loop_
_space_group_symop_operation_xyz
x,y,z
-x,-y,z
x,-y,-z
-x,y,-z
1/2+x,1/2+y,z
1/2-x,1/2-y,z
1/2+x,1/2-y,-z
1/2-x,1/2+y,-z
loop_
_atom_site_type_symbol
_atom_site_label
_atom_site_fract_x
_atom_site_fract_y
_atom_site_fract_z
Si Si1 0.705075 0.154056 0.265222
Si Si2 0.144057 0.942843 0.175719
Si Si3 0.902015 0.620499 0.384619
Si Si4 0.500000 0.500000 0.000000
Si Si5 0.334828 0.973431 0.734350
Si Si6 0.319006 0.197607 0.980134
Si Si7 0.315727 0.304171 0.494212
Si Si8 0.174728 0.409891 0.037528
O O1 0.822734 0.109170 0.235587
O O2 0.530631 0.133632 0.288268
O O3 0.706160 0.188518 0.154574
O O4 0.756006 0.180417 0.380502
O O5 0.204266 0.984875 0.260947
O O6 0.256780 0.942978 0.064904
O O7 0.993276 0.957318 0.103722
O O8 0.831876 0.566362 0.365733
O O9 0.763988 0.659132 0.403017
O O10 0.000000 0.621003 0.500000
O O11 0.324458 0.939915 0.847036
O O12 0.500000 0.000000 0.732532
O O13 0.250000 0.250000 0.017822
O O14 0.500000 0.201336 0.000000
O O15 0.257834 0.146231 0.038095
O O16 0.500000 0.305153 0.500000
O O17 0.250000 0.250000 0.468651
O O18 0.000000 0.402086 0.000000
#
# Coordination Sequence:
#
# PCOD9322567 Si02
#       8
#     8   8   8   2   8   8   8   8
#     4  10  21  43  65  91 125 172 218 276 326 403
#     4  11  22  35  56  87 127 171 213 260 324 393
#     4  10  22  39  64 102 130 158 226 280 332 404
#     4  12  24  36  50  88 138 176 212 258 320 396
#     4  12  19  34  63  91 120 166 217 267 326 379
#     4  10  21  38  58  87 128 166 209 264 329 386
#     4  11  24  46  72  96 128 170 219 285 345 399
#     4  10  18  34  58  83 113 156 219 262 306 385
#
# _framework density 21.070249
#
# number of rings (size 3 to 8) (size 9 to 14) (size 15 to 20)
#    0.000    1.379    4.138    3.310    0.000    1.379 
#    4.966    6.897    0.000    0.828    0.000    0.000 
#    0.000    0.000    0.000    0.000    0.000    0.000 
#
# Total GULP energy -161540.091136 kJ/mol
# GULP energy per Si atom -5570.347970 kJ/mol
# Density = 2.102229 g / cm^3
# Si number density = 21.070249 Si / 1000 Ang^3
#
#
#
# Elastic Constant Matrix: (Units=GPa)
#
#
# Indices 1 2 3 4 5 6 
#
# 1 70.7348 34.9195 6.8493 0.0000 0.0000 0.0000
# 2 34.9195 131.0845 22.1542 0.0000 0.0000 0.0000
# 3 6.8493 22.1542 22.0199 0.0000 0.0000 0.0000
# 4 0.0000 0.0000 0.0000 45.0953 0.0000 0.0000
# 5 0.0000 0.0000 0.0000 0.0000 -4.5787 0.0000
# 6 0.0000 0.0000 0.0000 0.0000 0.0000 52.2294
#
#
#
# Elastic Compliance Matrix: (Units=1/GPa)
#
#
# Indices 1 2 3 4 5 6 
#
# 1 0.016291 -0.004197 -0.000845 0.000000 0.000000 0.000000
# 2 -0.004197 0.010273 -0.009030 0.000000 0.000000 0.000000
# 3 -0.000845 -0.009030 0.054762 0.000000 0.000000 0.000000
# 4 0.000000 0.000000 0.000000 0.022175 0.000000 0.000000
# 5 0.000000 0.000000 0.000000 0.000000 -0.218402 0.000000
# 6 0.000000 0.000000 0.000000 0.000000 0.000000 0.019146
#
#
# Mechanical properties :
#
#
# Convention : Reuss Voigt Hill
#
# Bulk Modulus (GPa) = 18.80343 39.07615 28.93979
# Shear Modulus (GPa) = -100.23236 29.21027 -35.51104
#
# Velocity S-wave (km/s) = -6.90462 3.72738 -4.10977
# Velocity P-wave (km/s) = 7.39064 6.09183 2.95898
#
# Compressibility (1/GPa) = 0.05318179
#
# Stress axis : x y z
#
# Youngs Moduli (GPa) = 61.38351 97.34395 18.26100
#
# Poissons Ratio (x) = 0.40855 0.01543
# Poissons Ratio (y) = 0.25763 0.16490
# Poissons Ratio (z) = 0.05185 0.87902
#
# Static dielectric constant tensor:
#      x y z
#    x 1.816560 0.000000 0.000000 
#    y 0.000000 1.817890 0.000000 
#    z 0.000000 0.000000 1.678120 
# 
# From -- ./inp_files/22995.got.cif
#   From: 2010.05.17/outbox.cif.g08.bks.cpg/sg21_12_cif.got.tgz:22995.got - 2010.06.03 23:14:55.
