data_PCOD9322924
_publ_section_title
;
Structure prediction by ZEFSAII (Michael W. Deem and Ramdas Pophale) SiO2 
 PCOD9322924
Probable space group: C 2 2 2
;
_chemical_formula_sum "Si O2"
_cell_formula_units_Z 60
_cell_length_a 22.837113
_cell_length_b 5.367915
_cell_length_c 23.131277
_cell_angle_alpha 90.000000
_cell_angle_beta 90.000000
_cell_angle_gamma 90.000000
_cell_volume 2835.609616
_symmetry_space_group_name_H-M "C 2 2 2"
_symmetry_group_IT_number 21
_symmetry_cell_setting 'orthorhombic'
loop_
_space_group_symop_operation_xyz
x,y,z
-x,-y,z
x,-y,-z
-x,y,-z
1/2+x,1/2+y,z
1/2-x,1/2-y,z
1/2+x,1/2-y,-z
1/2-x,1/2+y,-z
loop_
_atom_site_type_symbol
_atom_site_label
_atom_site_fract_x
_atom_site_fract_y
_atom_site_fract_z
Si Si1 0.689780 0.664065 0.349598
Si Si2 0.682793 0.000374 0.068985
Si Si3 0.061347 0.390651 0.766403
Si Si4 0.035442 0.741227 0.366780
Si Si5 0.250000 0.250000 0.571063
Si Si6 0.315449 0.504253 0.881771
Si Si7 0.367084 0.937402 0.440342
Si Si8 0.129830 0.098836 0.231426
O O1 0.750000 0.750000 0.317293
O O2 0.721676 0.460712 0.389016
O O3 0.647754 0.572745 0.298522
O O4 0.654951 0.856097 0.392606
O O5 0.656223 0.249710 0.095758
O O6 0.749391 0.998414 0.093624
O O7 0.654376 0.746668 0.091037
O O8 0.685301 0.000000 0.000000
O O9 0.051737 0.341903 0.697938
O O10 0.107057 0.617514 0.774619
O O11 0.000000 0.500000 0.789454
O O12 0.083033 0.117042 0.785410
O O13 0.093630 0.755900 0.404908
O O14 0.000000 0.500000 0.390361
O O15 0.000000 0.000000 0.366408
O O16 0.307062 0.181963 0.536361
O O17 0.318091 0.540268 0.813245
O O18 0.399651 0.000000 0.500000
#
# Coordination Sequence:
#
# PCOD9322924 Si02
#       8
#     8   8   8   8   4   8   8   8
#     4  10  24  41  61  96 129 176 209 262 334 397
#     4  10  19  36  55  83 135 184 220 251 297 361
#     4  11  23  42  65  89 117 168 212 268 334 400
#     4  11  24  45  72  94 121 160 215 272 348 421
#     4  10  24  40  66  90 122 170 222 246 324 404
#     4  10  20  31  53  88 122 168 215 252 299 357
#     4  11  25  44  67  93 127 166 219 280 334 414
#     4  12  23  38  64  93 133 160 216 267 327 393
#
# _framework density 21.159472999999998
#
# number of rings (size 3 to 8) (size 9 to 14) (size 15 to 20)
#    0.000    1.333    1.333    5.600    8.400    1.333 
#    0.000    0.667    0.000    0.000    0.000    0.000 
#    0.000   61.867    0.000    0.000    0.000    0.000 
#
# Total GULP energy -167117.349999 kJ/mol
# GULP energy per Si atom -5570.578333 kJ/mol
# Density = 2.111131 g / cm^3
# Si number density = 21.159473 Si / 1000 Ang^3
#
#
#
# Elastic Constant Matrix: (Units=GPa)
#
#
# Indices 1 2 3 4 5 6 
#
# 1 38.8535 19.1098 11.1510 0.0000 0.0000 0.0000
# 2 19.1098 150.1311 23.9375 0.0000 0.0000 0.0000
# 3 11.1510 23.9375 103.0699 0.0000 0.0000 0.0000
# 4 0.0000 0.0000 0.0000 18.0745 0.0000 0.0000
# 5 0.0000 0.0000 0.0000 0.0000 -9.2642 0.0000
# 6 0.0000 0.0000 0.0000 0.0000 0.0000 31.0556
#
#
#
# Elastic Compliance Matrix: (Units=1/GPa)
#
#
# Indices 1 2 3 4 5 6 
#
# 1 0.027965 -0.003195 -0.002283 0.000000 0.000000 0.000000
# 2 -0.003195 0.007282 -0.001346 0.000000 0.000000 0.000000
# 3 -0.002283 -0.001346 0.010262 0.000000 0.000000 0.000000
# 4 0.000000 0.000000 0.000000 0.055326 0.000000 0.000000
# 5 0.000000 0.000000 0.000000 0.000000 -0.107943 0.000000
# 6 0.000000 0.000000 0.000000 0.000000 0.000000 0.032200
#
#
# Mechanical properties :
#
#
# Convention : Reuss Voigt Hill
#
# Bulk Modulus (GPa) = 31.38750 44.49456 37.94103
# Shear Modulus (GPa) = 101.29360 23.83026 62.56193
#
# Velocity S-wave (km/s) = 6.92643 3.35956 5.44344
# Velocity P-wave (km/s) = 8.87881 6.01022 7.58142
#
# Compressibility (1/GPa) = 0.03185982
#
# Stress axis : x y z
#
# Youngs Moduli (GPa) = 35.75933 137.32250 97.44993
#
# Poissons Ratio (x) = 0.43881 0.22251
# Poissons Ratio (y) = 0.11427 0.13112
# Poissons Ratio (z) = 0.08165 0.18477
#
# Static dielectric constant tensor:
#      x y z
#    x 1.851000 0.000000 0.000000 
#    y 0.000000 1.974130 0.000000 
#    z 0.000000 0.000000 1.743310 
# 
# From -- ./inp_files/37941.got.cif
#   From: 2010.05.17/outbox.cif.g08.bks.cpg/sg21_19_cif.got.tgz:37941.got - 2010.06.03 23:14:55.
