data_PCOD9322653
_publ_section_title
;
Structure prediction by ZEFSAII (Michael W. Deem and Ramdas Pophale) SiO2 
 PCOD9322653
Probable space group: C 2 2 2
;
_chemical_formula_sum "Si O2"
_cell_formula_units_Z 52
_cell_length_a 25.873174
_cell_length_b 11.671677
_cell_length_c 7.909285
_cell_angle_alpha 90.000000
_cell_angle_beta 90.000000
_cell_angle_gamma 90.000000
_cell_volume 2388.472221
_symmetry_space_group_name_H-M "C 2 2 2"
_symmetry_group_IT_number 21
_symmetry_cell_setting 'orthorhombic'
loop_
_space_group_symop_operation_xyz
x,y,z
-x,-y,z
x,-y,-z
-x,y,-z
1/2+x,1/2+y,z
1/2-x,1/2-y,z
1/2+x,1/2-y,-z
1/2-x,1/2+y,-z
loop_
_atom_site_type_symbol
_atom_site_label
_atom_site_fract_x
_atom_site_fract_y
_atom_site_fract_z
Si Si1 0.835443 0.367274 0.476544
Si Si2 0.306939 0.469511 0.198668
Si Si3 0.576313 0.335729 0.109365
Si Si4 0.924402 0.090305 0.750080
Si Si5 0.054525 0.267111 0.538528
Si Si6 0.805767 0.785449 0.821450
Si Si7 0.750000 0.250000 0.696593
O O1 0.824806 0.500000 0.500000
O O2 0.895085 0.338149 0.511894
O O3 0.821235 0.322582 0.291212
O O4 0.799459 0.288677 0.590908
O O5 0.362206 0.423223 0.260148
O O6 0.296363 0.594458 0.280682
O O7 0.266594 0.368616 0.217956
O O8 0.307063 0.500000 0.000000
O O9 0.562634 0.460558 0.190542
O O10 0.558084 0.254922 0.260474
O O11 0.638719 0.314235 0.092084
O O12 0.558658 0.335077 0.914570
O O13 0.943231 0.150273 0.577921
O O14 0.000000 0.323434 0.500000
O O15 0.750000 0.750000 0.898677
#
# Coordination Sequence:
#
# PCOD9322653 Si02
#       7
#     8   8   8   8   8   8   4
#     4  11  24  42  63  96 130 173 228 279 342 403
#     4  11  22  37  59  96 135 181 219 269 345 406
#     4   9  20  35  60  88 126 170 207 273 337 397
#     4  10  18  39  58  89 133 166 216 271 339 412
#     4  11  24  41  64  91 124 172 228 284 340 404
#     4  10  19  35  60  87 130 169 214 263 328 395
#     4  12  24  38  66  98 134 178 228 272 334 426
#
# _framework density 21.771239000000001
#
# number of rings (size 3 to 8) (size 9 to 14) (size 15 to 20)
#    0.000    1.538    5.385    1.385    1.077    2.154 
#    0.000    1.538    0.000    0.000    0.000    4.308 
#    0.000    0.000    0.000    0.000    0.000    0.000 
#
# Total GULP energy -144866.359228 kJ/mol
# GULP energy per Si atom -5571.783047 kJ/mol
# Density = 2.172169 g / cm^3
# Si number density = 21.771239 Si / 1000 Ang^3
#
#
#
# Elastic Constant Matrix: (Units=GPa)
#
#
# Indices 1 2 3 4 5 6 
#
# 1 116.3813 10.4168 19.8949 0.0000 0.0000 0.0000
# 2 10.4168 97.8410 20.6155 0.0000 0.0000 0.0000
# 3 19.8949 20.6155 61.6419 0.0000 0.0000 0.0000
# 4 0.0000 0.0000 0.0000 15.9334 0.0000 0.0000
# 5 0.0000 0.0000 0.0000 0.0000 -20.4139 0.0000
# 6 0.0000 0.0000 0.0000 0.0000 0.0000 21.2130
#
#
#
# Elastic Compliance Matrix: (Units=1/GPa)
#
#
# Indices 1 2 3 4 5 6 
#
# 1 0.009107 -0.000377 -0.002813 0.000000 0.000000 0.000000
# 2 -0.000377 0.011011 -0.003561 0.000000 0.000000 0.000000
# 3 -0.002813 -0.003561 0.018322 0.000000 0.000000 0.000000
# 4 0.000000 0.000000 0.000000 0.062761 0.000000 0.000000
# 5 0.000000 0.000000 0.000000 0.000000 -0.048986 0.000000
# 6 0.000000 0.000000 0.000000 0.000000 0.000000 0.047141
#
#
# Mechanical properties :
#
#
# Convention : Reuss Voigt Hill
#
# Bulk Modulus (GPa) = 40.09990 41.96876 41.03433
# Shear Modulus (GPa) = 41.26411 18.34228 29.80319
#
# Velocity S-wave (km/s) = 4.35828 2.90573 3.70391
# Velocity P-wave (km/s) = 6.61702 5.52962 6.09761
#
# Compressibility (1/GPa) = 0.02493772
#
# Stress axis : x y z
#
# Youngs Moduli (GPa) = 109.80453 90.81759 54.58031
#
# Poissons Ratio (x) = 0.03422 0.15355
# Poissons Ratio (y) = 0.04138 0.19436
# Poissons Ratio (z) = 0.30891 0.32339
#
# Static dielectric constant tensor:
#      x y z
#    x 1.878120 0.000000 0.000000 
#    y 0.000000 1.995870 0.000000 
#    z 0.000000 0.000000 1.860660 
# 
# From -- ./inp_files/19128.got.cif
#   From: 2010.05.17/outbox.cif.g08.bks.cpg/sg21_10_cif.got.tgz:19128.got - 2010.06.03 23:14:55.
