data_PCOD9322893
_publ_section_title
;
Structure prediction by ZEFSAII (Michael W. Deem and Ramdas Pophale) SiO2 
 PCOD9322893
Probable space group: C 2 2 2
;
_chemical_formula_sum "Si O2"
_cell_formula_units_Z 40
_cell_length_a 17.041695
_cell_length_b 5.130304
_cell_length_c 22.664679
_cell_angle_alpha 90.000000
_cell_angle_beta 90.000000
_cell_angle_gamma 90.000000
_cell_volume 1981.551943
_symmetry_space_group_name_H-M "C 2 2 2"
_symmetry_group_IT_number 21
_symmetry_cell_setting 'orthorhombic'
loop_
_space_group_symop_operation_xyz
x,y,z
-x,-y,z
x,-y,-z
-x,y,-z
1/2+x,1/2+y,z
1/2-x,1/2-y,z
1/2+x,1/2-y,-z
1/2-x,1/2+y,-z
loop_
_atom_site_type_symbol
_atom_site_label
_atom_site_fract_x
_atom_site_fract_y
_atom_site_fract_z
Si Si1 0.591958 0.426312 0.109302
Si Si2 0.095608 0.989727 0.757008
Si Si3 0.905331 0.489819 0.317234
Si Si4 0.326607 0.106358 0.064265
Si Si5 0.305774 0.000381 0.433583
O O1 0.500000 0.500000 0.112963
O O2 0.622414 0.487237 0.175577
O O3 0.618706 0.641833 0.062361
O O4 0.625891 0.137069 0.093968
O O5 0.120236 0.229395 0.716324
O O6 0.119791 0.727283 0.724546
O O7 0.000000 0.000000 0.758222
O O8 0.868712 0.504540 0.381761
O O9 0.000000 0.500000 0.321302
O O10 0.250000 0.250000 0.092231
O O11 0.303803 0.000000 0.000000
O O12 0.250000 0.250000 0.428357
O O13 0.340151 0.000000 0.500000
O O14 0.250000 0.750000 0.427705
#
# Coordination Sequence:
#
# PCOD9322893 Si02
#       5
#     8   8   8   8   8
#     4  11  23  41  66  92 119 156 206 254 298 362
#     4   9  19  36  58  86 118 149 184 241 304 343
#     4  10  19  35  59  83 111 149 192 234 285 351
#     4  12  25  43  63  87 125 165 198 246 312 368
#     4  10  21  37  55  78 113 151 186 233 290 338
#
# _framework density 20.186198999999998
#
# number of rings (size 3 to 8) (size 9 to 14) (size 15 to 20)
#    0.000    1.600    0.000    5.400    0.000    6.000 
#    0.000   10.000    0.000    7.200    0.000    0.000 
#    0.000    0.000    0.000    0.000    0.000    0.000 
#
# Total GULP energy -111472.948630 kJ/mol
# GULP energy per Si atom -5573.647431 kJ/mol
# Density = 2.014025 g / cm^3
# Si number density = 20.186199 Si / 1000 Ang^3
#
#
#
# Elastic Constant Matrix: (Units=GPa)
#
#
# Indices 1 2 3 4 5 6 
#
# 1 53.6630 37.5804 40.7059 0.0000 0.0000 0.0000
# 2 37.5804 162.2492 57.1926 0.0000 0.0000 0.0000
# 3 40.7059 57.1926 119.7589 0.0000 0.0000 0.0000
# 4 0.0000 0.0000 0.0000 26.6703 0.0000 0.0000
# 5 0.0000 0.0000 0.0000 0.0000 -45.8134 0.0000
# 6 0.0000 0.0000 0.0000 0.0000 0.0000 5.4660
#
#
#
# Elastic Compliance Matrix: (Units=1/GPa)
#
#
# Indices 1 2 3 4 5 6 
#
# 1 0.026746 -0.003596 -0.007374 0.000000 0.000000 0.000000
# 2 -0.003596 0.007894 -0.002548 0.000000 0.000000 0.000000
# 3 -0.007374 -0.002548 0.012073 0.000000 0.000000 0.000000
# 4 0.000000 0.000000 0.000000 0.037495 0.000000 0.000000
# 5 0.000000 0.000000 0.000000 0.000000 -0.021828 0.000000
# 6 0.000000 0.000000 0.000000 0.000000 0.000000 0.182948
#
#
# Mechanical properties :
#
#
# Convention : Reuss Voigt Hill
#
# Bulk Modulus (GPa) = 50.81563 67.40321 59.10942
# Shear Modulus (GPa) = 17.92602 10.61074 14.26838
#
# Velocity S-wave (km/s) = 2.98322 2.29518 2.66153
# Velocity P-wave (km/s) = 6.09051 6.36294 6.22821
#
# Compressibility (1/GPa) = 0.01967898
#
# Stress axis : x y z
#
# Youngs Moduli (GPa) = 37.38833 126.67320 82.82786
#
# Poissons Ratio (x) = 0.45549 0.61076
# Poissons Ratio (y) = 0.13444 0.21103
# Poissons Ratio (z) = 0.27570 0.32275
#
# Static dielectric constant tensor:
#      x y z
#    x 1.784770 0.000000 0.000000 
#    y 0.000000 1.682760 0.000000 
#    z 0.000000 0.000000 1.703500 
# 
# From -- ./inp_files/36816.got.cif
#   From: 2010.05.17/outbox.cif.g08.bks.cpg/sg21_19_cif.got.tgz:36816.got - 2010.06.03 23:14:55.
