data_PCOD9322687
_publ_section_title
;
Structure prediction by ZEFSAII (Michael W. Deem and Ramdas Pophale) SiO2 
 PCOD9322687
Probable space group: C 2 2 2
;
_chemical_formula_sum "Si O2"
_cell_formula_units_Z 48
_cell_length_a 23.368032
_cell_length_b 25.836932
_cell_length_c 5.144052
_cell_angle_alpha 90.000000
_cell_angle_beta 90.000000
_cell_angle_gamma 90.000000
_cell_volume 3105.763853
_symmetry_space_group_name_H-M "C 2 2 2"
_symmetry_group_IT_number 21
_symmetry_cell_setting 'orthorhombic'
loop_
_space_group_symop_operation_xyz
x,y,z
-x,-y,z
x,-y,-z
-x,y,-z
1/2+x,1/2+y,z
1/2-x,1/2-y,z
1/2+x,1/2-y,-z
1/2-x,1/2+y,-z
loop_
_atom_site_type_symbol
_atom_site_label
_atom_site_fract_x
_atom_site_fract_y
_atom_site_fract_z
Si Si1 0.220293 0.167450 0.905620
Si Si2 0.255426 0.110053 0.408478
Si Si3 0.623976 0.827989 0.426272
Si Si4 0.658092 0.228442 0.075289
Si Si5 0.036932 0.585778 0.747662
Si Si6 0.379721 0.000000 0.000000
Si Si7 0.196466 0.500000 0.500000
O O1 0.222241 0.130642 0.658496
O O2 0.280142 0.199671 0.908039
O O3 0.171430 0.210990 0.896183
O O4 0.222971 0.132290 0.159783
O O5 0.318529 0.136718 0.417447
O O6 0.266810 0.049175 0.411206
O O7 0.621616 0.798251 0.698165
O O8 0.572196 0.866111 0.365402
O O9 0.631775 0.785937 0.200628
O O10 0.000000 0.565582 0.500000
O O11 0.080469 0.543707 0.869592
O O12 0.000000 0.601082 0.000000
O O13 0.341165 0.982626 0.247328
#
# Coordination Sequence:
#
# PCOD9322687 Si02
#       7
#     8   8   8   8   8   4   4
#     4   9  17  29  45  70  87 110 133 181 226 280
#     4  10  19  30  47  63  92 113 149 183 227 272
#     4  10  19  33  48  64  84 112 142 193 239 289
#     4   9  17  29  49  67  87 105 137 174 239 288
#     4  12  25  39  50  65  86 115 159 211 253 290
#     4  12  25  38  52  60  84 120 166 206 252 282
#     4  12  22  34  51  68  88 128 158 196 233 290
#
# _framework density 15.455135
#
# number of rings (size 3 to 8) (size 9 to 14) (size 15 to 20)
#    0.000    1.667    1.667    4.250    4.667    4.667 
#    0.000    0.000    0.000    0.000    0.000    0.000 
#    0.000    0.000    0.000    0.000    0.000    0.000 
#
# Total GULP energy -133907.568817 kJ/mol
# GULP energy per Si atom -5579.482034 kJ/mol
# Density = 1.541996 g / cm^3
# Si number density = 15.455135 Si / 1000 Ang^3
#
#
#
# Elastic Constant Matrix: (Units=GPa)
#
#
# Indices 1 2 3 4 5 6 
#
# 1 11.0782 21.5428 -0.7978 0.0000 0.0000 0.0000
# 2 21.5428 89.7504 25.6839 0.0000 0.0000 0.0000
# 3 -0.7978 25.6839 85.8526 0.0000 0.0000 0.0000
# 4 0.0000 0.0000 0.0000 23.4998 0.0000 0.0000
# 5 0.0000 0.0000 0.0000 0.0000 16.7014 0.0000
# 6 0.0000 0.0000 0.0000 0.0000 0.0000 -12.5773
#
#
#
# Elastic Compliance Matrix: (Units=1/GPa)
#
#
# Indices 1 2 3 4 5 6 
#
# 1 0.189045 -0.050175 0.016767 0.000000 0.000000 0.000000
# 2 -0.050175 0.025502 -0.008096 0.000000 0.000000 0.000000
# 3 0.016767 -0.008096 0.014226 0.000000 0.000000 0.000000
# 4 0.000000 0.000000 0.000000 0.042554 0.000000 0.000000
# 5 0.000000 0.000000 0.000000 0.000000 0.059875 0.000000
# 6 0.000000 0.000000 0.000000 0.000000 0.000000 -0.079509
#
#
# Mechanical properties :
#
#
# Convention : Reuss Voigt Hill
#
# Bulk Modulus (GPa) = 6.86029 31.05990 18.96009
# Shear Modulus (GPa) = 13.04500 14.87495 13.95998
#
# Velocity S-wave (km/s) = 2.90842 3.10572 3.00869
# Velocity P-wave (km/s) = 3.96573 5.74466 4.93600
#
# Compressibility (1/GPa) = 0.14576647
#
# Stress axis : x y z
#
# Youngs Moduli (GPa) = 5.28974 39.21228 70.29596
#
# Poissons Ratio (x) = 1.96747 -1.17866
# Poissons Ratio (y) = 0.26541 0.56909
# Poissons Ratio (z) = -0.08869 0.31745
#
# Static dielectric constant tensor:
#      x y z
#    x 1.508500 0.000000 0.000000 
#    y 0.000000 1.503450 0.000000 
#    z 0.000000 0.000000 1.701690 
# 
# From -- ./inp_files/6062.got.cif
#   From: 2010.05.17/outbox.cif.g08.bks.cpg/sg21_4_cif.got.tgz:6062.got - 2010.06.03 23:14:55.
