data_PCOD9322147
_publ_section_title
;
Structure prediction by ZEFSAII (Michael W. Deem and Ramdas Pophale) SiO2 
 PCOD9322147
Probable space group: C 2 2 21
;
_chemical_formula_sum "Si O2"
_cell_formula_units_Z 24
_cell_length_a 10.294325
_cell_length_b 10.309305
_cell_length_c 8.703592
_cell_angle_alpha 90.000000
_cell_angle_beta 90.000000
_cell_angle_gamma 90.000000
_cell_volume 923.689034
_symmetry_space_group_name_H-M "C 2 2 21"
_symmetry_group_IT_number 20
_symmetry_cell_setting 'orthorhombic'
loop_
_space_group_symop_operation_xyz
x,y,z
-x,-y,1/2+z
x,-y,-z
-x,y,1/2-z
1/2+x,1/2+y,z
1/2-x,1/2-y,1/2+z
1/2+x,1/2-y,-z
1/2-x,1/2+y,1/2-z
loop_
_atom_site_type_symbol
_atom_site_label
_atom_site_fract_x
_atom_site_fract_y
_atom_site_fract_z
Si Si1 0.739235 0.709718 0.878537
Si Si2 0.983995 0.139152 0.067180
Si Si3 0.856416 0.483029 0.683436
O O1 0.873695 0.752699 0.959515
O O2 0.696783 0.839335 0.789640
O O3 0.619631 0.675737 0.988590
O O4 0.640669 0.000000 0.000000
O O5 0.769224 0.410031 0.232269
O O6 0.000000 0.130307 0.250000
O O7 0.943182 0.000000 0.000000
O O8 0.000000 0.497501 0.750000
#
# Coordination Sequence:
#
# PCOD9322147 Si02
#       3
#     8   8   8
#     4  12  28  52  82 120 164 210 267 330 398 477
#     4  12  29  53  83 120 161 210 268 331 401 476
#     4  12  29  53  84 122 162 210 268 331 401 475
#
# _framework density 25.982772000000001
#
# number of rings (size 3 to 8) (size 9 to 14) (size 15 to 20)
#    0.000    0.000    0.000    8.000    0.000   21.333 
#    0.000    0.000    0.000    0.000    0.000    0.000 
#    0.000    0.000    0.000    0.000    0.000    0.000 
#
# Total GULP energy -67525.669458 kJ/mol
# GULP energy per Si atom -5627.139122 kJ/mol
# Density = 2.592363 g / cm^3
# Si number density = 25.982772 Si / 1000 Ang^3
#
#
#
# Elastic Constant Matrix: (Units=GPa)
#
#
# Indices 1 2 3 4 5 6 
#
# 1 216.7696 83.8090 140.6231 0.0000 0.0000 0.0000
# 2 83.8090 206.1696 117.5019 0.0000 0.0000 0.0000
# 3 140.6231 117.5019 209.8898 0.0000 0.0000 0.0000
# 4 0.0000 0.0000 0.0000 50.1816 0.0000 0.0000
# 5 0.0000 0.0000 0.0000 0.0000 46.9997 0.0000
# 6 0.0000 0.0000 0.0000 0.0000 0.0000 64.3579
#
#
#
# Elastic Compliance Matrix: (Units=1/GPa)
#
#
# Indices 1 2 3 4 5 6 
#
# 1 0.008172 -0.000296 -0.005309 0.000000 0.000000 0.000000
# 2 -0.000296 0.007134 -0.003795 0.000000 0.000000 0.000000
# 3 -0.005309 -0.003795 0.010446 0.000000 0.000000 0.000000
# 4 0.000000 0.000000 0.000000 0.019928 0.000000 0.000000
# 5 0.000000 0.000000 0.000000 0.000000 0.021277 0.000000
# 6 0.000000 0.000000 0.000000 0.000000 0.000000 0.015538
#
#
# Mechanical properties :
#
#
# Convention : Reuss Voigt Hill
#
# Bulk Modulus (GPa) = 143.87220 146.29966 145.08593
# Shear Modulus (GPa) = 48.25653 51.70085 49.97869
#
# Velocity S-wave (km/s) = 4.31426 4.46557 4.39057
# Velocity P-wave (km/s) = 8.96156 9.11137 9.03677
#
# Compressibility (1/GPa) = 0.00695061
#
# Stress axis : x y z
#
# Youngs Moduli (GPa) = 122.37000 140.17804 95.72696
#
# Poissons Ratio (x) = 0.04149 0.50825
# Poissons Ratio (y) = 0.03622 0.36332
# Poissons Ratio (z) = 0.64971 0.53203
#
# Static dielectric constant tensor:
#      x y z
#    x 2.052160 0.000000 0.000000 
#    y 0.000000 2.003490 0.000000 
#    z 0.000000 0.000000 2.021980 
# 
# From -- ./inp_files/13438.got.cif
#   From: 2010.05.17/outbox.cif.g08.bks.cpg/sg20_7_cif.got.tgz:13438.got - 2010.06.03 22:52:26.
