data_PCOD9322583
_publ_section_title
;
Structure prediction by ZEFSAII (Michael W. Deem and Ramdas Pophale) SiO2 
 PCOD9322583
Probable space group: C 2 2 2
;
_chemical_formula_sum "Si O2"
_cell_formula_units_Z 26
_cell_length_a 13.383496
_cell_length_b 5.469708
_cell_length_c 14.733389
_cell_angle_alpha 90.000000
_cell_angle_beta 90.000000
_cell_angle_gamma 90.000000
_cell_volume 1078.540285
_symmetry_space_group_name_H-M "C 2 2 2"
_symmetry_group_IT_number 21
_symmetry_cell_setting 'orthorhombic'
loop_
_space_group_symop_operation_xyz
x,y,z
-x,-y,z
x,-y,-z
-x,y,-z
1/2+x,1/2+y,z
1/2-x,1/2-y,z
1/2+x,1/2-y,-z
1/2-x,1/2+y,-z
loop_
_atom_site_type_symbol
_atom_site_label
_atom_site_fract_x
_atom_site_fract_y
_atom_site_fract_z
Si Si1 0.000000 0.500000 0.500000
Si Si2 0.750000 0.250000 0.676165
Si Si3 0.403872 0.352730 0.633456
Si Si4 0.145631 0.398459 0.805231
Si Si5 0.316659 0.000000 0.000000
O O1 0.919398 0.625544 0.567725
O O2 0.693832 0.474431 0.626500
O O3 0.831513 0.365331 0.744330
O O4 0.500000 0.500000 0.605314
O O5 0.417527 0.268473 0.737890
O O6 0.250000 0.250000 0.812838
O O7 0.120537 0.461263 0.908015
O O8 0.250000 0.250000 0.013667
#
# Coordination Sequence:
#
# PCOD9322583 Si02
#       5
#     2   4   8   8   4
#     4  12  26  48  76 100 144 200 244 324 398 454
#     4  10  20  42  74 104 136 186 246 292 364 448
#     4  11  24  44  77 100 144 194 244 308 381 449
#     4   9  19  36  67 105 142 184 238 293 355 436
#     4  10  18  34  66 111 151 194 244 298 363 442
#
# _framework density 24.106656999999998
#
# number of rings (size 3 to 8) (size 9 to 14) (size 15 to 20)
#    0.000    1.846    1.538    2.308    0.000    0.000 
#    0.000    0.000  152.308   13.846    0.000    0.000 
#    0.000    0.000    0.000    0.000    0.000    0.000 
#
# Total GULP energy -72501.139281 kJ/mol
# GULP energy per Si atom -5577.010714 kJ/mol
# Density = 2.405179 g / cm^3
# Si number density = 24.106657 Si / 1000 Ang^3
#
#
#
# Elastic Constant Matrix: (Units=GPa)
#
#
# Indices 1 2 3 4 5 6 
#
# 1 84.2107 30.7042 53.7861 0.0000 0.0000 0.0000
# 2 30.7042 106.3095 53.8023 0.0000 0.0000 0.0000
# 3 53.7861 53.8023 200.0771 0.0000 0.0000 0.0000
# 4 0.0000 0.0000 0.0000 -6.3395 0.0000 0.0000
# 5 0.0000 0.0000 0.0000 0.0000 24.0124 0.0000
# 6 0.0000 0.0000 0.0000 0.0000 0.0000 23.6209
#
#
#
# Elastic Compliance Matrix: (Units=1/GPa)
#
#
# Indices 1 2 3 4 5 6 
#
# 1 0.014952 -0.002644 -0.003309 0.000000 0.000000 0.000000
# 2 -0.002644 0.011356 -0.002343 0.000000 0.000000 0.000000
# 3 -0.003309 -0.002343 0.006518 0.000000 0.000000 0.000000
# 4 0.000000 0.000000 0.000000 -0.157741 0.000000 0.000000
# 5 0.000000 0.000000 0.000000 0.000000 0.041645 0.000000
# 6 0.000000 0.000000 0.000000 0.000000 0.000000 0.042335
#
#
# Mechanical properties :
#
#
# Convention : Reuss Voigt Hill
#
# Bulk Modulus (GPa) = 61.59673 74.13138 67.86406
# Shear Modulus (GPa) = -264.10225 25.07907 -119.51159
#
# Velocity S-wave (km/s) = -10.47824 3.22893 -7.04867
# Velocity P-wave (km/s) = 10.99019 6.68726 6.16704
#
# Compressibility (1/GPa) = 0.01623463
#
# Stress axis : x y z
#
# Youngs Moduli (GPa) = 66.87966 88.06018 153.43252
#
# Poissons Ratio (x) = 0.23284 0.50764
# Poissons Ratio (y) = 0.17683 0.35948
# Poissons Ratio (z) = 0.22127 0.20632
#
# Static dielectric constant tensor:
#      x y z
#    x 1.938700 0.000000 0.000000 
#    y 0.000000 2.072660 0.000000 
#    z 0.000000 0.000000 1.915970 
# 
# From -- ./inp_files/28576.got.cif
#   From: 2010.05.17/outbox.cif.g08.bks.cpg/sg21_15_cif.got.tgz:28576.got - 2010.06.03 23:14:55.
