data_PCOD9322130
_publ_section_title
;
Structure prediction by ZEFSAII (Michael W. Deem and Ramdas Pophale) SiO2 
 PCOD9322130
Probable space group: C 2 2 21
;
_chemical_formula_sum "Si O2"
_cell_formula_units_Z 32
_cell_length_a 8.785163
_cell_length_b 28.508652
_cell_length_c 5.121910
_cell_angle_alpha 90.000000
_cell_angle_beta 90.000000
_cell_angle_gamma 90.000000
_cell_volume 1282.798518
_symmetry_space_group_name_H-M "C 2 2 21"
_symmetry_group_IT_number 20
_symmetry_cell_setting 'orthorhombic'
loop_
_space_group_symop_operation_xyz
x,y,z
-x,-y,1/2+z
x,-y,-z
-x,y,1/2-z
1/2+x,1/2+y,z
1/2-x,1/2-y,1/2+z
1/2+x,1/2-y,-z
1/2-x,1/2+y,1/2-z
loop_
_atom_site_type_symbol
_atom_site_label
_atom_site_fract_x
_atom_site_fract_y
_atom_site_fract_z
Si Si1 0.500000 0.154377 0.250000
Si Si2 0.753749 0.409781 0.470976
Si Si3 0.251546 0.781416 0.969131
Si Si4 0.000000 0.842446 0.250000
Si Si5 0.000000 0.533184 0.750000
Si Si6 0.907557 0.000000 0.000000
O O1 0.375416 0.121147 0.378674
O O2 0.596515 0.187124 0.446149
O O3 0.617136 0.375823 0.399564
O O4 0.686820 0.455904 0.609088
O O5 0.851735 0.433584 0.238731
O O6 0.226900 0.758734 0.685808
O O7 0.106250 0.811082 0.063451
O O8 0.993744 0.500000 0.500000
O O9 0.000000 0.981946 0.250000
#
# Coordination Sequence:
#
# PCOD9322130 Si02
#       6
#     4   8   8   4   4   4
#     4  12  30  52  82 126 160 212 270 340 397 489
#     4  12  28  49  82 116 170 207 276 324 399 467
#     4  12  30  57  86 120 163 212 266 336 420 492
#     4  12  29  50  84 121 162 210 271 338 399 482
#     4  12  27  48  76 113 158 218 267 320 390 463
#     4  12  30  50  78 116 164 220 264 330 396 466
#
# _framework density 24.945463
#
# number of rings (size 3 to 8) (size 9 to 14) (size 15 to 20)
#    0.000    0.000    2.500    4.500    5.250   12.000 
#    0.000    0.000    0.000    0.000    0.000    0.000 
#    0.000    0.000    0.000    0.000    0.000    0.000 
#
# Total GULP energy -89780.500147 kJ/mol
# GULP energy per Si atom -5611.281259 kJ/mol
# Density = 2.488869 g / cm^3
# Si number density = 24.945463 Si / 1000 Ang^3
#
#
#
# Elastic Constant Matrix: (Units=GPa)
#
#
# Indices 1 2 3 4 5 6 
#
# 1 182.9832 76.8015 33.3930 0.0000 0.0000 0.0000
# 2 76.8015 138.3899 23.5970 0.0000 0.0000 0.0000
# 3 33.3930 23.5970 78.2016 0.0000 0.0000 0.0000
# 4 0.0000 0.0000 0.0000 73.1235 0.0000 0.0000
# 5 0.0000 0.0000 0.0000 0.0000 45.8184 0.0000
# 6 0.0000 0.0000 0.0000 0.0000 0.0000 4.6271
#
#
#
# Elastic Compliance Matrix: (Units=1/GPa)
#
#
# Indices 1 2 3 4 5 6 
#
# 1 0.007418 -0.003771 -0.002030 0.000000 0.000000 0.000000
# 2 -0.003771 0.009535 -0.001267 0.000000 0.000000 0.000000
# 3 -0.002030 -0.001267 0.014037 0.000000 0.000000 0.000000
# 4 0.000000 0.000000 0.000000 0.013675 0.000000 0.000000
# 5 0.000000 0.000000 0.000000 0.000000 0.021825 0.000000
# 6 0.000000 0.000000 0.000000 0.000000 0.000000 0.216119
#
#
# Mechanical properties :
#
#
# Convention : Reuss Voigt Hill
#
# Bulk Modulus (GPa) = 59.33176 74.12862 66.73019
# Shear Modulus (GPa) = 16.53651 42.43268 29.48459
#
# Velocity S-wave (km/s) = 2.57749 4.12881 3.44170
# Velocity P-wave (km/s) = 5.71788 7.24640 6.52704
#
# Compressibility (1/GPa) = 0.01685438
#
# Stress axis : x y z
#
# Youngs Moduli (GPa) = 134.80701 104.88179 71.24282
#
# Poissons Ratio (x) = 0.39547 0.14461
# Poissons Ratio (y) = 0.50831 0.09026
# Poissons Ratio (z) = 0.27363 0.13287
#
# Static dielectric constant tensor:
#      x y z
#    x 1.994110 0.000000 0.000000 
#    y 0.000000 1.959120 0.000000 
#    z 0.000000 0.000000 1.895010 
# 
# From -- ./inp_files/634.got.cif
#   From: 2010.05.17/outbox.cif.g08.bks.cpg/sg20_1_cif.got.tgz:634.got - 2010.06.03 22:52:26.
