data_PCOD9322639
_publ_section_title
;
Structure prediction by ZEFSAII (Michael W. Deem and Ramdas Pophale) SiO2 
 PCOD9322639
Probable space group: C 2 2 2
;
_chemical_formula_sum "Si O2"
_cell_formula_units_Z 48
_cell_length_a 10.582001
_cell_length_b 19.914941
_cell_length_c 12.621604
_cell_angle_alpha 90.000000
_cell_angle_beta 90.000000
_cell_angle_gamma 90.000000
_cell_volume 2659.875888
_symmetry_space_group_name_H-M "C 2 2 2"
_symmetry_group_IT_number 21
_symmetry_cell_setting 'orthorhombic'
loop_
_space_group_symop_operation_xyz
x,y,z
-x,-y,z
x,-y,-z
-x,y,-z
1/2+x,1/2+y,z
1/2-x,1/2-y,z
1/2+x,1/2-y,-z
1/2-x,1/2+y,-z
loop_
_atom_site_type_symbol
_atom_site_label
_atom_site_fract_x
_atom_site_fract_y
_atom_site_fract_z
Si Si1 0.000000 0.796392 0.000000
Si Si2 0.350880 0.858493 0.488726
Si Si3 0.073987 0.847950 0.773654
Si Si4 0.750000 0.250000 0.099482
Si Si5 0.713661 0.633571 0.733746
Si Si6 0.641578 0.508803 0.267063
Si Si7 0.775216 0.000000 0.500000
Si Si8 0.250000 0.250000 0.346179
O O1 0.877289 0.753794 0.968287
O O2 0.039219 0.839053 0.896822
O O3 0.500000 0.850378 0.500000
O O4 0.292960 0.847758 0.371002
O O5 0.291694 0.809162 0.575030
O O6 0.310903 0.934722 0.511096
O O7 0.164246 0.912890 0.757065
O O8 0.141218 0.782063 0.727197
O O9 0.938243 0.858057 0.715179
O O10 0.750668 0.315368 0.174220
O O11 0.726670 0.554833 0.767383
O O12 0.500000 0.500000 0.223265
O O13 0.643720 0.498240 0.393631
#
# Coordination Sequence:
#
# PCOD9322639 Si02
#       8
#     4   8   8   4   8   8   4   4
#     4  10  22  38  65  84 121 150 204 252 318 348
#     4  11  24  35  55  84 118 165 194 237 283 364
#     4  10  21  39  58  89 115 154 198 255 297 353
#     4  10  20  40  58  88 112 158 190 258 302 368
#     4   9  21  37  61  80 120 149 196 239 306 351
#     4   9  17  34  57  85 113 149 191 235 292 349
#     4  10  18  38  52  80 118 161 191 224 284 354
#     4  12  24  34  58  88 122 150 202 246 290 364
#
# _framework density 18.045953999999998
#
# number of rings (size 3 to 8) (size 9 to 14) (size 15 to 20)
#    0.000    2.000    1.667    1.500    7.000    0.000 
#    0.000   10.417    0.000    0.000    0.000    7.000 
#    0.000    0.000    0.000    0.000    0.000    0.000 
#
# Total GULP energy -133684.232104 kJ/mol
# GULP energy per Si atom -5570.176338 kJ/mol
# Density = 1.800488 g / cm^3
# Si number density = 18.045954 Si / 1000 Ang^3
#
#
#
# Elastic Constant Matrix: (Units=GPa)
#
#
# Indices 1 2 3 4 5 6 
#
# 1 84.1867 28.6681 50.2620 0.0000 0.0000 0.0000
# 2 28.6681 103.3402 53.7472 0.0000 0.0000 0.0000
# 3 50.2620 53.7472 90.2801 0.0000 0.0000 0.0000
# 4 0.0000 0.0000 0.0000 13.2869 0.0000 0.0000
# 5 0.0000 0.0000 0.0000 0.0000 27.3619 0.0000
# 6 0.0000 0.0000 0.0000 0.0000 0.0000 27.1664
#
#
#
# Elastic Compliance Matrix: (Units=1/GPa)
#
#
# Indices 1 2 3 4 5 6 
#
# 1 0.017799 0.000313 -0.010096 0.000000 0.000000 0.000000
# 2 0.000313 0.014022 -0.008522 0.000000 0.000000 0.000000
# 3 -0.010096 -0.008522 0.021771 0.000000 0.000000 0.000000
# 4 0.000000 0.000000 0.000000 0.075262 0.000000 0.000000
# 5 0.000000 0.000000 0.000000 0.000000 0.036547 0.000000
# 6 0.000000 0.000000 0.000000 0.000000 0.000000 0.036810
#
#
# Mechanical properties :
#
#
# Convention : Reuss Voigt Hill
#
# Bulk Modulus (GPa) = 58.88444 60.35129 59.61786
# Shear Modulus (GPa) = 20.45129 23.23835 21.84482
#
# Velocity S-wave (km/s) = 3.37009 3.59239 3.48301
# Velocity P-wave (km/s) = 6.91697 7.12199 7.02023
#
# Compressibility (1/GPa) = 0.01698242
#
# Stress axis : x y z
#
# Youngs Moduli (GPa) = 56.18205 71.31449 45.93262
#
# Poissons Ratio (x) = -0.02233 0.46373
# Poissons Ratio (y) = -0.01759 0.39145
# Poissons Ratio (z) = 0.56720 0.60777
#
# Static dielectric constant tensor:
#      x y z
#    x 1.625010 0.000000 0.000000 
#    y 0.000000 1.677240 0.000000 
#    z 0.000000 0.000000 1.614520 
# 
# From -- ./inp_files/24225.got.cif
#   From: 2010.05.17/outbox.cif.g08.bks.cpg/sg21_13_cif.got.tgz:24225.got - 2010.06.03 23:14:55.
