data_PCOD9322311
_publ_section_title
;
Structure prediction by ZEFSAII (Michael W. Deem and Ramdas Pophale) SiO2 
 PCOD9322311
Probable space group: C 2 2 2
;
_chemical_formula_sum "Si O2"
_cell_formula_units_Z 40
_cell_length_a 20.234865
_cell_length_b 5.220882
_cell_length_c 19.707583
_cell_angle_alpha 90.000000
_cell_angle_beta 90.000000
_cell_angle_gamma 90.000000
_cell_volume 2081.984794
_symmetry_space_group_name_H-M "C 2 2 2"
_symmetry_group_IT_number 21
_symmetry_cell_setting 'orthorhombic'
loop_
_space_group_symop_operation_xyz
x,y,z
-x,-y,z
x,-y,-z
-x,y,-z
1/2+x,1/2+y,z
1/2-x,1/2-y,z
1/2+x,1/2-y,-z
1/2-x,1/2+y,-z
loop_
_atom_site_type_symbol
_atom_site_label
_atom_site_fract_x
_atom_site_fract_y
_atom_site_fract_z
Si Si1 0.381157 0.861082 0.821348
Si Si2 0.045221 0.249634 0.312202
Si Si3 0.075376 0.246384 0.469378
Si Si4 0.250000 0.250000 0.114340
Si Si5 0.662820 0.500000 0.000000
Si Si6 0.431103 0.644349 0.102648
O O1 0.399162 0.811304 0.743331
O O2 0.304173 0.899270 0.840557
O O3 0.398689 0.588869 0.855420
O O4 0.424600 0.095887 0.852807
O O5 0.071155 0.224358 0.388842
O O6 0.000000 0.500000 0.312354
O O7 0.000000 0.000000 0.295116
O O8 0.106473 0.500000 0.500000
O O9 0.000000 0.247503 0.500000
O O10 0.109474 0.000000 0.500000
O O11 0.290277 0.422692 0.061294
O O12 0.611659 0.698016 0.965246
O O13 0.500000 0.500000 0.085806
#
# Coordination Sequence:
#
# PCOD9322311 Si02
#       6
#     8   8   8   4   4   8
#     4  11  24  37  57  81 115 158 184 245 282 354
#     4  12  20  32  54  81 118 150 185 225 305 357
#     4  10  16  29  46  77 112 144 180 228 270 351
#     4  10  22  42  60  84 112 148 222 240 288 346
#     4  10  21  38  66  80 103 154 188 256 288 346
#     4  11  22  39  57  87 116 139 188 235 312 361
#
# _framework density 19.212437000000001
#
# number of rings (size 3 to 8) (size 9 to 14) (size 15 to 20)
#    0.000    1.200    4.000    5.100    0.000    4.800 
#    0.000    4.000    0.000    0.000    0.000    1.400 
#    0.000    0.000    0.000    0.000    0.000    0.000 
#
# Total GULP energy -111342.072631 kJ/mol
# GULP energy per Si atom -5567.103632 kJ/mol
# Density = 1.916871 g / cm^3
# Si number density = 19.212437 Si / 1000 Ang^3
#
#
#
# Elastic Constant Matrix: (Units=GPa)
#
#
# Indices 1 2 3 4 5 6 
#
# 1 92.9774 23.4089 70.2869 0.0000 0.0000 0.0000
# 2 23.4089 142.8592 39.9736 0.0000 0.0000 0.0000
# 3 70.2869 39.9736 155.0251 0.0000 0.0000 0.0000
# 4 0.0000 0.0000 0.0000 18.8637 0.0000 0.0000
# 5 0.0000 0.0000 0.0000 0.0000 17.0854 0.0000
# 6 0.0000 0.0000 0.0000 0.0000 0.0000 11.0917
#
#
#
# Elastic Compliance Matrix: (Units=1/GPa)
#
#
# Indices 1 2 3 4 5 6 
#
# 1 0.016421 -0.000655 -0.007276 0.000000 0.000000 0.000000
# 2 -0.000655 0.007570 -0.001655 0.000000 0.000000 0.000000
# 3 -0.007276 -0.001655 0.010176 0.000000 0.000000 0.000000
# 4 0.000000 0.000000 0.000000 0.053012 0.000000 0.000000
# 5 0.000000 0.000000 0.000000 0.000000 0.058530 0.000000
# 6 0.000000 0.000000 0.000000 0.000000 0.000000 0.090158
#
#
# Mechanical properties :
#
#
# Convention : Reuss Voigt Hill
#
# Bulk Modulus (GPa) = 66.68834 73.13342 69.91088
# Shear Modulus (GPa) = 19.22806 26.55430 22.89118
#
# Velocity S-wave (km/s) = 3.16700 3.72175 3.45552
# Velocity P-wave (km/s) = 6.93971 7.52442 7.23797
#
# Compressibility (1/GPa) = 0.01499513
#
# Stress axis : x y z
#
# Youngs Moduli (GPa) = 60.89920 132.09483 98.26776
#
# Poissons Ratio (x) = 0.08649 0.71501
# Poissons Ratio (y) = 0.03987 0.16265
# Poissons Ratio (z) = 0.44311 0.21864
#
# Static dielectric constant tensor:
#      x y z
#    x 1.737590 0.000000 0.000000 
#    y 0.000000 1.675280 0.000000 
#    z 0.000000 0.000000 1.755620 
# 
# From -- ./inp_files/36999.got.cif
#   From: 2010.05.17/outbox.cif.g08.bks.cpg/sg21_19_cif.got.tgz:36999.got - 2010.06.03 23:14:55.
