data_PCOD9322436
_publ_section_title
;
Structure prediction by ZEFSAII (Michael W. Deem and Ramdas Pophale) SiO2 
 PCOD9322436
Probable space group: C 2 2 2
;
_chemical_formula_sum "Si O2"
_cell_formula_units_Z 58
_cell_length_a 8.556407
_cell_length_b 13.756757
_cell_length_c 18.333349
_cell_angle_alpha 90.000000
_cell_angle_beta 90.000000
_cell_angle_gamma 90.000000
_cell_volume 2157.989395
_symmetry_space_group_name_H-M "C 2 2 2"
_symmetry_group_IT_number 21
_symmetry_cell_setting 'orthorhombic'
loop_
_space_group_symop_operation_xyz
x,y,z
-x,-y,z
x,-y,-z
-x,y,-z
1/2+x,1/2+y,z
1/2-x,1/2-y,z
1/2+x,1/2-y,-z
1/2-x,1/2+y,-z
loop_
_atom_site_type_symbol
_atom_site_label
_atom_site_fract_x
_atom_site_fract_y
_atom_site_fract_z
Si Si1 0.050176 0.646958 0.084333
Si Si2 0.768208 0.364325 0.225630
Si Si3 0.590372 0.872537 0.624526
Si Si4 0.000000 0.000000 0.000000
Si Si5 0.249764 0.869389 0.656254
Si Si6 0.564894 0.644453 0.581690
Si Si7 0.255142 0.867894 0.824853
Si Si8 0.571748 0.377867 0.120481
O O1 0.196634 0.617242 0.138658
O O2 0.063638 0.762599 0.098955
O O3 0.911787 0.604933 0.133346
O O4 0.000000 0.629885 0.000000
O O5 0.750000 0.250000 0.237629
O O6 0.874858 0.396200 0.290417
O O7 0.594065 0.395149 0.210131
O O8 0.408441 0.903937 0.613423
O O9 0.580887 0.756114 0.609766
O O10 0.758443 0.898458 0.587445
O O11 0.111288 0.070771 0.955216
O O12 0.250000 0.750000 0.652690
O O13 0.262509 0.898617 0.740825
O O14 0.081555 0.899942 0.625580
O O15 0.500000 0.646361 0.500000
O O16 0.250000 0.750000 0.823123
O O17 0.115005 0.905297 0.873690
#
# Coordination Sequence:
#
# PCOD9322436 Si02
#       8
#     8   8   8   2   8   8   8   8
#     4  10  19  30  50  79  98 115 170 238 280 304
#     4  10  18  32  50  73  92 129 180 227 275 304
#     4  10  18  29  44  64  99 141 186 222 254 313
#     4  12  24  40  44  78 104 148 174 212 308 368
#     4   9  17  28  44  66  97 134 181 217 257 315
#     4  10  20  26  39  66 105 150 187 205 242 326
#     4   9  17  30  50  73  92 124 173 226 272 303
#     4  10  22  32  52  65 103 132 171 221 271 344
#
# _framework density 26.876871999999999
#
# number of rings (size 3 to 8) (size 9 to 14) (size 15 to 20)
#    0.000    2.207    3.448    0.828   11.586    1.655 
#    0.000    0.000    0.000    1.655    0.000    0.000 
#    0.000    0.000    0.000    9.931   13.793    4.690 
#
# Total GULP energy -161490.057946 kJ/mol
# GULP energy per Si atom -5568.622688 kJ/mol
# Density = 2.681570 g / cm^3
# Si number density = 26.876872 Si / 1000 Ang^3
#
#
#
# Elastic Constant Matrix: (Units=GPa)
#
#
# Indices 1 2 3 4 5 6 
#
# 1 138.1790 1.4201 76.5852 0.0000 0.0000 0.0000
# 2 1.4201 70.9428 10.1931 0.0000 0.0000 0.0000
# 3 76.5852 10.1931 180.4342 0.0000 0.0000 0.0000
# 4 0.0000 0.0000 0.0000 -3.7927 0.0000 0.0000
# 5 0.0000 0.0000 0.0000 0.0000 45.8924 0.0000
# 6 0.0000 0.0000 0.0000 0.0000 0.0000 24.1122
#
#
#
# Elastic Compliance Matrix: (Units=1/GPa)
#
#
# Indices 1 2 3 4 5 6 
#
# 1 0.009474 0.000391 -0.004043 0.000000 0.000000 0.000000
# 2 0.000391 0.014227 -0.000970 0.000000 0.000000 0.000000
# 3 -0.004043 -0.000970 0.007313 0.000000 0.000000 0.000000
# 4 0.000000 0.000000 0.000000 -0.263667 0.000000 0.000000
# 5 0.000000 0.000000 0.000000 0.000000 0.021790 0.000000
# 6 0.000000 0.000000 0.000000 0.000000 0.000000 0.041473
#
#
# Mechanical properties :
#
#
# Convention : Reuss Voigt Hill
#
# Bulk Modulus (GPa) = 45.93306 62.88365 54.40835
# Shear Modulus (GPa) = -32.70347 33.33289 0.31471
#
# Velocity S-wave (km/s) = -3.49203 3.52548 0.34256
# Velocity P-wave (km/s) = 0.93178 6.32611 4.52150
#
# Compressibility (1/GPa) = 0.02177081
#
# Stress axis : x y z
#
# Youngs Moduli (GPa) = 105.55243 70.28701 136.73976
#
# Poissons Ratio (x) = -0.02750 0.55288
# Poissons Ratio (y) = -0.04130 0.13261
# Poissons Ratio (z) = 0.42678 0.06817
#
# Static dielectric constant tensor:
#      x y z
#    x 2.317780 0.000000 0.000000 
#    y 0.000000 2.208330 0.000000 
#    z 0.000000 0.000000 2.166210 
# 
# From -- ./inp_files/35830.got.cif
#   From: 2010.05.17/outbox.cif.g08.bks.cpg/sg21_18_cif.got.tgz:35830.got - 2010.06.03 23:14:55.
