data_PCOD9322086
_publ_section_title
;
Structure prediction by ZEFSAII (Michael W. Deem and Ramdas Pophale) SiO2 
 PCOD9322086
Probable space group: C 2 2 21
;
_chemical_formula_sum "Si O2"
_cell_formula_units_Z 40
_cell_length_a 17.049727
_cell_length_b 8.455494
_cell_length_c 11.891571
_cell_angle_alpha 90.000000
_cell_angle_beta 90.000000
_cell_angle_gamma 90.000000
_cell_volume 1714.334829
_symmetry_space_group_name_H-M "C 2 2 21"
_symmetry_group_IT_number 20
_symmetry_cell_setting 'orthorhombic'
loop_
_space_group_symop_operation_xyz
x,y,z
-x,-y,1/2+z
x,-y,-z
-x,y,1/2-z
1/2+x,1/2+y,z
1/2-x,1/2-y,1/2+z
1/2+x,1/2-y,-z
1/2-x,1/2+y,1/2-z
loop_
_atom_site_type_symbol
_atom_site_label
_atom_site_fract_x
_atom_site_fract_y
_atom_site_fract_z
Si Si1 0.548792 0.685423 0.982642
Si Si2 0.381369 0.826022 0.964159
Si Si3 0.872706 0.382975 0.713609
Si Si4 0.587868 0.757224 0.221213
Si Si5 0.205183 0.880114 0.603035
O O1 0.456206 0.719474 0.995093
O O2 0.574951 0.774084 0.868524
O O3 0.561424 0.500000 0.000000
O O4 0.596662 0.756412 0.087067
O O5 0.362358 0.801375 0.834110
O O6 0.305869 0.786254 0.038954
O O7 0.407137 0.000000 0.000000
O O8 0.905553 0.555845 0.746491
O O9 0.790474 0.409206 0.651590
O O10 0.500000 0.702877 0.250000
O O11 0.646715 0.645696 0.291052
O O12 0.186873 0.000000 0.500000
#
# Coordination Sequence:
#
# PCOD9322086 Si02
#       5
#     8   8   8   8   8
#     4  12  27  45  75 117 154 203 267 334 394 474
#     4  12  25  50  77 108 153 208 264 325 405 487
#     4  12  28  48  80 109 160 209 272 324 412 485
#     4  12  25  50  79 108 154 214 258 319 399 491
#     4  12  29  47  75 116 161 201 265 343 403 468
#
# _framework density 23.332664000000001
#
# number of rings (size 3 to 8) (size 9 to 14) (size 15 to 20)
#    0.000    0.000    4.000    5.400    8.400    0.800 
#    0.000    0.000    0.000    0.000    0.000    0.000 
#    0.000    0.000    0.000    0.000    0.000    0.000 
#
# Total GULP energy -111800.607878 kJ/mol
# GULP energy per Si atom -5590.030394 kJ/mol
# Density = 2.327956 g / cm^3
# Si number density = 23.332664 Si / 1000 Ang^3
#
#
#
# Elastic Constant Matrix: (Units=GPa)
#
#
# Indices 1 2 3 4 5 6 
#
# 1 93.5285 13.8696 15.8945 0.0000 0.0000 0.0000
# 2 13.8696 59.4228 6.3414 0.0000 0.0000 0.0000
# 3 15.8945 6.3414 158.9870 0.0000 0.0000 0.0000
# 4 0.0000 0.0000 0.0000 43.3407 0.0000 0.0000
# 5 0.0000 0.0000 0.0000 0.0000 34.9127 0.0000
# 6 0.0000 0.0000 0.0000 0.0000 0.0000 -0.0321
#
#
#
# Elastic Compliance Matrix: (Units=1/GPa)
#
#
# Indices 1 2 3 4 5 6 
#
# 1 0.011239 -0.002514 -0.001023 0.000000 0.000000 0.000000
# 2 -0.002514 0.017463 -0.000445 0.000000 0.000000 0.000000
# 3 -0.001023 -0.000445 0.006410 0.000000 0.000000 0.000000
# 4 0.000000 0.000000 0.000000 0.023073 0.000000 0.000000
# 5 0.000000 0.000000 0.000000 0.000000 0.028643 0.000000
# 6 0.000000 0.000000 0.000000 0.000000 0.000000-31.157109
#
#
# Mechanical properties :
#
#
# Convention : Reuss Voigt Hill
#
# Bulk Modulus (GPa) = 36.83721 42.68324 39.76022
# Shear Modulus (GPa) = -0.16101 34.03310 16.93604
#
# Velocity S-wave (km/s) = -0.26298 3.82331 2.69709
# Velocity P-wave (km/s) = 3.96609 6.15007 5.17461
#
# Compressibility (1/GPa) = 0.02714647
#
# Stress axis : x y z
#
# Youngs Moduli (GPa) = 88.97877 57.26443 156.00908
#
# Poissons Ratio (x) = 0.14396 0.15964
# Poissons Ratio (y) = 0.22369 0.06946
# Poissons Ratio (z) = 0.09105 0.02549
#
# Static dielectric constant tensor:
#      x y z
#    x 1.824890 0.000000 0.000000 
#    y 0.000000 1.976260 0.000000 
#    z 0.000000 0.000000 1.937100 
# 
# From -- ./inp_files/12664.got.cif
#   From: 2010.05.17/outbox.cif.g08.bks.cpg/sg20_7_cif.got.tgz:12664.got - 2010.06.03 22:52:26.
