data_PCOD9322486
_publ_section_title
;
Structure prediction by ZEFSAII (Michael W. Deem and Ramdas Pophale) SiO2 
 PCOD9322486
Probable space group: C 2 2 2
;
_chemical_formula_sum "Si O2"
_cell_formula_units_Z 40
_cell_length_a 8.295589
_cell_length_b 28.546329
_cell_length_c 9.085295
_cell_angle_alpha 90.000000
_cell_angle_beta 90.000000
_cell_angle_gamma 90.000000
_cell_volume 2151.476106
_symmetry_space_group_name_H-M "C 2 2 2"
_symmetry_group_IT_number 21
_symmetry_cell_setting 'orthorhombic'
loop_
_space_group_symop_operation_xyz
x,y,z
-x,-y,z
x,-y,-z
-x,y,-z
1/2+x,1/2+y,z
1/2-x,1/2-y,z
1/2+x,1/2-y,-z
1/2-x,1/2+y,-z
loop_
_atom_site_type_symbol
_atom_site_label
_atom_site_fract_x
_atom_site_fract_y
_atom_site_fract_z
Si Si1 0.017648 0.331684 0.327919
Si Si2 0.646717 0.359481 0.814502
Si Si3 0.549599 0.450000 0.172001
Si Si4 0.941218 0.241857 0.838250
Si Si5 0.658421 0.895585 0.905830
O O1 0.198553 0.347484 0.283975
O O2 0.990969 0.277506 0.281756
O O3 0.000000 0.338657 0.500000
O O4 0.901091 0.361721 0.223209
O O5 0.549392 0.405567 0.766982
O O6 0.535237 0.313367 0.815260
O O7 0.723265 0.369626 0.976836
O O8 0.500000 0.500000 0.237994
O O9 0.738300 0.437464 0.165438
O O10 0.500000 0.452020 0.000000
O O11 0.750000 0.250000 0.837632
O O12 0.000000 0.255967 0.000000
O O13 0.500000 0.909934 0.000000
#
# Coordination Sequence:
#
# PCOD9322486 Si02
#       5
#     8   8   8   8   8
#     4  10  20  34  50  73 105 138 176 219 259 308
#     4   9  18  34  52  75 104 136 171 213 264 319
#     4   9  17  32  55  82 105 127 168 223 266 307
#     4  10  18  31  51  74 101 135 171 208 255 314
#     4   9  17  33  56  78 105 139 172 211 264 317
#
# _framework density 18.591887
#
# number of rings (size 3 to 8) (size 9 to 14) (size 15 to 20)
#    0.000    2.600    0.000    4.800    0.000    0.000 
#    0.000   33.000    0.000    3.600    0.000    0.000 
#    0.000    0.000    0.000    0.000    0.000    0.000 
#
# Total GULP energy -111466.279156 kJ/mol
# GULP energy per Si atom -5573.313958 kJ/mol
# Density = 1.854957 g / cm^3
# Si number density = 18.591887 Si / 1000 Ang^3
#
#
#
# Elastic Constant Matrix: (Units=GPa)
#
#
# Indices 1 2 3 4 5 6 
#
# 1 73.8354 61.2890 26.0135 0.0000 0.0000 0.0000
# 2 61.2890 146.3324 33.6664 0.0000 0.0000 0.0000
# 3 26.0135 33.6664 86.9046 0.0000 0.0000 0.0000
# 4 0.0000 0.0000 0.0000 -3.3120 0.0000 0.0000
# 5 0.0000 0.0000 0.0000 0.0000 8.9123 0.0000
# 6 0.0000 0.0000 0.0000 0.0000 0.0000 16.0572
#
#
#
# Elastic Compliance Matrix: (Units=1/GPa)
#
#
# Indices 1 2 3 4 5 6 
#
# 1 0.021564 -0.008285 -0.003245 0.000000 0.000000 0.000000
# 2 -0.008285 0.010686 -0.001660 0.000000 0.000000 0.000000
# 3 -0.003245 -0.001660 0.013121 0.000000 0.000000 0.000000
# 4 0.000000 0.000000 0.000000 -0.301929 0.000000 0.000000
# 5 0.000000 0.000000 0.000000 0.000000 0.112205 0.000000
# 6 0.000000 0.000000 0.000000 0.000000 0.000000 0.062277
#
#
# Mechanical properties :
#
#
# Convention : Reuss Voigt Hill
#
# Bulk Modulus (GPa) = 52.65610 61.00110 56.82860
# Shear Modulus (GPa) = -101.28524 16.73841 -42.27342
#
# Velocity S-wave (km/s) = -7.38894 3.00377 -4.77357
# Velocity P-wave (km/s) = 6.66421 6.70164 0.50014
#
# Compressibility (1/GPa) = 0.01899115
#
# Stress axis : x y z
#
# Youngs Moduli (GPa) = 46.37269 93.58293 76.21258
#
# Poissons Ratio (x) = 0.77536 0.24733
# Poissons Ratio (y) = 0.38421 0.12648
# Poissons Ratio (z) = 0.15049 0.15530
#
# Static dielectric constant tensor:
#      x y z
#    x 1.668830 0.000000 0.000000 
#    y 0.000000 1.708500 0.000000 
#    z 0.000000 0.000000 1.606870 
# 
# From -- ./inp_files/11209.got.cif
#   From: 2010.05.17/outbox.cif.g08.bks.cpg/sg21_6_cif.got.tgz:11209.got - 2010.06.03 23:14:55.
