data_PCOD9322776
_publ_section_title
;
Structure prediction by ZEFSAII (Michael W. Deem and Ramdas Pophale) SiO2 
 PCOD9322776
Probable space group: C 2 2 2
;
_chemical_formula_sum "Si O2"
_cell_formula_units_Z 32
_cell_length_a 7.188479
_cell_length_b 34.107075
_cell_length_c 5.315221
_cell_angle_alpha 90.000000
_cell_angle_beta 90.000000
_cell_angle_gamma 90.000000
_cell_volume 1303.175214
_symmetry_space_group_name_H-M "C 2 2 2"
_symmetry_group_IT_number 21
_symmetry_cell_setting 'orthorhombic'
loop_
_space_group_symop_operation_xyz
x,y,z
-x,-y,z
x,-y,-z
-x,y,-z
1/2+x,1/2+y,z
1/2-x,1/2-y,z
1/2+x,1/2-y,-z
1/2-x,1/2+y,-z
loop_
_atom_site_type_symbol
_atom_site_label
_atom_site_fract_x
_atom_site_fract_y
_atom_site_fract_z
Si Si1 0.225774 0.045109 0.509725
Si Si2 0.282196 0.205766 0.301143
Si Si3 0.201826 0.675846 0.197006
Si Si4 0.725296 0.409401 0.994801
O O1 0.280585 0.061954 0.779237
O O2 0.000000 0.044944 0.500000
O O3 0.285741 0.000000 0.500000
O O4 0.282392 0.072690 0.274735
O O5 0.250000 0.250000 0.387996
O O6 0.497572 0.193919 0.251280
O O7 0.211010 0.177843 0.524980
O O8 0.201832 0.200913 0.021723
O O9 0.199573 0.632830 0.077498
O O10 0.500000 0.406189 0.000000
#
# Coordination Sequence:
#
# PCOD9322776 Si02
#       4
#     8   8   8   8
#     4   9  17  30  52  81 119 160 195 234 285 342
#     4  10  21  40  60  79 108 145 206 249 298 357
#     4  10  21  38  58  84 112 152 195 247 310 356
#     4  10  19  33  52  84 121 152 193 243 293 358
#
# _framework density 24.555413000000001
#
# number of rings (size 3 to 8) (size 9 to 14) (size 15 to 20)
#    0.000    2.250    0.000    3.000    0.000    3.000 
#   13.500    0.000    0.000    0.000    0.000   52.500 
#    0.000    0.000    0.000    0.000    0.000    0.000 
#
# Total GULP energy -89393.329820 kJ/mol
# GULP energy per Si atom -5587.083114 kJ/mol
# Density = 2.449952 g / cm^3
# Si number density = 24.555413 Si / 1000 Ang^3
#
#
#
# Elastic Constant Matrix: (Units=GPa)
#
#
# Indices 1 2 3 4 5 6 
#
# 1 132.4084 15.9139 11.8666 0.0000 0.0000 0.0000
# 2 15.9139 166.6021 48.5872 0.0000 0.0000 0.0000
# 3 11.8666 48.5872 219.6651 0.0000 0.0000 0.0000
# 4 0.0000 0.0000 0.0000 52.6175 0.0000 0.0000
# 5 0.0000 0.0000 0.0000 0.0000 -14.1250 0.0000
# 6 0.0000 0.0000 0.0000 0.0000 0.0000 84.8562
#
#
#
# Elastic Compliance Matrix: (Units=1/GPa)
#
#
# Indices 1 2 3 4 5 6 
#
# 1 0.007655 -0.000653 -0.000269 0.000000 0.000000 0.000000
# 2 -0.000653 0.006472 -0.001396 0.000000 0.000000 0.000000
# 3 -0.000269 -0.001396 0.004876 0.000000 0.000000 0.000000
# 4 0.000000 0.000000 0.000000 0.019005 0.000000 0.000000
# 5 0.000000 0.000000 0.000000 0.000000 -0.070796 0.000000
# 6 0.000000 0.000000 0.000000 0.000000 0.000000 0.011785
#
#
# Mechanical properties :
#
#
# Convention : Reuss Voigt Hill
#
# Bulk Modulus (GPa) = 69.60699 74.60122 72.10411
# Shear Modulus (GPa) = -431.81396 54.15695 -188.82851
#
# Velocity S-wave (km/s) = -13.27534 4.70137 -8.77872
# Velocity P-wave (km/s) = 14.37258 7.74062 8.56311
#
# Compressibility (1/GPa) = 0.01436637
#
# Stress axis : x y z
#
# Youngs Moduli (GPa) = 130.63425 154.51495 205.09647
#
# Poissons Ratio (x) = 0.10085 0.05520
# Poissons Ratio (y) = 0.08527 0.28636
# Poissons Ratio (z) = 0.03516 0.21574
#
# Static dielectric constant tensor:
#      x y z
#    x 2.220440 0.000000 0.000000 
#    y 0.000000 1.937420 0.000000 
#    z 0.000000 0.000000 2.167310 
# 
# From -- ./inp_files/1476.got.cif
#   From: 2010.05.17/outbox.cif.g08.bks.cpg/sg21_1_cif.got.tgz:1476.got - 2010.06.03 23:14:55.
